
     RDKit          3D

 37 40  0  0  1  0  0  0  0  0999 V2000
   47.9230   33.2170   42.2720 N   0  0  0  0  0  0  0  0  0  0  0  0
   47.2320   33.1520   43.4920 C   0  0  0  0  0  0  0  0  0  0  0  0
   47.5250   32.1490   44.3720 C   0  0  0  0  0  0  0  0  0  0  0  0
   46.9340   32.0570   45.6340 C   0  0  0  0  0  0  0  0  0  0  0  0
   46.0170   32.9950   46.0480 C   0  0  0  0  0  0  0  0  0  0  0  0
   45.7120   34.0060   45.1770 C   0  0  0  0  0  0  0  0  0  0  0  0
   44.7930   34.9730   45.5750 C   0  0  0  0  0  0  0  0  0  0  0  0
   44.4470   36.0090   44.7660 C   0  0  0  0  0  0  0  0  0  0  0  0
   45.0470   36.0660   43.5140 C   0  0  0  0  0  0  0  0  0  0  0  0
   45.9490   35.1070   43.1360 C   0  0  0  0  0  0  0  0  0  0  0  0
   46.3080   34.0690   43.9380 C   0  0  0  0  0  0  0  0  0  0  0  0
   46.5060   35.2050   41.8840 O   0  0  0  0  0  0  0  0  0  0  0  0
   50.0510   32.4510   41.2170 C   0  0  1  0  0  0  0  0  0  0  0  0
   48.9510   32.0560   40.2630 C   0  0  0  0  0  0  0  0  0  0  0  0
   48.7420   32.1490   41.7990 C   0  0  2  0  0  0  0  0  0  0  0  0
   53.1690   30.5330   40.6370 C   0  0  0  0  0  0  0  0  0  0  0  0
   53.2460   29.7410   41.8380 C   0  0  0  0  0  0  0  0  0  0  0  0
   52.2160   29.9000   42.8160 C   0  0  0  0  0  0  0  0  0  0  0  0
   51.2310   30.7650   42.5810 N   0  0  0  0  0  0  0  0  0  0  0  0
   51.1990   31.4930   41.4270 C   0  0  0  0  0  0  0  0  0  0  0  0
   52.1580   31.3890   40.4460 N   0  0  0  0  0  0  0  0  0  0  0  0
   52.3340   28.9110   44.2940 S   0  0  0  0  0  0  0  0  0  0  0  0
   47.8355   34.0671   41.6971 H   0  0  0  0  0  0  0  0  0  0  0  0
   48.2560   31.3828   44.0745 H   0  0  0  0  0  0  0  0  0  0  0  0
   47.2043   31.2268   46.3031 H   0  0  0  0  0  0  0  0  0  0  0  0
   45.5469   32.9350   47.0407 H   0  0  0  0  0  0  0  0  0  0  0  0
   44.3342   34.8965   46.5718 H   0  0  0  0  0  0  0  0  0  0  0  0
   43.7221   36.7707   45.0890 H   0  0  0  0  0  0  0  0  0  0  0  0
   44.7965   36.8848   42.8235 H   0  0  0  0  0  0  0  0  0  0  0  0
   47.1614   34.5284   41.5795 H   0  0  0  0  0  0  0  0  0  0  0  0
   50.7274   33.3152   41.2920 H   0  0  0  0  0  0  0  0  0  0  0  0
   48.4996   32.8020   39.5924 H   0  0  0  0  0  0  0  0  0  0  0  0
   48.8098   31.2892   39.4871 H   0  0  0  0  0  0  0  0  0  0  0  0
   48.3986   31.4730   42.5959 H   0  0  0  0  0  0  0  0  0  0  0  0
   53.9497   30.4331   39.8685 H   0  0  0  0  0  0  0  0  0  0  0  0
   54.0737   29.0343   41.9977 H   0  0  0  0  0  0  0  0  0  0  0  0
   52.2373   29.7212   45.3945 H   0  0  0  0  0  0  0  0  0  0  0  0
  1  2  1  0
  2 11  1  0
  2  3  2  0
  3  4  1  0
  4  5  2  0
  6  7  2  0
  6  5  1  0
  8  7  1  0
  9  8  2  0
 10  9  1  0
 10 11  2  0
 11  6  1  0
 12 10  1  0
 13 20  1  0
 13 15  1  0
 14 13  1  0
 14 15  1  0
 15  1  1  0
 16 17  2  0
 17 18  1  0
 18 22  1  0
 19 18  2  0
 20 19  1  0
 21 16  1  0
 21 20  2  0
  1 23  1  0
  3 24  1  0
  4 25  1  0
  5 26  1  0
  7 27  1  0
  8 28  1  0
  9 29  1  0
 12 30  1  0
 13 31  1  6
 14 32  1  0
 14 33  1  0
 15 34  1  1
 16 35  1  0
 17 36  1  0
 22 37  1  0
M  ISO  8  24  14  25  14  26  14  27  14  28  14  29  14  30   3  31  13
M  ISO  6  32  13  33  13  34  13  35  14  36  14  37  11
M  END
>  <minimizedAffinity>  (1) 
-5.11902905

>  <minimizedRMSD>  (1) 
1.40392888

$$$$
