
     RDKit          3D

 36 38  0  0  1  0  0  0  0  0999 V2000
   45.4460   35.7400   43.9030 C   0  0  0  0  0  0  0  0  0  0  0  0
   46.4400   34.9240   43.3490 C   0  0  0  0  0  0  0  0  0  0  0  0
   46.7940   33.7370   44.0080 C   0  0  0  0  0  0  0  0  0  0  0  0
   46.1560   33.4500   45.1400 N   0  0  0  0  0  0  0  0  0  0  0  0
   45.1950   34.2570   45.6590 C   0  0  0  0  0  0  0  0  0  0  0  0
   44.8390   35.4020   45.0420 N   0  0  0  0  0  0  0  0  0  0  0  0
   48.8530   33.6960   42.6120 C   0  0  2  0  0  0  0  0  0  0  0  0
   47.8330   32.9320   43.3810 C   0  0  2  0  0  0  0  0  0  0  0  0
   47.3490   32.0400   42.3790 O   0  0  0  0  0  0  0  0  0  0  0  0
   48.5100   31.5020   41.8780 C   0  0  0  0  0  0  0  0  0  0  0  0
   49.6330   32.4970   42.0350 C   0  0  1  0  0  0  0  0  0  0  0  0
   49.6150   34.5460   43.3530 O   0  0  0  0  0  0  0  0  0  0  0  0
   50.2160   32.8860   40.8320 O   0  0  0  0  0  0  0  0  0  0  0  0
   45.0870   37.0140   43.1830 C   0  0  0  0  0  0  0  0  0  0  0  0
   45.2730   39.3730   44.1870 C   0  0  0  0  0  0  0  0  0  0  0  0
   45.9260   39.7480   43.1750 O   0  0  0  0  0  0  0  0  0  0  0  0
   44.8730   38.0220   44.2170 N   0  0  0  0  0  0  0  0  0  0  0  0
   44.9480   40.2860   45.2700 C   0  0  0  0  0  0  0  0  0  0  0  0
   44.4880   41.5440   45.1460 N   0  0  0  0  0  0  0  0  0  0  0  0
   44.3070   42.0620   46.3910 C   0  0  0  0  0  0  0  0  0  0  0  0
   44.6670   41.0880   47.2600 N   0  0  0  0  0  0  0  0  0  0  0  0
   45.0580   40.0070   46.5730 N   0  0  0  0  0  0  0  0  0  0  0  0
   46.9365   35.2097   42.4099 H   0  0  0  0  0  0  0  0  0  0  0  0
   44.6987   33.9719   46.5984 H   0  0  0  0  0  0  0  0  0  0  0  0
   48.4467   34.4076   41.8781 H   0  0  0  0  0  0  0  0  0  0  0  0
   48.2476   32.4351   44.2705 H   0  0  0  0  0  0  0  0  0  0  0  0
   48.3750   31.2664   40.8120 H   0  0  0  0  0  0  0  0  0  0  0  0
   48.7554   30.5817   42.4283 H   0  0  0  0  0  0  0  0  0  0  0  0
   50.4672   32.0984   42.6310 H   0  0  0  0  0  0  0  0  0  0  0  0
   49.4605   34.3737   44.3156 H   0  0  0  0  0  0  0  0  0  0  0  0
   51.0250   33.4258   41.0167 H   0  0  0  0  0  0  0  0  0  0  0  0
   45.9076   37.3195   42.5171 H   0  0  0  0  0  0  0  0  0  0  0  0
   44.1895   36.8825   42.5607 H   0  0  0  0  0  0  0  0  0  0  0  0
   44.3740   37.7112   45.0628 H   0  0  0  0  0  0  0  0  0  0  0  0
   43.9418   43.0690   46.6412 H   0  0  0  0  0  0  0  0  0  0  0  0
   44.6438   41.1661   48.2868 H   0  0  0  0  0  0  0  0  0  0  0  0
  1  6  1  0
  2  1  2  0
  2  3  1  0
  3  4  2  0
  4  5  1  0
  6  5  2  0
  7 12  1  0
  7  8  1  0
  8  3  1  0
  9  8  1  0
 10 11  1  0
 10  9  1  0
 11  7  1  0
 13 11  1  0
 14  1  1  0
 14 17  1  0
 15 17  1  0
 15 18  1  0
 16 15  2  0
 18 22  2  0
 19 18  1  0
 19 20  2  0
 20 21  1  0
 22 21  1  0
  2 23  1  0
  5 24  1  0
  7 25  1  6
  8 26  1  1
 10 27  1  0
 10 28  1  0
 11 29  1  1
 12 30  1  0
 13 31  1  0
 14 32  1  0
 14 33  1  0
 17 34  1  0
 20 35  1  0
 21 36  1  0
M  ISO  8  23  14  24  14  25  13  26  13  27  13  28  13  29  13  30   3
M  ISO  5  31   3  32   8  33   8  35  14  36   9
M  END
>  <minimizedAffinity>  (1) 
-6.06834936

>  <minimizedRMSD>  (1) 
0.541857839

$$$$
