
     RDKit          3D

 31 32  0  0  1  0  0  0  0  0999 V2000
   45.2600   35.6600   44.2250 C   0  0  0  0  0  0  0  0  0  0  0  0
   46.2060   34.9000   43.5280 C   0  0  0  0  0  0  0  0  0  0  0  0
   46.6600   33.6940   44.0680 C   0  0  0  0  0  0  0  0  0  0  0  0
   46.1550   33.3260   45.2410 N   0  0  0  0  0  0  0  0  0  0  0  0
   45.2430   34.0630   45.9070 C   0  0  0  0  0  0  0  0  0  0  0  0
   44.7890   35.2340   45.4050 N   0  0  0  0  0  0  0  0  0  0  0  0
   48.6420   33.7970   42.5660 C   0  0  2  0  0  0  0  0  0  0  0  0
   47.6400   32.9640   43.2820 C   0  0  2  0  0  0  0  0  0  0  0  0
   47.0850   32.2190   42.2010 O   0  0  0  0  0  0  0  0  0  0  0  0
   48.2130   31.7280   41.5680 C   0  0  0  0  0  0  0  0  0  0  0  0
   49.3610   32.6640   41.8020 C   0  0  1  0  0  0  0  0  0  0  0  0
   49.4670   34.5190   43.3750 O   0  0  0  0  0  0  0  0  0  0  0  0
   49.8890   33.1960   40.6270 O   0  0  0  0  0  0  0  0  0  0  0  0
   44.7970   36.9620   43.6270 C   0  0  0  0  0  0  0  0  0  0  0  0
   45.3260   39.3080   44.5120 C   0  0  0  0  0  0  0  0  0  0  0  0
   45.6550   39.6790   43.3520 O   0  0  0  0  0  0  0  0  0  0  0  0
   44.9450   37.9610   44.6820 N   0  0  0  0  0  0  0  0  0  0  0  0
   45.3460   40.2080   45.5690 O   0  0  0  0  0  0  0  0  0  0  0  0
   46.5906   35.2507   42.5589 H   0  0  0  0  0  0  0  0  0  0  0  0
   44.8618   33.7057   46.8750 H   0  0  0  0  0  0  0  0  0  0  0  0
   48.2213   34.6063   41.9511 H   0  0  0  0  0  0  0  0  0  0  0  0
   48.0842   32.3488   44.0784 H   0  0  0  0  0  0  0  0  0  0  0  0
   48.0212   31.6449   40.4880 H   0  0  0  0  0  0  0  0  0  0  0  0
   48.4593   30.7352   41.9726 H   0  0  0  0  0  0  0  0  0  0  0  0
   50.2091   32.1752   42.3038 H   0  0  0  0  0  0  0  0  0  0  0  0
   49.2498   34.3289   44.3220 H   0  0  0  0  0  0  0  0  0  0  0  0
   50.5683   33.8805   40.8508 H   0  0  0  0  0  0  0  0  0  0  0  0
   45.4185   37.2270   42.7590 H   0  0  0  0  0  0  0  0  0  0  0  0
   43.7571   36.8977   43.2742 H   0  0  0  0  0  0  0  0  0  0  0  0
   44.7521   37.6511   45.6451 H   0  0  0  0  0  0  0  0  0  0  0  0
   45.6188   41.1470   45.4145 H   0  0  0  0  0  0  0  0  0  0  0  0
  1  6  2  0
  2  3  2  0
  2  1  1  0
  3  4  1  0
  4  5  2  0
  6  5  1  0
  7  8  1  0
  7 12  1  0
  8  3  1  0
  9  8  1  0
 10 11  1  0
 10  9  1  0
 11  7  1  0
 13 11  1  0
 14  1  1  0
 14 17  1  0
 15 17  1  0
 15 18  1  0
 16 15  2  0
  2 19  1  0
  5 20  1  0
  7 21  1  6
  8 22  1  1
 10 23  1  0
 10 24  1  0
 11 25  1  1
 12 26  1  0
 13 27  1  0
 14 28  1  0
 14 29  1  0
 17 30  1  0
 18 31  1  0
M  ISO  8  19  14  20  14  21  13  22  13  23  13  24  13  25  13  26   3
M  ISO  4  27   3  28   8  29   8  31   3
M  END
>  <minimizedAffinity>  (1) 
-5.28127766

>  <minimizedRMSD>  (1) 
0.0729103833

$$$$
