
     RDKit          3D

 40 42  0  0  1  0  0  0  0  0999 V2000
   45.5610   35.6290   43.7830 C   0  0  0  0  0  0  0  0  0  0  0  0
   46.5780   34.8210   43.2630 C   0  0  0  0  0  0  0  0  0  0  0  0
   46.9510   33.6560   43.9640 C   0  0  0  0  0  0  0  0  0  0  0  0
   46.3060   33.3850   45.0950 N   0  0  0  0  0  0  0  0  0  0  0  0
   45.3230   34.1780   45.5860 C   0  0  0  0  0  0  0  0  0  0  0  0
   44.9520   35.2950   44.9340 N   0  0  0  0  0  0  0  0  0  0  0  0
   49.0060   33.6200   42.5650 C   0  0  2  0  0  0  0  0  0  0  0  0
   48.0140   32.8570   43.3710 C   0  0  2  0  0  0  0  0  0  0  0  0
   47.5580   31.9100   42.4060 O   0  0  0  0  0  0  0  0  0  0  0  0
   48.7550   31.3850   41.9520 C   0  0  0  0  0  0  0  0  0  0  0  0
   49.8260   32.4240   42.0390 C   0  0  1  0  0  0  0  0  0  0  0  0
   49.7400   34.5290   43.2650 O   0  0  0  0  0  0  0  0  0  0  0  0
   50.3990   32.7810   40.8210 O   0  0  0  0  0  0  0  0  0  0  0  0
   45.1750   36.8700   43.0410 C   0  0  0  0  0  0  0  0  0  0  0  0
   45.3130   39.2520   43.9950 C   0  0  0  0  0  0  0  0  0  0  0  0
   45.9680   39.6120   42.9530 O   0  0  0  0  0  0  0  0  0  0  0  0
   44.9190   37.8970   44.0240 N   0  0  0  0  0  0  0  0  0  0  0  0
   45.0050   40.1880   45.0660 C   0  0  0  0  0  0  0  0  0  0  0  0
   45.0860   39.9530   46.4230 C   0  0  0  0  0  0  0  0  0  0  0  0
   44.7630   40.9320   47.3390 C   0  0  0  0  0  0  0  0  0  0  0  0
   44.3440   42.1920   46.9420 C   0  0  0  0  0  0  0  0  0  0  0  0
   44.2530   42.4620   45.5960 C   0  0  0  0  0  0  0  0  0  0  0  0
   44.5810   41.4660   44.6990 C   0  0  0  0  0  0  0  0  0  0  0  0
   47.0790   35.0906   42.3215 H   0  0  0  0  0  0  0  0  0  0  0  0
   44.8232   33.9057   46.5273 H   0  0  0  0  0  0  0  0  0  0  0  0
   48.5740   34.2834   41.8012 H   0  0  0  0  0  0  0  0  0  0  0  0
   48.4438   32.4110   44.2800 H   0  0  0  0  0  0  0  0  0  0  0  0
   48.6404   31.0647   40.9059 H   0  0  0  0  0  0  0  0  0  0  0  0
   49.0335   30.5217   42.5743 H   0  0  0  0  0  0  0  0  0  0  0  0
   50.6792   32.0808   42.6425 H   0  0  0  0  0  0  0  0  0  0  0  0
   49.6165   34.3760   44.2353 H   0  0  0  0  0  0  0  0  0  0  0  0
   51.2277   33.2973   40.9849 H   0  0  0  0  0  0  0  0  0  0  0  0
   45.9943   37.1812   42.3763 H   0  0  0  0  0  0  0  0  0  0  0  0
   44.2828   36.6921   42.4227 H   0  0  0  0  0  0  0  0  0  0  0  0
   44.3804   37.6031   44.8513 H   0  0  0  0  0  0  0  0  0  0  0  0
   45.4144   38.9661   46.7811 H   0  0  0  0  0  0  0  0  0  0  0  0
   44.8399   40.7069   48.4130 H   0  0  0  0  0  0  0  0  0  0  0  0
   44.0896   42.9600   47.6873 H   0  0  0  0  0  0  0  0  0  0  0  0
   43.9257   43.4509   45.2424 H   0  0  0  0  0  0  0  0  0  0  0  0
   44.5033   41.6940   43.6257 H   0  0  0  0  0  0  0  0  0  0  0  0
  1  6  1  0
  2  1  2  0
  2  3  1  0
  3  4  2  0
  4  5  1  0
  6  5  2  0
  7 12  1  0
  7  8  1  0
  8  3  1  0
  9  8  1  0
 10 11  1  0
 10  9  1  0
 11  7  1  0
 13 11  1  0
 14  1  1  0
 14 17  1  0
 15 17  1  0
 15 18  1  0
 16 15  2  0
 18 19  2  0
 19 20  1  0
 21 20  2  0
 22 21  1  0
 23 18  1  0
 23 22  2  0
  2 24  1  0
  5 25  1  0
  7 26  1  6
  8 27  1  1
 10 28  1  0
 10 29  1  0
 11 30  1  1
 12 31  1  0
 13 32  1  0
 14 33  1  0
 14 34  1  0
 17 35  1  0
 19 36  1  0
 20 37  1  0
 21 38  1  0
 22 39  1  0
 23 40  1  0
M  ISO  8  24  14  25  14  26  13  27  13  28  13  29  13  30  13  31   3
M  ISO  8  32   3  33   8  34   8  36  14  37  14  38  14  39  14  40  14
M  END
>  <minimizedAffinity>  (1) 
-4.85291243

>  <minimizedRMSD>  (1) 
0.688733101

$$$$
