
     RDKit          3D

 37 40  0  0  1  0  0  0  0  0999 V2000
   47.9240   33.1980   42.1950 N   0  0  0  0  0  0  0  0  0  0  0  0
   47.2410   33.1230   43.4180 C   0  0  0  0  0  0  0  0  0  0  0  0
   47.5320   32.1080   44.2950 C   0  0  0  0  0  0  0  0  0  0  0  0
   46.9540   32.0150   45.5550 C   0  0  0  0  0  0  0  0  0  0  0  0
   46.0500   32.9560   45.9840 C   0  0  0  0  0  0  0  0  0  0  0  0
   45.7430   33.9780   45.1250 C   0  0  0  0  0  0  0  0  0  0  0  0
   44.8360   34.9350   45.5290 C   0  0  0  0  0  0  0  0  0  0  0  0
   44.4680   35.9820   44.7350 C   0  0  0  0  0  0  0  0  0  0  0  0
   45.0540   36.0460   43.4770 C   0  0  0  0  0  0  0  0  0  0  0  0
   45.9570   35.0910   43.0830 C   0  0  0  0  0  0  0  0  0  0  0  0
   46.3270   34.0490   43.8800 C   0  0  0  0  0  0  0  0  0  0  0  0
   46.5080   35.1860   41.8250 O   0  0  0  0  0  0  0  0  0  0  0  0
   50.1670   32.4570   41.3960 C   0  0  1  0  0  0  0  0  0  0  0  0
   49.2260   32.2130   40.2480 C   0  0  0  0  0  0  0  0  0  0  0  0
   48.7770   32.1460   41.7370 C   0  0  2  0  0  0  0  0  0  0  0  0
   53.1240   30.2690   40.9360 C   0  0  0  0  0  0  0  0  0  0  0  0
   53.1620   29.5760   42.1990 C   0  0  0  0  0  0  0  0  0  0  0  0
   52.1630   29.8910   43.1720 C   0  0  0  0  0  0  0  0  0  0  0  0
   51.2450   30.8010   42.8780 N   0  0  0  0  0  0  0  0  0  0  0  0
   51.2430   31.4340   41.6680 C   0  0  0  0  0  0  0  0  0  0  0  0
   52.1730   31.1830   40.6850 N   0  0  0  0  0  0  0  0  0  0  0  0
   52.1790   29.2440   44.3810 O   0  0  0  0  0  0  0  0  0  0  0  0
   47.8074   34.0369   41.6089 H   0  0  0  0  0  0  0  0  0  0  0  0
   48.2528   31.3361   43.9875 H   0  0  0  0  0  0  0  0  0  0  0  0
   47.2234   31.1784   46.2165 H   0  0  0  0  0  0  0  0  0  0  0  0
   45.5894   32.8913   46.9808 H   0  0  0  0  0  0  0  0  0  0  0  0
   44.3913   34.8510   46.5316 H   0  0  0  0  0  0  0  0  0  0  0  0
   43.7438   36.7374   45.0740 H   0  0  0  0  0  0  0  0  0  0  0  0
   44.7926   36.8669   42.7930 H   0  0  0  0  0  0  0  0  0  0  0  0
   47.1618   34.5087   41.5185 H   0  0  0  0  0  0  0  0  0  0  0  0
   50.8419   33.2812   41.6702 H   0  0  0  0  0  0  0  0  0  0  0  0
   48.9031   33.0450   39.6050 H   0  0  0  0  0  0  0  0  0  0  0  0
   49.1926   31.5415   39.3774 H   0  0  0  0  0  0  0  0  0  0  0  0
   48.2960   31.4021   42.3892 H   0  0  0  0  0  0  0  0  0  0  0  0
   53.8816   30.0470   40.1700 H   0  0  0  0  0  0  0  0  0  0  0  0
   53.9383   28.8254   42.4086 H   0  0  0  0  0  0  0  0  0  0  0  0
   51.4929   29.4530   45.0634 H   0  0  0  0  0  0  0  0  0  0  0  0
  1  2  1  0
  2 11  1  0
  2  3  2  0
  3  4  1  0
  4  5  2  0
  6  7  2  0
  6  5  1  0
  8  7  1  0
  9  8  2  0
 10  9  1  0
 10 11  2  0
 11  6  1  0
 12 10  1  0
 13 20  1  0
 13 15  1  0
 14 13  1  0
 14 15  1  0
 15  1  1  0
 16 17  2  0
 17 18  1  0
 18 22  1  0
 19 18  2  0
 20 19  1  0
 21 16  1  0
 21 20  2  0
  1 23  1  0
  3 24  1  0
  4 25  1  0
  5 26  1  0
  7 27  1  0
  8 28  1  0
  9 29  1  0
 12 30  1  0
 13 31  1  6
 14 32  1  0
 14 33  1  0
 15 34  1  1
 16 35  1  0
 17 36  1  0
 22 37  1  0
M  ISO  8  24  14  25  14  26  14  27  14  28  14  29  14  30   3  31  13
M  ISO  6  32  13  33  13  34  13  35  14  36  14  37   3
M  END
>  <minimizedAffinity>  (1) 
-5.08406734

>  <minimizedRMSD>  (1) 
1.25902641

$$$$
