
     RDKit          3D

 39 41  0  0  1  0  0  0  0  0999 V2000
   45.5540   35.6750   43.7020 C   0  0  0  0  0  0  0  0  0  0  0  0
   46.5870   34.8540   43.2180 C   0  0  0  0  0  0  0  0  0  0  0  0
   46.9510   33.7140   43.9550 C   0  0  0  0  0  0  0  0  0  0  0  0
   46.2890   33.4740   45.0840 N   0  0  0  0  0  0  0  0  0  0  0  0
   45.2970   34.2750   45.5340 C   0  0  0  0  0  0  0  0  0  0  0  0
   44.9230   35.3800   44.8450 N   0  0  0  0  0  0  0  0  0  0  0  0
   49.0270   33.6430   42.5890 C   0  0  2  0  0  0  0  0  0  0  0  0
   48.0230   32.9050   43.4030 C   0  0  2  0  0  0  0  0  0  0  0  0
   47.5890   31.9210   42.4680 O   0  0  0  0  0  0  0  0  0  0  0  0
   48.7940   31.3920   42.0390 C   0  0  0  0  0  0  0  0  0  0  0  0
   49.8570   32.4350   42.1080 C   0  0  1  0  0  0  0  0  0  0  0  0
   49.7510   34.5700   43.2730 O   0  0  0  0  0  0  0  0  0  0  0  0
   50.4460   32.7470   40.8890 O   0  0  0  0  0  0  0  0  0  0  0  0
   45.1830   36.8950   42.9070 C   0  0  0  0  0  0  0  0  0  0  0  0
   45.3480   39.2860   43.8670 C   0  0  0  0  0  0  0  0  0  0  0  0
   46.0450   39.6200   42.8680 O   0  0  0  0  0  0  0  0  0  0  0  0
   44.8930   37.9440   43.8660 N   0  0  0  0  0  0  0  0  0  0  0  0
   45.0100   40.1830   44.9690 C   0  0  0  0  0  0  0  0  0  0  0  0
   45.1670   39.7530   46.2550 C   0  0  0  0  0  0  0  0  0  0  0  0
   44.8220   40.6710   47.2500 C   0  0  0  0  0  0  0  0  0  0  0  0
   44.3400   41.9560   47.0040 C   0  0  0  0  0  0  0  0  0  0  0  0
   44.2190   42.2910   45.6800 C   0  0  0  0  0  0  0  0  0  0  0  0
   44.5410   41.4360   44.6970 N   0  0  0  0  0  0  0  0  0  0  0  0
   47.1022   35.0997   42.2777 H   0  0  0  0  0  0  0  0  0  0  0  0
   44.7851   34.0254   46.4751 H   0  0  0  0  0  0  0  0  0  0  0  0
   48.6039   34.2821   41.8000 H   0  0  0  0  0  0  0  0  0  0  0  0
   48.4399   32.4946   44.3345 H   0  0  0  0  0  0  0  0  0  0  0  0
   48.6909   31.0439   41.0006 H   0  0  0  0  0  0  0  0  0  0  0  0
   49.0712   30.5477   42.6874 H   0  0  0  0  0  0  0  0  0  0  0  0
   50.7042   32.1195   42.7347 H   0  0  0  0  0  0  0  0  0  0  0  0
   49.6378   34.4250   44.2458 H   0  0  0  0  0  0  0  0  0  0  0  0
   51.3096   33.2045   41.0473 H   0  0  0  0  0  0  0  0  0  0  0  0
   46.0199   37.1944   42.2589 H   0  0  0  0  0  0  0  0  0  0  0  0
   44.3148   36.6979   42.2610 H   0  0  0  0  0  0  0  0  0  0  0  0
   44.2765   37.6791   44.6474 H   0  0  0  0  0  0  0  0  0  0  0  0
   45.5417   38.7466   46.4930 H   0  0  0  0  0  0  0  0  0  0  0  0
   44.9385   40.3589   48.2984 H   0  0  0  0  0  0  0  0  0  0  0  0
   44.0757   42.6514   47.8143 H   0  0  0  0  0  0  0  0  0  0  0  0
   43.8465   43.2916   45.4153 H   0  0  0  0  0  0  0  0  0  0  0  0
  1  6  1  0
  2  1  2  0
  2  3  1  0
  3  4  2  0
  4  5  1  0
  6  5  2  0
  7 12  1  0
  7  8  1  0
  8  3  1  0
  9  8  1  0
 10 11  1  0
 10  9  1  0
 11  7  1  0
 13 11  1  0
 14  1  1  0
 14 17  1  0
 15 18  1  0
 16 15  2  0
 17 15  1  0
 18 19  2  0
 19 20  1  0
 21 20  2  0
 22 21  1  0
 23 18  1  0
 23 22  2  0
  2 24  1  0
  5 25  1  0
  7 26  1  6
  8 27  1  1
 10 28  1  0
 10 29  1  0
 11 30  1  1
 12 31  1  0
 13 32  1  0
 14 33  1  0
 14 34  1  0
 17 35  1  0
 19 36  1  0
 20 37  1  0
 21 38  1  0
 22 39  1  0
M  ISO  8  24  14  25  14  26  13  27  13  28  13  29  13  30  13  31   3
M  ISO  7  32   3  33   8  34   8  36  14  37  14  38  14  39  14
M  END
>  <minimizedAffinity>  (1) 
-4.69601107

>  <minimizedRMSD>  (1) 
0.837223411

$$$$
