
     RDKit          3D

 41 43  0  0  1  0  0  0  0  0999 V2000
   45.5550   35.6040   43.6670 C   0  0  0  0  0  0  0  0  0  0  0  0
   46.6080   34.7950   43.2090 C   0  0  0  0  0  0  0  0  0  0  0  0
   47.0000   33.6820   43.9730 C   0  0  0  0  0  0  0  0  0  0  0  0
   46.3460   33.4520   45.0960 N   0  0  0  0  0  0  0  0  0  0  0  0
   45.3300   34.2430   45.5240 C   0  0  0  0  0  0  0  0  0  0  0  0
   44.9330   35.3240   44.8070 N   0  0  0  0  0  0  0  0  0  0  0  0
   49.0890   33.6350   42.6230 C   0  0  2  0  0  0  0  0  0  0  0  0
   48.0940   32.9040   43.4230 C   0  0  2  0  0  0  0  0  0  0  0  0
   47.6780   31.8800   42.4990 O   0  0  0  0  0  0  0  0  0  0  0  0
   48.9230   31.3690   42.1360 C   0  0  0  0  0  0  0  0  0  0  0  0
   49.9560   32.4300   42.1840 C   0  0  1  0  0  0  0  0  0  0  0  0
   49.7760   34.6040   43.2650 O   0  0  0  0  0  0  0  0  0  0  0  0
   50.5380   32.7320   40.9480 O   0  0  0  0  0  0  0  0  0  0  0  0
   45.1600   36.8010   42.8320 C   0  0  0  0  0  0  0  0  0  0  0  0
   45.4370   39.1560   43.8640 C   0  0  0  0  0  0  0  0  0  0  0  0
   46.3010   39.4280   42.9710 O   0  0  0  0  0  0  0  0  0  0  0  0
   44.8580   37.8700   43.7700 N   0  0  0  0  0  0  0  0  0  0  0  0
   45.0540   40.0770   44.9170 C   0  0  0  0  0  0  0  0  0  0  0  0
   45.2320   39.7110   46.2170 C   0  0  0  0  0  0  0  0  0  0  0  0
   44.8420   40.6460   47.1830 C   0  0  0  0  0  0  0  0  0  0  0  0
   44.2990   41.8920   46.8890 C   0  0  0  0  0  0  0  0  0  0  0  0
   44.1600   42.1650   45.5600 C   0  0  0  0  0  0  0  0  0  0  0  0
   44.5230   41.2930   44.6130 N   0  0  0  0  0  0  0  0  0  0  0  0
   43.5950   43.4570   45.1760 C   0  0  0  0  0  0  0  0  0  0  0  0
   42.4170   43.5830   44.7790 O   0  0  0  0  0  0  0  0  0  0  0  0
   47.1197   35.0296   42.2639 H   0  0  0  0  0  0  0  0  0  0  0  0
   44.8195   34.0036   46.4685 H   0  0  0  0  0  0  0  0  0  0  0  0
   48.6585   34.2465   41.8163 H   0  0  0  0  0  0  0  0  0  0  0  0
   48.5219   32.5277   44.3639 H   0  0  0  0  0  0  0  0  0  0  0  0
   48.8648   30.9671   41.1137 H   0  0  0  0  0  0  0  0  0  0  0  0
   49.1993   30.5726   42.8427 H   0  0  0  0  0  0  0  0  0  0  0  0
   50.8062   32.1489   42.8229 H   0  0  0  0  0  0  0  0  0  0  0  0
   49.6872   34.4788   44.2430 H   0  0  0  0  0  0  0  0  0  0  0  0
   51.4071   33.1830   41.0939 H   0  0  0  0  0  0  0  0  0  0  0  0
   45.9894   37.0959   42.1724 H   0  0  0  0  0  0  0  0  0  0  0  0
   44.2949   36.5743   42.1916 H   0  0  0  0  0  0  0  0  0  0  0  0
   44.1220   37.6619   44.4599 H   0  0  0  0  0  0  0  0  0  0  0  0
   45.6584   38.7351   46.4923 H   0  0  0  0  0  0  0  0  0  0  0  0
   44.9734   40.3782   48.2418 H   0  0  0  0  0  0  0  0  0  0  0  0
   44.0030   42.6059   47.6718 H   0  0  0  0  0  0  0  0  0  0  0  0
   44.2309   44.3524   45.2389 H   0  0  0  0  0  0  0  0  0  0  0  0
  1  6  1  0
  2  1  2  0
  2  3  1  0
  3  4  2  0
  4  5  1  0
  6  5  2  0
  7 12  1  0
  7  8  1  0
  8  3  1  0
  9  8  1  0
 10 11  1  0
 10  9  1  0
 11  7  1  0
 13 11  1  0
 14  1  1  0
 14 17  1  0
 15 18  1  0
 16 15  2  0
 17 15  1  0
 18 19  2  0
 19 20  1  0
 21 20  2  0
 22 21  1  0
 23 18  1  0
 23 22  2  0
 24 22  1  0
 25 24  2  0
  2 26  1  0
  5 27  1  0
  7 28  1  6
  8 29  1  1
 10 30  1  0
 10 31  1  0
 11 32  1  1
 12 33  1  0
 13 34  1  0
 14 35  1  0
 14 36  1  0
 17 37  1  0
 19 38  1  0
 20 39  1  0
 21 40  1  0
 24 41  1  0
M  ISO  8  26  14  27  14  28  13  29  13  30  13  31  13  32  13  33   3
M  ISO  7  34   3  35   8  36   8  38  14  39  14  40  14  41   6
M  END
>  <minimizedAffinity>  (1) 
-4.89012861

>  <minimizedRMSD>  (1) 
0.159911826

$$$$
