
     RDKit          3D

 42 44  0  0  1  0  0  0  0  0999 V2000
   45.5450   35.6050   43.6760 C   0  0  0  0  0  0  0  0  0  0  0  0
   46.5980   34.7960   43.2140 C   0  0  0  0  0  0  0  0  0  0  0  0
   46.9940   33.6840   43.9770 C   0  0  0  0  0  0  0  0  0  0  0  0
   46.3440   33.4550   45.1030 N   0  0  0  0  0  0  0  0  0  0  0  0
   45.3310   34.2420   45.5360 C   0  0  0  0  0  0  0  0  0  0  0  0
   44.9270   35.3250   44.8190 N   0  0  0  0  0  0  0  0  0  0  0  0
   49.0830   33.6400   42.6250 C   0  0  2  0  0  0  0  0  0  0  0  0
   48.0860   32.9080   43.4240 C   0  0  2  0  0  0  0  0  0  0  0  0
   47.6690   31.8870   42.4970 O   0  0  0  0  0  0  0  0  0  0  0  0
   48.8980   31.3650   42.1280 C   0  0  0  0  0  0  0  0  0  0  0  0
   49.9460   32.4370   42.1770 C   0  0  1  0  0  0  0  0  0  0  0  0
   49.7700   34.6070   43.2670 O   0  0  0  0  0  0  0  0  0  0  0  0
   50.5230   32.7400   40.9400 O   0  0  0  0  0  0  0  0  0  0  0  0
   45.1470   36.8010   42.8390 C   0  0  0  0  0  0  0  0  0  0  0  0
   45.4380   39.1670   43.8570 C   0  0  0  0  0  0  0  0  0  0  0  0
   46.2730   39.4350   42.9560 O   0  0  0  0  0  0  0  0  0  0  0  0
   44.8590   37.8770   43.7850 N   0  0  0  0  0  0  0  0  0  0  0  0
   45.0570   40.0860   44.9270 C   0  0  0  0  0  0  0  0  0  0  0  0
   45.2070   39.7100   46.2200 C   0  0  0  0  0  0  0  0  0  0  0  0
   44.8230   40.6360   47.1930 C   0  0  0  0  0  0  0  0  0  0  0  0
   44.3050   41.9050   46.8890 C   0  0  0  0  0  0  0  0  0  0  0  0
   44.1920   42.1930   45.5610 C   0  0  0  0  0  0  0  0  0  0  0  0
   44.5540   41.3190   44.6090 N   0  0  0  0  0  0  0  0  0  0  0  0
   43.6550   43.5100   45.1620 C   0  0  0  0  0  0  0  0  0  0  0  0
   47.1058   35.0305   42.2668 H   0  0  0  0  0  0  0  0  0  0  0  0
   44.8263   34.0016   46.4834 H   0  0  0  0  0  0  0  0  0  0  0  0
   48.6527   34.2553   41.8211 H   0  0  0  0  0  0  0  0  0  0  0  0
   48.5135   32.5295   44.3642 H   0  0  0  0  0  0  0  0  0  0  0  0
   48.8322   30.9664   41.1049 H   0  0  0  0  0  0  0  0  0  0  0  0
   49.1723   30.5596   42.8251 H   0  0  0  0  0  0  0  0  0  0  0  0
   50.7989   32.1543   42.8115 H   0  0  0  0  0  0  0  0  0  0  0  0
   49.6808   34.4814   44.2449 H   0  0  0  0  0  0  0  0  0  0  0  0
   51.3903   33.1954   41.0831 H   0  0  0  0  0  0  0  0  0  0  0  0
   45.9709   37.0905   42.1701 H   0  0  0  0  0  0  0  0  0  0  0  0
   44.2758   36.5775   42.2057 H   0  0  0  0  0  0  0  0  0  0  0  0
   44.1400   37.6695   44.4927 H   0  0  0  0  0  0  0  0  0  0  0  0
   45.6115   38.7235   46.4905 H   0  0  0  0  0  0  0  0  0  0  0  0
   44.9321   40.3566   48.2513 H   0  0  0  0  0  0  0  0  0  0  0  0
   44.0096   42.6201   47.6709 H   0  0  0  0  0  0  0  0  0  0  0  0
   43.4159   44.0963   46.0615 H   0  0  0  0  0  0  0  0  0  0  0  0
   44.4063   44.0463   44.5637 H   0  0  0  0  0  0  0  0  0  0  0  0
   42.7429   43.3681   44.5637 H   0  0  0  0  0  0  0  0  0  0  0  0
  1  6  1  0
  2  1  2  0
  2  3  1  0
  3  4  2  0
  4  5  1  0
  6  5  2  0
  7 12  1  0
  7  8  1  0
  8  3  1  0
  9  8  1  0
 10 11  1  0
 10  9  1  0
 11  7  1  0
 13 11  1  0
 14  1  1  0
 14 17  1  0
 15 18  1  0
 16 15  2  0
 17 15  1  0
 18 19  2  0
 19 20  1  0
 21 20  2  0
 22 21  1  0
 23 18  1  0
 23 22  2  0
 24 22  1  0
  2 25  1  0
  5 26  1  0
  7 27  1  6
  8 28  1  1
 10 29  1  0
 10 30  1  0
 11 31  1  1
 12 32  1  0
 13 33  1  0
 14 34  1  0
 14 35  1  0
 17 36  1  0
 19 37  1  0
 20 38  1  0
 21 39  1  0
 24 40  1  0
 24 41  1  0
 24 42  1  0
M  ISO  8  25  14  26  14  27  13  28  13  29  13  30  13  31  13  32   3
M  ISO  8  33   3  34   8  35   8  37  14  38  14  39  14  40   8  41   8
M  ISO  1  42   8
M  END
>  <minimizedAffinity>  (1) 
-4.86970615

>  <minimizedRMSD>  (1) 
0.122628398

$$$$
