
     RDKit          3D

 23 25  0  0  0  0  0  0  0  0999 V2000
   44.5250   35.7480   44.8050 C   0  0  0  0  0  0  0  0  0  0  0  0
   44.6700   35.7680   43.4050 C   0  0  0  0  0  0  0  0  0  0  0  0
   45.3720   34.7150   42.7940 C   0  0  0  0  0  0  0  0  0  0  0  0
   45.8610   33.7530   43.6060 N   0  0  0  0  0  0  0  0  0  0  0  0
   45.7090   33.7570   44.9400 C   0  0  0  0  0  0  0  0  0  0  0  0
   45.0450   34.7520   45.5270 N   0  0  0  0  0  0  0  0  0  0  0  0
   46.3270   32.6180   45.5460 N   0  0  0  0  0  0  0  0  0  0  0  0
   47.1690   31.7410   44.9690 C   0  0  0  0  0  0  0  0  0  0  0  0
   47.5480   30.7960   45.8490 N   0  0  0  0  0  0  0  0  0  0  0  0
   46.9340   31.0770   47.0110 C   0  0  0  0  0  0  0  0  0  0  0  0
   47.0210   30.3830   48.2010 C   0  0  0  0  0  0  0  0  0  0  0  0
   46.2860   30.9010   49.2180 N   0  0  0  0  0  0  0  0  0  0  0  0
   45.5300   32.0140   49.0590 C   0  0  0  0  0  0  0  0  0  0  0  0
   45.4490   32.6910   47.8870 N   0  0  0  0  0  0  0  0  0  0  0  0
   46.1580   32.2220   46.8420 C   0  0  0  0  0  0  0  0  0  0  0  0
   45.5290   34.7140   41.4010 N   0  0  0  0  0  0  0  0  0  0  0  0
   43.9789   36.5594   45.3085 H   0  0  0  0  0  0  0  0  0  0  0  0
   44.2451   36.5862   42.8051 H   0  0  0  0  0  0  0  0  0  0  0  0
   47.5018   31.7899   43.9217 H   0  0  0  0  0  0  0  0  0  0  0  0
   47.6383   29.4799   48.3163 H   0  0  0  0  0  0  0  0  0  0  0  0
   44.9555   32.3855   49.9203 H   0  0  0  0  0  0  0  0  0  0  0  0
   46.0414   33.9480   40.9410 H   0  0  0  0  0  0  0  0  0  0  0  0
   45.1319   35.4793   40.8374 H   0  0  0  0  0  0  0  0  0  0  0  0
  1  6  2  0
  2  1  1  0
  3  2  2  0
  3  4  1  0
  4  5  2  0
  5  6  1  0
  5  7  1  0
  7 15  1  0
  8  7  1  0
  8  9  2  0
  9 10  1  0
 10 11  2  0
 11 12  1  0
 13 12  2  0
 14 13  1  0
 15 10  1  0
 15 14  2  0
 16  3  1  0
  1 17  1  0
  2 18  1  0
  8 19  1  0
 11 20  1  0
 13 21  1  0
 16 22  1  0
 16 23  1  0
M  ISO  5  17  14  18  14  19  14  20  14  21  14
M  END
>  <minimizedAffinity>  (1) 
-5.20929146

>  <minimizedRMSD>  (1) 
1.19850433

$$$$
