
     RDKit          3D

 18 18  0  0  0  0  0  0  0  0999 V2000
   44.6630   35.9790   44.3940 C   0  0  0  0  0  0  0  0  0  0  0  0
   45.3030   36.0110   43.1490 C   0  0  0  0  0  0  0  0  0  0  0  0
   46.1080   34.9300   42.8030 C   0  0  0  0  0  0  0  0  0  0  0  0
   46.2270   33.9140   43.6850 N   0  0  0  0  0  0  0  0  0  0  0  0
   45.5970   33.9110   44.8790 C   0  0  0  0  0  0  0  0  0  0  0  0
   44.8170   34.9460   45.2270 N   0  0  0  0  0  0  0  0  0  0  0  0
   46.7680   34.9230   41.5630 N   0  0  0  0  0  0  0  0  0  0  0  0
   45.8650   32.7660   45.6220 O   0  0  0  0  0  0  0  0  0  0  0  0
   45.6900   31.2250   47.7240 O   0  0  0  0  0  0  0  0  0  0  0  0
   45.8890   32.6590   47.3040 P   0  0  0  0  0  0  0  0  0  0  0  0
   44.7170   33.6620   47.9650 O   0  0  0  0  0  0  0  0  0  0  0  0
   47.4610   33.1100   47.8060 O   0  0  0  0  0  0  0  0  0  0  0  0
   44.0208   36.8209   44.6920 H   0  0  0  0  0  0  0  0  0  0  0  0
   45.1735   36.8636   42.4661 H   0  0  0  0  0  0  0  0  0  0  0  0
   47.3651   34.1254   41.3019 H   0  0  0  0  0  0  0  0  0  0  0  0
   46.6549   35.7155   40.9149 H   0  0  0  0  0  0  0  0  0  0  0  0
   44.7659   33.6202   48.9529 H   0  0  0  0  0  0  0  0  0  0  0  0
   47.5010   33.1215   48.7951 H   0  0  0  0  0  0  0  0  0  0  0  0
  1  6  2  0
  2  1  1  0
  3  2  2  0
  3  4  1  0
  4  5  2  0
  5  6  1  0
  5  8  1  0
  7  3  1  0
  8 10  1  0
 10  9  2  0
 10 12  1  0
 10 11  1  0
  1 13  1  0
  2 14  1  0
  7 15  1  0
  7 16  1  0
 11 17  1  0
 12 18  1  0
M  ISO  4  13  14  14  14  17   3  18   3
M  END
>  <minimizedAffinity>  (1) 
-4.77168846

>  <minimizedRMSD>  (1) 
0.790956378

$$$$
