
     RDKit          3D

 24 25  0  0  0  0  0  0  0  0999 V2000
   44.4760   35.9290   44.7660 C   0  0  0  0  0  0  0  0  0  0  0  0
   45.1090   35.8680   43.5130 C   0  0  0  0  0  0  0  0  0  0  0  0
   46.0140   34.8350   43.2910 C   0  0  0  0  0  0  0  0  0  0  0  0
   46.2340   33.9410   44.3010 N   0  0  0  0  0  0  0  0  0  0  0  0
   45.6090   34.0380   45.4810 C   0  0  0  0  0  0  0  0  0  0  0  0
   44.7410   35.0140   45.7200 N   0  0  0  0  0  0  0  0  0  0  0  0
   45.9200   33.0470   46.4580 N   0  0  0  0  0  0  0  0  0  0  0  0
   45.1490   32.7860   47.6600 C   0  0  0  0  0  0  0  0  0  0  0  0
   46.1250   32.1120   48.6310 C   0  0  0  0  0  0  0  0  0  0  0  0
   47.4450   32.4160   47.9620 C   0  0  0  0  0  0  0  0  0  0  0  0
   47.0160   32.0910   46.5240 C   0  0  0  0  0  0  0  0  0  0  0  0
   46.6710   34.7290   42.0560 N   0  0  0  0  0  0  0  0  0  0  0  0
   43.7548   36.7338   44.9712 H   0  0  0  0  0  0  0  0  0  0  0  0
   44.8958   36.6133   42.7325 H   0  0  0  0  0  0  0  0  0  0  0  0
   44.7702   33.7267   48.0861 H   0  0  0  0  0  0  0  0  0  0  0  0
   44.2732   32.1529   47.4549 H   0  0  0  0  0  0  0  0  0  0  0  0
   46.0684   32.5566   49.6356 H   0  0  0  0  0  0  0  0  0  0  0  0
   45.9349   31.0415   48.7980 H   0  0  0  0  0  0  0  0  0  0  0  0
   47.7440   33.4677   48.0829 H   0  0  0  0  0  0  0  0  0  0  0  0
   48.3230   31.8749   48.3444 H   0  0  0  0  0  0  0  0  0  0  0  0
   46.6772   31.0508   46.4088 H   0  0  0  0  0  0  0  0  0  0  0  0
   47.7894   32.1675   45.7456 H   0  0  0  0  0  0  0  0  0  0  0  0
   47.3408   33.9637   41.8930 H   0  0  0  0  0  0  0  0  0  0  0  0
   46.4836   35.4165   41.3123 H   0  0  0  0  0  0  0  0  0  0  0  0
  1  6  2  0
  2  1  1  0
  3  2  2  0
  3  4  1  0
  4  5  2  0
  5  6  1  0
  5  7  1  0
  7 11  1  0
  7  8  1  0
  8  9  1  0
 10  9  1  0
 11 10  1  0
 12  3  1  0
  1 13  1  0
  2 14  1  0
  8 15  1  0
  8 16  1  0
  9 17  1  0
  9 18  1  0
 10 19  1  0
 10 20  1  0
 11 21  1  0
 11 22  1  0
 12 23  1  0
 12 24  1  0
M  ISO  8  13  14  14  14  15  13  16  13  17  13  18  13  19  13  20  13
M  ISO  2  21  13  22  13
M  END
>  <minimizedAffinity>  (1) 
-4.76458454

>  <minimizedRMSD>  (1) 
0.246636361

$$$$
