
     RDKit          3D

 19 20  0  0  0  0  0  0  0  0999 V2000
   44.5210   35.8560   44.7530 C   0  0  0  0  0  0  0  0  0  0  0  0
   45.1510   35.8730   43.5010 C   0  0  0  0  0  0  0  0  0  0  0  0
   46.0830   34.8570   43.2260 C   0  0  0  0  0  0  0  0  0  0  0  0
   46.3190   33.9180   44.1890 N   0  0  0  0  0  0  0  0  0  0  0  0
   45.6830   33.9580   45.3670 C   0  0  0  0  0  0  0  0  0  0  0  0
   44.7960   34.9040   45.6590 N   0  0  0  0  0  0  0  0  0  0  0  0
   45.9320   32.9450   46.4200 C   0  0  0  0  0  0  0  0  0  0  0  0
   45.1830   32.9860   47.6790 C   0  0  0  0  0  0  0  0  0  0  0  0
   45.4830   32.0110   48.5840 C   0  0  0  0  0  0  0  0  0  0  0  0
   46.4870   31.0420   48.2390 C   0  0  0  0  0  0  0  0  0  0  0  0
   46.9910   31.6200   46.5000 S   0  0  0  0  0  0  0  0  0  0  0  0
   46.7400   34.8360   41.9790 N   0  0  0  0  0  0  0  0  0  0  0  0
   43.7870   36.6378   44.9981 H   0  0  0  0  0  0  0  0  0  0  0  0
   44.9242   36.6536   42.7599 H   0  0  0  0  0  0  0  0  0  0  0  0
   44.4247   33.7566   47.8817 H   0  0  0  0  0  0  0  0  0  0  0  0
   44.9686   31.9671   49.5553 H   0  0  0  0  0  0  0  0  0  0  0  0
   46.8638   30.1914   48.8259 H   0  0  0  0  0  0  0  0  0  0  0  0
   47.4242   34.0950   41.7698 H   0  0  0  0  0  0  0  0  0  0  0  0
   46.5359   35.5616   41.2771 H   0  0  0  0  0  0  0  0  0  0  0  0
  1  6  2  0
  2  1  1  0
  3  2  2  0
  3  4  1  0
  4  5  2  0
  5  6  1  0
  5  7  1  0
  7 11  1  0
  7  8  2  0
  8  9  1  0
 10  9  2  0
 11 10  1  0
 12  3  1  0
  1 13  1  0
  2 14  1  0
  8 15  1  0
  9 16  1  0
 10 17  1  0
 12 18  1  0
 12 19  1  0
M  ISO  5  13  14  14  14  15  14  16  14  17  14
M  END
>  <minimizedAffinity>  (1) 
-4.39425945

>  <minimizedRMSD>  (1) 
0.295575231

$$$$
