
     RDKit          3D

 13 13  0  0  0  0  0  0  0  0999 V2000
   44.5030   36.0320   44.5480 C   0  0  0  0  0  0  0  0  0  0  0  0
   45.1740   35.9580   43.3180 C   0  0  0  0  0  0  0  0  0  0  0  0
   46.0690   34.9150   43.1170 C   0  0  0  0  0  0  0  0  0  0  0  0
   46.2390   34.0330   44.1240 N   0  0  0  0  0  0  0  0  0  0  0  0
   45.5850   34.1230   45.2940 C   0  0  0  0  0  0  0  0  0  0  0  0
   44.7130   35.1290   45.5050 N   0  0  0  0  0  0  0  0  0  0  0  0
   46.7590   34.8090   41.9010 N   0  0  0  0  0  0  0  0  0  0  0  0
   45.8580   33.1320   46.2580 O   0  0  0  0  0  0  0  0  0  0  0  0
   43.7902   36.8508   44.7256 H   0  0  0  0  0  0  0  0  0  0  0  0
   44.9957   36.7072   42.5326 H   0  0  0  0  0  0  0  0  0  0  0  0
   47.4228   34.0358   41.7512 H   0  0  0  0  0  0  0  0  0  0  0  0
   46.6020   35.5043   41.1575 H   0  0  0  0  0  0  0  0  0  0  0  0
   45.4006   33.1559   47.1357 H   0  0  0  0  0  0  0  0  0  0  0  0
  1  6  2  0
  2  1  1  0
  3  2  2  0
  3  4  1  0
  4  5  2  0
  5  6  1  0
  5  8  1  0
  7  3  1  0
  1  9  1  0
  2 10  1  0
  7 11  1  0
  7 12  1  0
  8 13  1  0
M  ISO  3   9  14  10  14  13   3
M  END
>  <minimizedAffinity>  (1) 
-3.25419354

>  <minimizedRMSD>  (1) 
0.0359754227

$$$$
