
     RDKit          3D

 41 45  0  0  0  0  0  0  0  0999 V2000
   46.3200   32.7710   45.2390 C   0  0  0  0  0  0  0  0  0  0  0  0
   46.5870   33.1230   46.5530 C   0  0  0  0  0  0  0  0  0  0  0  0
   46.5510   32.2030   47.6120 C   0  0  0  0  0  0  0  0  0  0  0  0
   46.2440   30.8810   47.3820 C   0  0  0  0  0  0  0  0  0  0  0  0
   45.9630   30.5010   46.0660 C   0  0  0  0  0  0  0  0  0  0  0  0
   45.6260   29.1920   45.8640 C   0  0  0  0  0  0  0  0  0  0  0  0
   45.2840   28.7840   44.5750 C   0  0  0  0  0  0  0  0  0  0  0  0
   45.2950   29.7670   43.5350 C   0  0  0  0  0  0  0  0  0  0  0  0
   45.6500   31.0510   43.8590 C   0  0  0  0  0  0  0  0  0  0  0  0
   46.0090   31.4710   45.0760 C   0  0  0  0  0  0  0  0  0  0  0  0
   45.7370   31.8330   41.5160 C   0  0  0  0  0  0  0  0  0  0  0  0
   45.0050   31.7320   42.7240 C   0  0  0  0  0  0  0  0  0  0  0  0
   43.8320   32.4360   42.6500 C   0  0  0  0  0  0  0  0  0  0  0  0
   43.4240   33.1450   41.5480 C   0  0  0  0  0  0  0  0  0  0  0  0
   42.2780   33.8470   41.4380 N   0  0  0  0  0  0  0  0  0  0  0  0
   42.3040   34.3640   40.2010 C   0  0  0  0  0  0  0  0  0  0  0  0
   43.4320   33.9820   39.5890 N   0  0  0  0  0  0  0  0  0  0  0  0
   44.1730   33.2080   40.4040 C   0  0  0  0  0  0  0  0  0  0  0  0
   45.3680   32.5280   40.3900 C   0  0  0  0  0  0  0  0  0  0  0  0
   46.4590   35.3980   42.6040 C   0  0  0  0  0  0  0  0  0  0  0  0
   47.7350   35.1820   42.0990 C   0  0  0  0  0  0  0  0  0  0  0  0
   48.4570   34.1410   42.6590 C   0  0  0  0  0  0  0  0  0  0  0  0
   47.8460   33.4620   43.6290 N   0  0  0  0  0  0  0  0  0  0  0  0
   46.6510   33.6360   44.1240 C   0  0  0  0  0  0  0  0  0  0  0  0
   45.9700   34.6330   43.5770 N   0  0  0  0  0  0  0  0  0  0  0  0
   49.7350   33.7270   42.1720 N   0  0  0  0  0  0  0  0  0  0  0  0
   46.8384   34.1705   46.7755 H   0  0  0  0  0  0  0  0  0  0  0  0
   46.7701   32.5414   48.6355 H   0  0  0  0  0  0  0  0  0  0  0  0
   46.2206   30.1500   48.2037 H   0  0  0  0  0  0  0  0  0  0  0  0
   45.6245   28.4763   46.6993 H   0  0  0  0  0  0  0  0  0  0  0  0
   45.0141   27.7387   44.3642 H   0  0  0  0  0  0  0  0  0  0  0  0
   45.0257   29.4994   42.5026 H   0  0  0  0  0  0  0  0  0  0  0  0
   46.6988   31.3008   41.4751 H   0  0  0  0  0  0  0  0  0  0  0  0
   43.1741   32.4328   43.5316 H   0  0  0  0  0  0  0  0  0  0  0  0
   41.5423   33.9613   42.1497 H   0  0  0  0  0  0  0  0  0  0  0  0
   41.5231   35.0005   39.7594 H   0  0  0  0  0  0  0  0  0  0  0  0
   46.0128   32.5402   39.4989 H   0  0  0  0  0  0  0  0  0  0  0  0
   45.8442   36.2128   42.1939 H   0  0  0  0  0  0  0  0  0  0  0  0
   48.1512   35.8064   41.2947 H   0  0  0  0  0  0  0  0  0  0  0  0
   50.2305   32.9460   42.6252 H   0  0  0  0  0  0  0  0  0  0  0  0
   50.1607   34.2096   41.3678 H   0  0  0  0  0  0  0  0  0  0  0  0
  1  2  2  0
  2  3  1  0
  4  3  2  0
  5  4  1  0
  6  5  2  0
  7  6  1  0
  8  9  1  0
  8  7  2  0
  9 10  2  0
 10  1  1  0
 10  5  1  0
 11 12  2  0
 12  9  1  0
 13 12  1  0
 14 13  2  0
 15 14  1  0
 16 15  1  0
 17 16  2  0
 17 18  1  0
 18 14  1  0
 19 18  2  0
 19 11  1  0
 20 25  2  0
 21 20  1  0
 21 22  2  0
 22 23  1  0
 23 24  2  0
 24  1  1  0
 25 24  1  0
 26 22  1  0
  2 27  1  0
  3 28  1  0
  4 29  1  0
  6 30  1  0
  7 31  1  0
  8 32  1  0
 11 33  1  0
 13 34  1  0
 15 35  1  0
 16 36  1  0
 19 37  1  0
 20 38  1  0
 21 39  1  0
 26 40  1  0
 26 41  1  0
M  ISO  8  27  14  28  14  29  14  30  14  31  14  32  14  33  14  34  14
M  ISO  5  35   9  36  14  37  14  38  14  39  14
M  END
>  <minimizedAffinity>  (1) 
-5.41750288

>  <minimizedRMSD>  (1) 
1.99814785

$$$$
