
     RDKit          3D

 38 41  0  0  0  0  0  0  0  0999 V2000
   46.1910   32.1940   46.1650 C   0  0  0  0  0  0  0  0  0  0  0  0
   45.6010   32.7890   47.2650 C   0  0  0  0  0  0  0  0  0  0  0  0
   45.8620   32.4030   48.5860 C   0  0  0  0  0  0  0  0  0  0  0  0
   46.7510   31.3770   48.8530 C   0  0  0  0  0  0  0  0  0  0  0  0
   47.3600   30.7470   47.7600 C   0  0  0  0  0  0  0  0  0  0  0  0
   48.1830   29.6890   48.0290 C   0  0  0  0  0  0  0  0  0  0  0  0
   48.7260   28.9770   46.9470 C   0  0  0  0  0  0  0  0  0  0  0  0
   48.3870   29.3810   45.6300 C   0  0  0  0  0  0  0  0  0  0  0  0
   47.5570   30.4550   45.4880 C   0  0  0  0  0  0  0  0  0  0  0  0
   47.0310   31.1930   46.4970 C   0  0  0  0  0  0  0  0  0  0  0  0
   44.7820   29.1880   44.6640 Cl  0  0  0  0  0  0  0  0  0  0  0  0
   46.1030   29.5950   43.5400 C   0  0  0  0  0  0  0  0  0  0  0  0
   47.2260   30.1540   44.1010 C   0  0  0  0  0  0  0  0  0  0  0  0
   48.2010   30.5230   43.1190 C   0  0  0  0  0  0  0  0  0  0  0  0
   48.0970   30.3620   41.7560 C   0  0  0  0  0  0  0  0  0  0  0  0
   46.9410   29.7910   41.2750 C   0  0  0  0  0  0  0  0  0  0  0  0
   45.9720   29.4200   42.1780 C   0  0  0  0  0  0  0  0  0  0  0  0
   44.4580   28.6860   41.6620 Cl  0  0  0  0  0  0  0  0  0  0  0  0
   45.3050   33.5510   42.8140 C   0  0  0  0  0  0  0  0  0  0  0  0
   46.5070   34.1930   42.4790 C   0  0  0  0  0  0  0  0  0  0  0  0
   47.5540   34.0960   43.3950 C   0  0  0  0  0  0  0  0  0  0  0  0
   47.2820   33.4000   44.4970 N   0  0  0  0  0  0  0  0  0  0  0  0
   46.1780   32.7870   44.8450 C   0  0  0  0  0  0  0  0  0  0  0  0
   45.1890   32.8840   43.9620 N   0  0  0  0  0  0  0  0  0  0  0  0
   48.8470   34.6080   43.1380 N   0  0  0  0  0  0  0  0  0  0  0  0
   44.8885   33.6094   47.0935 H   0  0  0  0  0  0  0  0  0  0  0  0
   45.3571   32.9187   49.4161 H   0  0  0  0  0  0  0  0  0  0  0  0
   46.9714   31.0675   49.8853 H   0  0  0  0  0  0  0  0  0  0  0  0
   48.4139   29.4029   49.0657 H   0  0  0  0  0  0  0  0  0  0  0  0
   49.3998   28.1243   47.1171 H   0  0  0  0  0  0  0  0  0  0  0  0
   48.7800   28.8465   44.7526 H   0  0  0  0  0  0  0  0  0  0  0  0
   49.1282   30.9822   43.4924 H   0  0  0  0  0  0  0  0  0  0  0  0
   48.9048   30.6768   41.0790 H   0  0  0  0  0  0  0  0  0  0  0  0
   46.7956   29.6352   40.1958 H   0  0  0  0  0  0  0  0  0  0  0  0
   44.4507   33.5987   42.1227 H   0  0  0  0  0  0  0  0  0  0  0  0
   46.6184   34.7480   41.5359 H   0  0  0  0  0  0  0  0  0  0  0  0
   49.5889   34.5124   43.8461 H   0  0  0  0  0  0  0  0  0  0  0  0
   49.0468   35.0765   42.2427 H   0  0  0  0  0  0  0  0  0  0  0  0
  1 10  1  0
  1  2  2  0
  2  3  1  0
  3  4  2  0
  5  6  2  0
  5  4  1  0
  7  6  1  0
  8  7  2  0
  9  8  1  0
  9 10  2  0
 10  5  1  0
 12 13  2  0
 12 11  1  0
 13  9  1  0
 14 13  1  0
 15 14  2  0
 16 15  1  0
 16 17  2  0
 17 12  1  0
 18 17  1  0
 19 24  2  0
 20 19  1  0
 20 21  2  0
 21 22  1  0
 22 23  2  0
 23  1  1  0
 24 23  1  0
 25 21  1  0
  2 26  1  0
  3 27  1  0
  4 28  1  0
  6 29  1  0
  7 30  1  0
  8 31  1  0
 14 32  1  0
 15 33  1  0
 16 34  1  0
 19 35  1  0
 20 36  1  0
 25 37  1  0
 25 38  1  0
M  ISO  8  26  14  27  14  28  14  29  14  30  14  31  14  32  14  33  14
M  ISO  3  34  14  35  14  36  14
M  END
>  <minimizedAffinity>  (1) 
-5.0074358

>  <minimizedRMSD>  (1) 
1.90358114

$$$$
