
     RDKit          3D

 46 49  0  0  0  0  0  0  0  0999 V2000
   46.0180   32.2540   46.1130 C   0  0  0  0  0  0  0  0  0  0  0  0
   45.8630   32.9120   47.3310 C   0  0  0  0  0  0  0  0  0  0  0  0
   46.1160   32.3050   48.5660 C   0  0  0  0  0  0  0  0  0  0  0  0
   46.5380   31.0070   48.6250 C   0  0  0  0  0  0  0  0  0  0  0  0
   46.6980   30.3100   47.4110 C   0  0  0  0  0  0  0  0  0  0  0  0
   47.0680   29.0080   47.5120 C   0  0  0  0  0  0  0  0  0  0  0  0
   47.1650   28.2750   46.3260 C   0  0  0  0  0  0  0  0  0  0  0  0
   46.8630   28.9270   45.0840 C   0  0  0  0  0  0  0  0  0  0  0  0
   46.5000   30.2540   45.1510 C   0  0  0  0  0  0  0  0  0  0  0  0
   46.4100   31.0080   46.2350 C   0  0  0  0  0  0  0  0  0  0  0  0
   44.6000   29.7740   43.8830 C   0  0  0  0  0  0  0  0  0  0  0  0
   45.9710   30.2410   43.8020 C   0  0  0  0  0  0  0  0  0  0  0  0
   46.3480   30.3710   42.5320 C   0  0  0  0  0  0  0  0  0  0  0  0
   45.5670   30.1020   41.4270 C   0  0  0  0  0  0  0  0  0  0  0  0
   44.2730   29.6580   41.5310 C   0  0  0  0  0  0  0  0  0  0  0  0
   43.7870   29.4930   42.8010 C   0  0  0  0  0  0  0  0  0  0  0  0
   43.8630   29.5280   45.0720 O   0  0  0  0  0  0  0  0  0  0  0  0
   42.4910   29.0440   42.8370 O   0  0  0  0  0  0  0  0  0  0  0  0
   41.4030   29.8920   42.7940 C   0  0  0  0  0  0  0  0  0  0  0  0
   40.4320   29.7550   43.9440 C   0  0  0  0  0  0  0  0  0  0  0  0
   45.2620   34.1410   42.9840 C   0  0  0  0  0  0  0  0  0  0  0  0
   46.5700   34.5310   42.6140 C   0  0  0  0  0  0  0  0  0  0  0  0
   47.5860   34.1010   43.4350 C   0  0  0  0  0  0  0  0  0  0  0  0
   47.2080   33.3720   44.4820 N   0  0  0  0  0  0  0  0  0  0  0  0
   45.9930   32.9900   44.8600 C   0  0  0  0  0  0  0  0  0  0  0  0
   45.0390   33.3980   44.0740 N   0  0  0  0  0  0  0  0  0  0  0  0
   48.9540   34.3600   43.1530 N   0  0  0  0  0  0  0  0  0  0  0  0
   45.5255   33.9589   47.3214 H   0  0  0  0  0  0  0  0  0  0  0  0
   45.9742   32.8764   49.4952 H   0  0  0  0  0  0  0  0  0  0  0  0
   46.7463   30.5214   49.5898 H   0  0  0  0  0  0  0  0  0  0  0  0
   47.2828   28.5483   48.4880 H   0  0  0  0  0  0  0  0  0  0  0  0
   47.4674   27.2175   46.3443 H   0  0  0  0  0  0  0  0  0  0  0  0
   46.9187   28.3926   44.1242 H   0  0  0  0  0  0  0  0  0  0  0  0
   47.3732   30.7242   42.3472 H   0  0  0  0  0  0  0  0  0  0  0  0
   45.9977   30.2489   40.4255 H   0  0  0  0  0  0  0  0  0  0  0  0
   43.6593   29.4461   40.6430 H   0  0  0  0  0  0  0  0  0  0  0  0
   42.9274   29.2088   45.0174 H   0  0  0  0  0  0  0  0  0  0  0  0
   41.7781   30.9261   42.7872 H   0  0  0  0  0  0  0  0  0  0  0  0
   40.8416   29.6210   41.8877 H   0  0  0  0  0  0  0  0  0  0  0  0
   40.9778   29.8320   44.8959 H   0  0  0  0  0  0  0  0  0  0  0  0
   39.6802   30.5560   43.8865 H   0  0  0  0  0  0  0  0  0  0  0  0
   39.9312   28.7773   43.8865 H   0  0  0  0  0  0  0  0  0  0  0  0
   44.4103   34.4550   42.3627 H   0  0  0  0  0  0  0  0  0  0  0  0
   46.7636   35.1431   41.7208 H   0  0  0  0  0  0  0  0  0  0  0  0
   49.6852   34.0203   43.7939 H   0  0  0  0  0  0  0  0  0  0  0  0
   49.2147   34.8875   42.3076 H   0  0  0  0  0  0  0  0  0  0  0  0
  1 10  1  0
  1  2  2  0
  2  3  1  0
  3  4  2  0
  5  6  2  0
  5  4  1  0
  7  6  1  0
  8  9  1  0
  8  7  2  0
  9 10  2  0
 10  5  1  0
 11 17  1  0
 12 11  2  0
 12  9  1  0
 13 12  1  0
 14 15  1  0
 14 13  2  0
 15 16  2  0
 16 18  1  0
 16 11  1  0
 19 18  1  0
 19 20  1  0
 21 26  2  0
 22 21  1  0
 22 23  2  0
 23 24  1  0
 24 25  2  0
 25  1  1  0
 26 25  1  0
 27 23  1  0
  2 28  1  0
  3 29  1  0
  4 30  1  0
  6 31  1  0
  7 32  1  0
  8 33  1  0
 13 34  1  0
 14 35  1  0
 15 36  1  0
 17 37  1  0
 19 38  1  0
 19 39  1  0
 20 40  1  0
 20 41  1  0
 20 42  1  0
 21 43  1  0
 22 44  1  0
 27 45  1  0
 27 46  1  0
M  ISO  8  28  14  29  14  30  14  31  14  32  14  33  14  34  14  35  14
M  ISO  8  36  14  37   3  38   8  39   8  40   8  41   8  42   8  43  14
M  ISO  1  44  14
M  END
>  <minimizedAffinity>  (1) 
-4.8746438

>  <minimizedRMSD>  (1) 
0.761595905

$$$$
