
     RDKit          3D

 44 47  0  0  0  0  0  0  0  0999 V2000
   45.9250   32.2830   46.0850 C   0  0  0  0  0  0  0  0  0  0  0  0
   45.7340   32.9510   47.2920 C   0  0  0  0  0  0  0  0  0  0  0  0
   45.9540   32.3520   48.5390 C   0  0  0  0  0  0  0  0  0  0  0  0
   46.3770   31.0540   48.6220 C   0  0  0  0  0  0  0  0  0  0  0  0
   46.5730   30.3490   47.4130 C   0  0  0  0  0  0  0  0  0  0  0  0
   46.9420   29.0510   47.5420 C   0  0  0  0  0  0  0  0  0  0  0  0
   47.0740   28.3060   46.3690 C   0  0  0  0  0  0  0  0  0  0  0  0
   46.8040   28.9510   45.1080 C   0  0  0  0  0  0  0  0  0  0  0  0
   46.4390   30.2760   45.1530 C   0  0  0  0  0  0  0  0  0  0  0  0
   46.3180   31.0390   46.2260 C   0  0  0  0  0  0  0  0  0  0  0  0
   44.5680   29.7990   43.8410 C   0  0  0  0  0  0  0  0  0  0  0  0
   45.9450   30.2490   43.7910 C   0  0  0  0  0  0  0  0  0  0  0  0
   46.3540   30.3570   42.5280 C   0  0  0  0  0  0  0  0  0  0  0  0
   45.5990   30.0810   41.4060 C   0  0  0  0  0  0  0  0  0  0  0  0
   44.3080   29.6560   41.4770 C   0  0  0  0  0  0  0  0  0  0  0  0
   43.7850   29.5130   42.7420 C   0  0  0  0  0  0  0  0  0  0  0  0
   43.7940   29.5780   45.0150 O   0  0  0  0  0  0  0  0  0  0  0  0
   42.4770   29.0740   42.7500 O   0  0  0  0  0  0  0  0  0  0  0  0
   42.1710   27.7230   42.9050 C   0  0  0  0  0  0  0  0  0  0  0  0
   43.0760   26.8270   42.8120 O   0  0  0  0  0  0  0  0  0  0  0  0
   40.8480   27.2590   43.1740 N   0  0  0  0  0  0  0  0  0  0  0  0
   45.2560   34.1420   42.9190 C   0  0  0  0  0  0  0  0  0  0  0  0
   46.5750   34.5260   42.5810 C   0  0  0  0  0  0  0  0  0  0  0  0
   47.5700   34.1020   43.4330 C   0  0  0  0  0  0  0  0  0  0  0  0
   47.1580   33.3840   44.4740 N   0  0  0  0  0  0  0  0  0  0  0  0
   45.9350   33.0060   44.8240 C   0  0  0  0  0  0  0  0  0  0  0  0
   45.0040   33.4100   44.0090 N   0  0  0  0  0  0  0  0  0  0  0  0
   48.9430   34.3580   43.1820 N   0  0  0  0  0  0  0  0  0  0  0  0
   45.3948   33.9970   47.2649 H   0  0  0  0  0  0  0  0  0  0  0  0
   45.7851   32.9304   49.4593 H   0  0  0  0  0  0  0  0  0  0  0  0
   46.5583   30.5755   49.5958 H   0  0  0  0  0  0  0  0  0  0  0  0
   47.1295   28.6037   48.5293 H   0  0  0  0  0  0  0  0  0  0  0  0
   47.3775   27.2493   46.4058 H   0  0  0  0  0  0  0  0  0  0  0  0
   46.8862   28.4085   44.1546 H   0  0  0  0  0  0  0  0  0  0  0  0
   47.3872   30.6970   42.3643 H   0  0  0  0  0  0  0  0  0  0  0  0
   46.0590   30.2096   40.4151 H   0  0  0  0  0  0  0  0  0  0  0  0
   43.7166   29.4393   40.5752 H   0  0  0  0  0  0  0  0  0  0  0  0
   42.8567   29.2686   44.9390 H   0  0  0  0  0  0  0  0  0  0  0  0
   40.6678   26.2506   43.2812 H   0  0  0  0  0  0  0  0  0  0  0  0
   40.0737   27.9327   43.2609 H   0  0  0  0  0  0  0  0  0  0  0  0
   44.4217   34.4517   42.2725 H   0  0  0  0  0  0  0  0  0  0  0  0
   46.7934   35.1295   41.6876 H   0  0  0  0  0  0  0  0  0  0  0  0
   49.6584   34.0243   43.8436 H   0  0  0  0  0  0  0  0  0  0  0  0
   49.2241   34.8775   42.3382 H   0  0  0  0  0  0  0  0  0  0  0  0
  1 10  1  0
  1  2  2  0
  2  3  1  0
  3  4  2  0
  5  6  2  0
  5  4  1  0
  7  6  1  0
  8  9  1  0
  8  7  2  0
  9 10  2  0
 10  5  1  0
 11 17  1  0
 12 11  2  0
 12  9  1  0
 13 12  1  0
 14 15  1  0
 14 13  2  0
 15 16  2  0
 16 18  1  0
 16 11  1  0
 18 19  1  0
 19 21  1  0
 20 19  2  0
 22 27  2  0
 23 22  1  0
 23 24  2  0
 24 25  1  0
 25 26  2  0
 26  1  1  0
 27 26  1  0
 28 24  1  0
  2 29  1  0
  3 30  1  0
  4 31  1  0
  6 32  1  0
  7 33  1  0
  8 34  1  0
 13 35  1  0
 14 36  1  0
 15 37  1  0
 17 38  1  0
 21 39  1  0
 21 40  1  0
 22 41  1  0
 23 42  1  0
 28 43  1  0
 28 44  1  0
M  ISO  8  29  14  30  14  31  14  32  14  33  14  34  14  35  14  36  14
M  ISO  4  37  14  38   3  41  14  42  14
M  END
>  <minimizedAffinity>  (1) 
-4.71813011

>  <minimizedRMSD>  (1) 
0.315485924

$$$$
