
     RDKit          3D

 25 26  0  0  0  0  0  0  0  0999 V2000
   46.7300   34.7640   42.0620 C   0  0  0  0  0  0  0  0  0  0  0  0
   47.9490   35.3700   41.8140 C   0  0  0  0  0  0  0  0  0  0  0  0
   48.6870   35.2290   40.6550 C   0  0  0  0  0  0  0  0  0  0  0  0
   48.1930   34.4310   39.6590 C   0  0  0  0  0  0  0  0  0  0  0  0
   46.9900   33.8350   39.9070 C   0  0  0  0  0  0  0  0  0  0  0  0
   46.2930   33.9900   41.0440 N   0  0  0  0  0  0  0  0  0  0  0  0
   44.4550   35.9930   44.8030 C   0  0  0  0  0  0  0  0  0  0  0  0
   45.1030   35.9670   43.5650 C   0  0  0  0  0  0  0  0  0  0  0  0
   45.9820   34.9350   43.2910 C   0  0  0  0  0  0  0  0  0  0  0  0
   46.1730   33.9840   44.2520 N   0  0  0  0  0  0  0  0  0  0  0  0
   45.5390   34.0240   45.4440 C   0  0  0  0  0  0  0  0  0  0  0  0
   44.6820   35.0310   45.7100 N   0  0  0  0  0  0  0  0  0  0  0  0
   46.4290   33.0080   38.9320 O   0  0  0  0  0  0  0  0  0  0  0  0
   47.7790   34.3060   37.0540 O   0  0  0  0  0  0  0  0  0  0  0  0
   46.6620   33.3080   37.2610 P   0  0  0  0  0  0  0  0  0  0  0  0
   47.0680   31.8630   36.4900 O   0  0  0  0  0  0  0  0  0  0  0  0
   45.1920   33.9450   36.6740 O   0  0  0  0  0  0  0  0  0  0  0  0
   48.3633   36.0154   42.6026 H   0  0  0  0  0  0  0  0  0  0  0  0
   49.6502   35.7465   40.5352 H   0  0  0  0  0  0  0  0  0  0  0  0
   48.7339   34.2786   38.7134 H   0  0  0  0  0  0  0  0  0  0  0  0
   43.7538   36.8081   45.0353 H   0  0  0  0  0  0  0  0  0  0  0  0
   44.9168   36.7549   42.8203 H   0  0  0  0  0  0  0  0  0  0  0  0
   45.7206   33.2397   46.1936 H   0  0  0  0  0  0  0  0  0  0  0  0
   47.2628   31.1698   37.1695 H   0  0  0  0  0  0  0  0  0  0  0  0
   44.6131   34.1959   37.4369 H   0  0  0  0  0  0  0  0  0  0  0  0
  1  9  1  0
  2  1  2  0
  3  2  1  0
  4  5  1  0
  4  3  2  0
  5  6  2  0
  6  1  1  0
  7 12  2  0
  8  7  1  0
  9  8  2  0
  9 10  1  0
 10 11  2  0
 11 12  1  0
 13  5  1  0
 14 15  2  0
 15 13  1  0
 16 15  1  0
 17 15  1  0
  2 18  1  0
  3 19  1  0
  4 20  1  0
  7 21  1  0
  8 22  1  0
 11 23  1  0
 16 24  1  0
 17 25  1  0
M  ISO  8  18  14  19  14  20  14  21  14  22  14  23  14  24   3  25   3
M  END
>  <minimizedAffinity>  (1) 
-5.6442194

>  <minimizedRMSD>  (1) 
0.34913215

$$$$
