
     RDKit          3D

 27 28  0  0  1  0  0  0  0  0999 V2000
   46.8260   34.5050   42.5990 N   0  0  0  0  0  0  0  0  0  0  0  0
   46.1790   34.4360   41.3020 C   0  0  0  0  0  0  0  0  0  0  0  0
   47.0460   33.8490   40.2460 C   0  0  0  0  0  0  0  0  0  0  0  0
   48.3500   34.4090   40.1750 N   0  0  0  0  0  0  0  0  0  0  0  0
   48.9590   34.7550   41.4040 C   0  0  2  0  0  0  0  0  0  0  0  0
   48.2400   34.4530   42.6540 C   0  0  0  0  0  0  0  0  0  0  0  0
   44.4100   35.6420   45.2370 C   0  0  0  0  0  0  0  0  0  0  0  0
   45.1100   35.6310   44.0160 C   0  0  0  0  0  0  0  0  0  0  0  0
   46.0530   34.6240   43.7900 C   0  0  0  0  0  0  0  0  0  0  0  0
   46.2360   33.7080   44.7770 N   0  0  0  0  0  0  0  0  0  0  0  0
   45.5390   33.7510   45.9450 C   0  0  0  0  0  0  0  0  0  0  0  0
   44.6330   34.7120   46.1700 N   0  0  0  0  0  0  0  0  0  0  0  0
   49.3150   36.2340   41.3630 C   0  0  0  0  0  0  0  0  0  0  0  0
   45.2740   33.8177   41.3951 H   0  0  0  0  0  0  0  0  0  0  0  0
   45.9453   35.4669   40.9977 H   0  0  0  0  0  0  0  0  0  0  0  0
   47.1452   32.7713   40.4428 H   0  0  0  0  0  0  0  0  0  0  0  0
   46.5590   34.0678   39.2843 H   0  0  0  0  0  0  0  0  0  0  0  0
   48.9594   33.7234   39.7065 H   0  0  0  0  0  0  0  0  0  0  0  0
   49.8322   34.0888   41.4644 H   0  0  0  0  0  0  0  0  0  0  0  0
   48.5716   35.1766   43.4132 H   0  0  0  0  0  0  0  0  0  0  0  0
   48.4836   33.4052   42.8836 H   0  0  0  0  0  0  0  0  0  0  0  0
   43.6663   36.4301   45.4264 H   0  0  0  0  0  0  0  0  0  0  0  0
   44.9186   36.4005   43.2536 H   0  0  0  0  0  0  0  0  0  0  0  0
   45.7219   32.9866   46.7146 H   0  0  0  0  0  0  0  0  0  0  0  0
   49.4073   36.6175   42.3898 H   0  0  0  0  0  0  0  0  0  0  0  0
   50.2707   36.3666   40.8348 H   0  0  0  0  0  0  0  0  0  0  0  0
   48.5243   36.7870   40.8348 H   0  0  0  0  0  0  0  0  0  0  0  0
  1  6  1  0
  1  9  1  0
  2  1  1  0
  3  2  1  0
  4  3  1  0
  4  5  1  0
  5  6  1  0
  7 12  2  0
  8  7  1  0
  9  8  2  0
  9 10  1  0
 10 11  2  0
 11 12  1  0
 13  5  1  0
  2 14  1  0
  2 15  1  0
  3 16  1  0
  3 17  1  0
  4 18  1  0
  5 19  1  1
  6 20  1  0
  6 21  1  0
  7 22  1  0
  8 23  1  0
 11 24  1  0
 13 25  1  0
 13 26  1  0
 13 27  1  0
M  ISO  8  14  13  15  13  16  13  17  13  18   5  19  13  20  13  21  13
M  ISO  6  22  14  23  14  24  14  25   8  26   8  27   8
M  END
>  <minimizedAffinity>  (1) 
-4.42630196

>  <minimizedRMSD>  (1) 
0.783786178

$$$$
