
     RDKit          3D

 41 43  0  0  1  0  0  0  0  0999 V2000
   47.6380   33.5020   43.1580 N   0  0  0  0  0  0  0  0  0  0  0  0
   47.3150   32.6180   42.0480 C   0  0  0  0  0  0  0  0  0  0  0  0
   48.5360   32.2350   41.2640 C   0  0  0  0  0  0  0  0  0  0  0  0
   49.3490   33.3280   40.8740 N   0  0  0  0  0  0  0  0  0  0  0  0
   49.4560   34.4170   41.7720 C   0  0  2  0  0  0  0  0  0  0  0  0
   48.8580   34.2660   43.1170 C   0  0  0  0  0  0  0  0  0  0  0  0
   44.9940   34.6310   45.5590 C   0  0  0  0  0  0  0  0  0  0  0  0
   45.8020   34.6280   44.4050 C   0  0  0  0  0  0  0  0  0  0  0  0
   46.7700   33.6150   44.2660 C   0  0  0  0  0  0  0  0  0  0  0  0
   46.8460   32.7130   45.2710 N   0  0  0  0  0  0  0  0  0  0  0  0
   46.0560   32.7480   46.3620 C   0  0  0  0  0  0  0  0  0  0  0  0
   45.1320   33.7080   46.5030 N   0  0  0  0  0  0  0  0  0  0  0  0
   46.1920   31.7630   47.3820 N   0  0  0  0  0  0  0  0  0  0  0  0
   46.2060   32.1410   48.7840 C   0  0  0  0  0  0  0  0  0  0  0  0
   45.2870   31.2690   49.5720 C   0  0  0  0  0  0  0  0  0  0  0  0
   45.2710   29.8960   49.1400 N   0  0  0  0  0  0  0  0  0  0  0  0
   45.1170   29.7130   47.7160 C   0  0  0  0  0  0  0  0  0  0  0  0
   46.3210   30.3540   47.0430 C   0  0  0  0  0  0  0  0  0  0  0  0
   48.8240   35.6370   41.1150 C   0  0  0  0  0  0  0  0  0  0  0  0
   49.5750   36.7810   41.4010 F   0  0  0  0  0  0  0  0  0  0  0  0
   47.6160   35.8310   41.7500 F   0  0  0  0  0  0  0  0  0  0  0  0
   48.7080   35.5240   39.7620 F   0  0  0  0  0  0  0  0  0  0  0  0
   46.8465   31.7053   42.4449 H   0  0  0  0  0  0  0  0  0  0  0  0
   46.6309   33.1538   41.3734 H   0  0  0  0  0  0  0  0  0  0  0  0
   49.1435   31.5581   41.8827 H   0  0  0  0  0  0  0  0  0  0  0  0
   48.1781   31.7639   40.3366 H   0  0  0  0  0  0  0  0  0  0  0  0
   50.2996   32.9643   40.7158 H   0  0  0  0  0  0  0  0  0  0  0  0
   50.5363   34.5019   41.9613 H   0  0  0  0  0  0  0  0  0  0  0  0
   49.5948   33.7675   43.7641 H   0  0  0  0  0  0  0  0  0  0  0  0
   48.5971   35.2803   43.4533 H   0  0  0  0  0  0  0  0  0  0  0  0
   44.2322   35.4152   45.6805 H   0  0  0  0  0  0  0  0  0  0  0  0
   45.6795   35.3993   43.6303 H   0  0  0  0  0  0  0  0  0  0  0  0
   47.2283   32.0367   49.1764 H   0  0  0  0  0  0  0  0  0  0  0  0
   45.8687   33.1842   48.8735 H   0  0  0  0  0  0  0  0  0  0  0  0
   45.6021   31.2968   50.6255 H   0  0  0  0  0  0  0  0  0  0  0  0
   44.2701   31.6616   49.4243 H   0  0  0  0  0  0  0  0  0  0  0  0
   46.1593   29.4596   49.4253 H   0  0  0  0  0  0  0  0  0  0  0  0
   45.0793   28.6400   47.4766 H   0  0  0  0  0  0  0  0  0  0  0  0
   44.1830   30.1749   47.3635 H   0  0  0  0  0  0  0  0  0  0  0  0
   46.2862   30.2074   45.9534 H   0  0  0  0  0  0  0  0  0  0  0  0
   47.2765   29.9205   47.3732 H   0  0  0  0  0  0  0  0  0  0  0  0
  1  9  1  0
  2  1  1  0
  3  2  1  0
  4  3  1  0
  4  5  1  0
  5  6  1  0
  6  1  1  0
  7 12  2  0
  8  7  1  0
  9  8  2  0
  9 10  1  0
 10 11  2  0
 11 12  1  0
 11 13  1  0
 13 14  1  0
 14 15  1  0
 16 15  1  0
 17 16  1  0
 18 13  1  0
 18 17  1  0
 19 20  1  0
 19 21  1  0
 19  5  1  0
 22 19  1  0
  2 23  1  0
  2 24  1  0
  3 25  1  0
  3 26  1  0
  4 27  1  0
  5 28  1  1
  6 29  1  0
  6 30  1  0
  7 31  1  0
  8 32  1  0
 14 33  1  0
 14 34  1  0
 15 35  1  0
 15 36  1  0
 16 37  1  0
 17 38  1  0
 17 39  1  0
 18 40  1  0
 18 41  1  0
M  ISO  8  23  13  24  13  25  13  26  13  27   5  28  13  29  13  30  13
M  ISO  8  31  14  32  14  33  13  34  13  35  13  36  13  37   5  38  13
M  ISO  3  39  13  40  13  41  13
M  END
>  <minimizedAffinity>  (1) 
-7.00291729

>  <minimizedRMSD>  (1) 
0.404986143

$$$$
