
     RDKit          3D

 43 46  0  0  1  0  0  0  0  0999 V2000
   45.1130   34.1310   45.7150 C   0  0  0  0  0  0  0  0  0  0  0  0
   45.7110   34.2110   44.4420 C   0  0  0  0  0  0  0  0  0  0  0  0
   46.8300   33.4320   44.2010 C   0  0  0  0  0  0  0  0  0  0  0  0
   47.2450   32.6570   45.2330 N   0  0  0  0  0  0  0  0  0  0  0  0
   46.6800   32.5800   46.4370 C   0  0  0  0  0  0  0  0  0  0  0  0
   45.6040   33.3280   46.6730 N   0  0  0  0  0  0  0  0  0  0  0  0
   47.5490   33.3970   42.9730 N   0  0  0  0  0  0  0  0  0  0  0  0
   46.9690   32.7940   41.7930 C   0  0  0  0  0  0  0  0  0  0  0  0
   48.0130   32.3960   40.7930 C   0  0  0  0  0  0  0  0  0  0  0  0
   48.9360   33.4130   40.4800 N   0  0  0  0  0  0  0  0  0  0  0  0
   49.3250   34.2730   41.5190 C   0  0  2  0  0  0  0  0  0  0  0  0
   48.8620   33.9590   42.8880 C   0  0  0  0  0  0  0  0  0  0  0  0
   48.8670   35.6910   41.2100 C   0  0  0  0  0  0  0  0  0  0  0  0
   49.6800   36.6210   41.8340 F   0  0  0  0  0  0  0  0  0  0  0  0
   47.6150   35.8330   41.7900 F   0  0  0  0  0  0  0  0  0  0  0  0
   48.8600   35.9520   39.8630 F   0  0  0  0  0  0  0  0  0  0  0  0
   47.3870   31.6450   47.3170 C   0  0  0  0  0  0  0  0  0  0  0  0
   48.0360   32.0780   48.4560 C   0  0  0  0  0  0  0  0  0  0  0  0
   48.7160   31.2560   49.3200 C   0  0  0  0  0  0  0  0  0  0  0  0
   48.7820   29.9140   49.0830 C   0  0  0  0  0  0  0  0  0  0  0  0
   48.1530   29.4310   47.9630 C   0  0  0  0  0  0  0  0  0  0  0  0
   48.2260   28.0750   47.7300 C   0  0  0  0  0  0  0  0  0  0  0  0
   47.6200   27.5010   46.6220 C   0  0  0  0  0  0  0  0  0  0  0  0
   46.9430   28.3800   45.7760 C   0  0  0  0  0  0  0  0  0  0  0  0
   46.8990   29.7220   46.0500 C   0  0  0  0  0  0  0  0  0  0  0  0
   47.4890   30.2940   47.1340 C   0  0  0  0  0  0  0  0  0  0  0  0
   44.2229   34.7406   45.9294 H   0  0  0  0  0  0  0  0  0  0  0  0
   45.3017   34.8718   43.6637 H   0  0  0  0  0  0  0  0  0  0  0  0
   46.4051   31.8984   42.0928 H   0  0  0  0  0  0  0  0  0  0  0  0
   46.3122   33.5386   41.3195 H   0  0  0  0  0  0  0  0  0  0  0  0
   48.5700   31.5390   41.1996 H   0  0  0  0  0  0  0  0  0  0  0  0
   47.4802   32.1575   39.8607 H   0  0  0  0  0  0  0  0  0  0  0  0
   49.7872   32.9580   40.1203 H   0  0  0  0  0  0  0  0  0  0  0  0
   50.4170   34.1421   41.5405 H   0  0  0  0  0  0  0  0  0  0  0  0
   49.5687   33.2412   43.3300 H   0  0  0  0  0  0  0  0  0  0  0  0
   48.8184   34.9190   43.4233 H   0  0  0  0  0  0  0  0  0  0  0  0
   48.0062   33.1532   48.6865 H   0  0  0  0  0  0  0  0  0  0  0  0
   49.2094   31.6808   50.2066 H   0  0  0  0  0  0  0  0  0  0  0  0
   49.3212   29.2418   49.7666 H   0  0  0  0  0  0  0  0  0  0  0  0
   48.7754   27.4352   48.4362 H   0  0  0  0  0  0  0  0  0  0  0  0
   47.6701   26.4203   46.4228 H   0  0  0  0  0  0  0  0  0  0  0  0
   46.4388   27.9914   44.8789 H   0  0  0  0  0  0  0  0  0  0  0  0
   46.3545   30.3751   45.3522 H   0  0  0  0  0  0  0  0  0  0  0  0
  1  6  2  0
  2  1  1  0
  3  2  2  0
  3  4  1  0
  4  5  2  0
  5  6  1  0
  5 17  1  0
  7  3  1  0
  8  7  1  0
  9  8  1  0
 10  9  1  0
 10 11  1  0
 11 12  1  0
 12  7  1  0
 13 11  1  0
 13 15  1  0
 13 14  1  0
 16 13  1  0
 17 18  2  0
 18 19  1  0
 20 19  2  0
 21 20  1  0
 22 21  2  0
 23 22  1  0
 24 25  1  0
 24 23  2  0
 25 26  2  0
 26 17  1  0
 26 21  1  0
  1 27  1  0
  2 28  1  0
  8 29  1  0
  8 30  1  0
  9 31  1  0
  9 32  1  0
 10 33  1  0
 11 34  1  1
 12 35  1  0
 12 36  1  0
 18 37  1  0
 19 38  1  0
 20 39  1  0
 22 40  1  0
 23 41  1  0
 24 42  1  0
 25 43  1  0
M  ISO  8  27  14  28  14  29  13  30  13  31  13  32  13  33   5  34  13
M  ISO  8  35  13  36  13  37  14  38  14  39  14  40  14  41  14  42  14
M  ISO  1  43  14
M  END
>  <minimizedAffinity>  (1) 
-6.54510403

>  <minimizedRMSD>  (1) 
0.750353754

$$$$
