
     RDKit          3D

 24 25  0  0  1  0  0  0  0  0999 V2000
   44.9290   35.9540   43.9110 C   0  0  0  0  0  0  0  0  0  0  0  0
   45.3830   35.5180   42.6330 C   0  0  0  0  0  0  0  0  0  0  0  0
   45.9530   34.2390   42.5580 C   0  0  0  0  0  0  0  0  0  0  0  0
   46.0350   33.5050   43.6940 N   0  0  0  0  0  0  0  0  0  0  0  0
   45.5970   33.9470   44.8800 C   0  0  0  0  0  0  0  0  0  0  0  0
   45.0470   35.1630   44.9950 N   0  0  0  0  0  0  0  0  0  0  0  0
   46.5410   33.6330   40.9890 S   0  0  0  0  0  0  0  0  0  0  0  0
   49.8640   35.1510   43.0160 N   0  0  0  0  0  0  0  0  0  0  0  0
   50.2460   33.8740   42.4410 C   0  0  0  0  0  0  0  0  0  0  0  0
   48.9240   33.2040   42.1350 C   0  0  0  0  0  0  0  0  0  0  0  0
   48.3400   33.8980   40.9370 C   0  0  2  0  0  0  0  0  0  0  0  0
   48.6100   35.3630   40.8790 C   0  0  0  0  0  0  0  0  0  0  0  0
   49.2810   35.9960   42.0330 C   0  0  0  0  0  0  0  0  0  0  0  0
   44.4756   36.9509   44.0141 H   0  0  0  0  0  0  0  0  0  0  0  0
   45.2904   36.1575   41.7428 H   0  0  0  0  0  0  0  0  0  0  0  0
   45.6898   33.3051   45.7685 H   0  0  0  0  0  0  0  0  0  0  0  0
   49.9975   35.4100   44.0039 H   0  0  0  0  0  0  0  0  0  0  0  0
   50.8337   34.0183   41.5224 H   0  0  0  0  0  0  0  0  0  0  0  0
   50.8787   33.2772   43.1144 H   0  0  0  0  0  0  0  0  0  0  0  0
   49.0842   32.1387   41.9123 H   0  0  0  0  0  0  0  0  0  0  0  0
   48.2431   33.2729   42.9962 H   0  0  0  0  0  0  0  0  0  0  0  0
   48.8166   33.4714   40.0421 H   0  0  0  0  0  0  0  0  0  0  0  0
   48.3174   35.9568   40.0005 H   0  0  0  0  0  0  0  0  0  0  0  0
   49.3281   37.0908   42.1288 H   0  0  0  0  0  0  0  0  0  0  0  0
  1  6  2  0
  2  1  1  0
  3  2  2  0
  3  4  1  0
  4  5  2  0
  5  6  1  0
  7  3  1  0
  9  8  1  0
 10  9  1  0
 11  7  1  0
 11 10  1  0
 12 11  1  0
 12 13  2  0
 13  8  1  0
  1 14  1  0
  2 15  1  0
  5 16  1  0
  8 17  1  0
  9 18  1  0
  9 19  1  0
 10 20  1  0
 10 21  1  0
 11 22  1  6
 12 23  1  0
 13 24  1  0
M  ISO  8  14  14  15  14  16  14  18  13  19  13  20  13  21  13  22  13
M  ISO  2  23  13  24  13
M  END
>  <minimizedAffinity>  (1) 
-4.69143629

>  <minimizedRMSD>  (1) 
2.72249126

$$$$
