
     RDKit          3D

 29 30  0  0  1  0  0  0  0  0999 V2000
   47.7540   33.3540   43.2040 N   0  0  0  0  0  0  0  0  0  0  0  0
   47.4100   32.4890   42.0770 C   0  0  0  0  0  0  0  0  0  0  0  0
   48.6060   32.1700   41.2310 C   0  0  0  0  0  0  0  0  0  0  0  0
   49.3580   33.3030   40.8260 N   0  0  0  0  0  0  0  0  0  0  0  0
   49.4620   34.3620   41.7530 C   0  0  2  0  0  0  0  0  0  0  0  0
   48.9300   34.1510   43.1230 C   0  0  0  0  0  0  0  0  0  0  0  0
   45.1280   34.2860   45.7110 C   0  0  0  0  0  0  0  0  0  0  0  0
   45.9060   34.3090   44.5460 C   0  0  0  0  0  0  0  0  0  0  0  0
   46.9300   33.3930   44.3490 C   0  0  0  0  0  0  0  0  0  0  0  0
   47.1160   32.4970   45.3420 N   0  0  0  0  0  0  0  0  0  0  0  0
   46.3600   32.4790   46.4670 C   0  0  0  0  0  0  0  0  0  0  0  0
   45.3740   33.3670   46.6500 N   0  0  0  0  0  0  0  0  0  0  0  0
   46.6790   31.4740   47.4230 N   0  0  0  0  0  0  0  0  0  0  0  0
   48.7740   35.5880   41.1720 C   0  0  0  0  0  0  0  0  0  0  0  0
   49.5330   36.7310   41.4190 F   0  0  0  0  0  0  0  0  0  0  0  0
   47.6060   35.7500   41.9010 F   0  0  0  0  0  0  0  0  0  0  0  0
   48.5510   35.4850   39.8330 F   0  0  0  0  0  0  0  0  0  0  0  0
   46.9885   31.5501   42.4652 H   0  0  0  0  0  0  0  0  0  0  0  0
   46.6807   33.0216   41.4489 H   0  0  0  0  0  0  0  0  0  0  0  0
   49.2675   31.5064   41.8072 H   0  0  0  0  0  0  0  0  0  0  0  0
   48.2237   31.7026   40.3115 H   0  0  0  0  0  0  0  0  0  0  0  0
   50.3129   32.9825   40.6106 H   0  0  0  0  0  0  0  0  0  0  0  0
   50.5475   34.4683   41.8955 H   0  0  0  0  0  0  0  0  0  0  0  0
   49.7137   33.6616   43.7199 H   0  0  0  0  0  0  0  0  0  0  0  0
   48.6481   35.1467   43.4959 H   0  0  0  0  0  0  0  0  0  0  0  0
   44.3202   35.0192   45.8520 H   0  0  0  0  0  0  0  0  0  0  0  0
   45.7018   35.0659   43.7744 H   0  0  0  0  0  0  0  0  0  0  0  0
   46.1414   31.4074   48.2990 H   0  0  0  0  0  0  0  0  0  0  0  0
   47.4474   30.8133   47.2388 H   0  0  0  0  0  0  0  0  0  0  0  0
  1  9  1  0
  2  1  1  0
  3  2  1  0
  4  3  1  0
  4  5  1  0
  5  6  1  0
  6  1  1  0
  7 12  2  0
  8  7  1  0
  9  8  2  0
  9 10  1  0
 10 11  2  0
 11 12  1  0
 11 13  1  0
 14 15  1  0
 14  5  1  0
 14 16  1  0
 17 14  1  0
  2 18  1  0
  2 19  1  0
  3 20  1  0
  3 21  1  0
  4 22  1  0
  5 23  1  1
  6 24  1  0
  6 25  1  0
  7 26  1  0
  8 27  1  0
 13 28  1  0
 13 29  1  0
M  ISO  8  18  13  19  13  20  13  21  13  22   5  23  13  24  13  25  13
M  ISO  2  26  14  27  14
M  END
>  <minimizedAffinity>  (1) 
-5.26793528

>  <minimizedRMSD>  (1) 
0.0199465342

$$$$
