
     RDKit          3D

 46 49  0  0  1  0  0  0  0  0999 V2000
   44.7020   35.0840   45.2460 C   0  0  0  0  0  0  0  0  0  0  0  0
   45.4790   34.9570   44.0850 C   0  0  0  0  0  0  0  0  0  0  0  0
   46.4670   33.9730   44.0480 C   0  0  0  0  0  0  0  0  0  0  0  0
   46.6020   33.1950   45.1670 N   0  0  0  0  0  0  0  0  0  0  0  0
   45.8380   33.3450   46.2650 C   0  0  0  0  0  0  0  0  0  0  0  0
   44.8770   34.3040   46.2990 N   0  0  0  0  0  0  0  0  0  0  0  0
   47.3340   33.7240   42.9400 N   0  0  0  0  0  0  0  0  0  0  0  0
   46.8740   32.8930   41.8390 C   0  0  0  0  0  0  0  0  0  0  0  0
   48.0420   32.3490   41.0540 C   0  0  0  0  0  0  0  0  0  0  0  0
   49.0040   33.3140   40.6700 N   0  0  0  0  0  0  0  0  0  0  0  0
   49.2650   34.3620   41.5780 C   0  0  2  0  0  0  0  0  0  0  0  0
   48.6420   34.2880   42.9140 C   0  0  0  0  0  0  0  0  0  0  0  0
   48.8410   35.6770   40.9440 C   0  0  0  0  0  0  0  0  0  0  0  0
   49.6670   36.7110   41.3720 F   0  0  0  0  0  0  0  0  0  0  0  0
   47.5840   35.9570   41.4460 F   0  0  0  0  0  0  0  0  0  0  0  0
   48.8750   35.6450   39.5790 F   0  0  0  0  0  0  0  0  0  0  0  0
   46.0340   32.4840   47.4220 C   0  0  0  0  0  0  0  0  0  0  0  0
   44.9550   32.0910   48.1790 C   0  0  0  0  0  0  0  0  0  0  0  0
   45.2080   31.2700   49.2730 C   0  0  0  0  0  0  0  0  0  0  0  0
   46.5080   30.9170   49.5130 C   0  0  0  0  0  0  0  0  0  0  0  0
   47.6030   31.3070   48.7560 C   0  0  0  0  0  0  0  0  0  0  0  0
   47.3020   32.1060   47.7030 N   0  0  0  0  0  0  0  0  0  0  0  0
   48.3860   28.6930   47.5740 Cl  0  0  0  0  0  0  0  0  0  0  0  0
   49.4270   29.7170   48.5340 C   0  0  0  0  0  0  0  0  0  0  0  0
   48.9740   30.9140   49.0380 C   0  0  0  0  0  0  0  0  0  0  0  0
   49.8350   31.6800   49.7860 C   0  0  0  0  0  0  0  0  0  0  0  0
   51.1430   31.2400   50.0200 C   0  0  0  0  0  0  0  0  0  0  0  0
   51.5630   30.0340   49.4960 C   0  0  0  0  0  0  0  0  0  0  0  0
   53.2170   29.5700   49.8430 Cl  0  0  0  0  0  0  0  0  0  0  0  0
   50.7070   29.2480   48.7400 C   0  0  0  0  0  0  0  0  0  0  0  0
   43.9213   35.8581   45.2814 H   0  0  0  0  0  0  0  0  0  0  0  0
   45.3128   35.6191   43.2224 H   0  0  0  0  0  0  0  0  0  0  0  0
   46.2876   32.0537   42.2412 H   0  0  0  0  0  0  0  0  0  0  0  0
   46.2542   33.5069   41.1690 H   0  0  0  0  0  0  0  0  0  0  0  0
   48.5460   31.5915   41.6722 H   0  0  0  0  0  0  0  0  0  0  0  0
   47.6240   31.9424   40.1213 H   0  0  0  0  0  0  0  0  0  0  0  0
   49.8917   32.8181   40.5059 H   0  0  0  0  0  0  0  0  0  0  0  0
   50.3450   34.2741   41.7674 H   0  0  0  0  0  0  0  0  0  0  0  0
   49.2899   33.6761   43.5588 H   0  0  0  0  0  0  0  0  0  0  0  0
   48.5349   35.3266   43.2603 H   0  0  0  0  0  0  0  0  0  0  0  0
   43.9332   32.4129   47.9294 H   0  0  0  0  0  0  0  0  0  0  0  0
   44.3926   30.9173   49.9216 H   0  0  0  0  0  0  0  0  0  0  0  0
   46.7013   30.2686   50.3803 H   0  0  0  0  0  0  0  0  0  0  0  0
   49.4960   32.6404   50.2016 H   0  0  0  0  0  0  0  0  0  0  0  0
   51.8331   31.8525   50.6188 H   0  0  0  0  0  0  0  0  0  0  0  0
   51.0367   28.2862   48.3202 H   0  0  0  0  0  0  0  0  0  0  0  0
  1  6  2  0
  2  1  1  0
  3  2  2  0
  3  4  1  0
  4  5  2  0
  5  6  1  0
  5 17  1  0
  7  3  1  0
  8  7  1  0
  9  8  1  0
 10  9  1  0
 10 11  1  0
 11 12  1  0
 12  7  1  0
 13 14  1  0
 13 15  1  0
 13 11  1  0
 16 13  1  0
 17 22  1  0
 17 18  2  0
 18 19  1  0
 19 20  2  0
 21 25  1  0
 21 20  1  0
 22 21  2  0
 23 24  1  0
 24 30  2  0
 24 25  1  0
 25 26  2  0
 26 27  1  0
 28 29  1  0
 28 27  2  0
 30 28  1  0
  1 31  1  0
  2 32  1  0
  8 33  1  0
  8 34  1  0
  9 35  1  0
  9 36  1  0
 10 37  1  0
 11 38  1  1
 12 39  1  0
 12 40  1  0
 18 41  1  0
 19 42  1  0
 20 43  1  0
 26 44  1  0
 27 45  1  0
 30 46  1  0
M  ISO  8  31  14  32  14  33  13  34  13  35  13  36  13  37   5  38  13
M  ISO  8  39  13  40  13  41  14  42  14  43  14  44  14  45  14  46  14
M  END
>  <minimizedAffinity>  (1) 
-7.61030626

>  <minimizedRMSD>  (1) 
0.174695984

$$$$
