
     RDKit          3D

 45 48  0  0  1  0  0  0  0  0999 V2000
   44.7270   35.0570   45.3090 C   0  0  0  0  0  0  0  0  0  0  0  0
   45.5160   34.9450   44.1490 C   0  0  0  0  0  0  0  0  0  0  0  0
   46.5030   33.9420   44.1090 C   0  0  0  0  0  0  0  0  0  0  0  0
   46.5990   33.1660   45.2130 N   0  0  0  0  0  0  0  0  0  0  0  0
   45.8360   33.2940   46.3040 C   0  0  0  0  0  0  0  0  0  0  0  0
   44.8820   34.2570   46.3540 N   0  0  0  0  0  0  0  0  0  0  0  0
   47.3670   33.7160   43.0110 N   0  0  0  0  0  0  0  0  0  0  0  0
   46.9390   32.8660   41.9140 C   0  0  0  0  0  0  0  0  0  0  0  0
   48.1300   32.3390   41.1430 C   0  0  0  0  0  0  0  0  0  0  0  0
   49.0610   33.3180   40.7410 N   0  0  0  0  0  0  0  0  0  0  0  0
   49.2940   34.3820   41.6440 C   0  0  2  0  0  0  0  0  0  0  0  0
   48.6610   34.3210   42.9760 C   0  0  0  0  0  0  0  0  0  0  0  0
   48.8470   35.6740   40.9920 C   0  0  0  0  0  0  0  0  0  0  0  0
   49.6440   36.7340   41.3890 F   0  0  0  0  0  0  0  0  0  0  0  0
   47.5880   35.9430   41.5010 F   0  0  0  0  0  0  0  0  0  0  0  0
   48.8410   35.6310   39.6240 F   0  0  0  0  0  0  0  0  0  0  0  0
   46.0170   32.4050   47.4480 C   0  0  0  0  0  0  0  0  0  0  0  0
   44.9280   31.9560   48.1500 C   0  0  0  0  0  0  0  0  0  0  0  0
   45.1380   31.1130   49.2310 C   0  0  0  0  0  0  0  0  0  0  0  0
   46.4530   30.7900   49.5150 C   0  0  0  0  0  0  0  0  0  0  0  0
   47.5450   31.2340   48.8190 C   0  0  0  0  0  0  0  0  0  0  0  0
   47.2870   32.0530   47.7740 N   0  0  0  0  0  0  0  0  0  0  0  0
   48.9100   30.8600   49.1640 C   0  0  0  0  0  0  0  0  0  0  0  0
   49.7910   31.8470   49.5510 C   0  0  0  0  0  0  0  0  0  0  0  0
   51.0780   31.5440   49.8820 C   0  0  0  0  0  0  0  0  0  0  0  0
   51.4400   30.1990   49.8050 C   0  0  0  0  0  0  0  0  0  0  0  0
   50.5390   29.2160   49.4120 C   0  0  0  0  0  0  0  0  0  0  0  0
   49.2780   29.5800   49.0970 N   0  0  0  0  0  0  0  0  0  0  0  0
   43.9530   35.8375   45.3497 H   0  0  0  0  0  0  0  0  0  0  0  0
   45.3654   35.6232   43.2962 H   0  0  0  0  0  0  0  0  0  0  0  0
   46.3672   32.0175   42.3177 H   0  0  0  0  0  0  0  0  0  0  0  0
   46.3137   33.4607   41.2318 H   0  0  0  0  0  0  0  0  0  0  0  0
   48.6539   31.6114   41.7802 H   0  0  0  0  0  0  0  0  0  0  0  0
   47.7273   31.9002   40.2182 H   0  0  0  0  0  0  0  0  0  0  0  0
   49.9610   32.8445   40.5777 H   0  0  0  0  0  0  0  0  0  0  0  0
   50.3729   34.3096   41.8459 H   0  0  0  0  0  0  0  0  0  0  0  0
   49.3228   33.7462   43.6405 H   0  0  0  0  0  0  0  0  0  0  0  0
   48.5169   35.3648   43.2919 H   0  0  0  0  0  0  0  0  0  0  0  0
   43.9102   32.2578   47.8620 H   0  0  0  0  0  0  0  0  0  0  0  0
   44.3031   30.7218   49.8310 H   0  0  0  0  0  0  0  0  0  0  0  0
   46.6359   30.1221   50.3696 H   0  0  0  0  0  0  0  0  0  0  0  0
   49.4511   32.8923   49.5932 H   0  0  0  0  0  0  0  0  0  0  0  0
   51.7936   32.3192   50.1935 H   0  0  0  0  0  0  0  0  0  0  0  0
   52.4689   29.9076   50.0629 H   0  0  0  0  0  0  0  0  0  0  0  0
   50.8478   28.1616   49.3588 H   0  0  0  0  0  0  0  0  0  0  0  0
  1  6  2  0
  2  1  1  0
  3  2  2  0
  3  4  1  0
  4  5  2  0
  5  6  1  0
  5 17  1  0
  7  3  1  0
  8  7  1  0
  9  8  1  0
 10  9  1  0
 10 11  1  0
 11 12  1  0
 12  7  1  0
 13 14  1  0
 13 15  1  0
 13 11  1  0
 16 13  1  0
 17 22  1  0
 17 18  2  0
 18 19  1  0
 19 20  2  0
 21 23  1  0
 21 20  1  0
 22 21  2  0
 23 24  2  0
 24 25  1  0
 26 25  2  0
 27 26  1  0
 28 23  1  0
 28 27  2  0
  1 29  1  0
  2 30  1  0
  8 31  1  0
  8 32  1  0
  9 33  1  0
  9 34  1  0
 10 35  1  0
 11 36  1  1
 12 37  1  0
 12 38  1  0
 18 39  1  0
 19 40  1  0
 20 41  1  0
 24 42  1  0
 25 43  1  0
 26 44  1  0
 27 45  1  0
M  ISO  8  29  14  30  14  31  13  32  13  33  13  34  13  35   5  36  13
M  ISO  8  37  13  38  13  39  14  40  14  41  14  42  14  43  14  44  14
M  ISO  1  45  14
M  END
>  <minimizedAffinity>  (1) 
-7.38328362

>  <minimizedRMSD>  (1) 
0.175994352

$$$$
