
     RDKit          3D

 49 52  0  0  1  0  0  0  0  0999 V2000
   44.7380   35.0910   45.3850 C   0  0  0  0  0  0  0  0  0  0  0  0
   45.5470   34.9690   44.2520 C   0  0  0  0  0  0  0  0  0  0  0  0
   46.4900   33.9350   44.2150 C   0  0  0  0  0  0  0  0  0  0  0  0
   46.5380   33.1190   45.3120 N   0  0  0  0  0  0  0  0  0  0  0  0
   45.7390   33.2670   46.3890 C   0  0  0  0  0  0  0  0  0  0  0  0
   44.8370   34.2610   46.4180 N   0  0  0  0  0  0  0  0  0  0  0  0
   47.3730   33.6910   43.1410 N   0  0  0  0  0  0  0  0  0  0  0  0
   46.9930   32.7920   42.0620 C   0  0  0  0  0  0  0  0  0  0  0  0
   48.1860   32.2840   41.3060 C   0  0  0  0  0  0  0  0  0  0  0  0
   49.1110   33.2710   40.9080 N   0  0  0  0  0  0  0  0  0  0  0  0
   49.3050   34.3760   41.7690 C   0  0  2  0  0  0  0  0  0  0  0  0
   48.6520   34.3250   43.0970 C   0  0  0  0  0  0  0  0  0  0  0  0
   48.8230   35.6260   41.0740 C   0  0  0  0  0  0  0  0  0  0  0  0
   49.6220   36.7140   41.3960 F   0  0  0  0  0  0  0  0  0  0  0  0
   47.5680   35.9180   41.6090 F   0  0  0  0  0  0  0  0  0  0  0  0
   48.7800   35.5290   39.7070 F   0  0  0  0  0  0  0  0  0  0  0  0
   45.8580   32.3510   47.5140 C   0  0  0  0  0  0  0  0  0  0  0  0
   44.7380   31.9620   48.2030 C   0  0  0  0  0  0  0  0  0  0  0  0
   44.8990   31.0830   49.2750 C   0  0  0  0  0  0  0  0  0  0  0  0
   46.1800   30.6820   49.5460 C   0  0  0  0  0  0  0  0  0  0  0  0
   47.3070   31.0590   48.8710 C   0  0  0  0  0  0  0  0  0  0  0  0
   47.1150   31.9140   47.8340 N   0  0  0  0  0  0  0  0  0  0  0  0
   48.6800   30.6340   49.1550 C   0  0  0  0  0  0  0  0  0  0  0  0
   49.5960   31.8200   49.3830 C   0  0  0  0  0  0  0  0  0  0  0  0
   50.9430   31.0940   49.4810 C   0  0  0  0  0  0  0  0  0  0  0  0
   50.8110   29.9230   48.5070 C   0  0  0  0  0  0  0  0  0  0  0  0
   49.3750   29.9440   48.0280 C   0  0  0  0  0  0  0  0  0  0  0  0
   43.9946   35.9009   45.4229 H   0  0  0  0  0  0  0  0  0  0  0  0
   45.4452   35.6687   43.4094 H   0  0  0  0  0  0  0  0  0  0  0  0
   46.4515   31.9347   42.4883 H   0  0  0  0  0  0  0  0  0  0  0  0
   46.3598   33.3536   41.3594 H   0  0  0  0  0  0  0  0  0  0  0  0
   48.7133   31.5628   41.9477 H   0  0  0  0  0  0  0  0  0  0  0  0
   47.7933   31.8427   40.3781 H   0  0  0  0  0  0  0  0  0  0  0  0
   50.0237   32.8080   40.7914 H   0  0  0  0  0  0  0  0  0  0  0  0
   50.3851   34.3610   41.9766 H   0  0  0  0  0  0  0  0  0  0  0  0
   49.3209   33.7815   43.7805 H   0  0  0  0  0  0  0  0  0  0  0  0
   48.4739   35.3728   43.3807 H   0  0  0  0  0  0  0  0  0  0  0  0
   43.7418   32.3320   47.9190 H   0  0  0  0  0  0  0  0  0  0  0  0
   44.0432   30.7314   49.8700 H   0  0  0  0  0  0  0  0  0  0  0  0
   46.3151   29.9888   50.3893 H   0  0  0  0  0  0  0  0  0  0  0  0
   48.5361   29.9716   50.0213 H   0  0  0  0  0  0  0  0  0  0  0  0
   49.5713   32.5243   48.5384 H   0  0  0  0  0  0  0  0  0  0  0  0
   49.3402   32.4455   50.2510 H   0  0  0  0  0  0  0  0  0  0  0  0
   51.7669   31.7588   49.1822 H   0  0  0  0  0  0  0  0  0  0  0  0
   51.1704   30.7654   50.5058 H   0  0  0  0  0  0  0  0  0  0  0  0
   51.4995   30.0510   47.6587 H   0  0  0  0  0  0  0  0  0  0  0  0
   51.0632   28.9664   48.9879 H   0  0  0  0  0  0  0  0  0  0  0  0
   49.2750   30.5105   47.0904 H   0  0  0  0  0  0  0  0  0  0  0  0
   48.9691   28.9470   47.8015 H   0  0  0  0  0  0  0  0  0  0  0  0
  1  6  2  0
  2  1  1  0
  3  2  2  0
  3  4  1  0
  4  5  2  0
  5  6  1  0
  5 17  1  0
  7  3  1  0
  8  7  1  0
  9  8  1  0
 10  9  1  0
 10 11  1  0
 11 12  1  0
 12  7  1  0
 13 14  1  0
 13 15  1  0
 13 11  1  0
 16 13  1  0
 17 22  1  0
 17 18  2  0
 18 19  1  0
 19 20  2  0
 21 23  1  0
 21 20  1  0
 22 21  2  0
 23 24  1  0
 24 25  1  0
 26 25  1  0
 27 26  1  0
 27 23  1  0
  1 28  1  0
  2 29  1  0
  8 30  1  0
  8 31  1  0
  9 32  1  0
  9 33  1  0
 10 34  1  0
 11 35  1  1
 12 36  1  0
 12 37  1  0
 18 38  1  0
 19 39  1  0
 20 40  1  0
 23 41  1  0
 24 42  1  0
 24 43  1  0
 25 44  1  0
 25 45  1  0
 26 46  1  0
 26 47  1  0
 27 48  1  0
 27 49  1  0
M  ISO  8  28  14  29  14  30  13  31  13  32  13  33  13  34   5  35  13
M  ISO  8  36  13  37  13  38  14  39  14  40  14  41  13  42  13  43  13
M  ISO  6  44  13  45  13  46  13  47  13  48  13  49  13
M  END
>  <minimizedAffinity>  (1) 
-7.2047224

>  <minimizedRMSD>  (1) 
0.331014603

$$$$
