
     RDKit          3D

 52 55  0  0  1  0  0  0  0  0999 V2000
   44.7770   34.8530   45.3310 C   0  0  0  0  0  0  0  0  0  0  0  0
   45.5060   34.7710   44.1370 C   0  0  0  0  0  0  0  0  0  0  0  0
   46.5570   33.8660   44.0550 C   0  0  0  0  0  0  0  0  0  0  0  0
   46.7940   33.1160   45.1660 N   0  0  0  0  0  0  0  0  0  0  0  0
   46.0770   33.2160   46.2970 C   0  0  0  0  0  0  0  0  0  0  0  0
   45.0620   34.0910   46.3740 N   0  0  0  0  0  0  0  0  0  0  0  0
   47.3790   33.6820   42.9070 N   0  0  0  0  0  0  0  0  0  0  0  0
   46.8860   32.9410   41.7690 C   0  0  0  0  0  0  0  0  0  0  0  0
   48.0220   32.4240   40.9100 C   0  0  0  0  0  0  0  0  0  0  0  0
   48.9720   33.3890   40.5560 N   0  0  0  0  0  0  0  0  0  0  0  0
   49.2930   34.3880   41.5270 C   0  0  2  0  0  0  0  0  0  0  0  0
   48.7010   34.2240   42.8630 C   0  0  0  0  0  0  0  0  0  0  0  0
   48.8680   35.7330   40.9950 C   0  0  0  0  0  0  0  0  0  0  0  0
   49.6910   36.7330   41.5230 F   0  0  0  0  0  0  0  0  0  0  0  0
   47.6050   35.9730   41.4900 F   0  0  0  0  0  0  0  0  0  0  0  0
   48.9330   35.8320   39.6390 F   0  0  0  0  0  0  0  0  0  0  0  0
   46.4110   32.3610   47.4430 C   0  0  0  0  0  0  0  0  0  0  0  0
   45.4000   31.8660   48.2360 C   0  0  0  0  0  0  0  0  0  0  0  0
   45.7370   31.0600   49.3160 C   0  0  0  0  0  0  0  0  0  0  0  0
   47.0750   30.8250   49.4980 C   0  0  0  0  0  0  0  0  0  0  0  0
   48.1030   31.3140   48.7130 C   0  0  0  0  0  0  0  0  0  0  0  0
   47.7370   32.0950   47.6720 N   0  0  0  0  0  0  0  0  0  0  0  0
   49.5200   31.0190   48.9710 C   0  0  0  0  0  0  0  0  0  0  0  0
   49.6010   29.6360   49.5550 C   0  0  0  0  0  0  0  0  0  0  0  0
   50.0560   29.7790   51.0100 C   0  0  0  0  0  0  0  0  0  0  0  0
   51.5220   30.1970   50.9180 C   0  0  0  0  0  0  0  0  0  0  0  0
   51.6010   31.4830   50.1490 C   0  0  0  0  0  0  0  0  0  0  0  0
   50.2370   32.0410   49.7930 C   0  0  0  0  0  0  0  0  0  0  0  0
   43.9458   35.5700   45.4028 H   0  0  0  0  0  0  0  0  0  0  0  0
   45.2507   35.4117   43.2800 H   0  0  0  0  0  0  0  0  0  0  0  0
   46.2920   32.0876   42.1280 H   0  0  0  0  0  0  0  0  0  0  0  0
   46.2699   33.6165   41.1573 H   0  0  0  0  0  0  0  0  0  0  0  0
   48.5353   31.6249   41.4650 H   0  0  0  0  0  0  0  0  0  0  0  0
   47.5681   32.0749   39.9708 H   0  0  0  0  0  0  0  0  0  0  0  0
   49.8443   32.8926   40.3245 H   0  0  0  0  0  0  0  0  0  0  0  0
   50.3787   34.2902   41.6745 H   0  0  0  0  0  0  0  0  0  0  0  0
   49.3567   33.5558   43.4406 H   0  0  0  0  0  0  0  0  0  0  0  0
   48.6151   35.2411   43.2730 H   0  0  0  0  0  0  0  0  0  0  0  0
   44.3481   32.1037   48.0189 H   0  0  0  0  0  0  0  0  0  0  0  0
   44.9748   30.6353   49.9858 H   0  0  0  0  0  0  0  0  0  0  0  0
   47.3577   30.1874   50.3486 H   0  0  0  0  0  0  0  0  0  0  0  0
   50.0599   31.0636   48.0137 H   0  0  0  0  0  0  0  0  0  0  0  0
   48.6136   29.1529   49.5157 H   0  0  0  0  0  0  0  0  0  0  0  0
   50.3087   29.0151   48.9861 H   0  0  0  0  0  0  0  0  0  0  0  0
   49.4648   30.5488   51.5275 H   0  0  0  0  0  0  0  0  0  0  0  0
   49.9235   28.8482   51.5811 H   0  0  0  0  0  0  0  0  0  0  0  0
   51.9307   30.3430   51.9288 H   0  0  0  0  0  0  0  0  0  0  0  0
   52.1062   29.4161   50.4091 H   0  0  0  0  0  0  0  0  0  0  0  0
   52.1356   32.2253   50.7600 H   0  0  0  0  0  0  0  0  0  0  0  0
   52.1284   31.2729   49.2068 H   0  0  0  0  0  0  0  0  0  0  0  0
   50.3529   32.9701   49.2156 H   0  0  0  0  0  0  0  0  0  0  0  0
   49.6661   32.2661   50.7059 H   0  0  0  0  0  0  0  0  0  0  0  0
  1  6  2  0
  2  1  1  0
  3  2  2  0
  3  4  1  0
  4  5  2  0
  5  6  1  0
  5 17  1  0
  7  3  1  0
  8  7  1  0
  9  8  1  0
 10  9  1  0
 10 11  1  0
 11 12  1  0
 12  7  1  0
 13 15  1  0
 13 14  1  0
 13 11  1  0
 16 13  1  0
 17 22  1  0
 17 18  2  0
 18 19  1  0
 19 20  2  0
 21 23  1  0
 21 20  1  0
 22 21  2  0
 23 24  1  0
 23 28  1  0
 24 25  1  0
 26 25  1  0
 27 26  1  0
 28 27  1  0
  1 29  1  0
  2 30  1  0
  8 31  1  0
  8 32  1  0
  9 33  1  0
  9 34  1  0
 10 35  1  0
 11 36  1  1
 12 37  1  0
 12 38  1  0
 18 39  1  0
 19 40  1  0
 20 41  1  0
 23 42  1  0
 24 43  1  0
 24 44  1  0
 25 45  1  0
 25 46  1  0
 26 47  1  0
 26 48  1  0
 27 49  1  0
 27 50  1  0
 28 51  1  0
 28 52  1  0
M  ISO  8  29  14  30  14  31  13  32  13  33  13  34  13  35   5  36  13
M  ISO  8  37  13  38  13  39  14  40  14  41  14  42  13  43  13  44  13
M  ISO  8  45  13  46  13  47  13  48  13  49  13  50  13  51  13  52  13
M  END
>  <minimizedAffinity>  (1) 
-7.1984868

>  <minimizedRMSD>  (1) 
0.477718055

$$$$
