
     RDKit          3D

 37 39  0  0  1  0  0  0  0  0999 V2000
   44.7130   35.0890   45.3540 C   0  0  0  0  0  0  0  0  0  0  0  0
   45.5110   34.9650   44.1970 C   0  0  0  0  0  0  0  0  0  0  0  0
   46.4740   33.9500   44.1490 C   0  0  0  0  0  0  0  0  0  0  0  0
   46.5560   33.1520   45.2560 N   0  0  0  0  0  0  0  0  0  0  0  0
   45.7860   33.2940   46.3390 C   0  0  0  0  0  0  0  0  0  0  0  0
   44.8560   34.2740   46.3860 N   0  0  0  0  0  0  0  0  0  0  0  0
   47.3380   33.7110   43.0580 N   0  0  0  0  0  0  0  0  0  0  0  0
   46.9250   32.8640   41.9570 C   0  0  0  0  0  0  0  0  0  0  0  0
   48.1010   32.3410   41.1850 C   0  0  0  0  0  0  0  0  0  0  0  0
   49.0480   33.3120   40.7930 N   0  0  0  0  0  0  0  0  0  0  0  0
   49.2720   34.3840   41.6900 C   0  0  2  0  0  0  0  0  0  0  0  0
   48.6430   34.3030   43.0180 C   0  0  0  0  0  0  0  0  0  0  0  0
   48.8260   35.6860   41.0460 C   0  0  0  0  0  0  0  0  0  0  0  0
   49.6530   36.7280   41.4270 F   0  0  0  0  0  0  0  0  0  0  0  0
   47.5710   35.9590   41.5670 F   0  0  0  0  0  0  0  0  0  0  0  0
   48.8160   35.6170   39.6790 F   0  0  0  0  0  0  0  0  0  0  0  0
   45.9390   32.3970   47.4800 C   0  0  0  0  0  0  0  0  0  0  0  0
   44.8370   31.9130   48.1440 C   0  0  0  0  0  0  0  0  0  0  0  0
   45.0330   31.0670   49.2200 C   0  0  0  0  0  0  0  0  0  0  0  0
   46.3370   30.7730   49.5430 C   0  0  0  0  0  0  0  0  0  0  0  0
   47.4470   31.2440   48.8930 C   0  0  0  0  0  0  0  0  0  0  0  0
   47.2240   32.0780   47.8340 N   0  0  0  0  0  0  0  0  0  0  0  0
   49.1160   30.8000   49.3930 S   0  0  0  0  0  0  0  0  0  0  0  0
   43.9531   35.8831   45.3989 H   0  0  0  0  0  0  0  0  0  0  0  0
   45.3790   35.6528   43.3488 H   0  0  0  0  0  0  0  0  0  0  0  0
   46.3546   32.0128   42.3571 H   0  0  0  0  0  0  0  0  0  0  0  0
   46.3084   33.4670   41.2742 H   0  0  0  0  0  0  0  0  0  0  0  0
   48.6159   31.5986   41.8125 H   0  0  0  0  0  0  0  0  0  0  0  0
   47.6909   31.9240   40.2534 H   0  0  0  0  0  0  0  0  0  0  0  0
   49.9476   32.8307   40.6519 H   0  0  0  0  0  0  0  0  0  0  0  0
   50.3539   34.3292   41.8809 H   0  0  0  0  0  0  0  0  0  0  0  0
   49.3026   33.7089   43.6676 H   0  0  0  0  0  0  0  0  0  0  0  0
   48.5077   35.3439   43.3471 H   0  0  0  0  0  0  0  0  0  0  0  0
   43.8216   32.1925   47.8264 H   0  0  0  0  0  0  0  0  0  0  0  0
   44.1887   30.6503   49.7888 H   0  0  0  0  0  0  0  0  0  0  0  0
   46.5032   30.1010   50.3979 H   0  0  0  0  0  0  0  0  0  0  0  0
   49.1928   30.7796   50.7607 H   0  0  0  0  0  0  0  0  0  0  0  0
  1  6  2  0
  2  1  1  0
  3  2  2  0
  3  4  1  0
  4  5  2  0
  5  6  1  0
  5 17  1  0
  7  3  1  0
  8  7  1  0
  9  8  1  0
 10  9  1  0
 10 11  1  0
 11 12  1  0
 12  7  1  0
 13 14  1  0
 13 15  1  0
 13 11  1  0
 16 13  1  0
 17 22  1  0
 17 18  2  0
 18 19  1  0
 19 20  2  0
 21 23  1  0
 21 20  1  0
 22 21  2  0
  1 24  1  0
  2 25  1  0
  8 26  1  0
  8 27  1  0
  9 28  1  0
  9 29  1  0
 10 30  1  0
 11 31  1  1
 12 32  1  0
 12 33  1  0
 18 34  1  0
 19 35  1  0
 20 36  1  0
 23 37  1  0
M  ISO  8  24  14  25  14  26  13  27  13  28  13  29  13  30   5  31  13
M  ISO  6  32  13  33  13  34  14  35  14  36  14  37  11
M  END
>  <minimizedAffinity>  (1) 
-6.73303318

>  <minimizedRMSD>  (1) 
0.13494812

$$$$
