
     RDKit          3D

 26 28  0  0  0  0  0  0  0  0999 V2000
   48.0000   35.2760   42.0170 C   0  0  0  0  0  0  0  0  0  0  0  0
   46.7710   34.6410   42.1810 C   0  0  0  0  0  0  0  0  0  0  0  0
   46.1290   33.9680   41.1390 C   0  0  0  0  0  0  0  0  0  0  0  0
   46.7940   33.9650   39.9140 C   0  0  0  0  0  0  0  0  0  0  0  0
   46.3840   33.3890   38.7650 N   0  0  0  0  0  0  0  0  0  0  0  0
   47.3290   33.6290   37.8280 C   0  0  0  0  0  0  0  0  0  0  0  0
   48.3530   34.3730   38.4020 C   0  0  0  0  0  0  0  0  0  0  0  0
   48.0110   34.5860   39.7290 C   0  0  0  0  0  0  0  0  0  0  0  0
   48.6230   35.2470   40.7820 C   0  0  0  0  0  0  0  0  0  0  0  0
   44.5180   35.7080   44.9360 C   0  0  0  0  0  0  0  0  0  0  0  0
   45.1710   35.6730   43.7010 C   0  0  0  0  0  0  0  0  0  0  0  0
   46.0980   34.6610   43.4760 C   0  0  0  0  0  0  0  0  0  0  0  0
   46.3140   33.7660   44.4690 N   0  0  0  0  0  0  0  0  0  0  0  0
   45.6710   33.8240   45.6460 C   0  0  0  0  0  0  0  0  0  0  0  0
   44.7610   34.8020   45.8920 N   0  0  0  0  0  0  0  0  0  0  0  0
   44.8320   36.6900   42.7600 N   0  0  0  0  0  0  0  0  0  0  0  0
   48.4718   35.7967   42.8633 H   0  0  0  0  0  0  0  0  0  0  0  0
   45.1576   33.4706   41.2767 H   0  0  0  0  0  0  0  0  0  0  0  0
   45.5099   32.8621   38.6266 H   0  0  0  0  0  0  0  0  0  0  0  0
   47.2931   33.2905   36.7820 H   0  0  0  0  0  0  0  0  0  0  0  0
   49.2644   34.7268   37.8979 H   0  0  0  0  0  0  0  0  0  0  0  0
   49.5939   35.7434   40.6375 H   0  0  0  0  0  0  0  0  0  0  0  0
   43.7827   36.5031   45.1287 H   0  0  0  0  0  0  0  0  0  0  0  0
   45.8834   33.0714   46.4196 H   0  0  0  0  0  0  0  0  0  0  0  0
   45.2855   36.7080   41.8354 H   0  0  0  0  0  0  0  0  0  0  0  0
   44.1337   37.4064   43.0051 H   0  0  0  0  0  0  0  0  0  0  0  0
  1  2  2  0
  2 12  1  0
  3  2  1  0
  4  3  2  0
  5  4  1  0
  6  7  2  0
  6  5  1  0
  7  8  1  0
  8  4  1  0
  8  9  2  0
  9  1  1  0
 10 15  2  0
 11 10  1  0
 12 11  2  0
 12 13  1  0
 13 14  2  0
 14 15  1  0
 16 11  1  0
  1 17  1  0
  3 18  1  0
  5 19  1  0
  6 20  1  0
  7 21  1  0
  9 22  1  0
 10 23  1  0
 14 24  1  0
 16 25  1  0
 16 26  1  0
M  ISO  8  17  14  18  14  19   9  20  14  21  14  22  14  23  14  24  14
M  END
>  <minimizedAffinity>  (1) 
-6.05157566

>  <minimizedRMSD>  (1) 
2.27691865

$$$$
