
     RDKit          3D

 19 20  0  0  0  0  0  0  0  0999 V2000
   44.5180   35.6040   44.9900 C   0  0  0  0  0  0  0  0  0  0  0  0
   45.2150   35.6440   43.7800 C   0  0  0  0  0  0  0  0  0  0  0  0
   46.1980   34.7010   43.5340 C   0  0  0  0  0  0  0  0  0  0  0  0
   46.4030   33.7890   44.5250 N   0  0  0  0  0  0  0  0  0  0  0  0
   45.7310   33.7560   45.6810 C   0  0  0  0  0  0  0  0  0  0  0  0
   44.7790   34.6680   45.9240 N   0  0  0  0  0  0  0  0  0  0  0  0
   46.9090   34.7170   42.3340 C   0  0  0  0  0  0  0  0  0  0  0  0
   48.0330   35.3020   41.9180 C   0  0  0  0  0  0  0  0  0  0  0  0
   48.5320   35.1560   40.6620 C   0  0  0  0  0  0  0  0  0  0  0  0
   47.6950   34.2710   39.7880 C   0  0  0  0  0  0  0  0  0  0  0  0
   46.2990   33.7970   40.9680 S   0  0  0  0  0  0  0  0  0  0  0  0
   44.8350   36.6880   42.8850 N   0  0  0  0  0  0  0  0  0  0  0  0
   43.7376   36.3543   45.1851 H   0  0  0  0  0  0  0  0  0  0  0  0
   45.9588   32.9831   46.4298 H   0  0  0  0  0  0  0  0  0  0  0  0
   48.5849   35.9355   42.6280 H   0  0  0  0  0  0  0  0  0  0  0  0
   49.4590   35.6397   40.3204 H   0  0  0  0  0  0  0  0  0  0  0  0
   47.8521   33.9766   38.7398 H   0  0  0  0  0  0  0  0  0  0  0  0
   45.3048   36.7810   41.9731 H   0  0  0  0  0  0  0  0  0  0  0  0
   44.0909   37.3487   43.1507 H   0  0  0  0  0  0  0  0  0  0  0  0
  1  6  2  0
  2  1  1  0
  3  2  2  0
  3  4  1  0
  4  5  2  0
  5  6  1  0
  7  3  1  0
  8  7  2  0
  9  8  1  0
 10  9  2  0
 10 11  1  0
 11  7  1  0
 12  2  1  0
  1 13  1  0
  5 14  1  0
  8 15  1  0
  9 16  1  0
 10 17  1  0
 12 18  1  0
 12 19  1  0
M  ISO  5  13  14  14  14  15  14  16  14  17  14
M  END
>  <minimizedAffinity>  (1) 
-4.63980579

>  <minimizedRMSD>  (1) 
1.96047568

$$$$
