
     RDKit          3D

 27 28  0  0  0  0  0  0  0  0999 V2000
   44.7010   35.4810   44.7960 C   0  0  0  0  0  0  0  0  0  0  0  0
   45.6060   35.1880   43.7680 C   0  0  0  0  0  0  0  0  0  0  0  0
   46.5020   34.1420   43.9260 C   0  0  0  0  0  0  0  0  0  0  0  0
   46.4490   33.4460   45.0880 N   0  0  0  0  0  0  0  0  0  0  0  0
   45.5780   33.7360   46.0670 C   0  0  0  0  0  0  0  0  0  0  0  0
   44.6990   34.7540   45.9250 N   0  0  0  0  0  0  0  0  0  0  0  0
   47.3830   33.9000   42.8580 N   0  0  0  0  0  0  0  0  0  0  0  0
   47.1130   33.1210   41.6550 C   0  0  0  0  0  0  0  0  0  0  0  0
   47.0480   34.0480   40.4660 C   0  0  0  0  0  0  0  0  0  0  0  0
   48.2440   34.9540   40.3670 C   0  0  0  0  0  0  0  0  0  0  0  0
   48.7960   35.3980   41.6720 C   0  0  0  0  0  0  0  0  0  0  0  0
   48.7370   34.4010   42.7800 C   0  0  0  0  0  0  0  0  0  0  0  0
   45.5040   36.0420   42.6140 N   0  0  0  0  0  0  0  0  0  0  0  0
   43.9884   36.3106   44.6780 H   0  0  0  0  0  0  0  0  0  0  0  0
   45.5790   33.1410   46.9922 H   0  0  0  0  0  0  0  0  0  0  0  0
   47.9175   32.3861   41.5046 H   0  0  0  0  0  0  0  0  0  0  0  0
   46.1539   32.5936   41.7645 H   0  0  0  0  0  0  0  0  0  0  0  0
   46.9900   33.4414   39.5502 H   0  0  0  0  0  0  0  0  0  0  0  0
   46.1598   34.6848   40.5909 H   0  0  0  0  0  0  0  0  0  0  0  0
   49.0364   34.4174   39.8246 H   0  0  0  0  0  0  0  0  0  0  0  0
   47.9034   35.8624   39.8486 H   0  0  0  0  0  0  0  0  0  0  0  0
   49.8513   35.6670   41.5171 H   0  0  0  0  0  0  0  0  0  0  0  0
   48.1604   36.2364   41.9932 H   0  0  0  0  0  0  0  0  0  0  0  0
   49.4304   33.5723   42.5740 H   0  0  0  0  0  0  0  0  0  0  0  0
   49.0266   34.8698   43.7320 H   0  0  0  0  0  0  0  0  0  0  0  0
   44.8023   36.7957   42.5915 H   0  0  0  0  0  0  0  0  0  0  0  0
   46.1327   35.8995   41.8107 H   0  0  0  0  0  0  0  0  0  0  0  0
  1  6  2  0
  2  3  2  0
  2  1  1  0
  3  4  1  0
  4  5  2  0
  6  5  1  0
  7  3  1  0
  8  7  1  0
  9  8  1  0
 10  9  1  0
 10 11  1  0
 11 12  1  0
 12  7  1  0
 13  2  1  0
  1 14  1  0
  5 15  1  0
  8 16  1  0
  8 17  1  0
  9 18  1  0
  9 19  1  0
 10 20  1  0
 10 21  1  0
 11 22  1  0
 11 23  1  0
 12 24  1  0
 12 25  1  0
 13 26  1  0
 13 27  1  0
M  ISO  8  14  14  15  14  16  13  17  13  18  13  19  13  20  13  21  13
M  ISO  4  22  13  23  13  24  13  25  13
M  END
>  <minimizedAffinity>  (1) 
-4.49888659

>  <minimizedRMSD>  (1) 
2.22493267

$$$$
