
     RDKit          3D

 15 15  0  0  0  0  0  0  0  0999 V2000
   44.5360   35.6560   45.0370 C   0  0  0  0  0  0  0  0  0  0  0  0
   45.1390   35.6790   43.7760 C   0  0  0  0  0  0  0  0  0  0  0  0
   46.0480   34.6660   43.4720 C   0  0  0  0  0  0  0  0  0  0  0  0
   46.2830   33.7310   44.4170 N   0  0  0  0  0  0  0  0  0  0  0  0
   45.6870   33.7360   45.6240 C   0  0  0  0  0  0  0  0  0  0  0  0
   44.8070   34.7010   45.9420 N   0  0  0  0  0  0  0  0  0  0  0  0
   46.6500   34.7340   42.1430 C   0  0  0  0  0  0  0  0  0  0  0  0
   47.4820   35.8320   42.0840 F   0  0  0  0  0  0  0  0  0  0  0  0
   45.6400   34.8090   41.1960 F   0  0  0  0  0  0  0  0  0  0  0  0
   47.4290   33.6430   41.8290 F   0  0  0  0  0  0  0  0  0  0  0  0
   44.7560   36.7540   42.9170 N   0  0  0  0  0  0  0  0  0  0  0  0
   43.8159   36.4459   45.2967 H   0  0  0  0  0  0  0  0  0  0  0  0
   45.9212   32.9467   46.3535 H   0  0  0  0  0  0  0  0  0  0  0  0
   45.1631   36.8297   41.9739 H   0  0  0  0  0  0  0  0  0  0  0  0
   44.0727   37.4535   43.2407 H   0  0  0  0  0  0  0  0  0  0  0  0
  1  6  2  0
  2  1  1  0
  3  2  2  0
  3  4  1  0
  4  5  2  0
  5  6  1  0
  7  3  1  0
  8  7  1  0
  9  7  1  0
 10  7  1  0
 11  2  1  0
  1 12  1  0
  5 13  1  0
 11 14  1  0
 11 15  1  0
M  ISO  2  12  14  13  14
M  END
>  <minimizedAffinity>  (1) 
-4.06970787

>  <minimizedRMSD>  (1) 
1.46134508

$$$$
