
     RDKit          3D

 20 21  0  0  0  0  0  0  0  0999 V2000
   44.5400   36.1430   44.5710 C   0  0  0  0  0  0  0  0  0  0  0  0
   45.1120   35.9600   43.2890 C   0  0  0  0  0  0  0  0  0  0  0  0
   45.8420   34.7790   43.0770 C   0  0  0  0  0  0  0  0  0  0  0  0
   45.9680   33.8770   44.0940 N   0  0  0  0  0  0  0  0  0  0  0  0
   45.4000   34.1050   45.2990 C   0  0  0  0  0  0  0  0  0  0  0  0
   44.6940   35.2260   45.5340 N   0  0  0  0  0  0  0  0  0  0  0  0
   46.5880   34.4850   41.4850 S   0  0  0  0  0  0  0  0  0  0  0  0
   48.2540   33.8920   41.7040 C   0  0  0  0  0  0  0  0  0  0  0  0
   49.0850   34.7660   42.3710 C   0  0  0  0  0  0  0  0  0  0  0  0
   50.4150   34.4250   42.6090 C   0  0  0  0  0  0  0  0  0  0  0  0
   50.9200   33.2000   42.1770 C   0  0  0  0  0  0  0  0  0  0  0  0
   50.0250   32.3680   41.5110 C   0  0  0  0  0  0  0  0  0  0  0  0
   48.7400   32.7090   41.2860 N   0  0  0  0  0  0  0  0  0  0  0  0
   43.9594   37.0538   44.7792 H   0  0  0  0  0  0  0  0  0  0  0  0
   44.9900   36.7100   42.4936 H   0  0  0  0  0  0  0  0  0  0  0  0
   45.5169   33.3615   46.1012 H   0  0  0  0  0  0  0  0  0  0  0  0
   48.6972   35.7357   42.7165 H   0  0  0  0  0  0  0  0  0  0  0  0
   51.0716   35.1284   43.1421 H   0  0  0  0  0  0  0  0  0  0  0  0
   51.9658   32.9076   42.3523 H   0  0  0  0  0  0  0  0  0  0  0  0
   50.3810   31.3907   41.1529 H   0  0  0  0  0  0  0  0  0  0  0  0
  1  6  2  0
  2  1  1  0
  3  2  2  0
  3  4  1  0
  4  5  2  0
  5  6  1  0
  7  8  1  0
  7  3  1  0
  8  9  2  0
  9 10  1  0
 11 10  2  0
 12 11  1  0
 13 12  2  0
 13  8  1  0
  1 14  1  0
  2 15  1  0
  5 16  1  0
  9 17  1  0
 10 18  1  0
 11 19  1  0
 12 20  1  0
M  ISO  7  14  14  15  14  16  14  17  14  18  14  19  14  20  14
M  END
>  <minimizedAffinity>  (1) 
-4.45893717

>  <minimizedRMSD>  (1) 
1.25441003

$$$$
