
     RDKit          3D

 19 20  0  0  0  0  0  0  0  0999 V2000
   44.4900   35.6940   45.1050 C   0  0  0  0  0  0  0  0  0  0  0  0
   45.1190   35.5390   43.8590 C   0  0  0  0  0  0  0  0  0  0  0  0
   45.9630   34.4610   43.6890 C   0  0  0  0  0  0  0  0  0  0  0  0
   46.1290   33.6100   44.7580 N   0  0  0  0  0  0  0  0  0  0  0  0
   45.5080   33.7960   45.9290 C   0  0  0  0  0  0  0  0  0  0  0  0
   44.6900   34.8370   46.1020 N   0  0  0  0  0  0  0  0  0  0  0  0
   46.6660   34.2270   42.4060 C   0  0  0  0  0  0  0  0  0  0  0  0
   46.4520   33.1220   41.6310 C   0  0  0  0  0  0  0  0  0  0  0  0
   47.5790   33.3860   40.2050 S   0  0  0  0  0  0  0  0  0  0  0  0
   48.1640   35.0170   40.9490 C   0  0  0  0  0  0  0  0  0  0  0  0
   47.5460   35.0590   41.9160 N   0  0  0  0  0  0  0  0  0  0  0  0
   49.1370   35.9600   40.4300 O   0  0  0  0  0  0  0  0  0  0  0  0
   44.8290   36.5120   42.8780 N   0  0  0  0  0  0  0  0  0  0  0  0
   43.8136   36.5474   45.2605 H   0  0  0  0  0  0  0  0  0  0  0  0
   45.6725   33.0870   46.7538 H   0  0  0  0  0  0  0  0  0  0  0  0
   45.7702   32.2789   41.8163 H   0  0  0  0  0  0  0  0  0  0  0  0
   49.3459   36.7847   40.9362 H   0  0  0  0  0  0  0  0  0  0  0  0
   45.2621   36.4483   41.9457 H   0  0  0  0  0  0  0  0  0  0  0  0
   44.1843   37.2855   43.0946 H   0  0  0  0  0  0  0  0  0  0  0  0
  1  6  2  0
  2  1  1  0
  3  2  2  0
  3  4  1  0
  4  5  2  0
  5  6  1  0
  7  3  1  0
  8  7  2  0
  9 10  1  0
  9  8  1  0
 10 11  2  0
 11  7  1  0
 12 10  1  0
 13  2  1  0
  1 14  1  0
  5 15  1  0
  8 16  1  0
 12 17  1  0
 13 18  1  0
 13 19  1  0
M  ISO  4  14  14  15  14  16  14  17   3
M  END
>  <minimizedAffinity>  (1) 
-4.69958639

>  <minimizedRMSD>  (1) 
0.536701858

$$$$
