
     RDKit          3D

 20 21  0  0  0  0  0  0  0  0999 V2000
   44.4170   35.8530   44.7230 C   0  0  0  0  0  0  0  0  0  0  0  0
   44.7090   35.4920   43.3960 C   0  0  0  0  0  0  0  0  0  0  0  0
   45.3850   34.3140   43.1670 C   0  0  0  0  0  0  0  0  0  0  0  0
   45.7270   33.5670   44.2810 N   0  0  0  0  0  0  0  0  0  0  0  0
   45.4310   33.9480   45.5270 C   0  0  0  0  0  0  0  0  0  0  0  0
   44.7750   35.0920   45.7460 N   0  0  0  0  0  0  0  0  0  0  0  0
   45.7280   33.8650   41.8020 C   0  0  0  0  0  0  0  0  0  0  0  0
   44.9930   32.9420   41.1160 C   0  0  0  0  0  0  0  0  0  0  0  0
   45.9170   32.8130   39.5090 S   0  0  0  0  0  0  0  0  0  0  0  0
   47.1550   34.0760   40.1040 C   0  0  0  0  0  0  0  0  0  0  0  0
   46.7630   34.3230   41.1560 N   0  0  0  0  0  0  0  0  0  0  0  0
   48.2790   34.4350   39.1380 C   0  0  0  0  0  0  0  0  0  0  0  0
   48.0580   34.3780   37.9030 O   0  0  0  0  0  0  0  0  0  0  0  0
   44.2750   36.3880   42.3840 N   0  0  0  0  0  0  0  0  0  0  0  0
   43.8773   36.7917   44.9165 H   0  0  0  0  0  0  0  0  0  0  0  0
   45.7288   33.3168   46.3773 H   0  0  0  0  0  0  0  0  0  0  0  0
   44.0844   32.4096   41.4337 H   0  0  0  0  0  0  0  0  0  0  0  0
   49.2663   34.7386   39.5163 H   0  0  0  0  0  0  0  0  0  0  0  0
   44.4611   36.1754   41.3935 H   0  0  0  0  0  0  0  0  0  0  0  0
   43.7740   37.2507   42.6402 H   0  0  0  0  0  0  0  0  0  0  0  0
  1  6  2  0
  2  1  1  0
  3  2  2  0
  3  4  1  0
  4  5  2  0
  5  6  1  0
  7  3  1  0
  8  7  2  0
  9 10  1  0
  9  8  1  0
 10 11  2  0
 11  7  1  0
 12 10  1  0
 13 12  2  0
 14  2  1  0
  1 15  1  0
  5 16  1  0
  8 17  1  0
 12 18  1  0
 14 19  1  0
 14 20  1  0
M  ISO  4  15  14  16  14  17  14  18   6
M  END
>  <minimizedAffinity>  (1) 
-4.01402521

>  <minimizedRMSD>  (1) 
1.66759419

$$$$
