
     RDKit          3D

 35 37  0  0  0  0  0  0  0  0999 V2000
   47.4220   31.1630   45.2610 C   0  0  0  0  0  0  0  0  0  0  0  0
   48.0640   30.1110   44.7300 C   0  0  0  0  0  0  0  0  0  0  0  0
   48.5940   30.7640   43.0830 S   0  0  0  0  0  0  0  0  0  0  0  0
   47.8090   32.4110   43.4470 C   0  0  0  0  0  0  0  0  0  0  0  0
   47.3960   32.2050   44.4900 N   0  0  0  0  0  0  0  0  0  0  0  0
   45.0360   30.6320   48.1400 C   0  0  0  0  0  0  0  0  0  0  0  0
   45.5520   30.6050   46.8280 C   0  0  0  0  0  0  0  0  0  0  0  0
   46.7960   31.1450   46.6060 C   0  0  0  0  0  0  0  0  0  0  0  0
   47.4590   31.6850   47.7080 N   0  0  0  0  0  0  0  0  0  0  0  0
   46.9250   31.6860   48.9350 C   0  0  0  0  0  0  0  0  0  0  0  0
   45.7250   31.1660   49.1570 N   0  0  0  0  0  0  0  0  0  0  0  0
   44.7440   30.0220   45.8430 N   0  0  0  0  0  0  0  0  0  0  0  0
   47.8310   33.5630   42.4890 C   0  0  0  0  0  0  0  0  0  0  0  0
   46.8880   34.6480   42.9080 C   0  0  0  0  0  0  0  0  0  0  0  0
   44.4460   35.2020   42.7710 C   0  0  0  0  0  0  0  0  0  0  0  0
   45.6070   34.6930   42.2030 C   0  0  0  0  0  0  0  0  0  0  0  0
   45.5200   34.2080   40.9020 C   0  0  0  0  0  0  0  0  0  0  0  0
   44.3600   34.1950   40.1290 C   0  0  0  0  0  0  0  0  0  0  0  0
   43.2130   34.7130   40.7290 C   0  0  0  0  0  0  0  0  0  0  0  0
   43.2680   35.2040   42.0260 C   0  0  0  0  0  0  0  0  0  0  0  0
   44.5140   36.1110   45.1970 N   0  0  0  0  0  0  0  0  0  0  0  0
   44.4910   35.7110   44.1110 C   0  0  0  0  0  0  0  0  0  0  0  0
   48.2321   29.1143   45.1638 H   0  0  0  0  0  0  0  0  0  0  0  0
   44.0416   30.2033   48.3334 H   0  0  0  0  0  0  0  0  0  0  0  0
   47.4892   32.1243   49.7715 H   0  0  0  0  0  0  0  0  0  0  0  0
   45.0727   29.9762   44.8679 H   0  0  0  0  0  0  0  0  0  0  0  0
   43.8213   29.6392   46.0939 H   0  0  0  0  0  0  0  0  0  0  0  0
   47.5398   33.2029   41.4913 H   0  0  0  0  0  0  0  0  0  0  0  0
   48.8492   33.9791   42.4754 H   0  0  0  0  0  0  0  0  0  0  0  0
   46.6777   34.5157   43.9796 H   0  0  0  0  0  0  0  0  0  0  0  0
   47.3950   35.5926   42.6616 H   0  0  0  0  0  0  0  0  0  0  0  0
   46.4370   33.8037   40.4484 H   0  0  0  0  0  0  0  0  0  0  0  0
   44.3501   33.7983   39.1031 H   0  0  0  0  0  0  0  0  0  0  0  0
   42.2635   34.7326   40.1739 H   0  0  0  0  0  0  0  0  0  0  0  0
   42.3517   35.6081   42.4810 H   0  0  0  0  0  0  0  0  0  0  0  0
  1  8  1  0
  2  1  2  0
  3  4  1  0
  3  2  1  0
  4  5  2  0
  5  1  1  0
  6 11  2  0
  7  6  1  0
  8  7  2  0
  8  9  1  0
  9 10  2  0
 10 11  1  0
 12  7  1  0
 13 14  1  0
 13  4  1  0
 15 22  1  0
 16 15  2  0
 16 14  1  0
 17 16  1  0
 18 19  1  0
 18 17  2  0
 19 20  2  0
 20 15  1  0
 22 21  3  0
  2 23  1  0
  6 24  1  0
 10 25  1  0
 12 26  1  0
 12 27  1  0
 13 28  1  0
 13 29  1  0
 14 30  1  0
 14 31  1  0
 17 32  1  0
 18 33  1  0
 19 34  1  0
 20 35  1  0
M  ISO  8  23  14  24  14  25  14  28   8  29   8  30   8  31   8  32  14
M  ISO  3  33  14  34  14  35  14
M  END
>  <minimizedAffinity>  (1) 
-5.12301397

>  <minimizedRMSD>  (1) 
4.98933125

$$$$
