
     RDKit          3D

 34 36  0  0  0  0  0  0  0  0999 V2000
   46.1930   33.3250   44.5400 C   0  0  0  0  0  0  0  0  0  0  0  0
   45.0930   34.1060   44.6810 C   0  0  0  0  0  0  0  0  0  0  0  0
   45.4130   35.4740   43.4810 S   0  0  0  0  0  0  0  0  0  0  0  0
   47.0430   34.6940   42.9990 C   0  0  0  0  0  0  0  0  0  0  0  0
   47.0520   33.7670   43.6660 N   0  0  0  0  0  0  0  0  0  0  0  0
   47.0620   30.8810   47.2640 C   0  0  0  0  0  0  0  0  0  0  0  0
   46.8850   32.1090   46.6080 C   0  0  0  0  0  0  0  0  0  0  0  0
   46.4050   32.0840   45.3060 C   0  0  0  0  0  0  0  0  0  0  0  0
   46.1330   30.8440   44.7430 N   0  0  0  0  0  0  0  0  0  0  0  0
   46.3210   29.6920   45.4180 C   0  0  0  0  0  0  0  0  0  0  0  0
   46.7860   29.7130   46.6800 N   0  0  0  0  0  0  0  0  0  0  0  0
   47.2060   33.2660   47.3270 N   0  0  0  0  0  0  0  0  0  0  0  0
   47.9600   35.2960   41.9630 C   0  0  0  0  0  0  0  0  0  0  0  0
   48.9800   34.3060   41.5100 C   0  0  0  0  0  0  0  0  0  0  0  0
   50.4490   31.7860   41.2140 Cl  0  0  0  0  0  0  0  0  0  0  0  0
   49.2350   32.4500   40.1040 C   0  0  0  0  0  0  0  0  0  0  0  0
   48.5450   33.6600   40.2640 C   0  0  0  0  0  0  0  0  0  0  0  0
   47.6500   33.9620   39.2660 C   0  0  0  0  0  0  0  0  0  0  0  0
   47.4160   33.1620   38.1730 C   0  0  0  0  0  0  0  0  0  0  0  0
   48.1160   31.9700   38.0470 C   0  0  0  0  0  0  0  0  0  0  0  0
   49.0290   31.6070   39.0110 C   0  0  0  0  0  0  0  0  0  0  0  0
   44.2272   33.9612   45.3438 H   0  0  0  0  0  0  0  0  0  0  0  0
   47.4418   30.8811   48.2964 H   0  0  0  0  0  0  0  0  0  0  0  0
   46.0931   28.7306   44.9344 H   0  0  0  0  0  0  0  0  0  0  0  0
   47.0935   34.1918   46.8898 H   0  0  0  0  0  0  0  0  0  0  0  0
   47.5547   33.1917   48.2933 H   0  0  0  0  0  0  0  0  0  0  0  0
   47.3623   35.6179   41.0975 H   0  0  0  0  0  0  0  0  0  0  0  0
   48.4809   36.1540   42.4131 H   0  0  0  0  0  0  0  0  0  0  0  0
   49.9354   34.8228   41.3365 H   0  0  0  0  0  0  0  0  0  0  0  0
   49.1031   33.5377   42.2875 H   0  0  0  0  0  0  0  0  0  0  0  0
   47.0856   34.9027   39.3468 H   0  0  0  0  0  0  0  0  0  0  0  0
   46.6841   33.4623   37.4087 H   0  0  0  0  0  0  0  0  0  0  0  0
   47.9416   31.3172   37.1790 H   0  0  0  0  0  0  0  0  0  0  0  0
   49.5891   30.6645   38.9211 H   0  0  0  0  0  0  0  0  0  0  0  0
  1  2  2  0
  1  8  1  0
  3  2  1  0
  4  3  1  0
  4  5  2  0
  5  1  1  0
  7  6  2  0
  7 12  1  0
  8  7  1  0
  9  8  2  0
  9 10  1  0
 10 11  2  0
 11  6  1  0
 13  4  1  0
 14 13  1  0
 16 17  2  0
 16 15  1  0
 17 14  1  0
 18 17  1  0
 19 18  2  0
 20 19  1  0
 20 21  2  0
 21 16  1  0
  2 22  1  0
  6 23  1  0
 10 24  1  0
 12 25  1  0
 12 26  1  0
 13 27  1  0
 13 28  1  0
 14 29  1  0
 14 30  1  0
 18 31  1  0
 19 32  1  0
 20 33  1  0
 21 34  1  0
M  ISO  8  22  14  23  14  24  14  27   8  28   8  29   8  30   8  31  14
M  ISO  3  32  14  33  14  34  14
M  END
>  <minimizedAffinity>  (1) 
-4.7467804

>  <minimizedRMSD>  (1) 
4.85834551

$$$$
