
     RDKit          3D

 31 33  0  0  0  0  0  0  0  0999 V2000
   46.4400   34.0790   41.9640 C   0  0  0  0  0  0  0  0  0  0  0  0
   46.5890   34.7210   43.1500 C   0  0  0  0  0  0  0  0  0  0  0  0
   45.0610   35.7780   43.2090 S   0  0  0  0  0  0  0  0  0  0  0  0
   44.5030   35.1230   41.5650 C   0  0  0  0  0  0  0  0  0  0  0  0
   45.3470   34.3980   41.3050 N   0  0  0  0  0  0  0  0  0  0  0  0
   49.2070   32.4560   39.9820 C   0  0  0  0  0  0  0  0  0  0  0  0
   48.3050   33.4500   40.4320 C   0  0  0  0  0  0  0  0  0  0  0  0
   47.4080   33.1090   41.4420 C   0  0  0  0  0  0  0  0  0  0  0  0
   47.4790   31.8230   41.9200 N   0  0  0  0  0  0  0  0  0  0  0  0
   48.3510   30.9170   41.4630 C   0  0  0  0  0  0  0  0  0  0  0  0
   49.2140   31.2350   40.4940 N   0  0  0  0  0  0  0  0  0  0  0  0
   48.3820   34.7260   39.8170 N   0  0  0  0  0  0  0  0  0  0  0  0
   43.2160   35.5670   40.9070 C   0  0  0  0  0  0  0  0  0  0  0  0
   42.5580   34.4160   40.1940 C   0  0  0  0  0  0  0  0  0  0  0  0
   41.4920   33.7730   40.9690 C   0  0  0  0  0  0  0  0  0  0  0  0
   41.1840   32.4400   41.1660 C   0  0  0  0  0  0  0  0  0  0  0  0
   40.0790   32.3430   41.9850 C   0  0  0  0  0  0  0  0  0  0  0  0
   39.7230   33.6120   42.2790 N   0  0  0  0  0  0  0  0  0  0  0  0
   40.5580   34.4430   41.6790 N   0  0  0  0  0  0  0  0  0  0  0  0
   47.4026   34.6377   43.8855 H   0  0  0  0  0  0  0  0  0  0  0  0
   49.9223   32.7051   39.1844 H   0  0  0  0  0  0  0  0  0  0  0  0
   48.3574   29.9026   41.8883 H   0  0  0  0  0  0  0  0  0  0  0  0
   47.7451   35.4795   40.1128 H   0  0  0  0  0  0  0  0  0  0  0  0
   49.0748   34.8989   39.0747 H   0  0  0  0  0  0  0  0  0  0  0  0
   42.5317   35.9536   41.6766 H   0  0  0  0  0  0  0  0  0  0  0  0
   43.4472   36.3523   40.1723 H   0  0  0  0  0  0  0  0  0  0  0  0
   42.1261   34.7910   39.2544 H   0  0  0  0  0  0  0  0  0  0  0  0
   43.3354   33.6562   40.0255 H   0  0  0  0  0  0  0  0  0  0  0  0
   41.7342   31.5898   40.7367 H   0  0  0  0  0  0  0  0  0  0  0  0
   39.5879   31.4206   42.3286 H   0  0  0  0  0  0  0  0  0  0  0  0
   38.9292   33.8879   42.8745 H   0  0  0  0  0  0  0  0  0  0  0  0
  1  2  2  0
  2  3  1  0
  4  3  1  0
  5  4  2  0
  5  1  1  0
  6  7  2  0
  6 11  1  0
  7  8  1  0
  8  9  2  0
  8  1  1  0
 10  9  1  0
 11 10  2  0
 12  7  1  0
 13  4  1  0
 14 13  1  0
 14 15  1  0
 15 16  1  0
 15 19  2  0
 16 17  2  0
 17 18  1  0
 19 18  1  0
  2 20  1  0
  6 21  1  0
 10 22  1  0
 12 23  1  0
 12 24  1  0
 13 25  1  0
 13 26  1  0
 14 27  1  0
 14 28  1  0
 16 29  1  0
 17 30  1  0
 18 31  1  0
M  ISO  8  20  14  21  14  22  14  25   8  26   8  27   8  28   8  29  14
M  ISO  2  30  14  31   9
M  END
>  <minimizedAffinity>  (1) 
-4.74073362

>  <minimizedRMSD>  (1) 
6.86426973

$$$$
