
     RDKit          3D

 39 41  0  0  0  0  0  0  0  0999 V2000
   43.2320   32.8980   38.2820 C   0  0  0  0  0  0  0  0  0  0  0  0
   43.0440   31.7280   37.6480 C   0  0  0  0  0  0  0  0  0  0  0  0
   44.7870   31.2800   37.1520 S   0  0  0  0  0  0  0  0  0  0  0  0
   45.4420   32.8270   37.9350 C   0  0  0  0  0  0  0  0  0  0  0  0
   44.4760   33.2950   38.3330 N   0  0  0  0  0  0  0  0  0  0  0  0
   40.8400   35.6890   39.1230 C   0  0  0  0  0  0  0  0  0  0  0  0
   41.9060   35.0070   38.5080 C   0  0  0  0  0  0  0  0  0  0  0  0
   42.1320   33.6870   38.8800 C   0  0  0  0  0  0  0  0  0  0  0  0
   41.2860   33.1320   39.8380 N   0  0  0  0  0  0  0  0  0  0  0  0
   40.2940   33.8440   40.3800 C   0  0  0  0  0  0  0  0  0  0  0  0
   40.0580   35.1020   40.0410 N   0  0  0  0  0  0  0  0  0  0  0  0
   42.6650   35.7160   37.5610 N   0  0  0  0  0  0  0  0  0  0  0  0
   46.9060   33.1800   37.9300 C   0  0  0  0  0  0  0  0  0  0  0  0
   47.6610   32.3530   38.9450 C   0  0  0  0  0  0  0  0  0  0  0  0
   48.0330   33.1410   40.0990 N   0  0  0  0  0  0  0  0  0  0  0  0
   47.2640   32.7960   41.2470 C   0  0  0  0  0  0  0  0  0  0  0  0
   46.4850   33.9350   41.8470 C   0  0  0  0  0  0  0  0  0  0  0  0
   47.2390   35.2140   41.9840 C   0  0  0  0  0  0  0  0  0  0  0  0
   48.5050   35.2040   41.1600 C   0  0  0  0  0  0  0  0  0  0  0  0
   48.1680   34.5410   39.8370 C   0  0  0  0  0  0  0  0  0  0  0  0
   42.1082   31.1784   37.4684 H   0  0  0  0  0  0  0  0  0  0  0  0
   40.6422   36.7341   38.8427 H   0  0  0  0  0  0  0  0  0  0  0  0
   39.6504   33.3683   41.1347 H   0  0  0  0  0  0  0  0  0  0  0  0
   42.4308   36.6948   37.3417 H   0  0  0  0  0  0  0  0  0  0  0  0
   43.4554   35.2568   37.0863 H   0  0  0  0  0  0  0  0  0  0  0  0
   47.3198   32.9882   36.9290 H   0  0  0  0  0  0  0  0  0  0  0  0
   47.0132   34.2431   38.1915 H   0  0  0  0  0  0  0  0  0  0  0  0
   47.0229   31.5189   39.2723 H   0  0  0  0  0  0  0  0  0  0  0  0
   48.5807   31.9797   38.4708 H   0  0  0  0  0  0  0  0  0  0  0  0
   46.5523   32.0084   40.9587 H   0  0  0  0  0  0  0  0  0  0  0  0
   47.9810   32.4710   42.0153 H   0  0  0  0  0  0  0  0  0  0  0  0
   45.6091   34.1225   41.2085 H   0  0  0  0  0  0  0  0  0  0  0  0
   46.2234   33.6226   42.8688 H   0  0  0  0  0  0  0  0  0  0  0  0
   46.5998   36.0431   41.6464 H   0  0  0  0  0  0  0  0  0  0  0  0
   47.5173   35.3379   43.0410 H   0  0  0  0  0  0  0  0  0  0  0  0
   48.8525   36.2335   40.9889 H   0  0  0  0  0  0  0  0  0  0  0  0
   49.3071   34.6589   41.6792 H   0  0  0  0  0  0  0  0  0  0  0  0
   48.9753   34.7141   39.1101 H   0  0  0  0  0  0  0  0  0  0  0  0
   47.2410   34.9545   39.4130 H   0  0  0  0  0  0  0  0  0  0  0  0
  1  5  1  0
  1  8  1  0
  2  1  2  0
  3  2  1  0
  3  4  1  0
  4  5  2  0
  6 11  2  0
  7  8  2  0
  7  6  1  0
  8  9  1  0
  9 10  2  0
 11 10  1  0
 12  7  1  0
 13  4  1  0
 13 14  1  0
 14 15  1  0
 15 16  1  0
 16 17  1  0
 17 18  1  0
 19 18  1  0
 20 15  1  0
 20 19  1  0
  2 21  1  0
  6 22  1  0
 10 23  1  0
 12 24  1  0
 12 25  1  0
 13 26  1  0
 13 27  1  0
 14 28  1  0
 14 29  1  0
 16 30  1  0
 16 31  1  0
 17 32  1  0
 17 33  1  0
 18 34  1  0
 18 35  1  0
 19 36  1  0
 19 37  1  0
 20 38  1  0
 20 39  1  0
M  ISO  8  21  14  22  14  23  14  26   8  27   8  28   8  29   8  30  13
M  ISO  8  31  13  32  13  33  13  34  13  35  13  36  13  37  13  38  13
M  ISO  1  39  13
M  END
>  <minimizedAffinity>  (1) 
-4.6517415

>  <minimizedRMSD>  (1) 
5.75331259

$$$$
