
     RDKit          3D

 28 29  0  0  0  0  0  0  0  0999 V2000
   43.6150   33.8880   40.8580 C   0  0  0  0  0  0  0  0  0  0  0  0
   44.6570   33.8040   40.0200 C   0  0  0  0  0  0  0  0  0  0  0  0
   46.0210   33.2000   41.1230 S   0  0  0  0  0  0  0  0  0  0  0  0
   44.8500   33.1770   42.5860 C   0  0  0  0  0  0  0  0  0  0  0  0
   43.8970   33.5380   42.0840 N   0  0  0  0  0  0  0  0  0  0  0  0
   40.2330   35.5370   40.7990 C   0  0  0  0  0  0  0  0  0  0  0  0
   41.5040   35.1540   41.2490 C   0  0  0  0  0  0  0  0  0  0  0  0
   42.2670   34.3320   40.4480 C   0  0  0  0  0  0  0  0  0  0  0  0
   41.7170   33.9360   39.2380 N   0  0  0  0  0  0  0  0  0  0  0  0
   40.4980   34.3230   38.8420 C   0  0  0  0  0  0  0  0  0  0  0  0
   39.7490   35.1230   39.6170 N   0  0  0  0  0  0  0  0  0  0  0  0
   41.8920   35.6560   42.4970 N   0  0  0  0  0  0  0  0  0  0  0  0
   45.2960   32.7520   43.9570 C   0  0  0  0  0  0  0  0  0  0  0  0
   45.8990   33.9280   44.6950 C   0  0  0  0  0  0  0  0  0  0  0  0
   44.5080   36.0110   44.7270 C   0  0  0  0  0  0  0  0  0  0  0  0
   45.1660   36.4790   43.7630 O   0  0  0  0  0  0  0  0  0  0  0  0
   44.8420   34.7300   45.2290 N   0  0  0  0  0  0  0  0  0  0  0  0
   44.6945   34.0356   38.9453 H   0  0  0  0  0  0  0  0  0  0  0  0
   39.6163   36.1935   41.4304 H   0  0  0  0  0  0  0  0  0  0  0  0
   40.1065   33.9821   37.8722 H   0  0  0  0  0  0  0  0  0  0  0  0
   42.8143   35.4128   42.8858 H   0  0  0  0  0  0  0  0  0  0  0  0
   41.2552   36.2685   43.0263 H   0  0  0  0  0  0  0  0  0  0  0  0
   44.4302   32.3739   44.5204 H   0  0  0  0  0  0  0  0  0  0  0  0
   46.0537   31.9605   43.8601 H   0  0  0  0  0  0  0  0  0  0  0  0
   46.5357   33.5629   45.5143 H   0  0  0  0  0  0  0  0  0  0  0  0
   46.5103   34.5279   44.0048 H   0  0  0  0  0  0  0  0  0  0  0  0
   43.6851   36.5883   45.1736 H   0  0  0  0  0  0  0  0  0  0  0  0
   44.2962   34.3568   46.0187 H   0  0  0  0  0  0  0  0  0  0  0  0
  1  5  1  0
  2  1  2  0
  2  3  1  0
  3  4  1  0
  4 13  1  0
  5  4  2  0
  6  7  2  0
  7 12  1  0
  8  1  1  0
  8  7  1  0
  9  8  2  0
 10  9  1  0
 10 11  2  0
 11  6  1  0
 13 14  1  0
 14 17  1  0
 15 17  1  0
 16 15  2  0
  2 18  1  0
  6 19  1  0
 10 20  1  0
 12 21  1  0
 12 22  1  0
 13 23  1  0
 13 24  1  0
 14 25  1  0
 14 26  1  0
 15 27  1  0
 17 28  1  0
M  ISO  8  18  14  19  14  20  14  23   8  24   8  25   8  26   8  27   6
M  END
>  <minimizedAffinity>  (1) 
-4.56014585

>  <minimizedRMSD>  (1) 
5.39526081

$$$$
