
     RDKit          3D

 25 26  0  0  0  0  0  0  0  0999 V2000
   45.7300   33.8430   42.8070 C   0  0  0  0  0  0  0  0  0  0  0  0
   44.9880   33.0710   41.9710 C   0  0  0  0  0  0  0  0  0  0  0  0
   45.8940   33.3020   40.3550 S   0  0  0  0  0  0  0  0  0  0  0  0
   47.1280   34.4360   41.1840 C   0  0  0  0  0  0  0  0  0  0  0  0
   46.7460   34.4470   42.2600 N   0  0  0  0  0  0  0  0  0  0  0  0
   44.4800   35.1720   46.1040 C   0  0  0  0  0  0  0  0  0  0  0  0
   44.7500   35.0950   44.7330 C   0  0  0  0  0  0  0  0  0  0  0  0
   45.4120   33.9940   44.2470 C   0  0  0  0  0  0  0  0  0  0  0  0
   45.7780   33.0120   45.1660 N   0  0  0  0  0  0  0  0  0  0  0  0
   45.5020   33.1200   46.4730 C   0  0  0  0  0  0  0  0  0  0  0  0
   44.8550   34.1930   46.9460 N   0  0  0  0  0  0  0  0  0  0  0  0
   44.3080   36.1680   43.9490 N   0  0  0  0  0  0  0  0  0  0  0  0
   48.2760   35.0530   40.4350 C   0  0  0  0  0  0  0  0  0  0  0  0
   49.1660   35.8300   41.3710 C   0  0  0  0  0  0  0  0  0  0  0  0
   50.0450   34.7400   42.5210 S   0  0  0  0  0  0  0  0  0  0  0  0
   44.0925   32.4702   42.1882 H   0  0  0  0  0  0  0  0  0  0  0  0
   43.9505   36.0508   46.5007 H   0  0  0  0  0  0  0  0  0  0  0  0
   45.8095   32.3205   47.1632 H   0  0  0  0  0  0  0  0  0  0  0  0
   44.4777   36.1678   42.9331 H   0  0  0  0  0  0  0  0  0  0  0  0
   43.8132   36.9574   44.3883 H   0  0  0  0  0  0  0  0  0  0  0  0
   48.8640   34.2566   39.9553 H   0  0  0  0  0  0  0  0  0  0  0  0
   47.8746   35.7406   39.6760 H   0  0  0  0  0  0  0  0  0  0  0  0
   49.9032   36.3912   40.7780 H   0  0  0  0  0  0  0  0  0  0  0  0
   48.5330   36.5102   41.9598 H   0  0  0  0  0  0  0  0  0  0  0  0
   49.7519   35.1034   43.8090 H   0  0  0  0  0  0  0  0  0  0  0  0
  1  8  1  0
  2  1  2  0
  3  4  1  0
  3  2  1  0
  4  5  2  0
  5  1  1  0
  6 11  2  0
  7  6  1  0
  8  7  2  0
  8  9  1  0
  9 10  2  0
 10 11  1  0
 12  7  1  0
 13  4  1  0
 13 14  1  0
 14 15  1  0
  2 16  1  0
  6 17  1  0
 10 18  1  0
 12 19  1  0
 12 20  1  0
 13 21  1  0
 13 22  1  0
 14 23  1  0
 14 24  1  0
 15 25  1  0
M  ISO  8  16  14  17  14  18  14  21   8  22   8  23   8  24   8  25  11
M  END
>  <minimizedAffinity>  (1) 
-4.00744343

>  <minimizedRMSD>  (1) 
0.363580793

$$$$
