
     RDKit          3D

 37 39  0  0  0  0  0  0  0  0999 V2000
   44.6300   35.7420   42.6790 C   0  0  0  0  0  0  0  0  0  0  0  0
   47.4230   33.4900   43.5780 C   0  0  0  0  0  0  0  0  0  0  0  0
   47.0450   33.1660   44.8320 C   0  0  0  0  0  0  0  0  0  0  0  0
   45.4640   34.1250   45.0130 S   0  0  0  0  0  0  0  0  0  0  0  0
   45.6320   34.8000   43.2930 C   0  0  0  0  0  0  0  0  0  0  0  0
   46.6050   34.2980   42.9890 N   0  0  0  0  0  0  0  0  0  0  0  0
   50.8840   33.2060   42.1200 C   0  0  0  0  0  0  0  0  0  0  0  0
   49.7540   33.7760   42.7370 C   0  0  0  0  0  0  0  0  0  0  0  0
   48.6540   32.9730   42.9360 C   0  0  0  0  0  0  0  0  0  0  0  0
   48.7360   31.6580   42.5140 N   0  0  0  0  0  0  0  0  0  0  0  0
   49.8350   31.1600   41.9320 C   0  0  0  0  0  0  0  0  0  0  0  0
   50.8990   31.9170   41.7340 N   0  0  0  0  0  0  0  0  0  0  0  0
   49.8380   35.1290   43.1040 N   0  0  0  0  0  0  0  0  0  0  0  0
   44.2240   35.2750   41.3210 C   0  0  0  0  0  0  0  0  0  0  0  0
   43.2670   34.1880   41.2540 C   0  0  0  0  0  0  0  0  0  0  0  0
   43.3080   32.9160   41.7670 C   0  0  0  0  0  0  0  0  0  0  0  0
   42.3390   31.9480   41.6460 C   0  0  0  0  0  0  0  0  0  0  0  0
   41.2230   32.3160   40.9330 C   0  0  0  0  0  0  0  0  0  0  0  0
   41.1790   33.5920   40.4170 C   0  0  0  0  0  0  0  0  0  0  0  0
   42.1430   34.5130   40.5530 N   0  0  0  0  0  0  0  0  0  0  0  0
   39.4720   35.1710   40.0750 C   0  0  0  0  0  0  0  0  0  0  0  0
   40.2380   35.6800   40.9350 O   0  0  0  0  0  0  0  0  0  0  0  0
   39.9680   33.8750   39.6870 N   0  0  0  0  0  0  0  0  0  0  0  0
   43.7402   35.7919   43.3238 H   0  0  0  0  0  0  0  0  0  0  0  0
   45.0925   36.7357   42.5857 H   0  0  0  0  0  0  0  0  0  0  0  0
   47.5429   32.5062   45.5578 H   0  0  0  0  0  0  0  0  0  0  0  0
   51.7748   33.8285   41.9496 H   0  0  0  0  0  0  0  0  0  0  0  0
   49.8515   30.1068   41.6149 H   0  0  0  0  0  0  0  0  0  0  0  0
   49.0368   35.5901   43.5583 H   0  0  0  0  0  0  0  0  0  0  0  0
   50.7008   35.6602   42.9188 H   0  0  0  0  0  0  0  0  0  0  0  0
   43.7863   36.1346   40.7924 H   0  0  0  0  0  0  0  0  0  0  0  0
   45.1439   34.8716   40.8725 H   0  0  0  0  0  0  0  0  0  0  0  0
   44.2099   32.6422   42.3341 H   0  0  0  0  0  0  0  0  0  0  0  0
   42.4494   30.9474   42.0895 H   0  0  0  0  0  0  0  0  0  0  0  0
   40.3909   31.6131   40.7793 H   0  0  0  0  0  0  0  0  0  0  0  0
   38.5613   35.6444   39.6795 H   0  0  0  0  0  0  0  0  0  0  0  0
   39.5273   33.2496   38.9973 H   0  0  0  0  0  0  0  0  0  0  0  0
  1  5  1  0
  2  3  2  0
  3  4  1  0
  5  4  1  0
  6  5  2  0
  6  2  1  0
  7  8  2  0
  8  9  1  0
  8 13  1  0
  9  2  1  0
 10  9  2  0
 11 10  1  0
 12 11  2  0
 12  7  1  0
 14  1  1  0
 15 14  1  0
 15 16  2  0
 17 16  1  0
 18 17  2  0
 19 20  2  0
 19 18  1  0
 20 15  1  0
 21 22  2  0
 23 21  1  0
 23 19  1  0
  1 24  1  0
  1 25  1  0
  3 26  1  0
  7 27  1  0
 11 28  1  0
 13 29  1  0
 13 30  1  0
 14 31  1  0
 14 32  1  0
 16 33  1  0
 17 34  1  0
 18 35  1  0
 21 36  1  0
 23 37  1  0
M  ISO  8  24   8  25   8  26  14  27  14  28  14  31   8  32   8  33  14
M  ISO  3  34  14  35  14  36   6
M  END
>  <minimizedAffinity>  (1) 
-5.73327494

>  <minimizedRMSD>  (1) 
2.13649392

$$$$
