
     RDKit          3D

 40 43  0  0  0  0  0  0  0  0999 V2000
   43.2260   35.0740   41.2520 C   0  0  0  0  0  0  0  0  0  0  0  0
   46.8260   34.2450   41.5020 C   0  0  0  0  0  0  0  0  0  0  0  0
   47.1270   34.9150   42.6380 C   0  0  0  0  0  0  0  0  0  0  0  0
   45.4920   35.6650   43.0890 S   0  0  0  0  0  0  0  0  0  0  0  0
   44.6850   34.9010   41.5990 C   0  0  0  0  0  0  0  0  0  0  0  0
   45.5840   34.3650   41.1660 N   0  0  0  0  0  0  0  0  0  0  0  0
   48.7000   32.5700   38.6880 C   0  0  0  0  0  0  0  0  0  0  0  0
   47.7170   33.3390   39.3550 C   0  0  0  0  0  0  0  0  0  0  0  0
   47.8150   33.4580   40.7250 C   0  0  0  0  0  0  0  0  0  0  0  0
   48.8600   32.8230   41.3480 N   0  0  0  0  0  0  0  0  0  0  0  0
   49.7690   32.1040   40.6660 C   0  0  0  0  0  0  0  0  0  0  0  0
   49.6950   31.9750   39.3580 N   0  0  0  0  0  0  0  0  0  0  0  0
   46.7080   33.9260   38.5610 N   0  0  0  0  0  0  0  0  0  0  0  0
   43.0320   35.1270   39.7820 C   0  0  0  0  0  0  0  0  0  0  0  0
   42.4240   33.9790   39.1420 C   0  0  0  0  0  0  0  0  0  0  0  0
   42.9700   32.9600   38.4260 C   0  0  0  0  0  0  0  0  0  0  0  0
   42.3080   31.9000   37.8490 C   0  0  0  0  0  0  0  0  0  0  0  0
   40.9540   31.8870   38.0250 C   0  0  0  0  0  0  0  0  0  0  0  0
   40.3830   32.9280   38.7560 C   0  0  0  0  0  0  0  0  0  0  0  0
   41.0670   33.9370   39.2990 N   0  0  0  0  0  0  0  0  0  0  0  0
   38.8860   32.8310   38.8980 C   0  0  0  0  0  0  0  0  0  0  0  0
   38.4480   32.3580   40.2700 C   0  0  0  0  0  0  0  0  0  0  0  0
   38.1430   33.7280   39.7870 C   0  0  0  0  0  0  0  0  0  0  0  0
   42.6562   34.2260   41.6597 H   0  0  0  0  0  0  0  0  0  0  0  0
   42.8721   36.0205   41.6867 H   0  0  0  0  0  0  0  0  0  0  0  0
   48.0923   34.9944   43.1595 H   0  0  0  0  0  0  0  0  0  0  0  0
   48.6455   32.4586   37.5950 H   0  0  0  0  0  0  0  0  0  0  0  0
   50.5895   31.6146   41.2112 H   0  0  0  0  0  0  0  0  0  0  0  0
   45.9710   34.4945   39.0021 H   0  0  0  0  0  0  0  0  0  0  0  0
   46.7088   33.7858   37.5406 H   0  0  0  0  0  0  0  0  0  0  0  0
   42.3969   35.9986   39.5655 H   0  0  0  0  0  0  0  0  0  0  0  0
   44.0503   35.1694   39.3683 H   0  0  0  0  0  0  0  0  0  0  0  0
   44.0617   32.9856   38.2932 H   0  0  0  0  0  0  0  0  0  0  0  0
   42.8342   31.1163   37.2843 H   0  0  0  0  0  0  0  0  0  0  0  0
   40.3341   31.0818   37.6039 H   0  0  0  0  0  0  0  0  0  0  0  0
   38.7389   32.5595   37.8422 H   0  0  0  0  0  0  0  0  0  0  0  0
   37.6443   31.6135   40.3691 H   0  0  0  0  0  0  0  0  0  0  0  0
   38.9476   31.9271   41.1502 H   0  0  0  0  0  0  0  0  0  0  0  0
   38.6526   34.5913   40.2397 H   0  0  0  0  0  0  0  0  0  0  0  0
   37.2197   34.3172   39.6847 H   0  0  0  0  0  0  0  0  0  0  0  0
  1  5  1  0
  2  3  2  0
  3  4  1  0
  5  4  1  0
  6  2  1  0
  6  5  2  0
  7  8  2  0
  7 12  1  0
  8  9  1  0
  9 10  2  0
  9  2  1  0
 11 10  1  0
 12 11  2  0
 13  8  1  0
 14  1  1  0
 15 20  1  0
 15 14  1  0
 16 15  2  0
 17 18  2  0
 17 16  1  0
 18 19  1  0
 19 21  1  0
 19 20  2  0
 21 23  1  0
 21 22  1  0
 23 22  1  0
  1 24  1  0
  1 25  1  0
  3 26  1  0
  7 27  1  0
 11 28  1  0
 13 29  1  0
 13 30  1  0
 14 31  1  0
 14 32  1  0
 16 33  1  0
 17 34  1  0
 18 35  1  0
 21 36  1  0
 22 37  1  0
 22 38  1  0
 23 39  1  0
 23 40  1  0
M  ISO  8  24   8  25   8  26  14  27  14  28  14  31   8  32   8  33  14
M  ISO  7  34  14  35  14  36  13  37  13  38  13  39  13  40  13
M  END
>  <minimizedAffinity>  (1) 
-5.06763363

>  <minimizedRMSD>  (1) 
2.25105667

$$$$
