
     RDKit          3D

 14 14  0  0  0  0  0  0  0  0999 V2000
   44.5420   35.9970   44.5060 C   0  0  0  0  0  0  0  0  0  0  0  0
   45.3510   35.9030   43.3550 C   0  0  0  0  0  0  0  0  0  0  0  0
   46.2650   34.8450   43.2720 C   0  0  0  0  0  0  0  0  0  0  0  0
   46.3280   33.9620   44.3050 N   0  0  0  0  0  0  0  0  0  0  0  0
   45.5390   34.0860   45.3890 C   0  0  0  0  0  0  0  0  0  0  0  0
   44.6570   35.0820   45.5000 N   0  0  0  0  0  0  0  0  0  0  0  0
   47.3000   34.7000   41.8320 S   0  0  0  0  0  0  0  0  0  0  0  0
   46.4070   33.8750   40.4890 C   0  0  0  0  0  0  0  0  0  0  0  0
   47.0770   34.1000   39.2960 F   0  0  0  0  0  0  0  0  0  0  0  0
   45.1190   34.3250   40.3750 F   0  0  0  0  0  0  0  0  0  0  0  0
   46.4330   32.5090   40.7400 F   0  0  0  0  0  0  0  0  0  0  0  0
   43.8141   36.8166   44.5980 H   0  0  0  0  0  0  0  0  0  0  0  0
   45.2665   36.6411   42.5437 H   0  0  0  0  0  0  0  0  0  0  0  0
   45.6231   33.3497   46.2019 H   0  0  0  0  0  0  0  0  0  0  0  0
  1  6  2  0
  2  1  1  0
  3  2  2  0
  3  4  1  0
  4  5  2  0
  5  6  1  0
  7  3  1  0
  8 11  1  0
  8  7  1  0
  9  8  1  0
 10  8  1  0
  1 12  1  0
  2 13  1  0
  5 14  1  0
M  ISO  3  12  14  13  14  14  14
M  END
>  <minimizedAffinity>  (1) 
-3.46307302

>  <minimizedRMSD>  (1) 
0.30313468

$$$$
