
     RDKit          3D

 46 49  0  0  0  0  0  0  0  0999 V2000
   44.3290   35.4520   41.4790 C   0  0  0  0  0  0  0  0  0  0  0  0
   43.2500   34.9050   40.6820 C   0  0  0  0  0  0  0  0  0  0  0  0
   42.9030   35.1510   39.3920 C   0  0  0  0  0  0  0  0  0  0  0  0
   41.8500   34.5760   38.7080 C   0  0  0  0  0  0  0  0  0  0  0  0
   41.0870   33.6630   39.4250 C   0  0  0  0  0  0  0  0  0  0  0  0
   41.4540   33.4300   40.7250 C   0  0  0  0  0  0  0  0  0  0  0  0
   42.4730   34.0020   41.3480 N   0  0  0  0  0  0  0  0  0  0  0  0
   40.0410   33.1260   38.5710 C   0  0  0  0  0  0  0  0  0  0  0  0
   39.9180   31.8860   37.9800 C   0  0  0  0  0  0  0  0  0  0  0  0
   38.8550   31.5010   37.1970 C   0  0  0  0  0  0  0  0  0  0  0  0
   37.8390   32.4080   36.9830 C   0  0  0  0  0  0  0  0  0  0  0  0
   37.8530   33.6750   37.5220 C   0  0  0  0  0  0  0  0  0  0  0  0
   38.9560   33.9700   38.2900 C   0  0  0  0  0  0  0  0  0  0  0  0
   40.5590   32.4500   41.4160 C   0  0  0  0  0  0  0  0  0  0  0  0
   39.2480   32.9350   41.4600 F   0  0  0  0  0  0  0  0  0  0  0  0
   41.0130   32.1010   42.6670 F   0  0  0  0  0  0  0  0  0  0  0  0
   40.5060   31.2660   40.6890 F   0  0  0  0  0  0  0  0  0  0  0  0
   44.2300   35.2910   42.9560 C   0  0  0  0  0  0  0  0  0  0  0  0
   47.3050   33.3880   43.6640 C   0  0  0  0  0  0  0  0  0  0  0  0
   47.1140   33.1380   44.9680 C   0  0  0  0  0  0  0  0  0  0  0  0
   45.4830   33.9600   45.2760 S   0  0  0  0  0  0  0  0  0  0  0  0
   45.3730   34.5050   43.5060 C   0  0  0  0  0  0  0  0  0  0  0  0
   46.3440   34.0660   43.1360 N   0  0  0  0  0  0  0  0  0  0  0  0
   50.6750   33.2200   41.9810 C   0  0  0  0  0  0  0  0  0  0  0  0
   49.5850   33.7370   42.7110 C   0  0  0  0  0  0  0  0  0  0  0  0
   48.4980   32.9300   42.9080 C   0  0  0  0  0  0  0  0  0  0  0  0
   48.5420   31.6460   42.3700 N   0  0  0  0  0  0  0  0  0  0  0  0
   49.6120   31.2190   41.6850 C   0  0  0  0  0  0  0  0  0  0  0  0
   50.6730   31.9900   41.4860 N   0  0  0  0  0  0  0  0  0  0  0  0
   49.6980   35.0590   43.1890 N   0  0  0  0  0  0  0  0  0  0  0  0
   44.3848   36.5298   41.2661 H   0  0  0  0  0  0  0  0  0  0  0  0
   45.2187   34.8740   41.1886 H   0  0  0  0  0  0  0  0  0  0  0  0
   43.5187   35.8765   38.8402 H   0  0  0  0  0  0  0  0  0  0  0  0
   41.6290   34.8256   37.6597 H   0  0  0  0  0  0  0  0  0  0  0  0
   40.7240   31.1561   38.1460 H   0  0  0  0  0  0  0  0  0  0  0  0
   38.8164   30.4954   36.7529 H   0  0  0  0  0  0  0  0  0  0  0  0
   36.9849   32.1082   36.3580 H   0  0  0  0  0  0  0  0  0  0  0  0
   37.0420   34.3982   37.3512 H   0  0  0  0  0  0  0  0  0  0  0  0
   38.9909   34.9769   38.7316 H   0  0  0  0  0  0  0  0  0  0  0  0
   44.2253   36.2869   43.4231 H   0  0  0  0  0  0  0  0  0  0  0  0
   43.3013   34.7452   43.1788 H   0  0  0  0  0  0  0  0  0  0  0  0
   47.7577   32.5885   45.6707 H   0  0  0  0  0  0  0  0  0  0  0  0
   51.5559   33.8581   41.8168 H   0  0  0  0  0  0  0  0  0  0  0  0
   49.6103   30.1981   41.2753 H   0  0  0  0  0  0  0  0  0  0  0  0
   48.9272   35.4796   43.7274 H   0  0  0  0  0  0  0  0  0  0  0  0
   50.5513   35.6039   42.9997 H   0  0  0  0  0  0  0  0  0  0  0  0
  1 18  1  0
  2  7  1  0
  2  1  1  0
  3  2  2  0
  4  3  1  0
  4  5  2  0
  5  6  1  0
  6  7  2  0
  6 14  1  0
  8  5  1  0
  9  8  2  0
 10  9  1  0
 11 10  2  0
 11 12  1  0
 12 13  2  0
 13  8  1  0
 14 15  1  0
 14 16  1  0
 17 14  1  0
 18 22  1  0
 19 20  2  0
 20 21  1  0
 22 21  1  0
 23 22  2  0
 23 19  1  0
 24 25  2  0
 25 26  1  0
 25 30  1  0
 26 19  1  0
 27 26  2  0
 28 27  1  0
 29 28  2  0
 29 24  1  0
  1 31  1  0
  1 32  1  0
  3 33  1  0
  4 34  1  0
  9 35  1  0
 10 36  1  0
 11 37  1  0
 12 38  1  0
 13 39  1  0
 18 40  1  0
 18 41  1  0
 20 42  1  0
 24 43  1  0
 28 44  1  0
 30 45  1  0
 30 46  1  0
M  ISO  8  31   8  32   8  33  14  34  14  35  14  36  14  37  14  38  14
M  ISO  6  39  14  40   8  41   8  42  14  43  14  44  14
M  END
>  <minimizedAffinity>  (1) 
-6.41905022

>  <minimizedRMSD>  (1) 
2.20278502

$$$$
