
     RDKit          3D

 43 46  0  0  0  0  0  0  0  0999 V2000
   44.1750   35.3980   41.2930 C   0  0  0  0  0  0  0  0  0  0  0  0
   43.0700   34.9090   40.4950 C   0  0  0  0  0  0  0  0  0  0  0  0
   42.9210   34.8690   39.1470 C   0  0  0  0  0  0  0  0  0  0  0  0
   41.8300   34.3720   38.4650 C   0  0  0  0  0  0  0  0  0  0  0  0
   40.7970   33.8660   39.2420 C   0  0  0  0  0  0  0  0  0  0  0  0
   40.9730   33.9200   40.5930 C   0  0  0  0  0  0  0  0  0  0  0  0
   42.0410   34.4090   41.2270 N   0  0  0  0  0  0  0  0  0  0  0  0
   39.7260   33.3140   38.4150 C   0  0  0  0  0  0  0  0  0  0  0  0
   38.7850   34.0680   37.7190 C   0  0  0  0  0  0  0  0  0  0  0  0
   37.9080   33.2920   37.0380 C   0  0  0  0  0  0  0  0  0  0  0  0
   38.3170   32.0220   37.3200 C   0  0  0  0  0  0  0  0  0  0  0  0
   39.3240   32.1290   38.0860 O   0  0  0  0  0  0  0  0  0  0  0  0
   39.7990   33.3760   41.3630 C   0  0  0  0  0  0  0  0  0  0  0  0
   38.6040   33.8460   40.8330 F   0  0  0  0  0  0  0  0  0  0  0  0
   39.8760   33.6270   42.7160 F   0  0  0  0  0  0  0  0  0  0  0  0
   39.7740   31.9930   41.2380 F   0  0  0  0  0  0  0  0  0  0  0  0
   44.0100   35.3540   42.7730 C   0  0  0  0  0  0  0  0  0  0  0  0
   47.0500   33.5120   43.7620 C   0  0  0  0  0  0  0  0  0  0  0  0
   46.8240   33.4110   45.0800 C   0  0  0  0  0  0  0  0  0  0  0  0
   45.2070   34.2740   45.2550 S   0  0  0  0  0  0  0  0  0  0  0  0
   45.1380   34.6240   43.4360 C   0  0  0  0  0  0  0  0  0  0  0  0
   46.1120   34.1370   43.1350 N   0  0  0  0  0  0  0  0  0  0  0  0
   50.3140   33.1950   41.9070 C   0  0  0  0  0  0  0  0  0  0  0  0
   49.2060   33.7930   42.5280 C   0  0  0  0  0  0  0  0  0  0  0  0
   48.2560   32.9650   43.0880 C   0  0  0  0  0  0  0  0  0  0  0  0
   48.4630   31.6040   42.9980 N   0  0  0  0  0  0  0  0  0  0  0  0
   49.5460   31.0930   42.3880 C   0  0  0  0  0  0  0  0  0  0  0  0
   50.4710   31.8800   41.8430 N   0  0  0  0  0  0  0  0  0  0  0  0
   49.1480   35.2060   42.5310 N   0  0  0  0  0  0  0  0  0  0  0  0
   44.3512   36.4461   41.0095 H   0  0  0  0  0  0  0  0  0  0  0  0
   45.0088   34.7137   41.0773 H   0  0  0  0  0  0  0  0  0  0  0  0
   43.7472   35.2703   38.5417 H   0  0  0  0  0  0  0  0  0  0  0  0
   41.7812   34.3764   37.3661 H   0  0  0  0  0  0  0  0  0  0  0  0
   38.7569   35.1676   37.7218 H   0  0  0  0  0  0  0  0  0  0  0  0
   37.0654   33.6108   36.4069 H   0  0  0  0  0  0  0  0  0  0  0  0
   37.8636   31.0884   36.9555 H   0  0  0  0  0  0  0  0  0  0  0  0
   43.9766   36.3837   43.1585 H   0  0  0  0  0  0  0  0  0  0  0  0
   43.0762   34.8178   42.9976 H   0  0  0  0  0  0  0  0  0  0  0  0
   47.4435   32.9361   45.8550 H   0  0  0  0  0  0  0  0  0  0  0  0
   51.0810   33.8420   41.4564 H   0  0  0  0  0  0  0  0  0  0  0  0
   49.6707   30.0012   42.3380 H   0  0  0  0  0  0  0  0  0  0  0  0
   48.3534   35.6879   42.9752 H   0  0  0  0  0  0  0  0  0  0  0  0
   49.9003   35.7533   42.0890 H   0  0  0  0  0  0  0  0  0  0  0  0
  1 17  1  0
  2  7  1  0
  2  1  1  0
  3  2  2  0
  4  3  1  0
  4  5  2  0
  5  6  1  0
  6  7  2  0
  6 13  1  0
  8  5  1  0
  9  8  2  0
 10 11  2  0
 10  9  1  0
 11 12  1  0
 12  8  1  0
 13 15  1  0
 14 13  1  0
 16 13  1  0
 17 21  1  0
 18 19  2  0
 19 20  1  0
 21 20  1  0
 22 21  2  0
 22 18  1  0
 23 24  2  0
 24 29  1  0
 24 25  1  0
 25 18  1  0
 26 25  2  0
 27 26  1  0
 28 23  1  0
 28 27  2  0
  1 30  1  0
  1 31  1  0
  3 32  1  0
  4 33  1  0
  9 34  1  0
 10 35  1  0
 11 36  1  0
 17 37  1  0
 17 38  1  0
 19 39  1  0
 23 40  1  0
 27 41  1  0
 29 42  1  0
 29 43  1  0
M  ISO  8  30   8  31   8  32  14  33  14  34  14  35  14  36  14  37   8
M  ISO  4  38   8  39  14  40  14  41  14
M  END
>  <minimizedAffinity>  (1) 
-6.18609142

>  <minimizedRMSD>  (1) 
1.98278606

$$$$
