
     RDKit          3D

 14 14  0  0  0  0  0  0  0  0999 V2000
   44.6160   36.0300   44.3520 C   0  0  0  0  0  0  0  0  0  0  0  0
   45.3640   35.8940   43.1630 C   0  0  0  0  0  0  0  0  0  0  0  0
   46.2440   34.8050   43.0700 C   0  0  0  0  0  0  0  0  0  0  0  0
   46.3250   33.9490   44.1190 N   0  0  0  0  0  0  0  0  0  0  0  0
   45.6010   34.1050   45.2360 C   0  0  0  0  0  0  0  0  0  0  0  0
   44.7430   35.1430   45.3600 N   0  0  0  0  0  0  0  0  0  0  0  0
   47.2090   34.5930   41.5900 S   0  0  0  0  0  0  0  0  0  0  0  0
   48.7340   35.5880   41.6200 C   0  0  0  0  0  0  0  0  0  0  0  0
   43.9179   36.8734   44.4584 H   0  0  0  0  0  0  0  0  0  0  0  0
   45.2609   36.6155   42.3391 H   0  0  0  0  0  0  0  0  0  0  0  0
   45.7055   33.3826   46.0589 H   0  0  0  0  0  0  0  0  0  0  0  0
   49.0267   35.7790   42.6630 H   0  0  0  0  0  0  0  0  0  0  0  0
   49.5390   35.0408   41.1076 H   0  0  0  0  0  0  0  0  0  0  0  0
   48.5574   36.5452   41.1076 H   0  0  0  0  0  0  0  0  0  0  0  0
  1  6  2  0
  2  1  1  0
  3  2  2  0
  3  4  1  0
  4  5  2  0
  5  6  1  0
  7  8  1  0
  7  3  1  0
  1  9  1  0
  2 10  1  0
  5 11  1  0
  8 12  1  0
  8 13  1  0
  8 14  1  0
M  ISO  6   9  14  10  14  11  14  12   8  13   8  14   8
M  END
>  <minimizedAffinity>  (1) 
-3.18432164

>  <minimizedRMSD>  (1) 
0.187131971

$$$$
