
     RDKit          3D

 37 39  0  0  0  0  0  0  0  0999 V2000
   43.1670   35.5410   41.2110 C   0  0  0  0  0  0  0  0  0  0  0  0
   46.4400   34.0290   42.0120 C   0  0  0  0  0  0  0  0  0  0  0  0
   46.6630   34.5930   43.2120 C   0  0  0  0  0  0  0  0  0  0  0  0
   45.1460   35.6310   43.4190 S   0  0  0  0  0  0  0  0  0  0  0  0
   44.4730   35.0800   41.7750 C   0  0  0  0  0  0  0  0  0  0  0  0
   45.3170   34.3930   41.4730 N   0  0  0  0  0  0  0  0  0  0  0  0
   49.1210   32.5200   39.8250 C   0  0  0  0  0  0  0  0  0  0  0  0
   48.2570   33.4880   40.3940 C   0  0  0  0  0  0  0  0  0  0  0  0
   47.3810   33.0800   41.3620 C   0  0  0  0  0  0  0  0  0  0  0  0
   47.4020   31.7460   41.7150 N   0  0  0  0  0  0  0  0  0  0  0  0
   48.2430   30.8700   41.1410 C   0  0  0  0  0  0  0  0  0  0  0  0
   49.1060   31.2530   40.1950 N   0  0  0  0  0  0  0  0  0  0  0  0
   48.3770   34.8190   39.9050 N   0  0  0  0  0  0  0  0  0  0  0  0
   43.0510   35.2010   39.7610 C   0  0  0  0  0  0  0  0  0  0  0  0
   41.7500   34.7510   39.3000 C   0  0  0  0  0  0  0  0  0  0  0  0
   41.0510   35.0740   38.1810 C   0  0  0  0  0  0  0  0  0  0  0  0
   39.8010   34.5900   37.8150 C   0  0  0  0  0  0  0  0  0  0  0  0
   39.2390   33.6930   38.6960 C   0  0  0  0  0  0  0  0  0  0  0  0
   39.9580   33.3710   39.8310 C   0  0  0  0  0  0  0  0  0  0  0  0
   41.1580   33.8590   40.1470 N   0  0  0  0  0  0  0  0  0  0  0  0
   39.2550   32.3900   40.7170 C   0  0  0  0  0  0  0  0  0  0  0  0
   37.9180   32.7660   40.8730 F   0  0  0  0  0  0  0  0  0  0  0  0
   39.8970   32.1780   41.9090 F   0  0  0  0  0  0  0  0  0  0  0  0
   39.2030   31.1430   40.0690 F   0  0  0  0  0  0  0  0  0  0  0  0
   37.9920   33.1720   38.3910 O   0  0  0  0  0  0  0  0  0  0  0  0
   42.3478   35.0536   41.7599 H   0  0  0  0  0  0  0  0  0  0  0  0
   43.1101   36.6344   41.3166 H   0  0  0  0  0  0  0  0  0  0  0  0
   47.5200   34.4698   43.8905 H   0  0  0  0  0  0  0  0  0  0  0  0
   49.8306   32.8360   39.0461 H   0  0  0  0  0  0  0  0  0  0  0  0
   48.2210   29.8162   41.4558 H   0  0  0  0  0  0  0  0  0  0  0  0
   47.7736   35.5630   40.2834 H   0  0  0  0  0  0  0  0  0  0  0  0
   49.0673   35.0383   39.1727 H   0  0  0  0  0  0  0  0  0  0  0  0
   43.3162   36.1001   39.1853 H   0  0  0  0  0  0  0  0  0  0  0  0
   43.7241   34.3442   39.6097 H   0  0  0  0  0  0  0  0  0  0  0  0
   41.5228   35.7922   37.4943 H   0  0  0  0  0  0  0  0  0  0  0  0
   39.2966   34.9009   36.8882 H   0  0  0  0  0  0  0  0  0  0  0  0
   37.5622   32.5250   39.0048 H   0  0  0  0  0  0  0  0  0  0  0  0
  1  5  1  0
  2  3  2  0
  3  4  1  0
  5  4  1  0
  6  5  2  0
  6  2  1  0
  7 12  2  0
  7  8  1  0
  8  9  2  0
  9 10  1  0
  9  2  1  0
 11 10  2  0
 12 11  1  0
 13  8  1  0
 14  1  1  0
 15 14  1  0
 15 20  1  0
 16 15  2  0
 17 16  1  0
 17 18  2  0
 18 19  1  0
 19 20  2  0
 19 21  1  0
 21 22  1  0
 21 23  1  0
 24 21  1  0
 25 18  1  0
  1 26  1  0
  1 27  1  0
  3 28  1  0
  7 29  1  0
 11 30  1  0
 13 31  1  0
 13 32  1  0
 14 33  1  0
 14 34  1  0
 16 35  1  0
 17 36  1  0
 25 37  1  0
M  ISO  8  26   8  27   8  28  14  29  14  30  14  33   8  34   8  35  14
M  ISO  2  36  14  37   3
M  END
>  <minimizedAffinity>  (1) 
-5.58719969

>  <minimizedRMSD>  (1) 
0.250451922

$$$$
