
     RDKit          3D

 38 40  0  0  0  0  0  0  0  0999 V2000
   43.2800   35.5320   41.3750 C   0  0  0  0  0  0  0  0  0  0  0  0
   46.5390   33.9110   42.0680 C   0  0  0  0  0  0  0  0  0  0  0  0
   46.7450   34.3710   43.3230 C   0  0  0  0  0  0  0  0  0  0  0  0
   45.2310   35.4030   43.6030 S   0  0  0  0  0  0  0  0  0  0  0  0
   44.5800   35.0060   41.9110 C   0  0  0  0  0  0  0  0  0  0  0  0
   45.4300   34.3310   41.5490 N   0  0  0  0  0  0  0  0  0  0  0  0
   49.1910   32.5800   39.7460 C   0  0  0  0  0  0  0  0  0  0  0  0
   48.3230   33.4930   40.3850 C   0  0  0  0  0  0  0  0  0  0  0  0
   47.4730   33.0240   41.3550 C   0  0  0  0  0  0  0  0  0  0  0  0
   47.5270   31.6750   41.6410 N   0  0  0  0  0  0  0  0  0  0  0  0
   48.3790   30.8450   40.9960 C   0  0  0  0  0  0  0  0  0  0  0  0
   49.2050   31.2910   40.0550 N   0  0  0  0  0  0  0  0  0  0  0  0
   48.3990   34.8440   39.9690 N   0  0  0  0  0  0  0  0  0  0  0  0
   43.1730   35.3000   39.8960 C   0  0  0  0  0  0  0  0  0  0  0  0
   41.9000   34.8310   39.4120 C   0  0  0  0  0  0  0  0  0  0  0  0
   41.2390   35.1180   38.2420 C   0  0  0  0  0  0  0  0  0  0  0  0
   40.0150   34.6240   37.8560 C   0  0  0  0  0  0  0  0  0  0  0  0
   39.4110   33.7590   38.7420 C   0  0  0  0  0  0  0  0  0  0  0  0
   40.0740   33.4730   39.9150 C   0  0  0  0  0  0  0  0  0  0  0  0
   41.2580   33.9710   40.2530 N   0  0  0  0  0  0  0  0  0  0  0  0
   39.3250   32.5240   40.8010 C   0  0  0  0  0  0  0  0  0  0  0  0
   37.9810   32.8790   40.8540 F   0  0  0  0  0  0  0  0  0  0  0  0
   39.8890   32.4140   42.0430 F   0  0  0  0  0  0  0  0  0  0  0  0
   39.3500   31.2470   40.2270 F   0  0  0  0  0  0  0  0  0  0  0  0
   38.1410   33.2310   38.3680 N   0  0  0  0  0  0  0  0  0  0  0  0
   42.4488   35.0186   41.8804 H   0  0  0  0  0  0  0  0  0  0  0  0
   43.2366   36.6149   41.5632 H   0  0  0  0  0  0  0  0  0  0  0  0
   47.5905   34.1820   44.0008 H   0  0  0  0  0  0  0  0  0  0  0  0
   49.8759   32.9497   38.9687 H   0  0  0  0  0  0  0  0  0  0  0  0
   48.3883   29.7763   41.2565 H   0  0  0  0  0  0  0  0  0  0  0  0
   47.7884   35.5514   40.4022 H   0  0  0  0  0  0  0  0  0  0  0  0
   49.0649   35.1196   39.2332 H   0  0  0  0  0  0  0  0  0  0  0  0
   43.3929   36.2522   39.3911 H   0  0  0  0  0  0  0  0  0  0  0  0
   43.8857   34.4919   39.6746 H   0  0  0  0  0  0  0  0  0  0  0  0
   41.7371   35.8099   37.5469 H   0  0  0  0  0  0  0  0  0  0  0  0
   39.5476   34.9020   36.8999 H   0  0  0  0  0  0  0  0  0  0  0  0
   37.6486   32.5801   38.9963 H   0  0  0  0  0  0  0  0  0  0  0  0
   37.7156   33.5004   37.4694 H   0  0  0  0  0  0  0  0  0  0  0  0
  1  5  1  0
  2  3  2  0
  3  4  1  0
  5  4  1  0
  6  5  2  0
  6  2  1  0
  7 12  2  0
  7  8  1  0
  8  9  2  0
  9 10  1  0
  9  2  1  0
 11 10  2  0
 12 11  1  0
 13  8  1  0
 14  1  1  0
 15 14  1  0
 15 20  1  0
 16 15  2  0
 17 16  1  0
 17 18  2  0
 18 19  1  0
 19 20  2  0
 19 21  1  0
 21 22  1  0
 21 23  1  0
 24 21  1  0
 25 18  1  0
  1 26  1  0
  1 27  1  0
  3 28  1  0
  7 29  1  0
 11 30  1  0
 13 31  1  0
 13 32  1  0
 14 33  1  0
 14 34  1  0
 16 35  1  0
 17 36  1  0
 25 37  1  0
 25 38  1  0
M  ISO  8  26   8  27   8  28  14  29  14  30  14  33   8  34   8  35  14
M  ISO  1  36  14
M  END
>  <minimizedAffinity>  (1) 
-5.53660297

>  <minimizedRMSD>  (1) 
0.279891133

$$$$
