
     RDKit          3D

 34 36  0  0  0  0  0  0  0  0999 V2000
   44.4370   35.9280   44.9290 C   0  0  0  0  0  0  0  0  0  0  0  0
   45.0900   35.8080   43.6980 C   0  0  0  0  0  0  0  0  0  0  0  0
   45.9810   34.7810   43.4400 C   0  0  0  0  0  0  0  0  0  0  0  0
   46.1850   33.8940   44.4520 N   0  0  0  0  0  0  0  0  0  0  0  0
   45.5510   34.0170   45.6350 C   0  0  0  0  0  0  0  0  0  0  0  0
   44.6970   35.0060   45.8740 N   0  0  0  0  0  0  0  0  0  0  0  0
   45.8450   33.0290   46.6170 N   0  0  0  0  0  0  0  0  0  0  0  0
   44.9790   32.8930   47.7790 C   0  0  0  0  0  0  0  0  0  0  0  0
   45.3960   31.7260   48.6160 C   0  0  0  0  0  0  0  0  0  0  0  0
   46.7810   31.8680   48.9880 N   0  0  0  0  0  0  0  0  0  0  0  0
   47.6710   31.9740   47.8710 C   0  0  0  0  0  0  0  0  0  0  0  0
   46.9650   32.1260   46.5510 C   0  0  0  0  0  0  0  0  0  0  0  0
   44.4930   33.1520   41.5100 Cl  0  0  0  0  0  0  0  0  0  0  0  0
   46.0460   33.8880   41.1800 C   0  0  0  0  0  0  0  0  0  0  0  0
   46.6710   34.6410   42.1630 C   0  0  0  0  0  0  0  0  0  0  0  0
   47.8970   35.2030   41.8580 C   0  0  0  0  0  0  0  0  0  0  0  0
   48.4900   35.0280   40.6230 C   0  0  0  0  0  0  0  0  0  0  0  0
   47.8150   34.2620   39.6820 C   0  0  0  0  0  0  0  0  0  0  0  0
   48.5630   34.0330   38.1110 Cl  0  0  0  0  0  0  0  0  0  0  0  0
   46.5990   33.6820   39.9270 C   0  0  0  0  0  0  0  0  0  0  0  0
   43.7323   36.7510   45.1189 H   0  0  0  0  0  0  0  0  0  0  0  0
   44.8896   36.5513   42.9123 H   0  0  0  0  0  0  0  0  0  0  0  0
   45.0389   33.8103   48.3832 H   0  0  0  0  0  0  0  0  0  0  0  0
   43.9474   32.7297   47.4338 H   0  0  0  0  0  0  0  0  0  0  0  0
   44.7755   31.6860   49.5234 H   0  0  0  0  0  0  0  0  0  0  0  0
   45.2659   30.7981   48.0397 H   0  0  0  0  0  0  0  0  0  0  0  0
   46.8777   32.7177   49.5621 H   0  0  0  0  0  0  0  0  0  0  0  0
   48.3170   32.8513   48.0230 H   0  0  0  0  0  0  0  0  0  0  0  0
   48.2437   31.0360   47.8245 H   0  0  0  0  0  0  0  0  0  0  0  0
   46.6015   31.1383   46.2312 H   0  0  0  0  0  0  0  0  0  0  0  0
   47.6874   32.5466   45.8360 H   0  0  0  0  0  0  0  0  0  0  0  0
   48.4139   35.8056   42.6194 H   0  0  0  0  0  0  0  0  0  0  0  0
   49.4656   35.4809   40.3923 H   0  0  0  0  0  0  0  0  0  0  0  0
   46.0848   33.0799   39.1634 H   0  0  0  0  0  0  0  0  0  0  0  0
  1  6  2  0
  2  1  1  0
  3  2  2  0
  3  4  1  0
  4  5  2  0
  5  6  1  0
  5  7  1  0
  7  8  1  0
  8  9  1  0
  9 10  1  0
 11 10  1  0
 12  7  1  0
 12 11  1  0
 14 13  1  0
 14 15  2  0
 15  3  1  0
 16 15  1  0
 17 16  2  0
 18 20  2  0
 18 17  1  0
 19 18  1  0
 20 14  1  0
  1 21  1  0
  2 22  1  0
  8 23  1  0
  8 24  1  0
  9 25  1  0
  9 26  1  0
 10 27  1  0
 11 28  1  0
 11 29  1  0
 12 30  1  0
 12 31  1  0
 16 32  1  0
 17 33  1  0
 20 34  1  0
M  ISO  8  21  14  22  14  23  13  24  13  25  13  26  13  27   5  28  13
M  ISO  6  29  13  30  13  31  13  32  14  33  14  34  14
M  END
>  <minimizedAffinity>  (1) 
-6.94481754

>  <minimizedRMSD>  (1) 
0.194118932

$$$$
