
     RDKit          3D

 35 38  0  0  0  0  0  0  0  0999 V2000
   44.4550   36.0560   44.1110 C   0  0  0  0  0  0  0  0  0  0  0  0
   45.1340   35.8820   42.8930 C   0  0  0  0  0  0  0  0  0  0  0  0
   46.0730   34.8650   42.7440 C   0  0  0  0  0  0  0  0  0  0  0  0
   46.2850   34.0760   43.8160 N   0  0  0  0  0  0  0  0  0  0  0  0
   45.6340   34.2470   44.9780 C   0  0  0  0  0  0  0  0  0  0  0  0
   44.7360   35.2210   45.1160 N   0  0  0  0  0  0  0  0  0  0  0  0
   45.9240   33.3450   46.0900 C   0  0  0  0  0  0  0  0  0  0  0  0
   45.1970   33.4070   47.2600 C   0  0  0  0  0  0  0  0  0  0  0  0
   45.4590   32.5570   48.3290 C   0  0  0  0  0  0  0  0  0  0  0  0
   46.4830   31.6280   48.2010 C   0  0  0  0  0  0  0  0  0  0  0  0
   46.7110   30.8230   49.2480 N   0  0  0  0  0  0  0  0  0  0  0  0
   47.6840   29.9020   49.1940 C   0  0  0  0  0  0  0  0  0  0  0  0
   48.4460   29.7930   48.0490 C   0  0  0  0  0  0  0  0  0  0  0  0
   48.2090   30.6160   46.9800 C   0  0  0  0  0  0  0  0  0  0  0  0
   47.2160   31.5550   47.0400 C   0  0  0  0  0  0  0  0  0  0  0  0
   46.9370   32.4110   45.9870 C   0  0  0  0  0  0  0  0  0  0  0  0
   44.6720   33.0990   40.8810 Cl  0  0  0  0  0  0  0  0  0  0  0  0
   46.2190   33.8570   40.5390 C   0  0  0  0  0  0  0  0  0  0  0  0
   46.7890   34.6680   41.4850 C   0  0  0  0  0  0  0  0  0  0  0  0
   48.0130   35.2500   41.1800 C   0  0  0  0  0  0  0  0  0  0  0  0
   48.6310   35.0150   39.9620 C   0  0  0  0  0  0  0  0  0  0  0  0
   47.9980   34.1850   39.0530 C   0  0  0  0  0  0  0  0  0  0  0  0
   48.7670   33.8770   37.5060 Cl  0  0  0  0  0  0  0  0  0  0  0  0
   46.7780   33.5800   39.3080 C   0  0  0  0  0  0  0  0  0  0  0  0
   43.7122   36.8579   44.2339 H   0  0  0  0  0  0  0  0  0  0  0  0
   44.9216   36.5555   42.0496 H   0  0  0  0  0  0  0  0  0  0  0  0
   44.3890   34.1479   47.3501 H   0  0  0  0  0  0  0  0  0  0  0  0
   44.8684   32.6192   49.2549 H   0  0  0  0  0  0  0  0  0  0  0  0
   47.8725   29.2409   50.0527 H   0  0  0  0  0  0  0  0  0  0  0  0
   49.2476   29.0417   47.9943 H   0  0  0  0  0  0  0  0  0  0  0  0
   48.8195   30.5215   46.0698 H   0  0  0  0  0  0  0  0  0  0  0  0
   47.5271   32.3465   45.0609 H   0  0  0  0  0  0  0  0  0  0  0  0
   48.4989   35.9072   41.9162 H   0  0  0  0  0  0  0  0  0  0  0  0
   49.6005   35.4766   39.7236 H   0  0  0  0  0  0  0  0  0  0  0  0
   46.2867   32.9215   38.5766 H   0  0  0  0  0  0  0  0  0  0  0  0
  1  6  2  0
  2  1  1  0
  3  2  2  0
  3  4  1  0
  4  5  2  0
  5  6  1  0
  5  7  1  0
  7  8  2  0
  8  9  1  0
 10  9  2  0
 10 11  1  0
 12 11  2  0
 13 12  1  0
 14 15  1  0
 14 13  2  0
 15 10  1  0
 16  7  1  0
 16 15  2  0
 18 17  1  0
 18 19  2  0
 19  3  1  0
 20 19  1  0
 21 20  2  0
 22 24  2  0
 22 21  1  0
 23 22  1  0
 24 18  1  0
  1 25  1  0
  2 26  1  0
  8 27  1  0
  9 28  1  0
 12 29  1  0
 13 30  1  0
 14 31  1  0
 16 32  1  0
 20 33  1  0
 21 34  1  0
 24 35  1  0
M  ISO  8  25  14  26  14  27  14  28  14  29  14  30  14  31  14  32  14
M  ISO  3  33  14  34  14  35  14
M  END
>  <minimizedAffinity>  (1) 
-6.25847483

>  <minimizedRMSD>  (1) 
0.854572535

$$$$
