
     RDKit          3D

 27 29  0  0  0  0  0  0  0  0999 V2000
   44.4610   35.9250   44.8110 C   0  0  0  0  0  0  0  0  0  0  0  0
   45.1120   35.8100   43.5750 C   0  0  0  0  0  0  0  0  0  0  0  0
   46.0140   34.7930   43.3250 C   0  0  0  0  0  0  0  0  0  0  0  0
   46.2320   33.9090   44.3450 N   0  0  0  0  0  0  0  0  0  0  0  0
   45.5970   34.0350   45.5210 C   0  0  0  0  0  0  0  0  0  0  0  0
   44.7270   35.0270   45.7490 N   0  0  0  0  0  0  0  0  0  0  0  0
   44.5350   33.1490   41.3950 Cl  0  0  0  0  0  0  0  0  0  0  0  0
   46.0820   33.8930   41.0640 C   0  0  0  0  0  0  0  0  0  0  0  0
   46.7030   34.6590   42.0420 C   0  0  0  0  0  0  0  0  0  0  0  0
   47.9220   35.2300   41.7320 C   0  0  0  0  0  0  0  0  0  0  0  0
   48.5040   35.0470   40.4920 C   0  0  0  0  0  0  0  0  0  0  0  0
   47.8330   34.2690   39.5560 C   0  0  0  0  0  0  0  0  0  0  0  0
   48.5810   34.0460   37.9920 Cl  0  0  0  0  0  0  0  0  0  0  0  0
   46.6050   33.6710   39.8140 C   0  0  0  0  0  0  0  0  0  0  0  0
   45.8390   33.0840   46.6040 C   0  0  0  0  0  0  0  0  0  0  0  0
   46.9410   32.2290   46.5970 C   0  0  0  0  0  0  0  0  0  0  0  0
   46.8970   31.4660   47.7280 N   0  0  0  0  0  0  0  0  0  0  0  0
   45.8050   31.8360   48.4120 C   0  0  0  0  0  0  0  0  0  0  0  0
   45.1560   32.8190   47.7360 N   0  0  0  0  0  0  0  0  0  0  0  0
   43.7469   36.7405   44.9980 H   0  0  0  0  0  0  0  0  0  0  0  0
   44.9001   36.5462   42.7857 H   0  0  0  0  0  0  0  0  0  0  0  0
   48.4390   35.8416   42.4861 H   0  0  0  0  0  0  0  0  0  0  0  0
   49.4744   35.5058   40.2517 H   0  0  0  0  0  0  0  0  0  0  0  0
   46.0845   33.0580   39.0634 H   0  0  0  0  0  0  0  0  0  0  0  0
   47.7127   32.1783   45.8147 H   0  0  0  0  0  0  0  0  0  0  0  0
   47.5755   30.7419   48.0041 H   0  0  0  0  0  0  0  0  0  0  0  0
   45.4838   31.4089   49.3735 H   0  0  0  0  0  0  0  0  0  0  0  0
  1  6  2  0
  2  1  1  0
  3  2  2  0
  3  4  1  0
  4  5  2  0
  5  6  1  0
  5 15  1  0
  8  7  1  0
  8  9  2  0
  9  3  1  0
 10  9  1  0
 11 10  2  0
 12 14  2  0
 12 11  1  0
 13 12  1  0
 14  8  1  0
 15 19  1  0
 16 15  2  0
 16 17  1  0
 17 18  1  0
 19 18  2  0
  1 20  1  0
  2 21  1  0
 10 22  1  0
 11 23  1  0
 14 24  1  0
 16 25  1  0
 17 26  1  0
 18 27  1  0
M  ISO  8  20  14  21  14  22  14  23  14  24  14  25  14  26   9  27  14
M  END
>  <minimizedAffinity>  (1) 
-6.25615311

>  <minimizedRMSD>  (1) 
0.196822912

$$$$
