
     RDKit          3D

 21 22  0  0  0  0  0  0  0  0999 V2000
   44.5740   33.1680   41.3300 Cl  0  0  0  0  0  0  0  0  0  0  0  0
   46.1340   33.9310   41.0050 C   0  0  0  0  0  0  0  0  0  0  0  0
   46.7410   34.6870   41.9900 C   0  0  0  0  0  0  0  0  0  0  0  0
   47.9550   35.2630   41.6910 C   0  0  0  0  0  0  0  0  0  0  0  0
   48.5520   35.0990   40.4580 C   0  0  0  0  0  0  0  0  0  0  0  0
   47.8850   34.3220   39.5070 C   0  0  0  0  0  0  0  0  0  0  0  0
   48.6200   34.0980   37.9330 Cl  0  0  0  0  0  0  0  0  0  0  0  0
   46.6700   33.7240   39.7520 C   0  0  0  0  0  0  0  0  0  0  0  0
   44.4900   35.9410   44.7610 C   0  0  0  0  0  0  0  0  0  0  0  0
   45.1520   35.8410   43.5250 C   0  0  0  0  0  0  0  0  0  0  0  0
   46.0390   34.8110   43.2720 C   0  0  0  0  0  0  0  0  0  0  0  0
   46.2310   33.9100   44.2780 N   0  0  0  0  0  0  0  0  0  0  0  0
   45.5980   34.0080   45.4550 C   0  0  0  0  0  0  0  0  0  0  0  0
   44.7390   35.0170   45.6820 N   0  0  0  0  0  0  0  0  0  0  0  0
   45.8280   33.0660   46.4460 O   0  0  0  0  0  0  0  0  0  0  0  0
   48.4625   35.8700   42.4552 H   0  0  0  0  0  0  0  0  0  0  0  0
   49.5221   35.5650   40.2307 H   0  0  0  0  0  0  0  0  0  0  0  0
   46.1565   33.1163   38.9923 H   0  0  0  0  0  0  0  0  0  0  0  0
   43.7852   36.7618   44.9599 H   0  0  0  0  0  0  0  0  0  0  0  0
   44.9613   36.5944   42.7465 H   0  0  0  0  0  0  0  0  0  0  0  0
   45.3605   33.1382   47.3157 H   0  0  0  0  0  0  0  0  0  0  0  0
  2  1  1  0
  2  3  2  0
  3 11  1  0
  4  3  1  0
  5  4  2  0
  6  8  2  0
  6  5  1  0
  7  6  1  0
  8  2  1  0
  9 14  2  0
 10  9  1  0
 11 10  2  0
 11 12  1  0
 12 13  2  0
 13 14  1  0
 13 15  1  0
  4 16  1  0
  5 17  1  0
  8 18  1  0
  9 19  1  0
 10 20  1  0
 15 21  1  0
M  ISO  6  16  14  17  14  18  14  19  14  20  14  21   3
M  END
>  <minimizedAffinity>  (1) 
-5.39188099

>  <minimizedRMSD>  (1) 
0.0213242881

$$$$
