
     RDKit          3D

 34 36  0  0  0  0  0  0  0  0999 V2000
   44.5560   35.4880   44.9910 C   0  0  0  0  0  0  0  0  0  0  0  0
   45.1550   35.4710   43.7230 C   0  0  0  0  0  0  0  0  0  0  0  0
   46.1840   34.5860   43.4270 C   0  0  0  0  0  0  0  0  0  0  0  0
   46.5790   33.7440   44.4230 N   0  0  0  0  0  0  0  0  0  0  0  0
   45.9940   33.7740   45.6330 C   0  0  0  0  0  0  0  0  0  0  0  0
   45.0030   34.6250   45.9180 N   0  0  0  0  0  0  0  0  0  0  0  0
   44.7690   32.8800   41.5010 Cl  0  0  0  0  0  0  0  0  0  0  0  0
   46.2320   33.7750   41.1280 C   0  0  0  0  0  0  0  0  0  0  0  0
   46.8240   34.5530   42.1070 C   0  0  0  0  0  0  0  0  0  0  0  0
   47.9710   35.2390   41.7750 C   0  0  0  0  0  0  0  0  0  0  0  0
   48.5250   35.1660   40.5130 C   0  0  0  0  0  0  0  0  0  0  0  0
   47.8790   34.3650   39.5720 C   0  0  0  0  0  0  0  0  0  0  0  0
   48.5670   34.2550   37.9570 Cl  0  0  0  0  0  0  0  0  0  0  0  0
   46.7360   33.6600   39.8530 C   0  0  0  0  0  0  0  0  0  0  0  0
   46.5010   32.8090   46.6520 C   0  0  0  0  0  0  0  0  0  0  0  0
   46.8520   31.4840   46.0350 C   0  0  0  0  0  0  0  0  0  0  0  0
   45.6130   30.5920   46.1670 C   0  0  0  0  0  0  0  0  0  0  0  0
   45.3180   30.2740   47.4720 O   0  0  0  0  0  0  0  0  0  0  0  0
   45.4920   31.3180   48.3740 C   0  0  0  0  0  0  0  0  0  0  0  0
   45.3380   32.6190   47.6300 C   0  0  0  0  0  0  0  0  0  0  0  0
   43.7409   36.1902   45.2204 H   0  0  0  0  0  0  0  0  0  0  0  0
   44.8041   36.1703   42.9498 H   0  0  0  0  0  0  0  0  0  0  0  0
   48.4598   35.8631   42.5376 H   0  0  0  0  0  0  0  0  0  0  0  0
   49.4415   35.7188   40.2591 H   0  0  0  0  0  0  0  0  0  0  0  0
   46.2456   33.0323   39.0944 H   0  0  0  0  0  0  0  0  0  0  0  0
   47.4152   33.1880   47.1322 H   0  0  0  0  0  0  0  0  0  0  0  0
   47.7023   31.0321   46.5667 H   0  0  0  0  0  0  0  0  0  0  0  0
   47.1415   31.6039   44.9806 H   0  0  0  0  0  0  0  0  0  0  0  0
   44.7522   31.1206   45.7315 H   0  0  0  0  0  0  0  0  0  0  0  0
   45.8263   29.6511   45.6386 H   0  0  0  0  0  0  0  0  0  0  0  0
   44.7344   31.2525   49.1689 H   0  0  0  0  0  0  0  0  0  0  0  0
   46.4906   31.2599   48.8317 H   0  0  0  0  0  0  0  0  0  0  0  0
   45.3290   33.4506   48.3500 H   0  0  0  0  0  0  0  0  0  0  0  0
   44.3937   32.6007   47.0661 H   0  0  0  0  0  0  0  0  0  0  0  0
  1  6  2  0
  2  1  1  0
  3  2  2  0
  3  4  1  0
  4  5  2  0
  5  6  1  0
  5 15  1  0
  8  7  1  0
  8  9  2  0
  9  3  1  0
 10  9  1  0
 11 10  2  0
 12 14  2  0
 12 11  1  0
 13 12  1  0
 14  8  1  0
 15 20  1  0
 16 17  1  0
 16 15  1  0
 17 18  1  0
 18 19  1  0
 20 19  1  0
  1 21  1  0
  2 22  1  0
 10 23  1  0
 11 24  1  0
 14 25  1  0
 15 26  1  0
 16 27  1  0
 16 28  1  0
 17 29  1  0
 17 30  1  0
 19 31  1  0
 19 32  1  0
 20 33  1  0
 20 34  1  0
M  ISO  8  21  14  22  14  23  14  24  14  25  14  26  13  27  13  28  13
M  ISO  6  29  13  30  13  31  13  32  13  33  13  34  13
M  END
>  <minimizedAffinity>  (1) 
-6.34368467

>  <minimizedRMSD>  (1) 
0.587303579

$$$$
