
     RDKit          3D

 36 38  0  0  1  0  0  0  0  0999 V2000
   44.6450   35.4100   44.9390 C   0  0  0  0  0  0  0  0  0  0  0  0
   45.2650   35.4550   43.6800 C   0  0  0  0  0  0  0  0  0  0  0  0
   46.3130   34.5860   43.3600 C   0  0  0  0  0  0  0  0  0  0  0  0
   46.6950   33.7060   44.3230 N   0  0  0  0  0  0  0  0  0  0  0  0
   46.0970   33.6720   45.5160 C   0  0  0  0  0  0  0  0  0  0  0  0
   45.0880   34.5050   45.8290 N   0  0  0  0  0  0  0  0  0  0  0  0
   46.5960   32.6700   46.5060 C   0  0  2  0  0  0  0  0  0  0  0  0
   47.0220   31.3900   45.8150 C   0  0  0  0  0  0  0  0  0  0  0  0
   45.8260   30.4500   45.8210 C   0  0  0  0  0  0  0  0  0  0  0  0
   45.4820   30.0330   47.0860 O   0  0  0  0  0  0  0  0  0  0  0  0
   45.5690   31.0170   48.0670 C   0  0  0  0  0  0  0  0  0  0  0  0
   45.4100   32.3690   47.4040 C   0  0  1  0  0  0  0  0  0  0  0  0
   45.1120   33.4190   48.3260 N   0  0  0  0  0  0  0  0  0  0  0  0
   44.9360   32.9090   41.3680 Cl  0  0  0  0  0  0  0  0  0  0  0  0
   46.3910   33.8540   41.0380 C   0  0  0  0  0  0  0  0  0  0  0  0
   46.9690   34.6170   42.0500 C   0  0  0  0  0  0  0  0  0  0  0  0
   48.0920   35.3310   41.7460 C   0  0  0  0  0  0  0  0  0  0  0  0
   48.6400   35.2970   40.4790 C   0  0  0  0  0  0  0  0  0  0  0  0
   48.0160   34.5170   39.5120 C   0  0  0  0  0  0  0  0  0  0  0  0
   48.7200   34.4800   37.8930 Cl  0  0  0  0  0  0  0  0  0  0  0  0
   46.8930   33.7850   39.7570 C   0  0  0  0  0  0  0  0  0  0  0  0
   43.8214   36.0948   45.1896 H   0  0  0  0  0  0  0  0  0  0  0  0
   44.9208   36.1857   42.9332 H   0  0  0  0  0  0  0  0  0  0  0  0
   47.4662   33.0583   47.0554 H   0  0  0  0  0  0  0  0  0  0  0  0
   47.8628   30.9322   46.3567 H   0  0  0  0  0  0  0  0  0  0  0  0
   47.3496   31.5951   44.7851 H   0  0  0  0  0  0  0  0  0  0  0  0
   44.9659   30.9728   45.3772 H   0  0  0  0  0  0  0  0  0  0  0  0
   46.1038   29.5569   45.2420 H   0  0  0  0  0  0  0  0  0  0  0  0
   44.7714   30.8718   48.8104 H   0  0  0  0  0  0  0  0  0  0  0  0
   46.5424   30.9580   48.5759 H   0  0  0  0  0  0  0  0  0  0  0  0
   44.5205   32.3161   46.7590 H   0  0  0  0  0  0  0  0  0  0  0  0
   45.2115   33.0685   49.2894 H   0  0  0  0  0  0  0  0  0  0  0  0
   45.7639   34.2024   48.1766 H   0  0  0  0  0  0  0  0  0  0  0  0
   48.5691   35.9446   42.5244 H   0  0  0  0  0  0  0  0  0  0  0  0
   49.5469   35.8722   40.2409 H   0  0  0  0  0  0  0  0  0  0  0  0
   46.4150   33.1743   38.9769 H   0  0  0  0  0  0  0  0  0  0  0  0
  1  6  2  0
  2  1  1  0
  3  2  2  0
  3  4  1  0
  4  5  2  0
  5  6  1  0
  5  7  1  0
  7 12  1  0
  8  9  1  0
  8  7  1  0
  9 10  1  0
 10 11  1  0
 12 11  1  0
 12 13  1  0
 15 14  1  0
 15 16  2  0
 16  3  1  0
 17 16  1  0
 18 17  2  0
 19 21  2  0
 19 18  1  0
 20 19  1  0
 21 15  1  0
  1 22  1  0
  2 23  1  0
  7 24  1  1
  8 25  1  0
  8 26  1  0
  9 27  1  0
  9 28  1  0
 11 29  1  0
 11 30  1  0
 12 31  1  6
 13 32  1  0
 13 33  1  0
 17 34  1  0
 18 35  1  0
 21 36  1  0
M  ISO  8  22  14  23  14  24  13  25  13  26  13  27  13  28  13  29  13
M  ISO  7  30  13  31  13  32   5  33   5  34  14  35  14  36  14
M  END
>  <minimizedAffinity>  (1) 
-6.8616333

>  <minimizedRMSD>  (1) 
0.266413718

$$$$
