
     RDKit          3D

 35 38  0  0  1  0  0  0  0  0999 V2000
   44.9940   34.6700   45.4330 C   0  0  0  0  0  0  0  0  0  0  0  0
   45.4980   34.8620   44.1380 C   0  0  0  0  0  0  0  0  0  0  0  0
   46.5740   34.1040   43.6640 C   0  0  0  0  0  0  0  0  0  0  0  0
   47.0970   33.1850   44.5120 N   0  0  0  0  0  0  0  0  0  0  0  0
   46.6100   33.0120   45.7430 C   0  0  0  0  0  0  0  0  0  0  0  0
   45.5750   33.7360   46.2090 N   0  0  0  0  0  0  0  0  0  0  0  0
   47.2620   31.9770   46.6000 C   0  0  2  0  0  0  0  0  0  0  0  0
   46.9440   30.5850   46.1050 C   0  0  0  0  0  0  0  0  0  0  0  0
   45.7220   30.0950   46.8650 C   0  0  0  0  0  0  0  0  0  0  0  0
   45.9580   29.9210   48.2090 O   0  0  0  0  0  0  0  0  0  0  0  0
   46.7750   30.8840   48.7850 C   0  0  0  0  0  0  0  0  0  0  0  0
   46.6700   32.1590   47.9790 C   0  0  2  0  0  0  0  0  0  0  0  0
   44.9910   32.8160   47.9620 S   0  0  0  0  0  0  0  0  0  0  0  0
   45.2030   32.4260   41.6690 Cl  0  0  0  0  0  0  0  0  0  0  0  0
   46.5210   33.5400   41.2970 C   0  0  0  0  0  0  0  0  0  0  0  0
   47.1070   34.2920   42.3130 C   0  0  0  0  0  0  0  0  0  0  0  0
   48.1230   35.1390   41.9700 C   0  0  0  0  0  0  0  0  0  0  0  0
   48.5570   35.2480   40.6680 C   0  0  0  0  0  0  0  0  0  0  0  0
   47.9350   34.4720   39.6940 C   0  0  0  0  0  0  0  0  0  0  0  0
   48.5000   34.6230   38.0340 Cl  0  0  0  0  0  0  0  0  0  0  0  0
   46.9140   33.6090   39.9790 C   0  0  0  0  0  0  0  0  0  0  0  0
   43.9330   34.3973   45.3331 H   0  0  0  0  0  0  0  0  0  0  0  0
   45.1989   35.6196   45.9491 H   0  0  0  0  0  0  0  0  0  0  0  0
   45.0402   35.6200   43.4854 H   0  0  0  0  0  0  0  0  0  0  0  0
   48.3561   32.0905   46.5885 H   0  0  0  0  0  0  0  0  0  0  0  0
   46.7297   30.6103   45.0264 H   0  0  0  0  0  0  0  0  0  0  0  0
   47.7978   29.9115   46.2708 H   0  0  0  0  0  0  0  0  0  0  0  0
   44.9149   30.8325   46.7436 H   0  0  0  0  0  0  0  0  0  0  0  0
   45.4483   29.1139   46.4497 H   0  0  0  0  0  0  0  0  0  0  0  0
   46.4511   31.0728   49.8191 H   0  0  0  0  0  0  0  0  0  0  0  0
   47.8173   30.5326   48.7937 H   0  0  0  0  0  0  0  0  0  0  0  0
   47.2748   32.9299   48.4789 H   0  0  0  0  0  0  0  0  0  0  0  0
   48.6042   35.7465   42.7506 H   0  0  0  0  0  0  0  0  0  0  0  0
   49.3764   35.9325   40.4035 H   0  0  0  0  0  0  0  0  0  0  0  0
   46.4324   33.0025   39.1979 H   0  0  0  0  0  0  0  0  0  0  0  0
  1  6  1  0
  2  1  1  0
  3  2  2  0
  3  4  1  0
  4  5  2  0
  5  6  1  0
  5  7  1  0
  6 13  1  0
  7 12  1  0
  8  7  1  0
  8  9  1  0
  9 10  1  0
 10 11  1  0
 12 11  1  0
 13 12  1  0
 15 14  1  0
 15 16  2  0
 16  3  1  0
 17 16  1  0
 18 17  2  0
 19 21  2  0
 19 18  1  0
 20 19  1  0
 21 15  1  0
  1 22  1  0
  1 23  1  0
  2 24  1  0
  7 25  1  1
  8 26  1  0
  8 27  1  0
  9 28  1  0
  9 29  1  0
 11 30  1  0
 11 31  1  0
 12 32  1  1
 17 33  1  0
 18 34  1  0
 21 35  1  0
M  ISO  8  22  13  23  13  24  13  25  13  26  13  27  13  28  13  29  13
M  ISO  6  30  13  31  13  32  13  33  14  34  14  35  14
M  END
>  <minimizedAffinity>  (1) 
-5.92136669

>  <minimizedRMSD>  (1) 
0.891720057

$$$$
