
     RDKit          3D

 36 38  0  0  0  0  0  0  0  0999 V2000
   45.3980   33.3210   41.1430 F   0  0  0  0  0  0  0  0  0  0  0  0
   46.5240   34.0680   41.0190 C   0  0  0  0  0  0  0  0  0  0  0  0
   47.0060   34.7810   42.0680 C   0  0  0  0  0  0  0  0  0  0  0  0
   48.1760   35.4790   41.8660 C   0  0  0  0  0  0  0  0  0  0  0  0
   48.8470   35.4730   40.6630 C   0  0  0  0  0  0  0  0  0  0  0  0
   48.2980   34.7300   39.6500 C   0  0  0  0  0  0  0  0  0  0  0  0
   47.1370   34.0180   39.7970 C   0  0  0  0  0  0  0  0  0  0  0  0
   46.6630   33.2830   38.6510 C   0  0  0  0  0  0  0  0  0  0  0  0
   45.3160   33.0600   38.4870 C   0  0  0  0  0  0  0  0  0  0  0  0
   44.8940   32.3380   37.4060 C   0  0  0  0  0  0  0  0  0  0  0  0
   45.7980   31.8260   36.4670 C   0  0  0  0  0  0  0  0  0  0  0  0
   47.1440   32.0850   36.6850 C   0  0  0  0  0  0  0  0  0  0  0  0
   47.5860   32.8070   37.7650 C   0  0  0  0  0  0  0  0  0  0  0  0
   48.9430   32.9140   37.7450 O   0  0  0  0  0  0  0  0  0  0  0  0
   49.8820   30.4360   37.5510 O   0  0  0  0  0  0  0  0  0  0  0  0
   50.1040   31.7880   38.1750 P   0  0  0  0  0  0  0  0  0  0  0  0
   50.1760   31.6840   39.8720 O   0  0  0  0  0  0  0  0  0  0  0  0
   51.6290   32.3970   37.6920 O   0  0  0  0  0  0  0  0  0  0  0  0
   44.5470   35.6800   44.8160 C   0  0  0  0  0  0  0  0  0  0  0  0
   45.2510   35.7150   43.6040 C   0  0  0  0  0  0  0  0  0  0  0  0
   46.2530   34.7680   43.3250 C   0  0  0  0  0  0  0  0  0  0  0  0
   46.4850   33.8460   44.2750 N   0  0  0  0  0  0  0  0  0  0  0  0
   45.8050   33.8220   45.4280 C   0  0  0  0  0  0  0  0  0  0  0  0
   44.8490   34.7200   45.7060 N   0  0  0  0  0  0  0  0  0  0  0  0
   48.5914   36.0650   42.6991 H   0  0  0  0  0  0  0  0  0  0  0  0
   49.7801   36.0382   40.5217 H   0  0  0  0  0  0  0  0  0  0  0  0
   48.8117   34.7045   38.6777 H   0  0  0  0  0  0  0  0  0  0  0  0
   44.5908   33.4558   39.2132 H   0  0  0  0  0  0  0  0  0  0  0  0
   43.8179   32.1546   37.2702 H   0  0  0  0  0  0  0  0  0  0  0  0
   45.4571   31.2455   35.5970 H   0  0  0  0  0  0  0  0  0  0  0  0
   47.8821   31.6981   35.9671 H   0  0  0  0  0  0  0  0  0  0  0  0
   49.6601   32.4291   40.2705 H   0  0  0  0  0  0  0  0  0  0  0  0
   52.1676   32.6121   38.4943 H   0  0  0  0  0  0  0  0  0  0  0  0
   43.7647   36.4221   45.0334 H   0  0  0  0  0  0  0  0  0  0  0  0
   45.0169   36.4927   42.8621 H   0  0  0  0  0  0  0  0  0  0  0  0
   46.0374   33.0428   46.1689 H   0  0  0  0  0  0  0  0  0  0  0  0
  2  1  1  0
  2  3  2  0
  3 21  1  0
  4  3  1  0
  5  4  2  0
  6  7  2  0
  6  5  1  0
  7  2  1  0
  8  7  1  0
  9  8  2  0
 10  9  1  0
 11 12  1  0
 11 10  2  0
 12 13  2  0
 13  8  1  0
 14 13  1  0
 14 16  1  0
 15 16  2  0
 16 17  1  0
 18 16  1  0
 19 24  2  0
 20 19  1  0
 21 20  2  0
 21 22  1  0
 22 23  2  0
 23 24  1  0
  4 25  1  0
  5 26  1  0
  6 27  1  0
  9 28  1  0
 10 29  1  0
 11 30  1  0
 12 31  1  0
 17 32  1  0
 18 33  1  0
 19 34  1  0
 20 35  1  0
 23 36  1  0
M  ISO  8  25  14  26  14  27  14  28  14  29  14  30  14  31  14  32   3
M  ISO  4  33   3  34  14  35  14  36  14
M  END
>  <minimizedAffinity>  (1) 
-6.2379179

>  <minimizedRMSD>  (1) 
0.61596036

$$$$
