
     RDKit          3D

 33 35  0  0  0  0  0  0  0  0999 V2000
   45.2490   33.4890   41.2210 F   0  0  0  0  0  0  0  0  0  0  0  0
   46.4260   34.1780   41.1230 C   0  0  0  0  0  0  0  0  0  0  0  0
   46.8870   34.9010   42.1730 C   0  0  0  0  0  0  0  0  0  0  0  0
   48.1290   35.4870   42.0160 C   0  0  0  0  0  0  0  0  0  0  0  0
   48.8740   35.3480   40.8670 C   0  0  0  0  0  0  0  0  0  0  0  0
   48.3170   34.5940   39.8720 C   0  0  0  0  0  0  0  0  0  0  0  0
   47.0990   33.9990   39.9520 C   0  0  0  0  0  0  0  0  0  0  0  0
   46.6300   33.2820   38.7990 C   0  0  0  0  0  0  0  0  0  0  0  0
   45.6140   32.3410   38.9650 C   0  0  0  0  0  0  0  0  0  0  0  0
   45.2440   31.5810   37.8820 C   0  0  0  0  0  0  0  0  0  0  0  0
   45.8610   31.7420   36.6610 C   0  0  0  0  0  0  0  0  0  0  0  0
   46.8700   32.7010   36.5440 C   0  0  0  0  0  0  0  0  0  0  0  0
   47.2650   33.4850   37.6060 C   0  0  0  0  0  0  0  0  0  0  0  0
   48.2330   34.4930   37.1540 C   0  0  0  0  0  0  0  0  0  0  0  0
   44.4380   35.9240   44.8590 C   0  0  0  0  0  0  0  0  0  0  0  0
   45.1620   35.9400   43.6530 C   0  0  0  0  0  0  0  0  0  0  0  0
   46.0880   34.9590   43.3950 C   0  0  0  0  0  0  0  0  0  0  0  0
   46.2370   34.0080   44.3670 N   0  0  0  0  0  0  0  0  0  0  0  0
   45.5390   34.0120   45.5050 C   0  0  0  0  0  0  0  0  0  0  0  0
   44.6440   34.9670   45.7470 N   0  0  0  0  0  0  0  0  0  0  0  0
   48.5380   36.0879   42.8416 H   0  0  0  0  0  0  0  0  0  0  0  0
   49.8625   35.8175   40.7556 H   0  0  0  0  0  0  0  0  0  0  0  0
   48.8938   34.4604   38.9449 H   0  0  0  0  0  0  0  0  0  0  0  0
   45.1208   32.2105   39.9396 H   0  0  0  0  0  0  0  0  0  0  0  0
   44.4442   30.8338   37.9914 H   0  0  0  0  0  0  0  0  0  0  0  0
   45.5656   31.1288   35.7969 H   0  0  0  0  0  0  0  0  0  0  0  0
   47.3659   32.8348   35.5713 H   0  0  0  0  0  0  0  0  0  0  0  0
   48.6957   34.9748   38.0279 H   0  0  0  0  0  0  0  0  0  0  0  0
   49.0119   34.0074   36.5478 H   0  0  0  0  0  0  0  0  0  0  0  0
   47.7163   35.2516   36.5478 H   0  0  0  0  0  0  0  0  0  0  0  0
   43.6974   36.7112   45.0638 H   0  0  0  0  0  0  0  0  0  0  0  0
   44.9865   36.7381   42.9167 H   0  0  0  0  0  0  0  0  0  0  0  0
   45.7050   33.2191   46.2492 H   0  0  0  0  0  0  0  0  0  0  0  0
  2  1  1  0
  2  3  2  0
  3 17  1  0
  4  3  1  0
  5  4  2  0
  6  7  2  0
  6  5  1  0
  7  2  1  0
  8  9  2  0
  8  7  1  0
 10  9  1  0
 11 10  2  0
 12 11  1  0
 12 13  2  0
 13  8  1  0
 14 13  1  0
 15 20  2  0
 16 15  1  0
 17 16  2  0
 17 18  1  0
 18 19  2  0
 19 20  1  0
  4 21  1  0
  5 22  1  0
  6 23  1  0
  9 24  1  0
 10 25  1  0
 11 26  1  0
 12 27  1  0
 14 28  1  0
 14 29  1  0
 14 30  1  0
 15 31  1  0
 16 32  1  0
 19 33  1  0
M  ISO  8  21  14  22  14  23  14  24  14  25  14  26  14  27  14  28   8
M  ISO  5  29   8  30   8  31  14  32  14  33  14
M  END
>  <minimizedAffinity>  (1) 
-6.15778732

>  <minimizedRMSD>  (1) 
0.159338951

$$$$
