
     RDKit          3D

 44 47  0  0  0  0  0  0  0  0999 V2000
   45.4810   33.1130   41.2270 F   0  0  0  0  0  0  0  0  0  0  0  0
   46.5700   33.9360   41.0560 C   0  0  0  0  0  0  0  0  0  0  0  0
   46.9920   34.7430   42.0590 C   0  0  0  0  0  0  0  0  0  0  0  0
   48.1080   35.5110   41.8100 C   0  0  0  0  0  0  0  0  0  0  0  0
   48.7770   35.4800   40.6100 C   0  0  0  0  0  0  0  0  0  0  0  0
   48.2780   34.6380   39.6540 C   0  0  0  0  0  0  0  0  0  0  0  0
   47.1840   33.8520   39.8360 C   0  0  0  0  0  0  0  0  0  0  0  0
   46.7730   33.0140   38.7410 C   0  0  0  0  0  0  0  0  0  0  0  0
   45.5190   33.2360   38.1610 C   0  0  0  0  0  0  0  0  0  0  0  0
   45.1670   32.4150   37.1150 C   0  0  0  0  0  0  0  0  0  0  0  0
   46.0150   31.3950   36.6350 C   0  0  0  0  0  0  0  0  0  0  0  0
   47.2680   31.2300   37.2710 C   0  0  0  0  0  0  0  0  0  0  0  0
   47.6360   32.0380   38.3220 C   0  0  0  0  0  0  0  0  0  0  0  0
   48.8470   31.5220   38.7850 N   0  0  0  0  0  0  0  0  0  0  0  0
   49.2490   30.5970   39.8720 C   0  0  0  0  0  0  0  0  0  0  0  0
   49.8440   29.3380   39.2950 C   0  0  0  0  0  0  0  0  0  0  0  0
   51.1030   29.7300   38.6900 N   0  0  0  0  0  0  0  0  0  0  0  0
   50.8280   30.6480   37.6360 C   0  0  0  0  0  0  0  0  0  0  0  0
   50.0540   31.8740   38.0140 C   0  0  0  0  0  0  0  0  0  0  0  0
   44.5330   35.7040   44.7850 C   0  0  0  0  0  0  0  0  0  0  0  0
   45.2540   35.6830   43.6030 C   0  0  0  0  0  0  0  0  0  0  0  0
   46.2410   34.7570   43.3050 C   0  0  0  0  0  0  0  0  0  0  0  0
   46.4490   33.8630   44.2730 N   0  0  0  0  0  0  0  0  0  0  0  0
   45.7610   33.8660   45.4260 C   0  0  0  0  0  0  0  0  0  0  0  0
   44.8220   34.7620   45.6880 N   0  0  0  0  0  0  0  0  0  0  0  0
   48.4788   36.1761   42.6039 H   0  0  0  0  0  0  0  0  0  0  0  0
   49.6673   36.0998   40.4276 H   0  0  0  0  0  0  0  0  0  0  0  0
   48.7916   34.5946   38.6822 H   0  0  0  0  0  0  0  0  0  0  0  0
   44.8476   34.0283   38.5238 H   0  0  0  0  0  0  0  0  0  0  0  0
   44.1878   32.5592   36.6350 H   0  0  0  0  0  0  0  0  0  0  0  0
   45.7128   30.7508   35.7961 H   0  0  0  0  0  0  0  0  0  0  0  0
   47.9561   30.4464   36.9210 H   0  0  0  0  0  0  0  0  0  0  0  0
   49.9954   31.0911   40.5113 H   0  0  0  0  0  0  0  0  0  0  0  0
   48.3603   30.3336   40.4643 H   0  0  0  0  0  0  0  0  0  0  0  0
   50.0164   28.5977   40.0902 H   0  0  0  0  0  0  0  0  0  0  0  0
   49.1704   28.8755   38.5585 H   0  0  0  0  0  0  0  0  0  0  0  0
   51.7030   30.1802   39.3958 H   0  0  0  0  0  0  0  0  0  0  0  0
   50.2539   30.1126   36.8654 H   0  0  0  0  0  0  0  0  0  0  0  0
   51.8095   31.0113   37.2974 H   0  0  0  0  0  0  0  0  0  0  0  0
   50.6930   32.5282   38.6254 H   0  0  0  0  0  0  0  0  0  0  0  0
   49.7430   32.3891   37.0932 H   0  0  0  0  0  0  0  0  0  0  0  0
   43.7577   36.4615   44.9723 H   0  0  0  0  0  0  0  0  0  0  0  0
   45.0282   36.4527   42.8503 H   0  0  0  0  0  0  0  0  0  0  0  0
   45.9854   33.0968   46.1797 H   0  0  0  0  0  0  0  0  0  0  0  0
  2  1  1  0
  2  3  2  0
  3 22  1  0
  4  3  1  0
  5  4  2  0
  6  7  2  0
  6  5  1  0
  7  2  1  0
  8  7  1  0
  9  8  2  0
 10  9  1  0
 11 10  2  0
 11 12  1  0
 12 13  2  0
 13  8  1  0
 13 14  1  0
 14 15  1  0
 16 15  1  0
 17 16  1  0
 18 19  1  0
 18 17  1  0
 19 14  1  0
 20 25  2  0
 21 20  1  0
 22 21  2  0
 22 23  1  0
 23 24  2  0
 24 25  1  0
  4 26  1  0
  5 27  1  0
  6 28  1  0
  9 29  1  0
 10 30  1  0
 11 31  1  0
 12 32  1  0
 15 33  1  0
 15 34  1  0
 16 35  1  0
 16 36  1  0
 17 37  1  0
 18 38  1  0
 18 39  1  0
 19 40  1  0
 19 41  1  0
 20 42  1  0
 21 43  1  0
 24 44  1  0
M  ISO  8  26  14  27  14  28  14  29  14  30  14  31  14  32  14  33  13
M  ISO  8  34  13  35  13  36  13  37   5  38  13  39  13  40  13  41  13
M  ISO  3  42  14  43  14  44  14
M  END
>  <minimizedAffinity>  (1) 
-5.75001812

>  <minimizedRMSD>  (1) 
1.7368592

$$$$
