
     RDKit          3D

 38 40  0  0  0  0  0  0  0  0999 V2000
   45.4360   33.2090   41.0160 F   0  0  0  0  0  0  0  0  0  0  0  0
   46.5820   33.9350   40.8610 C   0  0  0  0  0  0  0  0  0  0  0  0
   47.0150   34.7620   41.8300 C   0  0  0  0  0  0  0  0  0  0  0  0
   48.1860   35.4600   41.5810 C   0  0  0  0  0  0  0  0  0  0  0  0
   48.8910   35.3310   40.4100 C   0  0  0  0  0  0  0  0  0  0  0  0
   48.3810   34.4670   39.4770 C   0  0  0  0  0  0  0  0  0  0  0  0
   47.2410   33.7580   39.6630 C   0  0  0  0  0  0  0  0  0  0  0  0
   44.5190   35.8910   44.4330 C   0  0  0  0  0  0  0  0  0  0  0  0
   45.2460   35.8170   43.2420 C   0  0  0  0  0  0  0  0  0  0  0  0
   46.2320   34.8670   43.0690 C   0  0  0  0  0  0  0  0  0  0  0  0
   46.4360   34.0330   44.1140 N   0  0  0  0  0  0  0  0  0  0  0  0
   45.7440   34.1030   45.2470 C   0  0  0  0  0  0  0  0  0  0  0  0
   44.7830   35.0340   45.4090 N   0  0  0  0  0  0  0  0  0  0  0  0
   44.3920   34.0690   47.7440 N   0  0  0  0  0  0  0  0  0  0  0  0
   45.1060   33.0290   47.3980 C   0  0  0  0  0  0  0  0  0  0  0  0
   46.0030   33.1970   46.3170 N   0  0  0  0  0  0  0  0  0  0  0  0
   45.0420   31.7380   48.0360 N   0  0  0  0  0  0  0  0  0  0  0  0
   43.7310   33.9280   48.5490 H   0  0  0  0  0  0  0  0  0  0  0  0
   46.8090   32.8820   38.6030 C   0  0  0  0  0  0  0  0  0  0  0  0
   46.4710   31.5670   38.8910 C   0  0  0  0  0  0  0  0  0  0  0  0
   46.0590   30.7530   37.8770 C   0  0  0  0  0  0  0  0  0  0  0  0
   45.9730   31.2130   36.5720 C   0  0  0  0  0  0  0  0  0  0  0  0
   46.3250   32.5430   36.3330 C   0  0  0  0  0  0  0  0  0  0  0  0
   46.7430   33.3810   37.3460 C   0  0  0  0  0  0  0  0  0  0  0  0
   47.0270   34.6200   36.8540 O   0  0  0  0  0  0  0  0  0  0  0  0
   48.5661   36.1453   42.3530 H   0  0  0  0  0  0  0  0  0  0  0  0
   49.8191   35.8933   40.2298 H   0  0  0  0  0  0  0  0  0  0  0  0
   48.9244   34.3424   38.5287 H   0  0  0  0  0  0  0  0  0  0  0  0
   43.7356   36.6528   44.5593 H   0  0  0  0  0  0  0  0  0  0  0  0
   45.0291   36.5267   42.4300 H   0  0  0  0  0  0  0  0  0  0  0  0
   46.8730   32.6459   46.3024 H   0  0  0  0  0  0  0  0  0  0  0  0
   45.6396   30.9684   47.7022 H   0  0  0  0  0  0  0  0  0  0  0  0
   44.3987   31.5851   48.8257 H   0  0  0  0  0  0  0  0  0  0  0  0
   46.5344   31.1870   39.9213 H   0  0  0  0  0  0  0  0  0  0  0  0
   45.7894   29.7100   38.0993 H   0  0  0  0  0  0  0  0  0  0  0  0
   45.6401   30.5551   35.7557 H   0  0  0  0  0  0  0  0  0  0  0  0
   46.2673   32.9341   35.3065 H   0  0  0  0  0  0  0  0  0  0  0  0
   47.3407   35.3346   37.4632 H   0  0  0  0  0  0  0  0  0  0  0  0
  2  1  1  0
  2  3  2  0
  3 10  1  0
  4  3  1  0
  5  4  2  0
  6  7  2  0
  6  5  1  0
  7  2  1  0
  8 13  2  0
  9  8  1  0
 10  9  2  0
 10 11  1  0
 11 12  2  0
 12 13  1  0
 12 16  1  0
 14 18  1  0
 15 14  2  0
 15 17  1  0
 16 15  1  0
 19 20  2  0
 19  7  1  0
 21 20  1  0
 22 21  2  0
 23 22  1  0
 23 24  2  0
 24 19  1  0
 25 24  1  0
  4 26  1  0
  5 27  1  0
  6 28  1  0
  8 29  1  0
  9 30  1  0
 16 31  1  0
 17 32  1  0
 17 33  1  0
 20 34  1  0
 21 35  1  0
 22 36  1  0
 23 37  1  0
 25 38  1  0
M  ISO  8  26  14  27  14  28  14  29  14  30  14  34  14  35  14  36  14
M  ISO  2  37  14  38   3
M  END
>  <minimizedAffinity>  (1) 
-7.86405039

>  <minimizedRMSD>  (1) 
0.230565488

$$$$
