
     RDKit          3D

 47 50  0  0  0  0  0  0  0  0999 V2000
   45.3870   33.1050   41.2070 F   0  0  0  0  0  0  0  0  0  0  0  0
   46.5000   33.8480   41.0260 C   0  0  0  0  0  0  0  0  0  0  0  0
   46.9580   34.6610   42.0040 C   0  0  0  0  0  0  0  0  0  0  0  0
   48.1050   35.3870   41.7320 C   0  0  0  0  0  0  0  0  0  0  0  0
   48.7640   35.3050   40.5370 C   0  0  0  0  0  0  0  0  0  0  0  0
   48.2400   34.4600   39.5940 C   0  0  0  0  0  0  0  0  0  0  0  0
   47.1190   33.7230   39.8020 C   0  0  0  0  0  0  0  0  0  0  0  0
   46.6590   32.8670   38.7340 C   0  0  0  0  0  0  0  0  0  0  0  0
   46.2240   31.5870   39.0160 C   0  0  0  0  0  0  0  0  0  0  0  0
   45.7920   30.7910   38.0040 C   0  0  0  0  0  0  0  0  0  0  0  0
   45.7820   31.2520   36.6810 C   0  0  0  0  0  0  0  0  0  0  0  0
   46.2320   32.5530   36.4480 C   0  0  0  0  0  0  0  0  0  0  0  0
   46.6700   33.3600   37.4710 C   0  0  0  0  0  0  0  0  0  0  0  0
   47.0550   34.5800   36.9800 O   0  0  0  0  0  0  0  0  0  0  0  0
   44.5520   35.7040   44.7320 C   0  0  0  0  0  0  0  0  0  0  0  0
   45.2440   35.6630   43.5150 C   0  0  0  0  0  0  0  0  0  0  0  0
   46.2220   34.7190   43.2720 C   0  0  0  0  0  0  0  0  0  0  0  0
   46.4630   33.8480   44.2800 N   0  0  0  0  0  0  0  0  0  0  0  0
   45.8040   33.8880   45.4390 C   0  0  0  0  0  0  0  0  0  0  0  0
   44.8620   34.8010   45.6640 N   0  0  0  0  0  0  0  0  0  0  0  0
   46.1190   32.8970   46.5050 C   0  0  0  0  0  0  0  0  0  0  0  0
   46.0900   31.4680   46.0080 C   0  0  0  0  0  0  0  0  0  0  0  0
   45.6360   30.5110   47.0860 C   0  0  0  0  0  0  0  0  0  0  0  0
   46.2630   30.9030   48.4210 C   0  0  0  0  0  0  0  0  0  0  0  0
   45.8390   32.2790   48.8350 C   0  0  0  0  0  0  0  0  0  0  0  0
   45.1390   32.9650   47.6580 C   0  0  0  0  0  0  0  0  0  0  0  0
   48.5022   36.0569   42.5088 H   0  0  0  0  0  0  0  0  0  0  0  0
   49.6741   35.8910   40.3412 H   0  0  0  0  0  0  0  0  0  0  0  0
   48.7513   34.3749   38.6238 H   0  0  0  0  0  0  0  0  0  0  0  0
   46.2274   31.2154   40.0513 H   0  0  0  0  0  0  0  0  0  0  0  0
   45.4454   29.7709   38.2260 H   0  0  0  0  0  0  0  0  0  0  0  0
   45.4327   30.6129   35.8567 H   0  0  0  0  0  0  0  0  0  0  0  0
   46.2361   32.9423   35.4192 H   0  0  0  0  0  0  0  0  0  0  0  0
   47.3965   35.2760   37.5957 H   0  0  0  0  0  0  0  0  0  0  0  0
   43.7741   36.4601   44.9145 H   0  0  0  0  0  0  0  0  0  0  0  0
   45.0028   36.3999   42.7347 H   0  0  0  0  0  0  0  0  0  0  0  0
   47.1337   33.1675   46.8323 H   0  0  0  0  0  0  0  0  0  0  0  0
   45.3970   31.4006   45.1564 H   0  0  0  0  0  0  0  0  0  0  0  0
   47.1107   31.1881   45.7083 H   0  0  0  0  0  0  0  0  0  0  0  0
   44.5400   30.5502   47.1715 H   0  0  0  0  0  0  0  0  0  0  0  0
   45.9503   29.4904   46.8223 H   0  0  0  0  0  0  0  0  0  0  0  0
   45.9474   30.1834   49.1908 H   0  0  0  0  0  0  0  0  0  0  0  0
   47.3571   30.8947   48.3079 H   0  0  0  0  0  0  0  0  0  0  0  0
   45.1456   32.2100   49.6861 H   0  0  0  0  0  0  0  0  0  0  0  0
   46.7217   32.8642   49.1324 H   0  0  0  0  0  0  0  0  0  0  0  0
   44.9092   34.0119   47.9053 H   0  0  0  0  0  0  0  0  0  0  0  0
   44.1852   32.4759   47.4107 H   0  0  0  0  0  0  0  0  0  0  0  0
  2  1  1  0
  2  3  2  0
  3 17  1  0
  4  3  1  0
  5  4  2  0
  6  7  2  0
  6  5  1  0
  7  2  1  0
  8  9  2  0
  8  7  1  0
 10  9  1  0
 11 10  2  0
 12 11  1  0
 12 13  2  0
 13  8  1  0
 14 13  1  0
 15 20  2  0
 16 15  1  0
 17 16  2  0
 17 18  1  0
 18 19  2  0
 19 20  1  0
 19 21  1  0
 21 26  1  0
 22 21  1  0
 22 23  1  0
 23 24  1  0
 24 25  1  0
 26 25  1  0
  4 27  1  0
  5 28  1  0
  6 29  1  0
  9 30  1  0
 10 31  1  0
 11 32  1  0
 12 33  1  0
 14 34  1  0
 15 35  1  0
 16 36  1  0
 21 37  1  0
 22 38  1  0
 22 39  1  0
 23 40  1  0
 23 41  1  0
 24 42  1  0
 24 43  1  0
 25 44  1  0
 25 45  1  0
 26 46  1  0
 26 47  1  0
M  ISO  8  27  14  28  14  29  14  30  14  31  14  32  14  33  14  34   3
M  ISO  8  35  14  36  14  37  13  38  13  39  13  40  13  41  13  42  13
M  ISO  5  43  13  44  13  45  13  46  13  47  13
M  END
>  <minimizedAffinity>  (1) 
-7.72677517

>  <minimizedRMSD>  (1) 
0.433297664

$$$$
