
     RDKit          3D

 42 45  0  0  0  0  0  0  0  0999 V2000
   45.3200   33.1950   41.1660 F   0  0  0  0  0  0  0  0  0  0  0  0
   46.4620   33.9100   41.0080 C   0  0  0  0  0  0  0  0  0  0  0  0
   46.9160   34.7230   41.9850 C   0  0  0  0  0  0  0  0  0  0  0  0
   48.0910   35.4170   41.7350 C   0  0  0  0  0  0  0  0  0  0  0  0
   48.7830   35.3010   40.5580 C   0  0  0  0  0  0  0  0  0  0  0  0
   48.2610   34.4550   39.6150 C   0  0  0  0  0  0  0  0  0  0  0  0
   47.1130   33.7500   39.8030 C   0  0  0  0  0  0  0  0  0  0  0  0
   46.6630   32.8890   38.7320 C   0  0  0  0  0  0  0  0  0  0  0  0
   46.2270   31.6040   39.0230 C   0  0  0  0  0  0  0  0  0  0  0  0
   45.8030   30.8030   38.0050 C   0  0  0  0  0  0  0  0  0  0  0  0
   45.8010   31.2550   36.6880 C   0  0  0  0  0  0  0  0  0  0  0  0
   46.2500   32.5560   36.4510 C   0  0  0  0  0  0  0  0  0  0  0  0
   46.6810   33.3760   37.4680 C   0  0  0  0  0  0  0  0  0  0  0  0
   47.0660   34.5880   36.9800 O   0  0  0  0  0  0  0  0  0  0  0  0
   44.5170   35.8850   44.6640 C   0  0  0  0  0  0  0  0  0  0  0  0
   45.2310   35.8250   43.4660 C   0  0  0  0  0  0  0  0  0  0  0  0
   46.1440   34.8190   43.2330 C   0  0  0  0  0  0  0  0  0  0  0  0
   46.2930   33.9150   44.2300 N   0  0  0  0  0  0  0  0  0  0  0  0
   45.6130   33.9700   45.3710 C   0  0  0  0  0  0  0  0  0  0  0  0
   44.7220   34.9570   45.5910 N   0  0  0  0  0  0  0  0  0  0  0  0
   46.6720   31.8680   46.0370 C   0  0  0  0  0  0  0  0  0  0  0  0
   45.8640   32.9350   46.3710 C   0  0  0  0  0  0  0  0  0  0  0  0
   45.2760   33.0720   47.6120 C   0  0  0  0  0  0  0  0  0  0  0  0
   45.4910   32.1030   48.5920 C   0  0  0  0  0  0  0  0  0  0  0  0
   46.2950   31.0210   48.2920 C   0  0  0  0  0  0  0  0  0  0  0  0
   46.8680   30.9150   47.0400 C   0  0  0  0  0  0  0  0  0  0  0  0
   47.7830   31.6010   43.6970 N   0  0  0  0  0  0  0  0  0  0  0  0
   47.2800   31.7300   44.7430 C   0  0  0  0  0  0  0  0  0  0  0  0
   48.4832   36.0879   42.5135 H   0  0  0  0  0  0  0  0  0  0  0  0
   49.7131   35.8603   40.3788 H   0  0  0  0  0  0  0  0  0  0  0  0
   48.7957   34.3405   38.6606 H   0  0  0  0  0  0  0  0  0  0  0  0
   46.2237   31.2373   40.0601 H   0  0  0  0  0  0  0  0  0  0  0  0
   45.4568   29.7829   38.2275 H   0  0  0  0  0  0  0  0  0  0  0  0
   45.4584   30.6111   35.8646 H   0  0  0  0  0  0  0  0  0  0  0  0
   46.2593   32.9369   35.4191 H   0  0  0  0  0  0  0  0  0  0  0  0
   47.4014   35.2861   37.5967 H   0  0  0  0  0  0  0  0  0  0  0  0
   43.7916   36.6933   44.8383 H   0  0  0  0  0  0  0  0  0  0  0  0
   45.0624   36.5923   42.6961 H   0  0  0  0  0  0  0  0  0  0  0  0
   44.6396   33.9429   47.8277 H   0  0  0  0  0  0  0  0  0  0  0  0
   45.0287   32.1989   49.5855 H   0  0  0  0  0  0  0  0  0  0  0  0
   46.4787   30.2446   49.0493 H   0  0  0  0  0  0  0  0  0  0  0  0
   47.5048   30.0447   46.8234 H   0  0  0  0  0  0  0  0  0  0  0  0
  2  1  1  0
  2  3  2  0
  3 17  1  0
  4  3  1  0
  5  4  2  0
  6  7  2  0
  6  5  1  0
  7  2  1  0
  8  9  2  0
  8  7  1  0
 10  9  1  0
 11 10  2  0
 12 11  1  0
 12 13  2  0
 13  8  1  0
 14 13  1  0
 15 20  2  0
 16 15  1  0
 17 16  2  0
 17 18  1  0
 18 19  2  0
 19 20  1  0
 19 22  1  0
 21 22  2  0
 21 26  1  0
 22 23  1  0
 23 24  2  0
 25 24  1  0
 26 25  2  0
 27 28  3  0
 28 21  1  0
  4 29  1  0
  5 30  1  0
  6 31  1  0
  9 32  1  0
 10 33  1  0
 11 34  1  0
 12 35  1  0
 14 36  1  0
 15 37  1  0
 16 38  1  0
 23 39  1  0
 24 40  1  0
 25 41  1  0
 26 42  1  0
M  ISO  8  29  14  30  14  31  14  32  14  33  14  34  14  35  14  36   3
M  ISO  6  37  14  38  14  39  14  40  14  41  14  42  14
M  END
>  <minimizedAffinity>  (1) 
-7.56677771

>  <minimizedRMSD>  (1) 
0.603988886

$$$$
