
     RDKit          3D

 38 41  0  0  0  0  0  0  0  0999 V2000
   45.2330   33.2910   41.1250 F   0  0  0  0  0  0  0  0  0  0  0  0
   46.4150   33.9490   40.9730 C   0  0  0  0  0  0  0  0  0  0  0  0
   46.8970   34.7690   41.9440 C   0  0  0  0  0  0  0  0  0  0  0  0
   48.0960   35.3970   41.7070 C   0  0  0  0  0  0  0  0  0  0  0  0
   48.8050   35.2200   40.5430 C   0  0  0  0  0  0  0  0  0  0  0  0
   48.2600   34.3820   39.6140 C   0  0  0  0  0  0  0  0  0  0  0  0
   47.0800   33.7340   39.7880 C   0  0  0  0  0  0  0  0  0  0  0  0
   46.6180   32.8780   38.7280 C   0  0  0  0  0  0  0  0  0  0  0  0
   46.1730   31.5990   39.0290 C   0  0  0  0  0  0  0  0  0  0  0  0
   45.7340   30.7950   38.0160 C   0  0  0  0  0  0  0  0  0  0  0  0
   45.7270   31.2360   36.7020 C   0  0  0  0  0  0  0  0  0  0  0  0
   46.1840   32.5330   36.4470 C   0  0  0  0  0  0  0  0  0  0  0  0
   46.6260   33.3460   37.4550 C   0  0  0  0  0  0  0  0  0  0  0  0
   47.0230   34.5650   36.9590 O   0  0  0  0  0  0  0  0  0  0  0  0
   44.4450   36.0300   44.5230 C   0  0  0  0  0  0  0  0  0  0  0  0
   45.1690   35.9270   43.3340 C   0  0  0  0  0  0  0  0  0  0  0  0
   46.1040   34.9270   43.1760 C   0  0  0  0  0  0  0  0  0  0  0  0
   46.2510   34.0890   44.2300 N   0  0  0  0  0  0  0  0  0  0  0  0
   45.5560   34.1970   45.3580 C   0  0  0  0  0  0  0  0  0  0  0  0
   44.6440   35.1790   45.5020 N   0  0  0  0  0  0  0  0  0  0  0  0
   45.8340   33.2120   46.4020 C   0  0  0  0  0  0  0  0  0  0  0  0
   46.8570   32.2770   46.4560 C   0  0  0  0  0  0  0  0  0  0  0  0
   46.7230   31.5580   47.6340 C   0  0  0  0  0  0  0  0  0  0  0  0
   45.6430   32.0520   48.2720 N   0  0  0  0  0  0  0  0  0  0  0  0
   45.1070   33.0380   47.5460 N   0  0  0  0  0  0  0  0  0  0  0  0
   48.5039   36.0669   42.4783 H   0  0  0  0  0  0  0  0  0  0  0  0
   49.7646   35.7288   40.3688 H   0  0  0  0  0  0  0  0  0  0  0  0
   48.8067   34.2230   38.6728 H   0  0  0  0  0  0  0  0  0  0  0  0
   46.1737   31.2378   40.0680 H   0  0  0  0  0  0  0  0  0  0  0  0
   45.3797   29.7796   38.2470 H   0  0  0  0  0  0  0  0  0  0  0  0
   45.3737   30.5874   35.8868 H   0  0  0  0  0  0  0  0  0  0  0  0
   46.1882   32.9080   35.4129 H   0  0  0  0  0  0  0  0  0  0  0  0
   47.3683   35.2606   37.5730 H   0  0  0  0  0  0  0  0  0  0  0  0
   43.7010   36.8317   44.6404 H   0  0  0  0  0  0  0  0  0  0  0  0
   44.9927   36.6463   42.5206 H   0  0  0  0  0  0  0  0  0  0  0  0
   47.6389   32.1312   45.6962 H   0  0  0  0  0  0  0  0  0  0  0  0
   47.3730   30.7414   47.9813 H   0  0  0  0  0  0  0  0  0  0  0  0
   45.2858   31.7206   49.1794 H   0  0  0  0  0  0  0  0  0  0  0  0
  2  1  1  0
  2  3  2  0
  3 17  1  0
  4  3  1  0
  5  4  2  0
  6  7  2  0
  6  5  1  0
  7  2  1  0
  8  9  2  0
  8  7  1  0
 10  9  1  0
 11 10  2  0
 12 11  1  0
 12 13  2  0
 13  8  1  0
 14 13  1  0
 15 20  2  0
 16 15  1  0
 17 16  2  0
 17 18  1  0
 18 19  2  0
 19 20  1  0
 19 21  1  0
 21 22  1  0
 21 25  2  0
 22 23  2  0
 23 24  1  0
 25 24  1  0
  4 26  1  0
  5 27  1  0
  6 28  1  0
  9 29  1  0
 10 30  1  0
 11 31  1  0
 12 32  1  0
 14 33  1  0
 15 34  1  0
 16 35  1  0
 22 36  1  0
 23 37  1  0
 24 38  1  0
M  ISO  8  26  14  27  14  28  14  29  14  30  14  31  14  32  14  33   3
M  ISO  5  34  14  35  14  36  14  37  14  38   9
M  END
>  <minimizedAffinity>  (1) 
-7.25925016

>  <minimizedRMSD>  (1) 
0.25065136

$$$$
