
     RDKit          3D

 34 36  0  0  0  0  0  0  0  0999 V2000
   45.2980   33.2460   41.1320 F   0  0  0  0  0  0  0  0  0  0  0  0
   46.4500   33.9310   40.9770 C   0  0  0  0  0  0  0  0  0  0  0  0
   46.9120   34.7470   41.9530 C   0  0  0  0  0  0  0  0  0  0  0  0
   48.0990   35.4090   41.7060 C   0  0  0  0  0  0  0  0  0  0  0  0
   48.8050   35.2680   40.5340 C   0  0  0  0  0  0  0  0  0  0  0  0
   48.2680   34.4200   39.5910 C   0  0  0  0  0  0  0  0  0  0  0  0
   47.0990   33.7390   39.7770 C   0  0  0  0  0  0  0  0  0  0  0  0
   46.6480   32.8830   38.7100 C   0  0  0  0  0  0  0  0  0  0  0  0
   46.2160   31.6050   39.0090 C   0  0  0  0  0  0  0  0  0  0  0  0
   45.7910   30.7970   38.0050 C   0  0  0  0  0  0  0  0  0  0  0  0
   45.7860   31.2450   36.6830 C   0  0  0  0  0  0  0  0  0  0  0  0
   46.2300   32.5440   36.4270 C   0  0  0  0  0  0  0  0  0  0  0  0
   46.6600   33.3620   37.4420 C   0  0  0  0  0  0  0  0  0  0  0  0
   47.0460   34.5830   36.9590 O   0  0  0  0  0  0  0  0  0  0  0  0
   44.4980   35.9680   44.5870 C   0  0  0  0  0  0  0  0  0  0  0  0
   45.2150   35.8840   43.3890 C   0  0  0  0  0  0  0  0  0  0  0  0
   46.1360   34.8750   43.1930 C   0  0  0  0  0  0  0  0  0  0  0  0
   46.2810   34.0060   44.2140 N   0  0  0  0  0  0  0  0  0  0  0  0
   45.5930   34.0930   45.3530 C   0  0  0  0  0  0  0  0  0  0  0  0
   44.7010   35.0780   45.5330 N   0  0  0  0  0  0  0  0  0  0  0  0
   45.8660   33.0530   46.3910 C   0  0  0  0  0  0  0  0  0  0  0  0
   45.6260   31.8080   45.8410 F   0  0  0  0  0  0  0  0  0  0  0  0
   44.9110   33.1960   47.4040 F   0  0  0  0  0  0  0  0  0  0  0  0
   47.1180   33.1730   46.9510 F   0  0  0  0  0  0  0  0  0  0  0  0
   48.4977   36.0793   42.4817 H   0  0  0  0  0  0  0  0  0  0  0  0
   49.7492   35.8045   40.3590 H   0  0  0  0  0  0  0  0  0  0  0  0
   48.8070   34.2846   38.6417 H   0  0  0  0  0  0  0  0  0  0  0  0
   46.2166   31.2467   40.0490 H   0  0  0  0  0  0  0  0  0  0  0  0
   45.4467   29.7780   38.2354 H   0  0  0  0  0  0  0  0  0  0  0  0
   45.4421   30.5934   35.8662 H   0  0  0  0  0  0  0  0  0  0  0  0
   46.2353   32.9187   35.3928 H   0  0  0  0  0  0  0  0  0  0  0  0
   47.3803   35.2778   37.5800 H   0  0  0  0  0  0  0  0  0  0  0  0
   43.7668   36.7760   44.7371 H   0  0  0  0  0  0  0  0  0  0  0  0
   45.0435   36.6278   42.5970 H   0  0  0  0  0  0  0  0  0  0  0  0
  2  1  1  0
  2  3  2  0
  3 17  1  0
  4  3  1  0
  5  4  2  0
  6  7  2  0
  6  5  1  0
  7  2  1  0
  8  9  2  0
  8  7  1  0
 10  9  1  0
 11 10  2  0
 12 11  1  0
 12 13  2  0
 13  8  1  0
 14 13  1  0
 15 20  2  0
 16 15  1  0
 17 16  2  0
 17 18  1  0
 18 19  2  0
 19 20  1  0
 19 21  1  0
 21 24  1  0
 21 23  1  0
 22 21  1  0
  4 25  1  0
  5 26  1  0
  6 27  1  0
  9 28  1  0
 10 29  1  0
 11 30  1  0
 12 31  1  0
 14 32  1  0
 15 33  1  0
 16 34  1  0
M  ISO  8  25  14  26  14  27  14  28  14  29  14  30  14  31  14  32   3
M  ISO  2  33  14  34  14
M  END
>  <minimizedAffinity>  (1) 
-7.12467861

>  <minimizedRMSD>  (1) 
0.119043596

$$$$
