
     RDKit          3D

 38 41  0  0  0  0  0  0  0  0999 V2000
   45.2950   33.2660   41.1250 F   0  0  0  0  0  0  0  0  0  0  0  0
   46.4520   33.9390   40.9730 C   0  0  0  0  0  0  0  0  0  0  0  0
   46.9150   34.7570   41.9470 C   0  0  0  0  0  0  0  0  0  0  0  0
   48.1100   35.4100   41.7080 C   0  0  0  0  0  0  0  0  0  0  0  0
   48.8130   35.2540   40.5450 C   0  0  0  0  0  0  0  0  0  0  0  0
   48.2790   34.4100   39.6080 C   0  0  0  0  0  0  0  0  0  0  0  0
   47.1110   33.7410   39.7830 C   0  0  0  0  0  0  0  0  0  0  0  0
   46.6530   32.8790   38.7190 C   0  0  0  0  0  0  0  0  0  0  0  0
   46.2210   31.6010   39.0080 C   0  0  0  0  0  0  0  0  0  0  0  0
   45.7880   30.7970   37.9990 C   0  0  0  0  0  0  0  0  0  0  0  0
   45.7780   31.2440   36.6820 C   0  0  0  0  0  0  0  0  0  0  0  0
   46.2240   32.5460   36.4370 C   0  0  0  0  0  0  0  0  0  0  0  0
   46.6620   33.3640   37.4490 C   0  0  0  0  0  0  0  0  0  0  0  0
   47.0450   34.5800   36.9600 O   0  0  0  0  0  0  0  0  0  0  0  0
   44.4770   36.0080   44.5560 C   0  0  0  0  0  0  0  0  0  0  0  0
   45.2090   35.9090   43.3710 C   0  0  0  0  0  0  0  0  0  0  0  0
   46.1250   34.8950   43.1830 C   0  0  0  0  0  0  0  0  0  0  0  0
   46.2590   34.0230   44.2090 N   0  0  0  0  0  0  0  0  0  0  0  0
   45.5540   34.1260   45.3390 C   0  0  0  0  0  0  0  0  0  0  0  0
   44.6740   35.1040   45.5140 N   0  0  0  0  0  0  0  0  0  0  0  0
   45.7160   33.1580   46.4530 C   0  0  0  0  0  0  0  0  0  0  0  0
   47.0330   32.5550   46.6930 C   0  0  0  0  0  0  0  0  0  0  0  0
   45.9750   31.7320   46.0390 C   0  0  0  0  0  0  0  0  0  0  0  0
   48.5107   36.0805   42.4825 H   0  0  0  0  0  0  0  0  0  0  0  0
   49.7624   35.7815   40.3706 H   0  0  0  0  0  0  0  0  0  0  0  0
   48.8253   34.2667   38.6640 H   0  0  0  0  0  0  0  0  0  0  0  0
   46.2265   31.2350   40.0453 H   0  0  0  0  0  0  0  0  0  0  0  0
   45.4408   29.7787   38.2284 H   0  0  0  0  0  0  0  0  0  0  0  0
   45.4317   30.5965   35.8629 H   0  0  0  0  0  0  0  0  0  0  0  0
   46.2240   32.9258   35.4046 H   0  0  0  0  0  0  0  0  0  0  0  0
   47.3849   35.2765   37.5760 H   0  0  0  0  0  0  0  0  0  0  0  0
   43.7487   36.8203   44.6961 H   0  0  0  0  0  0  0  0  0  0  0  0
   45.0526   36.6516   42.5747 H   0  0  0  0  0  0  0  0  0  0  0  0
   44.9977   33.6855   47.0978 H   0  0  0  0  0  0  0  0  0  0  0  0
   47.9027   32.8913   46.1094 H   0  0  0  0  0  0  0  0  0  0  0  0
   47.6715   32.4262   47.5794 H   0  0  0  0  0  0  0  0  0  0  0  0
   45.5023   30.9023   46.5850 H   0  0  0  0  0  0  0  0  0  0  0  0
   45.8917   31.1576   45.1046 H   0  0  0  0  0  0  0  0  0  0  0  0
  2  1  1  0
  2  3  2  0
  3 17  1  0
  4  3  1  0
  5  4  2  0
  6  7  2  0
  6  5  1  0
  7  2  1  0
  8  9  2  0
  8  7  1  0
 10  9  1  0
 11 10  2  0
 12 11  1  0
 12 13  2  0
 13  8  1  0
 14 13  1  0
 15 20  2  0
 16 15  1  0
 17 16  2  0
 17 18  1  0
 18 19  2  0
 19 20  1  0
 19 21  1  0
 21 22  1  0
 23 21  1  0
 23 22  1  0
  4 24  1  0
  5 25  1  0
  6 26  1  0
  9 27  1  0
 10 28  1  0
 11 29  1  0
 12 30  1  0
 14 31  1  0
 15 32  1  0
 16 33  1  0
 21 34  1  0
 22 35  1  0
 22 36  1  0
 23 37  1  0
 23 38  1  0
M  ISO  8  24  14  25  14  26  14  27  14  28  14  29  14  30  14  31   3
M  ISO  7  32  14  33  14  34  13  35  13  36  13  37  13  38  13
M  END
>  <minimizedAffinity>  (1) 
-6.68775558

>  <minimizedRMSD>  (1) 
0.0391144864

$$$$
