
     RDKit          3D

 33 35  0  0  0  0  0  0  0  0999 V2000
   45.2160   33.3180   41.1010 F   0  0  0  0  0  0  0  0  0  0  0  0
   46.3990   33.9680   40.9590 C   0  0  0  0  0  0  0  0  0  0  0  0
   46.8680   34.7850   41.9310 C   0  0  0  0  0  0  0  0  0  0  0  0
   48.0820   35.4040   41.6960 C   0  0  0  0  0  0  0  0  0  0  0  0
   48.8010   35.2200   40.5430 C   0  0  0  0  0  0  0  0  0  0  0  0
   48.2540   34.3760   39.6090 C   0  0  0  0  0  0  0  0  0  0  0  0
   47.0650   33.7360   39.7780 C   0  0  0  0  0  0  0  0  0  0  0  0
   44.5080   36.1610   44.5430 C   0  0  0  0  0  0  0  0  0  0  0  0
   45.2490   36.0460   43.3640 C   0  0  0  0  0  0  0  0  0  0  0  0
   46.0690   34.9550   43.1530 C   0  0  0  0  0  0  0  0  0  0  0  0
   46.0960   34.0390   44.1460 N   0  0  0  0  0  0  0  0  0  0  0  0
   45.3920   34.1470   45.2700 C   0  0  0  0  0  0  0  0  0  0  0  0
   44.5960   35.2090   45.4690 N   0  0  0  0  0  0  0  0  0  0  0  0
   45.5760   33.0620   46.1760 N   0  0  0  0  0  0  0  0  0  0  0  0
   46.6070   32.8770   38.7180 C   0  0  0  0  0  0  0  0  0  0  0  0
   46.1650   31.5950   39.0210 C   0  0  0  0  0  0  0  0  0  0  0  0
   45.7360   30.7940   38.0140 C   0  0  0  0  0  0  0  0  0  0  0  0
   45.7330   31.2340   36.6940 C   0  0  0  0  0  0  0  0  0  0  0  0
   46.1860   32.5300   36.4350 C   0  0  0  0  0  0  0  0  0  0  0  0
   46.6250   33.3550   37.4510 C   0  0  0  0  0  0  0  0  0  0  0  0
   47.0160   34.5650   36.9530 O   0  0  0  0  0  0  0  0  0  0  0  0
   48.4889   36.0736   42.4681 H   0  0  0  0  0  0  0  0  0  0  0  0
   49.7652   35.7222   40.3754 H   0  0  0  0  0  0  0  0  0  0  0  0
   48.8068   34.2078   38.6730 H   0  0  0  0  0  0  0  0  0  0  0  0
   43.8564   37.0323   44.7048 H   0  0  0  0  0  0  0  0  0  0  0  0
   45.1786   36.8314   42.5971 H   0  0  0  0  0  0  0  0  0  0  0  0
   45.0746   33.0516   47.0757 H   0  0  0  0  0  0  0  0  0  0  0  0
   46.2104   32.2884   45.9310 H   0  0  0  0  0  0  0  0  0  0  0  0
   46.1630   31.2356   40.0606 H   0  0  0  0  0  0  0  0  0  0  0  0
   45.3840   29.7778   38.2451 H   0  0  0  0  0  0  0  0  0  0  0  0
   45.3848   30.5817   35.8796 H   0  0  0  0  0  0  0  0  0  0  0  0
   46.1930   32.9009   35.3994 H   0  0  0  0  0  0  0  0  0  0  0  0
   47.3567   35.2652   37.5644 H   0  0  0  0  0  0  0  0  0  0  0  0
  2  1  1  0
  2  3  2  0
  3 10  1  0
  4  3  1  0
  5  4  2  0
  6  7  2  0
  6  5  1  0
  7  2  1  0
  8 13  2  0
  9  8  1  0
 10  9  2  0
 10 11  1  0
 11 12  2  0
 12 13  1  0
 12 14  1  0
 15 16  2  0
 15  7  1  0
 17 16  1  0
 18 17  2  0
 19 18  1  0
 19 20  2  0
 20 15  1  0
 21 20  1  0
  4 22  1  0
  5 23  1  0
  6 24  1  0
  8 25  1  0
  9 26  1  0
 14 27  1  0
 14 28  1  0
 16 29  1  0
 17 30  1  0
 18 31  1  0
 19 32  1  0
 21 33  1  0
M  ISO  8  22  14  23  14  24  14  25  14  26  14  29  14  30  14  31  14
M  ISO  2  32  14  33   3
M  END
>  <minimizedAffinity>  (1) 
-6.60834646

>  <minimizedRMSD>  (1) 
0.0878978372

$$$$
