
     RDKit          3D

 34 36  0  0  0  0  0  0  0  0999 V2000
   45.2960   33.2550   41.1140 F   0  0  0  0  0  0  0  0  0  0  0  0
   46.4550   33.9390   40.9580 C   0  0  0  0  0  0  0  0  0  0  0  0
   46.9110   34.7560   41.9310 C   0  0  0  0  0  0  0  0  0  0  0  0
   48.1050   35.4150   41.6850 C   0  0  0  0  0  0  0  0  0  0  0  0
   48.8090   35.2640   40.5190 C   0  0  0  0  0  0  0  0  0  0  0  0
   48.2820   34.4190   39.5800 C   0  0  0  0  0  0  0  0  0  0  0  0
   47.1110   33.7410   39.7640 C   0  0  0  0  0  0  0  0  0  0  0  0
   46.6560   32.8780   38.7040 C   0  0  0  0  0  0  0  0  0  0  0  0
   46.2300   31.5940   38.9980 C   0  0  0  0  0  0  0  0  0  0  0  0
   45.8030   30.7890   37.9870 C   0  0  0  0  0  0  0  0  0  0  0  0
   45.7890   31.2410   36.6690 C   0  0  0  0  0  0  0  0  0  0  0  0
   46.2260   32.5440   36.4190 C   0  0  0  0  0  0  0  0  0  0  0  0
   46.6590   33.3620   37.4380 C   0  0  0  0  0  0  0  0  0  0  0  0
   47.0350   34.5830   36.9440 O   0  0  0  0  0  0  0  0  0  0  0  0
   44.4880   36.0030   44.5370 C   0  0  0  0  0  0  0  0  0  0  0  0
   45.2070   35.9060   43.3520 C   0  0  0  0  0  0  0  0  0  0  0  0
   46.1320   34.8930   43.1660 C   0  0  0  0  0  0  0  0  0  0  0  0
   46.2770   34.0300   44.1980 N   0  0  0  0  0  0  0  0  0  0  0  0
   45.5780   34.1360   45.3300 C   0  0  0  0  0  0  0  0  0  0  0  0
   44.6920   35.1090   45.5020 N   0  0  0  0  0  0  0  0  0  0  0  0
   45.8260   33.1200   46.4010 C   0  0  0  0  0  0  0  0  0  0  0  0
   48.5045   36.0877   42.4583 H   0  0  0  0  0  0  0  0  0  0  0  0
   49.7550   35.7978   40.3455 H   0  0  0  0  0  0  0  0  0  0  0  0
   48.8264   34.2798   38.6343 H   0  0  0  0  0  0  0  0  0  0  0  0
   46.2365   31.2290   40.0356 H   0  0  0  0  0  0  0  0  0  0  0  0
   45.4642   29.7673   38.2135 H   0  0  0  0  0  0  0  0  0  0  0  0
   45.4444   30.5917   35.8506 H   0  0  0  0  0  0  0  0  0  0  0  0
   46.2241   32.9242   35.3868 H   0  0  0  0  0  0  0  0  0  0  0  0
   47.3710   35.2832   37.5579 H   0  0  0  0  0  0  0  0  0  0  0  0
   43.7560   36.8121   44.6766 H   0  0  0  0  0  0  0  0  0  0  0  0
   45.0393   36.6426   42.5525 H   0  0  0  0  0  0  0  0  0  0  0  0
   45.7108   33.5920   47.3879 H   0  0  0  0  0  0  0  0  0  0  0  0
   45.1022   32.2977   46.3011 H   0  0  0  0  0  0  0  0  0  0  0  0
   46.8473   32.7237   46.3011 H   0  0  0  0  0  0  0  0  0  0  0  0
  2  1  1  0
  2  3  2  0
  3 17  1  0
  4  3  1  0
  5  4  2  0
  6  7  2  0
  6  5  1  0
  7  2  1  0
  8  9  2  0
  8  7  1  0
 10  9  1  0
 11 10  2  0
 12 11  1  0
 12 13  2  0
 13  8  1  0
 14 13  1  0
 15 20  2  0
 16 15  1  0
 17 16  2  0
 17 18  1  0
 18 19  2  0
 19 20  1  0
 19 21  1  0
  4 22  1  0
  5 23  1  0
  6 24  1  0
  9 25  1  0
 10 26  1  0
 11 27  1  0
 12 28  1  0
 14 29  1  0
 15 30  1  0
 16 31  1  0
 21 32  1  0
 21 33  1  0
 21 34  1  0
M  ISO  8  22  14  23  14  24  14  25  14  26  14  27  14  28  14  29   3
M  ISO  5  30  14  31  14  32   8  33   8  34   8
M  END
>  <minimizedAffinity>  (1) 
-6.53771973

>  <minimizedRMSD>  (1) 
0.0363588929

$$$$
