
     RDKit          3D

 33 35  0  0  0  0  0  0  0  0999 V2000
   45.2850   33.2580   41.1250 F   0  0  0  0  0  0  0  0  0  0  0  0
   46.4460   33.9380   40.9680 C   0  0  0  0  0  0  0  0  0  0  0  0
   46.9090   34.7560   41.9420 C   0  0  0  0  0  0  0  0  0  0  0  0
   48.0990   35.4070   41.6950 C   0  0  0  0  0  0  0  0  0  0  0  0
   48.8030   35.2540   40.5270 C   0  0  0  0  0  0  0  0  0  0  0  0
   48.2680   34.4090   39.5920 C   0  0  0  0  0  0  0  0  0  0  0  0
   47.1010   33.7380   39.7730 C   0  0  0  0  0  0  0  0  0  0  0  0
   46.6430   32.8750   38.7090 C   0  0  0  0  0  0  0  0  0  0  0  0
   46.2100   31.5920   39.0060 C   0  0  0  0  0  0  0  0  0  0  0  0
   45.7810   30.7910   37.9980 C   0  0  0  0  0  0  0  0  0  0  0  0
   45.7720   31.2390   36.6850 C   0  0  0  0  0  0  0  0  0  0  0  0
   46.2160   32.5390   36.4280 C   0  0  0  0  0  0  0  0  0  0  0  0
   46.6530   33.3600   37.4460 C   0  0  0  0  0  0  0  0  0  0  0  0
   47.0360   34.5780   36.9540 O   0  0  0  0  0  0  0  0  0  0  0  0
   44.4840   35.9920   44.5620 C   0  0  0  0  0  0  0  0  0  0  0  0
   45.2060   35.9050   43.3640 C   0  0  0  0  0  0  0  0  0  0  0  0
   46.1260   34.8930   43.1770 C   0  0  0  0  0  0  0  0  0  0  0  0
   46.2700   34.0250   44.2070 N   0  0  0  0  0  0  0  0  0  0  0  0
   45.5770   34.1200   45.3420 C   0  0  0  0  0  0  0  0  0  0  0  0
   44.6920   35.0930   45.5200 N   0  0  0  0  0  0  0  0  0  0  0  0
   45.7880   33.1450   46.4070 C   0  0  0  0  0  0  0  0  0  0  0  0
   45.0830   33.1430   47.4480 O   0  0  0  0  0  0  0  0  0  0  0  0
   48.5017   36.0783   42.4678 H   0  0  0  0  0  0  0  0  0  0  0  0
   49.7505   35.7842   40.3507 H   0  0  0  0  0  0  0  0  0  0  0  0
   48.8109   34.2662   38.6460 H   0  0  0  0  0  0  0  0  0  0  0  0
   46.2141   31.2283   40.0441 H   0  0  0  0  0  0  0  0  0  0  0  0
   45.4354   29.7717   38.2253 H   0  0  0  0  0  0  0  0  0  0  0  0
   45.4249   30.5887   35.8685 H   0  0  0  0  0  0  0  0  0  0  0  0
   46.2169   32.9144   35.3940 H   0  0  0  0  0  0  0  0  0  0  0  0
   47.3744   35.2761   37.5690 H   0  0  0  0  0  0  0  0  0  0  0  0
   43.7503   36.7983   44.7091 H   0  0  0  0  0  0  0  0  0  0  0  0
   45.0388   36.6466   42.5690 H   0  0  0  0  0  0  0  0  0  0  0  0
   46.5834   32.3933   46.2963 H   0  0  0  0  0  0  0  0  0  0  0  0
  2  1  1  0
  2  3  2  0
  3 17  1  0
  4  3  1  0
  5  4  2  0
  6  7  2  0
  6  5  1  0
  7  2  1  0
  8  9  2  0
  8  7  1  0
 10  9  1  0
 11 10  2  0
 12 11  1  0
 12 13  2  0
 13  8  1  0
 14 13  1  0
 15 20  2  0
 16 15  1  0
 17 16  2  0
 17 18  1  0
 18 19  2  0
 19 20  1  0
 19 21  1  0
 21 22  2  0
  4 23  1  0
  5 24  1  0
  6 25  1  0
  9 26  1  0
 10 27  1  0
 11 28  1  0
 12 29  1  0
 14 30  1  0
 15 31  1  0
 16 32  1  0
 21 33  1  0
M  ISO  8  23  14  24  14  25  14  26  14  27  14  28  14  29  14  30   3
M  ISO  3  31  14  32  14  33   6
M  END
>  <minimizedAffinity>  (1) 
-6.5245142

>  <minimizedRMSD>  (1) 
0.0678060576

$$$$
