
     RDKit          3D

 13 13  0  0  0  0  0  0  0  0999 V2000
   44.4910   36.0200   44.5050 C   0  0  0  0  0  0  0  0  0  0  0  0
   45.1380   36.0010   43.2610 C   0  0  0  0  0  0  0  0  0  0  0  0
   46.0650   34.9820   43.0360 C   0  0  0  0  0  0  0  0  0  0  0  0
   46.3060   34.0590   44.0130 N   0  0  0  0  0  0  0  0  0  0  0  0
   45.6540   34.1180   45.2070 C   0  0  0  0  0  0  0  0  0  0  0  0
   44.7630   35.0930   45.4290 N   0  0  0  0  0  0  0  0  0  0  0  0
   45.9960   33.0560   46.2020 C   0  0  0  0  0  0  0  0  0  0  0  0
   43.7523   36.8055   44.7227 H   0  0  0  0  0  0  0  0  0  0  0  0
   44.9235   36.7589   42.4931 H   0  0  0  0  0  0  0  0  0  0  0  0
   46.5989   34.9228   42.0761 H   0  0  0  0  0  0  0  0  0  0  0  0
   45.8683   33.4526   47.2201 H   0  0  0  0  0  0  0  0  0  0  0  0
   45.3308   32.1917   46.0590 H   0  0  0  0  0  0  0  0  0  0  0  0
   47.0406   32.7423   46.0590 H   0  0  0  0  0  0  0  0  0  0  0  0
  1  6  2  0
  2  1  1  0
  3  2  2  0
  3  4  1  0
  4  5  2  0
  5  6  1  0
  5  7  1  0
  1  8  1  0
  2  9  1  0
  3 10  1  0
  7 11  1  0
  7 12  1  0
  7 13  1  0
M  ISO  6   8  14   9  14  10  14  11   8  12   8  13   8
M  END
>  <minimizedAffinity>  (1) 
-3.00386739

>  <minimizedRMSD>  (1) 
0.526578009

$$$$
