
     RDKit          3D

 20 21  0  0  0  0  0  0  0  0999 V2000
   46.8280   32.8560   46.5040 C   0  0  0  0  0  0  0  0  0  0  0  0
   44.5440   35.3670   44.9590 C   0  0  0  0  0  0  0  0  0  0  0  0
   45.0370   35.4430   43.6560 C   0  0  0  0  0  0  0  0  0  0  0  0
   46.1370   34.6390   43.3250 C   0  0  0  0  0  0  0  0  0  0  0  0
   46.6670   33.8310   44.2810 N   0  0  0  0  0  0  0  0  0  0  0  0
   46.1550   33.7890   45.5410 C   0  0  0  0  0  0  0  0  0  0  0  0
   45.1020   34.5580   45.8560 N   0  0  0  0  0  0  0  0  0  0  0  0
   45.9970   31.6520   46.7640 C   0  0  0  0  0  0  0  0  0  0  0  0
   45.4380   31.1890   47.9340 C   0  0  0  0  0  0  0  0  0  0  0  0
   44.7810   30.0290   47.5420 C   0  0  0  0  0  0  0  0  0  0  0  0
   44.9360   29.8080   46.2170 N   0  0  0  0  0  0  0  0  0  0  0  0
   45.6770   30.8080   45.7750 N   0  0  0  0  0  0  0  0  0  0  0  0
   46.9993   33.3843   47.4535 H   0  0  0  0  0  0  0  0  0  0  0  0
   47.7805   32.5297   46.0610 H   0  0  0  0  0  0  0  0  0  0  0  0
   43.6814   35.9849   45.2490 H   0  0  0  0  0  0  0  0  0  0  0  0
   44.5779   36.1116   42.9129 H   0  0  0  0  0  0  0  0  0  0  0  0
   46.5629   34.6617   42.3111 H   0  0  0  0  0  0  0  0  0  0  0  0
   45.4973   31.6317   48.9392 H   0  0  0  0  0  0  0  0  0  0  0  0
   44.2105   29.3769   48.2197 H   0  0  0  0  0  0  0  0  0  0  0  0
   44.5559   29.0241   45.6676 H   0  0  0  0  0  0  0  0  0  0  0  0
  1  8  1  0
  2  7  2  0
  3  2  1  0
  4  3  2  0
  4  5  1  0
  5  6  2  0
  6  7  1  0
  6  1  1  0
  8  9  1  0
 10  9  2  0
 11 10  1  0
 12 11  1  0
 12  8  2  0
  1 13  1  0
  1 14  1  0
  2 15  1  0
  3 16  1  0
  4 17  1  0
  9 18  1  0
 10 19  1  0
 11 20  1  0
M  ISO  8  13   8  14   8  15  14  16  14  17  14  18  14  19  14  20   9
M  END
>  <minimizedAffinity>  (1) 
-3.72388172

>  <minimizedRMSD>  (1) 
1.05842388

$$$$
