
     RDKit          3D

 41 44  0  0  1  0  0  0  0  0999 V2000
   48.1490   33.3000   41.9920 C   0  0  0  0  0  0  0  0  0  0  0  0
   48.3670   32.7860   40.6430 C   0  0  0  0  0  0  0  0  0  0  0  0
   49.5280   32.3380   40.2950 C   0  0  0  0  0  0  0  0  0  0  0  0
   49.7610   31.8470   38.9900 N   0  0  0  0  0  0  0  0  0  0  0  0
   50.3260   30.8050   38.1670 C   0  0  0  0  0  0  0  0  0  0  0  0
   51.2810   29.9810   38.2810 O   0  0  0  0  0  0  0  0  0  0  0  0
   49.2710   31.1700   37.1680 C   0  0  0  0  0  0  0  0  0  0  0  0
   49.3150   32.5570   37.7780 C   0  0  1  0  0  0  0  0  0  0  0  0
   47.7430   33.3540   38.1060 S   0  0  0  0  0  0  0  0  0  0  0  0
   47.1880   32.8190   39.7370 C   0  0  0  0  0  0  0  0  0  0  0  0
   50.6300   32.3360   41.2620 C   0  0  0  0  0  0  0  0  0  0  0  0
   51.8250   32.0040   40.9910 O   0  0  0  0  0  0  0  0  0  0  0  0
   51.4090   32.4370   42.3610 O   0  0  0  0  0  0  0  0  0  0  0  0
   47.0140   34.7510   41.9320 S   0  0  0  0  0  0  0  0  0  0  0  0
   44.4880   35.7480   44.9430 C   0  0  0  0  0  0  0  0  0  0  0  0
   45.1760   35.7790   43.6960 C   0  0  0  0  0  0  0  0  0  0  0  0
   46.1280   34.7560   43.4750 C   0  0  0  0  0  0  0  0  0  0  0  0
   46.3150   33.8350   44.4390 N   0  0  0  0  0  0  0  0  0  0  0  0
   45.6460   33.8380   45.6000 C   0  0  0  0  0  0  0  0  0  0  0  0
   44.7350   34.7870   45.8580 N   0  0  0  0  0  0  0  0  0  0  0  0
   47.3430   31.5400   44.6500 Cl  0  0  0  0  0  0  0  0  0  0  0  0
   46.6900   31.6960   46.2530 C   0  0  0  0  0  0  0  0  0  0  0  0
   45.9210   32.7950   46.5830 C   0  0  0  0  0  0  0  0  0  0  0  0
   45.4090   32.9050   47.8610 C   0  0  0  0  0  0  0  0  0  0  0  0
   45.6090   31.9760   48.8640 C   0  0  0  0  0  0  0  0  0  0  0  0
   46.3750   30.8800   48.5350 C   0  0  0  0  0  0  0  0  0  0  0  0
   46.8940   30.7600   47.2550 C   0  0  0  0  0  0  0  0  0  0  0  0
   47.7013   32.5118   42.6151 H   0  0  0  0  0  0  0  0  0  0  0  0
   49.1126   33.6104   42.4223 H   0  0  0  0  0  0  0  0  0  0  0  0
   48.3146   30.6403   37.2893 H   0  0  0  0  0  0  0  0  0  0  0  0
   49.3956   30.9963   36.0890 H   0  0  0  0  0  0  0  0  0  0  0  0
   49.8341   33.3764   37.2592 H   0  0  0  0  0  0  0  0  0  0  0  0
   46.4397   33.5254   40.1257 H   0  0  0  0  0  0  0  0  0  0  0  0
   46.7304   31.8207   39.6734 H   0  0  0  0  0  0  0  0  0  0  0  0
   52.3720   32.2137   42.3074 H   0  0  0  0  0  0  0  0  0  0  0  0
   43.7399   36.5234   45.1648 H   0  0  0  0  0  0  0  0  0  0  0  0
   44.9775   36.5573   42.9445 H   0  0  0  0  0  0  0  0  0  0  0  0
   44.8014   33.7914   48.0960 H   0  0  0  0  0  0  0  0  0  0  0  0
   45.1804   32.1047   49.8689 H   0  0  0  0  0  0  0  0  0  0  0  0
   46.5747   30.1015   49.2860 H   0  0  0  0  0  0  0  0  0  0  0  0
   47.5013   29.8730   47.0216 H   0  0  0  0  0  0  0  0  0  0  0  0
  2  1  1  0
  3  2  2  0
  3 11  1  0
  4  3  1  0
  5  6  2  0
  5  4  1  0
  7  8  1  0
  7  5  1  0
  8  9  1  0
  8  4  1  0
  9 10  1  0
 10  2  1  0
 11 13  1  0
 12 11  2  0
 14  1  1  0
 14 17  1  0
 15 20  2  0
 16 15  1  0
 17 16  2  0
 17 18  1  0
 18 19  2  0
 19 20  1  0
 19 23  1  0
 21 22  1  0
 22 23  2  0
 22 27  1  0
 23 24  1  0
 24 25  2  0
 26 25  1  0
 27 26  2  0
  1 28  1  0
  1 29  1  0
  7 30  1  0
  7 31  1  0
  8 32  1  6
 10 33  1  0
 10 34  1  0
 13 35  1  0
 15 36  1  0
 16 37  1  0
 24 38  1  0
 25 39  1  0
 26 40  1  0
 27 41  1  0
M  ISO  8  28   8  29   8  30  13  31  13  32  13  33  13  34  13  35   3
M  ISO  6  36  14  37  14  38  14  39  14  40  14  41  14
M  END
>  <minimizedAffinity>  (1) 
-6.04775858

>  <minimizedRMSD>  (1) 
0.287233472

$$$$
