
     RDKit          3D

 40 43  0  0  1  0  0  0  0  0999 V2000
   47.8380   32.5320   42.2430 C   0  0  0  0  0  0  0  0  0  0  0  0
   48.3430   32.1370   40.9240 C   0  0  0  0  0  0  0  0  0  0  0  0
   49.6080   32.2200   40.6510 C   0  0  0  0  0  0  0  0  0  0  0  0
   50.1140   31.8590   39.3980 N   0  0  0  0  0  0  0  0  0  0  0  0
   51.1250   31.1260   38.6600 C   0  0  0  0  0  0  0  0  0  0  0  0
   52.3150   30.7730   38.8790 O   0  0  0  0  0  0  0  0  0  0  0  0
   50.0790   31.0210   37.5810 C   0  0  0  0  0  0  0  0  0  0  0  0
   49.5050   32.3080   38.1340 C   0  0  1  0  0  0  0  0  0  0  0  0
   47.7190   32.3540   38.3380 S   0  0  0  0  0  0  0  0  0  0  0  0
   47.3190   31.6510   39.9600 C   0  0  0  0  0  0  0  0  0  0  0  0
   50.5330   32.7090   41.6880 C   0  0  0  0  0  0  0  0  0  0  0  0
   51.2350   31.9610   42.4290 O   0  0  0  0  0  0  0  0  0  0  0  0
   51.2860   33.4530   42.5510 O   0  0  0  0  0  0  0  0  0  0  0  0
   46.9220   34.1130   42.1100 S   0  0  0  0  0  0  0  0  0  0  0  0
   44.5110   35.5880   45.0120 C   0  0  0  0  0  0  0  0  0  0  0  0
   45.1570   35.4300   43.7490 C   0  0  0  0  0  0  0  0  0  0  0  0
   46.0880   34.3550   43.6560 C   0  0  0  0  0  0  0  0  0  0  0  0
   46.3000   33.5640   44.7440 N   0  0  0  0  0  0  0  0  0  0  0  0
   45.6580   33.7710   45.8920 C   0  0  0  0  0  0  0  0  0  0  0  0
   44.7730   34.7620   46.0450 N   0  0  0  0  0  0  0  0  0  0  0  0
   45.9380   32.8800   47.0140 C   0  0  0  0  0  0  0  0  0  0  0  0
   44.9790   32.5150   47.9360 C   0  0  0  0  0  0  0  0  0  0  0  0
   45.3190   31.6570   48.9860 C   0  0  0  0  0  0  0  0  0  0  0  0
   46.5940   31.1560   49.1340 C   0  0  0  0  0  0  0  0  0  0  0  0
   47.5140   31.5520   48.1860 C   0  0  0  0  0  0  0  0  0  0  0  0
   47.1910   32.3780   47.1730 N   0  0  0  0  0  0  0  0  0  0  0  0
   47.1643   31.7508   42.6249 H   0  0  0  0  0  0  0  0  0  0  0  0
   48.6855   32.6606   42.9324 H   0  0  0  0  0  0  0  0  0  0  0  0
   49.4165   30.1468   37.6636 H   0  0  0  0  0  0  0  0  0  0  0  0
   50.3426   30.9061   36.5192 H   0  0  0  0  0  0  0  0  0  0  0  0
   49.6751   33.2656   37.6200 H   0  0  0  0  0  0  0  0  0  0  0  0
   46.3188   31.9819   40.2762 H   0  0  0  0  0  0  0  0  0  0  0  0
   47.3195   30.5519   39.9162 H   0  0  0  0  0  0  0  0  0  0  0  0
   51.8940   33.0044   43.1907 H   0  0  0  0  0  0  0  0  0  0  0  0
   43.7831   36.4019   45.1456 H   0  0  0  0  0  0  0  0  0  0  0  0
   44.9490   36.0971   42.8995 H   0  0  0  0  0  0  0  0  0  0  0  0
   43.9516   32.8973   47.8454 H   0  0  0  0  0  0  0  0  0  0  0  0
   44.5460   31.3735   49.7154 H   0  0  0  0  0  0  0  0  0  0  0  0
   46.8622   30.4802   49.9594 H   0  0  0  0  0  0  0  0  0  0  0  0
   48.5467   31.1804   48.2600 H   0  0  0  0  0  0  0  0  0  0  0  0
  2  1  1  0
  3  2  2  0
  3 11  1  0
  4  3  1  0
  5  6  2  0
  5  4  1  0
  7  8  1  0
  7  5  1  0
  8  9  1  0
  8  4  1  0
  9 10  1  0
 10  2  1  0
 11 12  2  0
 11 13  1  0
 14  1  1  0
 14 17  1  0
 15 20  2  0
 16 15  1  0
 17 16  2  0
 17 18  1  0
 18 19  2  0
 19 20  1  0
 19 21  1  0
 21 26  1  0
 21 22  2  0
 22 23  1  0
 23 24  2  0
 25 24  1  0
 26 25  2  0
  1 27  1  0
  1 28  1  0
  7 29  1  0
  7 30  1  0
  8 31  1  6
 10 32  1  0
 10 33  1  0
 13 34  1  0
 15 35  1  0
 16 36  1  0
 22 37  1  0
 23 38  1  0
 24 39  1  0
 25 40  1  0
M  ISO  8  27   8  28   8  29  13  30  13  31  13  32  13  33  13  34   3
M  ISO  6  35  14  36  14  37  14  38  14  39  14  40  14
M  END
>  <minimizedAffinity>  (1) 
-5.99962473

>  <minimizedRMSD>  (1) 
0.817339242

$$$$
