
     RDKit          3D

 35 37  0  0  0  0  0  0  0  0999 V2000
   43.7190   35.1380   42.3020 C   0  0  0  0  0  0  0  0  0  0  0  0
   42.8050   35.1010   41.2730 C   0  0  0  0  0  0  0  0  0  0  0  0
   43.1790   34.4820   40.1050 C   0  0  0  0  0  0  0  0  0  0  0  0
   44.4220   33.8850   39.8870 C   0  0  0  0  0  0  0  0  0  0  0  0
   45.3290   33.9380   40.9480 C   0  0  0  0  0  0  0  0  0  0  0  0
   44.9620   34.5620   42.1340 C   0  0  0  0  0  0  0  0  0  0  0  0
   41.4580   35.6960   41.3770 C   0  0  0  0  0  0  0  0  0  0  0  0
   39.2150   32.7250   41.3020 C   0  0  0  0  0  0  0  0  0  0  0  0
   38.3780   33.0480   40.2340 C   0  0  0  0  0  0  0  0  0  0  0  0
   38.5990   34.2520   39.5780 C   0  0  0  0  0  0  0  0  0  0  0  0
   39.6020   35.0670   39.9860 N   0  0  0  0  0  0  0  0  0  0  0  0
   40.3980   34.7130   41.0360 C   0  0  0  0  0  0  0  0  0  0  0  0
   40.1930   33.5470   41.6790 N   0  0  0  0  0  0  0  0  0  0  0  0
   43.4010   35.7430   43.4910 O   0  0  0  0  0  0  0  0  0  0  0  0
   45.8920   34.5850   43.1480 O   0  0  0  0  0  0  0  0  0  0  0  0
   47.2360   34.5780   42.8020 C   0  0  0  0  0  0  0  0  0  0  0  0
   47.9500   33.4600   43.2290 C   0  0  0  0  0  0  0  0  0  0  0  0
   49.3000   33.3910   42.9150 C   0  0  0  0  0  0  0  0  0  0  0  0
   49.9310   34.4050   42.1940 C   0  0  0  0  0  0  0  0  0  0  0  0
   49.1610   35.4920   41.8000 C   0  0  0  0  0  0  0  0  0  0  0  0
   47.8140   35.6090   42.0860 C   0  0  0  0  0  0  0  0  0  0  0  0
   42.4476   34.4548   39.2838 H   0  0  0  0  0  0  0  0  0  0  0  0
   44.6733   33.3997   38.9324 H   0  0  0  0  0  0  0  0  0  0  0  0
   46.3277   33.4885   40.8452 H   0  0  0  0  0  0  0  0  0  0  0  0
   41.3013   36.0467   42.4078 H   0  0  0  0  0  0  0  0  0  0  0  0
   41.3949   36.5312   40.6639 H   0  0  0  0  0  0  0  0  0  0  0  0
   39.0653   31.7777   41.8407 H   0  0  0  0  0  0  0  0  0  0  0  0
   37.5692   32.3711   39.9215 H   0  0  0  0  0  0  0  0  0  0  0  0
   37.9619   34.5432   38.7299 H   0  0  0  0  0  0  0  0  0  0  0  0
   44.0626   35.7663   44.2271 H   0  0  0  0  0  0  0  0  0  0  0  0
   47.4585   32.6568   43.7976 H   0  0  0  0  0  0  0  0  0  0  0  0
   49.8848   32.5184   43.2415 H   0  0  0  0  0  0  0  0  0  0  0  0
   51.0011   34.3458   41.9461 H   0  0  0  0  0  0  0  0  0  0  0  0
   49.6473   36.2992   41.2325 H   0  0  0  0  0  0  0  0  0  0  0  0
   47.2295   36.4816   41.7591 H   0  0  0  0  0  0  0  0  0  0  0  0
  1 14  1  0
  2  7  1  0
  2  1  2  0
  3  2  1  0
  4  3  2  0
  4  5  1  0
  5  6  2  0
  6  1  1  0
  6 15  1  0
  8 13  2  0
  9  8  1  0
 10 11  1  0
 10  9  2  0
 11 12  2  0
 12  7  1  0
 12 13  1  0
 16 15  1  0
 16 17  2  0
 18 17  1  0
 19 18  2  0
 20 21  2  0
 20 19  1  0
 21 16  1  0
  3 22  1  0
  4 23  1  0
  5 24  1  0
  7 25  1  0
  7 26  1  0
  8 27  1  0
  9 28  1  0
 10 29  1  0
 14 30  1  0
 17 31  1  0
 18 32  1  0
 19 33  1  0
 20 34  1  0
 21 35  1  0
M  ISO  8  22  14  23  14  24  14  25   8  26   8  27  14  28  14  29  14
M  ISO  6  30   3  31  14  32  14  33  14  34  14  35  14
M  END
>  <minimizedAffinity>  (1) 
-6.29818058

>  <minimizedRMSD>  (1) 
8.30175781

$$$$
