
     RDKit          3D

 41 43  0  0  0  0  0  0  0  0999 V2000
   43.6810   35.2500   42.1770 C   0  0  0  0  0  0  0  0  0  0  0  0
   42.5910   34.9870   41.3770 C   0  0  0  0  0  0  0  0  0  0  0  0
   42.7900   34.3390   40.1950 C   0  0  0  0  0  0  0  0  0  0  0  0
   44.0340   33.9190   39.7360 C   0  0  0  0  0  0  0  0  0  0  0  0
   45.1290   34.1840   40.5440 C   0  0  0  0  0  0  0  0  0  0  0  0
   44.9340   34.8460   41.7500 C   0  0  0  0  0  0  0  0  0  0  0  0
   41.2160   35.3880   41.7640 C   0  0  0  0  0  0  0  0  0  0  0  0
   39.0000   32.4710   41.2110 C   0  0  0  0  0  0  0  0  0  0  0  0
   38.2550   32.8780   40.1180 C   0  0  0  0  0  0  0  0  0  0  0  0
   38.5260   34.1280   39.6040 C   0  0  0  0  0  0  0  0  0  0  0  0
   39.4820   34.8930   40.1620 N   0  0  0  0  0  0  0  0  0  0  0  0
   40.1980   34.4780   41.2270 C   0  0  0  0  0  0  0  0  0  0  0  0
   39.9440   33.2670   41.7360 N   0  0  0  0  0  0  0  0  0  0  0  0
   43.5350   35.8980   43.3790 O   0  0  0  0  0  0  0  0  0  0  0  0
   46.0470   35.1010   42.5360 O   0  0  0  0  0  0  0  0  0  0  0  0
   46.9870   34.1080   42.6650 C   0  0  0  0  0  0  0  0  0  0  0  0
   46.7080   33.0880   43.5730 C   0  0  0  0  0  0  0  0  0  0  0  0
   47.6410   32.0660   43.7280 C   0  0  0  0  0  0  0  0  0  0  0  0
   48.8280   32.0480   42.9990 C   0  0  0  0  0  0  0  0  0  0  0  0
   49.0450   33.0880   42.1150 C   0  0  0  0  0  0  0  0  0  0  0  0
   48.1450   34.1230   41.9320 C   0  0  0  0  0  0  0  0  0  0  0  0
   48.5060   35.2140   40.9670 C   0  0  0  0  0  0  0  0  0  0  0  0
   49.3240   36.2840   41.6700 C   0  0  0  0  0  0  0  0  0  0  0  0
   41.9120   34.1353   39.5644 H   0  0  0  0  0  0  0  0  0  0  0  0
   44.1443   33.3988   38.7731 H   0  0  0  0  0  0  0  0  0  0  0  0
   46.1382   33.8745   40.2346 H   0  0  0  0  0  0  0  0  0  0  0  0
   41.1442   35.3908   42.8616 H   0  0  0  0  0  0  0  0  0  0  0  0
   41.0272   36.3879   41.3462 H   0  0  0  0  0  0  0  0  0  0  0  0
   38.8158   31.4817   41.6553 H   0  0  0  0  0  0  0  0  0  0  0  0
   37.4805   32.2322   39.6786 H   0  0  0  0  0  0  0  0  0  0  0  0
   37.9604   34.5003   38.7371 H   0  0  0  0  0  0  0  0  0  0  0  0
   44.3282   36.0798   43.9429 H   0  0  0  0  0  0  0  0  0  0  0  0
   45.7734   33.0903   44.1531 H   0  0  0  0  0  0  0  0  0  0  0  0
   47.4362   31.2547   44.4420 H   0  0  0  0  0  0  0  0  0  0  0  0
   49.5628   31.2388   43.1220 H   0  0  0  0  0  0  0  0  0  0  0  0
   49.9764   33.0932   41.5297 H   0  0  0  0  0  0  0  0  0  0  0  0
   47.5859   35.6643   40.5663 H   0  0  0  0  0  0  0  0  0  0  0  0
   49.1017   34.7865   40.1470 H   0  0  0  0  0  0  0  0  0  0  0  0
   49.2300   36.1610   42.7590 H   0  0  0  0  0  0  0  0  0  0  0  0
   50.3807   36.1874   41.3800 H   0  0  0  0  0  0  0  0  0  0  0  0
   48.9536   37.2783   41.3800 H   0  0  0  0  0  0  0  0  0  0  0  0
  1 14  1  0
  2  7  1  0
  2  1  2  0
  3  2  1  0
  4  3  2  0
  4  5  1  0
  5  6  2  0
  6  1  1  0
  6 15  1  0
  8 13  2  0
  9  8  1  0
 10  9  2  0
 10 11  1  0
 11 12  2  0
 12 13  1  0
 12  7  1  0
 15 16  1  0
 16 17  2  0
 17 18  1  0
 19 18  2  0
 20 19  1  0
 21 20  2  0
 21 16  1  0
 22 23  1  0
 22 21  1  0
  3 24  1  0
  4 25  1  0
  5 26  1  0
  7 27  1  0
  7 28  1  0
  8 29  1  0
  9 30  1  0
 10 31  1  0
 14 32  1  0
 17 33  1  0
 18 34  1  0
 19 35  1  0
 20 36  1  0
 22 37  1  0
 22 38  1  0
 23 39  1  0
 23 40  1  0
 23 41  1  0
M  ISO  8  24  14  25  14  26  14  27   8  28   8  29  14  30  14  31  14
M  ISO  8  32   3  33  14  34  14  35  14  36  14  37   8  38   8  39   8
M  ISO  2  40   8  41   8
M  END
>  <minimizedAffinity>  (1) 
-6.37214661

>  <minimizedRMSD>  (1) 
1.39085495

$$$$
