
     RDKit          3D

 38 40  0  0  0  0  0  0  0  0999 V2000
   43.9750   35.3820   42.2500 C   0  0  0  0  0  0  0  0  0  0  0  0
   42.8820   35.0970   41.4770 C   0  0  0  0  0  0  0  0  0  0  0  0
   43.0700   34.3580   40.3320 C   0  0  0  0  0  0  0  0  0  0  0  0
   44.3070   33.8720   39.8980 C   0  0  0  0  0  0  0  0  0  0  0  0
   45.4000   34.1750   40.7020 C   0  0  0  0  0  0  0  0  0  0  0  0
   45.2190   34.9160   41.8510 C   0  0  0  0  0  0  0  0  0  0  0  0
   41.5260   35.5530   41.8260 C   0  0  0  0  0  0  0  0  0  0  0  0
   39.2440   32.7020   41.1950 C   0  0  0  0  0  0  0  0  0  0  0  0
   38.4920   33.1770   40.1050 C   0  0  0  0  0  0  0  0  0  0  0  0
   38.7840   34.4390   39.6260 C   0  0  0  0  0  0  0  0  0  0  0  0
   39.7620   35.1540   40.2130 N   0  0  0  0  0  0  0  0  0  0  0  0
   40.4770   34.6830   41.2620 C   0  0  0  0  0  0  0  0  0  0  0  0
   40.1990   33.4660   41.7270 N   0  0  0  0  0  0  0  0  0  0  0  0
   43.8450   36.1150   43.4010 O   0  0  0  0  0  0  0  0  0  0  0  0
   46.3310   35.1960   42.6230 O   0  0  0  0  0  0  0  0  0  0  0  0
   47.3620   34.2710   42.6320 C   0  0  0  0  0  0  0  0  0  0  0  0
   47.0680   33.0450   43.2220 C   0  0  0  0  0  0  0  0  0  0  0  0
   48.0630   32.0800   43.2600 C   0  0  0  0  0  0  0  0  0  0  0  0
   49.3350   32.3220   42.7200 C   0  0  0  0  0  0  0  0  0  0  0  0
   49.5640   33.5700   42.1430 C   0  0  0  0  0  0  0  0  0  0  0  0
   48.6030   34.5510   42.0880 C   0  0  0  0  0  0  0  0  0  0  0  0
   48.8800   35.8610   41.4700 C   0  0  0  0  0  0  0  0  0  0  0  0
   42.1867   34.1342   39.7158 H   0  0  0  0  0  0  0  0  0  0  0  0
   44.4095   33.2840   38.9740 H   0  0  0  0  0  0  0  0  0  0  0  0
   46.4049   33.8252   40.4229 H   0  0  0  0  0  0  0  0  0  0  0  0
   41.4271   35.5608   42.9215 H   0  0  0  0  0  0  0  0  0  0  0  0
   41.3911   36.5588   41.4016 H   0  0  0  0  0  0  0  0  0  0  0  0
   39.0446   31.7021   41.6078 H   0  0  0  0  0  0  0  0  0  0  0  0
   37.6993   32.5648   39.6502 H   0  0  0  0  0  0  0  0  0  0  0  0
   38.2243   34.8548   38.7752 H   0  0  0  0  0  0  0  0  0  0  0  0
   44.6421   36.3155   43.9528 H   0  0  0  0  0  0  0  0  0  0  0  0
   46.0728   32.8470   43.6468 H   0  0  0  0  0  0  0  0  0  0  0  0
   47.8507   31.1050   43.7229 H   0  0  0  0  0  0  0  0  0  0  0  0
   50.1228   31.5549   42.7508 H   0  0  0  0  0  0  0  0  0  0  0  0
   50.5551   33.7784   41.7138 H   0  0  0  0  0  0  0  0  0  0  0  0
   49.0388   36.6119   42.2580 H   0  0  0  0  0  0  0  0  0  0  0  0
   49.7826   35.7883   40.8455 H   0  0  0  0  0  0  0  0  0  0  0  0
   48.0252   36.1599   40.8455 H   0  0  0  0  0  0  0  0  0  0  0  0
  1 14  1  0
  2  7  1  0
  2  1  2  0
  3  2  1  0
  4  3  2  0
  4  5  1  0
  5  6  2  0
  6  1  1  0
  6 15  1  0
  8 13  2  0
  9  8  1  0
 10  9  2  0
 10 11  1  0
 11 12  2  0
 12 13  1  0
 12  7  1  0
 15 16  1  0
 16 17  2  0
 17 18  1  0
 19 18  2  0
 20 19  1  0
 21 20  2  0
 21 16  1  0
 22 21  1  0
  3 23  1  0
  4 24  1  0
  5 25  1  0
  7 26  1  0
  7 27  1  0
  8 28  1  0
  9 29  1  0
 10 30  1  0
 14 31  1  0
 17 32  1  0
 18 33  1  0
 19 34  1  0
 20 35  1  0
 22 36  1  0
 22 37  1  0
 22 38  1  0
M  ISO  8  23  14  24  14  25  14  26   8  27   8  28  14  29  14  30  14
M  ISO  8  31   3  32  14  33  14  34  14  35  14  36   8  37   8  38   8
M  END
>  <minimizedAffinity>  (1) 
-6.34129953

>  <minimizedRMSD>  (1) 
0.995083988

$$$$
