
     RDKit          3D

 38 41  0  0  1  0  0  0  0  0999 V2000
   47.9210   32.9680   41.7790 C   0  0  0  0  0  0  0  0  0  0  0  0
   48.2740   32.5640   40.4330 C   0  0  0  0  0  0  0  0  0  0  0  0
   49.4990   32.3060   40.1270 C   0  0  0  0  0  0  0  0  0  0  0  0
   49.8620   31.9200   38.8120 N   0  0  0  0  0  0  0  0  0  0  0  0
   50.6040   31.0130   37.9710 C   0  0  0  0  0  0  0  0  0  0  0  0
   51.6530   30.3210   38.1000 O   0  0  0  0  0  0  0  0  0  0  0  0
   49.5450   31.3050   36.9330 C   0  0  0  0  0  0  0  0  0  0  0  0
   49.3660   32.6350   37.6140 C   0  0  1  0  0  0  0  0  0  0  0  0
   47.6980   33.1940   37.8940 S   0  0  0  0  0  0  0  0  0  0  0  0
   47.1470   32.4750   39.4740 C   0  0  0  0  0  0  0  0  0  0  0  0
   50.5450   32.4110   41.1460 C   0  0  0  0  0  0  0  0  0  0  0  0
   51.7200   31.9190   41.0280 O   0  0  0  0  0  0  0  0  0  0  0  0
   51.2870   32.6730   42.2600 O   0  0  0  0  0  0  0  0  0  0  0  0
   47.0780   34.6030   41.7690 S   0  0  0  0  0  0  0  0  0  0  0  0
   44.5110   35.8110   44.6690 C   0  0  0  0  0  0  0  0  0  0  0  0
   45.2090   35.7330   43.4430 C   0  0  0  0  0  0  0  0  0  0  0  0
   46.1810   34.7280   43.3040 C   0  0  0  0  0  0  0  0  0  0  0  0
   46.3860   33.9060   44.3410 N   0  0  0  0  0  0  0  0  0  0  0  0
   45.7130   33.9940   45.5030 C   0  0  0  0  0  0  0  0  0  0  0  0
   44.7700   34.9560   45.6590 N   0  0  0  0  0  0  0  0  0  0  0  0
   45.9490   33.0880   46.6230 C   0  0  0  0  0  0  0  0  0  0  0  0
   47.0000   32.2290   46.8740 C   0  0  0  0  0  0  0  0  0  0  0  0
   46.7870   31.5910   48.0370 N   0  0  0  0  0  0  0  0  0  0  0  0
   45.6210   32.0350   48.5170 C   0  0  0  0  0  0  0  0  0  0  0  0
   45.0960   32.9440   47.6770 N   0  0  0  0  0  0  0  0  0  0  0  0
   47.2465   32.2169   42.2160 H   0  0  0  0  0  0  0  0  0  0  0  0
   48.8413   33.0489   42.3761 H   0  0  0  0  0  0  0  0  0  0  0  0
   48.6662   30.6446   36.9717 H   0  0  0  0  0  0  0  0  0  0  0  0
   49.7445   31.2222   35.8544 H   0  0  0  0  0  0  0  0  0  0  0  0
   49.7849   33.5491   37.1680 H   0  0  0  0  0  0  0  0  0  0  0  0
   46.2833   33.0368   39.8592 H   0  0  0  0  0  0  0  0  0  0  0  0
   46.8456   31.4265   39.3333 H   0  0  0  0  0  0  0  0  0  0  0  0
   52.2234   32.3568   42.3167 H   0  0  0  0  0  0  0  0  0  0  0  0
   43.7440   36.5870   44.8086 H   0  0  0  0  0  0  0  0  0  0  0  0
   44.9983   36.4363   42.6239 H   0  0  0  0  0  0  0  0  0  0  0  0
   47.8756   32.0887   46.2231 H   0  0  0  0  0  0  0  0  0  0  0  0
   47.4045   30.8928   48.4753 H   0  0  0  0  0  0  0  0  0  0  0  0
   45.1595   31.7055   49.4596 H   0  0  0  0  0  0  0  0  0  0  0  0
  2  1  1  0
  3  2  2  0
  3 11  1  0
  4  3  1  0
  5  6  2  0
  5  4  1  0
  7  8  1  0
  7  5  1  0
  8  9  1  0
  8  4  1  0
  9 10  1  0
 10  2  1  0
 11 13  1  0
 12 11  2  0
 14  1  1  0
 14 17  1  0
 15 20  2  0
 16 15  1  0
 17 16  2  0
 17 18  1  0
 18 19  2  0
 19 20  1  0
 19 21  1  0
 21 22  2  0
 21 25  1  0
 22 23  1  0
 23 24  1  0
 25 24  2  0
  1 26  1  0
  1 27  1  0
  7 28  1  0
  7 29  1  0
  8 30  1  6
 10 31  1  0
 10 32  1  0
 13 33  1  0
 15 34  1  0
 16 35  1  0
 22 36  1  0
 23 37  1  0
 24 38  1  0
M  ISO  8  26   8  27   8  28  13  29  13  30  13  31  13  32  13  33   3
M  ISO  5  34  14  35  14  36  14  37   9  38  14
M  END
>  <minimizedAffinity>  (1) 
-5.60316849

>  <minimizedRMSD>  (1) 
0.326299459

$$$$
