
     RDKit          3D

 48 51  0  0  1  0  0  0  0  0999 V2000
   43.5950   35.2730   42.2390 C   0  0  0  0  0  0  0  0  0  0  0  0
   42.5220   35.0660   41.4290 C   0  0  0  0  0  0  0  0  0  0  0  0
   42.7530   34.4850   40.2120 C   0  0  0  0  0  0  0  0  0  0  0  0
   44.0080   34.0900   39.7460 C   0  0  0  0  0  0  0  0  0  0  0  0
   45.0770   34.3190   40.6070 C   0  0  0  0  0  0  0  0  0  0  0  0
   44.8570   34.9010   41.8270 C   0  0  0  0  0  0  0  0  0  0  0  0
   41.1470   35.4360   41.8010 C   0  0  0  0  0  0  0  0  0  0  0  0
   38.9800   32.4850   41.2370 C   0  0  0  0  0  0  0  0  0  0  0  0
   38.2390   32.8830   40.1330 C   0  0  0  0  0  0  0  0  0  0  0  0
   38.4920   34.1380   39.6090 C   0  0  0  0  0  0  0  0  0  0  0  0
   39.4340   34.9180   40.1790 N   0  0  0  0  0  0  0  0  0  0  0  0
   40.1390   34.5030   41.2540 C   0  0  0  0  0  0  0  0  0  0  0  0
   39.8990   33.3030   41.7580 N   0  0  0  0  0  0  0  0  0  0  0  0
   43.4190   35.8600   43.4880 O   0  0  0  0  0  0  0  0  0  0  0  0
   45.9550   35.1120   42.6570 O   0  0  0  0  0  0  0  0  0  0  0  0
   46.8390   34.0470   42.8370 C   0  0  0  0  0  0  0  0  0  0  0  0
   46.5300   33.1410   43.8210 C   0  0  0  0  0  0  0  0  0  0  0  0
   47.3690   32.0740   44.0360 C   0  0  0  0  0  0  0  0  0  0  0  0
   48.5240   31.9180   43.2610 C   0  0  0  0  0  0  0  0  0  0  0  0
   48.8040   32.8520   42.2770 C   0  0  0  0  0  0  0  0  0  0  0  0
   47.9550   33.9280   42.0610 C   0  0  0  0  0  0  0  0  0  0  0  0
   50.0010   32.7670   41.4150 C   0  0  1  0  0  0  0  0  0  0  0  0
   51.1840   32.0870   42.1220 C   0  0  0  0  0  0  0  0  0  0  0  0
   51.9600   31.5170   40.9580 C   0  0  0  0  0  0  0  0  0  0  0  0
   51.2010   31.6720   39.8070 O   0  0  0  0  0  0  0  0  0  0  0  0
   49.8780   31.8910   40.2140 C   0  0  0  0  0  0  0  0  0  0  0  0
   48.2700   34.8630   41.0490 N   0  0  0  0  0  0  0  0  0  0  0  0
   41.8878   34.3172   39.5538 H   0  0  0  0  0  0  0  0  0  0  0  0
   44.1438   33.6258   38.7580 H   0  0  0  0  0  0  0  0  0  0  0  0
   46.0964   34.0332   40.3084 H   0  0  0  0  0  0  0  0  0  0  0  0
   41.0671   35.4372   42.8981 H   0  0  0  0  0  0  0  0  0  0  0  0
   40.9439   36.4310   41.3781 H   0  0  0  0  0  0  0  0  0  0  0  0
   38.8104   31.4943   41.6839 H   0  0  0  0  0  0  0  0  0  0  0  0
   37.4776   32.2239   39.6904 H   0  0  0  0  0  0  0  0  0  0  0  0
   37.9297   34.4973   38.7345 H   0  0  0  0  0  0  0  0  0  0  0  0
   44.1993   36.0111   44.0783 H   0  0  0  0  0  0  0  0  0  0  0  0
   45.6225   33.2675   44.4296 H   0  0  0  0  0  0  0  0  0  0  0  0
   47.1319   31.3398   44.8201 H   0  0  0  0  0  0  0  0  0  0  0  0
   49.1993   31.0665   43.4307 H   0  0  0  0  0  0  0  0  0  0  0  0
   50.1350   33.8274   41.1551 H   0  0  0  0  0  0  0  0  0  0  0  0
   51.7857   32.8158   42.6849 H   0  0  0  0  0  0  0  0  0  0  0  0
   50.8831   31.3343   42.8656 H   0  0  0  0  0  0  0  0  0  0  0  0
   52.9138   32.0539   40.8490 H   0  0  0  0  0  0  0  0  0  0  0  0
   52.1712   30.4513   41.1305 H   0  0  0  0  0  0  0  0  0  0  0  0
   49.3050   32.3947   39.4215 H   0  0  0  0  0  0  0  0  0  0  0  0
   49.3448   30.9536   40.4309 H   0  0  0  0  0  0  0  0  0  0  0  0
   47.6482   35.6662   40.8783 H   0  0  0  0  0  0  0  0  0  0  0  0
   49.1213   34.7412   40.4822 H   0  0  0  0  0  0  0  0  0  0  0  0
  1 14  1  0
  2  7  1  0
  2  1  2  0
  3  2  1  0
  4  3  2  0
  4  5  1  0
  5  6  2  0
  6  1  1  0
  6 15  1  0
  8 13  2  0
  9  8  1  0
 10  9  2  0
 10 11  1  0
 11 12  2  0
 12 13  1  0
 12  7  1  0
 15 16  1  0
 16 17  2  0
 17 18  1  0
 19 18  2  0
 20 19  1  0
 21 20  2  0
 21 16  1  0
 22 23  1  0
 22 20  1  0
 24 23  1  0
 25 26  1  0
 25 24  1  0
 26 22  1  0
 27 21  1  0
  3 28  1  0
  4 29  1  0
  5 30  1  0
  7 31  1  0
  7 32  1  0
  8 33  1  0
  9 34  1  0
 10 35  1  0
 14 36  1  0
 17 37  1  0
 18 38  1  0
 19 39  1  0
 22 40  1  6
 23 41  1  0
 23 42  1  0
 24 43  1  0
 24 44  1  0
 26 45  1  0
 26 46  1  0
 27 47  1  0
 27 48  1  0
M  ISO  8  28  14  29  14  30  14  31   8  32   8  33  14  34  14  35  14
M  ISO  8  36   3  37  14  38  14  39  14  40  13  41  13  42  13  43  13
M  ISO  3  44  13  45  13  46  13
M  END
>  <minimizedAffinity>  (1) 
-6.46881151

>  <minimizedRMSD>  (1) 
0.952279568

$$$$
