
     RDKit          3D

 40 42  0  0  0  0  0  0  0  0999 V2000
   43.6230   35.2980   42.3450 C   0  0  0  0  0  0  0  0  0  0  0  0
   42.5910   35.1000   41.4670 C   0  0  0  0  0  0  0  0  0  0  0  0
   42.8800   34.5200   40.2530 C   0  0  0  0  0  0  0  0  0  0  0  0
   44.1600   34.1170   39.8590 C   0  0  0  0  0  0  0  0  0  0  0  0
   45.1840   34.3310   40.7720 C   0  0  0  0  0  0  0  0  0  0  0  0
   44.8970   34.9160   41.9980 C   0  0  0  0  0  0  0  0  0  0  0  0
   41.1960   35.4850   41.7710 C   0  0  0  0  0  0  0  0  0  0  0  0
   39.1300   32.4670   41.2450 C   0  0  0  0  0  0  0  0  0  0  0  0
   38.3660   32.8160   40.1360 C   0  0  0  0  0  0  0  0  0  0  0  0
   38.5790   34.0640   39.6040 C   0  0  0  0  0  0  0  0  0  0  0  0
   39.4950   34.8910   40.1570 N   0  0  0  0  0  0  0  0  0  0  0  0
   40.2210   34.5180   41.2380 C   0  0  0  0  0  0  0  0  0  0  0  0
   40.0190   33.3030   41.7610 N   0  0  0  0  0  0  0  0  0  0  0  0
   43.3820   35.8780   43.5760 O   0  0  0  0  0  0  0  0  0  0  0  0
   45.9480   35.1070   42.8660 O   0  0  0  0  0  0  0  0  0  0  0  0
   46.8970   34.0940   42.9880 C   0  0  0  0  0  0  0  0  0  0  0  0
   46.4710   32.9310   43.5860 C   0  0  0  0  0  0  0  0  0  0  0  0
   47.3730   31.8820   43.7370 C   0  0  0  0  0  0  0  0  0  0  0  0
   48.6770   32.0100   43.2910 C   0  0  0  0  0  0  0  0  0  0  0  0
   49.0470   33.2160   42.6930 C   0  0  0  0  0  0  0  0  0  0  0  0
   48.1790   34.2590   42.5340 C   0  0  0  0  0  0  0  0  0  0  0  0
   48.5990   35.4490   41.9260 N   0  0  0  0  0  0  0  0  0  0  0  0
   50.4600   33.3670   42.2040 C   0  0  0  0  0  0  0  0  0  0  0  0
   42.0510   34.3633   39.5471 H   0  0  0  0  0  0  0  0  0  0  0  0
   44.3456   33.6551   38.8781 H   0  0  0  0  0  0  0  0  0  0  0  0
   46.2155   34.0391   40.5257 H   0  0  0  0  0  0  0  0  0  0  0  0
   41.0751   35.5441   42.8627 H   0  0  0  0  0  0  0  0  0  0  0  0
   41.0029   36.4565   41.2925 H   0  0  0  0  0  0  0  0  0  0  0  0
   38.9932   31.4763   41.7030 H   0  0  0  0  0  0  0  0  0  0  0  0
   37.6263   32.1250   39.7056 H   0  0  0  0  0  0  0  0  0  0  0  0
   38.0031   34.3917   38.7259 H   0  0  0  0  0  0  0  0  0  0  0  0
   44.1284   36.0210   44.2105 H   0  0  0  0  0  0  0  0  0  0  0  0
   45.4340   32.8316   43.9392 H   0  0  0  0  0  0  0  0  0  0  0  0
   47.0477   30.9455   44.2137 H   0  0  0  0  0  0  0  0  0  0  0  0
   49.3988   31.1877   43.4041 H   0  0  0  0  0  0  0  0  0  0  0  0
   47.9372   36.2298   41.8106 H   0  0  0  0  0  0  0  0  0  0  0  0
   49.5696   35.5432   41.5943 H   0  0  0  0  0  0  0  0  0  0  0  0
   51.1403   33.4397   43.0653 H   0  0  0  0  0  0  0  0  0  0  0  0
   50.7324   32.4929   41.5944 H   0  0  0  0  0  0  0  0  0  0  0  0
   50.5415   34.2790   41.5944 H   0  0  0  0  0  0  0  0  0  0  0  0
  1 14  1  0
  2  7  1  0
  2  1  2  0
  3  2  1  0
  4  3  2  0
  4  5  1  0
  5  6  2  0
  6  1  1  0
  6 15  1  0
  8 13  2  0
  9  8  1  0
 10  9  2  0
 10 11  1  0
 11 12  2  0
 12 13  1  0
 12  7  1  0
 15 16  1  0
 16 17  2  0
 17 18  1  0
 19 18  2  0
 20 19  1  0
 21 20  2  0
 21 16  1  0
 22 21  1  0
 23 20  1  0
  3 24  1  0
  4 25  1  0
  5 26  1  0
  7 27  1  0
  7 28  1  0
  8 29  1  0
  9 30  1  0
 10 31  1  0
 14 32  1  0
 17 33  1  0
 18 34  1  0
 19 35  1  0
 22 36  1  0
 22 37  1  0
 23 38  1  0
 23 39  1  0
 23 40  1  0
M  ISO  8  24  14  25  14  26  14  27   8  28   8  29  14  30  14  31  14
M  ISO  7  32   3  33  14  34  14  35  14  38   8  39   8  40   8
M  END
>  <minimizedAffinity>  (1) 
-6.27820587

>  <minimizedRMSD>  (1) 
0.401857615

$$$$
