
     RDKit          3D

 52 55  0  0  0  0  0  0  0  0999 V2000
   43.6390   35.2710   42.2760 C   0  0  0  0  0  0  0  0  0  0  0  0
   42.5820   35.0910   41.4170 C   0  0  0  0  0  0  0  0  0  0  0  0
   42.8390   34.5100   40.1900 C   0  0  0  0  0  0  0  0  0  0  0  0
   44.0960   34.0950   39.7640 C   0  0  0  0  0  0  0  0  0  0  0  0
   45.1440   34.2900   40.6530 C   0  0  0  0  0  0  0  0  0  0  0  0
   44.9000   34.8720   41.8890 C   0  0  0  0  0  0  0  0  0  0  0  0
   41.2040   35.4910   41.7570 C   0  0  0  0  0  0  0  0  0  0  0  0
   39.0630   32.5100   41.2620 C   0  0  0  0  0  0  0  0  0  0  0  0
   38.2980   32.8860   40.1620 C   0  0  0  0  0  0  0  0  0  0  0  0
   38.5330   34.1410   39.6240 C   0  0  0  0  0  0  0  0  0  0  0  0
   39.4650   34.9280   40.1660 N   0  0  0  0  0  0  0  0  0  0  0  0
   40.1970   34.5410   41.2340 C   0  0  0  0  0  0  0  0  0  0  0  0
   39.9810   33.3400   41.7610 N   0  0  0  0  0  0  0  0  0  0  0  0
   43.4420   35.8440   43.5100 O   0  0  0  0  0  0  0  0  0  0  0  0
   45.9830   35.0460   42.7460 O   0  0  0  0  0  0  0  0  0  0  0  0
   46.4630   33.9270   43.4170 C   0  0  0  0  0  0  0  0  0  0  0  0
   45.9380   33.6760   44.6580 C   0  0  0  0  0  0  0  0  0  0  0  0
   46.3890   32.5680   45.3630 C   0  0  0  0  0  0  0  0  0  0  0  0
   47.3490   31.7340   44.8250 C   0  0  0  0  0  0  0  0  0  0  0  0
   47.8610   32.0280   43.5490 C   0  0  0  0  0  0  0  0  0  0  0  0
   47.4130   33.1180   42.8600 C   0  0  0  0  0  0  0  0  0  0  0  0
   48.8810   31.1060   43.1050 N   0  0  0  0  0  0  0  0  0  0  0  0
   50.1580   31.5520   42.5740 C   0  0  0  0  0  0  0  0  0  0  0  0
   51.3460   30.8340   43.1170 C   0  0  0  0  0  0  0  0  0  0  0  0
   51.2050   29.3720   43.3300 C   0  0  0  0  0  0  0  0  0  0  0  0
   49.8640   29.1330   44.0360 C   0  0  0  0  0  0  0  0  0  0  0  0
   48.8240   29.6710   43.0730 C   0  0  0  0  0  0  0  0  0  0  0  0
   47.9400   33.3750   41.5760 N   0  0  0  0  0  0  0  0  0  0  0  0
   41.9917   34.3659   39.5035 H   0  0  0  0  0  0  0  0  0  0  0  0
   44.2514   33.6370   38.7760 H   0  0  0  0  0  0  0  0  0  0  0  0
   46.1645   33.9843   40.3788 H   0  0  0  0  0  0  0  0  0  0  0  0
   41.1097   35.5389   42.8519 H   0  0  0  0  0  0  0  0  0  0  0  0
   41.0144   36.4705   41.2937 H   0  0  0  0  0  0  0  0  0  0  0  0
   38.9101   31.5229   41.7228 H   0  0  0  0  0  0  0  0  0  0  0  0
   37.5377   32.2142   39.7370 H   0  0  0  0  0  0  0  0  0  0  0  0
   37.9545   34.4870   38.7547 H   0  0  0  0  0  0  0  0  0  0  0  0
   44.2076   35.9711   44.1247 H   0  0  0  0  0  0  0  0  0  0  0  0
   45.1735   34.3401   45.0875 H   0  0  0  0  0  0  0  0  0  0  0  0
   45.9774   32.3525   46.3601 H   0  0  0  0  0  0  0  0  0  0  0  0
   47.7063   30.8565   45.3839 H   0  0  0  0  0  0  0  0  0  0  0  0
   50.1427   31.4119   41.4831 H   0  0  0  0  0  0  0  0  0  0  0  0
   50.2679   32.6043   42.8750 H   0  0  0  0  0  0  0  0  0  0  0  0
   52.1782   30.9892   42.4147 H   0  0  0  0  0  0  0  0  0  0  0  0
   51.5041   31.2569   44.1201 H   0  0  0  0  0  0  0  0  0  0  0  0
   51.2178   28.8491   42.3623 H   0  0  0  0  0  0  0  0  0  0  0  0
   52.0363   28.9886   43.9399 H   0  0  0  0  0  0  0  0  0  0  0  0
   49.7066   28.0596   44.2177 H   0  0  0  0  0  0  0  0  0  0  0  0
   49.8165   29.6246   45.0189 H   0  0  0  0  0  0  0  0  0  0  0  0
   47.8232   29.3314   43.3781 H   0  0  0  0  0  0  0  0  0  0  0  0
   49.0245   29.3058   42.0549 H   0  0  0  0  0  0  0  0  0  0  0  0
   48.6555   32.7498   41.1784 H   0  0  0  0  0  0  0  0  0  0  0  0
   47.6090   34.1877   41.0367 H   0  0  0  0  0  0  0  0  0  0  0  0
  1 14  1  0
  2  7  1  0
  2  1  2  0
  3  2  1  0
  4  3  2  0
  4  5  1  0
  5  6  2  0
  6  1  1  0
  6 15  1  0
  8 13  2  0
  9  8  1  0
 10  9  2  0
 10 11  1  0
 11 12  2  0
 12  7  1  0
 12 13  1  0
 15 16  1  0
 16 17  2  0
 17 18  1  0
 19 18  2  0
 20 19  1  0
 21 16  1  0
 21 20  2  0
 22 20  1  0
 23 22  1  0
 23 24  1  0
 24 25  1  0
 25 26  1  0
 27 22  1  0
 27 26  1  0
 28 21  1  0
  3 29  1  0
  4 30  1  0
  5 31  1  0
  7 32  1  0
  7 33  1  0
  8 34  1  0
  9 35  1  0
 10 36  1  0
 14 37  1  0
 17 38  1  0
 18 39  1  0
 19 40  1  0
 23 41  1  0
 23 42  1  0
 24 43  1  0
 24 44  1  0
 25 45  1  0
 25 46  1  0
 26 47  1  0
 26 48  1  0
 27 49  1  0
 27 50  1  0
 28 51  1  0
 28 52  1  0
M  ISO  8  29  14  30  14  31  14  32   8  33   8  34  14  35  14  36  14
M  ISO  8  37   3  38  14  39  14  40  14  41  13  42  13  43  13  44  13
M  ISO  6  45  13  46  13  47  13  48  13  49  13  50  13
M  END
>  <minimizedAffinity>  (1) 
-6.16893864

>  <minimizedRMSD>  (1) 
2.40640354

$$$$
