
     RDKit          3D

 38 40  0  0  0  0  0  0  0  0999 V2000
   43.5630   35.2830   42.3020 C   0  0  0  0  0  0  0  0  0  0  0  0
   42.5390   35.0730   41.4110 C   0  0  0  0  0  0  0  0  0  0  0  0
   42.8400   34.5090   40.1920 C   0  0  0  0  0  0  0  0  0  0  0  0
   44.1180   34.1340   39.8000 C   0  0  0  0  0  0  0  0  0  0  0  0
   45.1390   34.3570   40.7220 C   0  0  0  0  0  0  0  0  0  0  0  0
   44.8390   34.9260   41.9530 C   0  0  0  0  0  0  0  0  0  0  0  0
   41.1420   35.4330   41.7250 C   0  0  0  0  0  0  0  0  0  0  0  0
   39.2150   32.2930   41.3980 C   0  0  0  0  0  0  0  0  0  0  0  0
   38.3590   32.5900   40.3510 C   0  0  0  0  0  0  0  0  0  0  0  0
   38.4540   33.8450   39.7800 C   0  0  0  0  0  0  0  0  0  0  0  0
   39.3540   34.7190   40.2490 N   0  0  0  0  0  0  0  0  0  0  0  0
   40.1860   34.4120   41.2760 C   0  0  0  0  0  0  0  0  0  0  0  0
   40.0910   33.1970   41.8260 N   0  0  0  0  0  0  0  0  0  0  0  0
   43.3120   35.8460   43.5380 O   0  0  0  0  0  0  0  0  0  0  0  0
   45.8980   35.1260   42.8320 O   0  0  0  0  0  0  0  0  0  0  0  0
   46.8100   34.0910   43.0020 C   0  0  0  0  0  0  0  0  0  0  0  0
   46.3310   32.9500   43.6370 C   0  0  0  0  0  0  0  0  0  0  0  0
   47.1910   31.8940   43.8310 C   0  0  0  0  0  0  0  0  0  0  0  0
   48.5120   31.9430   43.4110 C   0  0  0  0  0  0  0  0  0  0  0  0
   48.9320   33.1090   42.7820 C   0  0  0  0  0  0  0  0  0  0  0  0
   48.0990   34.1940   42.5680 C   0  0  0  0  0  0  0  0  0  0  0  0
   48.5740   35.3400   41.9310 N   0  0  0  0  0  0  0  0  0  0  0  0
   50.6460   33.1980   42.2250 S   0  0  0  0  0  0  0  0  0  0  0  0
   42.0151   34.3449   39.4830 H   0  0  0  0  0  0  0  0  0  0  0  0
   44.3141   33.6852   38.8150 H   0  0  0  0  0  0  0  0  0  0  0  0
   46.1759   34.0841   40.4764 H   0  0  0  0  0  0  0  0  0  0  0  0
   41.0445   35.5536   42.8140 H   0  0  0  0  0  0  0  0  0  0  0  0
   40.9089   36.3674   41.1935 H   0  0  0  0  0  0  0  0  0  0  0  0
   39.1701   31.3043   41.8780 H   0  0  0  0  0  0  0  0  0  0  0  0
   37.6287   31.8527   39.9863 H   0  0  0  0  0  0  0  0  0  0  0  0
   37.7943   34.1244   38.9453 H   0  0  0  0  0  0  0  0  0  0  0  0
   44.0555   35.9941   44.1747 H   0  0  0  0  0  0  0  0  0  0  0  0
   45.2864   32.8932   43.9769 H   0  0  0  0  0  0  0  0  0  0  0  0
   46.8215   30.9872   44.3322 H   0  0  0  0  0  0  0  0  0  0  0  0
   49.1967   31.0967   43.5687 H   0  0  0  0  0  0  0  0  0  0  0  0
   47.9457   36.1415   41.7769 H   0  0  0  0  0  0  0  0  0  0  0  0
   49.5532   35.3850   41.6146 H   0  0  0  0  0  0  0  0  0  0  0  0
   51.4780   33.2412   43.3126 H   0  0  0  0  0  0  0  0  0  0  0  0
  1 14  1  0
  2  7  1  0
  2  1  2  0
  3  2  1  0
  4  3  2  0
  4  5  1  0
  5  6  2  0
  6  1  1  0
  6 15  1  0
  8 13  2  0
  9  8  1  0
 10 11  1  0
 10  9  2  0
 11 12  2  0
 12  7  1  0
 12 13  1  0
 15 16  1  0
 16 17  2  0
 17 18  1  0
 19 18  2  0
 20 19  1  0
 21 20  2  0
 21 16  1  0
 22 21  1  0
 23 20  1  0
  3 24  1  0
  4 25  1  0
  5 26  1  0
  7 27  1  0
  7 28  1  0
  8 29  1  0
  9 30  1  0
 10 31  1  0
 14 32  1  0
 17 33  1  0
 18 34  1  0
 19 35  1  0
 22 36  1  0
 22 37  1  0
 23 38  1  0
M  ISO  8  24  14  25  14  26  14  27   8  28   8  29  14  30  14  31  14
M  ISO  5  32   3  33  14  34  14  35  14  38  11
M  END
>  <minimizedAffinity>  (1) 
-6.13532019

>  <minimizedRMSD>  (1) 
0.54427433

$$$$
