
     RDKit          3D

 34 36  0  0  1  0  0  0  0  0999 V2000
   48.3000   32.6940   40.5090 C   0  0  0  0  0  0  0  0  0  0  0  0
   49.5020   32.3170   40.1890 C   0  0  0  0  0  0  0  0  0  0  0  0
   49.8040   31.8720   38.8920 N   0  0  0  0  0  0  0  0  0  0  0  0
   50.4510   30.8700   38.0660 C   0  0  0  0  0  0  0  0  0  0  0  0
   51.4320   30.0950   38.2020 O   0  0  0  0  0  0  0  0  0  0  0  0
   49.4100   31.2190   37.0390 C   0  0  0  0  0  0  0  0  0  0  0  0
   49.3680   32.5900   37.6840 C   0  0  1  0  0  0  0  0  0  0  0  0
   47.7440   33.3010   37.9730 S   0  0  0  0  0  0  0  0  0  0  0  0
   47.1560   32.6860   39.5630 C   0  0  0  0  0  0  0  0  0  0  0  0
   48.0270   33.1580   41.8660 C   0  0  0  0  0  0  0  0  0  0  0  0
   47.0750   34.7230   41.8260 S   0  0  0  0  0  0  0  0  0  0  0  0
   44.5020   35.8910   44.7300 C   0  0  0  0  0  0  0  0  0  0  0  0
   45.2180   35.8460   43.5120 C   0  0  0  0  0  0  0  0  0  0  0  0
   46.1590   34.7990   43.3560 C   0  0  0  0  0  0  0  0  0  0  0  0
   46.3180   33.9200   44.3560 N   0  0  0  0  0  0  0  0  0  0  0  0
   45.6200   33.9940   45.4980 C   0  0  0  0  0  0  0  0  0  0  0  0
   44.7150   34.9770   45.6850 N   0  0  0  0  0  0  0  0  0  0  0  0
   45.8840   32.9530   46.5480 C   0  0  0  0  0  0  0  0  0  0  0  0
   44.9370   33.1440   47.5610 F   0  0  0  0  0  0  0  0  0  0  0  0
   47.1300   33.0580   47.0910 F   0  0  0  0  0  0  0  0  0  0  0  0
   45.6730   31.7080   46.0410 F   0  0  0  0  0  0  0  0  0  0  0  0
   50.5730   32.3550   41.1980 C   0  0  0  0  0  0  0  0  0  0  0  0
   51.7660   31.9810   40.9960 O   0  0  0  0  0  0  0  0  0  0  0  0
   51.3220   32.5140   42.3280 O   0  0  0  0  0  0  0  0  0  0  0  0
   48.4754   30.6438   37.1136 H   0  0  0  0  0  0  0  0  0  0  0  0
   49.5795   31.0821   35.9608 H   0  0  0  0  0  0  0  0  0  0  0  0
   49.8664   33.4463   37.2060 H   0  0  0  0  0  0  0  0  0  0  0  0
   46.3539   33.3367   39.9415 H   0  0  0  0  0  0  0  0  0  0  0  0
   46.7566   31.6668   39.4547 H   0  0  0  0  0  0  0  0  0  0  0  0
   47.4446   32.3930   42.4004 H   0  0  0  0  0  0  0  0  0  0  0  0
   48.9824   33.3344   42.3819 H   0  0  0  0  0  0  0  0  0  0  0  0
   43.7607   36.6867   44.8953 H   0  0  0  0  0  0  0  0  0  0  0  0
   45.0517   36.5913   42.7202 H   0  0  0  0  0  0  0  0  0  0  0  0
   52.2803   32.2655   42.3257 H   0  0  0  0  0  0  0  0  0  0  0  0
  1 10  1  0
  2  1  2  0
  2 22  1  0
  3  2  1  0
  4  5  2  0
  4  3  1  0
  6  7  1  0
  6  4  1  0
  7  8  1  0
  7  3  1  0
  8  9  1  0
  9  1  1  0
 11 10  1  0
 11 14  1  0
 12 17  2  0
 13 12  1  0
 14 13  2  0
 14 15  1  0
 15 16  2  0
 16 17  1  0
 16 18  1  0
 18 20  1  0
 18 19  1  0
 21 18  1  0
 22 24  1  0
 23 22  2  0
  6 25  1  0
  6 26  1  0
  7 27  1  6
  9 28  1  0
  9 29  1  0
 10 30  1  0
 10 31  1  0
 12 32  1  0
 13 33  1  0
 24 34  1  0
M  ISO  8  25  13  26  13  27  13  28  13  29  13  30   8  31   8  32  14
M  ISO  2  33  14  34   3
M  END
>  <minimizedAffinity>  (1) 
-5.45820761

>  <minimizedRMSD>  (1) 
0.35624218

$$$$
