
     RDKit          3D

 38 41  0  0  1  0  0  0  0  0999 V2000
   48.3330   32.6470   40.3940 C   0  0  0  0  0  0  0  0  0  0  0  0
   49.5180   32.2590   40.0580 C   0  0  0  0  0  0  0  0  0  0  0  0
   49.8050   31.8670   38.7310 N   0  0  0  0  0  0  0  0  0  0  0  0
   50.4230   30.8940   37.8520 C   0  0  0  0  0  0  0  0  0  0  0  0
   51.3980   30.0890   37.9500 O   0  0  0  0  0  0  0  0  0  0  0  0
   49.3810   31.3110   36.8490 C   0  0  0  0  0  0  0  0  0  0  0  0
   49.3820   32.6520   37.5590 C   0  0  1  0  0  0  0  0  0  0  0  0
   47.8050   33.4120   37.8800 S   0  0  0  0  0  0  0  0  0  0  0  0
   47.1870   32.7240   39.4500 C   0  0  0  0  0  0  0  0  0  0  0  0
   48.0480   33.0460   41.7660 C   0  0  0  0  0  0  0  0  0  0  0  0
   47.0580   34.6020   41.7790 S   0  0  0  0  0  0  0  0  0  0  0  0
   44.5460   35.5770   44.8190 C   0  0  0  0  0  0  0  0  0  0  0  0
   45.1800   35.5660   43.5570 C   0  0  0  0  0  0  0  0  0  0  0  0
   46.2350   34.6390   43.3670 C   0  0  0  0  0  0  0  0  0  0  0  0
   46.5730   33.8220   44.4000 N   0  0  0  0  0  0  0  0  0  0  0  0
   45.9350   33.8800   45.5730 C   0  0  0  0  0  0  0  0  0  0  0  0
   44.9330   34.7410   45.7920 N   0  0  0  0  0  0  0  0  0  0  0  0
   46.3700   32.9460   46.6560 C   0  0  0  0  0  0  0  0  0  0  0  0
   45.3370   32.5320   47.6880 C   0  0  0  0  0  0  0  0  0  0  0  0
   45.8820   31.5550   46.7240 C   0  0  0  0  0  0  0  0  0  0  0  0
   50.5860   32.2170   41.0540 C   0  0  0  0  0  0  0  0  0  0  0  0
   51.8010   31.9370   40.7990 O   0  0  0  0  0  0  0  0  0  0  0  0
   51.3350   32.2600   42.1860 O   0  0  0  0  0  0  0  0  0  0  0  0
   48.4330   30.7561   36.9069 H   0  0  0  0  0  0  0  0  0  0  0  0
   49.5354   31.2175   35.7639 H   0  0  0  0  0  0  0  0  0  0  0  0
   49.9038   33.5134   37.1166 H   0  0  0  0  0  0  0  0  0  0  0  0
   46.4050   33.3780   39.8632 H   0  0  0  0  0  0  0  0  0  0  0  0
   46.7542   31.7257   39.2884 H   0  0  0  0  0  0  0  0  0  0  0  0
   47.4793   32.2484   42.2664 H   0  0  0  0  0  0  0  0  0  0  0  0
   48.9964   33.2176   42.2961 H   0  0  0  0  0  0  0  0  0  0  0  0
   43.7226   36.2821   45.0058 H   0  0  0  0  0  0  0  0  0  0  0  0
   44.8675   36.2495   42.7538 H   0  0  0  0  0  0  0  0  0  0  0  0
   47.3718   33.4003   46.6548 H   0  0  0  0  0  0  0  0  0  0  0  0
   45.6117   32.4713   48.7514 H   0  0  0  0  0  0  0  0  0  0  0  0
   44.3312   32.8756   47.9713 H   0  0  0  0  0  0  0  0  0  0  0  0
   45.2385   31.1637   45.9223 H   0  0  0  0  0  0  0  0  0  0  0  0
   46.3715   30.5746   46.8199 H   0  0  0  0  0  0  0  0  0  0  0  0
   52.3046   32.0640   42.1458 H   0  0  0  0  0  0  0  0  0  0  0  0
  1 10  1  0
  2  1  2  0
  2 21  1  0
  3  2  1  0
  4  5  2  0
  4  3  1  0
  6  7  1  0
  6  4  1  0
  7  8  1  0
  7  3  1  0
  8  9  1  0
  9  1  1  0
 10 11  1  0
 11 14  1  0
 12 17  2  0
 13 12  1  0
 14 13  2  0
 14 15  1  0
 15 16  2  0
 16 17  1  0
 16 18  1  0
 18 20  1  0
 18 19  1  0
 20 19  1  0
 21 23  1  0
 22 21  2  0
  6 24  1  0
  6 25  1  0
  7 26  1  6
  9 27  1  0
  9 28  1  0
 10 29  1  0
 10 30  1  0
 12 31  1  0
 13 32  1  0
 18 33  1  0
 19 34  1  0
 19 35  1  0
 20 36  1  0
 20 37  1  0
 23 38  1  0
M  ISO  8  24  13  25  13  26  13  27  13  28  13  29   8  30   8  31  14
M  ISO  7  32  14  33  13  34  13  35  13  36  13  37  13  38   3
M  END
>  <minimizedAffinity>  (1) 
-5.06339121

>  <minimizedRMSD>  (1) 
0.386750221

$$$$
