
     RDKit          3D

 42 44  0  0  0  0  0  0  0  0999 V2000
   46.2670   31.6920   45.3850 C   0  0  0  0  0  0  0  0  0  0  0  0
   47.2900   32.2700   47.5790 C   0  0  0  0  0  0  0  0  0  0  0  0
   47.0490   31.3180   46.5650 C   0  0  0  0  0  0  0  0  0  0  0  0
   47.5900   30.0500   46.7470 C   0  0  0  0  0  0  0  0  0  0  0  0
   48.3100   29.8080   47.8790 N   0  0  0  0  0  0  0  0  0  0  0  0
   48.5140   30.7360   48.8110 C   0  0  0  0  0  0  0  0  0  0  0  0
   48.0110   31.9570   48.6680 N   0  0  0  0  0  0  0  0  0  0  0  0
   49.3150   30.3730   50.0080 C   0  0  0  0  0  0  0  0  0  0  0  0
   50.5670   31.1510   49.9520 C   0  0  0  0  0  0  0  0  0  0  0  0
   51.5070   30.8130   49.0000 C   0  0  0  0  0  0  0  0  0  0  0  0
   52.7120   31.4750   48.8600 C   0  0  0  0  0  0  0  0  0  0  0  0
   52.9910   32.5190   49.7080 C   0  0  0  0  0  0  0  0  0  0  0  0
   52.0620   32.8790   50.6780 C   0  0  0  0  0  0  0  0  0  0  0  0
   50.8550   32.2130   50.8130 C   0  0  0  0  0  0  0  0  0  0  0  0
   47.0130   32.7960   44.6710 C   0  0  0  0  0  0  0  0  0  0  0  0
   46.4290   34.6460   43.1620 C   0  0  0  0  0  0  0  0  0  0  0  0
   46.2150   33.9860   44.3670 C   0  0  0  0  0  0  0  0  0  0  0  0
   45.2980   34.3870   45.2880 C   0  0  0  0  0  0  0  0  0  0  0  0
   44.5400   35.5050   45.0140 C   0  0  0  0  0  0  0  0  0  0  0  0
   44.6750   36.2140   43.8680 C   0  0  0  0  0  0  0  0  0  0  0  0
   45.6370   35.7450   42.9690 C   0  0  0  0  0  0  0  0  0  0  0  0
   47.5890   34.1670   41.9680 S   0  0  0  0  0  0  0  0  0  0  0  0
   48.8410   35.0360   41.9910 O   0  0  0  0  0  0  0  0  0  0  0  0
   47.0100   34.4460   40.5870 O   0  0  0  0  0  0  0  0  0  0  0  0
   46.1551   30.8237   44.7190 H   0  0  0  0  0  0  0  0  0  0  0  0
   45.2635   32.0328   45.6797 H   0  0  0  0  0  0  0  0  0  0  0  0
   46.8803   33.2856   47.4755 H   0  0  0  0  0  0  0  0  0  0  0  0
   47.4405   29.2609   45.9953 H   0  0  0  0  0  0  0  0  0  0  0  0
   48.7579   30.6221   50.9232 H   0  0  0  0  0  0  0  0  0  0  0  0
   49.5279   29.2939   50.0208 H   0  0  0  0  0  0  0  0  0  0  0  0
   51.2867   29.9768   48.3201 H   0  0  0  0  0  0  0  0  0  0  0  0
   53.4325   31.1723   48.0859 H   0  0  0  0  0  0  0  0  0  0  0  0
   53.9415   33.0657   49.6205 H   0  0  0  0  0  0  0  0  0  0  0  0
   52.2916   33.7144   51.3558 H   0  0  0  0  0  0  0  0  0  0  0  0
   50.1339   32.5157   51.5866 H   0  0  0  0  0  0  0  0  0  0  0  0
   47.8567   33.1040   45.3061 H   0  0  0  0  0  0  0  0  0  0  0  0
   47.3252   32.3794   43.7020 H   0  0  0  0  0  0  0  0  0  0  0  0
   45.1646   33.8325   46.2286 H   0  0  0  0  0  0  0  0  0  0  0  0
   43.7965   35.8342   45.7549 H   0  0  0  0  0  0  0  0  0  0  0  0
   44.0647   37.1047   43.6575 H   0  0  0  0  0  0  0  0  0  0  0  0
   45.7679   36.3044   42.0309 H   0  0  0  0  0  0  0  0  0  0  0  0
   47.8803   32.8534   42.2260 H   0  0  0  0  0  0  0  0  0  0  0  0
  1  3  1  0
  2  7  2  0
  3  4  2  0
  3  2  1  0
  4  5  1  0
  5  6  2  0
  6  8  1  0
  7  6  1  0
  9  8  1  0
  9 14  1  0
 10  9  2  0
 11 10  1  0
 11 12  2  0
 12 13  1  0
 13 14  2  0
 15  1  1  0
 16 17  2  0
 17 15  1  0
 17 18  1  0
 19 18  2  0
 20 19  1  0
 21 16  1  0
 21 20  2  0
 22 23  2  0
 22 16  1  0
 24 22  2  0
  1 25  1  0
  1 26  1  0
  2 27  1  0
  4 28  1  0
  8 29  1  0
  8 30  1  0
 10 31  1  0
 11 32  1  0
 12 33  1  0
 13 34  1  0
 14 35  1  0
 15 36  1  0
 15 37  1  0
 18 38  1  0
 19 39  1  0
 20 40  1  0
 21 41  1  0
 22 42  1  0
M  ISO  8  25   8  26   8  27  14  28  14  29   8  30   8  31  14  32  14
M  ISO  8  33  14  34  14  35  14  36   8  37   8  38  14  39  14  40  14
M  ISO  2  41  14  42  11
M  END
>  <minimizedAffinity>  (1) 
-5.825284

>  <minimizedRMSD>  (1) 
0.944026709

$$$$
