
     RDKit          3D

 43 45  0  0  1  0  0  0  0  0999 V2000
   46.3010   31.7010   45.4630 C   0  0  0  0  0  0  0  0  0  0  0  0
   47.3050   32.3630   47.6640 C   0  0  0  0  0  0  0  0  0  0  0  0
   47.1130   31.3900   46.6400 C   0  0  0  0  0  0  0  0  0  0  0  0
   47.7360   30.1430   46.8140 C   0  0  0  0  0  0  0  0  0  0  0  0
   48.4820   29.9450   47.9440 N   0  0  0  0  0  0  0  0  0  0  0  0
   48.6310   30.8970   48.8790 C   0  0  0  0  0  0  0  0  0  0  0  0
   48.0510   32.0820   48.7360 N   0  0  0  0  0  0  0  0  0  0  0  0
   49.4770   30.5420   50.0560 C   0  0  0  0  0  0  0  0  0  0  0  0
   50.4000   31.7210   50.3030 C   0  0  2  0  0  0  0  0  0  0  0  0
   51.6440   31.5720   49.4220 C   0  0  0  0  0  0  0  0  0  0  0  0
   52.4300   30.5710   50.2100 C   0  0  0  0  0  0  0  0  0  0  0  0
   51.9960   30.5950   51.5050 O   0  0  0  0  0  0  0  0  0  0  0  0
   51.0760   31.6240   51.6690 C   0  0  0  0  0  0  0  0  0  0  0  0
   47.0700   32.7060   44.6420 C   0  0  0  0  0  0  0  0  0  0  0  0
   46.7030   34.5820   43.1040 C   0  0  0  0  0  0  0  0  0  0  0  0
   46.3380   33.9040   44.2500 C   0  0  0  0  0  0  0  0  0  0  0  0
   45.3070   34.2960   45.0510 C   0  0  0  0  0  0  0  0  0  0  0  0
   44.5890   35.4250   44.7070 C   0  0  0  0  0  0  0  0  0  0  0  0
   44.8900   36.1510   43.5870 C   0  0  0  0  0  0  0  0  0  0  0  0
   45.9530   35.6910   42.8180 C   0  0  0  0  0  0  0  0  0  0  0  0
   48.0180   34.1110   42.0600 S   0  0  0  0  0  0  0  0  0  0  0  0
   49.3680   34.5680   42.5980 O   0  0  0  0  0  0  0  0  0  0  0  0
   47.8850   34.8630   40.7460 O   0  0  0  0  0  0  0  0  0  0  0  0
   46.1261   30.7885   44.8742 H   0  0  0  0  0  0  0  0  0  0  0  0
   45.3228   32.1069   45.7602 H   0  0  0  0  0  0  0  0  0  0  0  0
   46.8351   33.3532   47.5707 H   0  0  0  0  0  0  0  0  0  0  0  0
   47.6271   29.3473   46.0623 H   0  0  0  0  0  0  0  0  0  0  0  0
   48.8439   30.3652   50.9380 H   0  0  0  0  0  0  0  0  0  0  0  0
   50.0516   29.6233   49.8668 H   0  0  0  0  0  0  0  0  0  0  0  0
   49.7813   32.6181   50.1533 H   0  0  0  0  0  0  0  0  0  0  0  0
   52.1858   32.5242   49.3228 H   0  0  0  0  0  0  0  0  0  0  0  0
   51.4335   31.2705   48.3853 H   0  0  0  0  0  0  0  0  0  0  0  0
   52.2793   29.5666   49.7876 H   0  0  0  0  0  0  0  0  0  0  0  0
   53.5009   30.8189   50.1689 H   0  0  0  0  0  0  0  0  0  0  0  0
   51.5822   32.5666   51.9247 H   0  0  0  0  0  0  0  0  0  0  0  0
   50.3642   31.4353   52.4862 H   0  0  0  0  0  0  0  0  0  0  0  0
   47.9441   33.0228   45.2299 H   0  0  0  0  0  0  0  0  0  0  0  0
   47.3221   32.1916   43.7029 H   0  0  0  0  0  0  0  0  0  0  0  0
   45.0514   33.7237   45.9549 H   0  0  0  0  0  0  0  0  0  0  0  0
   43.7558   35.7478   45.3485 H   0  0  0  0  0  0  0  0  0  0  0  0
   44.3212   37.0508   43.3097 H   0  0  0  0  0  0  0  0  0  0  0  0
   46.2105   36.2603   41.9127 H   0  0  0  0  0  0  0  0  0  0  0  0
   47.9609   32.7468   41.9482 H   0  0  0  0  0  0  0  0  0  0  0  0
  1  3  1  0
  2  7  2  0
  3  4  2  0
  3  2  1  0
  4  5  1  0
  5  6  2  0
  6  8  1  0
  7  6  1  0
  9  8  1  0
  9 13  1  0
 10 11  1  0
 10  9  1  0
 11 12  1  0
 12 13  1  0
 14  1  1  0
 15 16  2  0
 16 14  1  0
 16 17  1  0
 18 17  2  0
 19 18  1  0
 20 15  1  0
 20 19  2  0
 21 22  2  0
 21 15  1  0
 23 21  2  0
  1 24  1  0
  1 25  1  0
  2 26  1  0
  4 27  1  0
  8 28  1  0
  8 29  1  0
  9 30  1  1
 10 31  1  0
 10 32  1  0
 11 33  1  0
 11 34  1  0
 13 35  1  0
 13 36  1  0
 14 37  1  0
 14 38  1  0
 17 39  1  0
 18 40  1  0
 19 41  1  0
 20 42  1  0
 21 43  1  0
M  ISO  8  24   8  25   8  26  14  27  14  28   8  29   8  30  13  31  13
M  ISO  8  32  13  33  13  34  13  35  13  36  13  37   8  38   8  39  14
M  ISO  4  40  14  41  14  42  14  43  11
M  END
>  <minimizedAffinity>  (1) 
-5.62500238

>  <minimizedRMSD>  (1) 
0.779474556

$$$$
