
     RDKit          3D

 36 37  0  0  0  0  0  0  0  0999 V2000
   46.2810   31.6860   45.4080 C   0  0  0  0  0  0  0  0  0  0  0  0
   47.2650   32.3090   47.6170 C   0  0  0  0  0  0  0  0  0  0  0  0
   47.0710   31.3410   46.5900 C   0  0  0  0  0  0  0  0  0  0  0  0
   47.6630   30.0920   46.7660 C   0  0  0  0  0  0  0  0  0  0  0  0
   48.3900   29.8670   47.9040 N   0  0  0  0  0  0  0  0  0  0  0  0
   48.5390   30.8030   48.8290 C   0  0  0  0  0  0  0  0  0  0  0  0
   47.9940   32.0080   48.7070 N   0  0  0  0  0  0  0  0  0  0  0  0
   49.3540   30.4570   50.0420 C   0  0  0  0  0  0  0  0  0  0  0  0
   50.5220   28.5290   50.9250 C   0  0  0  0  0  0  0  0  0  0  0  0
   50.7640   28.9780   52.0700 O   0  0  0  0  0  0  0  0  0  0  0  0
   49.8520   29.1070   49.8200 N   0  0  0  0  0  0  0  0  0  0  0  0
   47.0180   32.7800   44.6680 C   0  0  0  0  0  0  0  0  0  0  0  0
   46.4280   34.6370   43.1670 C   0  0  0  0  0  0  0  0  0  0  0  0
   46.2250   33.9670   44.3650 C   0  0  0  0  0  0  0  0  0  0  0  0
   45.3060   34.3710   45.2890 C   0  0  0  0  0  0  0  0  0  0  0  0
   44.5430   35.4880   45.0280 C   0  0  0  0  0  0  0  0  0  0  0  0
   44.6850   36.2010   43.8700 C   0  0  0  0  0  0  0  0  0  0  0  0
   45.6400   35.7390   42.9670 C   0  0  0  0  0  0  0  0  0  0  0  0
   47.5910   34.1570   41.9660 S   0  0  0  0  0  0  0  0  0  0  0  0
   48.8460   35.0220   41.9920 O   0  0  0  0  0  0  0  0  0  0  0  0
   47.0100   34.4420   40.5870 O   0  0  0  0  0  0  0  0  0  0  0  0
   46.1705   30.8038   44.7602 H   0  0  0  0  0  0  0  0  0  0  0  0
   45.2769   32.0267   45.7007 H   0  0  0  0  0  0  0  0  0  0  0  0
   46.8162   33.3084   47.5183 H   0  0  0  0  0  0  0  0  0  0  0  0
   47.5487   29.3039   46.0071 H   0  0  0  0  0  0  0  0  0  0  0  0
   50.1926   31.1603   50.1522 H   0  0  0  0  0  0  0  0  0  0  0  0
   48.7534   30.5185   50.9615 H   0  0  0  0  0  0  0  0  0  0  0  0
   50.8948   27.5093   50.7482 H   0  0  0  0  0  0  0  0  0  0  0  0
   49.7263   28.6101   48.9266 H   0  0  0  0  0  0  0  0  0  0  0  0
   47.8743   33.0909   45.2845 H   0  0  0  0  0  0  0  0  0  0  0  0
   47.3086   32.3506   43.6978 H   0  0  0  0  0  0  0  0  0  0  0  0
   45.1763   33.8133   46.2282 H   0  0  0  0  0  0  0  0  0  0  0  0
   43.8002   35.8148   45.7706 H   0  0  0  0  0  0  0  0  0  0  0  0
   44.0765   37.0935   43.6621 H   0  0  0  0  0  0  0  0  0  0  0  0
   45.7701   36.2980   42.0286 H   0  0  0  0  0  0  0  0  0  0  0  0
   47.8804   32.8419   42.2183 H   0  0  0  0  0  0  0  0  0  0  0  0
  1  3  1  0
  2  7  2  0
  3  4  2  0
  3  2  1  0
  4  5  1  0
  5  6  2  0
  6  8  1  0
  7  6  1  0
  9 10  2  0
 11  8  1  0
 11  9  1  0
 12  1  1  0
 13 14  2  0
 14 12  1  0
 14 15  1  0
 16 15  2  0
 17 16  1  0
 18 13  1  0
 18 17  2  0
 19 20  2  0
 19 13  1  0
 21 19  2  0
  1 22  1  0
  1 23  1  0
  2 24  1  0
  4 25  1  0
  8 26  1  0
  8 27  1  0
  9 28  1  0
 11 29  1  0
 12 30  1  0
 12 31  1  0
 15 32  1  0
 16 33  1  0
 17 34  1  0
 18 35  1  0
 19 36  1  0
M  ISO  8  22   8  23   8  24  14  25  14  26   8  27   8  28   6  30   8
M  ISO  6  31   8  32  14  33  14  34  14  35  14  36  11
M  END
>  <minimizedAffinity>  (1) 
-5.24979782

>  <minimizedRMSD>  (1) 
1.37783921

$$$$
