
     RDKit          3D

 46 49  0  0  0  0  0  0  0  0999 V2000
   46.7260   32.5190   44.4560 C   0  0  0  0  0  0  0  0  0  0  0  0
   46.4110   34.3800   42.9020 C   0  0  0  0  0  0  0  0  0  0  0  0
   46.1020   33.8060   44.1330 C   0  0  0  0  0  0  0  0  0  0  0  0
   45.2690   34.3350   45.0440 C   0  0  0  0  0  0  0  0  0  0  0  0
   44.6630   35.5350   44.7570 C   0  0  0  0  0  0  0  0  0  0  0  0
   44.8840   36.1930   43.5780 C   0  0  0  0  0  0  0  0  0  0  0  0
   45.7580   35.5950   42.6730 C   0  0  0  0  0  0  0  0  0  0  0  0
   47.4410   33.7260   41.7060 S   0  0  0  0  0  0  0  0  0  0  0  0
   47.6120   34.8010   40.5580 O   0  0  0  0  0  0  0  0  0  0  0  0
   46.7750   32.6010   40.9960 O   0  0  0  0  0  0  0  0  0  0  0  0
   49.1200   33.5480   42.0320 C   0  0  0  0  0  0  0  0  0  0  0  0
   49.7710   32.4120   41.5060 C   0  0  0  0  0  0  0  0  0  0  0  0
   51.1070   32.4280   41.8370 C   0  0  0  0  0  0  0  0  0  0  0  0
   51.2350   33.5640   42.5520 N   0  0  0  0  0  0  0  0  0  0  0  0
   50.0940   34.2160   42.6690 N   0  0  0  0  0  0  0  0  0  0  0  0
   46.0420   31.6770   45.4890 C   0  0  0  0  0  0  0  0  0  0  0  0
   47.1630   32.4810   47.5510 C   0  0  0  0  0  0  0  0  0  0  0  0
   46.9720   31.4660   46.5910 C   0  0  0  0  0  0  0  0  0  0  0  0
   47.6910   30.2910   46.7610 C   0  0  0  0  0  0  0  0  0  0  0  0
   48.5270   30.1680   47.8200 N   0  0  0  0  0  0  0  0  0  0  0  0
   48.6710   31.1540   48.7000 C   0  0  0  0  0  0  0  0  0  0  0  0
   47.9990   32.3220   48.5880 N   0  0  0  0  0  0  0  0  0  0  0  0
   49.6000   30.9390   49.8670 C   0  0  0  0  0  0  0  0  0  0  0  0
   50.8660   31.6370   49.7360 C   0  0  0  0  0  0  0  0  0  0  0  0
   52.0200   31.1160   49.1780 C   0  0  0  0  0  0  0  0  0  0  0  0
   53.0090   32.0600   49.2290 C   0  0  0  0  0  0  0  0  0  0  0  0
   52.4190   33.1370   49.8220 N   0  0  0  0  0  0  0  0  0  0  0  0
   51.1470   32.8890   50.1240 N   0  0  0  0  0  0  0  0  0  0  0  0
   47.7451   32.7242   44.8156 H   0  0  0  0  0  0  0  0  0  0  0  0
   46.6743   31.9328   43.5266 H   0  0  0  0  0  0  0  0  0  0  0  0
   45.0763   33.8204   45.9969 H   0  0  0  0  0  0  0  0  0  0  0  0
   43.9806   35.9791   45.4967 H   0  0  0  0  0  0  0  0  0  0  0  0
   44.3933   37.1518   43.3546 H   0  0  0  0  0  0  0  0  0  0  0  0
   45.9460   36.1103   41.7195 H   0  0  0  0  0  0  0  0  0  0  0  0
   49.2802   31.6248   40.9149 H   0  0  0  0  0  0  0  0  0  0  0  0
   51.8829   31.6918   41.5802 H   0  0  0  0  0  0  0  0  0  0  0  0
   52.1237   33.8865   42.9609 H   0  0  0  0  0  0  0  0  0  0  0  0
   45.1422   32.1934   45.8545 H   0  0  0  0  0  0  0  0  0  0  0  0
   45.7409   30.7121   45.0550 H   0  0  0  0  0  0  0  0  0  0  0  0
   46.6123   33.4275   47.4469 H   0  0  0  0  0  0  0  0  0  0  0  0
   47.5829   29.4660   46.0415 H   0  0  0  0  0  0  0  0  0  0  0  0
   49.0997   31.2938   50.7801 H   0  0  0  0  0  0  0  0  0  0  0  0
   49.8264   29.8633   49.9062 H   0  0  0  0  0  0  0  0  0  0  0  0
   52.1255   30.1040   48.7600 H   0  0  0  0  0  0  0  0  0  0  0  0
   54.0457   31.9705   48.8723 H   0  0  0  0  0  0  0  0  0  0  0  0
   52.8973   34.0292   50.0120 H   0  0  0  0  0  0  0  0  0  0  0  0
  1 16  1  0
  2  3  1  0
  3  1  1  0
  3  4  2  0
  5  4  1  0
  6  5  2  0
  7  2  2  0
  7  6  1  0
  8 11  1  0
  8  2  1  0
  9  8  2  0
 10  8  2  0
 11 15  2  0
 12 13  2  0
 12 11  1  0
 13 14  1  0
 14 15  1  0
 16 18  1  0
 17 22  2  0
 18 19  2  0
 18 17  1  0
 19 20  1  0
 20 21  2  0
 21 23  1  0
 22 21  1  0
 24 23  1  0
 24 28  2  0
 25 26  2  0
 25 24  1  0
 26 27  1  0
 27 28  1  0
  1 29  1  0
  1 30  1  0
  4 31  1  0
  5 32  1  0
  6 33  1  0
  7 34  1  0
 12 35  1  0
 13 36  1  0
 14 37  1  0
 16 38  1  0
 16 39  1  0
 17 40  1  0
 19 41  1  0
 23 42  1  0
 23 43  1  0
 25 44  1  0
 26 45  1  0
 27 46  1  0
M  ISO  8  29   8  30   8  31  14  32  14  33  14  34  14  35  14  36  14
M  ISO  8  37   9  38   8  39   8  40  14  41  14  42   8  43   8  44  14
M  ISO  2  45  14  46   9
M  END
>  <minimizedAffinity>  (1) 
-6.62860441

>  <minimizedRMSD>  (1) 
0.803157449

$$$$
