
     RDKit          3D

 37 39  0  0  1  0  0  0  0  0999 V2000
   48.4250   32.8180   40.4510 C   0  0  0  0  0  0  0  0  0  0  0  0
   49.5490   32.2790   40.1100 C   0  0  0  0  0  0  0  0  0  0  0  0
   49.7680   31.8050   38.8030 N   0  0  0  0  0  0  0  0  0  0  0  0
   50.2480   30.7280   37.9540 C   0  0  0  0  0  0  0  0  0  0  0  0
   51.1130   29.8030   38.0860 O   0  0  0  0  0  0  0  0  0  0  0  0
   49.2670   31.2520   36.9380 C   0  0  0  0  0  0  0  0  0  0  0  0
   49.4280   32.5960   37.6010 C   0  0  1  0  0  0  0  0  0  0  0  0
   47.9400   33.5290   37.9140 S   0  0  0  0  0  0  0  0  0  0  0  0
   47.2810   32.9900   39.5240 C   0  0  0  0  0  0  0  0  0  0  0  0
   48.2080   33.2990   41.8010 C   0  0  0  0  0  0  0  0  0  0  0  0
   47.0650   34.7450   41.7960 S   0  0  0  0  0  0  0  0  0  0  0  0
   44.5520   35.6320   44.8520 C   0  0  0  0  0  0  0  0  0  0  0  0
   45.2060   35.6740   43.6010 C   0  0  0  0  0  0  0  0  0  0  0  0
   46.2170   34.7250   43.3620 C   0  0  0  0  0  0  0  0  0  0  0  0
   46.4940   33.8450   44.3320 N   0  0  0  0  0  0  0  0  0  0  0  0
   45.8630   33.8180   45.5160 C   0  0  0  0  0  0  0  0  0  0  0  0
   44.8890   34.7110   45.7820 N   0  0  0  0  0  0  0  0  0  0  0  0
   46.2550   32.7930   46.5240 C   0  0  0  0  0  0  0  0  0  0  0  0
   45.2330   32.8190   47.6590 C   0  0  0  0  0  0  0  0  0  0  0  0
   50.6250   32.1550   41.0930 C   0  0  0  0  0  0  0  0  0  0  0  0
   51.8480   31.9320   40.8080 O   0  0  0  0  0  0  0  0  0  0  0  0
   51.3770   32.0950   42.2220 O   0  0  0  0  0  0  0  0  0  0  0  0
   48.2571   30.8215   37.0068 H   0  0  0  0  0  0  0  0  0  0  0  0
   49.4140   31.1120   35.8569 H   0  0  0  0  0  0  0  0  0  0  0  0
   50.0419   33.3763   37.1274 H   0  0  0  0  0  0  0  0  0  0  0  0
   46.5912   33.7505   39.9189 H   0  0  0  0  0  0  0  0  0  0  0  0
   46.7309   32.0437   39.4151 H   0  0  0  0  0  0  0  0  0  0  0  0
   47.7685   32.4924   42.4063 H   0  0  0  0  0  0  0  0  0  0  0  0
   49.1732   33.6103   42.2269 H   0  0  0  0  0  0  0  0  0  0  0  0
   43.7569   36.3594   45.0727 H   0  0  0  0  0  0  0  0  0  0  0  0
   44.9348   36.4215   42.8410 H   0  0  0  0  0  0  0  0  0  0  0  0
   46.2662   31.7973   46.0566 H   0  0  0  0  0  0  0  0  0  0  0  0
   47.2599   33.0113   46.9146 H   0  0  0  0  0  0  0  0  0  0  0  0
   45.7580   32.8056   48.6255 H   0  0  0  0  0  0  0  0  0  0  0  0
   44.6254   33.7329   47.5844 H   0  0  0  0  0  0  0  0  0  0  0  0
   44.5797   31.9372   47.5844 H   0  0  0  0  0  0  0  0  0  0  0  0
   52.3504   31.9254   42.1600 H   0  0  0  0  0  0  0  0  0  0  0  0
  1 10  1  0
  2  1  2  0
  2 20  1  0
  3  2  1  0
  4  5  2  0
  4  3  1  0
  6  7  1  0
  6  4  1  0
  7  8  1  0
  7  3  1  0
  8  9  1  0
  9  1  1  0
 11 10  1  0
 11 14  1  0
 12 17  2  0
 13 12  1  0
 14 13  2  0
 14 15  1  0
 15 16  2  0
 16 17  1  0
 16 18  1  0
 18 19  1  0
 20 22  1  0
 21 20  2  0
  6 23  1  0
  6 24  1  0
  7 25  1  6
  9 26  1  0
  9 27  1  0
 10 28  1  0
 10 29  1  0
 12 30  1  0
 13 31  1  0
 18 32  1  0
 18 33  1  0
 19 34  1  0
 19 35  1  0
 19 36  1  0
 22 37  1  0
M  ISO  8  23  13  24  13  25  13  26  13  27  13  28   8  29   8  30  14
M  ISO  7  31  14  32   8  33   8  34   8  35   8  36   8  37   3
M  END
>  <minimizedAffinity>  (1) 
-4.88879013

>  <minimizedRMSD>  (1) 
0.332847148

$$$$
