
     RDKit          3D

 20 21  0  0  0  0  0  0  0  0999 V2000
   45.5990   34.0390   45.3370 C   0  0  0  0  0  0  0  0  0  0  0  0
   44.7080   35.1040   45.5600 C   0  0  0  0  0  0  0  0  0  0  0  0
   44.5440   36.0440   44.5420 C   0  0  0  0  0  0  0  0  0  0  0  0
   45.2480   35.8840   43.3940 N   0  0  0  0  0  0  0  0  0  0  0  0
   46.1010   34.8490   43.2030 C   0  0  0  0  0  0  0  0  0  0  0  0
   46.2730   33.9280   44.1770 N   0  0  0  0  0  0  0  0  0  0  0  0
   44.7800   33.1700   41.1170 Cl  0  0  0  0  0  0  0  0  0  0  0  0
   46.3110   33.9760   40.9210 C   0  0  0  0  0  0  0  0  0  0  0  0
   46.8390   34.7270   41.9350 C   0  0  0  0  0  0  0  0  0  0  0  0
   48.0660   35.3860   41.8080 C   0  0  0  0  0  0  0  0  0  0  0  0
   48.7110   35.2350   40.5990 C   0  0  0  0  0  0  0  0  0  0  0  0
   48.1850   34.4830   39.5800 C   0  0  0  0  0  0  0  0  0  0  0  0
   46.9850   33.8480   39.7240 C   0  0  0  0  0  0  0  0  0  0  0  0
   45.7476   33.2843   46.1234 H   0  0  0  0  0  0  0  0  0  0  0  0
   44.1572   35.1932   46.5080 H   0  0  0  0  0  0  0  0  0  0  0  0
   43.8592   36.8956   44.6678 H   0  0  0  0  0  0  0  0  0  0  0  0
   48.4910   35.9888   42.6241 H   0  0  0  0  0  0  0  0  0  0  0  0
   49.6794   35.7341   40.4467 H   0  0  0  0  0  0  0  0  0  0  0  0
   48.7376   34.3901   38.6334 H   0  0  0  0  0  0  0  0  0  0  0  0
   46.5648   33.2475   38.9037 H   0  0  0  0  0  0  0  0  0  0  0  0
  1  2  2  0
  3  2  1  0
  4  3  2  0
  5  4  1  0
  5  6  2  0
  6  1  1  0
  8  7  1  0
  8  9  2  0
  9  5  1  0
 10  9  1  0
 11 10  2  0
 12 13  2  0
 12 11  1  0
 13  8  1  0
  1 14  1  0
  2 15  1  0
  3 16  1  0
 10 17  1  0
 11 18  1  0
 12 19  1  0
 13 20  1  0
M  ISO  7  14  14  15  14  16  14  17  14  18  14  19  14  20  14
M  END
>  <minimizedAffinity>  (1) 
-4.94594288

>  <minimizedRMSD>  (1) 
6.13363743

$$$$
