
     RDKit          3D

 33 35  0  0  0  0  0  0  0  0999 V2000
   47.0720   34.5510   42.1210 C   0  0  0  0  0  0  0  0  0  0  0  0
   48.1760   35.3050   41.7760 C   0  0  0  0  0  0  0  0  0  0  0  0
   48.6440   35.3230   40.4770 C   0  0  0  0  0  0  0  0  0  0  0  0
   48.0270   34.5880   39.4720 C   0  0  0  0  0  0  0  0  0  0  0  0
   48.5440   34.6600   38.2370 N   0  0  0  0  0  0  0  0  0  0  0  0
   47.9560   33.9470   37.2320 C   0  0  0  0  0  0  0  0  0  0  0  0
   46.8520   33.1870   37.5610 C   0  0  0  0  0  0  0  0  0  0  0  0
   46.3060   33.0990   38.8220 C   0  0  0  0  0  0  0  0  0  0  0  0
   46.9170   33.8280   39.8200 C   0  0  0  0  0  0  0  0  0  0  0  0
   46.4430   33.8070   41.1230 C   0  0  0  0  0  0  0  0  0  0  0  0
   45.3890   35.2350   43.8540 C   0  0  0  0  0  0  0  0  0  0  0  0
   46.4500   34.4150   43.4230 C   0  0  0  0  0  0  0  0  0  0  0  0
   46.9400   33.4090   44.2950 C   0  0  0  0  0  0  0  0  0  0  0  0
   46.3380   33.3060   45.5090 N   0  0  0  0  0  0  0  0  0  0  0  0
   45.3230   34.1040   45.8970 C   0  0  0  0  0  0  0  0  0  0  0  0
   44.8660   35.0510   45.0680 N   0  0  0  0  0  0  0  0  0  0  0  0
   44.9080   36.2300   42.9860 N   0  0  0  0  0  0  0  0  0  0  0  0
   44.7490   33.8850   47.2610 C   0  0  0  0  0  0  0  0  0  0  0  0
   45.3260   32.5930   47.8540 C   0  0  0  0  0  0  0  0  0  0  0  0
   48.6895   35.8992   42.5462 H   0  0  0  0  0  0  0  0  0  0  0  0
   49.5257   35.9334   40.2321 H   0  0  0  0  0  0  0  0  0  0  0  0
   48.3457   33.9770   36.2038 H   0  0  0  0  0  0  0  0  0  0  0  0
   46.3731   32.6091   36.7568 H   0  0  0  0  0  0  0  0  0  0  0  0
   45.4226   32.4755   39.0239 H   0  0  0  0  0  0  0  0  0  0  0  0
   45.5619   33.1973   41.3720 H   0  0  0  0  0  0  0  0  0  0  0  0
   47.7667   32.7448   44.0028 H   0  0  0  0  0  0  0  0  0  0  0  0
   45.3310   36.3492   42.0545 H   0  0  0  0  0  0  0  0  0  0  0  0
   44.1324   36.8400   43.2813 H   0  0  0  0  0  0  0  0  0  0  0  0
   45.0088   34.7347   47.9095 H   0  0  0  0  0  0  0  0  0  0  0  0
   43.6545   33.8007   47.1904 H   0  0  0  0  0  0  0  0  0  0  0  0
   45.3004   32.6502   48.9522 H   0  0  0  0  0  0  0  0  0  0  0  0
   44.7255   31.7350   47.5175 H   0  0  0  0  0  0  0  0  0  0  0  0
   46.3657   32.4675   47.5175 H   0  0  0  0  0  0  0  0  0  0  0  0
  1 12  1  0
  2  1  2  0
  3  2  1  0
  4  9  1  0
  4  3  2  0
  5  4  1  0
  6  7  1  0
  6  5  2  0
  7  8  2  0
  8  9  1  0
  9 10  2  0
 10  1  1  0
 11 16  2  0
 12 11  1  0
 12 13  2  0
 13 14  1  0
 14 15  2  0
 15 18  1  0
 16 15  1  0
 17 11  1  0
 18 19  1  0
  2 20  1  0
  3 21  1  0
  6 22  1  0
  7 23  1  0
  8 24  1  0
 10 25  1  0
 13 26  1  0
 17 27  1  0
 17 28  1  0
 18 29  1  0
 18 30  1  0
 19 31  1  0
 19 32  1  0
 19 33  1  0
M  ISO  8  20  14  21  14  22  14  23  14  24  14  25  14  26  14  29   8
M  ISO  4  30   8  31   8  32   8  33   8
M  END
>  <minimizedAffinity>  (1) 
-5.84590101

>  <minimizedRMSD>  (1) 
0.651665151

$$$$
