
     RDKit          3D

 43 46  0  0  0  0  0  0  0  0999 V2000
   45.6840   34.7840   44.0180 C   0  0  0  0  0  0  0  0  0  0  0  0
   46.7360   34.0280   43.4550 C   0  0  0  0  0  0  0  0  0  0  0  0
   47.2880   32.9580   44.1970 C   0  0  0  0  0  0  0  0  0  0  0  0
   46.7310   32.7590   45.4220 N   0  0  0  0  0  0  0  0  0  0  0  0
   45.7400   33.4770   45.9460 C   0  0  0  0  0  0  0  0  0  0  0  0
   45.2290   34.4790   45.2380 N   0  0  0  0  0  0  0  0  0  0  0  0
   45.1280   35.8500   43.2700 N   0  0  0  0  0  0  0  0  0  0  0  0
   47.2820   34.3060   42.1410 C   0  0  0  0  0  0  0  0  0  0  0  0
   48.3080   35.1930   41.8190 C   0  0  0  0  0  0  0  0  0  0  0  0
   48.7150   35.3460   40.5160 C   0  0  0  0  0  0  0  0  0  0  0  0
   48.1180   34.6230   39.4770 C   0  0  0  0  0  0  0  0  0  0  0  0
   48.5770   34.8390   38.2400 N   0  0  0  0  0  0  0  0  0  0  0  0
   48.0190   34.1570   37.2040 C   0  0  0  0  0  0  0  0  0  0  0  0
   47.0030   33.2770   37.5140 C   0  0  0  0  0  0  0  0  0  0  0  0
   46.5180   33.0440   38.7840 C   0  0  0  0  0  0  0  0  0  0  0  0
   47.1040   33.7490   39.8090 C   0  0  0  0  0  0  0  0  0  0  0  0
   46.6880   33.5890   41.1240 C   0  0  0  0  0  0  0  0  0  0  0  0
   45.2970   33.0850   47.3050 C   0  0  0  0  0  0  0  0  0  0  0  0
   45.5700   31.6400   47.6130 C   0  0  0  0  0  0  0  0  0  0  0  0
   46.8940   31.2730   48.0660 C   0  0  0  0  0  0  0  0  0  0  0  0
   47.8530   31.9150   48.8180 C   0  0  0  0  0  0  0  0  0  0  0  0
   49.0570   31.3590   49.1830 C   0  0  0  0  0  0  0  0  0  0  0  0
   49.3750   30.0760   48.7930 C   0  0  0  0  0  0  0  0  0  0  0  0
   48.4550   29.3820   48.0360 C   0  0  0  0  0  0  0  0  0  0  0  0
   47.2620   29.9820   47.6970 C   0  0  0  0  0  0  0  0  0  0  0  0
   48.1072   32.3329   43.8120 H   0  0  0  0  0  0  0  0  0  0  0  0
   45.4943   36.0671   42.3321 H   0  0  0  0  0  0  0  0  0  0  0  0
   44.3572   36.4084   43.6638 H   0  0  0  0  0  0  0  0  0  0  0  0
   48.7957   35.7751   42.6148 H   0  0  0  0  0  0  0  0  0  0  0  0
   49.5268   36.0512   40.2845 H   0  0  0  0  0  0  0  0  0  0  0  0
   48.3615   34.3003   36.1685 H   0  0  0  0  0  0  0  0  0  0  0  0
   46.5445   32.7183   36.6848 H   0  0  0  0  0  0  0  0  0  0  0  0
   45.7024   32.3292   38.9679 H   0  0  0  0  0  0  0  0  0  0  0  0
   45.8768   32.8835   41.3567 H   0  0  0  0  0  0  0  0  0  0  0  0
   45.8276   33.7073   48.0406 H   0  0  0  0  0  0  0  0  0  0  0  0
   44.2082   33.2337   47.3538 H   0  0  0  0  0  0  0  0  0  0  0  0
   44.8614   31.3347   48.3970 H   0  0  0  0  0  0  0  0  0  0  0  0
   45.4645   31.1314   46.6434 H   0  0  0  0  0  0  0  0  0  0  0  0
   47.6416   32.9424   49.1492 H   0  0  0  0  0  0  0  0  0  0  0  0
   49.7683   31.9403   49.7881 H   0  0  0  0  0  0  0  0  0  0  0  0
   50.3344   29.6191   49.0772 H   0  0  0  0  0  0  0  0  0  0  0  0
   48.6722   28.3558   47.7048 H   0  0  0  0  0  0  0  0  0  0  0  0
   46.5505   29.4003   47.0925 H   0  0  0  0  0  0  0  0  0  0  0  0
  1  6  2  0
  2  1  1  0
  2  3  2  0
  3  4  1  0
  4  5  2  0
  5 18  1  0
  6  5  1  0
  7  1  1  0
  8  2  1  0
  9  8  2  0
 10  9  1  0
 11 16  1  0
 11 10  2  0
 12 11  1  0
 13 14  1  0
 13 12  2  0
 14 15  2  0
 15 16  1  0
 16 17  2  0
 17  8  1  0
 18 19  1  0
 19 20  1  0
 20 21  2  0
 21 22  1  0
 23 22  2  0
 24 23  1  0
 25 24  2  0
 25 20  1  0
  3 26  1  0
  7 27  1  0
  7 28  1  0
  9 29  1  0
 10 30  1  0
 13 31  1  0
 14 32  1  0
 15 33  1  0
 17 34  1  0
 18 35  1  0
 18 36  1  0
 19 37  1  0
 19 38  1  0
 21 39  1  0
 22 40  1  0
 23 41  1  0
 24 42  1  0
 25 43  1  0
M  ISO  8  26  14  29  14  30  14  31  14  32  14  33  14  34  14  35   8
M  ISO  8  36   8  37   8  38   8  39  14  40  14  41  14  42  14  43  14
M  END
>  <minimizedAffinity>  (1) 
-6.63374376

>  <minimizedRMSD>  (1) 
0.950080454

$$$$
