
     RDKit          3D

 40 43  0  0  0  0  0  0  0  0999 V2000
   45.5930   34.9560   43.8910 C   0  0  0  0  0  0  0  0  0  0  0  0
   46.6820   34.2120   43.3890 C   0  0  0  0  0  0  0  0  0  0  0  0
   47.2390   33.1860   44.2010 C   0  0  0  0  0  0  0  0  0  0  0  0
   46.6820   32.9890   45.4170 N   0  0  0  0  0  0  0  0  0  0  0  0
   45.6330   33.7250   45.8660 C   0  0  0  0  0  0  0  0  0  0  0  0
   45.1060   34.6930   45.1020 N   0  0  0  0  0  0  0  0  0  0  0  0
   45.0460   35.9690   43.0830 N   0  0  0  0  0  0  0  0  0  0  0  0
   47.2600   34.4400   42.0890 C   0  0  0  0  0  0  0  0  0  0  0  0
   48.3050   35.2760   41.7470 C   0  0  0  0  0  0  0  0  0  0  0  0
   48.7410   35.3800   40.4430 C   0  0  0  0  0  0  0  0  0  0  0  0
   48.1440   34.6460   39.4190 C   0  0  0  0  0  0  0  0  0  0  0  0
   48.6360   34.8130   38.1830 N   0  0  0  0  0  0  0  0  0  0  0  0
   48.0670   34.1010   37.1590 C   0  0  0  0  0  0  0  0  0  0  0  0
   47.0220   33.2600   37.4750 C   0  0  0  0  0  0  0  0  0  0  0  0
   46.5110   33.0830   38.7430 C   0  0  0  0  0  0  0  0  0  0  0  0
   47.0990   33.8090   39.7570 C   0  0  0  0  0  0  0  0  0  0  0  0
   46.6550   33.7000   41.0710 C   0  0  0  0  0  0  0  0  0  0  0  0
   45.1070   33.4060   47.2340 C   0  0  0  0  0  0  0  0  0  0  0  0
   46.1140   32.5430   47.9900 C   0  0  0  0  0  0  0  0  0  0  0  0
   45.6810   31.1540   48.1090 C   0  0  0  0  0  0  0  0  0  0  0  0
   45.4410   30.1580   47.2080 C   0  0  0  0  0  0  0  0  0  0  0  0
   45.0400   28.9980   47.8480 C   0  0  0  0  0  0  0  0  0  0  0  0
   45.0550   29.3490   49.1460 N   0  0  0  0  0  0  0  0  0  0  0  0
   45.4250   30.6040   49.3270 N   0  0  0  0  0  0  0  0  0  0  0  0
   48.0876   32.5781   43.8542 H   0  0  0  0  0  0  0  0  0  0  0  0
   45.4409   36.1529   42.1497 H   0  0  0  0  0  0  0  0  0  0  0  0
   44.2505   36.5270   43.4246 H   0  0  0  0  0  0  0  0  0  0  0  0
   48.7989   35.8702   42.5299 H   0  0  0  0  0  0  0  0  0  0  0  0
   49.5763   36.0554   40.2060 H   0  0  0  0  0  0  0  0  0  0  0  0
   48.4304   34.1972   36.1252 H   0  0  0  0  0  0  0  0  0  0  0  0
   46.5620   32.6882   36.6556 H   0  0  0  0  0  0  0  0  0  0  0  0
   45.6743   32.3956   38.9365 H   0  0  0  0  0  0  0  0  0  0  0  0
   45.8200   33.0250   41.3101 H   0  0  0  0  0  0  0  0  0  0  0  0
   44.9402   34.3416   47.7879 H   0  0  0  0  0  0  0  0  0  0  0  0
   44.1590   32.8563   47.1382 H   0  0  0  0  0  0  0  0  0  0  0  0
   47.0738   32.5686   47.4533 H   0  0  0  0  0  0  0  0  0  0  0  0
   46.2084   32.9522   49.0067 H   0  0  0  0  0  0  0  0  0  0  0  0
   45.5514   30.2628   46.1186 H   0  0  0  0  0  0  0  0  0  0  0  0
   44.7743   28.0274   47.4039 H   0  0  0  0  0  0  0  0  0  0  0  0
   44.8055   28.7098   49.9142 H   0  0  0  0  0  0  0  0  0  0  0  0
  1  6  2  0
  2  1  1  0
  2  3  2  0
  3  4  1  0
  4  5  2  0
  5 18  1  0
  6  5  1  0
  7  1  1  0
  8  2  1  0
  9  8  2  0
 10  9  1  0
 11 16  1  0
 11 10  2  0
 12 11  1  0
 13 14  1  0
 13 12  2  0
 14 15  2  0
 15 16  1  0
 16 17  2  0
 17  8  1  0
 18 19  1  0
 19 20  1  0
 20 24  2  0
 21 22  2  0
 21 20  1  0
 22 23  1  0
 23 24  1  0
  3 25  1  0
  7 26  1  0
  7 27  1  0
  9 28  1  0
 10 29  1  0
 13 30  1  0
 14 31  1  0
 15 32  1  0
 17 33  1  0
 18 34  1  0
 18 35  1  0
 19 36  1  0
 19 37  1  0
 21 38  1  0
 22 39  1  0
 23 40  1  0
M  ISO  8  25  14  28  14  29  14  30  14  31  14  32  14  33  14  34   8
M  ISO  6  35   8  36   8  37   8  38  14  39  14  40   9
M  END
>  <minimizedAffinity>  (1) 
-6.53808594

>  <minimizedRMSD>  (1) 
1.01139128

$$$$
