
     RDKit          3D

 47 50  0  0  0  0  0  0  0  0999 V2000
   45.4460   35.1900   43.7500 C   0  0  0  0  0  0  0  0  0  0  0  0
   46.5310   34.3840   43.3180 C   0  0  0  0  0  0  0  0  0  0  0  0
   47.0230   33.3840   44.1800 C   0  0  0  0  0  0  0  0  0  0  0  0
   46.4210   33.2480   45.3900 N   0  0  0  0  0  0  0  0  0  0  0  0
   45.3920   34.0240   45.7800 C   0  0  0  0  0  0  0  0  0  0  0  0
   44.9180   34.9790   44.9640 N   0  0  0  0  0  0  0  0  0  0  0  0
   44.9540   36.1840   42.8950 N   0  0  0  0  0  0  0  0  0  0  0  0
   47.1530   34.5520   42.0220 C   0  0  0  0  0  0  0  0  0  0  0  0
   48.2350   35.3420   41.6960 C   0  0  0  0  0  0  0  0  0  0  0  0
   48.7060   35.3880   40.3980 C   0  0  0  0  0  0  0  0  0  0  0  0
   48.1090   34.6410   39.3740 C   0  0  0  0  0  0  0  0  0  0  0  0
   48.6340   34.7520   38.1550 N   0  0  0  0  0  0  0  0  0  0  0  0
   48.0640   34.0280   37.1360 C   0  0  0  0  0  0  0  0  0  0  0  0
   46.9880   33.2390   37.4510 C   0  0  0  0  0  0  0  0  0  0  0  0
   46.4380   33.1180   38.7050 C   0  0  0  0  0  0  0  0  0  0  0  0
   47.0190   33.8490   39.7170 C   0  0  0  0  0  0  0  0  0  0  0  0
   46.5450   33.8010   41.0160 C   0  0  0  0  0  0  0  0  0  0  0  0
   44.7990   33.7930   47.1390 C   0  0  0  0  0  0  0  0  0  0  0  0
   45.7500   32.9170   47.9450 C   0  0  0  0  0  0  0  0  0  0  0  0
   44.9780   31.6580   48.3410 C   0  0  0  0  0  0  0  0  0  0  0  0
   45.0330   30.6400   47.2120 C   0  0  0  0  0  0  0  0  0  0  0  0
   46.1160   29.6010   47.4910 C   0  0  0  0  0  0  0  0  0  0  0  0
   47.2700   30.2100   47.9900 O   0  0  0  0  0  0  0  0  0  0  0  0
   47.0730   30.7010   49.2780 C   0  0  0  0  0  0  0  0  0  0  0  0
   45.6190   31.0040   49.5430 C   0  0  0  0  0  0  0  0  0  0  0  0
   47.8628   32.7379   43.8843 H   0  0  0  0  0  0  0  0  0  0  0  0
   45.3802   36.3228   41.9676 H   0  0  0  0  0  0  0  0  0  0  0  0
   44.1660   36.7763   43.1935 H   0  0  0  0  0  0  0  0  0  0  0  0
   48.7275   35.9409   42.4762 H   0  0  0  0  0  0  0  0  0  0  0  0
   49.5704   36.0264   40.1629 H   0  0  0  0  0  0  0  0  0  0  0  0
   48.4550   34.0793   36.1091 H   0  0  0  0  0  0  0  0  0  0  0  0
   46.5293   32.6579   36.6374 H   0  0  0  0  0  0  0  0  0  0  0  0
   45.5720   32.4660   38.8918 H   0  0  0  0  0  0  0  0  0  0  0  0
   45.6808   33.1648   41.2576 H   0  0  0  0  0  0  0  0  0  0  0  0
   44.6601   34.7567   47.6508 H   0  0  0  0  0  0  0  0  0  0  0  0
   43.8227   33.2955   47.0421 H   0  0  0  0  0  0  0  0  0  0  0  0
   46.6235   32.6469   47.3334 H   0  0  0  0  0  0  0  0  0  0  0  0
   46.1116   33.4503   48.8366 H   0  0  0  0  0  0  0  0  0  0  0  0
   43.9426   31.9568   48.5617 H   0  0  0  0  0  0  0  0  0  0  0  0
   45.2598   31.1566   46.2677 H   0  0  0  0  0  0  0  0  0  0  0  0
   44.0597   30.1329   47.1384 H   0  0  0  0  0  0  0  0  0  0  0  0
   45.7408   28.8784   48.2307 H   0  0  0  0  0  0  0  0  0  0  0  0
   46.3656   29.0899   46.5495 H   0  0  0  0  0  0  0  0  0  0  0  0
   47.4184   29.9492   50.0029 H   0  0  0  0  0  0  0  0  0  0  0  0
   47.6424   31.6367   49.3792 H   0  0  0  0  0  0  0  0  0  0  0  0
   45.5437   31.6826   50.4054 H   0  0  0  0  0  0  0  0  0  0  0  0
   45.0949   30.0595   49.7511 H   0  0  0  0  0  0  0  0  0  0  0  0
  1  6  2  0
  2  1  1  0
  2  3  2  0
  3  4  1  0
  4  5  2  0
  5 18  1  0
  6  5  1  0
  7  1  1  0
  8  2  1  0
  9  8  2  0
 10  9  1  0
 11 16  1  0
 11 10  2  0
 12 11  1  0
 13 14  1  0
 13 12  2  0
 14 15  2  0
 15 16  1  0
 16 17  2  0
 17  8  1  0
 18 19  1  0
 19 20  1  0
 20 25  1  0
 21 22  1  0
 21 20  1  0
 22 23  1  0
 23 24  1  0
 24 25  1  0
  3 26  1  0
  7 27  1  0
  7 28  1  0
  9 29  1  0
 10 30  1  0
 13 31  1  0
 14 32  1  0
 15 33  1  0
 17 34  1  0
 18 35  1  0
 18 36  1  0
 19 37  1  0
 19 38  1  0
 20 39  1  0
 21 40  1  0
 21 41  1  0
 22 42  1  0
 22 43  1  0
 24 44  1  0
 24 45  1  0
 25 46  1  0
 25 47  1  0
M  ISO  8  26  14  29  14  30  14  31  14  32  14  33  14  34  14  35   8
M  ISO  8  36   8  37   8  38   8  39  13  40  13  41  13  42  13  43  13
M  ISO  4  44  13  45  13  46  13  47  13
M  END
>  <minimizedAffinity>  (1) 
-6.50226498

>  <minimizedRMSD>  (1) 
1.05217862

$$$$
