
     RDKit          3D

 46 49  0  0  0  0  0  0  0  0999 V2000
   45.6260   34.8140   44.0310 C   0  0  0  0  0  0  0  0  0  0  0  0
   46.7080   34.0820   43.4990 C   0  0  0  0  0  0  0  0  0  0  0  0
   47.2770   33.0480   44.2740 C   0  0  0  0  0  0  0  0  0  0  0  0
   46.7340   32.8290   45.4960 N   0  0  0  0  0  0  0  0  0  0  0  0
   45.7070   33.5400   45.9770 C   0  0  0  0  0  0  0  0  0  0  0  0
   45.1610   34.5220   45.2460 N   0  0  0  0  0  0  0  0  0  0  0  0
   45.0560   35.8450   43.2610 N   0  0  0  0  0  0  0  0  0  0  0  0
   47.2640   34.3490   42.1870 C   0  0  0  0  0  0  0  0  0  0  0  0
   48.3000   35.2200   41.8600 C   0  0  0  0  0  0  0  0  0  0  0  0
   48.7160   35.3620   40.5500 C   0  0  0  0  0  0  0  0  0  0  0  0
   48.1130   34.6370   39.5220 C   0  0  0  0  0  0  0  0  0  0  0  0
   48.5790   34.8330   38.2850 N   0  0  0  0  0  0  0  0  0  0  0  0
   48.0140   34.1390   37.2510 C   0  0  0  0  0  0  0  0  0  0  0  0
   46.9810   33.2670   37.5630 C   0  0  0  0  0  0  0  0  0  0  0  0
   46.5040   33.0670   38.8320 C   0  0  0  0  0  0  0  0  0  0  0  0
   47.0880   33.7750   39.8520 C   0  0  0  0  0  0  0  0  0  0  0  0
   46.6630   33.6280   41.1730 C   0  0  0  0  0  0  0  0  0  0  0  0
   45.2200   33.1960   47.3500 C   0  0  0  0  0  0  0  0  0  0  0  0
   46.2220   32.2880   48.0500 C   0  0  0  0  0  0  0  0  0  0  0  0
   46.1370   30.9400   47.5220 N   0  0  0  0  0  0  0  0  0  0  0  0
   44.9860   30.2310   48.0720 C   0  0  0  0  0  0  0  0  0  0  0  0
   44.9310   28.9030   47.3240 C   0  0  0  0  0  0  0  0  0  0  0  0
   46.0560   28.1680   47.6570 O   0  0  0  0  0  0  0  0  0  0  0  0
   47.2380   28.8300   47.3590 C   0  0  0  0  0  0  0  0  0  0  0  0
   47.3060   30.2090   47.9800 C   0  0  0  0  0  0  0  0  0  0  0  0
   48.1214   32.4484   43.9032 H   0  0  0  0  0  0  0  0  0  0  0  0
   45.4297   36.0552   42.3245 H   0  0  0  0  0  0  0  0  0  0  0  0
   44.2652   36.3894   43.6340 H   0  0  0  0  0  0  0  0  0  0  0  0
   48.7927   35.8014   42.6532 H   0  0  0  0  0  0  0  0  0  0  0  0
   49.5351   36.0573   40.3142 H   0  0  0  0  0  0  0  0  0  0  0  0
   48.3637   34.2667   36.2159 H   0  0  0  0  0  0  0  0  0  0  0  0
   46.5165   32.7017   36.7416 H   0  0  0  0  0  0  0  0  0  0  0  0
   45.6813   32.3631   39.0262 H   0  0  0  0  0  0  0  0  0  0  0  0
   45.8436   32.9331   41.4088 H   0  0  0  0  0  0  0  0  0  0  0  0
   45.0967   34.1199   47.9341 H   0  0  0  0  0  0  0  0  0  0  0  0
   44.2561   32.6723   47.2687 H   0  0  0  0  0  0  0  0  0  0  0  0
   47.2382   32.6771   47.8887 H   0  0  0  0  0  0  0  0  0  0  0  0
   45.9925   32.2652   49.1255 H   0  0  0  0  0  0  0  0  0  0  0  0
   45.1192   30.0597   49.1504 H   0  0  0  0  0  0  0  0  0  0  0  0
   44.0562   30.8063   47.9517 H   0  0  0  0  0  0  0  0  0  0  0  0
   44.9151   29.0875   46.2397 H   0  0  0  0  0  0  0  0  0  0  0  0
   44.0217   28.3497   47.6017 H   0  0  0  0  0  0  0  0  0  0  0  0
   48.0811   28.2322   47.7356 H   0  0  0  0  0  0  0  0  0  0  0  0
   47.2840   28.9540   46.2670 H   0  0  0  0  0  0  0  0  0  0  0  0
   48.2233   30.7235   47.6577 H   0  0  0  0  0  0  0  0  0  0  0  0
   47.3229   30.1443   49.0780 H   0  0  0  0  0  0  0  0  0  0  0  0
  1  6  2  0
  2  1  1  0
  2  3  2  0
  3  4  1  0
  4  5  2  0
  5 18  1  0
  6  5  1  0
  7  1  1  0
  8  2  1  0
  9  8  2  0
 10  9  1  0
 11 16  1  0
 11 10  2  0
 12 11  1  0
 13 14  1  0
 13 12  2  0
 14 15  2  0
 15 16  1  0
 16 17  2  0
 17  8  1  0
 18 19  1  0
 20 25  1  0
 20 19  1  0
 20 21  1  0
 22 23  1  0
 22 21  1  0
 24 23  1  0
 24 25  1  0
  3 26  1  0
  7 27  1  0
  7 28  1  0
  9 29  1  0
 10 30  1  0
 13 31  1  0
 14 32  1  0
 15 33  1  0
 17 34  1  0
 18 35  1  0
 18 36  1  0
 19 37  1  0
 19 38  1  0
 21 39  1  0
 21 40  1  0
 22 41  1  0
 22 42  1  0
 24 43  1  0
 24 44  1  0
 25 45  1  0
 25 46  1  0
M  ISO  8  26  14  29  14  30  14  31  14  32  14  33  14  34  14  35   8
M  ISO  8  36   8  37   8  38   8  39  13  40  13  41  13  42  13  43  13
M  ISO  3  44  13  45  13  46  13
M  END
>  <minimizedAffinity>  (1) 
-6.33345556

>  <minimizedRMSD>  (1) 
1.13989091

$$$$
