
     RDKit          3D

 35 37  0  0  0  0  0  0  0  0999 V2000
   45.3900   35.2420   43.8330 C   0  0  0  0  0  0  0  0  0  0  0  0
   46.4500   34.4080   43.4080 C   0  0  0  0  0  0  0  0  0  0  0  0
   46.9290   33.4110   44.2770 C   0  0  0  0  0  0  0  0  0  0  0  0
   46.3380   33.3080   45.4850 N   0  0  0  0  0  0  0  0  0  0  0  0
   45.3210   34.1190   45.8760 C   0  0  0  0  0  0  0  0  0  0  0  0
   44.8700   35.0600   45.0530 N   0  0  0  0  0  0  0  0  0  0  0  0
   44.9140   36.2380   42.9600 N   0  0  0  0  0  0  0  0  0  0  0  0
   47.0670   34.5410   42.1040 C   0  0  0  0  0  0  0  0  0  0  0  0
   48.1710   35.3000   41.7540 C   0  0  0  0  0  0  0  0  0  0  0  0
   48.6440   35.3270   40.4610 C   0  0  0  0  0  0  0  0  0  0  0  0
   48.0290   34.5890   39.4570 C   0  0  0  0  0  0  0  0  0  0  0  0
   48.5410   34.6570   38.2180 N   0  0  0  0  0  0  0  0  0  0  0  0
   47.9380   33.9290   37.2190 C   0  0  0  0  0  0  0  0  0  0  0  0
   46.8430   33.1710   37.5510 C   0  0  0  0  0  0  0  0  0  0  0  0
   46.3050   33.0900   38.8160 C   0  0  0  0  0  0  0  0  0  0  0  0
   46.9280   33.8320   39.8060 C   0  0  0  0  0  0  0  0  0  0  0  0
   46.4390   33.7970   41.1120 C   0  0  0  0  0  0  0  0  0  0  0  0
   44.7610   33.8990   47.2500 C   0  0  0  0  0  0  0  0  0  0  0  0
   45.2560   32.5640   47.8040 C   0  0  0  0  0  0  0  0  0  0  0  0
   46.5630   32.7360   48.3660 N   0  0  0  0  0  0  0  0  0  0  0  0
   47.7519   32.7427   43.9834 H   0  0  0  0  0  0  0  0  0  0  0  0
   45.3371   36.3508   42.0277 H   0  0  0  0  0  0  0  0  0  0  0  0
   44.1425   36.8541   43.2534 H   0  0  0  0  0  0  0  0  0  0  0  0
   48.6815   35.8946   42.5259 H   0  0  0  0  0  0  0  0  0  0  0  0
   49.5228   35.9427   40.2190 H   0  0  0  0  0  0  0  0  0  0  0  0
   48.3207   33.9534   36.1880 H   0  0  0  0  0  0  0  0  0  0  0  0
   46.3621   32.5881   36.7516 H   0  0  0  0  0  0  0  0  0  0  0  0
   45.4241   32.4669   39.0298 H   0  0  0  0  0  0  0  0  0  0  0  0
   45.5596   33.1828   41.3559 H   0  0  0  0  0  0  0  0  0  0  0  0
   45.0892   34.7134   47.9126 H   0  0  0  0  0  0  0  0  0  0  0  0
   43.6624   33.8844   47.1960 H   0  0  0  0  0  0  0  0  0  0  0  0
   44.5649   32.2116   48.5838 H   0  0  0  0  0  0  0  0  0  0  0  0
   45.3003   31.8234   46.9919 H   0  0  0  0  0  0  0  0  0  0  0  0
   46.4986   32.7275   49.3939 H   0  0  0  0  0  0  0  0  0  0  0  0
   47.1746   31.9683   48.0540 H   0  0  0  0  0  0  0  0  0  0  0  0
  1  6  2  0
  2  1  1  0
  2  3  2  0
  3  4  1  0
  4  5  2  0
  5 18  1  0
  6  5  1  0
  7  1  1  0
  8  2  1  0
  9  8  2  0
 10  9  1  0
 11 16  1  0
 11 10  2  0
 12 11  1  0
 13 14  1  0
 13 12  2  0
 14 15  2  0
 15 16  1  0
 16 17  2  0
 17  8  1  0
 18 19  1  0
 19 20  1  0
  3 21  1  0
  7 22  1  0
  7 23  1  0
  9 24  1  0
 10 25  1  0
 13 26  1  0
 14 27  1  0
 15 28  1  0
 17 29  1  0
 18 30  1  0
 18 31  1  0
 19 32  1  0
 19 33  1  0
 20 34  1  0
 20 35  1  0
M  ISO  8  21  14  24  14  25  14  26  14  27  14  28  14  29  14  30   8
M  ISO  5  31   8  32   8  33   8  34   5  35   5
M  END
>  <minimizedAffinity>  (1) 
-5.91414642

>  <minimizedRMSD>  (1) 
0.108530693

$$$$
