
     RDKit          3D

 25 26  0  0  0  0  0  0  0  0999 V2000
   46.8440   35.4020   42.4570 O   0  0  0  0  0  0  0  0  0  0  0  0
   46.0280   34.4410   43.3160 P   0  0  2  0  0  0  0  0  0  0  0  0
   45.0410   35.4020   44.3170 O   0  0  0  0  0  0  0  0  0  0  0  0
   47.0850   33.5650   44.3340 O   0  0  0  0  0  0  0  0  0  0  0  0
   46.1770   30.7040   46.4250 C   0  0  0  0  0  0  0  0  0  0  0  0
   46.7090   31.4540   45.3430 C   0  0  0  0  0  0  0  0  0  0  0  0
   46.5640   32.8390   45.3930 C   0  0  0  0  0  0  0  0  0  0  0  0
   45.9250   33.3980   46.4620 N   0  0  0  0  0  0  0  0  0  0  0  0
   45.4370   32.6560   47.4630 C   0  0  0  0  0  0  0  0  0  0  0  0
   45.5600   31.3180   47.4480 N   0  0  0  0  0  0  0  0  0  0  0  0
   45.1290   33.3860   42.3970 O   0  0  0  0  0  0  0  0  0  0  0  0
   43.8740   33.7770   41.9380 C   0  0  0  0  0  0  0  0  0  0  0  0
   42.9790   32.8000   41.5580 C   0  0  0  0  0  0  0  0  0  0  0  0
   41.6950   33.0710   41.0830 C   0  0  0  0  0  0  0  0  0  0  0  0
   41.3960   34.4240   41.0260 C   0  0  0  0  0  0  0  0  0  0  0  0
   42.2710   35.4260   41.4000 C   0  0  0  0  0  0  0  0  0  0  0  0
   43.5140   35.0910   41.8570 N   0  0  0  0  0  0  0  0  0  0  0  0
   45.2428   35.2055   45.2661 H   0  0  0  0  0  0  0  0  0  0  0  0
   46.2712   29.6080   46.4254 H   0  0  0  0  0  0  0  0  0  0  0  0
   47.2151   30.9616   44.4995 H   0  0  0  0  0  0  0  0  0  0  0  0
   44.9299   33.1465   48.3069 H   0  0  0  0  0  0  0  0  0  0  0  0
   43.2942   31.7488   41.6333 H   0  0  0  0  0  0  0  0  0  0  0  0
   40.9866   32.2851   40.7821 H   0  0  0  0  0  0  0  0  0  0  0  0
   40.4009   34.7177   40.6605 H   0  0  0  0  0  0  0  0  0  0  0  0
   41.9700   36.4817   41.3305 H   0  0  0  0  0  0  0  0  0  0  0  0
  2  1  2  0
  2  3  1  0
  2  4  1  0
  4  7  1  0
  5 10  2  0
  6  7  2  0
  6  5  1  0
  7  8  1  0
  8  9  2  0
 10  9  1  0
 11  2  1  0
 12 11  1  0
 13 12  2  0
 14 13  1  0
 15 14  2  0
 15 16  1  0
 16 17  2  0
 17 12  1  0
  3 18  1  0
  5 19  1  0
  6 20  1  0
  9 21  1  0
 13 22  1  0
 14 23  1  0
 15 24  1  0
 16 25  1  0
M  ISO  8  18   3  19  14  20  14  21  14  22  14  23  14  24  14  25  14
M  END
>  <minimizedAffinity>  (1) 
-3.9198153

>  <minimizedRMSD>  (1) 
6.54710007

$$$$
