
     RDKit          3D

 38 41  0  0  1  0  0  0  0  0999 V2000
   48.4930   31.5540   48.8460 C   0  0  0  0  0  0  0  0  0  0  0  0
   48.0400   30.6560   49.6400 O   0  0  0  0  0  0  0  0  0  0  0  0
   52.6470   29.7800   51.8590 C   0  0  0  0  0  0  0  0  0  0  0  0
   52.0680   30.9420   51.9260 C   0  0  0  0  0  0  0  0  0  0  0  0
   51.1090   31.3230   50.9530 N   0  0  0  0  0  0  0  0  0  0  0  0
   50.5930   32.2550   49.9940 C   0  0  1  0  0  0  0  0  0  0  0  0
   50.7220   33.5230   49.8730 O   0  0  0  0  0  0  0  0  0  0  0  0
   49.8830   31.2030   49.2310 C   0  0  1  0  0  0  0  0  0  0  0  0
   49.9850   30.4920   50.5820 C   0  0  2  0  0  0  0  0  0  0  0  0
   50.5720   28.8060   50.3430 S   0  0  0  0  0  0  0  0  0  0  0  0
   52.3210   28.8850   50.7580 C   0  0  0  0  0  0  0  0  0  0  0  0
   53.6150   29.4430   52.8960 C   0  0  0  0  0  0  0  0  0  0  0  0
   52.3470   31.9250   52.9970 C   0  0  0  0  0  0  0  0  0  0  0  0
   51.6390   32.8180   53.5230 O   0  0  0  0  0  0  0  0  0  0  0  0
   52.9890   32.6470   53.9830 O   0  0  0  0  0  0  0  0  0  0  0  0
   47.5260   32.2300   48.1870 O   0  0  0  0  0  0  0  0  0  0  0  0
   45.4610   30.8260   47.4120 O   0  0  0  0  0  0  0  0  0  0  0  0
   45.8790   32.0770   48.2030 P   0  0  1  0  0  0  0  0  0  0  0  0
   45.2690   31.8570   49.7580 O   0  0  0  0  0  0  0  0  0  0  0  0
   45.1510   33.4250   47.4880 O   0  0  0  0  0  0  0  0  0  0  0  0
   46.8350   33.4670   44.2710 C   0  0  0  0  0  0  0  0  0  0  0  0
   46.4800   33.1150   45.5840 C   0  0  0  0  0  0  0  0  0  0  0  0
   45.4620   33.8020   46.2010 C   0  0  0  0  0  0  0  0  0  0  0  0
   44.8530   34.7890   45.5000 N   0  0  0  0  0  0  0  0  0  0  0  0
   45.1850   35.1290   44.2490 C   0  0  0  0  0  0  0  0  0  0  0  0
   46.1890   34.4560   43.6300 N   0  0  0  0  0  0  0  0  0  0  0  0
   50.7642   33.9376   50.7710 H   0  0  0  0  0  0  0  0  0  0  0  0
   50.2140   30.7940   48.2650 H   0  0  0  0  0  0  0  0  0  0  0  0
   52.6544   27.8726   51.0297 H   0  0  0  0  0  0  0  0  0  0  0  0
   52.8322   29.2865   49.8706 H   0  0  0  0  0  0  0  0  0  0  0  0
   53.1618   29.6008   53.8858 H   0  0  0  0  0  0  0  0  0  0  0  0
   53.9114   28.3888   52.7923 H   0  0  0  0  0  0  0  0  0  0  0  0
   54.5020   30.0852   52.7923 H   0  0  0  0  0  0  0  0  0  0  0  0
   52.5091   33.3705   54.4587 H   0  0  0  0  0  0  0  0  0  0  0  0
   45.9599   32.1062   50.4218 H   0  0  0  0  0  0  0  0  0  0  0  0
   47.6487   32.9285   43.7632 H   0  0  0  0  0  0  0  0  0  0  0  0
   47.0071   32.3045   46.1086 H   0  0  0  0  0  0  0  0  0  0  0  0
   44.6533   35.9404   43.7305 H   0  0  0  0  0  0  0  0  0  0  0  0
  1  2  2  0
  3  4  2  0
  3 12  1  0
  4 13  1  0
  5  4  1  0
  6  7  1  1
  6  9  1  0
  6  5  1  0
  8  1  1  0
  8  6  1  0
  8  9  1  0
  9 10  1  6
  9  5  1  0
 10 11  1  0
 11  3  1  0
 13 14  2  0
 13 15  1  0
 16 18  1  0
 16  1  1  0
 18 17  2  0
 18 19  1  0
 20 18  1  0
 21 22  2  0
 22 23  1  0
 23 20  1  0
 24 23  2  0
 25 24  1  0
 26 25  2  0
 26 21  1  0
  7 27  1  0
  8 28  1  6
 11 29  1  0
 11 30  1  0
 12 31  1  0
 12 32  1  0
 12 33  1  0
 15 34  1  0
 19 35  1  0
 21 36  1  0
 22 37  1  0
 25 38  1  0
M  ISO  8  27   3  28  13  29  13  30  13  31   8  32   8  33   8  34   3
M  ISO  4  35   3  36  14  37  14  38  14
M  END
>  <minimizedAffinity>  (1) 
-6.03023005

>  <minimizedRMSD>  (1) 
2.15282512

$$$$
