
     RDKit          3D

 34 35  0  0  0  0  0  0  0  0999 V2000
   45.5970   30.5690   47.7220 O   0  0  0  0  0  0  0  0  0  0  0  0
   45.9780   31.8910   48.4240 P   0  0  2  0  0  0  0  0  0  0  0  0
   45.3290   31.7960   49.9720 O   0  0  0  0  0  0  0  0  0  0  0  0
   45.2710   33.1670   47.5740 O   0  0  0  0  0  0  0  0  0  0  0  0
   47.1140   32.9970   44.4480 C   0  0  0  0  0  0  0  0  0  0  0  0
   46.6860   32.7260   45.7600 C   0  0  0  0  0  0  0  0  0  0  0  0
   45.6560   33.4670   46.2840 C   0  0  0  0  0  0  0  0  0  0  0  0
   45.1050   34.4250   45.5040 N   0  0  0  0  0  0  0  0  0  0  0  0
   45.5070   34.6900   44.2560 C   0  0  0  0  0  0  0  0  0  0  0  0
   46.5230   33.9650   43.7250 N   0  0  0  0  0  0  0  0  0  0  0  0
   47.6260   32.0330   48.4350 O   0  0  0  0  0  0  0  0  0  0  0  0
   48.5960   31.2970   49.0190 C   0  0  0  0  0  0  0  0  0  0  0  0
   49.5090   32.0070   49.5740 O   0  0  0  0  0  0  0  0  0  0  0  0
   49.2730   30.0380   49.4220 C   0  0  0  0  0  0  0  0  0  0  0  0
   50.7600   30.2220   49.5500 C   0  0  0  0  0  0  0  0  0  0  0  0
   51.5360   30.2710   48.2950 C   0  0  0  0  0  0  0  0  0  0  0  0
   51.1270   29.2500   47.2670 C   0  0  0  0  0  0  0  0  0  0  0  0
   49.6490   29.2220   47.0820 C   0  0  0  0  0  0  0  0  0  0  0  0
   48.9080   29.0050   48.3790 C   0  0  0  0  0  0  0  0  0  0  0  0
   46.0520   31.9018   50.6400 H   0  0  0  0  0  0  0  0  0  0  0  0
   47.9374   32.4135   44.0103 H   0  0  0  0  0  0  0  0  0  0  0  0
   47.1672   31.9356   46.3547 H   0  0  0  0  0  0  0  0  0  0  0  0
   45.0211   35.4836   43.6694 H   0  0  0  0  0  0  0  0  0  0  0  0
   48.9411   29.7112   50.4185 H   0  0  0  0  0  0  0  0  0  0  0  0
   50.9333   31.1672   50.0853 H   0  0  0  0  0  0  0  0  0  0  0  0
   51.1169   29.3229   50.0737 H   0  0  0  0  0  0  0  0  0  0  0  0
   51.4127   31.2711   47.8538 H   0  0  0  0  0  0  0  0  0  0  0  0
   52.5785   30.0443   48.5631 H   0  0  0  0  0  0  0  0  0  0  0  0
   51.6026   29.4993   46.3070 H   0  0  0  0  0  0  0  0  0  0  0  0
   51.4493   28.2587   47.6184 H   0  0  0  0  0  0  0  0  0  0  0  0
   49.3294   30.1816   46.6494 H   0  0  0  0  0  0  0  0  0  0  0  0
   49.4114   28.3791   46.4163 H   0  0  0  0  0  0  0  0  0  0  0  0
   47.8270   29.0641   48.1842 H   0  0  0  0  0  0  0  0  0  0  0  0
   49.1895   28.0156   48.7688 H   0  0  0  0  0  0  0  0  0  0  0  0
  2  1  2  0
  2 11  1  0
  2  3  1  0
  4  2  1  0
  5  6  2  0
  6  7  1  0
  7  4  1  0
  8  7  2  0
  9  8  1  0
 10  9  2  0
 10  5  1  0
 11 12  1  0
 12 14  1  0
 12 13  2  0
 14 15  1  0
 16 15  1  0
 17 16  1  0
 18 17  1  0
 18 19  1  0
 19 14  1  0
  3 20  1  0
  5 21  1  0
  6 22  1  0
  9 23  1  0
 14 24  1  0
 15 25  1  0
 15 26  1  0
 16 27  1  0
 16 28  1  0
 17 29  1  0
 17 30  1  0
 18 31  1  0
 18 32  1  0
 19 33  1  0
 19 34  1  0
M  ISO  8  20   3  21  14  22  14  23  14  24  13  25  13  26  13  27  13
M  ISO  7  28  13  29  13  30  13  31  13  32  13  33  13  34  13
M  END
>  <minimizedAffinity>  (1) 
-4.6359539

>  <minimizedRMSD>  (1) 
0.865983546

$$$$
