
     RDKit          3D

 19 19  0  0  0  0  0  0  0  0999 V2000
   45.0440   33.4090   47.6750 O   0  0  0  0  0  0  0  0  0  0  0  0
   46.6740   33.5180   44.4270 C   0  0  0  0  0  0  0  0  0  0  0  0
   46.3380   33.1300   45.7340 C   0  0  0  0  0  0  0  0  0  0  0  0
   45.3470   33.8180   46.3920 C   0  0  0  0  0  0  0  0  0  0  0  0
   44.7400   34.8410   45.7380 N   0  0  0  0  0  0  0  0  0  0  0  0
   45.0590   35.2110   44.4910 C   0  0  0  0  0  0  0  0  0  0  0  0
   46.0300   34.5510   43.8260 N   0  0  0  0  0  0  0  0  0  0  0  0
   45.3250   30.8050   47.5280 O   0  0  0  0  0  0  0  0  0  0  0  0
   45.7760   32.0360   48.3370 P   0  0  2  0  0  0  0  0  0  0  0  0
   45.2010   31.7840   49.9030 O   0  0  0  0  0  0  0  0  0  0  0  0
   47.4230   32.1840   48.2930 O   0  0  0  0  0  0  0  0  0  0  0  0
   48.3980   31.3480   48.7330 C   0  0  0  0  0  0  0  0  0  0  0  0
   49.3940   31.9550   49.2620 O   0  0  0  0  0  0  0  0  0  0  0  0
   49.0050   30.1240   48.9670 O   0  0  0  0  0  0  0  0  0  0  0  0
   47.4660   32.9802   43.8853 H   0  0  0  0  0  0  0  0  0  0  0  0
   46.8577   32.2920   46.2215 H   0  0  0  0  0  0  0  0  0  0  0  0
   44.5320   36.0489   44.0112 H   0  0  0  0  0  0  0  0  0  0  0  0
   45.8820   32.0825   50.5566 H   0  0  0  0  0  0  0  0  0  0  0  0
   49.8907   30.0869   49.4077 H   0  0  0  0  0  0  0  0  0  0  0  0
  1  9  1  0
  2  3  2  0
  3  4  1  0
  4  1  1  0
  5  4  2  0
  6  5  1  0
  7  2  1  0
  7  6  2  0
  9  8  2  0
  9 10  1  0
 11  9  1  0
 11 12  1  0
 12 14  1  0
 12 13  2  0
  2 15  1  0
  3 16  1  0
  6 17  1  0
 10 18  1  0
 14 19  1  0
M  ISO  5  15  14  16  14  17  14  18   3  19   3
M  END
>  <minimizedAffinity>  (1) 
-4.22286892

>  <minimizedRMSD>  (1) 
0.177397728

$$$$
