
     RDKit          3D

 32 33  0  0  0  0  0  0  0  0999 V2000
   45.3980   30.7910   47.5480 O   0  0  0  0  0  0  0  0  0  0  0  0
   45.8050   32.0380   48.3600 P   0  0  2  0  0  0  0  0  0  0  0  0
   45.2230   31.7760   49.9170 O   0  0  0  0  0  0  0  0  0  0  0  0
   45.0440   33.3830   47.6730 O   0  0  0  0  0  0  0  0  0  0  0  0
   46.6920   33.4960   44.4330 C   0  0  0  0  0  0  0  0  0  0  0  0
   46.3380   33.1100   45.7440 C   0  0  0  0  0  0  0  0  0  0  0  0
   45.3440   33.8030   46.3940 C   0  0  0  0  0  0  0  0  0  0  0  0
   44.7350   34.8370   45.7510 N   0  0  0  0  0  0  0  0  0  0  0  0
   45.0900   35.1870   44.4990 C   0  0  0  0  0  0  0  0  0  0  0  0
   46.0530   34.5330   43.8400 N   0  0  0  0  0  0  0  0  0  0  0  0
   47.4440   32.2380   48.3410 O   0  0  0  0  0  0  0  0  0  0  0  0
   48.4500   31.3970   48.6960 C   0  0  0  0  0  0  0  0  0  0  0  0
   49.3850   31.9630   49.3640 O   0  0  0  0  0  0  0  0  0  0  0  0
   49.1550   30.1660   48.7820 N   0  0  0  0  0  0  0  0  0  0  0  0
   48.8410   29.3760   47.5940 C   0  0  0  0  0  0  0  0  0  0  0  0
   49.5460   28.0480   47.7790 C   0  0  0  0  0  0  0  0  0  0  0  0
   49.3550   27.5760   49.1600 N   0  0  0  0  0  0  0  0  0  0  0  0
   50.3080   28.3100   49.9460 C   0  0  0  0  0  0  0  0  0  0  0  0
   50.0320   29.7610   49.8610 C   0  0  0  0  0  0  0  0  0  0  0  0
   45.8964   32.0791   50.5764 H   0  0  0  0  0  0  0  0  0  0  0  0
   47.4847   32.9561   43.8943 H   0  0  0  0  0  0  0  0  0  0  0  0
   46.8485   32.2695   46.2369 H   0  0  0  0  0  0  0  0  0  0  0  0
   44.5773   36.0278   44.0089 H   0  0  0  0  0  0  0  0  0  0  0  0
   49.2099   29.8821   46.6897 H   0  0  0  0  0  0  0  0  0  0  0  0
   47.7558   29.2433   47.4730 H   0  0  0  0  0  0  0  0  0  0  0  0
   49.1270   27.3104   47.0787 H   0  0  0  0  0  0  0  0  0  0  0  0
   50.6207   28.1742   47.5813 H   0  0  0  0  0  0  0  0  0  0  0  0
   48.3958   27.7730   49.4793 H   0  0  0  0  0  0  0  0  0  0  0  0
   50.2382   27.9879   50.9955 H   0  0  0  0  0  0  0  0  0  0  0  0
   51.3189   28.1140   49.5590 H   0  0  0  0  0  0  0  0  0  0  0  0
   50.9922   30.2817   49.7311 H   0  0  0  0  0  0  0  0  0  0  0  0
   49.5078   30.0240   50.7916 H   0  0  0  0  0  0  0  0  0  0  0  0
  2  1  2  0
  2  3  1  0
  4  2  1  0
  5  6  2  0
  6  7  1  0
  7  4  1  0
  8  7  2  0
  9  8  1  0
 10  5  1  0
 10  9  2  0
 11  2  1  0
 11 12  1  0
 12 14  1  0
 12 13  2  0
 14 19  1  0
 15 16  1  0
 15 14  1  0
 16 17  1  0
 17 18  1  0
 19 18  1  0
  3 20  1  0
  5 21  1  0
  6 22  1  0
  9 23  1  0
 15 24  1  0
 15 25  1  0
 16 26  1  0
 16 27  1  0
 17 28  1  0
 18 29  1  0
 18 30  1  0
 19 31  1  0
 19 32  1  0
M  ISO  8  20   3  21  14  22  14  23  14  24  13  25  13  26  13  27  13
M  ISO  5  28   5  29  13  30  13  31  13  32  13
M  END
>  <minimizedAffinity>  (1) 
-5.1648531

>  <minimizedRMSD>  (1) 
0.28060478

$$$$
