
     RDKit          3D

 48 50  0  0  1  0  0  0  0  0999 V2000
   48.2410   31.3410   48.4890 C   0  0  0  0  0  0  0  0  0  0  0  0
   48.7650   32.3020   49.1230 O   0  0  0  0  0  0  0  0  0  0  0  0
   49.2340   30.4780   49.0440 N   0  0  0  0  0  0  0  0  0  0  0  0
   49.4730   29.4160   48.0580 C   0  0  0  0  0  0  0  0  0  0  0  0
   50.3790   28.4040   48.7350 C   0  0  0  0  0  0  0  0  0  0  0  0
   49.9880   28.2120   50.1320 N   0  0  0  0  0  0  0  0  0  0  0  0
   50.5390   29.3480   50.8040 C   0  0  0  0  0  0  0  0  0  0  0  0
   49.8790   30.5960   50.3130 C   0  0  1  0  0  0  0  0  0  0  0  0
   50.8440   31.6910   50.5440 C   0  0  0  0  0  0  0  0  0  0  0  0
   51.2000   31.6430   52.0470 C   0  0  0  0  0  0  0  0  0  0  0  0
   51.9200   32.9290   52.3970 C   0  0  0  0  0  0  0  0  0  0  0  0
   53.1190   33.1330   51.5370 C   0  0  0  0  0  0  0  0  0  0  0  0
   52.8840   32.9210   50.0610 C   0  0  0  0  0  0  0  0  0  0  0  0
   52.1250   31.6390   49.7900 C   0  0  0  0  0  0  0  0  0  0  0  0
   47.1670   31.7100   47.7550 O   0  0  0  0  0  0  0  0  0  0  0  0
   44.6930   30.8100   47.6410 O   0  0  0  0  0  0  0  0  0  0  0  0
   45.5860   31.9310   48.2080 P   0  0  1  0  0  0  0  0  0  0  0  0
   45.3980   31.8760   49.8840 O   0  0  0  0  0  0  0  0  0  0  0  0
   45.0060   33.4000   47.5980 O   0  0  0  0  0  0  0  0  0  0  0  0
   46.6710   33.5270   44.3800 C   0  0  0  0  0  0  0  0  0  0  0  0
   46.3060   33.1330   45.6840 C   0  0  0  0  0  0  0  0  0  0  0  0
   45.3100   33.8360   46.3350 C   0  0  0  0  0  0  0  0  0  0  0  0
   44.7210   34.8790   45.6980 N   0  0  0  0  0  0  0  0  0  0  0  0
   45.0850   35.2400   44.4480 C   0  0  0  0  0  0  0  0  0  0  0  0
   46.0460   34.5770   43.7920 N   0  0  0  0  0  0  0  0  0  0  0  0
   49.9637   29.8291   47.1644 H   0  0  0  0  0  0  0  0  0  0  0  0
   48.5300   28.9535   47.7313 H   0  0  0  0  0  0  0  0  0  0  0  0
   50.3067   27.4431   48.2046 H   0  0  0  0  0  0  0  0  0  0  0  0
   51.4125   28.7796   48.7057 H   0  0  0  0  0  0  0  0  0  0  0  0
   48.9625   28.1927   50.2260 H   0  0  0  0  0  0  0  0  0  0  0  0
   50.3721   29.2483   51.8867 H   0  0  0  0  0  0  0  0  0  0  0  0
   51.6183   29.4031   50.5989 H   0  0  0  0  0  0  0  0  0  0  0  0
   48.9715   30.8451   50.8826 H   0  0  0  0  0  0  0  0  0  0  0  0
   50.3462   32.6069   50.1929 H   0  0  0  0  0  0  0  0  0  0  0  0
   50.2816   31.5541   52.6458 H   0  0  0  0  0  0  0  0  0  0  0  0
   51.8408   30.7750   52.2611 H   0  0  0  0  0  0  0  0  0  0  0  0
   51.2307   33.7746   52.2562 H   0  0  0  0  0  0  0  0  0  0  0  0
   52.2520   32.8656   53.4438 H   0  0  0  0  0  0  0  0  0  0  0  0
   53.4727   34.1644   51.6823 H   0  0  0  0  0  0  0  0  0  0  0  0
   53.8534   32.3743   51.8453 H   0  0  0  0  0  0  0  0  0  0  0  0
   52.3032   33.7684   49.6678 H   0  0  0  0  0  0  0  0  0  0  0  0
   53.8637   32.8490   49.5660 H   0  0  0  0  0  0  0  0  0  0  0  0
   51.9201   31.5478   48.7131 H   0  0  0  0  0  0  0  0  0  0  0  0
   52.7194   30.7701   50.1089 H   0  0  0  0  0  0  0  0  0  0  0  0
   46.2510   32.1256   50.3201 H   0  0  0  0  0  0  0  0  0  0  0  0
   47.4611   32.9837   43.8410 H   0  0  0  0  0  0  0  0  0  0  0  0
   46.8042   32.2830   46.1732 H   0  0  0  0  0  0  0  0  0  0  0  0
   44.5848   36.0907   43.9621 H   0  0  0  0  0  0  0  0  0  0  0  0
  1  3  1  0
  1  2  2  0
  3  8  1  0
  4  5  1  0
  4  3  1  0
  5  6  1  0
  6  7  1  0
  8  9  1  0
  8  7  1  0
  9 10  1  0
 10 11  1  0
 12 11  1  0
 13 12  1  0
 14 13  1  0
 14  9  1  0
 15 17  1  0
 15  1  1  0
 17 16  2  0
 17 18  1  0
 19 17  1  0
 20 21  2  0
 21 22  1  0
 22 19  1  0
 23 22  2  0
 24 23  1  0
 25 20  1  0
 25 24  2  0
  4 26  1  0
  4 27  1  0
  5 28  1  0
  5 29  1  0
  6 30  1  0
  7 31  1  0
  7 32  1  0
  8 33  1  1
  9 34  1  0
 10 35  1  0
 10 36  1  0
 11 37  1  0
 11 38  1  0
 12 39  1  0
 12 40  1  0
 13 41  1  0
 13 42  1  0
 14 43  1  0
 14 44  1  0
 18 45  1  0
 20 46  1  0
 21 47  1  0
 24 48  1  0
M  ISO  8  26  13  27  13  28  13  29  13  30   5  31  13  32  13  33  13
M  ISO  8  34  13  35  13  36  13  37  13  38  13  39  13  40  13  41  13
M  ISO  7  42  13  43  13  44  13  45   3  46  14  47  14  48  14
M  END
>  <minimizedAffinity>  (1) 
-6.0108037

>  <minimizedRMSD>  (1) 
1.43166625

$$$$
