
     RDKit          3D

 47 49  0  0  1  0  0  0  0  0999 V2000
   48.5200   31.2750   48.8550 C   0  0  0  0  0  0  0  0  0  0  0  0
   49.3430   31.8400   49.6640 O   0  0  0  0  0  0  0  0  0  0  0  0
   49.2530   30.0670   48.9830 N   0  0  0  0  0  0  0  0  0  0  0  0
   49.1400   29.3340   47.7310 C   0  0  0  0  0  0  0  0  0  0  0  0
   49.8370   28.0030   47.9550 C   0  0  0  0  0  0  0  0  0  0  0  0
   49.4990   27.4770   49.2820 N   0  0  0  0  0  0  0  0  0  0  0  0
   50.3350   28.2090   50.1940 C   0  0  0  0  0  0  0  0  0  0  0  0
   49.9860   29.6380   50.1580 C   0  0  1  0  0  0  0  0  0  0  0  0
   51.1390   30.4890   50.3390 N   0  0  0  0  0  0  0  0  0  0  0  0
   50.8640   31.7400   50.9880 C   0  0  0  0  0  0  0  0  0  0  0  0
   52.1960   32.2570   51.5470 C   0  0  0  0  0  0  0  0  0  0  0  0
   53.2710   32.0570   50.5020 C   0  0  0  0  0  0  0  0  0  0  0  0
   52.5590   32.0090   49.1520 C   0  0  0  0  0  0  0  0  0  0  0  0
   51.8330   30.6840   49.0900 C   0  0  0  0  0  0  0  0  0  0  0  0
   47.5420   32.1160   48.4160 O   0  0  0  0  0  0  0  0  0  0  0  0
   45.4970   30.6280   47.6700 O   0  0  0  0  0  0  0  0  0  0  0  0
   45.9010   31.9320   48.4070 P   0  0  1  0  0  0  0  0  0  0  0  0
   45.2780   31.7930   49.9600 O   0  0  0  0  0  0  0  0  0  0  0  0
   45.1730   33.2140   47.5780 O   0  0  0  0  0  0  0  0  0  0  0  0
   47.0300   33.1780   44.4630 C   0  0  0  0  0  0  0  0  0  0  0  0
   46.5770   32.8630   45.7720 C   0  0  0  0  0  0  0  0  0  0  0  0
   45.5490   33.5790   46.3130 C   0  0  0  0  0  0  0  0  0  0  0  0
   44.9830   34.5740   45.5890 N   0  0  0  0  0  0  0  0  0  0  0  0
   45.4170   34.8690   44.3450 C   0  0  0  0  0  0  0  0  0  0  0  0
   46.4300   34.1840   43.7770 N   0  0  0  0  0  0  0  0  0  0  0  0
   49.6308   29.8895   46.9182 H   0  0  0  0  0  0  0  0  0  0  0  0
   48.0879   29.1921   47.4430 H   0  0  0  0  0  0  0  0  0  0  0  0
   49.5115   27.2873   47.1857 H   0  0  0  0  0  0  0  0  0  0  0  0
   50.9253   28.1499   47.8912 H   0  0  0  0  0  0  0  0  0  0  0  0
   48.5039   27.6386   49.4932 H   0  0  0  0  0  0  0  0  0  0  0  0
   50.1874   27.8233   51.2135 H   0  0  0  0  0  0  0  0  0  0  0  0
   51.3873   28.0861   49.8981 H   0  0  0  0  0  0  0  0  0  0  0  0
   49.3013   29.7493   51.0117 H   0  0  0  0  0  0  0  0  0  0  0  0
   50.4535   32.4591   50.2639 H   0  0  0  0  0  0  0  0  0  0  0  0
   50.1242   31.6112   51.7918 H   0  0  0  0  0  0  0  0  0  0  0  0
   52.1067   33.3270   51.7860 H   0  0  0  0  0  0  0  0  0  0  0  0
   52.4568   31.7066   52.4630 H   0  0  0  0  0  0  0  0  0  0  0  0
   53.9846   32.8938   50.5258 H   0  0  0  0  0  0  0  0  0  0  0  0
   53.8379   31.1325   50.6861 H   0  0  0  0  0  0  0  0  0  0  0  0
   51.8411   32.8386   49.0724 H   0  0  0  0  0  0  0  0  0  0  0  0
   53.2757   32.1064   48.3232 H   0  0  0  0  0  0  0  0  0  0  0  0
   51.1104   30.6942   48.2607 H   0  0  0  0  0  0  0  0  0  0  0  0
   52.5499   29.8665   48.9231 H   0  0  0  0  0  0  0  0  0  0  0  0
   45.9981   31.9537   50.6201 H   0  0  0  0  0  0  0  0  0  0  0  0
   47.8580   32.6129   44.0102 H   0  0  0  0  0  0  0  0  0  0  0  0
   47.0498   32.0506   46.3434 H   0  0  0  0  0  0  0  0  0  0  0  0
   44.9351   35.6835   43.7843 H   0  0  0  0  0  0  0  0  0  0  0  0
  1  3  1  0
  1  2  2  0
  3  8  1  0
  4  5  1  0
  4  3  1  0
  5  6  1  0
  6  7  1  0
  8  7  1  0
  8  9  1  0
  9 10  1  0
 10 11  1  0
 12 11  1  0
 13 12  1  0
 14 13  1  0
 14  9  1  0
 15  1  1  0
 17 16  2  0
 17 15  1  0
 17 18  1  0
 19 17  1  0
 20 21  2  0
 21 22  1  0
 22 19  1  0
 23 22  2  0
 24 23  1  0
 25 24  2  0
 25 20  1  0
  4 26  1  0
  4 27  1  0
  5 28  1  0
  5 29  1  0
  6 30  1  0
  7 31  1  0
  7 32  1  0
  8 33  1  1
 10 34  1  0
 10 35  1  0
 11 36  1  0
 11 37  1  0
 12 38  1  0
 12 39  1  0
 13 40  1  0
 13 41  1  0
 14 42  1  0
 14 43  1  0
 18 44  1  0
 20 45  1  0
 21 46  1  0
 24 47  1  0
M  ISO  8  26  13  27  13  28  13  29  13  30   5  31  13  32  13  33  13
M  ISO  8  34  13  35  13  36  13  37  13  38  13  39  13  40  13  41  13
M  ISO  6  42  13  43  13  44   3  45  14  46  14  47  14
M  END
>  <minimizedAffinity>  (1) 
-5.96262884

>  <minimizedRMSD>  (1) 
0.5164783

$$$$
