
     RDKit          3D

 35 36  0  0  1  0  0  0  0  0999 V2000
   48.4490   31.4220   48.6790 C   0  0  0  0  0  0  0  0  0  0  0  0
   49.4020   31.9860   49.3100 O   0  0  0  0  0  0  0  0  0  0  0  0
   49.1450   30.1800   48.7700 N   0  0  0  0  0  0  0  0  0  0  0  0
   48.8100   29.3780   47.6060 C   0  0  0  0  0  0  0  0  0  0  0  0
   49.5290   28.0580   47.7910 C   0  0  0  0  0  0  0  0  0  0  0  0
   49.3560   27.6030   49.1780 N   0  0  0  0  0  0  0  0  0  0  0  0
   50.3150   28.3380   49.9400 C   0  0  0  0  0  0  0  0  0  0  0  0
   50.0340   29.7910   49.8440 C   0  0  1  0  0  0  0  0  0  0  0  0
   51.3090   30.6010   49.8240 C   0  0  0  0  0  0  0  0  0  0  0  0
   47.4390   32.2660   48.3310 O   0  0  0  0  0  0  0  0  0  0  0  0
   45.3920   30.8000   47.5470 O   0  0  0  0  0  0  0  0  0  0  0  0
   45.7950   32.0570   48.3590 P   0  0  1  0  0  0  0  0  0  0  0  0
   45.2290   31.7880   49.9120 O   0  0  0  0  0  0  0  0  0  0  0  0
   45.0310   33.3760   47.6460 O   0  0  0  0  0  0  0  0  0  0  0  0
   46.6850   33.5090   44.4220 C   0  0  0  0  0  0  0  0  0  0  0  0
   46.3150   33.1250   45.7310 C   0  0  0  0  0  0  0  0  0  0  0  0
   45.3310   33.8110   46.3830 C   0  0  0  0  0  0  0  0  0  0  0  0
   44.7270   34.8520   45.7520 N   0  0  0  0  0  0  0  0  0  0  0  0
   45.0840   35.2120   44.5050 C   0  0  0  0  0  0  0  0  0  0  0  0
   46.0520   34.5540   43.8380 N   0  0  0  0  0  0  0  0  0  0  0  0
   49.1534   29.8753   46.6869 H   0  0  0  0  0  0  0  0  0  0  0  0
   47.7232   29.2364   47.5121 H   0  0  0  0  0  0  0  0  0  0  0  0
   49.1076   27.3101   47.1033 H   0  0  0  0  0  0  0  0  0  0  0  0
   50.5999   28.1874   47.5756 H   0  0  0  0  0  0  0  0  0  0  0  0
   48.4015   27.8061   49.5076 H   0  0  0  0  0  0  0  0  0  0  0  0
   50.2603   28.0253   50.9932 H   0  0  0  0  0  0  0  0  0  0  0  0
   51.3212   28.1381   49.5430 H   0  0  0  0  0  0  0  0  0  0  0  0
   49.4760   30.0237   50.7630 H   0  0  0  0  0  0  0  0  0  0  0  0
   51.6301   30.8050   50.8561 H   0  0  0  0  0  0  0  0  0  0  0  0
   52.0943   30.0358   49.3006 H   0  0  0  0  0  0  0  0  0  0  0  0
   51.1311   31.5520   49.3006 H   0  0  0  0  0  0  0  0  0  0  0  0
   45.8992   32.1065   50.5673 H   0  0  0  0  0  0  0  0  0  0  0  0
   47.4767   32.9662   43.8848 H   0  0  0  0  0  0  0  0  0  0  0  0
   46.8171   32.2781   46.2217 H   0  0  0  0  0  0  0  0  0  0  0  0
   44.5758   36.0594   44.0216 H   0  0  0  0  0  0  0  0  0  0  0  0
  1  3  1  0
  1  2  2  0
  3  8  1  0
  4  5  1  0
  4  3  1  0
  5  6  1  0
  6  7  1  0
  8  7  1  0
  9  8  1  0
 10 12  1  0
 10  1  1  0
 12 11  2  0
 12 13  1  0
 14 12  1  0
 15 16  2  0
 16 17  1  0
 17 14  1  0
 18 17  2  0
 19 18  1  0
 20 15  1  0
 20 19  2  0
  4 21  1  0
  4 22  1  0
  5 23  1  0
  5 24  1  0
  6 25  1  0
  7 26  1  0
  7 27  1  0
  8 28  1  1
  9 29  1  0
  9 30  1  0
  9 31  1  0
 13 32  1  0
 15 33  1  0
 16 34  1  0
 19 35  1  0
M  ISO  8  21  13  22  13  23  13  24  13  25   5  26  13  27  13  28  13
M  ISO  7  29   8  30   8  31   8  32   3  33  14  34  14  35  14
M  END
>  <minimizedAffinity>  (1) 
-5.3321538

>  <minimizedRMSD>  (1) 
0.0298332516

$$$$
