
     RDKit          3D

 37 40  0  0  0  0  0  0  0  0999 V2000
   45.4200   33.1450   47.1340 C   0  0  0  0  0  0  0  0  0  0  0  0
   45.5850   33.6850   45.8580 C   0  0  0  0  0  0  0  0  0  0  0  0
   46.4490   33.1280   44.9570 C   0  0  0  0  0  0  0  0  0  0  0  0
   47.0880   32.0560   45.4180 N   0  0  0  0  0  0  0  0  0  0  0  0
   46.9870   31.4870   46.6080 C   0  0  0  0  0  0  0  0  0  0  0  0
   46.1190   32.0650   47.4770 N   0  0  0  0  0  0  0  0  0  0  0  0
   47.6540   30.3220   47.1630 C   0  0  0  0  0  0  0  0  0  0  0  0
   47.4480   29.0800   46.7020 N   0  0  0  0  0  0  0  0  0  0  0  0
   48.0290   27.9680   47.1680 C   0  0  0  0  0  0  0  0  0  0  0  0
   48.9070   28.0200   48.1840 N   0  0  0  0  0  0  0  0  0  0  0  0
   49.1800   29.2180   48.7130 C   0  0  0  0  0  0  0  0  0  0  0  0
   50.0810   29.2740   49.7550 C   0  0  0  0  0  0  0  0  0  0  0  0
   50.4050   30.4750   50.3450 C   0  0  0  0  0  0  0  0  0  0  0  0
   49.7830   31.6200   49.8370 C   0  0  0  0  0  0  0  0  0  0  0  0
   48.8910   31.5070   48.7930 C   0  0  0  0  0  0  0  0  0  0  0  0
   48.5580   30.3340   48.2010 C   0  0  0  0  0  0  0  0  0  0  0  0
   44.3760   32.3010   42.9570 Cl  0  0  0  0  0  0  0  0  0  0  0  0
   45.7720   33.2980   42.6310 C   0  0  0  0  0  0  0  0  0  0  0  0
   46.6740   33.6240   43.6040 C   0  0  0  0  0  0  0  0  0  0  0  0
   47.7210   34.4090   43.2050 C   0  0  0  0  0  0  0  0  0  0  0  0
   47.8920   34.8580   41.9450 C   0  0  0  0  0  0  0  0  0  0  0  0
   46.9720   34.5220   40.9710 C   0  0  0  0  0  0  0  0  0  0  0  0
   45.9110   33.7370   41.3280 C   0  0  0  0  0  0  0  0  0  0  0  0
   49.0430   35.7130   41.5360 C   0  0  0  0  0  0  0  0  0  0  0  0
   50.1910   35.0620   41.9030 F   0  0  0  0  0  0  0  0  0  0  0  0
   48.9360   36.9740   42.0840 F   0  0  0  0  0  0  0  0  0  0  0  0
   49.0020   35.8410   40.1490 F   0  0  0  0  0  0  0  0  0  0  0  0
   44.7211   33.6058   47.8476 H   0  0  0  0  0  0  0  0  0  0  0  0
   45.0083   34.5768   45.5714 H   0  0  0  0  0  0  0  0  0  0  0  0
   47.7842   26.9971   46.7126 H   0  0  0  0  0  0  0  0  0  0  0  0
   50.5472   28.3469   50.1198 H   0  0  0  0  0  0  0  0  0  0  0  0
   51.1208   30.5315   51.1783 H   0  0  0  0  0  0  0  0  0  0  0  0
   50.0050   32.6069   50.2692 H   0  0  0  0  0  0  0  0  0  0  0  0
   48.4194   32.4266   48.4162 H   0  0  0  0  0  0  0  0  0  0  0  0
   48.4702   34.6916   43.9592 H   0  0  0  0  0  0  0  0  0  0  0  0
   47.0898   34.8763   39.9363 H   0  0  0  0  0  0  0  0  0  0  0  0
   45.1631   33.4530   40.5731 H   0  0  0  0  0  0  0  0  0  0  0  0
  1  6  2  0
  2  1  1  0
  3  4  1  0
  3  2  2  0
  4  5  2  0
  5  7  1  0
  5  6  1  0
  7 16  1  0
  8  7  2  0
  8  9  1  0
  9 10  2  0
 10 11  1  0
 11 12  1  0
 12 13  2  0
 14 13  1  0
 15 14  2  0
 16 11  2  0
 16 15  1  0
 18 17  1  0
 18 19  2  0
 19  3  1  0
 20 19  1  0
 21 20  2  0
 22 23  2  0
 22 21  1  0
 23 18  1  0
 24 25  1  0
 24 21  1  0
 24 26  1  0
 27 24  1  0
  1 28  1  0
  2 29  1  0
  9 30  1  0
 12 31  1  0
 13 32  1  0
 14 33  1  0
 15 34  1  0
 20 35  1  0
 22 36  1  0
 23 37  1  0
M  ISO  8  28  14  29  14  30  14  31  14  32  14  33  14  34  14  35  14
M  ISO  2  36  14  37  14
M  END
>  <minimizedAffinity>  (1) 
-6.95512486

>  <minimizedRMSD>  (1) 
1.05048466

$$$$
