
     RDKit          3D

 29 30  0  0  0  0  0  0  0  0999 V2000
   44.6220   34.5180   46.7160 C   0  0  0  0  0  0  0  0  0  0  0  0
   45.0330   34.7540   45.4080 C   0  0  0  0  0  0  0  0  0  0  0  0
   45.7740   33.8330   44.6900 C   0  0  0  0  0  0  0  0  0  0  0  0
   46.0800   32.6750   45.3390 N   0  0  0  0  0  0  0  0  0  0  0  0
   45.6750   32.4590   46.6070 C   0  0  0  0  0  0  0  0  0  0  0  0
   44.9500   33.3740   47.2930 N   0  0  0  0  0  0  0  0  0  0  0  0
   44.0010   32.6980   42.5860 Cl  0  0  0  0  0  0  0  0  0  0  0  0
   45.4730   33.5690   42.2950 C   0  0  0  0  0  0  0  0  0  0  0  0
   46.2230   34.0540   43.3090 C   0  0  0  0  0  0  0  0  0  0  0  0
   47.3720   34.7310   42.9650 C   0  0  0  0  0  0  0  0  0  0  0  0
   47.7660   34.9230   41.6940 C   0  0  0  0  0  0  0  0  0  0  0  0
   47.0080   34.4320   40.6540 C   0  0  0  0  0  0  0  0  0  0  0  0
   45.8500   33.7500   40.9830 C   0  0  0  0  0  0  0  0  0  0  0  0
   49.0170   35.6590   41.3290 C   0  0  0  0  0  0  0  0  0  0  0  0
   50.0800   34.8880   41.6690 F   0  0  0  0  0  0  0  0  0  0  0  0
   49.0410   36.9120   41.9320 F   0  0  0  0  0  0  0  0  0  0  0  0
   49.0090   35.8520   39.9480 F   0  0  0  0  0  0  0  0  0  0  0  0
   46.0790   31.2160   47.1150 O   0  0  0  0  0  0  0  0  0  0  0  0
   45.1360   29.2920   48.5850 O   0  0  0  0  0  0  0  0  0  0  0  0
   45.6730   30.6910   48.6870 P   0  0  0  0  0  0  0  0  0  0  0  0
   47.0510   30.6510   49.6720 O   0  0  0  0  0  0  0  0  0  0  0  0
   44.5130   31.7540   49.3030 O   0  0  0  0  0  0  0  0  0  0  0  0
   44.0338   35.2706   47.2615 H   0  0  0  0  0  0  0  0  0  0  0  0
   44.7593   35.7054   44.9286 H   0  0  0  0  0  0  0  0  0  0  0  0
   48.0001   35.1357   43.7723 H   0  0  0  0  0  0  0  0  0  0  0  0
   47.3105   34.5760   39.6063 H   0  0  0  0  0  0  0  0  0  0  0  0
   45.2174   33.3440   40.1799 H   0  0  0  0  0  0  0  0  0  0  0  0
   46.7770   30.6590   50.6233 H   0  0  0  0  0  0  0  0  0  0  0  0
   44.5373   31.7317   50.2925 H   0  0  0  0  0  0  0  0  0  0  0  0
  1  6  2  0
  2  1  1  0
  3  4  1  0
  3  2  2  0
  4  5  2  0
  5 18  1  0
  5  6  1  0
  8  7  1  0
  8  9  2  0
  9  3  1  0
 10  9  1  0
 11 10  2  0
 12 13  2  0
 12 11  1  0
 13  8  1  0
 14 15  1  0
 14 11  1  0
 14 16  1  0
 17 14  1  0
 18 20  1  0
 19 20  2  0
 20 22  1  0
 20 21  1  0
  1 23  1  0
  2 24  1  0
 10 25  1  0
 12 26  1  0
 13 27  1  0
 21 28  1  0
 22 29  1  0
M  ISO  7  23  14  24  14  25  14  26  14  27  14  28   3  29   3
M  END
>  <minimizedAffinity>  (1) 
-6.29784536

>  <minimizedRMSD>  (1) 
0.597648621

$$$$
