
     RDKit          3D

 33 35  0  0  0  0  0  0  0  0999 V2000
   44.9370   33.7760   47.0050 C   0  0  0  0  0  0  0  0  0  0  0  0
   45.2180   34.0960   45.6740 C   0  0  0  0  0  0  0  0  0  0  0  0
   46.2650   33.5380   44.9790 C   0  0  0  0  0  0  0  0  0  0  0  0
   47.0080   32.6500   45.6820 N   0  0  0  0  0  0  0  0  0  0  0  0
   46.7550   32.3300   46.9600 C   0  0  0  0  0  0  0  0  0  0  0  0
   45.7250   32.8900   47.6160 N   0  0  0  0  0  0  0  0  0  0  0  0
   44.3680   32.3750   42.9790 Cl  0  0  0  0  0  0  0  0  0  0  0  0
   45.7570   33.3670   42.6120 C   0  0  0  0  0  0  0  0  0  0  0  0
   46.5730   33.8580   43.5900 C   0  0  0  0  0  0  0  0  0  0  0  0
   47.6350   34.6260   43.1740 C   0  0  0  0  0  0  0  0  0  0  0  0
   47.8880   34.9010   41.8710 C   0  0  0  0  0  0  0  0  0  0  0  0
   47.0610   34.4030   40.8890 C   0  0  0  0  0  0  0  0  0  0  0  0
   45.9970   33.6350   41.2830 C   0  0  0  0  0  0  0  0  0  0  0  0
   49.0480   35.7380   41.4410 C   0  0  0  0  0  0  0  0  0  0  0  0
   50.1970   35.0850   41.7940 F   0  0  0  0  0  0  0  0  0  0  0  0
   48.9660   37.0090   41.9770 F   0  0  0  0  0  0  0  0  0  0  0  0
   48.9890   35.8410   40.0520 F   0  0  0  0  0  0  0  0  0  0  0  0
   46.6460   29.4880   45.8670 Cl  0  0  0  0  0  0  0  0  0  0  0  0
   47.6160   30.0360   47.2400 C   0  0  0  0  0  0  0  0  0  0  0  0
   47.5940   31.3660   47.6630 C   0  0  0  0  0  0  0  0  0  0  0  0
   48.3700   31.7440   48.7390 C   0  0  0  0  0  0  0  0  0  0  0  0
   49.1470   30.8010   49.3720 C   0  0  0  0  0  0  0  0  0  0  0  0
   49.1590   29.5050   48.9490 C   0  0  0  0  0  0  0  0  0  0  0  0
   48.3920   29.0690   47.8640 C   0  0  0  0  0  0  0  0  0  0  0  0
   44.0913   34.2408   47.5330 H   0  0  0  0  0  0  0  0  0  0  0  0
   44.5742   34.8253   45.1605 H   0  0  0  0  0  0  0  0  0  0  0  0
   48.3128   35.0376   43.9363 H   0  0  0  0  0  0  0  0  0  0  0  0
   47.2480   34.6143   39.8258 H   0  0  0  0  0  0  0  0  0  0  0  0
   45.3194   33.2233   40.5205 H   0  0  0  0  0  0  0  0  0  0  0  0
   48.3677   32.7875   49.0871 H   0  0  0  0  0  0  0  0  0  0  0  0
   49.7670   31.0969   50.2311 H   0  0  0  0  0  0  0  0  0  0  0  0
   49.7928   28.7784   49.4785 H   0  0  0  0  0  0  0  0  0  0  0  0
   48.4030   28.0225   47.5254 H   0  0  0  0  0  0  0  0  0  0  0  0
  1  6  2  0
  2  1  1  0
  3  2  2  0
  3  4  1  0
  4  5  2  0
  5  6  1  0
  5 20  1  0
  8  7  1  0
  8  9  2  0
  9  3  1  0
 10  9  1  0
 11 10  2  0
 12 13  2  0
 12 11  1  0
 13  8  1  0
 14 15  1  0
 14 11  1  0
 14 16  1  0
 17 14  1  0
 18 19  1  0
 19 20  2  0
 19 24  1  0
 20 21  1  0
 21 22  2  0
 23 22  1  0
 24 23  2  0
  1 25  1  0
  2 26  1  0
 10 27  1  0
 12 28  1  0
 13 29  1  0
 21 30  1  0
 22 31  1  0
 23 32  1  0
 24 33  1  0
M  ISO  8  25  14  26  14  27  14  28  14  29  14  30  14  31  14  32  14
M  ISO  1  33  14
M  END
>  <minimizedAffinity>  (1) 
-6.25658894

>  <minimizedRMSD>  (1) 
0.984380424

$$$$
