
     RDKit          3D

 37 39  0  0  0  0  0  0  0  0999 V2000
   44.5820   34.4250   46.7370 C   0  0  0  0  0  0  0  0  0  0  0  0
   44.9640   34.6540   45.4120 C   0  0  0  0  0  0  0  0  0  0  0  0
   45.8970   33.8480   44.7720 C   0  0  0  0  0  0  0  0  0  0  0  0
   46.4140   32.8290   45.5090 N   0  0  0  0  0  0  0  0  0  0  0  0
   46.0440   32.6150   46.7780 C   0  0  0  0  0  0  0  0  0  0  0  0
   45.1320   33.4030   47.3990 N   0  0  0  0  0  0  0  0  0  0  0  0
   44.1110   32.6410   42.7070 Cl  0  0  0  0  0  0  0  0  0  0  0  0
   45.5680   33.5430   42.3880 C   0  0  0  0  0  0  0  0  0  0  0  0
   46.3210   34.0570   43.3880 C   0  0  0  0  0  0  0  0  0  0  0  0
   47.4560   34.7560   43.0130 C   0  0  0  0  0  0  0  0  0  0  0  0
   47.8080   34.9230   41.7200 C   0  0  0  0  0  0  0  0  0  0  0  0
   47.0440   34.4030   40.7100 C   0  0  0  0  0  0  0  0  0  0  0  0
   45.9150   33.7070   41.0660 C   0  0  0  0  0  0  0  0  0  0  0  0
   49.0420   35.6830   41.3270 C   0  0  0  0  0  0  0  0  0  0  0  0
   50.1290   34.9550   41.6760 F   0  0  0  0  0  0  0  0  0  0  0  0
   49.0440   36.9490   41.9100 F   0  0  0  0  0  0  0  0  0  0  0  0
   49.0040   35.8610   39.9450 F   0  0  0  0  0  0  0  0  0  0  0  0
   46.6450   31.4840   47.5320 C   0  0  0  0  0  0  0  0  0  0  0  0
   47.2020   30.4020   46.6330 C   0  0  0  0  0  0  0  0  0  0  0  0
   47.5860   29.2620   47.5850 C   0  0  0  0  0  0  0  0  0  0  0  0
   48.6550   29.7210   48.3510 O   0  0  0  0  0  0  0  0  0  0  0  0
   48.2560   30.7260   49.1970 C   0  0  0  0  0  0  0  0  0  0  0  0
   47.7880   31.9180   48.4240 C   0  0  0  0  0  0  0  0  0  0  0  0
   43.8415   35.0749   47.2262 H   0  0  0  0  0  0  0  0  0  0  0  0
   44.5143   35.4939   44.8621 H   0  0  0  0  0  0  0  0  0  0  0  0
   48.0939   35.1909   43.7966 H   0  0  0  0  0  0  0  0  0  0  0  0
   47.3235   34.5374   39.6546 H   0  0  0  0  0  0  0  0  0  0  0  0
   45.2773   33.2733   40.2817 H   0  0  0  0  0  0  0  0  0  0  0  0
   45.8066   31.0961   48.1292 H   0  0  0  0  0  0  0  0  0  0  0  0
   46.4410   30.0662   45.9132 H   0  0  0  0  0  0  0  0  0  0  0  0
   48.0587   30.7546   46.0400 H   0  0  0  0  0  0  0  0  0  0  0  0
   46.7355   29.0086   48.2350 H   0  0  0  0  0  0  0  0  0  0  0  0
   47.8614   28.3559   47.0254 H   0  0  0  0  0  0  0  0  0  0  0  0
   47.4330   30.3601   49.8285 H   0  0  0  0  0  0  0  0  0  0  0  0
   49.1131   31.0239   49.8188 H   0  0  0  0  0  0  0  0  0  0  0  0
   48.6117   32.3102   47.8095 H   0  0  0  0  0  0  0  0  0  0  0  0
   47.4544   32.7095   49.1112 H   0  0  0  0  0  0  0  0  0  0  0  0
  1  6  2  0
  2  1  1  0
  3  2  2  0
  3  4  1  0
  4  5  2  0
  5  6  1  0
  5 18  1  0
  8  7  1  0
  8  9  2  0
  9  3  1  0
 10  9  1  0
 11 10  2  0
 12 13  2  0
 12 11  1  0
 13  8  1  0
 14 15  1  0
 14 11  1  0
 14 16  1  0
 17 14  1  0
 18 23  1  0
 19 18  1  0
 19 20  1  0
 20 21  1  0
 21 22  1  0
 23 22  1  0
  1 24  1  0
  2 25  1  0
 10 26  1  0
 12 27  1  0
 13 28  1  0
 18 29  1  0
 19 30  1  0
 19 31  1  0
 20 32  1  0
 20 33  1  0
 22 34  1  0
 22 35  1  0
 23 36  1  0
 23 37  1  0
M  ISO  8  24  14  25  14  26  14  27  14  28  14  29  13  30  13  31  13
M  ISO  6  32  13  33  13  34  13  35  13  36  13  37  13
M  END
>  <minimizedAffinity>  (1) 
-6.25223541

>  <minimizedRMSD>  (1) 
0.477181554

$$$$
