
     RDKit          3D

 30 32  0  0  0  0  0  0  0  0999 V2000
   44.7110   34.1910   46.8150 C   0  0  0  0  0  0  0  0  0  0  0  0
   45.0470   34.4670   45.4860 C   0  0  0  0  0  0  0  0  0  0  0  0
   46.0240   33.7530   44.8250 C   0  0  0  0  0  0  0  0  0  0  0  0
   46.6310   32.7760   45.5390 N   0  0  0  0  0  0  0  0  0  0  0  0
   46.3130   32.5040   46.8200 C   0  0  0  0  0  0  0  0  0  0  0  0
   45.3450   33.2190   47.4550 N   0  0  0  0  0  0  0  0  0  0  0  0
   44.2020   32.5820   42.7760 Cl  0  0  0  0  0  0  0  0  0  0  0  0
   45.6360   33.5090   42.4380 C   0  0  0  0  0  0  0  0  0  0  0  0
   46.4110   34.0070   43.4310 C   0  0  0  0  0  0  0  0  0  0  0  0
   47.5150   34.7220   43.0400 C   0  0  0  0  0  0  0  0  0  0  0  0
   47.8570   34.9460   41.7630 C   0  0  0  0  0  0  0  0  0  0  0  0
   47.0740   34.4420   40.7540 C   0  0  0  0  0  0  0  0  0  0  0  0
   45.9510   33.7160   41.1070 C   0  0  0  0  0  0  0  0  0  0  0  0
   49.0540   35.7200   41.3490 C   0  0  0  0  0  0  0  0  0  0  0  0
   50.1680   35.0200   41.7050 F   0  0  0  0  0  0  0  0  0  0  0  0
   49.0530   36.9900   41.9190 F   0  0  0  0  0  0  0  0  0  0  0  0
   49.0240   35.8870   39.9770 F   0  0  0  0  0  0  0  0  0  0  0  0
   47.0110   31.4340   47.5260 C   0  0  0  0  0  0  0  0  0  0  0  0
   47.7860   30.3950   47.0240 C   0  0  0  0  0  0  0  0  0  0  0  0
   48.1940   29.6900   48.1400 C   0  0  0  0  0  0  0  0  0  0  0  0
   47.7060   30.2550   49.2590 N   0  0  0  0  0  0  0  0  0  0  0  0
   46.9960   31.3020   48.8810 N   0  0  0  0  0  0  0  0  0  0  0  0
   43.9292   34.7742   47.3236 H   0  0  0  0  0  0  0  0  0  0  0  0
   44.5193   35.2730   44.9551 H   0  0  0  0  0  0  0  0  0  0  0  0
   48.1620   35.1388   43.8259 H   0  0  0  0  0  0  0  0  0  0  0  0
   47.3318   34.6104   39.6980 H   0  0  0  0  0  0  0  0  0  0  0  0
   45.3024   33.2994   40.3223 H   0  0  0  0  0  0  0  0  0  0  0  0
   48.0222   30.1813   45.9711 H   0  0  0  0  0  0  0  0  0  0  0  0
   48.8291   28.7922   48.1167 H   0  0  0  0  0  0  0  0  0  0  0  0
   47.8572   29.9326   50.2255 H   0  0  0  0  0  0  0  0  0  0  0  0
  1  6  2  0
  2  1  1  0
  3  2  2  0
  3  4  1  0
  4  5  2  0
  5  6  1  0
  5 18  1  0
  8  7  1  0
  8  9  2  0
  9  3  1  0
 10  9  1  0
 11 10  2  0
 12 13  2  0
 12 11  1  0
 13  8  1  0
 14 15  1  0
 14 11  1  0
 14 16  1  0
 17 14  1  0
 18 22  2  0
 19 18  1  0
 19 20  2  0
 20 21  1  0
 22 21  1  0
  1 23  1  0
  2 24  1  0
 10 25  1  0
 12 26  1  0
 13 27  1  0
 19 28  1  0
 20 29  1  0
 21 30  1  0
M  ISO  8  23  14  24  14  25  14  26  14  27  14  28  14  29  14  30   9
M  END
>  <minimizedAffinity>  (1) 
-6.09930372

>  <minimizedRMSD>  (1) 
0.522771418

$$$$
