
     RDKit          3D

 30 32  0  0  0  0  0  0  0  0999 V2000
   44.3930   32.3330   43.0240 Cl  0  0  0  0  0  0  0  0  0  0  0  0
   45.7700   33.3230   42.6490 C   0  0  0  0  0  0  0  0  0  0  0  0
   46.6240   33.7480   43.6030 C   0  0  0  0  0  0  0  0  0  0  0  0
   47.6860   34.5300   43.1920 C   0  0  0  0  0  0  0  0  0  0  0  0
   47.8810   34.8700   41.8890 C   0  0  0  0  0  0  0  0  0  0  0  0
   47.0120   34.4360   40.9290 C   0  0  0  0  0  0  0  0  0  0  0  0
   45.9560   33.6590   41.3260 C   0  0  0  0  0  0  0  0  0  0  0  0
   45.1280   33.5610   47.0890 C   0  0  0  0  0  0  0  0  0  0  0  0
   45.3650   33.9260   45.7650 C   0  0  0  0  0  0  0  0  0  0  0  0
   46.3790   33.3610   44.9930 C   0  0  0  0  0  0  0  0  0  0  0  0
   47.1360   32.4200   45.6070 N   0  0  0  0  0  0  0  0  0  0  0  0
   46.9070   32.0660   46.8890 C   0  0  0  0  0  0  0  0  0  0  0  0
   45.9160   32.6280   47.6220 N   0  0  0  0  0  0  0  0  0  0  0  0
   47.7210   31.0650   47.5270 C   0  0  0  0  0  0  0  0  0  0  0  0
   48.1950   31.4060   48.7670 C   0  0  0  0  0  0  0  0  0  0  0  0
   48.9810   30.6820   49.6110 C   0  0  0  0  0  0  0  0  0  0  0  0
   49.2680   29.3750   48.9390 C   0  0  0  0  0  0  0  0  0  0  0  0
   48.3550   29.4620   47.2470 S   0  0  0  0  0  0  0  0  0  0  0  0
   49.0360   35.7190   41.4560 C   0  0  0  0  0  0  0  0  0  0  0  0
   50.1870   35.0920   41.8140 F   0  0  0  0  0  0  0  0  0  0  0  0
   48.9490   36.9900   41.9900 F   0  0  0  0  0  0  0  0  0  0  0  0
   48.9630   35.8260   40.0600 F   0  0  0  0  0  0  0  0  0  0  0  0
   48.4006   34.8913   43.9462 H   0  0  0  0  0  0  0  0  0  0  0  0
   47.1554   34.7018   39.8713 H   0  0  0  0  0  0  0  0  0  0  0  0
   45.2416   33.2957   40.5726 H   0  0  0  0  0  0  0  0  0  0  0  0
   44.3199   34.0261   47.6727 H   0  0  0  0  0  0  0  0  0  0  0  0
   44.7233   34.6942   45.3088 H   0  0  0  0  0  0  0  0  0  0  0  0
   47.8999   32.4014   49.1304 H   0  0  0  0  0  0  0  0  0  0  0  0
   49.3385   30.9984   50.6020 H   0  0  0  0  0  0  0  0  0  0  0  0
   49.8719   28.5426   49.3292 H   0  0  0  0  0  0  0  0  0  0  0  0
  2  1  1  0
  2  3  2  0
  3 10  1  0
  4  3  1  0
  5  4  2  0
  6  7  2  0
  6  5  1  0
  7  2  1  0
  8 13  2  0
  9  8  1  0
 10 11  1  0
 10  9  2  0
 11 12  2  0
 12 14  1  0
 12 13  1  0
 14 15  2  0
 15 16  1  0
 17 16  2  0
 18 14  1  0
 18 17  1  0
 19 20  1  0
 19  5  1  0
 19 21  1  0
 22 19  1  0
  4 23  1  0
  6 24  1  0
  7 25  1  0
  8 26  1  0
  9 27  1  0
 15 28  1  0
 16 29  1  0
 17 30  1  0
M  ISO  8  23  14  24  14  25  14  26  14  27  14  28  14  29  14  30  14
M  END
>  <minimizedAffinity>  (1) 
-6.05473614

>  <minimizedRMSD>  (1) 
0.942058027

$$$$
