
     RDKit          3D

 30 32  0  0  0  0  0  0  0  0999 V2000
   44.5880   34.4030   46.7230 C   0  0  0  0  0  0  0  0  0  0  0  0
   44.9560   34.6440   45.3940 C   0  0  0  0  0  0  0  0  0  0  0  0
   45.9110   33.8620   44.7600 C   0  0  0  0  0  0  0  0  0  0  0  0
   46.4610   32.8570   45.5040 N   0  0  0  0  0  0  0  0  0  0  0  0
   46.0980   32.6330   46.7850 C   0  0  0  0  0  0  0  0  0  0  0  0
   45.1710   33.3970   47.3930 N   0  0  0  0  0  0  0  0  0  0  0  0
   44.1150   32.6700   42.7040 Cl  0  0  0  0  0  0  0  0  0  0  0  0
   45.5700   33.5670   42.3850 C   0  0  0  0  0  0  0  0  0  0  0  0
   46.3280   34.0740   43.3730 C   0  0  0  0  0  0  0  0  0  0  0  0
   47.4680   34.7730   43.0100 C   0  0  0  0  0  0  0  0  0  0  0  0
   47.8250   34.9510   41.7160 C   0  0  0  0  0  0  0  0  0  0  0  0
   47.0540   34.4340   40.7020 C   0  0  0  0  0  0  0  0  0  0  0  0
   45.9300   33.7450   41.0540 C   0  0  0  0  0  0  0  0  0  0  0  0
   49.0530   35.7040   41.3260 C   0  0  0  0  0  0  0  0  0  0  0  0
   50.1450   34.9590   41.6710 F   0  0  0  0  0  0  0  0  0  0  0  0
   49.0670   36.9680   41.8880 F   0  0  0  0  0  0  0  0  0  0  0  0
   49.0230   35.8730   39.9410 F   0  0  0  0  0  0  0  0  0  0  0  0
   46.8180   31.5100   47.3740 C   0  0  0  0  0  0  0  0  0  0  0  0
   47.6010   31.8070   48.4930 C   0  0  0  0  0  0  0  0  0  0  0  0
   48.1960   30.6180   48.8990 C   0  0  0  0  0  0  0  0  0  0  0  0
   47.7350   29.6650   47.9940 C   0  0  0  0  0  0  0  0  0  0  0  0
   46.9390   30.2170   47.1240 O   0  0  0  0  0  0  0  0  0  0  0  0
   43.8294   35.0313   47.2126 H   0  0  0  0  0  0  0  0  0  0  0  0
   44.4796   35.4680   44.8425 H   0  0  0  0  0  0  0  0  0  0  0  0
   48.1047   35.1978   43.8000 H   0  0  0  0  0  0  0  0  0  0  0  0
   47.3327   34.5706   39.6467 H   0  0  0  0  0  0  0  0  0  0  0  0
   45.2927   33.3197   40.2647 H   0  0  0  0  0  0  0  0  0  0  0  0
   47.7232   32.7940   48.9631 H   0  0  0  0  0  0  0  0  0  0  0  0
   48.8794   30.4640   49.7471 H   0  0  0  0  0  0  0  0  0  0  0  0
   48.0048   28.5987   48.0117 H   0  0  0  0  0  0  0  0  0  0  0  0
  1  6  2  0
  2  1  1  0
  3  2  2  0
  3  4  1  0
  4  5  2  0
  5 18  1  0
  5  6  1  0
  8  7  1  0
  8  9  2  0
  9  3  1  0
 10  9  1  0
 11 10  2  0
 12 13  2  0
 12 11  1  0
 13  8  1  0
 14 15  1  0
 14 11  1  0
 14 16  1  0
 17 14  1  0
 18 19  2  0
 19 20  1  0
 21 20  2  0
 22 18  1  0
 22 21  1  0
  1 23  1  0
  2 24  1  0
 10 25  1  0
 12 26  1  0
 13 27  1  0
 19 28  1  0
 20 29  1  0
 21 30  1  0
M  ISO  8  23  14  24  14  25  14  26  14  27  14  28  14  29  14  30  14
M  END
>  <minimizedAffinity>  (1) 
-5.97550869

>  <minimizedRMSD>  (1) 
0.485934198

$$$$
