
     RDKit          3D

 25 26  0  0  0  0  0  0  0  0999 V2000
   44.1040   32.5630   42.6940 Cl  0  0  0  0  0  0  0  0  0  0  0  0
   45.5540   33.4780   42.3960 C   0  0  0  0  0  0  0  0  0  0  0  0
   46.3340   33.9310   43.4070 C   0  0  0  0  0  0  0  0  0  0  0  0
   47.4550   34.6420   43.0600 C   0  0  0  0  0  0  0  0  0  0  0  0
   47.7940   34.8950   41.7740 C   0  0  0  0  0  0  0  0  0  0  0  0
   47.0110   34.4390   40.7530 C   0  0  0  0  0  0  0  0  0  0  0  0
   45.8900   33.7280   41.0780 C   0  0  0  0  0  0  0  0  0  0  0  0
   44.7720   34.1570   46.8580 C   0  0  0  0  0  0  0  0  0  0  0  0
   45.1350   34.4700   45.5530 C   0  0  0  0  0  0  0  0  0  0  0  0
   45.9310   33.6350   44.7840 C   0  0  0  0  0  0  0  0  0  0  0  0
   46.3350   32.4830   45.3940 N   0  0  0  0  0  0  0  0  0  0  0  0
   45.9750   32.1910   46.6600 C   0  0  0  0  0  0  0  0  0  0  0  0
   45.2040   33.0150   47.3840 N   0  0  0  0  0  0  0  0  0  0  0  0
   46.4830   30.9560   47.1330 N   0  0  0  0  0  0  0  0  0  0  0  0
   49.0190   35.6720   41.4010 C   0  0  0  0  0  0  0  0  0  0  0  0
   50.1180   34.9520   41.7760 F   0  0  0  0  0  0  0  0  0  0  0  0
   49.0060   36.9240   41.9910 F   0  0  0  0  0  0  0  0  0  0  0  0
   49.0040   35.8570   40.0310 F   0  0  0  0  0  0  0  0  0  0  0  0
   48.1060   35.0227   43.8608 H   0  0  0  0  0  0  0  0  0  0  0  0
   47.2736   34.6373   39.7034 H   0  0  0  0  0  0  0  0  0  0  0  0
   45.2419   33.3469   40.2750 H   0  0  0  0  0  0  0  0  0  0  0  0
   44.1399   34.8407   47.4437 H   0  0  0  0  0  0  0  0  0  0  0  0
   44.7780   35.4137   45.1150 H   0  0  0  0  0  0  0  0  0  0  0  0
   46.2646   30.6416   48.0892 H   0  0  0  0  0  0  0  0  0  0  0  0
   47.0707   30.3725   46.5207 H   0  0  0  0  0  0  0  0  0  0  0  0
  2  1  1  0
  2  3  2  0
  3 10  1  0
  4  3  1  0
  5  4  2  0
  6  7  2  0
  6  5  1  0
  7  2  1  0
  8 13  2  0
  9  8  1  0
 10 11  1  0
 10  9  2  0
 11 12  2  0
 12 14  1  0
 12 13  1  0
 15  5  1  0
 15 16  1  0
 15 17  1  0
 18 15  1  0
  4 19  1  0
  6 20  1  0
  7 21  1  0
  8 22  1  0
  9 23  1  0
 14 24  1  0
 14 25  1  0
M  ISO  5  19  14  20  14  21  14  22  14  23  14
M  END
>  <minimizedAffinity>  (1) 
-5.34889269

>  <minimizedRMSD>  (1) 
0.0109078307

$$$$
