
     RDKit          3D

 30 32  0  0  0  0  0  0  0  0999 V2000
   44.7090   33.3570   41.1010 Cl  0  0  0  0  0  0  0  0  0  0  0  0
   46.2850   34.0930   40.9560 C   0  0  0  0  0  0  0  0  0  0  0  0
   46.8290   34.7620   42.0070 C   0  0  0  0  0  0  0  0  0  0  0  0
   48.0900   35.3640   41.9240 C   0  0  0  0  0  0  0  0  0  0  0  0
   48.7460   35.2410   40.7240 C   0  0  0  0  0  0  0  0  0  0  0  0
   48.1930   34.5620   39.6570 C   0  0  0  0  0  0  0  0  0  0  0  0
   46.9660   33.9840   39.7590 C   0  0  0  0  0  0  0  0  0  0  0  0
   45.5550   34.0160   45.3790 C   0  0  0  0  0  0  0  0  0  0  0  0
   44.6780   35.0860   45.6210 C   0  0  0  0  0  0  0  0  0  0  0  0
   44.5350   36.0460   44.6300 C   0  0  0  0  0  0  0  0  0  0  0  0
   45.2440   35.9050   43.4810 N   0  0  0  0  0  0  0  0  0  0  0  0
   46.0880   34.8640   43.2640 C   0  0  0  0  0  0  0  0  0  0  0  0
   46.2360   33.9200   44.2270 N   0  0  0  0  0  0  0  0  0  0  0  0
   46.4460   33.2830   38.5900 C   0  0  0  0  0  0  0  0  0  0  0  0
   47.1310   33.2420   37.3810 C   0  0  0  0  0  0  0  0  0  0  0  0
   46.6120   32.5730   36.3020 C   0  0  0  0  0  0  0  0  0  0  0  0
   45.3950   31.9090   36.3540 C   0  0  0  0  0  0  0  0  0  0  0  0
   44.7100   31.9460   37.5560 C   0  0  0  0  0  0  0  0  0  0  0  0
   45.2500   32.6260   38.6310 C   0  0  0  0  0  0  0  0  0  0  0  0
   48.5312   35.9059   42.7735 H   0  0  0  0  0  0  0  0  0  0  0  0
   49.7407   35.6966   40.6097 H   0  0  0  0  0  0  0  0  0  0  0  0
   48.7516   34.4874   38.7124 H   0  0  0  0  0  0  0  0  0  0  0  0
   45.6861   33.2415   46.1490 H   0  0  0  0  0  0  0  0  0  0  0  0
   44.1218   35.1604   46.5671 H   0  0  0  0  0  0  0  0  0  0  0  0
   43.8611   36.9037   44.7722 H   0  0  0  0  0  0  0  0  0  0  0  0
   48.1011   33.7523   37.2886 H   0  0  0  0  0  0  0  0  0  0  0  0
   47.1815   32.5626   35.3610 H   0  0  0  0  0  0  0  0  0  0  0  0
   44.9926   31.3771   35.4793 H   0  0  0  0  0  0  0  0  0  0  0  0
   43.7402   31.4365   37.6552 H   0  0  0  0  0  0  0  0  0  0  0  0
   44.6836   32.6386   39.5739 H   0  0  0  0  0  0  0  0  0  0  0  0
  2  1  1  0
  2  3  2  0
  3 12  1  0
  4  3  1  0
  5  4  2  0
  6  7  2  0
  6  5  1  0
  7  2  1  0
  8  9  2  0
 10  9  1  0
 11 10  2  0
 12 11  1  0
 12 13  2  0
 13  8  1  0
 14 19  1  0
 14  7  1  0
 15 14  2  0
 16 17  2  0
 16 15  1  0
 17 18  1  0
 18 19  2  0
  4 20  1  0
  5 21  1  0
  6 22  1  0
  8 23  1  0
  9 24  1  0
 10 25  1  0
 15 26  1  0
 16 27  1  0
 17 28  1  0
 18 29  1  0
 19 30  1  0
M  ISO  8  20  14  21  14  22  14  23  14  24  14  25  14  26  14  27  14
M  ISO  3  28  14  29  14  30  14
M  END
>  <minimizedAffinity>  (1) 
-5.68751335

>  <minimizedRMSD>  (1) 
0.194598556

$$$$
