
     RDKit          3D

 34 36  0  0  0  0  0  0  0  0999 V2000
   45.4650   36.2480   43.2480 C   0  0  0  0  0  0  0  0  0  0  0  0
   46.0550   35.0050   43.0530 C   0  0  0  0  0  0  0  0  0  0  0  0
   45.8520   34.0370   44.0060 C   0  0  0  0  0  0  0  0  0  0  0  0
   45.0940   34.3100   45.1030 N   0  0  0  0  0  0  0  0  0  0  0  0
   44.5310   35.5380   45.2640 C   0  0  0  0  0  0  0  0  0  0  0  0
   44.7160   36.5010   44.3390 N   0  0  0  0  0  0  0  0  0  0  0  0
   46.8590   34.8130   41.9130 N   0  0  0  0  0  0  0  0  0  0  0  0
   48.2090   35.2210   41.8610 C   0  0  0  0  0  0  0  0  0  0  0  0
   48.6800   35.3070   40.3960 C   0  0  0  0  0  0  0  0  0  0  0  0
   48.5360   34.0230   39.7940 N   0  0  0  0  0  0  0  0  0  0  0  0
   47.3560   33.2790   40.0980 C   0  0  0  0  0  0  0  0  0  0  0  0
   46.3390   34.1960   40.6900 C   0  0  0  0  0  0  0  0  0  0  0  0
   43.9530   32.1840   42.5690 Cl  0  0  0  0  0  0  0  0  0  0  0  0
   45.4740   31.7890   43.3700 C   0  0  0  0  0  0  0  0  0  0  0  0
   46.3230   32.6820   44.0590 C   0  0  0  0  0  0  0  0  0  0  0  0
   47.4640   32.0740   44.5930 C   0  0  0  0  0  0  0  0  0  0  0  0
   47.8010   30.7650   44.5090 C   0  0  0  0  0  0  0  0  0  0  0  0
   46.9550   29.9170   43.8320 C   0  0  0  0  0  0  0  0  0  0  0  0
   47.4550   28.2380   43.7650 Cl  0  0  0  0  0  0  0  0  0  0  0  0
   45.8150   30.4510   43.2820 C   0  0  0  0  0  0  0  0  0  0  0  0
   45.6121   37.0394   42.4983 H   0  0  0  0  0  0  0  0  0  0  0  0
   43.9207   35.7465   46.1551 H   0  0  0  0  0  0  0  0  0  0  0  0
   48.3090   36.2091   42.3339 H   0  0  0  0  0  0  0  0  0  0  0  0
   48.8283   34.4858   42.3958 H   0  0  0  0  0  0  0  0  0  0  0  0
   48.0674   36.0415   39.8526 H   0  0  0  0  0  0  0  0  0  0  0  0
   49.7331   35.6227   40.3586 H   0  0  0  0  0  0  0  0  0  0  0  0
   49.3431   33.4535   40.0859 H   0  0  0  0  0  0  0  0  0  0  0  0
   46.9557   32.8308   39.1767 H   0  0  0  0  0  0  0  0  0  0  0  0
   47.5963   32.4802   40.8150 H   0  0  0  0  0  0  0  0  0  0  0  0
   46.0939   34.9837   39.9624 H   0  0  0  0  0  0  0  0  0  0  0  0
   45.4372   33.6169   40.9377 H   0  0  0  0  0  0  0  0  0  0  0  0
   48.1606   32.7277   45.1384 H   0  0  0  0  0  0  0  0  0  0  0  0
   48.7266   30.3897   44.9698 H   0  0  0  0  0  0  0  0  0  0  0  0
   45.1348   29.7767   42.7410 H   0  0  0  0  0  0  0  0  0  0  0  0
  1  6  2  0
  2  1  1  0
  2  3  2  0
  3 15  1  0
  3  4  1  0
  4  5  2  0
  6  5  1  0
  7  2  1  0
  8  7  1  0
  9  8  1  0
 10 11  1  0
 10  9  1  0
 11 12  1  0
 12  7  1  0
 13 14  1  0
 14 15  2  0
 15 16  1  0
 17 16  2  0
 18 17  1  0
 19 18  1  0
 20 14  1  0
 20 18  2  0
  1 21  1  0
  5 22  1  0
  8 23  1  0
  8 24  1  0
  9 25  1  0
  9 26  1  0
 10 27  1  0
 11 28  1  0
 11 29  1  0
 12 30  1  0
 12 31  1  0
 16 32  1  0
 17 33  1  0
 20 34  1  0
M  ISO  8  21  14  22  14  23  13  24  13  25  13  26  13  27   5  28  13
M  ISO  6  29  13  30  13  31  13  32  14  33  14  34  14
M  END
>  <minimizedAffinity>  (1) 
-4.76090622

>  <minimizedRMSD>  (1) 
3.15339947

$$$$
