
     RDKit          3D

 27 28  0  0  0  0  0  0  0  0999 V2000
   46.8700   34.8160   42.0080 N   0  0  0  0  0  0  0  0  0  0  0  0
   48.1300   35.4220   41.9590 C   0  0  0  0  0  0  0  0  0  0  0  0
   48.7180   35.3780   40.5370 C   0  0  0  0  0  0  0  0  0  0  0  0
   48.6440   34.0670   40.0060 N   0  0  0  0  0  0  0  0  0  0  0  0
   47.3790   33.4570   40.0680 C   0  0  0  0  0  0  0  0  0  0  0  0
   46.3580   34.1660   40.7940 C   0  0  0  0  0  0  0  0  0  0  0  0
   45.2860   36.0600   43.3050 C   0  0  0  0  0  0  0  0  0  0  0  0
   46.0930   34.9000   43.1770 C   0  0  0  0  0  0  0  0  0  0  0  0
   46.1410   33.9700   44.1900 C   0  0  0  0  0  0  0  0  0  0  0  0
   45.3950   34.2110   45.3090 N   0  0  0  0  0  0  0  0  0  0  0  0
   44.6360   35.3160   45.4220 C   0  0  0  0  0  0  0  0  0  0  0  0
   44.5730   36.2260   44.4500 N   0  0  0  0  0  0  0  0  0  0  0  0
   46.8790   32.7030   44.2690 C   0  0  0  0  0  0  0  0  0  0  0  0
   47.1860   32.4420   45.6580 F   0  0  0  0  0  0  0  0  0  0  0  0
   48.2140   32.7960   43.8320 F   0  0  0  0  0  0  0  0  0  0  0  0
   46.2350   31.5580   43.9570 F   0  0  0  0  0  0  0  0  0  0  0  0
   48.0353   36.4713   42.2751 H   0  0  0  0  0  0  0  0  0  0  0  0
   48.8056   34.8722   42.6308 H   0  0  0  0  0  0  0  0  0  0  0  0
   48.1500   36.0625   39.8898 H   0  0  0  0  0  0  0  0  0  0  0  0
   49.7739   35.6832   40.5809 H   0  0  0  0  0  0  0  0  0  0  0  0
   49.3067   33.4759   40.5278 H   0  0  0  0  0  0  0  0  0  0  0  0
   47.0224   33.3218   39.0362 H   0  0  0  0  0  0  0  0  0  0  0  0
   47.5346   32.5210   40.6245 H   0  0  0  0  0  0  0  0  0  0  0  0
   45.9302   34.9370   40.1363 H   0  0  0  0  0  0  0  0  0  0  0  0
   45.6020   33.4304   41.1059 H   0  0  0  0  0  0  0  0  0  0  0  0
   45.2387   36.8060   42.4980 H   0  0  0  0  0  0  0  0  0  0  0  0
   44.0519   35.4727   46.3408 H   0  0  0  0  0  0  0  0  0  0  0  0
  1  8  1  0
  2  1  1  0
  3  2  1  0
  4  5  1  0
  4  3  1  0
  5  6  1  0
  6  1  1  0
  7 12  2  0
  8  7  1  0
  8  9  2  0
  9 13  1  0
  9 10  1  0
 10 11  2  0
 12 11  1  0
 13 14  1  0
 15 13  1  0
 16 13  1  0
  2 17  1  0
  2 18  1  0
  3 19  1  0
  3 20  1  0
  4 21  1  0
  5 22  1  0
  5 23  1  0
  6 24  1  0
  6 25  1  0
  7 26  1  0
 11 27  1  0
M  ISO  8  17  13  18  13  19  13  20  13  21   5  22  13  23  13  24  13
M  ISO  3  25  13  26  14  27  14
M  END
>  <minimizedAffinity>  (1) 
-4.71052265

>  <minimizedRMSD>  (1) 
3.36610508

$$$$
