
     RDKit          3D

 33 35  0  0  0  0  0  0  0  0999 V2000
   45.0340   32.9890   41.1610 Cl  0  0  0  0  0  0  0  0  0  0  0  0
   46.4870   33.9210   40.9430 C   0  0  0  0  0  0  0  0  0  0  0  0
   46.9250   34.7550   41.9410 C   0  0  0  0  0  0  0  0  0  0  0  0
   48.0850   35.5190   41.8020 C   0  0  0  0  0  0  0  0  0  0  0  0
   48.7630   35.3930   40.6160 C   0  0  0  0  0  0  0  0  0  0  0  0
   48.3320   34.5650   39.6200 C   0  0  0  0  0  0  0  0  0  0  0  0
   47.1970   33.8260   39.7710 C   0  0  0  0  0  0  0  0  0  0  0  0
   45.6320   34.0460   45.3130 C   0  0  0  0  0  0  0  0  0  0  0  0
   44.7110   35.0740   45.5240 C   0  0  0  0  0  0  0  0  0  0  0  0
   44.5460   35.9970   44.5050 C   0  0  0  0  0  0  0  0  0  0  0  0
   45.2700   35.8650   43.3730 N   0  0  0  0  0  0  0  0  0  0  0  0
   46.1630   34.8540   43.1880 C   0  0  0  0  0  0  0  0  0  0  0  0
   46.3340   33.9510   44.1670 N   0  0  0  0  0  0  0  0  0  0  0  0
   47.2530   31.6760   38.6050 C   0  0  0  0  0  0  0  0  0  0  0  0
   46.7560   32.9500   38.6970 C   0  0  0  0  0  0  0  0  0  0  0  0
   45.8260   33.3920   37.7520 C   0  0  0  0  0  0  0  0  0  0  0  0
   45.4340   32.5250   36.7470 C   0  0  0  0  0  0  0  0  0  0  0  0
   45.9440   31.2390   36.6660 C   0  0  0  0  0  0  0  0  0  0  0  0
   46.8630   30.8060   37.6000 C   0  0  0  0  0  0  0  0  0  0  0  0
   48.4180   31.0380   39.7400 S   0  0  0  0  0  0  0  0  0  0  0  0
   47.7390   30.9330   41.0720 O   0  0  0  0  0  0  0  0  0  0  0  0
   49.6630   31.8410   39.8280 O   0  0  0  0  0  0  0  0  0  0  0  0
   48.4371   36.1872   42.6017 H   0  0  0  0  0  0  0  0  0  0  0  0
   49.6824   35.9773   40.4629 H   0  0  0  0  0  0  0  0  0  0  0  0
   48.9072   34.4935   38.6851 H   0  0  0  0  0  0  0  0  0  0  0  0
   45.7882   33.2953   46.1017 H   0  0  0  0  0  0  0  0  0  0  0  0
   44.1399   35.1477   46.4612 H   0  0  0  0  0  0  0  0  0  0  0  0
   43.8337   36.8278   44.6164 H   0  0  0  0  0  0  0  0  0  0  0  0
   45.4132   34.4102   37.8060 H   0  0  0  0  0  0  0  0  0  0  0  0
   44.7032   32.8634   35.9977 H   0  0  0  0  0  0  0  0  0  0  0  0
   45.6174   30.5656   35.8599 H   0  0  0  0  0  0  0  0  0  0  0  0
   47.2782   29.7887   37.5474 H   0  0  0  0  0  0  0  0  0  0  0  0
   48.8313   29.8078   39.3010 H   0  0  0  0  0  0  0  0  0  0  0  0
  2  1  1  0
  2  3  2  0
  3 12  1  0
  4  3  1  0
  5  4  2  0
  6  7  2  0
  6  5  1  0
  7  2  1  0
  8  9  2  0
 10  9  1  0
 11 10  2  0
 12 11  1  0
 12 13  2  0
 13  8  1  0
 14 15  2  0
 14 20  1  0
 15  7  1  0
 16 15  1  0
 17 16  2  0
 18 17  1  0
 18 19  2  0
 19 14  1  0
 20 22  2  0
 20 21  2  0
  4 23  1  0
  5 24  1  0
  6 25  1  0
  8 26  1  0
  9 27  1  0
 10 28  1  0
 16 29  1  0
 17 30  1  0
 18 31  1  0
 19 32  1  0
 20 33  1  0
M  ISO  8  23  14  24  14  25  14  26  14  27  14  28  14  29  14  30  14
M  ISO  3  31  14  32  14  33  11
M  END
>  <minimizedAffinity>  (1) 
-5.45451164

>  <minimizedRMSD>  (1) 
1.05652297

$$$$
