
     RDKit          3D

 27 28  0  0  0  0  0  0  0  0999 V2000
   44.1300   34.2000   41.4540 N   0  0  0  0  0  0  0  0  0  0  0  0
   44.4410   33.0310   40.7160 C   0  0  0  0  0  0  0  0  0  0  0  0
   44.4470   33.3670   39.2030 C   0  0  0  0  0  0  0  0  0  0  0  0
   43.1530   33.8180   38.8480 N   0  0  0  0  0  0  0  0  0  0  0  0
   42.4990   34.7240   39.7280 C   0  0  0  0  0  0  0  0  0  0  0  0
   43.4860   35.2460   40.7090 C   0  0  0  0  0  0  0  0  0  0  0  0
   44.2430   35.5630   43.4200 C   0  0  0  0  0  0  0  0  0  0  0  0
   44.4710   34.3150   42.8100 C   0  0  0  0  0  0  0  0  0  0  0  0
   45.0500   33.3090   43.5560 C   0  0  0  0  0  0  0  0  0  0  0  0
   45.3750   33.5690   44.8420 N   0  0  0  0  0  0  0  0  0  0  0  0
   45.1540   34.7680   45.4170 C   0  0  0  0  0  0  0  0  0  0  0  0
   44.5950   35.7430   44.7070 N   0  0  0  0  0  0  0  0  0  0  0  0
   45.3380   31.9530   43.1010 C   0  0  0  0  0  0  0  0  0  0  0  0
   45.4331   32.6612   41.0142 H   0  0  0  0  0  0  0  0  0  0  0  0
   43.6871   32.2559   40.9184 H   0  0  0  0  0  0  0  0  0  0  0  0
   45.1859   34.1560   38.9991 H   0  0  0  0  0  0  0  0  0  0  0  0
   44.7148   32.4763   38.6157 H   0  0  0  0  0  0  0  0  0  0  0  0
   43.2307   34.2824   37.9319 H   0  0  0  0  0  0  0  0  0  0  0  0
   42.0769   35.5593   39.1499 H   0  0  0  0  0  0  0  0  0  0  0  0
   41.6875   34.2048   40.2589 H   0  0  0  0  0  0  0  0  0  0  0  0
   44.2542   35.8165   40.1664 H   0  0  0  0  0  0  0  0  0  0  0  0
   42.9414   35.8787   41.4253 H   0  0  0  0  0  0  0  0  0  0  0  0
   43.7816   36.3833   42.8506 H   0  0  0  0  0  0  0  0  0  0  0  0
   45.4344   34.9385   46.4669 H   0  0  0  0  0  0  0  0  0  0  0  0
   45.4776   31.2959   43.9720 H   0  0  0  0  0  0  0  0  0  0  0  0
   44.4982   31.5838   42.4940 H   0  0  0  0  0  0  0  0  0  0  0  0
   46.2553   31.9570   42.4940 H   0  0  0  0  0  0  0  0  0  0  0  0
  1  8  1  0
  2  1  1  0
  3  2  1  0
  4  3  1  0
  4  5  1  0
  5  6  1  0
  6  1  1  0
  7 12  2  0
  8  7  1  0
  8  9  2  0
  9 10  1  0
 10 11  2  0
 12 11  1  0
 13  9  1  0
  2 14  1  0
  2 15  1  0
  3 16  1  0
  3 17  1  0
  4 18  1  0
  5 19  1  0
  5 20  1  0
  6 21  1  0
  6 22  1  0
  7 23  1  0
 11 24  1  0
 13 25  1  0
 13 26  1  0
 13 27  1  0
M  ISO  8  14  13  15  13  16  13  17  13  18   5  19  13  20  13  21  13
M  ISO  6  22  13  23  14  24  14  25   8  26   8  27   8
M  END
>  <minimizedAffinity>  (1) 
-3.38947153

>  <minimizedRMSD>  (1) 
0.871622741

$$$$
