
     RDKit          3D

 25 26  0  0  0  0  0  0  0  0999 V2000
   44.1730   34.3620   41.8840 N   0  0  0  0  0  0  0  0  0  0  0  0
   44.2980   33.2830   40.9710 C   0  0  0  0  0  0  0  0  0  0  0  0
   43.9290   33.6450   39.5750 C   0  0  0  0  0  0  0  0  0  0  0  0
   42.7860   34.4380   39.4330 N   0  0  0  0  0  0  0  0  0  0  0  0
   42.4250   35.2970   40.4700 C   0  0  0  0  0  0  0  0  0  0  0  0
   43.6080   35.5590   41.3540 C   0  0  0  0  0  0  0  0  0  0  0  0
   44.3930   35.2810   44.0860 C   0  0  0  0  0  0  0  0  0  0  0  0
   44.6180   34.2230   43.2120 C   0  0  0  0  0  0  0  0  0  0  0  0
   45.2950   33.1060   43.7020 C   0  0  0  0  0  0  0  0  0  0  0  0
   45.7130   33.0710   44.9880 N   0  0  0  0  0  0  0  0  0  0  0  0
   45.4700   34.1350   45.8110 C   0  0  0  0  0  0  0  0  0  0  0  0
   44.8260   35.2090   45.3660 N   0  0  0  0  0  0  0  0  0  0  0  0
   45.6340   31.6890   42.7390 S   0  0  0  0  0  0  0  0  0  0  0  0
   45.3430   32.9397   40.9777 H   0  0  0  0  0  0  0  0  0  0  0  0
   43.6007   32.4978   41.2983 H   0  0  0  0  0  0  0  0  0  0  0  0
   44.7755   34.1911   39.1332 H   0  0  0  0  0  0  0  0  0  0  0  0
   43.6973   32.6948   39.0717 H   0  0  0  0  0  0  0  0  0  0  0  0
   42.9246   35.0194   38.5942 H   0  0  0  0  0  0  0  0  0  0  0  0
   42.0680   36.2479   40.0478 H   0  0  0  0  0  0  0  0  0  0  0  0
   41.6262   34.8297   41.0646 H   0  0  0  0  0  0  0  0  0  0  0  0
   44.3775   36.0817   40.7669 H   0  0  0  0  0  0  0  0  0  0  0  0
   43.2614   36.1675   42.2023 H   0  0  0  0  0  0  0  0  0  0  0  0
   43.8618   36.1784   43.7360 H   0  0  0  0  0  0  0  0  0  0  0  0
   45.8122   34.1018   46.8559 H   0  0  0  0  0  0  0  0  0  0  0  0
   45.8884   30.6258   43.5647 H   0  0  0  0  0  0  0  0  0  0  0  0
  1  8  1  0
  2  1  1  0
  3  2  1  0
  4  3  1  0
  4  5  1  0
  5  6  1  0
  6  1  1  0
  7 12  2  0
  8  9  2  0
  8  7  1  0
  9 10  1  0
 10 11  2  0
 12 11  1  0
 13  9  1  0
  2 14  1  0
  2 15  1  0
  3 16  1  0
  3 17  1  0
  4 18  1  0
  5 19  1  0
  5 20  1  0
  6 21  1  0
  6 22  1  0
  7 23  1  0
 11 24  1  0
 13 25  1  0
M  ISO  8  14  13  15  13  16  13  17  13  18   5  19  13  20  13  21  13
M  ISO  4  22  13  23  14  24  14  25  11
M  END
>  <minimizedAffinity>  (1) 
-3.32897258

>  <minimizedRMSD>  (1) 
0.258679688

$$$$
