
     RDKit          3D

 49 53  0  0  1  0  0  0  0  0999 V2000
   45.1680   35.9970   43.5230 C   0  0  0  0  0  0  0  0  0  0  0  0
   45.9350   34.8750   43.2450 C   0  0  0  0  0  0  0  0  0  0  0  0
   46.0420   33.9140   44.2200 C   0  0  0  0  0  0  0  0  0  0  0  0
   45.3940   34.1060   45.4110 N   0  0  0  0  0  0  0  0  0  0  0  0
   44.6570   35.2070   45.6510 C   0  0  0  0  0  0  0  0  0  0  0  0
   44.5500   36.1370   44.7140 N   0  0  0  0  0  0  0  0  0  0  0  0
   46.5680   34.7930   42.0030 N   0  0  0  0  0  0  0  0  0  0  0  0
   47.8950   35.2320   41.7930 C   0  0  0  0  0  0  0  0  0  0  0  0
   48.4600   34.9220   40.4310 C   0  0  0  0  0  0  0  0  0  0  0  0
   48.1100   33.6610   39.8960 N   0  0  0  0  0  0  0  0  0  0  0  0
   46.8020   33.2320   40.1120 C   0  0  0  0  0  0  0  0  0  0  0  0
   45.9620   34.2720   40.8240 C   0  0  0  0  0  0  0  0  0  0  0  0
   46.6170   32.0400   45.5210 C   0  0  0  0  0  0  0  0  0  0  0  0
   46.7280   32.6850   44.2710 C   0  0  0  0  0  0  0  0  0  0  0  0
   47.5560   31.9700   43.4230 C   0  0  0  0  0  0  0  0  0  0  0  0
   48.1950   30.8060   43.7150 C   0  0  0  0  0  0  0  0  0  0  0  0
   48.0370   30.2470   44.9680 C   0  0  0  0  0  0  0  0  0  0  0  0
   47.2420   30.8600   45.8830 C   0  0  0  0  0  0  0  0  0  0  0  0
   48.8130   29.1090   44.9440 O   0  0  0  0  0  0  0  0  0  0  0  0
   49.3510   28.9000   43.6640 C   0  0  1  0  0  0  0  0  0  0  0  0
   49.0250   30.0570   42.8930 O   0  0  0  0  0  0  0  0  0  0  0  0
   50.7600   28.7200   43.6010 N   0  0  0  0  0  0  0  0  0  0  0  0
   51.3560   28.1500   44.7630 C   0  0  0  0  0  0  0  0  0  0  0  0
   52.0670   29.2700   45.4610 C   0  0  0  0  0  0  0  0  0  0  0  0
   52.5010   30.1310   44.2890 C   0  0  0  0  0  0  0  0  0  0  0  0
   51.5100   29.8570   43.1840 C   0  0  0  0  0  0  0  0  0  0  0  0
   45.0622   36.7837   42.7615 H   0  0  0  0  0  0  0  0  0  0  0  0
   44.1477   35.3331   46.6178 H   0  0  0  0  0  0  0  0  0  0  0  0
   47.9197   36.3228   41.9325 H   0  0  0  0  0  0  0  0  0  0  0  0
   48.5179   34.6851   42.5161 H   0  0  0  0  0  0  0  0  0  0  0  0
   48.1055   35.6954   39.7337 H   0  0  0  0  0  0  0  0  0  0  0  0
   49.5527   34.9024   40.5563 H   0  0  0  0  0  0  0  0  0  0  0  0
   48.7410   32.9600   40.3100 H   0  0  0  0  0  0  0  0  0  0  0  0
   46.3385   33.0092   39.1396 H   0  0  0  0  0  0  0  0  0  0  0  0
   46.8440   32.3393   40.7533 H   0  0  0  0  0  0  0  0  0  0  0  0
   45.7810   35.1059   40.1298 H   0  0  0  0  0  0  0  0  0  0  0  0
   45.0323   33.7736   41.1357 H   0  0  0  0  0  0  0  0  0  0  0  0
   45.9757   32.5185   46.2758 H   0  0  0  0  0  0  0  0  0  0  0  0
   47.7121   32.3834   42.4157 H   0  0  0  0  0  0  0  0  0  0  0  0
   47.0989   30.4297   46.8852 H   0  0  0  0  0  0  0  0  0  0  0  0
   48.9214   27.9576   43.2934 H   0  0  0  0  0  0  0  0  0  0  0  0
   50.5822   27.7228   45.4178 H   0  0  0  0  0  0  0  0  0  0  0  0
   52.0493   27.3374   44.5002 H   0  0  0  0  0  0  0  0  0  0  0  0
   51.3905   29.8181   46.1333 H   0  0  0  0  0  0  0  0  0  0  0  0
   52.8948   28.9419   46.1068 H   0  0  0  0  0  0  0  0  0  0  0  0
   52.4791   31.1950   44.5673 H   0  0  0  0  0  0  0  0  0  0  0  0
   53.5293   29.8976   43.9758 H   0  0  0  0  0  0  0  0  0  0  0  0
   52.0371   29.6427   42.2426 H   0  0  0  0  0  0  0  0  0  0  0  0
   50.8585   30.7247   43.0033 H   0  0  0  0  0  0  0  0  0  0  0  0
  1  6  2  0
  2  1  1  0
  2  3  2  0
  3 14  1  0
  3  4  1  0
  4  5  2  0
  6  5  1  0
  7  2  1  0
  8  7  1  0
  9  8  1  0
 10 11  1  0
 10  9  1  0
 11 12  1  0
 12  7  1  0
 13 18  2  0
 14 13  1  0
 15 16  1  0
 15 14  2  0
 16 17  2  0
 17 18  1  0
 19 17  1  0
 20 19  1  0
 21 20  1  0
 21 16  1  0
 22 20  1  0
 22 23  1  0
 23 24  1  0
 25 24  1  0
 26 22  1  0
 26 25  1  0
  1 27  1  0
  5 28  1  0
  8 29  1  0
  8 30  1  0
  9 31  1  0
  9 32  1  0
 10 33  1  0
 11 34  1  0
 11 35  1  0
 12 36  1  0
 12 37  1  0
 13 38  1  0
 15 39  1  0
 18 40  1  0
 20 41  1  6
 23 42  1  0
 23 43  1  0
 24 44  1  0
 24 45  1  0
 25 46  1  0
 25 47  1  0
 26 48  1  0
 26 49  1  0
M  ISO  8  27  14  28  14  29  13  30  13  31  13  32  13  33   5  34  13
M  ISO  8  35  13  36  13  37  13  38  14  39  14  40  14  41  13  42  13
M  ISO  7  43  13  44  13  45  13  46  13  47  13  48  13  49  13
M  END
>  <minimizedAffinity>  (1) 
-5.23043156

>  <minimizedRMSD>  (1) 
0.282186627

$$$$
