
     RDKit          3D

 47 51  0  0  1  0  0  0  0  0999 V2000
   45.2260   36.0330   43.4570 C   0  0  0  0  0  0  0  0  0  0  0  0
   46.0440   34.9330   43.2130 C   0  0  0  0  0  0  0  0  0  0  0  0
   46.1210   33.9650   44.1780 C   0  0  0  0  0  0  0  0  0  0  0  0
   45.4000   34.1210   45.3300 N   0  0  0  0  0  0  0  0  0  0  0  0
   44.6160   35.1950   45.5430 C   0  0  0  0  0  0  0  0  0  0  0  0
   44.5350   36.1300   44.6170 N   0  0  0  0  0  0  0  0  0  0  0  0
   46.7510   34.8950   42.0150 N   0  0  0  0  0  0  0  0  0  0  0  0
   48.0240   35.4910   41.8580 C   0  0  0  0  0  0  0  0  0  0  0  0
   48.7100   35.2020   40.5460 C   0  0  0  0  0  0  0  0  0  0  0  0
   48.5240   33.9100   40.0370 N   0  0  0  0  0  0  0  0  0  0  0  0
   47.2840   33.3140   40.1950 C   0  0  0  0  0  0  0  0  0  0  0  0
   46.2950   34.2740   40.8210 C   0  0  0  0  0  0  0  0  0  0  0  0
   46.4140   31.9200   45.3130 C   0  0  0  0  0  0  0  0  0  0  0  0
   46.8320   32.7530   44.2470 C   0  0  0  0  0  0  0  0  0  0  0  0
   47.8910   32.1720   43.5730 C   0  0  0  0  0  0  0  0  0  0  0  0
   48.4740   30.9780   43.8600 C   0  0  0  0  0  0  0  0  0  0  0  0
   48.0030   30.2380   44.9200 C   0  0  0  0  0  0  0  0  0  0  0  0
   46.9630   30.7040   45.6600 C   0  0  0  0  0  0  0  0  0  0  0  0
   48.8050   29.1090   44.9440 O   0  0  0  0  0  0  0  0  0  0  0  0
   49.7440   29.1480   43.8870 C   0  0  2  0  0  0  0  0  0  0  0  0
   49.5320   30.3720   43.1940 O   0  0  0  0  0  0  0  0  0  0  0  0
   52.1750   28.4680   42.1390 Cl  0  0  0  0  0  0  0  0  0  0  0  0
   50.6910   27.5610   42.2100 C   0  0  0  0  0  0  0  0  0  0  0  0
   49.6600   27.9580   43.0350 C   0  0  0  0  0  0  0  0  0  0  0  0
   48.5350   27.1430   42.9950 C   0  0  0  0  0  0  0  0  0  0  0  0
   48.4510   26.0220   42.1950 C   0  0  0  0  0  0  0  0  0  0  0  0
   49.5080   25.6640   41.3870 C   0  0  0  0  0  0  0  0  0  0  0  0
   50.6460   26.4450   41.3950 C   0  0  0  0  0  0  0  0  0  0  0  0
   45.1407   36.8285   42.7021 H   0  0  0  0  0  0  0  0  0  0  0  0
   44.0487   35.2913   46.4805 H   0  0  0  0  0  0  0  0  0  0  0  0
   47.9030   36.5808   41.9461 H   0  0  0  0  0  0  0  0  0  0  0  0
   48.6638   35.0558   42.6399 H   0  0  0  0  0  0  0  0  0  0  0  0
   48.3306   35.9170   39.8011 H   0  0  0  0  0  0  0  0  0  0  0  0
   49.7881   35.2952   40.7434 H   0  0  0  0  0  0  0  0  0  0  0  0
   49.2162   33.2996   40.4943 H   0  0  0  0  0  0  0  0  0  0  0  0
   46.9073   33.0014   39.2099 H   0  0  0  0  0  0  0  0  0  0  0  0
   47.3959   32.4444   40.8593 H   0  0  0  0  0  0  0  0  0  0  0  0
   46.0706   35.0626   40.0877 H   0  0  0  0  0  0  0  0  0  0  0  0
   45.4121   33.6782   41.0960 H   0  0  0  0  0  0  0  0  0  0  0  0
   45.5708   32.2772   45.9224 H   0  0  0  0  0  0  0  0  0  0  0  0
   48.3023   32.7318   42.7200 H   0  0  0  0  0  0  0  0  0  0  0  0
   46.5707   30.1279   46.5110 H   0  0  0  0  0  0  0  0  0  0  0  0
   50.7757   29.1229   44.2676 H   0  0  0  0  0  0  0  0  0  0  0  0
   47.6742   27.4029   43.6286 H   0  0  0  0  0  0  0  0  0  0  0  0
   47.5361   25.4114   42.2023 H   0  0  0  0  0  0  0  0  0  0  0  0
   49.4461   24.7716   40.7469 H   0  0  0  0  0  0  0  0  0  0  0  0
   51.5060   26.1830   40.7612 H   0  0  0  0  0  0  0  0  0  0  0  0
  1  6  2  0
  2  1  1  0
  2  3  2  0
  3 14  1  0
  3  4  1  0
  4  5  2  0
  6  5  1  0
  7  2  1  0
  8  7  1  0
  9  8  1  0
 10 11  1  0
 10  9  1  0
 11 12  1  0
 12  7  1  0
 13 18  2  0
 14 13  1  0
 15 16  1  0
 15 14  2  0
 16 17  2  0
 17 19  1  0
 17 18  1  0
 20 19  1  0
 21 16  1  0
 21 20  1  0
 22 23  1  0
 23 24  2  0
 24 20  1  0
 25 24  1  0
 26 25  2  0
 27 28  2  0
 27 26  1  0
 28 23  1  0
  1 29  1  0
  5 30  1  0
  8 31  1  0
  8 32  1  0
  9 33  1  0
  9 34  1  0
 10 35  1  0
 11 36  1  0
 11 37  1  0
 12 38  1  0
 12 39  1  0
 13 40  1  0
 15 41  1  0
 18 42  1  0
 20 43  1  1
 25 44  1  0
 26 45  1  0
 27 46  1  0
 28 47  1  0
M  ISO  8  29  14  30  14  31  13  32  13  33  13  34  13  35   5  36  13
M  ISO  8  37  13  38  13  39  13  40  14  41  14  42  14  43  13  44  14
M  ISO  3  45  14  46  14  47  14
M  END
>  <minimizedAffinity>  (1) 
-4.95929527

>  <minimizedRMSD>  (1) 
0.745348871

$$$$
