
     RDKit          3D

 47 51  0  0  1  0  0  0  0  0999 V2000
   45.1180   36.0350   43.5040 C   0  0  0  0  0  0  0  0  0  0  0  0
   45.9030   34.9180   43.2710 C   0  0  0  0  0  0  0  0  0  0  0  0
   46.0120   33.9910   44.2740 C   0  0  0  0  0  0  0  0  0  0  0  0
   45.3480   34.2050   45.4530 N   0  0  0  0  0  0  0  0  0  0  0  0
   44.5910   35.3040   45.6450 C   0  0  0  0  0  0  0  0  0  0  0  0
   44.4810   36.2010   44.6860 N   0  0  0  0  0  0  0  0  0  0  0  0
   46.5510   34.8110   42.0410 N   0  0  0  0  0  0  0  0  0  0  0  0
   47.8680   35.2730   41.8220 C   0  0  0  0  0  0  0  0  0  0  0  0
   48.4540   34.9200   40.4800 C   0  0  0  0  0  0  0  0  0  0  0  0
   48.1350   33.6360   39.9830 N   0  0  0  0  0  0  0  0  0  0  0  0
   46.8300   33.1880   40.2050 C   0  0  0  0  0  0  0  0  0  0  0  0
   45.9710   34.2430   40.8730 C   0  0  0  0  0  0  0  0  0  0  0  0
   46.4330   32.0570   45.5500 C   0  0  0  0  0  0  0  0  0  0  0  0
   46.7190   32.7760   44.3720 C   0  0  0  0  0  0  0  0  0  0  0  0
   47.6890   32.1230   43.6340 C   0  0  0  0  0  0  0  0  0  0  0  0
   48.3100   30.9590   43.9560 C   0  0  0  0  0  0  0  0  0  0  0  0
   47.9730   30.3280   45.1330 C   0  0  0  0  0  0  0  0  0  0  0  0
   47.0250   30.8710   45.9440 C   0  0  0  0  0  0  0  0  0  0  0  0
   48.7710   29.2150   45.1810 O   0  0  0  0  0  0  0  0  0  0  0  0
   49.6320   29.1670   44.0610 C   0  0  2  0  0  0  0  0  0  0  0  0
   49.2740   30.2740   43.2360 O   0  0  0  0  0  0  0  0  0  0  0  0
   49.5260   27.8970   43.3570 N   0  0  0  0  0  0  0  0  0  0  0  0
   48.4000   27.1660   43.2540 C   0  0  0  0  0  0  0  0  0  0  0  0
   48.3510   25.9700   42.5760 C   0  0  0  0  0  0  0  0  0  0  0  0
   49.5350   25.5440   41.9940 C   0  0  0  0  0  0  0  0  0  0  0  0
   49.4870   24.4470   41.3730 O   0  0  0  0  0  0  0  0  0  0  0  0
   50.6460   26.3000   42.1160 N   0  0  0  0  0  0  0  0  0  0  0  0
   50.6700   27.4670   42.7840 C   0  0  0  0  0  0  0  0  0  0  0  0
   51.7650   28.1000   42.8390 O   0  0  0  0  0  0  0  0  0  0  0  0
   45.0111   36.7970   42.7179 H   0  0  0  0  0  0  0  0  0  0  0  0
   44.0662   35.4516   46.6004 H   0  0  0  0  0  0  0  0  0  0  0  0
   47.8645   36.3691   41.9147 H   0  0  0  0  0  0  0  0  0  0  0  0
   48.4972   34.7720   42.5724 H   0  0  0  0  0  0  0  0  0  0  0  0
   48.0959   35.6616   39.7508 H   0  0  0  0  0  0  0  0  0  0  0  0
   49.5446   34.9199   40.6234 H   0  0  0  0  0  0  0  0  0  0  0  0
   48.7766   32.9615   40.4238 H   0  0  0  0  0  0  0  0  0  0  0  0
   46.3772   32.9217   39.2386 H   0  0  0  0  0  0  0  0  0  0  0  0
   46.8801   32.3175   40.8756 H   0  0  0  0  0  0  0  0  0  0  0  0
   45.7911   35.0512   40.1488 H   0  0  0  0  0  0  0  0  0  0  0  0
   45.0443   33.7426   41.1906 H   0  0  0  0  0  0  0  0  0  0  0  0
   45.6676   32.4785   46.2182 H   0  0  0  0  0  0  0  0  0  0  0  0
   47.9890   32.5958   42.6872 H   0  0  0  0  0  0  0  0  0  0  0  0
   46.7378   30.3807   46.8859 H   0  0  0  0  0  0  0  0  0  0  0  0
   50.6866   29.2373   44.3658 H   0  0  0  0  0  0  0  0  0  0  0  0
   47.4823   27.5402   43.7312 H   0  0  0  0  0  0  0  0  0  0  0  0
   47.4233   25.3838   42.4998 H   0  0  0  0  0  0  0  0  0  0  0  0
   51.5165   25.9677   41.6769 H   0  0  0  0  0  0  0  0  0  0  0  0
  1  6  2  0
  2  1  1  0
  2  3  2  0
  3 14  1  0
  3  4  1  0
  4  5  2  0
  6  5  1  0
  7  2  1  0
  8  7  1  0
  9  8  1  0
 10 11  1  0
 10  9  1  0
 11 12  1  0
 12  7  1  0
 13 18  2  0
 14 13  1  0
 15 16  1  0
 15 14  2  0
 16 17  2  0
 17 19  1  0
 17 18  1  0
 20 19  1  0
 21 16  1  0
 21 20  1  0
 22 20  1  0
 23 22  1  0
 24 23  2  0
 25 27  1  0
 25 24  1  0
 26 25  2  0
 27 28  1  0
 28 29  2  0
 28 22  1  0
  1 30  1  0
  5 31  1  0
  8 32  1  0
  8 33  1  0
  9 34  1  0
  9 35  1  0
 10 36  1  0
 11 37  1  0
 11 38  1  0
 12 39  1  0
 12 40  1  0
 13 41  1  0
 15 42  1  0
 18 43  1  0
 20 44  1  1
 23 45  1  0
 24 46  1  0
 27 47  1  0
M  ISO  8  30  14  31  14  32  13  33  13  34  13  35  13  36   5  37  13
M  ISO  8  38  13  39  13  40  13  41  14  42  14  43  14  44  13  45  14
M  ISO  2  46  14  47   9
M  END
>  <minimizedAffinity>  (1) 
-4.93984032

>  <minimizedRMSD>  (1) 
0.999115527

$$$$
