
     RDKit          3D

 35 37  0  0  0  0  0  0  0  0999 V2000
   44.8820   32.9230   41.2230 Cl  0  0  0  0  0  0  0  0  0  0  0  0
   46.3430   33.8140   40.9540 C   0  0  0  0  0  0  0  0  0  0  0  0
   46.8230   34.6570   41.9180 C   0  0  0  0  0  0  0  0  0  0  0  0
   48.0030   35.3910   41.7270 C   0  0  0  0  0  0  0  0  0  0  0  0
   48.6430   35.2150   40.5260 C   0  0  0  0  0  0  0  0  0  0  0  0
   48.1620   34.3670   39.5550 C   0  0  0  0  0  0  0  0  0  0  0  0
   47.0080   33.6600   39.7610 C   0  0  0  0  0  0  0  0  0  0  0  0
   45.6200   34.0380   45.3440 C   0  0  0  0  0  0  0  0  0  0  0  0
   44.7170   35.1120   45.5390 C   0  0  0  0  0  0  0  0  0  0  0  0
   44.5400   36.0160   44.5040 C   0  0  0  0  0  0  0  0  0  0  0  0
   45.2360   35.8330   43.3570 N   0  0  0  0  0  0  0  0  0  0  0  0
   46.0980   34.8040   43.1780 C   0  0  0  0  0  0  0  0  0  0  0  0
   46.2760   33.9180   44.1800 N   0  0  0  0  0  0  0  0  0  0  0  0
   46.5740   32.8040   38.7100 N   0  0  0  0  0  0  0  0  0  0  0  0
   47.0510   31.4410   38.4410 C   0  0  0  0  0  0  0  0  0  0  0  0
   47.5720   31.2710   37.0510 C   0  0  0  0  0  0  0  0  0  0  0  0
   47.1260   32.3510   36.1010 C   0  0  0  0  0  0  0  0  0  0  0  0
   45.7020   32.7680   36.4240 C   0  0  0  0  0  0  0  0  0  0  0  0
   45.5630   33.3160   37.8100 C   0  0  0  0  0  0  0  0  0  0  0  0
   48.3941   36.0709   42.4982 H   0  0  0  0  0  0  0  0  0  0  0  0
   49.5724   35.7709   40.3329 H   0  0  0  0  0  0  0  0  0  0  0  0
   48.7085   34.2564   38.6068 H   0  0  0  0  0  0  0  0  0  0  0  0
   45.7831   33.3032   46.1462 H   0  0  0  0  0  0  0  0  0  0  0  0
   44.1708   35.2253   46.4871 H   0  0  0  0  0  0  0  0  0  0  0  0
   43.8485   36.8646   44.6118 H   0  0  0  0  0  0  0  0  0  0  0  0
   47.8586   31.2055   39.1498 H   0  0  0  0  0  0  0  0  0  0  0  0
   46.1933   30.7622   38.5573 H   0  0  0  0  0  0  0  0  0  0  0  0
   48.6713   31.2745   37.0893 H   0  0  0  0  0  0  0  0  0  0  0  0
   47.1683   30.3212   36.6703 H   0  0  0  0  0  0  0  0  0  0  0  0
   47.1696   31.9705   35.0698 H   0  0  0  0  0  0  0  0  0  0  0  0
   47.7905   33.2214   36.2046 H   0  0  0  0  0  0  0  0  0  0  0  0
   45.3900   33.5412   35.7065 H   0  0  0  0  0  0  0  0  0  0  0  0
   45.0685   31.8713   36.3552 H   0  0  0  0  0  0  0  0  0  0  0  0
   45.6506   34.4117   37.7670 H   0  0  0  0  0  0  0  0  0  0  0  0
   44.5813   33.0048   38.1966 H   0  0  0  0  0  0  0  0  0  0  0  0
  2  1  1  0
  2  3  2  0
  3 12  1  0
  4  3  1  0
  5  4  2  0
  6  7  2  0
  6  5  1  0
  7  2  1  0
  8  9  2  0
 10  9  1  0
 11 10  2  0
 12 11  1  0
 12 13  2  0
 13  8  1  0
 14  7  1  0
 15 14  1  0
 16 15  1  0
 17 18  1  0
 17 16  1  0
 18 19  1  0
 19 14  1  0
  4 20  1  0
  5 21  1  0
  6 22  1  0
  8 23  1  0
  9 24  1  0
 10 25  1  0
 15 26  1  0
 15 27  1  0
 16 28  1  0
 16 29  1  0
 17 30  1  0
 17 31  1  0
 18 32  1  0
 18 33  1  0
 19 34  1  0
 19 35  1  0
M  ISO  8  20  14  21  14  22  14  23  14  24  14  25  14  26  13  27  13
M  ISO  8  28  13  29  13  30  13  31  13  32  13  33  13  34  13  35  13
M  END
>  <minimizedAffinity>  (1) 
-5.39548063

>  <minimizedRMSD>  (1) 
0.761427641

$$$$
