
     RDKit          3D

 50 54  0  0  1  0  0  0  0  0999 V2000
   45.1140   36.0180   43.4910 C   0  0  0  0  0  0  0  0  0  0  0  0
   45.9140   34.9020   43.2560 C   0  0  0  0  0  0  0  0  0  0  0  0
   46.0350   33.9770   44.2570 C   0  0  0  0  0  0  0  0  0  0  0  0
   45.3740   34.1880   45.4390 N   0  0  0  0  0  0  0  0  0  0  0  0
   44.6060   35.2770   45.6390 C   0  0  0  0  0  0  0  0  0  0  0  0
   44.4830   36.1780   44.6730 N   0  0  0  0  0  0  0  0  0  0  0  0
   46.5540   34.8030   42.0240 N   0  0  0  0  0  0  0  0  0  0  0  0
   47.8630   35.2820   41.8030 C   0  0  0  0  0  0  0  0  0  0  0  0
   48.4490   34.9410   40.4550 C   0  0  0  0  0  0  0  0  0  0  0  0
   48.1640   33.6610   39.9710 N   0  0  0  0  0  0  0  0  0  0  0  0
   46.8720   33.1910   40.1880 C   0  0  0  0  0  0  0  0  0  0  0  0
   45.9880   34.2280   40.8530 C   0  0  0  0  0  0  0  0  0  0  0  0
   46.3700   31.9780   45.4590 C   0  0  0  0  0  0  0  0  0  0  0  0
   46.7480   32.7670   44.3480 C   0  0  0  0  0  0  0  0  0  0  0  0
   47.7840   32.1660   43.6560 C   0  0  0  0  0  0  0  0  0  0  0  0
   48.3800   30.9840   43.9730 C   0  0  0  0  0  0  0  0  0  0  0  0
   47.9460   30.2850   45.0820 C   0  0  0  0  0  0  0  0  0  0  0  0
   46.9350   30.7750   45.8350 C   0  0  0  0  0  0  0  0  0  0  0  0
   48.7520   29.1550   45.1230 O   0  0  0  0  0  0  0  0  0  0  0  0
   49.7000   29.1860   44.0740 C   0  0  2  0  0  0  0  0  0  0  0  0
   49.4180   30.3510   43.2980 O   0  0  0  0  0  0  0  0  0  0  0  0
   49.5530   27.9810   43.2850 N   0  0  0  0  0  0  0  0  0  0  0  0
   50.3480   26.8970   43.8000 C   0  0  0  0  0  0  0  0  0  0  0  0
   50.6240   25.9220   42.6970 C   0  0  0  0  0  0  0  0  0  0  0  0
   51.5670   26.3890   41.7830 O   0  0  0  0  0  0  0  0  0  0  0  0
   51.4520   27.7770   41.7480 C   0  0  0  0  0  0  0  0  0  0  0  0
   50.0390   28.2540   41.9450 C   0  0  0  0  0  0  0  0  0  0  0  0
   44.9953   36.7774   42.7041 H   0  0  0  0  0  0  0  0  0  0  0  0
   44.0844   35.4180   46.5971 H   0  0  0  0  0  0  0  0  0  0  0  0
   47.8462   36.3776   41.9002 H   0  0  0  0  0  0  0  0  0  0  0  0
   48.5012   34.7864   42.5493 H   0  0  0  0  0  0  0  0  0  0  0  0
   48.0647   35.6700   39.7264 H   0  0  0  0  0  0  0  0  0  0  0  0
   49.5404   34.9723   40.5886 H   0  0  0  0  0  0  0  0  0  0  0  0
   48.8165   33.0033   40.4211 H   0  0  0  0  0  0  0  0  0  0  0  0
   46.4281   32.9159   39.2199 H   0  0  0  0  0  0  0  0  0  0  0  0
   46.9376   32.3228   40.8603 H   0  0  0  0  0  0  0  0  0  0  0  0
   45.7957   35.0341   40.1297 H   0  0  0  0  0  0  0  0  0  0  0  0
   45.0683   33.7109   41.1641 H   0  0  0  0  0  0  0  0  0  0  0  0
   45.5479   32.3585   46.0830 H   0  0  0  0  0  0  0  0  0  0  0  0
   48.1613   32.6922   42.7668 H   0  0  0  0  0  0  0  0  0  0  0  0
   46.5735   30.2317   46.7205 H   0  0  0  0  0  0  0  0  0  0  0  0
   50.7350   29.2269   44.4442 H   0  0  0  0  0  0  0  0  0  0  0  0
   51.2984   27.2905   44.1897 H   0  0  0  0  0  0  0  0  0  0  0  0
   49.8037   26.3925   44.6119 H   0  0  0  0  0  0  0  0  0  0  0  0
   50.9979   24.9873   43.1403 H   0  0  0  0  0  0  0  0  0  0  0  0
   49.6823   25.7678   42.1497 H   0  0  0  0  0  0  0  0  0  0  0  0
   52.0797   28.2011   42.5455 H   0  0  0  0  0  0  0  0  0  0  0  0
   51.7758   28.1093   40.7507 H   0  0  0  0  0  0  0  0  0  0  0  0
   49.3878   27.7431   41.2205 H   0  0  0  0  0  0  0  0  0  0  0  0
   50.0250   29.3436   41.7948 H   0  0  0  0  0  0  0  0  0  0  0  0
  1  6  2  0
  2  1  1  0
  2  3  2  0
  3 14  1  0
  3  4  1  0
  4  5  2  0
  6  5  1  0
  7  2  1  0
  8  7  1  0
  9  8  1  0
 10 11  1  0
 10  9  1  0
 11 12  1  0
 12  7  1  0
 13 18  2  0
 14 13  1  0
 15 16  1  0
 15 14  2  0
 16 17  2  0
 17 19  1  0
 17 18  1  0
 20 19  1  0
 21 16  1  0
 21 20  1  0
 22 27  1  0
 22 23  1  0
 22 20  1  0
 24 23  1  0
 25 24  1  0
 26 25  1  0
 26 27  1  0
  1 28  1  0
  5 29  1  0
  8 30  1  0
  8 31  1  0
  9 32  1  0
  9 33  1  0
 10 34  1  0
 11 35  1  0
 11 36  1  0
 12 37  1  0
 12 38  1  0
 13 39  1  0
 15 40  1  0
 18 41  1  0
 20 42  1  1
 23 43  1  0
 23 44  1  0
 24 45  1  0
 24 46  1  0
 26 47  1  0
 26 48  1  0
 27 49  1  0
 27 50  1  0
M  ISO  8  28  14  29  14  30  13  31  13  32  13  33  13  34   5  35  13
M  ISO  8  36  13  37  13  38  13  39  14  40  14  41  14  42  13  43  13
M  ISO  7  44  13  45  13  46  13  47  13  48  13  49  13  50  13
M  END
>  <minimizedAffinity>  (1) 
-4.92743158

>  <minimizedRMSD>  (1) 
0.192811012

$$$$
