
     RDKit          3D

 48 52  0  0  1  0  0  0  0  0999 V2000
   45.2830   35.9890   43.4170 C   0  0  0  0  0  0  0  0  0  0  0  0
   46.1130   34.8910   43.1720 C   0  0  0  0  0  0  0  0  0  0  0  0
   46.2070   33.9110   44.1090 C   0  0  0  0  0  0  0  0  0  0  0  0
   45.4740   34.0720   45.2310 N   0  0  0  0  0  0  0  0  0  0  0  0
   44.6780   35.1070   45.4890 C   0  0  0  0  0  0  0  0  0  0  0  0
   44.5890   36.0560   44.5820 N   0  0  0  0  0  0  0  0  0  0  0  0
   46.7820   34.8590   41.9490 N   0  0  0  0  0  0  0  0  0  0  0  0
   48.0330   35.4390   41.7360 C   0  0  0  0  0  0  0  0  0  0  0  0
   48.6400   35.1350   40.3840 C   0  0  0  0  0  0  0  0  0  0  0  0
   48.4820   33.8310   39.9390 N   0  0  0  0  0  0  0  0  0  0  0  0
   47.2160   33.2740   40.0970 C   0  0  0  0  0  0  0  0  0  0  0  0
   46.2600   34.2320   40.7660 C   0  0  0  0  0  0  0  0  0  0  0  0
   46.4610   31.8340   45.2030 C   0  0  0  0  0  0  0  0  0  0  0  0
   46.9390   32.7180   44.2020 C   0  0  0  0  0  0  0  0  0  0  0  0
   48.0270   32.1910   43.5350 C   0  0  0  0  0  0  0  0  0  0  0  0
   48.6120   30.9850   43.7610 C   0  0  0  0  0  0  0  0  0  0  0  0
   48.1000   30.1740   44.7430 C   0  0  0  0  0  0  0  0  0  0  0  0
   47.0160   30.6110   45.4660 C   0  0  0  0  0  0  0  0  0  0  0  0
   48.8740   29.0360   44.7500 O   0  0  0  0  0  0  0  0  0  0  0  0
   49.8840   29.1540   43.7680 C   0  0  2  0  0  0  0  0  0  0  0  0
   49.6910   30.4130   43.1340 O   0  0  0  0  0  0  0  0  0  0  0  0
   49.6390   28.1730   42.8060 O   0  0  0  0  0  0  0  0  0  0  0  0
   50.3980   28.1320   41.6540 C   0  0  0  0  0  0  0  0  0  0  0  0
   50.1490   28.3160   40.3130 C   0  0  0  0  0  0  0  0  0  0  0  0
   51.1570   28.2020   39.3850 C   0  0  0  0  0  0  0  0  0  0  0  0
   52.4570   27.9010   39.7330 C   0  0  0  0  0  0  0  0  0  0  0  0
   52.7310   27.7140   41.0680 C   0  0  0  0  0  0  0  0  0  0  0  0
   51.7160   27.8260   42.0240 C   0  0  0  0  0  0  0  0  0  0  0  0
   45.1929   36.7927   42.6714 H   0  0  0  0  0  0  0  0  0  0  0  0
   44.1125   35.1671   46.4306 H   0  0  0  0  0  0  0  0  0  0  0  0
   47.9267   36.5300   41.8281 H   0  0  0  0  0  0  0  0  0  0  0  0
   48.7107   35.0095   42.4885 H   0  0  0  0  0  0  0  0  0  0  0  0
   48.1747   35.8041   39.6452 H   0  0  0  0  0  0  0  0  0  0  0  0
   49.7235   35.2863   40.4981 H   0  0  0  0  0  0  0  0  0  0  0  0
   49.1509   33.2407   40.4537 H   0  0  0  0  0  0  0  0  0  0  0  0
   46.8182   33.0080   39.1066 H   0  0  0  0  0  0  0  0  0  0  0  0
   47.3119   32.3847   40.7372 H   0  0  0  0  0  0  0  0  0  0  0  0
   46.0009   35.0204   40.0440 H   0  0  0  0  0  0  0  0  0  0  0  0
   45.3893   33.6387   41.0821 H   0  0  0  0  0  0  0  0  0  0  0  0
   45.5943   32.1496   45.8024 H   0  0  0  0  0  0  0  0  0  0  0  0
   48.4654   32.8107   42.7389 H   0  0  0  0  0  0  0  0  0  0  0  0
   46.5932   29.9759   46.2584 H   0  0  0  0  0  0  0  0  0  0  0  0
   50.8909   29.0573   44.2002 H   0  0  0  0  0  0  0  0  0  0  0  0
   49.1292   28.5577   39.9790 H   0  0  0  0  0  0  0  0  0  0  0  0
   50.9170   28.3570   38.3228 H   0  0  0  0  0  0  0  0  0  0  0  0
   53.2457   27.8137   38.9712 H   0  0  0  0  0  0  0  0  0  0  0  0
   53.7564   27.4745   41.3863 H   0  0  0  0  0  0  0  0  0  0  0  0
   51.9560   27.6711   43.0863 H   0  0  0  0  0  0  0  0  0  0  0  0
  1  6  2  0
  2  1  1  0
  2  3  2  0
  3 14  1  0
  3  4  1  0
  4  5  2  0
  6  5  1  0
  7  2  1  0
  8  7  1  0
  9  8  1  0
 10 11  1  0
 10  9  1  0
 11 12  1  0
 12  7  1  0
 13 18  2  0
 14 13  1  0
 15 16  1  0
 15 14  2  0
 16 17  2  0
 17 19  1  0
 17 18  1  0
 20 19  1  0
 21 16  1  0
 21 20  1  0
 22 20  1  0
 23 28  1  0
 23 22  1  0
 24 23  2  0
 25 26  2  0
 25 24  1  0
 26 27  1  0
 27 28  2  0
  1 29  1  0
  5 30  1  0
  8 31  1  0
  8 32  1  0
  9 33  1  0
  9 34  1  0
 10 35  1  0
 11 36  1  0
 11 37  1  0
 12 38  1  0
 12 39  1  0
 13 40  1  0
 15 41  1  0
 18 42  1  0
 20 43  1  1
 24 44  1  0
 25 45  1  0
 26 46  1  0
 27 47  1  0
 28 48  1  0
M  ISO  8  29  14  30  14  31  13  32  13  33  13  34  13  35   5  36  13
M  ISO  8  37  13  38  13  39  13  40  14  41  14  42  14  43  13  44  14
M  ISO  4  45  14  46  14  47  14  48  14
M  END
>  <minimizedAffinity>  (1) 
-4.77833176

>  <minimizedRMSD>  (1) 
1.47905743

$$$$
