
     RDKit          3D

 45 48  0  0  1  0  0  0  0  0999 V2000
   45.2250   36.0320   43.4540 C   0  0  0  0  0  0  0  0  0  0  0  0
   46.0390   34.9260   43.2210 C   0  0  0  0  0  0  0  0  0  0  0  0
   46.1270   33.9560   44.1760 C   0  0  0  0  0  0  0  0  0  0  0  0
   45.3970   34.1390   45.3220 N   0  0  0  0  0  0  0  0  0  0  0  0
   44.6210   35.2000   45.5360 C   0  0  0  0  0  0  0  0  0  0  0  0
   44.5380   36.1320   44.6140 N   0  0  0  0  0  0  0  0  0  0  0  0
   46.7350   34.8830   42.0180 N   0  0  0  0  0  0  0  0  0  0  0  0
   48.0190   35.4800   41.8590 C   0  0  0  0  0  0  0  0  0  0  0  0
   48.6920   35.1830   40.5450 C   0  0  0  0  0  0  0  0  0  0  0  0
   48.5450   33.8830   40.0810 N   0  0  0  0  0  0  0  0  0  0  0  0
   47.2890   33.3280   40.1970 C   0  0  0  0  0  0  0  0  0  0  0  0
   46.2910   34.2760   40.8270 C   0  0  0  0  0  0  0  0  0  0  0  0
   46.4020   31.9300   45.3350 C   0  0  0  0  0  0  0  0  0  0  0  0
   46.8250   32.7470   44.2660 C   0  0  0  0  0  0  0  0  0  0  0  0
   47.8700   32.1740   43.5800 C   0  0  0  0  0  0  0  0  0  0  0  0
   48.4540   30.9780   43.8620 C   0  0  0  0  0  0  0  0  0  0  0  0
   47.9800   30.2330   44.9380 C   0  0  0  0  0  0  0  0  0  0  0  0
   46.9350   30.7200   45.6850 C   0  0  0  0  0  0  0  0  0  0  0  0
   48.7710   29.0960   44.9620 O   0  0  0  0  0  0  0  0  0  0  0  0
   49.6970   29.1220   43.9020 C   0  0  2  0  0  0  0  0  0  0  0  0
   49.5000   30.3530   43.2110 O   0  0  0  0  0  0  0  0  0  0  0  0
   49.3250   28.0710   43.0200 O   0  0  0  0  0  0  0  0  0  0  0  0
   50.2830   27.6450   42.1160 C   0  0  0  0  0  0  0  0  0  0  0  0
   51.0090   27.7530   41.0170 C   0  0  0  0  0  0  0  0  0  0  0  0
   50.7620   28.9640   40.1960 C   0  0  0  0  0  0  0  0  0  0  0  0
   45.1412   36.8235   42.6947 H   0  0  0  0  0  0  0  0  0  0  0  0
   44.0556   35.2949   46.4748 H   0  0  0  0  0  0  0  0  0  0  0  0
   47.9032   36.5704   41.9460 H   0  0  0  0  0  0  0  0  0  0  0  0
   48.6611   35.0495   42.6415 H   0  0  0  0  0  0  0  0  0  0  0  0
   48.2736   35.8628   39.7882 H   0  0  0  0  0  0  0  0  0  0  0  0
   49.7693   35.3230   40.7179 H   0  0  0  0  0  0  0  0  0  0  0  0
   49.2004   33.2870   40.6065 H   0  0  0  0  0  0  0  0  0  0  0  0
   46.9305   33.0543   39.1937 H   0  0  0  0  0  0  0  0  0  0  0  0
   47.3722   32.4478   40.8514 H   0  0  0  0  0  0  0  0  0  0  0  0
   46.0649   35.0700   40.1001 H   0  0  0  0  0  0  0  0  0  0  0  0
   45.4102   33.6728   41.0922 H   0  0  0  0  0  0  0  0  0  0  0  0
   45.5647   32.3008   45.9445 H   0  0  0  0  0  0  0  0  0  0  0  0
   48.2713   32.7351   42.7232 H   0  0  0  0  0  0  0  0  0  0  0  0
   46.5383   30.1531   46.5401 H   0  0  0  0  0  0  0  0  0  0  0  0
   50.7360   29.0180   44.2480 H   0  0  0  0  0  0  0  0  0  0  0  0
   50.6305   26.6963   42.5510 H   0  0  0  0  0  0  0  0  0  0  0  0
   51.7500   26.9927   40.7290 H   0  0  0  0  0  0  0  0  0  0  0  0
   50.5863   29.8255   40.8570 H   0  0  0  0  0  0  0  0  0  0  0  0
   51.6383   29.1616   39.5612 H   0  0  0  0  0  0  0  0  0  0  0  0
   49.8783   28.8026   39.5612 H   0  0  0  0  0  0  0  0  0  0  0  0
  1  6  2  0
  2  1  1  0
  2  3  2  0
  3 14  1  0
  3  4  1  0
  4  5  2  0
  6  5  1  0
  7  2  1  0
  8  7  1  0
  9  8  1  0
 10 11  1  0
 10  9  1  0
 11 12  1  0
 12  7  1  0
 13 18  2  0
 14 13  1  0
 15 16  1  0
 15 14  2  0
 16 17  2  0
 17 19  1  0
 17 18  1  0
 20 19  1  0
 21 16  1  0
 21 20  1  0
 22 20  1  0
 23 22  1  0
 24 23  2  0
 25 24  1  0
  1 26  1  0
  5 27  1  0
  8 28  1  0
  8 29  1  0
  9 30  1  0
  9 31  1  0
 10 32  1  0
 11 33  1  0
 11 34  1  0
 12 35  1  0
 12 36  1  0
 13 37  1  0
 15 38  1  0
 18 39  1  0
 20 40  1  1
 23 41  1  0
 24 42  1  0
 25 43  1  0
 25 44  1  0
 25 45  1  0
M  ISO  8  26  14  27  14  28  13  29  13  30  13  31  13  32   5  33  13
M  ISO  8  34  13  35  13  36  13  37  14  38  14  39  14  40  13  43   8
M  ISO  2  44   8  45   8
M  END
>  <minimizedAffinity>  (1) 
-4.7480216

>  <minimizedRMSD>  (1) 
0.362059951

$$$$
