
     RDKit          3D

 41 44  0  0  1  0  0  0  0  0999 V2000
   45.0940   36.0200   43.5100 C   0  0  0  0  0  0  0  0  0  0  0  0
   45.8960   34.9000   43.2890 C   0  0  0  0  0  0  0  0  0  0  0  0
   46.0360   33.9710   44.2770 C   0  0  0  0  0  0  0  0  0  0  0  0
   45.3700   34.2050   45.4490 N   0  0  0  0  0  0  0  0  0  0  0  0
   44.6030   35.2790   45.6600 C   0  0  0  0  0  0  0  0  0  0  0  0
   44.4710   36.1660   44.7040 N   0  0  0  0  0  0  0  0  0  0  0  0
   46.5400   34.8080   42.0540 N   0  0  0  0  0  0  0  0  0  0  0  0
   47.8680   35.2930   41.8550 C   0  0  0  0  0  0  0  0  0  0  0  0
   48.4660   34.9630   40.5200 C   0  0  0  0  0  0  0  0  0  0  0  0
   48.1800   33.6790   40.0410 N   0  0  0  0  0  0  0  0  0  0  0  0
   46.8790   33.2320   40.2040 C   0  0  0  0  0  0  0  0  0  0  0  0
   45.9950   34.2560   40.8780 C   0  0  0  0  0  0  0  0  0  0  0  0
   46.3990   32.0130   45.5270 C   0  0  0  0  0  0  0  0  0  0  0  0
   46.7320   32.7670   44.3790 C   0  0  0  0  0  0  0  0  0  0  0  0
   47.7130   32.1340   43.6560 C   0  0  0  0  0  0  0  0  0  0  0  0
   48.3140   30.9580   43.9540 C   0  0  0  0  0  0  0  0  0  0  0  0
   47.9260   30.2840   45.1070 C   0  0  0  0  0  0  0  0  0  0  0  0
   46.9530   30.8230   45.9020 C   0  0  0  0  0  0  0  0  0  0  0  0
   48.7150   29.1430   45.1280 O   0  0  0  0  0  0  0  0  0  0  0  0
   49.5350   29.0890   43.9810 C   0  0  2  0  0  0  0  0  0  0  0  0
   49.3000   30.2910   43.2490 O   0  0  0  0  0  0  0  0  0  0  0  0
   49.0660   28.0000   43.2070 O   0  0  0  0  0  0  0  0  0  0  0  0
   50.0570   27.4600   42.4010 C   0  0  0  0  0  0  0  0  0  0  0  0
   49.8940   28.0110   41.1410 F   0  0  0  0  0  0  0  0  0  0  0  0
   50.0390   26.1030   42.3010 F   0  0  0  0  0  0  0  0  0  0  0  0
   51.2970   27.9290   42.8480 F   0  0  0  0  0  0  0  0  0  0  0  0
   44.9687   36.7774   42.7221 H   0  0  0  0  0  0  0  0  0  0  0  0
   44.0894   35.4167   46.6230 H   0  0  0  0  0  0  0  0  0  0  0  0
   47.8517   36.3877   41.9612 H   0  0  0  0  0  0  0  0  0  0  0  0
   48.4957   34.7925   42.6070 H   0  0  0  0  0  0  0  0  0  0  0  0
   48.0877   35.6917   39.7879 H   0  0  0  0  0  0  0  0  0  0  0  0
   49.5569   35.0030   40.6553 H   0  0  0  0  0  0  0  0  0  0  0  0
   48.8011   33.0179   40.5289 H   0  0  0  0  0  0  0  0  0  0  0  0
   46.4590   33.0004   39.2141 H   0  0  0  0  0  0  0  0  0  0  0  0
   46.9101   32.3413   40.8488 H   0  0  0  0  0  0  0  0  0  0  0  0
   45.8113   35.0744   40.1663 H   0  0  0  0  0  0  0  0  0  0  0  0
   45.0742   33.7317   41.1734 H   0  0  0  0  0  0  0  0  0  0  0  0
   45.6173   32.4251   46.1821 H   0  0  0  0  0  0  0  0  0  0  0  0
   48.0463   32.6364   42.7359 H   0  0  0  0  0  0  0  0  0  0  0  0
   46.6254   30.3116   46.8191 H   0  0  0  0  0  0  0  0  0  0  0  0
   50.6018   28.9785   44.2254 H   0  0  0  0  0  0  0  0  0  0  0  0
  1  6  2  0
  2  1  1  0
  2  3  2  0
  3 14  1  0
  3  4  1  0
  4  5  2  0
  6  5  1  0
  7  2  1  0
  8  7  1  0
  9  8  1  0
 10 11  1  0
 10  9  1  0
 11 12  1  0
 12  7  1  0
 13 18  2  0
 14 13  1  0
 15 16  1  0
 15 14  2  0
 16 17  2  0
 17 19  1  0
 17 18  1  0
 20 19  1  0
 21 16  1  0
 21 20  1  0
 22 20  1  0
 23 26  1  0
 23 22  1  0
 24 23  1  0
 25 23  1  0
  1 27  1  0
  5 28  1  0
  8 29  1  0
  8 30  1  0
  9 31  1  0
  9 32  1  0
 10 33  1  0
 11 34  1  0
 11 35  1  0
 12 36  1  0
 12 37  1  0
 13 38  1  0
 15 39  1  0
 18 40  1  0
 20 41  1  1
M  ISO  8  27  14  28  14  29  13  30  13  31  13  32  13  33   5  34  13
M  ISO  7  35  13  36  13  37  13  38  14  39  14  40  14  41  13
M  END
>  <minimizedAffinity>  (1) 
-4.69352961

>  <minimizedRMSD>  (1) 
0.334586382

$$$$
