
     RDKit          3D

 40 43  0  0  1  0  0  0  0  0999 V2000
   45.1070   36.0210   43.5050 C   0  0  0  0  0  0  0  0  0  0  0  0
   45.9070   34.8990   43.2850 C   0  0  0  0  0  0  0  0  0  0  0  0
   46.0450   33.9690   44.2710 C   0  0  0  0  0  0  0  0  0  0  0  0
   45.3740   34.2060   45.4400 N   0  0  0  0  0  0  0  0  0  0  0  0
   44.6100   35.2750   45.6560 C   0  0  0  0  0  0  0  0  0  0  0  0
   44.4790   36.1670   44.7040 N   0  0  0  0  0  0  0  0  0  0  0  0
   46.5430   34.8050   42.0490 N   0  0  0  0  0  0  0  0  0  0  0  0
   47.8720   35.2810   41.8460 C   0  0  0  0  0  0  0  0  0  0  0  0
   48.4610   34.9390   40.5010 C   0  0  0  0  0  0  0  0  0  0  0  0
   48.1740   33.6670   40.0310 N   0  0  0  0  0  0  0  0  0  0  0  0
   46.8720   33.2310   40.1900 C   0  0  0  0  0  0  0  0  0  0  0  0
   45.9980   34.2590   40.8710 C   0  0  0  0  0  0  0  0  0  0  0  0
   46.5260   32.0880   45.5990 C   0  0  0  0  0  0  0  0  0  0  0  0
   46.7430   32.7640   44.3760 C   0  0  0  0  0  0  0  0  0  0  0  0
   47.6370   32.0810   43.5880 C   0  0  0  0  0  0  0  0  0  0  0  0
   48.2580   30.9130   43.8930 C   0  0  0  0  0  0  0  0  0  0  0  0
   47.9940   30.3130   45.1160 C   0  0  0  0  0  0  0  0  0  0  0  0
   47.1100   30.9150   45.9830 C   0  0  0  0  0  0  0  0  0  0  0  0
   48.7700   29.1640   45.1240 O   0  0  0  0  0  0  0  0  0  0  0  0
   49.4660   29.0360   43.9110 C   0  0  2  0  0  0  0  0  0  0  0  0
   49.1580   30.1880   43.1410 O   0  0  0  0  0  0  0  0  0  0  0  0
   48.9230   27.9060   43.2440 O   0  0  0  0  0  0  0  0  0  0  0  0
   49.6780   27.0240   42.5170 C   0  0  0  0  0  0  0  0  0  0  0  0
   50.9100   27.3230   42.4260 O   0  0  0  0  0  0  0  0  0  0  0  0
   44.9851   36.7796   42.7178 H   0  0  0  0  0  0  0  0  0  0  0  0
   44.0961   35.4079   46.6194 H   0  0  0  0  0  0  0  0  0  0  0  0
   47.8640   36.3761   41.9489 H   0  0  0  0  0  0  0  0  0  0  0  0
   48.5008   34.7823   42.5983 H   0  0  0  0  0  0  0  0  0  0  0  0
   48.0786   35.6654   39.7688 H   0  0  0  0  0  0  0  0  0  0  0  0
   49.5527   34.9742   40.6311 H   0  0  0  0  0  0  0  0  0  0  0  0
   48.7886   33.0045   40.5252 H   0  0  0  0  0  0  0  0  0  0  0  0
   46.4501   33.0101   39.1984 H   0  0  0  0  0  0  0  0  0  0  0  0
   46.8944   32.3351   40.8279 H   0  0  0  0  0  0  0  0  0  0  0  0
   45.8199   35.0813   40.1623 H   0  0  0  0  0  0  0  0  0  0  0  0
   45.0763   33.7369   41.1673 H   0  0  0  0  0  0  0  0  0  0  0  0
   45.8216   32.5499   46.3064 H   0  0  0  0  0  0  0  0  0  0  0  0
   47.8739   32.5258   42.6102 H   0  0  0  0  0  0  0  0  0  0  0  0
   46.8803   30.4630   46.9592 H   0  0  0  0  0  0  0  0  0  0  0  0
   50.5510   28.9300   44.0580 H   0  0  0  0  0  0  0  0  0  0  0  0
   49.2507   26.1255   42.0478 H   0  0  0  0  0  0  0  0  0  0  0  0
  1  6  2  0
  2  1  1  0
  2  3  2  0
  3 14  1  0
  3  4  1  0
  4  5  2  0
  6  5  1  0
  7  2  1  0
  8  7  1  0
  9  8  1  0
 10 11  1  0
 10  9  1  0
 11 12  1  0
 12  7  1  0
 13 18  2  0
 14 13  1  0
 15 16  1  0
 15 14  2  0
 16 17  2  0
 17 19  1  0
 17 18  1  0
 20 19  1  0
 21 16  1  0
 21 20  1  0
 22 20  1  0
 23 22  1  0
 24 23  2  0
  1 25  1  0
  5 26  1  0
  8 27  1  0
  8 28  1  0
  9 29  1  0
  9 30  1  0
 10 31  1  0
 11 32  1  0
 11 33  1  0
 12 34  1  0
 12 35  1  0
 13 36  1  0
 15 37  1  0
 18 38  1  0
 20 39  1  1
 23 40  1  0
M  ISO  8  25  14  26  14  27  13  28  13  29  13  30  13  31   5  32  13
M  ISO  8  33  13  34  13  35  13  36  14  37  14  38  14  39  13  40   6
M  END
>  <minimizedAffinity>  (1) 
-4.65908003

>  <minimizedRMSD>  (1) 
0.228079915

$$$$
