
     RDKit          3D

 21 22  0  0  0  0  0  0  0  0999 V2000
   45.4510   35.2310   43.5330 C   0  0  0  0  0  0  0  0  0  0  0  0
   46.6620   34.7380   43.0430 C   0  0  0  0  0  0  0  0  0  0  0  0
   47.3190   33.7490   43.8140 C   0  0  0  0  0  0  0  0  0  0  0  0
   46.7220   33.3430   44.9950 N   0  0  0  0  0  0  0  0  0  0  0  0
   45.5600   33.8600   45.4070 C   0  0  0  0  0  0  0  0  0  0  0  0
   44.9190   34.7980   44.6920 N   0  0  0  0  0  0  0  0  0  0  0  0
   47.3520   35.2530   41.8340 C   0  0  0  0  0  0  0  0  0  0  0  0
   48.5550   34.6390   41.3480 C   0  0  0  0  0  0  0  0  0  0  0  0
   47.3120   34.3770   40.5480 C   0  0  0  0  0  0  0  0  0  0  0  0
   43.7400   35.6480   41.8300 C   0  0  0  0  0  0  0  0  0  0  0  0
   43.5680   34.4130   41.5480 O   0  0  0  0  0  0  0  0  0  0  0  0
   44.6450   36.1170   42.7920 N   0  0  0  0  0  0  0  0  0  0  0  0
   48.2751   33.3162   43.4845 H   0  0  0  0  0  0  0  0  0  0  0  0
   45.1198   33.5093   46.3521 H   0  0  0  0  0  0  0  0  0  0  0  0
   47.0839   36.2850   42.1042 H   0  0  0  0  0  0  0  0  0  0  0  0
   49.3475   35.2708   40.9205 H   0  0  0  0  0  0  0  0  0  0  0  0
   49.3059   33.9818   41.8109 H   0  0  0  0  0  0  0  0  0  0  0  0
   47.1738   34.8385   39.5591 H   0  0  0  0  0  0  0  0  0  0  0  0
   46.7567   33.4947   40.1971 H   0  0  0  0  0  0  0  0  0  0  0  0
   43.1396   36.3897   41.2829 H   0  0  0  0  0  0  0  0  0  0  0  0
   44.7222   37.1302   42.9605 H   0  0  0  0  0  0  0  0  0  0  0  0
  1  6  2  0
  2  1  1  0
  2  3  2  0
  3  4  1  0
  4  5  2  0
  6  5  1  0
  7  2  1  0
  8  7  1  0
  9  8  1  0
  9  7  1  0
 10 12  1  0
 11 10  2  0
 12  1  1  0
  3 13  1  0
  5 14  1  0
  7 15  1  0
  8 16  1  0
  8 17  1  0
  9 18  1  0
  9 19  1  0
 10 20  1  0
 12 21  1  0
M  ISO  8  13  14  14  14  15  13  16  13  17  13  18  13  19  13  20   6
M  END
>  <minimizedAffinity>  (1) 
-4.07075071

>  <minimizedRMSD>  (1) 
1.62754083

$$$$
