
     RDKit          3D

 23 24  0  0  0  0  0  0  0  0999 V2000
   45.7000   35.1440   43.4820 C   0  0  0  0  0  0  0  0  0  0  0  0
   46.8200   34.4860   42.9750 C   0  0  0  0  0  0  0  0  0  0  0  0
   47.3820   33.4360   43.7360 C   0  0  0  0  0  0  0  0  0  0  0  0
   46.7980   33.1130   44.9490 N   0  0  0  0  0  0  0  0  0  0  0  0
   45.7240   33.7730   45.4000 C   0  0  0  0  0  0  0  0  0  0  0  0
   45.2010   34.7650   44.6680 N   0  0  0  0  0  0  0  0  0  0  0  0
   47.5090   34.9090   41.7270 C   0  0  0  0  0  0  0  0  0  0  0  0
   48.7260   35.6520   41.7470 C   0  0  0  0  0  0  0  0  0  0  0  0
   48.8510   34.2060   41.3700 C   0  0  0  0  0  0  0  0  0  0  0  0
   44.8510   36.1580   42.8270 C   0  0  0  0  0  0  0  0  0  0  0  0
   43.8520   35.4620   41.8670 C   0  0  0  0  0  0  0  0  0  0  0  0
   48.2637   32.8877   43.3727 H   0  0  0  0  0  0  0  0  0  0  0  0
   45.2737   33.5020   46.3663 H   0  0  0  0  0  0  0  0  0  0  0  0
   46.5359   35.0761   41.2421 H   0  0  0  0  0  0  0  0  0  0  0  0
   48.8975   36.4240   40.9824 H   0  0  0  0  0  0  0  0  0  0  0  0
   49.2143   36.2750   42.5108 H   0  0  0  0  0  0  0  0  0  0  0  0
   49.3076   33.4826   42.0615 H   0  0  0  0  0  0  0  0  0  0  0  0
   49.2549   33.6286   40.5253 H   0  0  0  0  0  0  0  0  0  0  0  0
   44.2932   36.7175   43.5924 H   0  0  0  0  0  0  0  0  0  0  0  0
   45.4859   36.8493   42.2534 H   0  0  0  0  0  0  0  0  0  0  0  0
   43.0889   34.9303   42.4544 H   0  0  0  0  0  0  0  0  0  0  0  0
   43.3658   36.2179   41.2328 H   0  0  0  0  0  0  0  0  0  0  0  0
   44.3926   34.7440   41.2328 H   0  0  0  0  0  0  0  0  0  0  0  0
  1  6  2  0
  2  1  1  0
  2  3  2  0
  3  4  1  0
  4  5  2  0
  6  5  1  0
  7  8  1  0
  7  2  1  0
  9  7  1  0
  9  8  1  0
 10  1  1  0
 11 10  1  0
  3 12  1  0
  5 13  1  0
  7 14  1  0
  8 15  1  0
  8 16  1  0
  9 17  1  0
  9 18  1  0
 10 19  1  0
 10 20  1  0
 11 21  1  0
 11 22  1  0
 11 23  1  0
M  ISO  8  12  14  13  14  14  13  15  13  16  13  17  13  18  13  19   8
M  ISO  4  20   8  21   8  22   8  23   8
M  END
>  <minimizedAffinity>  (1) 
-4.01085186

>  <minimizedRMSD>  (1) 
1.14349663

$$$$
