
     RDKit          3D

 24 26  0  0  0  0  0  0  0  0999 V2000
   45.6420   34.7390   43.5370 C   0  0  0  0  0  0  0  0  0  0  0  0
   46.8600   34.0650   43.3830 C   0  0  0  0  0  0  0  0  0  0  0  0
   47.3520   33.3160   44.4290 C   0  0  0  0  0  0  0  0  0  0  0  0
   46.5960   33.2750   45.5870 N   0  0  0  0  0  0  0  0  0  0  0  0
   45.4300   33.9250   45.7130 C   0  0  0  0  0  0  0  0  0  0  0  0
   44.9480   34.6680   44.6710 N   0  0  0  0  0  0  0  0  0  0  0  0
   47.7120   34.1340   42.1670 C   0  0  0  0  0  0  0  0  0  0  0  0
   48.2450   35.3630   41.6990 C   0  0  0  0  0  0  0  0  0  0  0  0
   49.2130   34.3940   42.3300 C   0  0  0  0  0  0  0  0  0  0  0  0
   45.0180   35.5980   42.4850 C   0  0  0  0  0  0  0  0  0  0  0  0
   44.4980   34.9660   41.2160 C   0  0  0  0  0  0  0  0  0  0  0  0
   43.5230   35.3690   42.2580 C   0  0  0  0  0  0  0  0  0  0  0  0
   48.3054   32.7735   44.3472 H   0  0  0  0  0  0  0  0  0  0  0  0
   44.8621   33.8607   46.6529 H   0  0  0  0  0  0  0  0  0  0  0  0
   47.0950   33.3535   41.6979 H   0  0  0  0  0  0  0  0  0  0  0  0
   48.2974   35.5533   40.6169 H   0  0  0  0  0  0  0  0  0  0  0  0
   47.9969   36.4184   41.8851 H   0  0  0  0  0  0  0  0  0  0  0  0
   49.6436   34.5959   43.3219 H   0  0  0  0  0  0  0  0  0  0  0  0
   50.1499   33.8941   42.0430 H   0  0  0  0  0  0  0  0  0  0  0  0
   45.6879   36.4446   42.6961 H   0  0  0  0  0  0  0  0  0  0  0  0
   44.6809   33.8986   41.0230 H   0  0  0  0  0  0  0  0  0  0  0  0
   44.6131   35.1854   40.1443 H   0  0  0  0  0  0  0  0  0  0  0  0
   42.8558   36.2262   42.0843 H   0  0  0  0  0  0  0  0  0  0  0  0
   42.7224   34.8574   42.8124 H   0  0  0  0  0  0  0  0  0  0  0  0
  1  6  2  0
  2  1  1  0
  2  3  2  0
  3  4  1  0
  4  5  2  0
  6  5  1  0
  7  9  1  0
  7  2  1  0
  8  7  1  0
  8  9  1  0
 10  1  1  0
 11 12  1  0
 11 10  1  0
 12 10  1  0
  3 13  1  0
  5 14  1  0
  7 15  1  0
  8 16  1  0
  8 17  1  0
  9 18  1  0
  9 19  1  0
 10 20  1  0
 11 21  1  0
 11 22  1  0
 12 23  1  0
 12 24  1  0
M  ISO  8  13  14  14  14  15  13  16  13  17  13  18  13  19  13  20  13
M  ISO  4  21  13  22  13  23  13  24  13
M  END
>  <minimizedAffinity>  (1) 
-3.9342463

>  <minimizedRMSD>  (1) 
1.5450263

$$$$
