
     RDKit          3D

 19 20  0  0  0  0  0  0  0  0999 V2000
   46.2590   34.5180   43.6370 C   0  0  0  0  0  0  0  0  0  0  0  0
   47.3960   33.9000   43.1890 C   0  0  0  0  0  0  0  0  0  0  0  0
   47.7910   32.7500   43.8540 C   0  0  0  0  0  0  0  0  0  0  0  0
   47.0150   32.3170   44.9090 N   0  0  0  0  0  0  0  0  0  0  0  0
   45.9190   32.9500   45.3060 C   0  0  0  0  0  0  0  0  0  0  0  0
   45.5140   34.0810   44.6660 N   0  0  0  0  0  0  0  0  0  0  0  0
   48.1730   34.3940   42.0920 C   0  0  0  0  0  0  0  0  0  0  0  0
   48.5930   35.6860   41.8120 C   0  0  0  0  0  0  0  0  0  0  0  0
   49.6540   34.6990   42.2470 C   0  0  0  0  0  0  0  0  0  0  0  0
   45.6170   35.6860   43.0940 C   0  0  0  0  0  0  0  0  0  0  0  0
   45.1210   36.8020   43.0050 O   0  0  0  0  0  0  0  0  0  0  0  0
   48.6941   32.2003   43.5503 H   0  0  0  0  0  0  0  0  0  0  0  0
   45.3365   32.5603   46.1538 H   0  0  0  0  0  0  0  0  0  0  0  0
   47.5348   33.7101   41.5133 H   0  0  0  0  0  0  0  0  0  0  0  0
   48.5817   36.0456   40.7725 H   0  0  0  0  0  0  0  0  0  0  0  0
   48.2862   36.6791   42.1720 H   0  0  0  0  0  0  0  0  0  0  0  0
   50.1152   34.7681   43.2433 H   0  0  0  0  0  0  0  0  0  0  0  0
   50.6055   34.3094   41.8560 H   0  0  0  0  0  0  0  0  0  0  0  0
   45.4774   35.3462   42.0571 H   0  0  0  0  0  0  0  0  0  0  0  0
  1  6  2  0
  2  1  1  0
  2  3  2  0
  3  4  1  0
  4  5  2  0
  6  5  1  0
  7  9  1  0
  7  2  1  0
  8  7  1  0
  8  9  1  0
 10  1  1  0
 11 10  2  0
  3 12  1  0
  5 13  1  0
  7 14  1  0
  8 15  1  0
  8 16  1  0
  9 17  1  0
  9 18  1  0
 10 19  1  0
M  ISO  8  12  14  13  14  14  13  15  13  16  13  17  13  18  13  19   6
M  END
>  <minimizedAffinity>  (1) 
-3.55112481

>  <minimizedRMSD>  (1) 
1.35063756

$$$$
