
     RDKit          3D

 35 38  0  0  0  0  0  0  0  0999 V2000
   46.3250   34.1420   43.1380 C   0  0  0  0  0  0  0  0  0  0  0  0
   47.5660   33.6940   42.8230 C   0  0  0  0  0  0  0  0  0  0  0  0
   47.9780   32.5500   43.5070 C   0  0  0  0  0  0  0  0  0  0  0  0
   47.1060   31.9820   44.4320 N   0  0  0  0  0  0  0  0  0  0  0  0
   45.9170   32.4860   44.6820 C   0  0  0  0  0  0  0  0  0  0  0  0
   45.4620   33.6140   44.0310 N   0  0  0  0  0  0  0  0  0  0  0  0
   48.4820   34.3430   41.9500 C   0  0  0  0  0  0  0  0  0  0  0  0
   48.7030   35.6640   41.7520 C   0  0  0  0  0  0  0  0  0  0  0  0
   49.7930   34.9990   42.5720 C   0  0  0  0  0  0  0  0  0  0  0  0
   45.5940   35.2310   42.4860 C   0  0  0  0  0  0  0  0  0  0  0  0
   45.2730   36.4090   42.4450 O   0  0  0  0  0  0  0  0  0  0  0  0
   44.9150   34.6030   41.3080 C   0  0  0  0  0  0  0  0  0  0  0  0
   45.6410   33.8540   40.3700 C   0  0  0  0  0  0  0  0  0  0  0  0
   45.1040   33.2110   39.2780 C   0  0  0  0  0  0  0  0  0  0  0  0
   43.7550   33.3160   39.1010 C   0  0  0  0  0  0  0  0  0  0  0  0
   42.9890   34.0310   39.9770 C   0  0  0  0  0  0  0  0  0  0  0  0
   41.6390   34.1220   39.7620 C   0  0  0  0  0  0  0  0  0  0  0  0
   40.8150   34.8330   40.6030 C   0  0  0  0  0  0  0  0  0  0  0  0
   41.4150   35.4690   41.6970 C   0  0  0  0  0  0  0  0  0  0  0  0
   42.7650   35.3540   41.8750 C   0  0  0  0  0  0  0  0  0  0  0  0
   43.5930   34.6500   41.0490 C   0  0  0  0  0  0  0  0  0  0  0  0
   48.9676   32.1075   43.3201 H   0  0  0  0  0  0  0  0  0  0  0  0
   45.2713   31.9973   45.4265 H   0  0  0  0  0  0  0  0  0  0  0  0
   48.1949   33.5621   41.2304 H   0  0  0  0  0  0  0  0  0  0  0  0
   48.9431   36.0142   40.7373 H   0  0  0  0  0  0  0  0  0  0  0  0
   48.0782   36.5491   41.9425 H   0  0  0  0  0  0  0  0  0  0  0  0
   49.8850   35.1782   43.6534 H   0  0  0  0  0  0  0  0  0  0  0  0
   50.8832   34.8576   42.5330 H   0  0  0  0  0  0  0  0  0  0  0  0
   46.7279   33.7741   40.5194 H   0  0  0  0  0  0  0  0  0  0  0  0
   45.7331   32.6389   38.5802 H   0  0  0  0  0  0  0  0  0  0  0  0
   43.2790   32.8190   38.2428 H   0  0  0  0  0  0  0  0  0  0  0  0
   41.2013   33.6116   38.8914 H   0  0  0  0  0  0  0  0  0  0  0  0
   39.7317   34.8992   40.4241 H   0  0  0  0  0  0  0  0  0  0  0  0
   40.8076   36.0534   42.4037 H   0  0  0  0  0  0  0  0  0  0  0  0
   43.2141   35.8622   42.7410 H   0  0  0  0  0  0  0  0  0  0  0  0
  1  6  2  0
  2  1  1  0
  2  3  2  0
  3  4  1  0
  4  5  2  0
  6  5  1  0
  7  9  1  0
  7  2  1  0
  8  7  1  0
  8  9  1  0
 10  1  1  0
 11 10  2  0
 12 10  1  0
 13 12  2  0
 14 13  1  0
 15 14  2  0
 15 16  1  0
 16 21  2  0
 17 16  1  0
 17 18  2  0
 18 19  1  0
 19 20  2  0
 21 12  1  0
 21 20  1  0
  3 22  1  0
  5 23  1  0
  7 24  1  0
  8 25  1  0
  8 26  1  0
  9 27  1  0
  9 28  1  0
 13 29  1  0
 14 30  1  0
 15 31  1  0
 17 32  1  0
 18 33  1  0
 19 34  1  0
 20 35  1  0
M  ISO  8  22  14  23  14  24  13  25  13  26  13  27  13  28  13  29  14
M  ISO  6  30  14  31  14  32  14  33  14  34  14  35  14
M  END
>  <minimizedAffinity>  (1) 
-5.46611595

>  <minimizedRMSD>  (1) 
0.676815689

$$$$
