
     RDKit          3D

 32 34  0  0  0  0  0  0  0  0999 V2000
   46.1910   34.4510   43.8320 C   0  0  0  0  0  0  0  0  0  0  0  0
   47.2730   33.8220   43.3060 C   0  0  0  0  0  0  0  0  0  0  0  0
   47.7280   32.7270   44.0250 C   0  0  0  0  0  0  0  0  0  0  0  0
   47.0500   32.3800   45.1950 N   0  0  0  0  0  0  0  0  0  0  0  0
   46.0030   33.0390   45.6480 C   0  0  0  0  0  0  0  0  0  0  0  0
   45.5200   34.1320   44.9640 N   0  0  0  0  0  0  0  0  0  0  0  0
   45.4490   35.5520   43.2520 C   0  0  0  0  0  0  0  0  0  0  0  0
   45.1110   36.6870   43.0550 O   0  0  0  0  0  0  0  0  0  0  0  0
   44.4740   35.0750   42.2790 N   0  0  0  0  0  0  0  0  0  0  0  0
   44.2290   33.6690   42.3620 C   0  0  0  0  0  0  0  0  0  0  0  0
   43.2800   33.1560   41.3190 C   0  0  0  0  0  0  0  0  0  0  0  0
   42.1390   33.8950   41.1880 O   0  0  0  0  0  0  0  0  0  0  0  0
   42.2350   35.2350   41.4360 C   0  0  0  0  0  0  0  0  0  0  0  0
   43.6620   35.6420   41.2220 C   0  0  0  0  0  0  0  0  0  0  0  0
   48.0020   34.2170   42.1590 C   0  0  0  0  0  0  0  0  0  0  0  0
   48.3270   35.4470   41.6920 C   0  0  0  0  0  0  0  0  0  0  0  0
   49.4980   34.7110   42.3450 C   0  0  0  0  0  0  0  0  0  0  0  0
   48.5986   32.1481   43.6831 H   0  0  0  0  0  0  0  0  0  0  0  0
   45.5122   32.7144   46.5774 H   0  0  0  0  0  0  0  0  0  0  0  0
   45.1880   33.1427   42.2469 H   0  0  0  0  0  0  0  0  0  0  0  0
   43.7607   33.4830   43.3398 H   0  0  0  0  0  0  0  0  0  0  0  0
   43.8014   33.1519   40.3504 H   0  0  0  0  0  0  0  0  0  0  0  0
   42.9702   32.1507   41.6407 H   0  0  0  0  0  0  0  0  0  0  0  0
   41.5807   35.7903   40.7478 H   0  0  0  0  0  0  0  0  0  0  0  0
   41.9237   35.4571   42.4674 H   0  0  0  0  0  0  0  0  0  0  0  0
   44.0105   35.2687   40.2477 H   0  0  0  0  0  0  0  0  0  0  0  0
   43.7434   36.7389   41.2365 H   0  0  0  0  0  0  0  0  0  0  0  0
   47.4335   33.4168   41.6626 H   0  0  0  0  0  0  0  0  0  0  0  0
   48.3447   35.6151   40.6051 H   0  0  0  0  0  0  0  0  0  0  0  0
   47.8909   36.4417   41.8663 H   0  0  0  0  0  0  0  0  0  0  0  0
   49.8832   35.0100   43.3310 H   0  0  0  0  0  0  0  0  0  0  0  0
   50.5137   34.3808   42.0817 H   0  0  0  0  0  0  0  0  0  0  0  0
  1  6  2  0
  2  1  1  0
  2  3  2  0
  3  4  1  0
  4  5  2  0
  6  5  1  0
  7  1  1  0
  8  7  2  0
  9 10  1  0
  9  7  1  0
 11 10  1  0
 12 11  1  0
 12 13  1  0
 14 13  1  0
 14  9  1  0
 15 17  1  0
 15  2  1  0
 16 15  1  0
 16 17  1  0
  3 18  1  0
  5 19  1  0
 10 20  1  0
 10 21  1  0
 11 22  1  0
 11 23  1  0
 13 24  1  0
 13 25  1  0
 14 26  1  0
 14 27  1  0
 15 28  1  0
 16 29  1  0
 16 30  1  0
 17 31  1  0
 17 32  1  0
M  ISO  8  18  14  19  14  20  13  21  13  22  13  23  13  24  13  25  13
M  ISO  7  26  13  27  13  28  13  29  13  30  13  31  13  32  13
M  END
>  <minimizedAffinity>  (1) 
-5.04768038

>  <minimizedRMSD>  (1) 
0.925893426

$$$$
