
     RDKit          3D

 35 37  0  0  0  0  0  0  0  0999 V2000
   46.2130   34.4360   43.7270 C   0  0  0  0  0  0  0  0  0  0  0  0
   47.3300   33.8370   43.2460 C   0  0  0  0  0  0  0  0  0  0  0  0
   47.7900   32.7620   43.9850 C   0  0  0  0  0  0  0  0  0  0  0  0
   47.0930   32.3930   45.1270 N   0  0  0  0  0  0  0  0  0  0  0  0
   45.9960   33.0260   45.5510 C   0  0  0  0  0  0  0  0  0  0  0  0
   45.5130   34.1010   44.8360 N   0  0  0  0  0  0  0  0  0  0  0  0
   48.0780   34.2550   42.1200 C   0  0  0  0  0  0  0  0  0  0  0  0
   48.4540   35.4930   41.7110 C   0  0  0  0  0  0  0  0  0  0  0  0
   49.5940   34.6840   42.3180 C   0  0  0  0  0  0  0  0  0  0  0  0
   45.4640   35.5130   43.1110 C   0  0  0  0  0  0  0  0  0  0  0  0
   45.0420   36.6340   42.9950 O   0  0  0  0  0  0  0  0  0  0  0  0
   44.8040   34.9250   41.8880 C   0  0  0  0  0  0  0  0  0  0  0  0
   43.7380   35.7830   41.3150 C   0  0  0  0  0  0  0  0  0  0  0  0
   42.3530   35.2460   41.6080 C   0  0  0  0  0  0  0  0  0  0  0  0
   42.1580   33.8550   41.0560 C   0  0  0  0  0  0  0  0  0  0  0  0
   43.3450   32.9640   41.3160 C   0  0  0  0  0  0  0  0  0  0  0  0
   44.2040   33.5940   42.3610 C   0  0  0  0  0  0  0  0  0  0  0  0
   48.6897   32.2109   43.6739 H   0  0  0  0  0  0  0  0  0  0  0  0
   45.4817   32.6919   46.4642 H   0  0  0  0  0  0  0  0  0  0  0  0
   47.4785   33.4987   41.5922 H   0  0  0  0  0  0  0  0  0  0  0  0
   48.4741   35.7127   40.6333 H   0  0  0  0  0  0  0  0  0  0  0  0
   48.0598   36.4949   41.9366 H   0  0  0  0  0  0  0  0  0  0  0  0
   49.9957   34.9207   43.3143 H   0  0  0  0  0  0  0  0  0  0  0  0
   50.5946   34.3280   42.0317 H   0  0  0  0  0  0  0  0  0  0  0  0
   45.5440   34.8141   41.0817 H   0  0  0  0  0  0  0  0  0  0  0  0
   43.8740   35.8365   40.2247 H   0  0  0  0  0  0  0  0  0  0  0  0
   43.8196   36.7776   41.7777 H   0  0  0  0  0  0  0  0  0  0  0  0
   42.2054   35.2196   42.6977 H   0  0  0  0  0  0  0  0  0  0  0  0
   41.6216   35.9096   41.1236 H   0  0  0  0  0  0  0  0  0  0  0  0
   41.9994   33.9247   39.9697 H   0  0  0  0  0  0  0  0  0  0  0  0
   41.2877   33.4116   41.5619 H   0  0  0  0  0  0  0  0  0  0  0  0
   42.9985   31.9806   41.6667 H   0  0  0  0  0  0  0  0  0  0  0  0
   43.9223   32.8331   40.3889 H   0  0  0  0  0  0  0  0  0  0  0  0
   45.0235   32.9039   42.6102 H   0  0  0  0  0  0  0  0  0  0  0  0
   43.5745   33.7988   43.2395 H   0  0  0  0  0  0  0  0  0  0  0  0
  1  6  2  0
  2  1  1  0
  2  3  2  0
  3  4  1  0
  4  5  2  0
  6  5  1  0
  7  9  1  0
  7  2  1  0
  8  7  1  0
  8  9  1  0
 10  1  1  0
 11 10  2  0
 12 17  1  0
 12 10  1  0
 13 14  1  0
 13 12  1  0
 15 16  1  0
 15 14  1  0
 16 17  1  0
  3 18  1  0
  5 19  1  0
  7 20  1  0
  8 21  1  0
  8 22  1  0
  9 23  1  0
  9 24  1  0
 12 25  1  0
 13 26  1  0
 13 27  1  0
 14 28  1  0
 14 29  1  0
 15 30  1  0
 15 31  1  0
 16 32  1  0
 16 33  1  0
 17 34  1  0
 17 35  1  0
M  ISO  8  18  14  19  14  20  13  21  13  22  13  23  13  24  13  25  13
M  ISO  8  26  13  27  13  28  13  29  13  30  13  31  13  32  13  33  13
M  ISO  2  34  13  35  13
M  END
>  <minimizedAffinity>  (1) 
-4.93728065

>  <minimizedRMSD>  (1) 
0.519927204

$$$$
