
     RDKit          3D

 32 34  0  0  0  0  0  0  0  0999 V2000
   44.7900   33.0730   41.1660 Cl  0  0  0  0  0  0  0  0  0  0  0  0
   46.3110   33.9080   40.9190 C   0  0  0  0  0  0  0  0  0  0  0  0
   46.8260   34.6980   41.9150 C   0  0  0  0  0  0  0  0  0  0  0  0
   48.0410   35.3830   41.7590 C   0  0  0  0  0  0  0  0  0  0  0  0
   48.6760   35.2150   40.5530 C   0  0  0  0  0  0  0  0  0  0  0  0
   48.1600   34.4260   39.5620 C   0  0  0  0  0  0  0  0  0  0  0  0
   46.9850   33.7670   39.7200 C   0  0  0  0  0  0  0  0  0  0  0  0
   45.5960   34.0560   45.3330 C   0  0  0  0  0  0  0  0  0  0  0  0
   44.7100   35.1230   45.5350 C   0  0  0  0  0  0  0  0  0  0  0  0
   44.5410   36.0450   44.5140 C   0  0  0  0  0  0  0  0  0  0  0  0
   45.2420   35.8740   43.3610 N   0  0  0  0  0  0  0  0  0  0  0  0
   46.0940   34.8350   43.1830 C   0  0  0  0  0  0  0  0  0  0  0  0
   46.2630   33.9350   44.1700 N   0  0  0  0  0  0  0  0  0  0  0  0
   46.3950   32.9330   38.7310 N   0  0  0  0  0  0  0  0  0  0  0  0
   45.4050   33.2340   37.7020 C   0  0  0  0  0  0  0  0  0  0  0  0
   44.7260   31.9010   37.4770 C   0  0  0  0  0  0  0  0  0  0  0  0
   45.9330   30.9820   37.4760 C   0  0  0  0  0  0  0  0  0  0  0  0
   46.7480   31.5300   38.6200 C   0  0  0  0  0  0  0  0  0  0  0  0
   48.4595   36.0164   42.5550 H   0  0  0  0  0  0  0  0  0  0  0  0
   49.6311   35.7320   40.3782 H   0  0  0  0  0  0  0  0  0  0  0  0
   48.7105   34.3235   38.6152 H   0  0  0  0  0  0  0  0  0  0  0  0
   45.7473   33.3128   46.1297 H   0  0  0  0  0  0  0  0  0  0  0  0
   44.1610   35.2264   46.4826 H   0  0  0  0  0  0  0  0  0  0  0  0
   43.8549   36.8965   44.6336 H   0  0  0  0  0  0  0  0  0  0  0  0
   44.6863   33.9885   38.0544 H   0  0  0  0  0  0  0  0  0  0  0  0
   45.8475   33.6533   36.7864 H   0  0  0  0  0  0  0  0  0  0  0  0
   44.0284   31.6565   38.2916 H   0  0  0  0  0  0  0  0  0  0  0  0
   44.1040   31.8469   36.5713 H   0  0  0  0  0  0  0  0  0  0  0  0
   45.6399   29.9377   37.6588 H   0  0  0  0  0  0  0  0  0  0  0  0
   46.4729   30.9615   36.5178 H   0  0  0  0  0  0  0  0  0  0  0  0
   46.5023   30.9998   39.5519 H   0  0  0  0  0  0  0  0  0  0  0  0
   47.8259   31.4000   38.4435 H   0  0  0  0  0  0  0  0  0  0  0  0
  2  1  1  0
  2  3  2  0
  3 12  1  0
  4  3  1  0
  5  4  2  0
  6  7  2  0
  6  5  1  0
  7  2  1  0
  8  9  2  0
 10  9  1  0
 11 10  2  0
 12 11  1  0
 12 13  2  0
 13  8  1  0
 14  7  1  0
 15 14  1  0
 16 15  1  0
 17 16  1  0
 17 18  1  0
 18 14  1  0
  4 19  1  0
  5 20  1  0
  6 21  1  0
  8 22  1  0
  9 23  1  0
 10 24  1  0
 15 25  1  0
 15 26  1  0
 16 27  1  0
 16 28  1  0
 17 29  1  0
 17 30  1  0
 18 31  1  0
 18 32  1  0
M  ISO  8  19  14  20  14  21  14  22  14  23  14  24  14  25  13  26  13
M  ISO  6  27  13  28  13  29  13  30  13  31  13  32  13
M  END
>  <minimizedAffinity>  (1) 
-5.21687078

>  <minimizedRMSD>  (1) 
0.461979479

$$$$
