
     RDKit          3D

 31 33  0  0  0  0  0  0  0  0999 V2000
   46.2480   34.3830   43.6400 C   0  0  0  0  0  0  0  0  0  0  0  0
   47.4200   33.8290   43.2350 C   0  0  0  0  0  0  0  0  0  0  0  0
   47.8560   32.7520   43.9870 C   0  0  0  0  0  0  0  0  0  0  0  0
   47.0890   32.3400   45.0540 N   0  0  0  0  0  0  0  0  0  0  0  0
   45.9390   32.9230   45.4090 C   0  0  0  0  0  0  0  0  0  0  0  0
   45.4760   33.9970   44.6820 N   0  0  0  0  0  0  0  0  0  0  0  0
   48.2420   34.3020   42.1800 C   0  0  0  0  0  0  0  0  0  0  0  0
   48.5130   35.5610   41.7620 C   0  0  0  0  0  0  0  0  0  0  0  0
   49.6650   34.9130   42.5270 C   0  0  0  0  0  0  0  0  0  0  0  0
   45.5180   35.4570   42.9860 C   0  0  0  0  0  0  0  0  0  0  0  0
   45.2040   36.5940   42.7540 O   0  0  0  0  0  0  0  0  0  0  0  0
   44.5320   35.1090   41.9710 N   0  0  0  0  0  0  0  0  0  0  0  0
   44.9450   34.3830   40.7840 C   0  0  0  0  0  0  0  0  0  0  0  0
   43.6500   34.0520   40.1080 C   0  0  0  0  0  0  0  0  0  0  0  0
   42.7750   35.2100   40.4860 C   0  0  0  0  0  0  0  0  0  0  0  0
   43.1210   35.3890   41.9560 C   0  0  0  0  0  0  0  0  0  0  0  0
   48.7950   32.2362   43.7377 H   0  0  0  0  0  0  0  0  0  0  0  0
   45.3692   32.5487   46.2723 H   0  0  0  0  0  0  0  0  0  0  0  0
   47.8000   33.4636   41.6216 H   0  0  0  0  0  0  0  0  0  0  0  0
   48.6303   35.7491   40.6846 H   0  0  0  0  0  0  0  0  0  0  0  0
   47.9808   36.5139   41.8988 H   0  0  0  0  0  0  0  0  0  0  0  0
   49.9192   35.2253   43.5506 H   0  0  0  0  0  0  0  0  0  0  0  0
   50.7265   34.6713   42.3693 H   0  0  0  0  0  0  0  0  0  0  0  0
   45.5761   35.0115   40.1384 H   0  0  0  0  0  0  0  0  0  0  0  0
   45.5476   33.4922   41.0148 H   0  0  0  0  0  0  0  0  0  0  0  0
   43.2375   33.1040   40.4837 H   0  0  0  0  0  0  0  0  0  0  0  0
   43.7476   33.9154   39.0209 H   0  0  0  0  0  0  0  0  0  0  0  0
   43.0246   36.1086   39.9028 H   0  0  0  0  0  0  0  0  0  0  0  0
   41.7046   35.0423   40.2958 H   0  0  0  0  0  0  0  0  0  0  0  0
   42.9143   36.4157   42.2925 H   0  0  0  0  0  0  0  0  0  0  0  0
   42.5355   34.7459   42.6295 H   0  0  0  0  0  0  0  0  0  0  0  0
  1  6  2  0
  2  1  1  0
  2  3  2  0
  3  4  1  0
  4  5  2  0
  6  5  1  0
  7  9  1  0
  7  2  1  0
  8  7  1  0
  8  9  1  0
 10  1  1  0
 11 10  2  0
 12 10  1  0
 13 12  1  0
 14 15  1  0
 14 13  1  0
 15 16  1  0
 16 12  1  0
  3 17  1  0
  5 18  1  0
  7 19  1  0
  8 20  1  0
  8 21  1  0
  9 22  1  0
  9 23  1  0
 13 24  1  0
 13 25  1  0
 14 26  1  0
 14 27  1  0
 15 28  1  0
 15 29  1  0
 16 30  1  0
 16 31  1  0
M  ISO  8  17  14  18  14  19  13  20  13  21  13  22  13  23  13  24  13
M  ISO  7  25  13  26  13  27  13  28  13  29  13  30  13  31  13
M  END
>  <minimizedAffinity>  (1) 
-4.83072805

>  <minimizedRMSD>  (1) 
0.710248947

$$$$
