
     RDKit          3D

 26 28  0  0  0  0  0  0  0  0999 V2000
   46.0930   34.5800   43.8230 C   0  0  0  0  0  0  0  0  0  0  0  0
   47.1800   33.9350   43.2920 C   0  0  0  0  0  0  0  0  0  0  0  0
   47.6160   32.8280   44.0060 C   0  0  0  0  0  0  0  0  0  0  0  0
   46.9310   32.4790   45.1690 N   0  0  0  0  0  0  0  0  0  0  0  0
   45.8880   33.1530   45.6220 C   0  0  0  0  0  0  0  0  0  0  0  0
   45.4310   34.2370   44.9550 N   0  0  0  0  0  0  0  0  0  0  0  0
   47.9190   34.3470   42.1510 C   0  0  0  0  0  0  0  0  0  0  0  0
   48.3860   35.5730   41.8030 C   0  0  0  0  0  0  0  0  0  0  0  0
   49.4730   34.6350   42.3220 C   0  0  0  0  0  0  0  0  0  0  0  0
   45.3670   35.6910   43.1890 C   0  0  0  0  0  0  0  0  0  0  0  0
   45.2030   36.9160   43.1170 O   0  0  0  0  0  0  0  0  0  0  0  0
   44.3840   34.9620   42.1650 C   0  0  0  0  0  0  0  0  0  0  0  0
   43.6950   35.6180   41.3030 C   0  0  0  0  0  0  0  0  0  0  0  0
   42.8530   34.9740   40.4300 C   0  0  0  0  0  0  0  0  0  0  0  0
   42.7950   33.6060   40.5350 C   0  0  0  0  0  0  0  0  0  0  0  0
   44.0140   33.3010   41.9530 S   0  0  0  0  0  0  0  0  0  0  0  0
   48.4804   32.2405   43.6630 H   0  0  0  0  0  0  0  0  0  0  0  0
   45.3886   32.8301   46.5474 H   0  0  0  0  0  0  0  0  0  0  0  0
   47.2432   33.6771   41.5991 H   0  0  0  0  0  0  0  0  0  0  0  0
   48.3926   35.8565   40.7402 H   0  0  0  0  0  0  0  0  0  0  0  0
   48.0848   36.5881   42.1010 H   0  0  0  0  0  0  0  0  0  0  0  0
   49.9225   34.7753   43.3161 H   0  0  0  0  0  0  0  0  0  0  0  0
   50.4310   34.2156   41.9808 H   0  0  0  0  0  0  0  0  0  0  0  0
   43.7805   36.7139   41.2630 H   0  0  0  0  0  0  0  0  0  0  0  0
   42.2572   35.5242   39.6868 H   0  0  0  0  0  0  0  0  0  0  0  0
   42.2023   32.8840   39.9541 H   0  0  0  0  0  0  0  0  0  0  0  0
  1  6  2  0
  2  1  1  0
  2  3  2  0
  3  4  1  0
  4  5  2  0
  6  5  1  0
  7  9  1  0
  7  2  1  0
  8  7  1  0
  8  9  1  0
 10  1  1  0
 11 10  2  0
 12 10  1  0
 13 12  2  0
 14 15  2  0
 14 13  1  0
 15 16  1  0
 16 12  1  0
  3 17  1  0
  5 18  1  0
  7 19  1  0
  8 20  1  0
  8 21  1  0
  9 22  1  0
  9 23  1  0
 13 24  1  0
 14 25  1  0
 15 26  1  0
M  ISO  8  17  14  18  14  19  13  20  13  21  13  22  13  23  13  24  14
M  ISO  2  25  14  26  14
M  END
>  <minimizedAffinity>  (1) 
-4.78109455

>  <minimizedRMSD>  (1) 
1.09892941

$$$$
