
     RDKit          3D

 26 27  0  0  0  0  0  0  0  0999 V2000
   44.9900   33.2040   41.0900 Cl  0  0  0  0  0  0  0  0  0  0  0  0
   46.4940   34.0770   40.9530 C   0  0  0  0  0  0  0  0  0  0  0  0
   46.9680   34.8070   42.0170 C   0  0  0  0  0  0  0  0  0  0  0  0
   48.1790   35.5160   41.9440 C   0  0  0  0  0  0  0  0  0  0  0  0
   48.8550   35.4260   40.7390 C   0  0  0  0  0  0  0  0  0  0  0  0
   48.3820   34.7010   39.6880 C   0  0  0  0  0  0  0  0  0  0  0  0
   47.1980   34.0160   39.7760 C   0  0  0  0  0  0  0  0  0  0  0  0
   45.6550   33.9860   45.3470 C   0  0  0  0  0  0  0  0  0  0  0  0
   44.7190   34.9950   45.5800 C   0  0  0  0  0  0  0  0  0  0  0  0
   44.5460   35.9610   44.5780 C   0  0  0  0  0  0  0  0  0  0  0  0
   45.2950   35.8580   43.4490 N   0  0  0  0  0  0  0  0  0  0  0  0
   46.1980   34.8570   43.2610 C   0  0  0  0  0  0  0  0  0  0  0  0
   46.3770   33.9220   44.2120 N   0  0  0  0  0  0  0  0  0  0  0  0
   46.6890   33.2230   38.6230 C   0  0  0  0  0  0  0  0  0  0  0  0
   47.2700   33.6500   37.3040 C   0  0  0  0  0  0  0  0  0  0  0  0
   48.5650   36.1044   42.7895 H   0  0  0  0  0  0  0  0  0  0  0  0
   49.8100   35.9602   40.6265 H   0  0  0  0  0  0  0  0  0  0  0  0
   48.9597   34.6644   38.7526 H   0  0  0  0  0  0  0  0  0  0  0  0
   45.8083   33.2161   46.1176 H   0  0  0  0  0  0  0  0  0  0  0  0
   44.1391   35.0311   46.5140 H   0  0  0  0  0  0  0  0  0  0  0  0
   43.8229   36.7805   44.7028 H   0  0  0  0  0  0  0  0  0  0  0  0
   46.9403   32.1650   38.7890 H   0  0  0  0  0  0  0  0  0  0  0  0
   45.6028   33.3878   38.5688 H   0  0  0  0  0  0  0  0  0  0  0  0
   48.1450   34.2931   37.4797 H   0  0  0  0  0  0  0  0  0  0  0  0
   47.5770   32.7610   36.7335 H   0  0  0  0  0  0  0  0  0  0  0  0
   46.5132   34.2084   36.7335 H   0  0  0  0  0  0  0  0  0  0  0  0
  2  1  1  0
  2  3  2  0
  3 12  1  0
  4  3  1  0
  5  4  2  0
  6  7  2  0
  6  5  1  0
  7  2  1  0
  8  9  2  0
 10  9  1  0
 11 10  2  0
 12 11  1  0
 12 13  2  0
 13  8  1  0
 14  7  1  0
 15 14  1  0
  4 16  1  0
  5 17  1  0
  6 18  1  0
  8 19  1  0
  9 20  1  0
 10 21  1  0
 14 22  1  0
 14 23  1  0
 15 24  1  0
 15 25  1  0
 15 26  1  0
M  ISO  8  16  14  17  14  18  14  19  14  20  14  21  14  22   8  23   8
M  ISO  3  24   8  25   8  26   8
M  END
>  <minimizedAffinity>  (1) 
-5.14969921

>  <minimizedRMSD>  (1) 
0.645998776

$$$$
