
     RDKit          3D

 43 46  0  0  0  0  0  0  0  0999 V2000
   44.5150   31.8610   42.8020 Cl  0  0  0  0  0  0  0  0  0  0  0  0
   44.5740   33.6180   42.7500 C   0  0  0  0  0  0  0  0  0  0  0  0
   45.4440   34.2200   43.6810 C   0  0  0  0  0  0  0  0  0  0  0  0
   45.4190   35.5980   43.5400 C   0  0  0  0  0  0  0  0  0  0  0  0
   44.7230   36.3650   42.6890 C   0  0  0  0  0  0  0  0  0  0  0  0
   43.9130   35.7040   41.8310 C   0  0  0  0  0  0  0  0  0  0  0  0
   43.8110   34.3350   41.8300 C   0  0  0  0  0  0  0  0  0  0  0  0
   42.9370   33.5500   40.9120 C   0  0  0  0  0  0  0  0  0  0  0  0
   41.4840   33.6230   41.2340 C   0  0  0  0  0  0  0  0  0  0  0  0
   40.6570   34.2150   40.0870 C   0  0  0  0  0  0  0  0  0  0  0  0
   41.3540   35.3400   39.6770 O   0  0  0  0  0  0  0  0  0  0  0  0
   42.3270   34.8420   38.8030 C   0  0  0  0  0  0  0  0  0  0  0  0
   43.2880   33.9720   39.4970 C   0  0  0  0  0  0  0  0  0  0  0  0
   46.2900   33.5230   44.6750 C   0  0  0  0  0  0  0  0  0  0  0  0
   45.7100   33.8790   45.6750 O   0  0  0  0  0  0  0  0  0  0  0  0
   47.3540   32.7900   43.9730 C   0  0  0  0  0  0  0  0  0  0  0  0
   48.2180   33.3070   43.0890 C   0  0  0  0  0  0  0  0  0  0  0  0
   49.0520   32.3800   42.4970 C   0  0  0  0  0  0  0  0  0  0  0  0
   48.9290   31.0280   42.8640 N   0  0  0  0  0  0  0  0  0  0  0  0
   48.0560   30.6030   43.7430 C   0  0  0  0  0  0  0  0  0  0  0  0
   47.2050   31.4990   44.3520 N   0  0  0  0  0  0  0  0  0  0  0  0
   48.4260   34.6840   42.8040 C   0  0  0  0  0  0  0  0  0  0  0  0
   49.4660   35.2730   42.1510 C   0  0  0  0  0  0  0  0  0  0  0  0
   48.2370   35.1370   41.2930 C   0  0  0  0  0  0  0  0  0  0  0  0
   46.0715   36.1480   44.2340 H   0  0  0  0  0  0  0  0  0  0  0  0
   44.8054   37.4619   42.6885 H   0  0  0  0  0  0  0  0  0  0  0  0
   43.3163   36.2824   41.1103 H   0  0  0  0  0  0  0  0  0  0  0  0
   43.1355   32.4755   41.0385 H   0  0  0  0  0  0  0  0  0  0  0  0
   41.1181   32.6073   41.4450 H   0  0  0  0  0  0  0  0  0  0  0  0
   41.3678   34.2842   42.1054 H   0  0  0  0  0  0  0  0  0  0  0  0
   40.5707   33.4931   39.2616 H   0  0  0  0  0  0  0  0  0  0  0  0
   39.6325   34.4599   40.4038 H   0  0  0  0  0  0  0  0  0  0  0  0
   42.8702   35.6873   38.3554 H   0  0  0  0  0  0  0  0  0  0  0  0
   41.8203   34.2452   38.0303 H   0  0  0  0  0  0  0  0  0  0  0  0
   43.4018   33.0575   38.8964 H   0  0  0  0  0  0  0  0  0  0  0  0
   44.2012   34.5771   39.5971 H   0  0  0  0  0  0  0  0  0  0  0  0
   49.7987   32.6929   41.7523 H   0  0  0  0  0  0  0  0  0  0  0  0
   48.0024   29.5334   43.9943 H   0  0  0  0  0  0  0  0  0  0  0  0
   48.0202   34.8885   43.8057 H   0  0  0  0  0  0  0  0  0  0  0  0
   49.7854   36.2784   42.4626 H   0  0  0  0  0  0  0  0  0  0  0  0
   50.5081   34.9570   41.9954 H   0  0  0  0  0  0  0  0  0  0  0  0
   47.6236   36.0121   41.0323 H   0  0  0  0  0  0  0  0  0  0  0  0
   47.9537   34.6866   40.3303 H   0  0  0  0  0  0  0  0  0  0  0  0
  2  1  1  0
  2  3  2  0
  3 14  1  0
  4  3  1  0
  5  4  2  0
  6  5  1  0
  7  6  2  0
  7  2  1  0
  8  9  1  0
  8  7  1  0
 10  9  1  0
 11 10  1  0
 12 13  1  0
 12 11  1  0
 13  8  1  0
 14 15  2  0
 16 21  1  0
 16 14  1  0
 17 16  2  0
 18 19  2  0
 18 17  1  0
 19 20  1  0
 20 21  2  0
 22 17  1  0
 23 22  1  0
 24 23  1  0
 24 22  1  0
  4 25  1  0
  5 26  1  0
  6 27  1  0
  8 28  1  0
  9 29  1  0
  9 30  1  0
 10 31  1  0
 10 32  1  0
 12 33  1  0
 12 34  1  0
 13 35  1  0
 13 36  1  0
 18 37  1  0
 20 38  1  0
 22 39  1  0
 23 40  1  0
 23 41  1  0
 24 42  1  0
 24 43  1  0
M  ISO  8  25  14  26  14  27  14  28  13  29  13  30  13  31  13  32  13
M  ISO  8  33  13  34  13  35  13  36  13  37  14  38  14  39  13  40  13
M  ISO  3  41  13  42  13  43  13
M  END
>  <minimizedAffinity>  (1) 
-5.85232306

>  <minimizedRMSD>  (1) 
0.476230383

$$$$
