
     RDKit          3D

 43 46  0  0  0  0  0  0  0  0999 V2000
   44.5690   31.7840   42.8250 Cl  0  0  0  0  0  0  0  0  0  0  0  0
   44.5770   33.5410   42.7180 C   0  0  0  0  0  0  0  0  0  0  0  0
   45.3980   34.1950   43.6610 C   0  0  0  0  0  0  0  0  0  0  0  0
   45.3390   35.5690   43.5020 C   0  0  0  0  0  0  0  0  0  0  0  0
   44.6450   36.3010   42.6180 C   0  0  0  0  0  0  0  0  0  0  0  0
   43.8740   35.5950   41.7370 C   0  0  0  0  0  0  0  0  0  0  0  0
   43.8320   34.2460   41.7760 C   0  0  0  0  0  0  0  0  0  0  0  0
   43.0580   33.3980   40.9020 N   0  0  0  0  0  0  0  0  0  0  0  0
   43.4260   32.7170   39.6960 C   0  0  0  0  0  0  0  0  0  0  0  0
   42.2770   32.8040   38.7440 C   0  0  0  0  0  0  0  0  0  0  0  0
   41.1580   32.0510   39.2800 N   0  0  0  0  0  0  0  0  0  0  0  0
   41.2400   31.8700   40.7060 C   0  0  0  0  0  0  0  0  0  0  0  0
   41.6790   33.2060   41.3200 C   0  0  0  0  0  0  0  0  0  0  0  0
   46.2520   33.5500   44.7010 C   0  0  0  0  0  0  0  0  0  0  0  0
   45.6600   33.9370   45.6790 O   0  0  0  0  0  0  0  0  0  0  0  0
   47.3280   32.8060   44.0340 C   0  0  0  0  0  0  0  0  0  0  0  0
   48.1920   33.2930   43.1330 C   0  0  0  0  0  0  0  0  0  0  0  0
   49.0430   32.3660   42.5810 C   0  0  0  0  0  0  0  0  0  0  0  0
   48.9350   31.0290   43.0020 N   0  0  0  0  0  0  0  0  0  0  0  0
   48.0660   30.6220   43.8940 C   0  0  0  0  0  0  0  0  0  0  0  0
   47.1990   31.5280   44.4640 N   0  0  0  0  0  0  0  0  0  0  0  0
   48.3790   34.6690   42.8000 C   0  0  0  0  0  0  0  0  0  0  0  0
   49.4050   35.2450   42.1200 C   0  0  0  0  0  0  0  0  0  0  0  0
   48.1740   35.0710   41.2790 C   0  0  0  0  0  0  0  0  0  0  0  0
   45.9540   36.1476   44.2070 H   0  0  0  0  0  0  0  0  0  0  0  0
   44.6931   37.3998   42.6028 H   0  0  0  0  0  0  0  0  0  0  0  0
   43.2789   36.1340   40.9851 H   0  0  0  0  0  0  0  0  0  0  0  0
   44.3131   33.1943   39.2542 H   0  0  0  0  0  0  0  0  0  0  0  0
   43.6643   31.6647   39.9103 H   0  0  0  0  0  0  0  0  0  0  0  0
   42.5719   32.3833   37.7713 H   0  0  0  0  0  0  0  0  0  0  0  0
   41.9855   33.8562   38.6102 H   0  0  0  0  0  0  0  0  0  0  0  0
   40.2870   32.5555   39.0617 H   0  0  0  0  0  0  0  0  0  0  0  0
   40.2566   31.5796   41.1042 H   0  0  0  0  0  0  0  0  0  0  0  0
   41.9605   31.0764   40.9534 H   0  0  0  0  0  0  0  0  0  0  0  0
   41.6134   33.1636   42.4172 H   0  0  0  0  0  0  0  0  0  0  0  0
   41.0359   34.0350   40.9895 H   0  0  0  0  0  0  0  0  0  0  0  0
   49.7893   32.6623   41.8292 H   0  0  0  0  0  0  0  0  0  0  0  0
   48.0289   29.5622   44.1863 H   0  0  0  0  0  0  0  0  0  0  0  0
   47.9766   34.9019   43.7969 H   0  0  0  0  0  0  0  0  0  0  0  0
   49.7175   36.2629   42.3963 H   0  0  0  0  0  0  0  0  0  0  0  0
   50.4485   34.9334   41.9654 H   0  0  0  0  0  0  0  0  0  0  0  0
   47.5505   35.9317   40.9955 H   0  0  0  0  0  0  0  0  0  0  0  0
   47.8873   34.5875   40.3335 H   0  0  0  0  0  0  0  0  0  0  0  0
  2  1  1  0
  2  3  2  0
  3 14  1  0
  4  3  1  0
  5  4  2  0
  6  7  2  0
  6  5  1  0
  7  2  1  0
  8 13  1  0
  8  7  1  0
  9  8  1  0
 10 11  1  0
 10  9  1  0
 11 12  1  0
 12 13  1  0
 14 15  2  0
 16 21  1  0
 16 14  1  0
 17 16  2  0
 18 19  2  0
 18 17  1  0
 19 20  1  0
 20 21  2  0
 22 17  1  0
 23 22  1  0
 24 23  1  0
 24 22  1  0
  4 25  1  0
  5 26  1  0
  6 27  1  0
  9 28  1  0
  9 29  1  0
 10 30  1  0
 10 31  1  0
 11 32  1  0
 12 33  1  0
 12 34  1  0
 13 35  1  0
 13 36  1  0
 18 37  1  0
 20 38  1  0
 22 39  1  0
 23 40  1  0
 23 41  1  0
 24 42  1  0
 24 43  1  0
M  ISO  8  25  14  26  14  27  14  28  13  29  13  30  13  31  13  32   5
M  ISO  8  33  13  34  13  35  13  36  13  37  14  38  14  39  13  40  13
M  ISO  3  41  13  42  13  43  13
M  END
>  <minimizedAffinity>  (1) 
-5.45814228

>  <minimizedRMSD>  (1) 
0.452031016

$$$$
