
     RDKit          3D

 44 47  0  0  0  0  0  0  0  0999 V2000
   46.3160   33.5160   44.6880 C   0  0  0  0  0  0  0  0  0  0  0  0
   45.7450   33.8820   45.6840 O   0  0  0  0  0  0  0  0  0  0  0  0
   44.5090   31.8050   42.8650 Cl  0  0  0  0  0  0  0  0  0  0  0  0
   44.5690   33.5650   42.7670 C   0  0  0  0  0  0  0  0  0  0  0  0
   45.4440   34.1880   43.6830 C   0  0  0  0  0  0  0  0  0  0  0  0
   45.4130   35.5650   43.5250 C   0  0  0  0  0  0  0  0  0  0  0  0
   44.7070   36.3180   42.6680 C   0  0  0  0  0  0  0  0  0  0  0  0
   43.8870   35.6370   41.8170 C   0  0  0  0  0  0  0  0  0  0  0  0
   43.8050   34.2910   41.8510 C   0  0  0  0  0  0  0  0  0  0  0  0
   42.9770   33.4540   41.0070 N   0  0  0  0  0  0  0  0  0  0  0  0
   41.6540   32.9120   41.2110 C   0  0  0  0  0  0  0  0  0  0  0  0
   40.9000   32.9040   39.9070 C   0  0  0  0  0  0  0  0  0  0  0  0
   41.5620   32.0220   38.8720 C   0  0  0  0  0  0  0  0  0  0  0  0
   43.0410   31.8380   39.1700 C   0  0  0  0  0  0  0  0  0  0  0  0
   43.6190   33.1210   39.7410 C   0  0  0  0  0  0  0  0  0  0  0  0
   47.3730   32.7870   43.9750 C   0  0  0  0  0  0  0  0  0  0  0  0
   48.2440   33.3020   43.0960 C   0  0  0  0  0  0  0  0  0  0  0  0
   49.0710   32.3750   42.4940 C   0  0  0  0  0  0  0  0  0  0  0  0
   48.9390   31.0170   42.8420 N   0  0  0  0  0  0  0  0  0  0  0  0
   48.0530   30.5950   43.7240 C   0  0  0  0  0  0  0  0  0  0  0  0
   47.2120   31.4840   44.3420 N   0  0  0  0  0  0  0  0  0  0  0  0
   48.4590   34.6790   42.8300 C   0  0  0  0  0  0  0  0  0  0  0  0
   49.5080   35.2670   42.1950 C   0  0  0  0  0  0  0  0  0  0  0  0
   48.2890   35.1490   41.3220 C   0  0  0  0  0  0  0  0  0  0  0  0
   46.0681   36.1266   44.2073 H   0  0  0  0  0  0  0  0  0  0  0  0
   44.7845   37.4152   42.6526 H   0  0  0  0  0  0  0  0  0  0  0  0
   43.2809   36.1961   41.0890 H   0  0  0  0  0  0  0  0  0  0  0  0
   41.7354   31.8834   41.5922 H   0  0  0  0  0  0  0  0  0  0  0  0
   41.1142   33.5352   41.9392 H   0  0  0  0  0  0  0  0  0  0  0  0
   39.8805   32.5332   40.0891 H   0  0  0  0  0  0  0  0  0  0  0  0
   40.8871   33.9325   39.5170 H   0  0  0  0  0  0  0  0  0  0  0  0
   41.4509   32.4865   37.8811 H   0  0  0  0  0  0  0  0  0  0  0  0
   41.0771   31.0349   38.8948 H   0  0  0  0  0  0  0  0  0  0  0  0
   43.1671   31.0250   39.9001 H   0  0  0  0  0  0  0  0  0  0  0  0
   43.5688   31.5875   38.2380 H   0  0  0  0  0  0  0  0  0  0  0  0
   44.6984   32.9889   39.9067 H   0  0  0  0  0  0  0  0  0  0  0  0
   43.4410   33.9387   39.0271 H   0  0  0  0  0  0  0  0  0  0  0  0
   49.8210   32.6921   41.7544 H   0  0  0  0  0  0  0  0  0  0  0  0
   47.9888   29.5236   43.9648 H   0  0  0  0  0  0  0  0  0  0  0  0
   48.0422   34.8759   43.8287 H   0  0  0  0  0  0  0  0  0  0  0  0
   49.8307   36.2669   42.5208 H   0  0  0  0  0  0  0  0  0  0  0  0
   50.5495   34.9452   42.0474 H   0  0  0  0  0  0  0  0  0  0  0  0
   47.6844   36.0310   41.0639 H   0  0  0  0  0  0  0  0  0  0  0  0
   48.0133   34.7110   40.3514 H   0  0  0  0  0  0  0  0  0  0  0  0
  1  2  2  0
  4  3  1  0
  4  5  2  0
  5  1  1  0
  6  5  1  0
  7  6  2  0
  8  9  2  0
  8  7  1  0
  9  4  1  0
 10 11  1  0
 10  9  1  0
 12 11  1  0
 13 14  1  0
 13 12  1  0
 14 15  1  0
 15 10  1  0
 16 21  1  0
 16  1  1  0
 17 16  2  0
 18 19  2  0
 18 17  1  0
 19 20  1  0
 20 21  2  0
 22 17  1  0
 23 22  1  0
 24 23  1  0
 24 22  1  0
  6 25  1  0
  7 26  1  0
  8 27  1  0
 11 28  1  0
 11 29  1  0
 12 30  1  0
 12 31  1  0
 13 32  1  0
 13 33  1  0
 14 34  1  0
 14 35  1  0
 15 36  1  0
 15 37  1  0
 18 38  1  0
 20 39  1  0
 22 40  1  0
 23 41  1  0
 23 42  1  0
 24 43  1  0
 24 44  1  0
M  ISO  8  25  14  26  14  27  14  28  13  29  13  30  13  31  13  32  13
M  ISO  8  33  13  34  13  35  13  36  13  37  13  38  14  39  14  40  13
M  ISO  4  41  13  42  13  43  13  44  13
M  END
>  <minimizedAffinity>  (1) 
-5.45278645

>  <minimizedRMSD>  (1) 
0.339170605

$$$$
