
     RDKit          3D

 36 38  0  0  0  0  0  0  0  0999 V2000
   47.3820   32.8120   43.9950 C   0  0  0  0  0  0  0  0  0  0  0  0
   48.2440   33.3180   43.1010 C   0  0  0  0  0  0  0  0  0  0  0  0
   49.0810   32.3840   42.5240 C   0  0  0  0  0  0  0  0  0  0  0  0
   48.9690   31.0350   42.9080 N   0  0  0  0  0  0  0  0  0  0  0  0
   48.0880   30.6280   43.8030 C   0  0  0  0  0  0  0  0  0  0  0  0
   47.2370   31.5190   44.3990 N   0  0  0  0  0  0  0  0  0  0  0  0
   48.4380   34.6880   42.8000 C   0  0  0  0  0  0  0  0  0  0  0  0
   49.4800   35.2780   42.1490 C   0  0  0  0  0  0  0  0  0  0  0  0
   48.2630   35.1150   41.2810 C   0  0  0  0  0  0  0  0  0  0  0  0
   46.3160   33.5440   44.6910 C   0  0  0  0  0  0  0  0  0  0  0  0
   45.7400   33.9340   45.6760 O   0  0  0  0  0  0  0  0  0  0  0  0
   44.4950   31.7560   42.9620 Cl  0  0  0  0  0  0  0  0  0  0  0  0
   44.5480   33.5160   42.8000 C   0  0  0  0  0  0  0  0  0  0  0  0
   45.4220   34.1730   43.6650 C   0  0  0  0  0  0  0  0  0  0  0  0
   45.3880   35.5420   43.4560 C   0  0  0  0  0  0  0  0  0  0  0  0
   44.6660   36.2560   42.5780 C   0  0  0  0  0  0  0  0  0  0  0  0
   43.8380   35.5370   41.7680 C   0  0  0  0  0  0  0  0  0  0  0  0
   43.7600   34.1870   41.8580 C   0  0  0  0  0  0  0  0  0  0  0  0
   42.8980   33.3390   41.0300 C   0  0  0  0  0  0  0  0  0  0  0  0
   41.5910   33.3330   40.9070 C   0  0  0  0  0  0  0  0  0  0  0  0
   40.4550   34.0930   41.4780 C   0  0  0  0  0  0  0  0  0  0  0  0
   49.8254   32.6902   41.7742 H   0  0  0  0  0  0  0  0  0  0  0  0
   48.0374   29.5627   44.0723 H   0  0  0  0  0  0  0  0  0  0  0  0
   48.0175   34.9039   43.7933 H   0  0  0  0  0  0  0  0  0  0  0  0
   49.7853   36.2917   42.4478 H   0  0  0  0  0  0  0  0  0  0  0  0
   50.5271   34.9709   42.0100 H   0  0  0  0  0  0  0  0  0  0  0  0
   47.6436   35.9793   40.9993 H   0  0  0  0  0  0  0  0  0  0  0  0
   47.9957   34.6462   40.3225 H   0  0  0  0  0  0  0  0  0  0  0  0
   46.0512   36.1316   44.1061 H   0  0  0  0  0  0  0  0  0  0  0  0
   44.7379   37.3519   42.5160 H   0  0  0  0  0  0  0  0  0  0  0  0
   43.2202   36.0637   41.0258 H   0  0  0  0  0  0  0  0  0  0  0  0
   43.4270   32.5936   40.4180 H   0  0  0  0  0  0  0  0  0  0  0  0
   41.2518   32.5651   40.1962 H   0  0  0  0  0  0  0  0  0  0  0  0
   40.5061   34.0588   42.5763 H   0  0  0  0  0  0  0  0  0  0  0  0
   40.5071   35.1388   41.1409 H   0  0  0  0  0  0  0  0  0  0  0  0
   39.5082   33.6458   41.1409 H   0  0  0  0  0  0  0  0  0  0  0  0
  1  6  1  0
  1 10  1  0
  2  1  2  0
  3  4  2  0
  3  2  1  0
  4  5  1  0
  5  6  2  0
  7  2  1  0
  8  7  1  0
  9  8  1  0
  9  7  1  0
 10 11  2  0
 13 12  1  0
 13 14  2  0
 14 10  1  0
 15 14  1  0
 16 15  2  0
 17 18  2  0
 17 16  1  0
 18 13  1  0
 19 18  1  0
 20 19  2  0
 20 21  1  0
  3 22  1  0
  5 23  1  0
  7 24  1  0
  8 25  1  0
  8 26  1  0
  9 27  1  0
  9 28  1  0
 15 29  1  0
 16 30  1  0
 17 31  1  0
 19 32  1  0
 20 33  1  0
 21 34  1  0
 21 35  1  0
 21 36  1  0
M  ISO  8  22  14  23  14  24  13  25  13  26  13  27  13  28  13  29  14
M  ISO  5  30  14  31  14  34   8  35   8  36   8
M  END
>  <minimizedAffinity>  (1) 
-5.29436541

>  <minimizedRMSD>  (1) 
1.00969422

$$$$
