
     RDKit          3D

 36 39  0  0  0  0  0  0  0  0999 V2000
   47.3820   32.8010   44.0060 C   0  0  0  0  0  0  0  0  0  0  0  0
   48.2420   33.3040   43.1090 C   0  0  0  0  0  0  0  0  0  0  0  0
   49.0810   32.3800   42.5280 C   0  0  0  0  0  0  0  0  0  0  0  0
   48.9730   31.0320   42.9120 N   0  0  0  0  0  0  0  0  0  0  0  0
   48.0960   30.6220   43.8100 C   0  0  0  0  0  0  0  0  0  0  0  0
   47.2440   31.5090   44.4090 N   0  0  0  0  0  0  0  0  0  0  0  0
   48.4340   34.6810   42.8010 C   0  0  0  0  0  0  0  0  0  0  0  0
   49.4670   35.2730   42.1460 C   0  0  0  0  0  0  0  0  0  0  0  0
   48.2420   35.1090   41.2850 C   0  0  0  0  0  0  0  0  0  0  0  0
   46.3200   33.5380   44.7020 C   0  0  0  0  0  0  0  0  0  0  0  0
   45.7500   33.9170   45.6960 O   0  0  0  0  0  0  0  0  0  0  0  0
   44.5280   31.7780   42.9300 Cl  0  0  0  0  0  0  0  0  0  0  0  0
   44.5710   33.5280   42.7920 C   0  0  0  0  0  0  0  0  0  0  0  0
   45.4380   34.1830   43.6860 C   0  0  0  0  0  0  0  0  0  0  0  0
   45.3970   35.5590   43.5110 C   0  0  0  0  0  0  0  0  0  0  0  0
   44.6760   36.2850   42.6450 C   0  0  0  0  0  0  0  0  0  0  0  0
   43.8560   35.5780   41.8100 C   0  0  0  0  0  0  0  0  0  0  0  0
   43.7860   34.2140   41.8640 C   0  0  0  0  0  0  0  0  0  0  0  0
   42.8830   33.5240   40.9070 C   0  0  0  0  0  0  0  0  0  0  0  0
   41.4140   33.6300   41.0370 C   0  0  0  0  0  0  0  0  0  0  0  0
   42.1930   34.2080   39.8090 C   0  0  0  0  0  0  0  0  0  0  0  0
   49.8223   32.6908   41.7771 H   0  0  0  0  0  0  0  0  0  0  0  0
   48.0500   29.5564   44.0792 H   0  0  0  0  0  0  0  0  0  0  0  0
   48.0220   34.8947   43.7983 H   0  0  0  0  0  0  0  0  0  0  0  0
   49.7722   36.2866   42.4450 H   0  0  0  0  0  0  0  0  0  0  0  0
   50.5137   34.9685   41.9988 H   0  0  0  0  0  0  0  0  0  0  0  0
   47.6178   35.9721   41.0103 H   0  0  0  0  0  0  0  0  0  0  0  0
   47.9672   34.6416   40.3279 H   0  0  0  0  0  0  0  0  0  0  0  0
   46.0509   36.1378   44.1798 H   0  0  0  0  0  0  0  0  0  0  0  0
   44.7401   37.3825   42.6084 H   0  0  0  0  0  0  0  0  0  0  0  0
   43.2385   36.1193   41.0781 H   0  0  0  0  0  0  0  0  0  0  0  0
   43.5974   32.6876   40.9211 H   0  0  0  0  0  0  0  0  0  0  0  0
   40.7793   32.7386   40.9244 H   0  0  0  0  0  0  0  0  0  0  0  0
   40.7114   34.0239   41.7862 H   0  0  0  0  0  0  0  0  0  0  0  0
   42.2974   35.2954   39.6802 H   0  0  0  0  0  0  0  0  0  0  0  0
   42.1408   34.0902   38.7166 H   0  0  0  0  0  0  0  0  0  0  0  0
  1  6  1  0
  1 10  1  0
  2  1  2  0
  3  4  2  0
  3  2  1  0
  4  5  1  0
  5  6  2  0
  7  2  1  0
  8  7  1  0
  9  8  1  0
  9  7  1  0
 10 11  2  0
 13 12  1  0
 13 14  2  0
 14 10  1  0
 15 14  1  0
 16 15  2  0
 17 18  2  0
 17 16  1  0
 18 13  1  0
 19 20  1  0
 19 18  1  0
 21 19  1  0
 21 20  1  0
  3 22  1  0
  5 23  1  0
  7 24  1  0
  8 25  1  0
  8 26  1  0
  9 27  1  0
  9 28  1  0
 15 29  1  0
 16 30  1  0
 17 31  1  0
 19 32  1  0
 20 33  1  0
 20 34  1  0
 21 35  1  0
 21 36  1  0
M  ISO  8  22  14  23  14  24  13  25  13  26  13  27  13  28  13  29  14
M  ISO  7  30  14  31  14  32  13  33  13  34  13  35  13  36  13
M  END
>  <minimizedAffinity>  (1) 
-5.23952532

>  <minimizedRMSD>  (1) 
0.234245941

$$$$
