
     RDKit          3D

 22 23  0  0  0  0  0  0  0  0999 V2000
   44.7550   33.1590   41.1430 Cl  0  0  0  0  0  0  0  0  0  0  0  0
   46.2820   33.9580   40.9400 C   0  0  0  0  0  0  0  0  0  0  0  0
   46.8090   34.7130   41.9430 C   0  0  0  0  0  0  0  0  0  0  0  0
   48.0440   35.3750   41.8130 C   0  0  0  0  0  0  0  0  0  0  0  0
   48.6850   35.2080   40.6020 C   0  0  0  0  0  0  0  0  0  0  0  0
   48.1540   34.4470   39.5930 C   0  0  0  0  0  0  0  0  0  0  0  0
   46.9440   33.8110   39.7470 C   0  0  0  0  0  0  0  0  0  0  0  0
   45.5880   34.0370   45.3500 C   0  0  0  0  0  0  0  0  0  0  0  0
   44.6990   35.1150   45.5760 C   0  0  0  0  0  0  0  0  0  0  0  0
   44.5380   36.0450   44.5610 C   0  0  0  0  0  0  0  0  0  0  0  0
   45.2340   35.8800   43.4100 N   0  0  0  0  0  0  0  0  0  0  0  0
   46.0760   34.8500   43.2090 C   0  0  0  0  0  0  0  0  0  0  0  0
   46.2490   33.9280   44.1870 N   0  0  0  0  0  0  0  0  0  0  0  0
   46.4830   33.0540   38.6550 N   0  0  0  0  0  0  0  0  0  0  0  0
   48.4703   35.9852   42.6229 H   0  0  0  0  0  0  0  0  0  0  0  0
   49.6545   35.7022   40.4412 H   0  0  0  0  0  0  0  0  0  0  0  0
   48.7038   34.3434   38.6459 H   0  0  0  0  0  0  0  0  0  0  0  0
   45.7386   33.2813   46.1351 H   0  0  0  0  0  0  0  0  0  0  0  0
   44.1536   35.2115   46.5264 H   0  0  0  0  0  0  0  0  0  0  0  0
   43.8583   36.9006   44.6873 H   0  0  0  0  0  0  0  0  0  0  0  0
   45.5829   32.5570   38.7162 H   0  0  0  0  0  0  0  0  0  0  0  0
   47.0455   32.9966   37.7941 H   0  0  0  0  0  0  0  0  0  0  0  0
  2  1  1  0
  2  3  2  0
  3 12  1  0
  4  3  1  0
  5  4  2  0
  6  7  2  0
  6  5  1  0
  7  2  1  0
  8  9  2  0
 10  9  1  0
 11 10  2  0
 12 11  1  0
 12 13  2  0
 13  8  1  0
 14  7  1  0
  4 15  1  0
  5 16  1  0
  6 17  1  0
  8 18  1  0
  9 19  1  0
 10 20  1  0
 14 21  1  0
 14 22  1  0
M  ISO  6  15  14  16  14  17  14  18  14  19  14  20  14
M  END
>  <minimizedAffinity>  (1) 
-5.06693745

>  <minimizedRMSD>  (1) 
0.0353375599

$$$$
