
     RDKit          3D

 41 43  0  0  1  0  0  0  0  0999 V2000
   46.3020   33.5390   44.7880 C   0  0  0  0  0  0  0  0  0  0  0  0
   45.7760   33.9690   45.7740 O   0  0  0  0  0  0  0  0  0  0  0  0
   44.4940   31.8030   42.9870 Cl  0  0  0  0  0  0  0  0  0  0  0  0
   44.5460   33.5460   42.8740 C   0  0  0  0  0  0  0  0  0  0  0  0
   45.4190   34.2040   43.7790 C   0  0  0  0  0  0  0  0  0  0  0  0
   45.3640   35.5670   43.5980 C   0  0  0  0  0  0  0  0  0  0  0  0
   44.6600   36.3050   42.7500 C   0  0  0  0  0  0  0  0  0  0  0  0
   43.8340   35.6050   41.8980 C   0  0  0  0  0  0  0  0  0  0  0  0
   43.7660   34.2410   41.9480 C   0  0  0  0  0  0  0  0  0  0  0  0
   42.9070   33.6670   41.0560 O   0  0  0  0  0  0  0  0  0  0  0  0
   40.6620   33.0550   39.8520 O   0  0  0  0  0  0  0  0  0  0  0  0
   41.2590   33.3030   41.2210 P   0  0  0  0  0  0  0  0  0  0  0  0
   41.0830   31.9450   42.2230 O   0  0  0  0  0  0  0  0  0  0  0  0
   40.4210   34.5500   41.9950 O   0  0  0  0  0  0  0  0  0  0  0  0
   47.3100   32.7410   44.0610 C   0  0  0  0  0  0  0  0  0  0  0  0
   48.1900   33.2010   43.1750 C   0  0  0  0  0  0  0  0  0  0  0  0
   48.9670   32.2370   42.5910 C   0  0  0  0  0  0  0  0  0  0  0  0
   48.7800   30.8900   42.9650 N   0  0  0  0  0  0  0  0  0  0  0  0
   47.8920   30.5070   43.8510 C   0  0  0  0  0  0  0  0  0  0  0  0
   47.0890   31.4480   44.4590 N   0  0  0  0  0  0  0  0  0  0  0  0
   48.4810   34.5490   42.8670 C   0  0  1  0  0  0  0  0  0  0  0  0
   49.3380   35.0430   41.9330 C   0  0  0  0  0  0  0  0  0  0  0  0
   47.9040   35.1570   41.5420 C   0  0  1  0  0  0  0  0  0  0  0  0
   47.4020   34.2710   40.4760 C   0  0  0  0  0  0  0  0  0  0  0  0
   48.2690   34.4820   39.2120 C   0  0  0  0  0  0  0  0  0  0  0  0
   46.0153   36.1431   44.2718 H   0  0  0  0  0  0  0  0  0  0  0  0
   44.7309   37.4025   42.7284 H   0  0  0  0  0  0  0  0  0  0  0  0
   43.2204   36.1519   41.1670 H   0  0  0  0  0  0  0  0  0  0  0  0
   41.1196   32.2275   43.1711 H   0  0  0  0  0  0  0  0  0  0  0  0
   40.4958   34.4387   42.9759 H   0  0  0  0  0  0  0  0  0  0  0  0
   49.7253   32.5087   41.8418 H   0  0  0  0  0  0  0  0  0  0  0  0
   47.7888   29.4422   44.1071 H   0  0  0  0  0  0  0  0  0  0  0  0
   48.4347   34.7169   43.9531 H   0  0  0  0  0  0  0  0  0  0  0  0
   49.9007   35.9602   42.1610 H   0  0  0  0  0  0  0  0  0  0  0  0
   50.2081   34.6023   41.4244 H   0  0  0  0  0  0  0  0  0  0  0  0
   47.1802   35.9362   41.2609 H   0  0  0  0  0  0  0  0  0  0  0  0
   47.4707   33.2227   40.8021 H   0  0  0  0  0  0  0  0  0  0  0  0
   46.3505   34.5064   40.2549 H   0  0  0  0  0  0  0  0  0  0  0  0
   49.2977   34.7323   39.5106 H   0  0  0  0  0  0  0  0  0  0  0  0
   48.2752   33.5592   38.6134 H   0  0  0  0  0  0  0  0  0  0  0  0
   47.8505   35.3045   38.6134 H   0  0  0  0  0  0  0  0  0  0  0  0
  1  2  2  0
  4  3  1  0
  4  5  2  0
  5  1  1  0
  6  5  1  0
  7  6  2  0
  8  9  2  0
  8  7  1  0
  9  4  1  0
 10 12  1  0
 10  9  1  0
 11 12  2  0
 12 14  1  0
 12 13  1  0
 15 20  1  0
 15  1  1  0
 16 15  2  0
 17 18  2  0
 17 16  1  0
 18 19  1  0
 19 20  2  0
 21 16  1  0
 22 21  1  0
 23 22  1  0
 23 21  1  0
 24 23  1  0
 25 24  1  0
  6 26  1  0
  7 27  1  0
  8 28  1  0
 13 29  1  0
 14 30  1  0
 17 31  1  0
 19 32  1  0
 21 33  1  1
 22 34  1  0
 22 35  1  0
 23 36  1  1
 24 37  1  0
 24 38  1  0
 25 39  1  0
 25 40  1  0
 25 41  1  0
M  ISO  8  26  14  27  14  28  14  29   3  30   3  31  14  32  14  33  13
M  ISO  8  34  13  35  13  36  13  37   8  38   8  39   8  40   8  41   8
M  END
>  <minimizedAffinity>  (1) 
-5.88267326

>  <minimizedRMSD>  (1) 
0.284113348

$$$$
