
     RDKit          3D

 24 25  0  0  0  0  0  0  0  0999 V2000
   46.0420   33.7190   44.7340 C   0  0  0  0  0  0  0  0  0  0  0  0
   46.3280   34.3900   41.0860 C   0  0  0  0  0  0  0  0  0  0  0  0
   47.6840   34.6150   40.9450 C   0  0  0  0  0  0  0  0  0  0  0  0
   48.4690   34.5340   42.0860 C   0  0  0  0  0  0  0  0  0  0  0  0
   47.9120   34.2430   43.2910 N   0  0  0  0  0  0  0  0  0  0  0  0
   46.5670   34.0290   43.3820 C   0  0  0  0  0  0  0  0  0  0  0  0
   45.8000   34.1020   42.2960 N   0  0  0  0  0  0  0  0  0  0  0  0
   46.3720   31.9650   45.0550 S   0  0  0  0  0  0  0  0  0  0  0  0
   45.1750   29.3920   46.1490 F   0  0  0  0  0  0  0  0  0  0  0  0
   45.3760   30.2850   47.1430 C   0  0  0  0  0  0  0  0  0  0  0  0
   45.9200   31.4750   46.6960 C   0  0  0  0  0  0  0  0  0  0  0  0
   46.1650   32.4620   47.6490 C   0  0  0  0  0  0  0  0  0  0  0  0
   45.8850   32.2880   48.9880 C   0  0  0  0  0  0  0  0  0  0  0  0
   45.3440   31.1000   49.4170 C   0  0  0  0  0  0  0  0  0  0  0  0
   45.0970   30.1090   48.4790 C   0  0  0  0  0  0  0  0  0  0  0  0
   44.9594   33.9106   44.7700 H   0  0  0  0  0  0  0  0  0  0  0  0
   46.5267   34.3506   45.4930 H   0  0  0  0  0  0  0  0  0  0  0  0
   45.6720   34.4459   40.2048 H   0  0  0  0  0  0  0  0  0  0  0  0
   48.1246   34.8496   39.9648 H   0  0  0  0  0  0  0  0  0  0  0  0
   49.5530   34.7070   42.0147 H   0  0  0  0  0  0  0  0  0  0  0  0
   46.5990   33.4177   47.3200 H   0  0  0  0  0  0  0  0  0  0  0  0
   46.0931   33.0940   49.7071 H   0  0  0  0  0  0  0  0  0  0  0  0
   45.1122   30.9388   50.4801 H   0  0  0  0  0  0  0  0  0  0  0  0
   44.6653   29.1539   48.8127 H   0  0  0  0  0  0  0  0  0  0  0  0
  1  8  1  0
  2  7  2  0
  3  2  1  0
  3  4  2  0
  4  5  1  0
  5  6  2  0
  6  1  1  0
  7  6  1  0
  8 11  1  0
  9 10  1  0
 10 15  2  0
 11 10  1  0
 11 12  2  0
 12 13  1  0
 13 14  2  0
 15 14  1  0
  1 16  1  0
  1 17  1  0
  2 18  1  0
  3 19  1  0
  4 20  1  0
 12 21  1  0
 13 22  1  0
 14 23  1  0
 15 24  1  0
M  ISO  8  16   8  17   8  18  14  19  14  20  14  21  14  22  14  23  14
M  ISO  1  24  14
M  END
>  <minimizedAffinity>  (1) 
-4.29060364

>  <minimizedRMSD>  (1) 
3.91117334

$$$$
