
     RDKit          3D

 23 24  0  0  0  0  0  0  0  0999 V2000
   47.2910   32.3300   44.3960 C   0  0  0  0  0  0  0  0  0  0  0  0
   49.3310   34.4570   42.1410 C   0  0  0  0  0  0  0  0  0  0  0  0
   48.3510   35.3610   41.7150 C   0  0  0  0  0  0  0  0  0  0  0  0
   47.0470   35.2560   42.1740 C   0  0  0  0  0  0  0  0  0  0  0  0
   46.7620   34.2470   43.0480 N   0  0  0  0  0  0  0  0  0  0  0  0
   47.7340   33.3730   43.4520 C   0  0  0  0  0  0  0  0  0  0  0  0
   49.0000   33.4850   42.9980 N   0  0  0  0  0  0  0  0  0  0  0  0
   46.3560   33.1350   45.7230 S   0  0  0  0  0  0  0  0  0  0  0  0
   45.8850   31.9920   46.9930 C   0  0  0  0  0  0  0  0  0  0  0  0
   45.6320   30.6810   46.7380 C   0  0  0  0  0  0  0  0  0  0  0  0
   45.2670   29.8730   47.8160 C   0  0  0  0  0  0  0  0  0  0  0  0
   45.1620   30.3710   49.0960 C   0  0  0  0  0  0  0  0  0  0  0  0
   45.4280   31.6940   49.2900 C   0  0  0  0  0  0  0  0  0  0  0  0
   45.7790   32.4650   48.2480 N   0  0  0  0  0  0  0  0  0  0  0  0
   48.1653   31.8119   44.8168 H   0  0  0  0  0  0  0  0  0  0  0  0
   46.6614   31.5903   43.8798 H   0  0  0  0  0  0  0  0  0  0  0  0
   50.3643   34.5452   41.7742 H   0  0  0  0  0  0  0  0  0  0  0  0
   48.6178   36.1619   41.0097 H   0  0  0  0  0  0  0  0  0  0  0  0
   46.2693   35.9611   41.8454 H   0  0  0  0  0  0  0  0  0  0  0  0
   45.7119   30.2721   45.7200 H   0  0  0  0  0  0  0  0  0  0  0  0
   45.0572   28.8079   47.6383 H   0  0  0  0  0  0  0  0  0  0  0  0
   44.8726   29.7216   49.9353 H   0  0  0  0  0  0  0  0  0  0  0  0
   45.3553   32.1289   50.2978 H   0  0  0  0  0  0  0  0  0  0  0  0
  1  8  1  0
  2  7  2  0
  3  2  1  0
  3  4  2  0
  4  5  1  0
  5  6  2  0
  6  1  1  0
  7  6  1  0
  8  9  1  0
  9 14  1  0
 10  9  2  0
 10 11  1  0
 11 12  2  0
 12 13  1  0
 14 13  2  0
  1 15  1  0
  1 16  1  0
  2 17  1  0
  3 18  1  0
  4 19  1  0
 10 20  1  0
 11 21  1  0
 12 22  1  0
 13 23  1  0
M  ISO  8  15   8  16   8  17  14  18  14  19  14  20  14  21  14  22  14
M  ISO  1  23  14
M  END
>  <minimizedAffinity>  (1) 
-4.19057178

>  <minimizedRMSD>  (1) 
4.18032074

$$$$
