
     RDKit          3D

 22 23  0  0  0  0  0  0  0  0999 V2000
   47.4830   32.5390   44.0390 C   0  0  0  0  0  0  0  0  0  0  0  0
   49.3730   35.1210   42.1700 C   0  0  0  0  0  0  0  0  0  0  0  0
   48.5260   35.3230   41.0760 C   0  0  0  0  0  0  0  0  0  0  0  0
   47.3410   34.5900   40.9880 C   0  0  0  0  0  0  0  0  0  0  0  0
   47.0340   33.6890   41.9780 N   0  0  0  0  0  0  0  0  0  0  0  0
   47.8870   33.5280   43.0200 C   0  0  0  0  0  0  0  0  0  0  0  0
   49.0340   34.2290   43.1170 N   0  0  0  0  0  0  0  0  0  0  0  0
   46.2800   33.3510   45.1420 S   0  0  0  0  0  0  0  0  0  0  0  0
   46.3030   32.5600   46.7430 C   0  0  0  0  0  0  0  0  0  0  0  0
   45.3560   32.6960   47.7610 C   0  0  0  0  0  0  0  0  0  0  0  0
   45.5760   31.9900   48.9250 C   0  0  0  0  0  0  0  0  0  0  0  0
   46.6600   31.2000   49.0750 N   0  0  0  0  0  0  0  0  0  0  0  0
   47.5720   31.0840   48.0630 C   0  0  0  0  0  0  0  0  0  0  0  0
   47.3650   31.7700   46.9250 N   0  0  0  0  0  0  0  0  0  0  0  0
   48.3613   32.2134   44.6156 H   0  0  0  0  0  0  0  0  0  0  0  0
   47.0371   31.6527   43.5640 H   0  0  0  0  0  0  0  0  0  0  0  0
   50.3113   35.6887   42.2553 H   0  0  0  0  0  0  0  0  0  0  0  0
   48.7900   36.0505   40.2943 H   0  0  0  0  0  0  0  0  0  0  0  0
   46.6609   34.7325   40.1353 H   0  0  0  0  0  0  0  0  0  0  0  0
   44.4720   33.3392   47.6392 H   0  0  0  0  0  0  0  0  0  0  0  0
   44.8522   32.0725   49.7492 H   0  0  0  0  0  0  0  0  0  0  0  0
   48.4579   30.4420   48.1774 H   0  0  0  0  0  0  0  0  0  0  0  0
  1  8  1  0
  2  7  2  0
  3  2  1  0
  4  3  2  0
  4  5  1  0
  5  6  2  0
  6  7  1  0
  6  1  1  0
  8  9  1  0
  9 14  1  0
  9 10  2  0
 10 11  1  0
 11 12  2  0
 13 12  1  0
 14 13  2  0
  1 15  1  0
  1 16  1  0
  2 17  1  0
  3 18  1  0
  4 19  1  0
 10 20  1  0
 11 21  1  0
 13 22  1  0
M  ISO  8  15   8  16   8  17  14  18  14  19  14  20  14  21  14  22  14
M  END
>  <minimizedAffinity>  (1) 
-4.07913876

>  <minimizedRMSD>  (1) 
4.39126396

$$$$
