
     RDKit          3D

 17 17  0  0  0  0  0  0  0  0999 V2000
   44.5130   36.0170   44.5150 C   0  0  0  0  0  0  0  0  0  0  0  0
   45.2060   35.8870   43.3250 C   0  0  0  0  0  0  0  0  0  0  0  0
   46.1140   34.8260   43.1730 C   0  0  0  0  0  0  0  0  0  0  0  0
   46.3010   33.9370   44.2000 N   0  0  0  0  0  0  0  0  0  0  0  0
   45.5930   34.1050   45.3560 C   0  0  0  0  0  0  0  0  0  0  0  0
   44.7280   35.1240   45.4880 N   0  0  0  0  0  0  0  0  0  0  0  0
   45.8420   33.1170   46.4200 C   0  0  0  0  0  0  0  0  0  0  0  0
   46.8690   31.7980   45.7010 S   0  0  0  0  0  0  0  0  0  0  0  0
   45.8860   30.3050   45.4340 C   0  0  0  0  0  0  0  0  0  0  0  0
   43.7976   36.8401   44.6589 H   0  0  0  0  0  0  0  0  0  0  0  0
   45.0480   36.6058   42.5075 H   0  0  0  0  0  0  0  0  0  0  0  0
   46.6732   34.7087   42.2330 H   0  0  0  0  0  0  0  0  0  0  0  0
   46.3718   33.5921   47.2588 H   0  0  0  0  0  0  0  0  0  0  0  0
   44.8950   32.7091   46.8031 H   0  0  0  0  0  0  0  0  0  0  0  0
   45.6023   29.8742   46.4055 H   0  0  0  0  0  0  0  0  0  0  0  0
   44.9786   30.5600   44.8670 H   0  0  0  0  0  0  0  0  0  0  0  0
   46.4789   29.5722   44.8670 H   0  0  0  0  0  0  0  0  0  0  0  0
  1  6  2  0
  2  1  1  0
  3  2  2  0
  3  4  1  0
  4  5  2  0
  5  6  1  0
  5  7  1  0
  8  7  1  0
  9  8  1  0
  1 10  1  0
  2 11  1  0
  3 12  1  0
  7 13  1  0
  7 14  1  0
  9 15  1  0
  9 16  1  0
  9 17  1  0
M  ISO  8  10  14  11  14  12  14  13   8  14   8  15   8  16   8  17   8
M  END
>  <minimizedAffinity>  (1) 
-3.03084302

>  <minimizedRMSD>  (1) 
0.424762309

$$$$
