
     RDKit          3D

 42 46  0  0  0  0  0  0  0  0999 V2000
   45.5620   33.1230   46.5220 C   0  0  0  0  0  0  0  0  0  0  0  0
   44.4180   36.2430   44.8430 C   0  0  0  0  0  0  0  0  0  0  0  0
   45.0420   36.1160   43.5830 C   0  0  0  0  0  0  0  0  0  0  0  0
   45.8220   34.9800   43.3550 C   0  0  0  0  0  0  0  0  0  0  0  0
   45.9550   34.0510   44.3300 N   0  0  0  0  0  0  0  0  0  0  0  0
   45.3380   34.2070   45.5330 C   0  0  0  0  0  0  0  0  0  0  0  0
   44.5870   35.2860   45.7740 N   0  0  0  0  0  0  0  0  0  0  0  0
   47.8280   35.1340   41.9860 C   0  0  0  0  0  0  0  0  0  0  0  0
   46.5140   34.7380   42.0950 C   0  0  0  0  0  0  0  0  0  0  0  0
   45.9520   34.1420   40.9990 C   0  0  0  0  0  0  0  0  0  0  0  0
   46.6410   33.9300   39.8230 C   0  0  0  0  0  0  0  0  0  0  0  0
   46.3170   33.3760   38.6270 N   0  0  0  0  0  0  0  0  0  0  0  0
   47.4220   33.4430   37.8290 C   0  0  0  0  0  0  0  0  0  0  0  0
   48.4470   34.0300   38.4860 N   0  0  0  0  0  0  0  0  0  0  0  0
   47.9580   34.3250   39.7100 C   0  0  0  0  0  0  0  0  0  0  0  0
   48.5100   34.9210   40.8120 C   0  0  0  0  0  0  0  0  0  0  0  0
   46.7950   32.0000   45.8430 S   0  0  0  0  0  0  0  0  0  0  0  0
   47.7320   31.2280   47.1500 C   0  0  0  0  0  0  0  0  0  0  0  0
   47.9800   31.9730   48.2820 C   0  0  0  0  0  0  0  0  0  0  0  0
   48.7080   31.3900   49.2930 C   0  0  0  0  0  0  0  0  0  0  0  0
   49.1880   30.0960   49.2010 C   0  0  0  0  0  0  0  0  0  0  0  0
   49.9020   29.5560   50.2100 N   0  0  0  0  0  0  0  0  0  0  0  0
   50.3750   28.2990   50.1260 C   0  0  0  0  0  0  0  0  0  0  0  0
   50.1390   27.5520   49.0170 C   0  0  0  0  0  0  0  0  0  0  0  0
   49.4130   28.0990   47.9930 C   0  0  0  0  0  0  0  0  0  0  0  0
   48.8980   29.4040   48.0310 C   0  0  0  0  0  0  0  0  0  0  0  0
   48.1760   29.9400   46.9920 C   0  0  0  0  0  0  0  0  0  0  0  0
   45.9260   33.5498   47.4682 H   0  0  0  0  0  0  0  0  0  0  0  0
   44.6229   32.5859   46.7209 H   0  0  0  0  0  0  0  0  0  0  0  0
   43.7950   37.1224   45.0633 H   0  0  0  0  0  0  0  0  0  0  0  0
   44.9181   36.8857   42.8070 H   0  0  0  0  0  0  0  0  0  0  0  0
   48.3304   35.6193   42.8358 H   0  0  0  0  0  0  0  0  0  0  0  0
   44.9028   33.8171   41.0585 H   0  0  0  0  0  0  0  0  0  0  0  0
   45.4031   32.9774   38.3686 H   0  0  0  0  0  0  0  0  0  0  0  0
   47.4716   33.0710   36.7950 H   0  0  0  0  0  0  0  0  0  0  0  0
   49.5587   35.2479   40.7545 H   0  0  0  0  0  0  0  0  0  0  0  0
   47.6069   33.0036   48.3746 H   0  0  0  0  0  0  0  0  0  0  0  0
   48.9151   31.9713   50.2036 H   0  0  0  0  0  0  0  0  0  0  0  0
   50.9550   27.8750   50.9590 H   0  0  0  0  0  0  0  0  0  0  0  0
   50.5246   26.5245   48.9424 H   0  0  0  0  0  0  0  0  0  0  0  0
   49.2246   27.4869   47.0987 H   0  0  0  0  0  0  0  0  0  0  0  0
   47.9646   29.3645   46.0787 H   0  0  0  0  0  0  0  0  0  0  0  0
  2  7  2  0
  3  2  1  0
  4  3  2  0
  4  5  1  0
  5  6  2  0
  6  7  1  0
  6  1  1  0
  8  9  2  0
  9  4  1  0
 10  9  1  0
 11 10  2  0
 12 11  1  0
 13 14  2  0
 13 12  1  0
 14 15  1  0
 15 11  1  0
 15 16  2  0
 16  8  1  0
 17  1  1  0
 17 18  1  0
 18 19  2  0
 19 20  1  0
 21 20  2  0
 21 22  1  0
 23 22  2  0
 24 23  1  0
 25 26  1  0
 25 24  2  0
 26 21  1  0
 27 18  1  0
 27 26  2  0
  1 28  1  0
  1 29  1  0
  2 30  1  0
  3 31  1  0
  8 32  1  0
 10 33  1  0
 12 34  1  0
 13 35  1  0
 16 36  1  0
 19 37  1  0
 20 38  1  0
 23 39  1  0
 24 40  1  0
 25 41  1  0
 27 42  1  0
M  ISO  8  28   8  29   8  30  14  31  14  32  14  33  14  34   9  35  14
M  ISO  7  36  14  37  14  38  14  39  14  40  14  41  14  42  14
M  END
>  <minimizedAffinity>  (1) 
-7.00924253

>  <minimizedRMSD>  (1) 
1.04612231

$$$$
