
     RDKit          3D

 39 42  0  0  0  0  0  0  0  0999 V2000
   45.5570   33.1670   46.4640 C   0  0  0  0  0  0  0  0  0  0  0  0
   44.4040   36.2800   44.7830 C   0  0  0  0  0  0  0  0  0  0  0  0
   45.0510   36.1610   43.5590 C   0  0  0  0  0  0  0  0  0  0  0  0
   45.8610   35.0570   43.3020 C   0  0  0  0  0  0  0  0  0  0  0  0
   45.9810   34.1180   44.2990 N   0  0  0  0  0  0  0  0  0  0  0  0
   45.3390   34.2560   45.4840 C   0  0  0  0  0  0  0  0  0  0  0  0
   44.5740   35.3280   45.6890 N   0  0  0  0  0  0  0  0  0  0  0  0
   44.6880   33.1760   41.0500 Cl  0  0  0  0  0  0  0  0  0  0  0  0
   46.2430   33.9600   41.0310 C   0  0  0  0  0  0  0  0  0  0  0  0
   46.5950   34.7490   42.0920 C   0  0  0  0  0  0  0  0  0  0  0  0
   47.8350   35.3260   41.9180 C   0  0  0  0  0  0  0  0  0  0  0  0
   48.6240   35.1290   40.8110 C   0  0  0  0  0  0  0  0  0  0  0  0
   48.2180   34.3330   39.7910 C   0  0  0  0  0  0  0  0  0  0  0  0
   46.9930   33.7310   39.9040 C   0  0  0  0  0  0  0  0  0  0  0  0
   46.7580   32.0180   45.7640 S   0  0  0  0  0  0  0  0  0  0  0  0
   47.7010   31.2270   47.0480 C   0  0  0  0  0  0  0  0  0  0  0  0
   47.9190   31.9430   48.2020 C   0  0  0  0  0  0  0  0  0  0  0  0
   48.6450   31.3440   49.2100 C   0  0  0  0  0  0  0  0  0  0  0  0
   49.1500   30.0620   49.0930 C   0  0  0  0  0  0  0  0  0  0  0  0
   49.8530   29.4990   50.0900 N   0  0  0  0  0  0  0  0  0  0  0  0
   50.3500   28.2550   49.9970 C   0  0  0  0  0  0  0  0  0  0  0  0
   50.1320   27.5360   48.8410 C   0  0  0  0  0  0  0  0  0  0  0  0
   49.4070   28.1000   47.7950 C   0  0  0  0  0  0  0  0  0  0  0  0
   48.8870   29.4050   47.8970 C   0  0  0  0  0  0  0  0  0  0  0  0
   48.1750   29.9490   46.8640 C   0  0  0  0  0  0  0  0  0  0  0  0
   45.9443   33.5841   47.4053 H   0  0  0  0  0  0  0  0  0  0  0  0
   44.6103   32.6481   46.6750 H   0  0  0  0  0  0  0  0  0  0  0  0
   43.7628   37.1481   44.9958 H   0  0  0  0  0  0  0  0  0  0  0  0
   44.9235   36.9393   42.7922 H   0  0  0  0  0  0  0  0  0  0  0  0
   48.2154   35.9837   42.7135 H   0  0  0  0  0  0  0  0  0  0  0  0
   49.6034   35.6262   40.7508 H   0  0  0  0  0  0  0  0  0  0  0  0
   48.8500   34.1764   38.9044 H   0  0  0  0  0  0  0  0  0  0  0  0
   46.6164   33.0751   39.1053 H   0  0  0  0  0  0  0  0  0  0  0  0
   47.5257   32.9638   48.3175 H   0  0  0  0  0  0  0  0  0  0  0  0
   48.8285   31.9049   50.1383 H   0  0  0  0  0  0  0  0  0  0  0  0
   50.9212   27.8171   50.8288 H   0  0  0  0  0  0  0  0  0  0  0  0
   50.5314   26.5156   48.7451 H   0  0  0  0  0  0  0  0  0  0  0  0
   49.2380   27.5187   46.8765 H   0  0  0  0  0  0  0  0  0  0  0  0
   47.9907   29.3927   45.9331 H   0  0  0  0  0  0  0  0  0  0  0  0
  2  7  2  0
  3  2  1  0
  4  3  2  0
  4  5  1  0
  5  6  2  0
  6  7  1  0
  6  1  1  0
  9  8  1  0
  9 10  2  0
 10  4  1  0
 11 10  1  0
 12 11  2  0
 13 14  2  0
 13 12  1  0
 14  9  1  0
 15  1  1  0
 15 16  1  0
 16 17  2  0
 17 18  1  0
 19 18  2  0
 19 20  1  0
 21 20  2  0
 22 21  1  0
 23 24  1  0
 23 22  2  0
 24 19  1  0
 25 16  1  0
 25 24  2  0
  1 26  1  0
  1 27  1  0
  2 28  1  0
  3 29  1  0
 11 30  1  0
 12 31  1  0
 13 32  1  0
 14 33  1  0
 17 34  1  0
 18 35  1  0
 21 36  1  0
 22 37  1  0
 23 38  1  0
 25 39  1  0
M  ISO  8  26   8  27   8  28  14  29  14  30  14  31  14  32  14  33  14
M  ISO  6  34  14  35  14  36  14  37  14  38  14  39  14
M  END
>  <minimizedAffinity>  (1) 
-6.58760738

>  <minimizedRMSD>  (1) 
1.09454918

$$$$
