
     RDKit          3D

 27 29  0  0  0  0  0  0  0  0999 V2000
   46.5130   32.6240   45.4580 C   0  0  0  0  0  0  0  0  0  0  0  0
   47.4510   31.9930   44.6760 C   0  0  0  0  0  0  0  0  0  0  0  0
   47.8570   32.4380   43.4380 C   0  0  0  0  0  0  0  0  0  0  0  0
   47.3190   33.5870   42.9060 C   0  0  0  0  0  0  0  0  0  0  0  0
   46.3800   34.2550   43.6470 C   0  0  0  0  0  0  0  0  0  0  0  0
   45.8510   35.4040   43.1000 C   0  0  0  0  0  0  0  0  0  0  0  0
   44.9000   36.1290   43.7870 C   0  0  0  0  0  0  0  0  0  0  0  0
   44.5100   35.6470   45.0410 C   0  0  0  0  0  0  0  0  0  0  0  0
   45.0720   34.4930   45.5400 C   0  0  0  0  0  0  0  0  0  0  0  0
   46.0200   33.7530   44.8750 C   0  0  0  0  0  0  0  0  0  0  0  0
   45.6640   32.0230   49.0470 C   0  0  0  0  0  0  0  0  0  0  0  0
   45.3220   30.6620   48.9970 C   0  0  0  0  0  0  0  0  0  0  0  0
   45.4030   30.0430   47.7480 C   0  0  0  0  0  0  0  0  0  0  0  0
   45.7990   30.8140   46.7250 N   0  0  0  0  0  0  0  0  0  0  0  0
   46.1260   32.1020   46.7580 C   0  0  0  0  0  0  0  0  0  0  0  0
   46.0440   32.6730   47.9480 N   0  0  0  0  0  0  0  0  0  0  0  0
   44.9950   28.3020   47.5230 S   0  0  0  0  0  0  0  0  0  0  0  0
   47.9077   31.0711   45.0653 H   0  0  0  0  0  0  0  0  0  0  0  0
   48.6133   31.8735   42.8729 H   0  0  0  0  0  0  0  0  0  0  0  0
   47.6323   33.9570   41.9186 H   0  0  0  0  0  0  0  0  0  0  0  0
   46.1891   35.7446   42.1102 H   0  0  0  0  0  0  0  0  0  0  0  0
   44.4661   37.0481   43.3664 H   0  0  0  0  0  0  0  0  0  0  0  0
   43.7546   36.1896   45.6283 H   0  0  0  0  0  0  0  0  0  0  0  0
   44.7426   34.1429   46.5294 H   0  0  0  0  0  0  0  0  0  0  0  0
   45.6175   32.5595   50.0062 H   0  0  0  0  0  0  0  0  0  0  0  0
   45.0065   30.1117   49.8957 H   0  0  0  0  0  0  0  0  0  0  0  0
   44.8548   27.7039   48.7475 H   0  0  0  0  0  0  0  0  0  0  0  0
  1 15  1  0
  2  1  2  0
  3  2  1  0
  4  3  2  0
  4  5  1  0
  5 10  2  0
  6  5  1  0
  6  7  2  0
  7  8  1  0
  8  9  2  0
 10  1  1  0
 10  9  1  0
 12 11  2  0
 13 12  1  0
 14 15  1  0
 14 13  2  0
 15 16  2  0
 16 11  1  0
 17 13  1  0
  2 18  1  0
  3 19  1  0
  4 20  1  0
  6 21  1  0
  7 22  1  0
  8 23  1  0
  9 24  1  0
 11 25  1  0
 12 26  1  0
 17 27  1  0
M  ISO  8  18  14  19  14  20  14  21  14  22  14  23  14  24  14  25  14
M  ISO  2  26  14  27  11
M  END
>  <minimizedAffinity>  (1) 
-5.76123333

>  <minimizedRMSD>  (1) 
5.3705492

$$$$
