
     RDKit          3D

 28 29  0  0  1  0  0  0  0  0999 V2000
   45.8630   32.5170   47.7650 C   0  0  2  0  0  0  0  0  0  0  0  0
   46.3060   32.4480   46.3380 C   0  0  1  0  0  0  0  0  0  0  0  0
   45.8230   31.2560   45.7960 O   0  0  0  0  0  0  0  0  0  0  0  0
   46.6730   30.2390   46.2240 C   0  0  0  0  0  0  0  0  0  0  0  0
   46.8530   30.1990   47.7060 C   0  0  2  0  0  0  0  0  0  0  0  0
   46.0490   31.2100   48.4590 C   0  0  1  0  0  0  0  0  0  0  0  0
   44.6020   35.5470   45.1190 C   0  0  0  0  0  0  0  0  0  0  0  0
   45.0900   35.6110   43.7840 C   0  0  0  0  0  0  0  0  0  0  0  0
   45.9730   34.5850   43.3930 C   0  0  0  0  0  0  0  0  0  0  0  0
   46.3000   33.6110   44.2970 N   0  0  0  0  0  0  0  0  0  0  0  0
   45.8030   33.6090   45.5420 C   0  0  0  0  0  0  0  0  0  0  0  0
   44.9570   34.5680   45.9600 N   0  0  0  0  0  0  0  0  0  0  0  0
   46.6350   34.5900   41.7320 S   0  0  0  0  0  0  0  0  0  0  0  0
   44.5050   32.8750   47.7760 O   0  0  0  0  0  0  0  0  0  0  0  0
   48.2280   30.2470   48.0210 O   0  0  0  0  0  0  0  0  0  0  0  0
   46.7320   31.4740   49.6670 O   0  0  0  0  0  0  0  0  0  0  0  0
   46.4713   33.2606   48.3007 H   0  0  0  0  0  0  0  0  0  0  0  0
   47.4048   32.4831   46.3007 H   0  0  0  0  0  0  0  0  0  0  0  0
   46.2551   29.2752   45.8976 H   0  0  0  0  0  0  0  0  0  0  0  0
   47.6613   30.4353   45.7827 H   0  0  0  0  0  0  0  0  0  0  0  0
   46.4416   29.2392   48.0518 H   0  0  0  0  0  0  0  0  0  0  0  0
   45.0459   30.7769   48.5863 H   0  0  0  0  0  0  0  0  0  0  0  0
   43.9109   36.3270   45.4712 H   0  0  0  0  0  0  0  0  0  0  0  0
   44.7944   36.4165   43.0956 H   0  0  0  0  0  0  0  0  0  0  0  0
   48.0039   34.6003   41.7860 H   0  0  0  0  0  0  0  0  0  0  0  0
   44.1930   32.9573   48.7119 H   0  0  0  0  0  0  0  0  0  0  0  0
   48.3413   30.2510   49.0045 H   0  0  0  0  0  0  0  0  0  0  0  0
   46.1470   31.2479   50.4330 H   0  0  0  0  0  0  0  0  0  0  0  0
  1 14  1  0
  1  6  1  0
  2 11  1  0
  2  1  1  0
  3  4  1  0
  3  2  1  0
  4  5  1  0
  5 15  1  0
  5  6  1  0
  6 16  1  0
  7 12  2  0
  8  7  1  0
  9  8  2  0
  9 10  1  0
 10 11  2  0
 11 12  1  0
 13  9  1  0
  1 17  1  1
  2 18  1  1
  4 19  1  0
  4 20  1  0
  5 21  1  1
  6 22  1  1
  7 23  1  0
  8 24  1  0
 13 25  1  0
 14 26  1  0
 15 27  1  0
 16 28  1  0
M  ISO  8  17  13  18  13  19  13  20  13  21  13  22  13  23  14  24  14
M  ISO  4  25  11  26   3  27   3  28   3
M  END
>  <minimizedAffinity>  (1) 
-5.5447464

>  <minimizedRMSD>  (1) 
0.945630312

$$$$
