
     RDKit          3D

 24 25  0  0  1  0  0  0  0  0999 V2000
   44.5910   35.6930   44.2860 C   0  0  0  0  0  0  0  0  0  0  0  0
   45.3330   35.6530   43.0730 C   0  0  0  0  0  0  0  0  0  0  0  0
   46.4180   34.7410   43.0210 C   0  0  0  0  0  0  0  0  0  0  0  0
   46.6750   33.9770   44.1170 N   0  0  0  0  0  0  0  0  0  0  0  0
   45.9460   34.0490   45.2420 C   0  0  0  0  0  0  0  0  0  0  0  0
   44.9050   34.9070   45.3260 N   0  0  0  0  0  0  0  0  0  0  0  0
   45.0140   32.9420   47.2640 C   0  0  1  0  0  0  0  0  0  0  0  0
   46.2440   33.2180   46.4000 C   0  0  1  0  0  0  0  0  0  0  0  0
   46.5820   31.9030   46.0910 O   0  0  0  0  0  0  0  0  0  0  0  0
   46.6300   31.2570   47.3100 C   0  0  0  0  0  0  0  0  0  0  0  0
   45.6310   31.9340   48.2210 C   0  0  1  0  0  0  0  0  0  0  0  0
   44.5760   34.0940   47.8710 O   0  0  0  0  0  0  0  0  0  0  0  0
   46.2960   32.6510   49.2210 O   0  0  0  0  0  0  0  0  0  0  0  0
   47.3990   34.6290   41.5360 S   0  0  0  0  0  0  0  0  0  0  0  0
   43.7401   36.3846   44.3728 H   0  0  0  0  0  0  0  0  0  0  0  0
   45.0781   36.2969   42.2184 H   0  0  0  0  0  0  0  0  0  0  0  0
   44.1102   32.5809   46.7514 H   0  0  0  0  0  0  0  0  0  0  0  0
   47.0484   33.7995   46.8740 H   0  0  0  0  0  0  0  0  0  0  0  0
   46.3655   30.1967   47.1841 H   0  0  0  0  0  0  0  0  0  0  0  0
   47.6423   31.3091   47.7372 H   0  0  0  0  0  0  0  0  0  0  0  0
   44.9344   31.2399   48.7139 H   0  0  0  0  0  0  0  0  0  0  0  0
   44.6174   33.9852   48.8541 H   0  0  0  0  0  0  0  0  0  0  0  0
   45.9991   32.3309   50.1095 H   0  0  0  0  0  0  0  0  0  0  0  0
   48.7189   34.4783   41.8709 H   0  0  0  0  0  0  0  0  0  0  0  0
  1  6  2  0
  2  1  1  0
  3  2  2  0
  3  4  1  0
  4  5  2  0
  5  6  1  0
  7 12  1  0
  7 11  1  0
  8  5  1  0
  8  7  1  0
  9  8  1  0
  9 10  1  0
 10 11  1  0
 11 13  1  0
 14  3  1  0
  1 15  1  0
  2 16  1  0
  7 17  1  6
  8 18  1  1
 10 19  1  0
 10 20  1  0
 11 21  1  1
 12 22  1  0
 13 23  1  0
 14 24  1  0
M  ISO  8  15  14  16  14  17  13  18  13  19  13  20  13  21  13  22   3
M  ISO  2  23   3  24  11
M  END
>  <minimizedAffinity>  (1) 
-5.11645842

>  <minimizedRMSD>  (1) 
0.613484681

$$$$
