
     RDKit          3D

 39 43  0  0  0  0  0  0  0  0999 V2000
   44.9830   33.2860   41.0240 Cl  0  0  0  0  0  0  0  0  0  0  0  0
   46.4930   34.1060   40.8940 C   0  0  0  0  0  0  0  0  0  0  0  0
   46.9780   34.8270   41.9630 C   0  0  0  0  0  0  0  0  0  0  0  0
   48.1980   35.5100   41.9040 C   0  0  0  0  0  0  0  0  0  0  0  0
   48.8720   35.4100   40.7100 C   0  0  0  0  0  0  0  0  0  0  0  0
   48.4040   34.7060   39.6570 C   0  0  0  0  0  0  0  0  0  0  0  0
   47.2080   34.0390   39.7230 C   0  0  0  0  0  0  0  0  0  0  0  0
   45.6460   33.9910   45.3030 C   0  0  0  0  0  0  0  0  0  0  0  0
   44.7130   35.0220   45.5160 C   0  0  0  0  0  0  0  0  0  0  0  0
   44.5530   35.9740   44.5370 C   0  0  0  0  0  0  0  0  0  0  0  0
   45.2980   35.8760   43.4090 N   0  0  0  0  0  0  0  0  0  0  0  0
   46.1990   34.8830   43.2010 C   0  0  0  0  0  0  0  0  0  0  0  0
   46.3590   33.9460   44.1610 N   0  0  0  0  0  0  0  0  0  0  0  0
   46.8210   33.3170   38.5040 C   0  0  0  0  0  0  0  0  0  0  0  0
   47.7400   33.2390   37.4610 C   0  0  0  0  0  0  0  0  0  0  0  0
   46.8200   32.2680   36.1820 S   0  0  0  0  0  0  0  0  0  0  0  0
   45.3260   32.1440   37.3310 C   0  0  0  0  0  0  0  0  0  0  0  0
   45.7050   32.7100   38.2210 N   0  0  0  0  0  0  0  0  0  0  0  0
   43.1460   31.2850   37.9550 C   0  0  0  0  0  0  0  0  0  0  0  0
   44.0650   31.4240   36.9360 C   0  0  0  0  0  0  0  0  0  0  0  0
   43.9380   30.9790   35.6360 C   0  0  0  0  0  0  0  0  0  0  0  0
   42.7600   30.3260   35.3370 C   0  0  0  0  0  0  0  0  0  0  0  0
   42.2990   29.7700   34.2010 N   0  0  0  0  0  0  0  0  0  0  0  0
   41.0860   29.2500   34.4090 N   0  0  0  0  0  0  0  0  0  0  0  0
   40.7480   29.4740   35.7120 C   0  0  0  0  0  0  0  0  0  0  0  0
   41.7910   30.1480   36.3010 C   0  0  0  0  0  0  0  0  0  0  0  0
   41.9940   30.6230   37.5800 C   0  0  0  0  0  0  0  0  0  0  0  0
   48.5906   36.0870   42.7543 H   0  0  0  0  0  0  0  0  0  0  0  0
   49.8373   35.9275   40.6077 H   0  0  0  0  0  0  0  0  0  0  0  0
   48.9933   34.6669   38.7290 H   0  0  0  0  0  0  0  0  0  0  0  0
   45.7939   33.2185   46.0720 H   0  0  0  0  0  0  0  0  0  0  0  0
   44.1249   35.0656   46.4446 H   0  0  0  0  0  0  0  0  0  0  0  0
   43.8356   36.7977   44.6665 H   0  0  0  0  0  0  0  0  0  0  0  0
   48.7585   33.6515   37.4099 H   0  0  0  0  0  0  0  0  0  0  0  0
   43.3153   31.6665   38.9727 H   0  0  0  0  0  0  0  0  0  0  0  0
   44.7266   31.1351   34.8851 H   0  0  0  0  0  0  0  0  0  0  0  0
   42.8060   29.7486   33.3047 H   0  0  0  0  0  0  0  0  0  0  0  0
   39.8111   29.1703   36.2019 H   0  0  0  0  0  0  0  0  0  0  0  0
   41.2060   30.4680   38.3317 H   0  0  0  0  0  0  0  0  0  0  0  0
  2  1  1  0
  2  3  2  0
  3 12  1  0
  4  3  1  0
  5  4  2  0
  6  7  2  0
  6  5  1  0
  7  2  1  0
  8  9  2  0
 10  9  1  0
 11 10  2  0
 12 11  1  0
 12 13  2  0
 13  8  1  0
 14  7  1  0
 15 14  2  0
 16 17  1  0
 16 15  1  0
 17 18  2  0
 18 14  1  0
 20 17  1  0
 20 19  2  0
 21 20  1  0
 22 21  2  0
 22 26  1  0
 23 24  1  0
 23 22  1  0
 24 25  2  0
 25 26  1  0
 26 27  2  0
 27 19  1  0
  4 28  1  0
  5 29  1  0
  6 30  1  0
  8 31  1  0
  9 32  1  0
 10 33  1  0
 15 34  1  0
 19 35  1  0
 21 36  1  0
 23 37  1  0
 25 38  1  0
 27 39  1  0
M  ISO  8  28  14  29  14  30  14  31  14  32  14  33  14  34  14  35  14
M  ISO  4  36  14  37   9  38  14  39  14
M  END
>  <minimizedAffinity>  (1) 
-6.60358715

>  <minimizedRMSD>  (1) 
1.78021133

$$$$
