
     RDKit          3D

 22 24  0  0  0  0  0  0  0  0999 V2000
   44.5290   35.9910   44.4730 C   0  0  0  0  0  0  0  0  0  0  0  0
   45.3220   35.8860   43.3130 C   0  0  0  0  0  0  0  0  0  0  0  0
   46.2380   34.8100   43.2540 C   0  0  0  0  0  0  0  0  0  0  0  0
   46.2890   33.9560   44.3170 N   0  0  0  0  0  0  0  0  0  0  0  0
   45.5100   34.1010   45.3990 C   0  0  0  0  0  0  0  0  0  0  0  0
   44.6250   35.1210   45.4830 N   0  0  0  0  0  0  0  0  0  0  0  0
   45.7440   33.0890   46.3730 N   0  0  0  0  0  0  0  0  0  0  0  0
   45.2070   33.2650   47.6130 C   0  0  0  0  0  0  0  0  0  0  0  0
   45.5500   32.1950   48.3730 N   0  0  0  0  0  0  0  0  0  0  0  0
   46.2940   31.3400   47.6470 C   0  0  0  0  0  0  0  0  0  0  0  0
   46.9300   30.1150   47.8260 C   0  0  0  0  0  0  0  0  0  0  0  0
   47.6200   29.5400   46.7990 N   0  0  0  0  0  0  0  0  0  0  0  0
   47.6820   30.1720   45.6020 C   0  0  0  0  0  0  0  0  0  0  0  0
   47.0770   31.3740   45.3710 N   0  0  0  0  0  0  0  0  0  0  0  0
   46.3940   31.9260   46.4150 C   0  0  0  0  0  0  0  0  0  0  0  0
   47.2760   34.6060   41.8260 S   0  0  0  0  0  0  0  0  0  0  0  0
   43.8065   36.8169   44.5499 H   0  0  0  0  0  0  0  0  0  0  0  0
   45.2325   36.6094   42.4892 H   0  0  0  0  0  0  0  0  0  0  0  0
   44.6020   34.1235   47.9401 H   0  0  0  0  0  0  0  0  0  0  0  0
   46.8761   29.6078   48.8006 H   0  0  0  0  0  0  0  0  0  0  0  0
   48.2425   29.6974   44.7831 H   0  0  0  0  0  0  0  0  0  0  0  0
   48.5611   34.3534   42.2279 H   0  0  0  0  0  0  0  0  0  0  0  0
  1  6  2  0
  2  1  1  0
  3  2  2  0
  3  4  1  0
  4  5  2  0
  5  6  1  0
  5  7  1  0
  7 15  1  0
  7  8  1  0
  8  9  2  0
 10 11  2  0
 10  9  1  0
 12 11  1  0
 13 12  2  0
 14 13  1  0
 14 15  2  0
 15 10  1  0
 16  3  1  0
  1 17  1  0
  2 18  1  0
  8 19  1  0
 11 20  1  0
 13 21  1  0
 16 22  1  0
M  ISO  6  17  14  18  14  19  14  20  14  21  14  22  11
M  END
>  <minimizedAffinity>  (1) 
-5.06994486

>  <minimizedRMSD>  (1) 
0.130753294

$$$$
