
     RDKit          3D

 21 22  0  0  0  0  0  0  0  0999 V2000
   44.5290   35.6970   44.8220 C   0  0  0  0  0  0  0  0  0  0  0  0
   45.2010   35.6430   43.5840 C   0  0  0  0  0  0  0  0  0  0  0  0
   46.1660   34.6390   43.4010 C   0  0  0  0  0  0  0  0  0  0  0  0
   46.3850   33.7820   44.4390 N   0  0  0  0  0  0  0  0  0  0  0  0
   45.7330   33.8540   45.6060 C   0  0  0  0  0  0  0  0  0  0  0  0
   44.8060   34.8100   45.7990 N   0  0  0  0  0  0  0  0  0  0  0  0
   46.0150   32.9150   46.6630 C   0  0  0  0  0  0  0  0  0  0  0  0
   47.1220   32.0920   46.6160 C   0  0  0  0  0  0  0  0  0  0  0  0
   47.4580   31.1730   47.5830 C   0  0  0  0  0  0  0  0  0  0  0  0
   46.5850   31.1120   48.6580 C   0  0  0  0  0  0  0  0  0  0  0  0
   45.4590   31.8990   48.7790 C   0  0  0  0  0  0  0  0  0  0  0  0
   45.1940   32.7960   47.7660 C   0  0  0  0  0  0  0  0  0  0  0  0
   47.0480   34.5190   41.8620 S   0  0  0  0  0  0  0  0  0  0  0  0
   43.7685   36.4731   44.9933 H   0  0  0  0  0  0  0  0  0  0  0  0
   44.9764   36.3653   42.7854 H   0  0  0  0  0  0  0  0  0  0  0  0
   47.7839   32.1771   45.7415 H   0  0  0  0  0  0  0  0  0  0  0  0
   48.3512   30.5353   47.5088 H   0  0  0  0  0  0  0  0  0  0  0  0
   46.8032   30.3936   49.4619 H   0  0  0  0  0  0  0  0  0  0  0  0
   44.7959   31.8141   49.6526 H   0  0  0  0  0  0  0  0  0  0  0  0
   44.3020   33.4356   47.8391 H   0  0  0  0  0  0  0  0  0  0  0  0
   48.3824   34.3374   42.1134 H   0  0  0  0  0  0  0  0  0  0  0  0
  1  6  2  0
  2  1  1  0
  3  2  2  0
  3  4  1  0
  4  5  2  0
  5  6  1  0
  5  7  1  0
  7 12  1  0
  8  7  2  0
  8  9  1  0
  9 10  2  0
 10 11  1  0
 12 11  2  0
 13  3  1  0
  1 14  1  0
  2 15  1  0
  8 16  1  0
  9 17  1  0
 10 18  1  0
 11 19  1  0
 12 20  1  0
 13 21  1  0
M  ISO  8  14  14  15  14  16  14  17  14  18  14  19  14  20  14  21  11
M  END
>  <minimizedAffinity>  (1) 
-4.87402487

>  <minimizedRMSD>  (1) 
0.497435838

$$$$
