
     RDKit          3D

 25 26  0  0  0  0  0  0  0  0999 V2000
   44.5590   35.5790   44.8680 C   0  0  0  0  0  0  0  0  0  0  0  0
   45.2290   35.3610   43.6390 C   0  0  0  0  0  0  0  0  0  0  0  0
   46.1490   34.2890   43.5930 C   0  0  0  0  0  0  0  0  0  0  0  0
   46.3370   33.5440   44.7010 N   0  0  0  0  0  0  0  0  0  0  0  0
   45.6700   33.7940   45.8570 C   0  0  0  0  0  0  0  0  0  0  0  0
   44.7890   34.8000   45.9440 N   0  0  0  0  0  0  0  0  0  0  0  0
   45.9330   32.9530   46.9820 N   0  0  0  0  0  0  0  0  0  0  0  0
   47.2310   32.3640   47.1160 C   0  0  0  0  0  0  0  0  0  0  0  0
   47.5070   31.9720   48.5260 C   0  0  0  0  0  0  0  0  0  0  0  0
   46.4730   31.2700   49.2040 N   0  0  0  0  0  0  0  0  0  0  0  0
   45.1530   31.3940   48.6620 C   0  0  0  0  0  0  0  0  0  0  0  0
   44.9270   32.6930   47.9670 C   0  0  0  0  0  0  0  0  0  0  0  0
   47.0270   33.9610   42.0670 S   0  0  0  0  0  0  0  0  0  0  0  0
   43.8344   36.4029   44.9462 H   0  0  0  0  0  0  0  0  0  0  0  0
   45.0419   35.9967   42.7610 H   0  0  0  0  0  0  0  0  0  0  0  0
   47.2855   31.4692   46.4786 H   0  0  0  0  0  0  0  0  0  0  0  0
   47.9818   33.1075   46.8101 H   0  0  0  0  0  0  0  0  0  0  0  0
   48.4011   31.3313   48.5257 H   0  0  0  0  0  0  0  0  0  0  0  0
   47.6231   32.9189   49.0737 H   0  0  0  0  0  0  0  0  0  0  0  0
   46.7197   30.2700   49.2006 H   0  0  0  0  0  0  0  0  0  0  0  0
   44.9922   30.5786   47.9414 H   0  0  0  0  0  0  0  0  0  0  0  0
   44.4464   31.3445   49.5036 H   0  0  0  0  0  0  0  0  0  0  0  0
   44.9410   33.5022   48.7120 H   0  0  0  0  0  0  0  0  0  0  0  0
   43.9543   32.6417   47.4559 H   0  0  0  0  0  0  0  0  0  0  0  0
   48.2819   33.4922   42.3539 H   0  0  0  0  0  0  0  0  0  0  0  0
  1  6  2  0
  2  1  1  0
  3  2  2  0
  3  4  1  0
  4  5  2  0
  5  6  1  0
  5  7  1  0
  7  8  1  0
  7 12  1  0
  8  9  1  0
  9 10  1  0
 11 10  1  0
 12 11  1  0
 13  3  1  0
  1 14  1  0
  2 15  1  0
  8 16  1  0
  8 17  1  0
  9 18  1  0
  9 19  1  0
 10 20  1  0
 11 21  1  0
 11 22  1  0
 12 23  1  0
 12 24  1  0
 13 25  1  0
M  ISO  8  14  14  15  14  16  13  17  13  18  13  19  13  20   5  21  13
M  ISO  4  22  13  23  13  24  13  25  11
M  END
>  <minimizedAffinity>  (1) 
-4.78126955

>  <minimizedRMSD>  (1) 
0.661586881

$$$$
