
     RDKit          3D

 13 13  0  0  0  0  0  0  0  0999 V2000
   44.6100   36.0960   44.3520 C   0  0  0  0  0  0  0  0  0  0  0  0
   45.4120   35.6950   43.2590 C   0  0  0  0  0  0  0  0  0  0  0  0
   46.1770   34.5250   43.3850 C   0  0  0  0  0  0  0  0  0  0  0  0
   46.1060   33.8400   44.5540 N   0  0  0  0  0  0  0  0  0  0  0  0
   45.3340   34.2490   45.5730 C   0  0  0  0  0  0  0  0  0  0  0  0
   44.5940   35.3600   45.4820 N   0  0  0  0  0  0  0  0  0  0  0  0
   45.2870   33.4930   46.7970 N   0  0  0  0  0  0  0  0  0  0  0  0
   47.1990   33.9900   42.0230 S   0  0  0  0  0  0  0  0  0  0  0  0
   43.9992   37.0081   44.2808 H   0  0  0  0  0  0  0  0  0  0  0  0
   45.4359   36.2861   42.3316 H   0  0  0  0  0  0  0  0  0  0  0  0
   44.6931   33.8109   47.5762 H   0  0  0  0  0  0  0  0  0  0  0  0
   45.8473   32.6342   46.8937 H   0  0  0  0  0  0  0  0  0  0  0  0
   48.3337   33.3960   42.5093 H   0  0  0  0  0  0  0  0  0  0  0  0
  1  6  2  0
  2  3  2  0
  2  1  1  0
  3  4  1  0
  4  5  2  0
  5  7  1  0
  6  5  1  0
  8  3  1  0
  1  9  1  0
  2 10  1  0
  7 11  1  0
  7 12  1  0
  8 13  1  0
M  ISO  3   9  14  10  14  13  11
M  END
>  <minimizedAffinity>  (1) 
-3.53236103

>  <minimizedRMSD>  (1) 
0.397876531

$$$$
