
     RDKit          3D

 13 13  0  0  0  0  0  0  0  0999 V2000
   44.5290   35.9670   44.5710 C   0  0  0  0  0  0  0  0  0  0  0  0
   45.2360   35.8540   43.3470 C   0  0  0  0  0  0  0  0  0  0  0  0
   46.1430   34.7840   43.2170 C   0  0  0  0  0  0  0  0  0  0  0  0
   46.2830   33.9340   44.2610 N   0  0  0  0  0  0  0  0  0  0  0  0
   45.5910   34.0800   45.4050 C   0  0  0  0  0  0  0  0  0  0  0  0
   44.7200   35.0780   45.5750 N   0  0  0  0  0  0  0  0  0  0  0  0
   45.8040   33.1190   46.4800 C   0  0  0  0  0  0  0  0  0  0  0  0
   45.0890   33.0880   47.5140 O   0  0  0  0  0  0  0  0  0  0  0  0
   47.0640   34.5850   41.7050 S   0  0  0  0  0  0  0  0  0  0  0  0
   43.8130   36.7909   44.7075 H   0  0  0  0  0  0  0  0  0  0  0  0
   45.0821   36.5744   42.5301 H   0  0  0  0  0  0  0  0  0  0  0  0
   46.6233   32.3915   46.3829 H   0  0  0  0  0  0  0  0  0  0  0  0
   48.3716   34.3025   42.0006 H   0  0  0  0  0  0  0  0  0  0  0  0
  1  6  2  0
  2  1  1  0
  3  2  2  0
  3  4  1  0
  4  5  2  0
  5  6  1  0
  5  7  1  0
  7  8  2  0
  9  3  1  0
  1 10  1  0
  2 11  1  0
  7 12  1  0
  9 13  1  0
M  ISO  4  10  14  11  14  12   6  13  11
M  END
>  <minimizedAffinity>  (1) 
-3.48136735

>  <minimizedRMSD>  (1) 
0.0983366594

$$$$
