
     RDKit          3D

 12 12  0  0  0  0  0  0  0  0999 V2000
   44.5950   36.1620   44.4760 C   0  0  0  0  0  0  0  0  0  0  0  0
   45.3410   35.9930   43.2680 C   0  0  0  0  0  0  0  0  0  0  0  0
   46.1100   34.8220   43.1740 C   0  0  0  0  0  0  0  0  0  0  0  0
   46.1100   33.9360   44.2010 N   0  0  0  0  0  0  0  0  0  0  0  0
   45.3900   34.1450   45.3160 C   0  0  0  0  0  0  0  0  0  0  0  0
   44.6360   35.2470   45.4580 N   0  0  0  0  0  0  0  0  0  0  0  0
   47.0670   34.5420   41.6970 S   0  0  0  0  0  0  0  0  0  0  0  0
   45.3500   33.2750   46.3980 O   0  0  0  0  0  0  0  0  0  0  0  0
   43.9741   37.0610   44.6037 H   0  0  0  0  0  0  0  0  0  0  0  0
   45.3140   36.7376   42.4588 H   0  0  0  0  0  0  0  0  0  0  0  0
   48.3397   34.1696   42.0412 H   0  0  0  0  0  0  0  0  0  0  0  0
   44.7961   33.4937   47.1888 H   0  0  0  0  0  0  0  0  0  0  0  0
  1  6  2  0
  2  1  1  0
  3  2  2  0
  3  4  1  0
  4  5  2  0
  5  6  1  0
  5  8  1  0
  7  3  1  0
  1  9  1  0
  2 10  1  0
  7 11  1  0
  8 12  1  0
M  ISO  4   9  14  10  14  11  11  12   3
M  END
>  <minimizedAffinity>  (1) 
-3.40590549

>  <minimizedRMSD>  (1) 
0.147921786

$$$$
