
     RDKit          3D

 23 24  0  0  1  0  0  0  0  0999 V2000
   47.6070   35.1700   41.9310 C   0  0  2  0  0  0  0  0  0  0  0  0
   45.8980   34.8650   43.6200 C   0  0  0  0  0  0  0  0  0  0  0  0
   47.0980   34.4300   43.0820 C   0  0  0  0  0  0  0  0  0  0  0  0
   47.6920   33.3260   43.6950 C   0  0  0  0  0  0  0  0  0  0  0  0
   47.0610   32.7780   44.7520 N   0  0  0  0  0  0  0  0  0  0  0  0
   45.9040   33.2220   45.2450 C   0  0  0  0  0  0  0  0  0  0  0  0
   45.3080   34.2790   44.6800 N   0  0  0  0  0  0  0  0  0  0  0  0
   47.2960   34.5000   40.6370 C   0  0  0  0  0  0  0  0  0  0  0  0
   48.2040   34.4160   39.6100 C   0  0  0  0  0  0  0  0  0  0  0  0
   47.6240   33.7370   38.5390 C   0  0  0  0  0  0  0  0  0  0  0  0
   46.3730   33.4290   38.9580 N   0  0  0  0  0  0  0  0  0  0  0  0
   46.1850   33.8850   40.2030 N   0  0  0  0  0  0  0  0  0  0  0  0
   49.1190   35.1980   42.0650 C   0  0  0  0  0  0  0  0  0  0  0  0
   47.1412   36.1665   41.9223 H   0  0  0  0  0  0  0  0  0  0  0  0
   45.4022   35.7319   43.1589 H   0  0  0  0  0  0  0  0  0  0  0  0
   48.6444   32.9164   43.3273 H   0  0  0  0  0  0  0  0  0  0  0  0
   45.4427   32.7230   46.1100 H   0  0  0  0  0  0  0  0  0  0  0  0
   49.2268   34.8203   39.6293 H   0  0  0  0  0  0  0  0  0  0  0  0
   48.0820   33.5027   37.5667 H   0  0  0  0  0  0  0  0  0  0  0  0
   45.6712   32.9200   38.4019 H   0  0  0  0  0  0  0  0  0  0  0  0
   49.3926   35.2031   43.1304 H   0  0  0  0  0  0  0  0  0  0  0  0
   49.5466   34.3076   41.5808 H   0  0  0  0  0  0  0  0  0  0  0  0
   49.5133   36.1036   41.5808 H   0  0  0  0  0  0  0  0  0  0  0  0
  1 13  1  0
  1  3  1  0
  2  7  2  0
  3  2  1  0
  3  4  2  0
  4  5  1  0
  5  6  2  0
  7  6  1  0
  8  1  1  0
  9  8  1  0
 10 11  1  0
 10  9  2  0
 11 12  1  0
 12  8  2  0
  1 14  1  6
  2 15  1  0
  4 16  1  0
  6 17  1  0
  9 18  1  0
 10 19  1  0
 11 20  1  0
 13 21  1  0
 13 22  1  0
 13 23  1  0
M  ISO  8  14   8  15  14  16  14  17  14  18  14  19  14  20   9  21   8
M  ISO  2  22   8  23   8
M  END
>  <minimizedAffinity>  (1) 
-4.1392498

>  <minimizedRMSD>  (1) 
1.5276444

$$$$
