
     RDKit          3D

 31 32  0  0  1  0  0  0  0  0999 V2000
   47.7910   34.8760   41.6240 C   0  0  2  0  0  0  0  0  0  0  0  0
   45.7610   35.6030   42.8730 C   0  0  0  0  0  0  0  0  0  0  0  0
   46.8930   34.7620   42.7440 C   0  0  0  0  0  0  0  0  0  0  0  0
   47.0730   33.8500   43.7740 C   0  0  0  0  0  0  0  0  0  0  0  0
   46.1870   33.8130   44.8140 N   0  0  0  0  0  0  0  0  0  0  0  0
   45.1190   34.6460   44.8780 C   0  0  0  0  0  0  0  0  0  0  0  0
   44.9030   35.5560   43.8920 N   0  0  0  0  0  0  0  0  0  0  0  0
   47.8680   33.8220   40.6980 N   0  0  0  0  0  0  0  0  0  0  0  0
   47.0780   33.7510   39.5600 C   0  0  0  0  0  0  0  0  0  0  0  0
   48.0090   34.0280   38.3760 C   0  0  0  0  0  0  0  0  0  0  0  0
   48.8740   32.8000   38.2430 C   0  0  0  0  0  0  0  0  0  0  0  0
   49.1810   32.1350   39.5520 C   0  0  0  0  0  0  0  0  0  0  0  0
   49.0040   32.9740   40.7700 C   0  0  0  0  0  0  0  0  0  0  0  0
   49.2090   35.1760   42.2000 C   0  0  0  0  0  0  0  0  0  0  0  0
   47.3614   35.6798   41.0081 H   0  0  0  0  0  0  0  0  0  0  0  0
   45.5778   36.3435   42.0805 H   0  0  0  0  0  0  0  0  0  0  0  0
   47.9276   33.1577   43.7536 H   0  0  0  0  0  0  0  0  0  0  0  0
   44.4258   34.5851   45.7299 H   0  0  0  0  0  0  0  0  0  0  0  0
   46.6312   32.7501   39.4678 H   0  0  0  0  0  0  0  0  0  0  0  0
   46.2523   34.4767   39.5992 H   0  0  0  0  0  0  0  0  0  0  0  0
   47.4249   34.1873   37.4576 H   0  0  0  0  0  0  0  0  0  0  0  0
   48.6115   34.9344   38.5359 H   0  0  0  0  0  0  0  0  0  0  0  0
   48.3529   32.0760   37.5993 H   0  0  0  0  0  0  0  0  0  0  0  0
   49.8333   33.1269   37.8153 H   0  0  0  0  0  0  0  0  0  0  0  0
   48.5211   31.2602   39.6476 H   0  0  0  0  0  0  0  0  0  0  0  0
   50.2527   31.8898   39.5150 H   0  0  0  0  0  0  0  0  0  0  0  0
   49.9003   33.5986   40.8989 H   0  0  0  0  0  0  0  0  0  0  0  0
   48.8531   32.2927   41.6203 H   0  0  0  0  0  0  0  0  0  0  0  0
   49.1676   35.1673   43.2992 H   0  0  0  0  0  0  0  0  0  0  0  0
   49.9156   34.4075   41.8535 H   0  0  0  0  0  0  0  0  0  0  0  0
   49.5438   36.1649   41.8535 H   0  0  0  0  0  0  0  0  0  0  0  0
  1 14  1  0
  1  3  1  0
  2  7  2  0
  3  2  1  0
  3  4  2  0
  4  5  1  0
  5  6  2  0
  7  6  1  0
  8 13  1  0
  8  1  1  0
  9  8  1  0
 10  9  1  0
 11 10  1  0
 11 12  1  0
 12 13  1  0
  1 15  1  6
  2 16  1  0
  4 17  1  0
  6 18  1  0
  9 19  1  0
  9 20  1  0
 10 21  1  0
 10 22  1  0
 11 23  1  0
 11 24  1  0
 12 25  1  0
 12 26  1  0
 13 27  1  0
 13 28  1  0
 14 29  1  0
 14 30  1  0
 14 31  1  0
M  ISO  8  15   8  16  14  17  14  18  14  19  13  20  13  21  13  22  13
M  ISO  8  23  13  24  13  25  13  26  13  27  13  28  13  29   8  30   8
M  ISO  1  31   8
M  END
>  <minimizedAffinity>  (1) 
-4.11133432

>  <minimizedRMSD>  (1) 
1.56853771

$$$$
