
     RDKit          3D

 22 23  0  0  1  0  0  0  0  0999 V2000
   47.6220   35.1700   41.6920 C   0  0  2  0  0  0  0  0  0  0  0  0
   45.6580   35.5530   43.1590 C   0  0  0  0  0  0  0  0  0  0  0  0
   46.8170   34.8320   42.8750 C   0  0  0  0  0  0  0  0  0  0  0  0
   47.1950   33.7760   43.7490 C   0  0  0  0  0  0  0  0  0  0  0  0
   46.3880   33.5380   44.8220 N   0  0  0  0  0  0  0  0  0  0  0  0
   45.2860   34.2570   45.0530 C   0  0  0  0  0  0  0  0  0  0  0  0
   44.9330   35.2490   44.2270 N   0  0  0  0  0  0  0  0  0  0  0  0
   47.2750   34.3800   40.4800 C   0  0  0  0  0  0  0  0  0  0  0  0
   48.2200   34.3110   39.3610 C   0  0  0  0  0  0  0  0  0  0  0  0
   47.3460   33.2660   38.1880 S   0  0  0  0  0  0  0  0  0  0  0  0
   45.8470   33.0760   39.3670 C   0  0  0  0  0  0  0  0  0  0  0  0
   46.1490   33.7110   40.3150 N   0  0  0  0  0  0  0  0  0  0  0  0
   49.0830   35.0200   42.0560 C   0  0  0  0  0  0  0  0  0  0  0  0
   47.3984   36.2103   41.4131 H   0  0  0  0  0  0  0  0  0  0  0  0
   45.3449   36.3740   42.4972 H   0  0  0  0  0  0  0  0  0  0  0  0
   48.0995   33.1769   43.5673 H   0  0  0  0  0  0  0  0  0  0  0  0
   44.6626   34.0314   45.9308 H   0  0  0  0  0  0  0  0  0  0  0  0
   49.2107   34.7791   39.2640 H   0  0  0  0  0  0  0  0  0  0  0  0
   44.9205   32.5073   39.1992 H   0  0  0  0  0  0  0  0  0  0  0  0
   49.1889   35.0091   43.1508 H   0  0  0  0  0  0  0  0  0  0  0  0
   49.4694   34.0775   41.6409 H   0  0  0  0  0  0  0  0  0  0  0  0
   49.6529   35.8644   41.6409 H   0  0  0  0  0  0  0  0  0  0  0  0
  1 13  1  0
  1  3  1  0
  2  7  2  0
  3  2  1  0
  3  4  2  0
  4  5  1  0
  5  6  2  0
  7  6  1  0
  8  1  1  0
  9  8  2  0
 10  9  1  0
 10 11  1  0
 11 12  2  0
 12  8  1  0
  1 14  1  6
  2 15  1  0
  4 16  1  0
  6 17  1  0
  9 18  1  0
 11 19  1  0
 13 20  1  0
 13 21  1  0
 13 22  1  0
M  ISO  8  14   8  15  14  16  14  17  14  18  14  19  14  20   8  21   8
M  ISO  1  22   8
M  END
>  <minimizedAffinity>  (1) 
-3.99119639

>  <minimizedRMSD>  (1) 
1.35289514

$$$$
