
     RDKit          3D

 23 24  0  0  1  0  0  0  0  0999 V2000
   45.9180   35.4200   42.8230 C   0  0  0  0  0  0  0  0  0  0  0  0
   47.1660   34.8200   42.6120 C   0  0  0  0  0  0  0  0  0  0  0  0
   47.5400   33.8200   43.5100 C   0  0  0  0  0  0  0  0  0  0  0  0
   46.6880   33.4960   44.5190 N   0  0  0  0  0  0  0  0  0  0  0  0
   45.4930   34.1020   44.6820 C   0  0  0  0  0  0  0  0  0  0  0  0
   45.1000   35.0760   43.8260 N   0  0  0  0  0  0  0  0  0  0  0  0
   47.9730   35.2510   41.4990 C   0  0  1  0  0  0  0  0  0  0  0  0
   49.3680   35.5550   42.0020 C   0  0  0  0  0  0  0  0  0  0  0  0
   48.1090   34.0450   40.5640 C   0  0  0  0  0  0  0  0  0  0  0  0
   46.9380   33.6190   39.7590 C   0  0  0  0  0  0  0  0  0  0  0  0
   48.0880   34.2820   39.0840 C   0  0  0  0  0  0  0  0  0  0  0  0
   45.5942   36.2119   42.1316 H   0  0  0  0  0  0  0  0  0  0  0  0
   48.5054   33.3036   43.4039 H   0  0  0  0  0  0  0  0  0  0  0  0
   44.8360   33.8042   45.5125 H   0  0  0  0  0  0  0  0  0  0  0  0
   47.5267   36.1288   41.0088 H   0  0  0  0  0  0  0  0  0  0  0  0
   49.3692   35.5553   43.1020 H   0  0  0  0  0  0  0  0  0  0  0  0
   50.0655   34.7878   41.6348 H   0  0  0  0  0  0  0  0  0  0  0  0
   49.6830   36.5429   41.6348 H   0  0  0  0  0  0  0  0  0  0  0  0
   48.7903   33.5424   41.2663 H   0  0  0  0  0  0  0  0  0  0  0  0
   46.7472   32.5486   39.5924 H   0  0  0  0  0  0  0  0  0  0  0  0
   45.8552   33.8068   39.8074 H   0  0  0  0  0  0  0  0  0  0  0  0
   48.7487   33.7016   38.4233 H   0  0  0  0  0  0  0  0  0  0  0  0
   48.2103   35.1596   38.4322 H   0  0  0  0  0  0  0  0  0  0  0  0
  1  6  2  0
  2  1  1  0
  2  3  2  0
  3  4  1  0
  4  5  2  0
  6  5  1  0
  7  8  1  0
  7  2  1  0
  9  7  1  0
 10  9  1  0
 11 10  1  0
 11  9  1  0
  1 12  1  0
  3 13  1  0
  5 14  1  0
  7 15  1  6
  8 16  1  0
  8 17  1  0
  8 18  1  0
  9 19  1  0
 10 20  1  0
 10 21  1  0
 11 22  1  0
 11 23  1  0
M  ISO  8  12  14  13  14  14  14  15   8  16   8  17   8  18   8  19  13
M  ISO  4  20  13  21  13  22  13  23  13
M  END
>  <minimizedAffinity>  (1) 
-3.92496943

>  <minimizedRMSD>  (1) 
1.36936498

$$$$
