
     RDKit          3D

 24 25  0  0  1  0  0  0  0  0999 V2000
   48.0510   34.9020   42.0690 C   0  0  2  0  0  0  0  0  0  0  0  0
   46.1010   34.9130   43.5550 C   0  0  0  0  0  0  0  0  0  0  0  0
   47.2750   34.2480   43.1390 C   0  0  0  0  0  0  0  0  0  0  0  0
   47.6450   33.0380   43.7540 C   0  0  0  0  0  0  0  0  0  0  0  0
   46.8200   32.5970   44.7230 N   0  0  0  0  0  0  0  0  0  0  0  0
   45.7080   33.2490   45.1010 C   0  0  0  0  0  0  0  0  0  0  0  0
   45.3370   34.3980   44.5310 N   0  0  0  0  0  0  0  0  0  0  0  0
   47.5530   34.4020   40.7520 C   0  0  0  0  0  0  0  0  0  0  0  0
   46.3090   33.9400   40.4130 C   0  0  0  0  0  0  0  0  0  0  0  0
   46.3000   33.5990   39.0930 N   0  0  0  0  0  0  0  0  0  0  0  0
   47.5540   33.8560   38.6270 C   0  0  0  0  0  0  0  0  0  0  0  0
   48.3100   34.3410   39.6280 N   0  0  0  0  0  0  0  0  0  0  0  0
   49.4890   34.5370   42.2410 C   0  0  0  0  0  0  0  0  0  0  0  0
   50.1380   35.3540   43.1420 O   0  0  0  0  0  0  0  0  0  0  0  0
   47.9405   35.9956   42.1125 H   0  0  0  0  0  0  0  0  0  0  0  0
   45.8105   35.8596   43.0759 H   0  0  0  0  0  0  0  0  0  0  0  0
   48.5510   32.4868   43.4619 H   0  0  0  0  0  0  0  0  0  0  0  0
   45.0857   32.8244   45.9025 H   0  0  0  0  0  0  0  0  0  0  0  0
   45.4522   33.8571   41.0978 H   0  0  0  0  0  0  0  0  0  0  0  0
   45.5053   33.2229   38.5564 H   0  0  0  0  0  0  0  0  0  0  0  0
   47.8948   33.6925   37.5940 H   0  0  0  0  0  0  0  0  0  0  0  0
   49.5487   33.4989   42.5999 H   0  0  0  0  0  0  0  0  0  0  0  0
   49.9829   34.6574   41.2655 H   0  0  0  0  0  0  0  0  0  0  0  0
   49.9139   35.0719   44.0641 H   0  0  0  0  0  0  0  0  0  0  0  0
  1 13  1  0
  1  3  1  0
  2  7  2  0
  3  2  1  0
  3  4  2  0
  4  5  1  0
  5  6  2  0
  7  6  1  0
  8  1  1  0
  9  8  2  0
 10  9  1  0
 11 10  1  0
 11 12  2  0
 12  8  1  0
 13 14  1  0
  1 15  1  6
  2 16  1  0
  4 17  1  0
  6 18  1  0
  9 19  1  0
 10 20  1  0
 11 21  1  0
 13 22  1  0
 13 23  1  0
 14 24  1  0
M  ISO  8  15   8  16  14  17  14  18  14  19  14  20   9  21  14  22   8
M  ISO  2  23   8  24   3
M  END
>  <minimizedAffinity>  (1) 
-4.47280359

>  <minimizedRMSD>  (1) 
0.505905092

$$$$
