
     RDKit          3D

 25 26  0  0  1  0  0  0  0  0999 V2000
   46.7960   35.1940   41.8010 C   0  0  2  0  0  0  0  0  0  0  0  0
   45.1910   36.0060   43.4660 C   0  0  0  0  0  0  0  0  0  0  0  0
   46.1390   35.0210   43.1090 C   0  0  0  0  0  0  0  0  0  0  0  0
   46.4220   33.9630   43.9870 C   0  0  0  0  0  0  0  0  0  0  0  0
   45.7380   33.9700   45.1470 N   0  0  0  0  0  0  0  0  0  0  0  0
   44.8400   34.9090   45.4760 C   0  0  0  0  0  0  0  0  0  0  0  0
   44.5610   35.9170   44.6570 N   0  0  0  0  0  0  0  0  0  0  0  0
   46.3280   34.1110   40.8870 C   0  0  0  0  0  0  0  0  0  0  0  0
   45.0660   33.8560   40.4210 C   0  0  0  0  0  0  0  0  0  0  0  0
   45.1070   32.7630   39.5980 N   0  0  0  0  0  0  0  0  0  0  0  0
   46.4080   32.3580   39.5690 C   0  0  0  0  0  0  0  0  0  0  0  0
   47.1440   33.1730   40.3500 N   0  0  0  0  0  0  0  0  0  0  0  0
   48.2740   35.1090   41.9880 C   0  0  0  0  0  0  0  0  0  0  0  0
   49.0040   35.6300   40.8400 N   0  0  0  0  0  0  0  0  0  0  0  0
   46.5447   36.1725   41.3658 H   0  0  0  0  0  0  0  0  0  0  0  0
   44.9684   36.8370   42.7806 H   0  0  0  0  0  0  0  0  0  0  0  0
   47.1546   33.1794   43.7434 H   0  0  0  0  0  0  0  0  0  0  0  0
   44.3231   34.8436   46.4448 H   0  0  0  0  0  0  0  0  0  0  0  0
   44.1646   34.4360   40.6681 H   0  0  0  0  0  0  0  0  0  0  0  0
   44.3141   32.3331   39.1007 H   0  0  0  0  0  0  0  0  0  0  0  0
   46.7959   31.5013   38.9983 H   0  0  0  0  0  0  0  0  0  0  0  0
   48.5525   35.6909   42.8789 H   0  0  0  0  0  0  0  0  0  0  0  0
   48.5396   34.0479   42.1043 H   0  0  0  0  0  0  0  0  0  0  0  0
   49.7989   36.1973   41.1673 H   0  0  0  0  0  0  0  0  0  0  0  0
   49.3532   34.8460   40.2705 H   0  0  0  0  0  0  0  0  0  0  0  0
  1 13  1  0
  1  3  1  0
  2  7  2  0
  3  2  1  0
  3  4  2  0
  4  5  1  0
  5  6  2  0
  7  6  1  0
  8  1  1  0
  9  8  2  0
 10  9  1  0
 11 10  1  0
 11 12  2  0
 12  8  1  0
 14 13  1  0
  1 15  1  6
  2 16  1  0
  4 17  1  0
  6 18  1  0
  9 19  1  0
 10 20  1  0
 11 21  1  0
 13 22  1  0
 13 23  1  0
 14 24  1  0
 14 25  1  0
M  ISO  8  15   8  16  14  17  14  18  14  19  14  20   9  21  14  22   8
M  ISO  3  23   8  24   5  25   5
M  END
>  <minimizedAffinity>  (1) 
-4.15936708

>  <minimizedRMSD>  (1) 
1.44944239

$$$$
