
     RDKit          3D

 24 25  0  0  1  0  0  0  0  0999 V2000
   47.4710   34.5200   40.6250 C   0  0  2  0  0  0  0  0  0  0  0  0
   49.5630   34.7170   41.8860 C   0  0  0  0  0  0  0  0  0  0  0  0
   48.6110   33.8650   41.2860 C   0  0  0  0  0  0  0  0  0  0  0  0
   48.7910   32.4720   41.3340 C   0  0  0  0  0  0  0  0  0  0  0  0
   49.8960   32.0480   41.9710 N   0  0  0  0  0  0  0  0  0  0  0  0
   50.7910   32.8610   42.5340 C   0  0  0  0  0  0  0  0  0  0  0  0
   50.6400   34.1940   42.5010 N   0  0  0  0  0  0  0  0  0  0  0  0
   46.3440   34.6120   41.6050 C   0  0  0  0  0  0  0  0  0  0  0  0
   46.3750   34.8190   42.9610 C   0  0  0  0  0  0  0  0  0  0  0  0
   45.1140   34.8390   43.4480 N   0  0  0  0  0  0  0  0  0  0  0  0
   44.2870   34.6410   42.3780 C   0  0  0  0  0  0  0  0  0  0  0  0
   45.0400   34.5030   41.2640 N   0  0  0  0  0  0  0  0  0  0  0  0
   47.0580   33.6970   39.4510 C   0  0  0  0  0  0  0  0  0  0  0  0
   48.1370   34.1530   38.0590 S   0  0  0  0  0  0  0  0  0  0  0  0
   47.7463   35.5285   40.2829 H   0  0  0  0  0  0  0  0  0  0  0  0
   49.4248   35.8077   41.8510 H   0  0  0  0  0  0  0  0  0  0  0  0
   48.0733   31.7733   40.8793 H   0  0  0  0  0  0  0  0  0  0  0  0
   51.6703   32.4303   43.0353 H   0  0  0  0  0  0  0  0  0  0  0  0
   47.2877   34.9490   43.5610 H   0  0  0  0  0  0  0  0  0  0  0  0
   44.8327   34.9761   44.4293 H   0  0  0  0  0  0  0  0  0  0  0  0
   43.1884   34.6006   42.4170 H   0  0  0  0  0  0  0  0  0  0  0  0
   47.1742   32.6278   39.6820 H   0  0  0  0  0  0  0  0  0  0  0  0
   46.0028   33.8806   39.2004 H   0  0  0  0  0  0  0  0  0  0  0  0
   49.3182   34.6522   38.5413 H   0  0  0  0  0  0  0  0  0  0  0  0
  1  3  1  0
  1  8  1  0
  2  7  2  0
  3  4  2  0
  3  2  1  0
  4  5  1  0
  5  6  2  0
  7  6  1  0
  8  9  2  0
  9 10  1  0
 11 10  1  0
 12  8  1  0
 12 11  2  0
 13  1  1  0
 14 13  1  0
  1 15  1  6
  2 16  1  0
  4 17  1  0
  6 18  1  0
  9 19  1  0
 10 20  1  0
 11 21  1  0
 13 22  1  0
 13 23  1  0
 14 24  1  0
M  ISO  8  15   8  16  14  17  14  18  14  19  14  20   9  21  14  22   8
M  ISO  2  23   8  24  11
M  END
>  <minimizedAffinity>  (1) 
-3.42943645

>  <minimizedRMSD>  (1) 
4.07581186

$$$$
