
     RDKit          3D

 33 36  0  0  0  0  0  0  0  0999 V2000
   44.8110   33.2740   41.1620 Cl  0  0  0  0  0  0  0  0  0  0  0  0
   46.3390   34.0580   40.9970 C   0  0  0  0  0  0  0  0  0  0  0  0
   46.8630   34.7610   42.0600 C   0  0  0  0  0  0  0  0  0  0  0  0
   48.1000   35.4130   41.9710 C   0  0  0  0  0  0  0  0  0  0  0  0
   48.7490   35.3030   40.7590 C   0  0  0  0  0  0  0  0  0  0  0  0
   48.2330   34.6140   39.7190 C   0  0  0  0  0  0  0  0  0  0  0  0
   47.0130   33.9720   39.8100 C   0  0  0  0  0  0  0  0  0  0  0  0
   45.6180   33.9650   45.4360 C   0  0  0  0  0  0  0  0  0  0  0  0
   44.7120   34.9910   45.6730 C   0  0  0  0  0  0  0  0  0  0  0  0
   44.5260   35.9470   44.6910 C   0  0  0  0  0  0  0  0  0  0  0  0
   45.2390   35.8390   43.5360 N   0  0  0  0  0  0  0  0  0  0  0  0
   46.1220   34.8340   43.3130 C   0  0  0  0  0  0  0  0  0  0  0  0
   46.2940   33.9110   44.2760 N   0  0  0  0  0  0  0  0  0  0  0  0
   46.5860   33.2680   38.6030 C   0  0  0  0  0  0  0  0  0  0  0  0
   47.4840   33.1640   37.5410 C   0  0  0  0  0  0  0  0  0  0  0  0
   46.5060   32.2120   36.2760 S   0  0  0  0  0  0  0  0  0  0  0  0
   45.0350   32.1380   37.4610 C   0  0  0  0  0  0  0  0  0  0  0  0
   45.4510   32.6930   38.3380 N   0  0  0  0  0  0  0  0  0  0  0  0
   43.7710   31.4730   37.1100 C   0  0  0  0  0  0  0  0  0  0  0  0
   43.4980   30.5730   36.1010 C   0  0  0  0  0  0  0  0  0  0  0  0
   42.1610   30.2460   36.1960 C   0  0  0  0  0  0  0  0  0  0  0  0
   41.6650   30.9620   37.2660 C   0  0  0  0  0  0  0  0  0  0  0  0
   42.6480   31.6660   37.7680 O   0  0  0  0  0  0  0  0  0  0  0  0
   48.5263   35.9766   42.8140 H   0  0  0  0  0  0  0  0  0  0  0  0
   49.7247   35.7957   40.6350 H   0  0  0  0  0  0  0  0  0  0  0  0
   48.7976   34.5625   38.7763 H   0  0  0  0  0  0  0  0  0  0  0  0
   45.7829   33.1928   46.2019 H   0  0  0  0  0  0  0  0  0  0  0  0
   44.1551   35.0420   46.6202 H   0  0  0  0  0  0  0  0  0  0  0  0
   43.8182   36.7758   44.8397 H   0  0  0  0  0  0  0  0  0  0  0  0
   48.5122   33.5482   37.4692 H   0  0  0  0  0  0  0  0  0  0  0  0
   44.2129   30.1878   35.3590 H   0  0  0  0  0  0  0  0  0  0  0  0
   41.6027   29.5536   35.5488 H   0  0  0  0  0  0  0  0  0  0  0  0
   40.6279   30.9444   37.6322 H   0  0  0  0  0  0  0  0  0  0  0  0
  2  1  1  0
  2  3  2  0
  3 12  1  0
  4  3  1  0
  5  4  2  0
  6  7  2  0
  6  5  1  0
  7  2  1  0
  8  9  2  0
 10  9  1  0
 11 10  2  0
 12 11  1  0
 12 13  2  0
 13  8  1  0
 14  7  1  0
 15 14  2  0
 16 17  1  0
 16 15  1  0
 17 18  2  0
 18 14  1  0
 19 17  1  0
 19 23  1  0
 20 21  1  0
 20 19  2  0
 21 22  2  0
 22 23  1  0
  4 24  1  0
  5 25  1  0
  6 26  1  0
  8 27  1  0
  9 28  1  0
 10 29  1  0
 15 30  1  0
 20 31  1  0
 21 32  1  0
 22 33  1  0
M  ISO  8  24  14  25  14  26  14  27  14  28  14  29  14  30  14  31  14
M  ISO  2  32  14  33  14
M  END
>  <minimizedAffinity>  (1) 
-5.91046572

>  <minimizedRMSD>  (1) 
1.46731293

$$$$
