
     RDKit          3D

 28 29  0  0  1  0  0  0  0  0999 V2000
   49.2370   33.3630   42.8900 C   0  0  1  0  0  0  0  0  0  0  0  0
   48.0670   33.6980   42.0150 C   0  0  1  0  0  0  0  0  0  0  0  0
   47.5640   32.6330   41.2890 O   0  0  0  0  0  0  0  0  0  0  0  0
   48.4690   31.5910   41.1570 C   0  0  0  0  0  0  0  0  0  0  0  0
   49.8680   32.1150   40.8690 C   0  0  1  0  0  0  0  0  0  0  0  0
   50.3740   32.6810   42.1970 C   0  0  1  0  0  0  0  0  0  0  0  0
   45.2580   35.7910   43.4650 C   0  0  0  0  0  0  0  0  0  0  0  0
   46.2660   35.3640   42.5720 C   0  0  0  0  0  0  0  0  0  0  0  0
   46.9880   34.2120   42.9030 C   0  0  0  0  0  0  0  0  0  0  0  0
   46.6730   33.5710   44.0650 N   0  0  0  0  0  0  0  0  0  0  0  0
   45.7080   34.0060   44.8900 C   0  0  0  0  0  0  0  0  0  0  0  0
   45.0050   35.1130   44.5860 N   0  0  0  0  0  0  0  0  0  0  0  0
   44.5620   36.9200   43.1280 O   0  0  0  0  0  0  0  0  0  0  0  0
   49.7400   34.6030   43.3400 O   0  0  0  0  0  0  0  0  0  0  0  0
   50.6480   31.0220   40.5120 O   0  0  0  0  0  0  0  0  0  0  0  0
   51.4500   33.5080   41.9790 O   0  0  0  0  0  0  0  0  0  0  0  0
   48.8783   32.6729   43.6679 H   0  0  0  0  0  0  0  0  0  0  0  0
   48.4153   34.4316   41.2730 H   0  0  0  0  0  0  0  0  0  0  0  0
   48.4878   31.0107   42.0913 H   0  0  0  0  0  0  0  0  0  0  0  0
   48.1526   30.9575   40.3153 H   0  0  0  0  0  0  0  0  0  0  0  0
   49.8952   32.8727   40.0720 H   0  0  0  0  0  0  0  0  0  0  0  0
   50.7341   31.8771   42.8559 H   0  0  0  0  0  0  0  0  0  0  0  0
   46.4765   35.9194   41.6461 H   0  0  0  0  0  0  0  0  0  0  0  0
   45.4908   33.4562   45.8176 H   0  0  0  0  0  0  0  0  0  0  0  0
   44.7742   37.4003   42.2887 H   0  0  0  0  0  0  0  0  0  0  0  0
   49.7457   34.6172   44.3299 H   0  0  0  0  0  0  0  0  0  0  0  0
   50.9726   30.5672   41.3293 H   0  0  0  0  0  0  0  0  0  0  0  0
   51.8257   33.7968   42.8482 H   0  0  0  0  0  0  0  0  0  0  0  0
  1 14  1  0
  2  1  1  0
  2  9  1  0
  3  2  1  0
  4  3  1  0
  5 15  1  0
  5  4  1  0
  5  6  1  0
  6 16  1  0
  6  1  1  0
  7 12  2  0
  8  9  2  0
  8  7  1  0
  9 10  1  0
 10 11  2  0
 12 11  1  0
 13  7  1  0
  1 17  1  1
  2 18  1  6
  4 19  1  0
  4 20  1  0
  5 21  1  6
  6 22  1  1
  8 23  1  0
 11 24  1  0
 13 25  1  0
 14 26  1  0
 15 27  1  0
 16 28  1  0
M  ISO  8  17  13  18  13  19  13  20  13  21  13  22  13  23  14  24  14
M  ISO  4  25   3  26   3  27   3  28   3
M  END
>  <minimizedAffinity>  (1) 
-5.13404369

>  <minimizedRMSD>  (1) 
1.1975019

$$$$
