
     RDKit          3D

 33 36  0  0  0  0  0  0  0  0999 V2000
   44.8590   33.2520   41.1390 Cl  0  0  0  0  0  0  0  0  0  0  0  0
   46.3850   34.0630   40.9840 C   0  0  0  0  0  0  0  0  0  0  0  0
   46.8930   34.7620   42.0470 C   0  0  0  0  0  0  0  0  0  0  0  0
   48.1270   35.4340   41.9600 C   0  0  0  0  0  0  0  0  0  0  0  0
   48.7770   35.3400   40.7520 C   0  0  0  0  0  0  0  0  0  0  0  0
   48.2690   34.6480   39.7080 C   0  0  0  0  0  0  0  0  0  0  0  0
   47.0500   33.9860   39.7960 C   0  0  0  0  0  0  0  0  0  0  0  0
   45.6190   33.9660   45.4150 C   0  0  0  0  0  0  0  0  0  0  0  0
   44.7110   34.9940   45.6410 C   0  0  0  0  0  0  0  0  0  0  0  0
   44.5370   35.9460   44.6540 C   0  0  0  0  0  0  0  0  0  0  0  0
   45.2560   35.8350   43.5160 N   0  0  0  0  0  0  0  0  0  0  0  0
   46.1470   34.8200   43.3040 C   0  0  0  0  0  0  0  0  0  0  0  0
   46.3140   33.9050   44.2550 N   0  0  0  0  0  0  0  0  0  0  0  0
   46.6460   33.2860   38.5780 C   0  0  0  0  0  0  0  0  0  0  0  0
   47.5540   33.1920   37.5250 C   0  0  0  0  0  0  0  0  0  0  0  0
   46.5850   32.2400   36.2520 S   0  0  0  0  0  0  0  0  0  0  0  0
   45.1050   32.1570   37.4270 C   0  0  0  0  0  0  0  0  0  0  0  0
   45.5140   32.7080   38.3050 N   0  0  0  0  0  0  0  0  0  0  0  0
   43.9200   31.4480   36.9070 C   0  0  0  0  0  0  0  0  0  0  0  0
   42.6820   31.2400   37.4670 C   0  0  0  0  0  0  0  0  0  0  0  0
   41.9880   30.5240   36.5380 N   0  0  0  0  0  0  0  0  0  0  0  0
   42.7500   30.2880   35.4400 C   0  0  0  0  0  0  0  0  0  0  0  0
   43.9510   30.8760   35.6950 N   0  0  0  0  0  0  0  0  0  0  0  0
   48.5452   35.9992   42.8059 H   0  0  0  0  0  0  0  0  0  0  0  0
   49.7459   35.8465   40.6308 H   0  0  0  0  0  0  0  0  0  0  0  0
   48.8343   34.6077   38.7653 H   0  0  0  0  0  0  0  0  0  0  0  0
   45.7740   33.1959   46.1850 H   0  0  0  0  0  0  0  0  0  0  0  0
   44.1447   35.0486   46.5824 H   0  0  0  0  0  0  0  0  0  0  0  0
   43.8284   36.7759   44.7924 H   0  0  0  0  0  0  0  0  0  0  0  0
   48.5810   33.5810   37.4621 H   0  0  0  0  0  0  0  0  0  0  0  0
   42.3280   31.5783   38.4520 H   0  0  0  0  0  0  0  0  0  0  0  0
   41.0156   30.2048   36.6537 H   0  0  0  0  0  0  0  0  0  0  0  0
   42.4582   29.7370   34.5338 H   0  0  0  0  0  0  0  0  0  0  0  0
  2  1  1  0
  2  3  2  0
  3 12  1  0
  4  3  1  0
  5  4  2  0
  6  7  2  0
  6  5  1  0
  7  2  1  0
  8  9  2  0
 10  9  1  0
 11 10  2  0
 12 11  1  0
 12 13  2  0
 13  8  1  0
 14  7  1  0
 15 14  2  0
 16 17  1  0
 16 15  1  0
 17 18  2  0
 18 14  1  0
 19 17  1  0
 19 20  2  0
 21 20  1  0
 22 23  2  0
 22 21  1  0
 23 19  1  0
  4 24  1  0
  5 25  1  0
  6 26  1  0
  8 27  1  0
  9 28  1  0
 10 29  1  0
 15 30  1  0
 20 31  1  0
 21 32  1  0
 22 33  1  0
M  ISO  8  24  14  25  14  26  14  27  14  28  14  29  14  30  14  31  14
M  ISO  2  32   9  33  14
M  END
>  <minimizedAffinity>  (1) 
-5.87400675

>  <minimizedRMSD>  (1) 
1.25609899

$$$$
