
     RDKit          3D

 17 17  0  0  0  0  0  0  0  0999 V2000
   44.8570   35.1690   44.1060 C   0  0  0  0  0  0  0  0  0  0  0  0
   45.5790   35.4160   42.9080 C   0  0  0  0  0  0  0  0  0  0  0  0
   46.7780   34.7200   42.7130 C   0  0  0  0  0  0  0  0  0  0  0  0
   47.1850   33.8480   43.6780 N   0  0  0  0  0  0  0  0  0  0  0  0
   46.4690   33.6480   44.7910 C   0  0  0  0  0  0  0  0  0  0  0  0
   45.3170   34.2950   45.0130 N   0  0  0  0  0  0  0  0  0  0  0  0
   43.6930   35.8530   44.2820 O   0  0  0  0  0  0  0  0  0  0  0  0
   47.5080   35.0030   41.4500 C   0  0  0  0  0  0  0  0  0  0  0  0
   48.8560   35.5960   41.8100 C   0  0  0  0  0  0  0  0  0  0  0  0
   45.2083   36.1305   42.1583 H   0  0  0  0  0  0  0  0  0  0  0  0
   46.8359   32.9339   45.5430 H   0  0  0  0  0  0  0  0  0  0  0  0
   43.3842   36.4907   43.5906 H   0  0  0  0  0  0  0  0  0  0  0  0
   46.9362   35.7185   40.8408 H   0  0  0  0  0  0  0  0  0  0  0  0
   47.6405   34.0778   40.8700 H   0  0  0  0  0  0  0  0  0  0  0  0
   48.9566   35.6403   42.9045 H   0  0  0  0  0  0  0  0  0  0  0  0
   49.6564   34.9669   41.3934 H   0  0  0  0  0  0  0  0  0  0  0  0
   48.9331   36.6111   41.3934 H   0  0  0  0  0  0  0  0  0  0  0  0
  1  7  1  0
  1  6  2  0
  2  1  1  0
  3  2  2  0
  3  4  1  0
  4  5  2  0
  5  6  1  0
  8  9  1  0
  8  3  1  0
  2 10  1  0
  5 11  1  0
  7 12  1  0
  8 13  1  0
  8 14  1  0
  9 15  1  0
  9 16  1  0
  9 17  1  0
M  ISO  8  10  14  11  14  12   3  13   8  14   8  15   8  16   8  17   8
M  END
>  <minimizedAffinity>  (1) 
-4.00815535

>  <minimizedRMSD>  (1) 
1.80040371

$$$$
