
     RDKit          3D

 12 12  0  0  0  0  0  0  0  0999 V2000
   45.0110   35.4580   44.1840 C   0  0  0  0  0  0  0  0  0  0  0  0
   46.0240   34.9270   43.3660 C   0  0  0  0  0  0  0  0  0  0  0  0
   46.7710   33.8540   43.8870 C   0  0  0  0  0  0  0  0  0  0  0  0
   46.4740   33.4020   45.1280 N   0  0  0  0  0  0  0  0  0  0  0  0
   45.4920   33.9460   45.8720 C   0  0  0  0  0  0  0  0  0  0  0  0
   44.7690   34.9630   45.4020 N   0  0  0  0  0  0  0  0  0  0  0  0
   44.2850   36.5100   43.6610 O   0  0  0  0  0  0  0  0  0  0  0  0
   48.0740   33.1400   42.8930 S   0  0  0  0  0  0  0  0  0  0  0  0
   46.2238   35.3324   42.3631 H   0  0  0  0  0  0  0  0  0  0  0  0
   45.2846   33.5478   46.8762 H   0  0  0  0  0  0  0  0  0  0  0  0
   44.4912   36.8517   42.7550 H   0  0  0  0  0  0  0  0  0  0  0  0
   49.0367   32.6125   43.7126 H   0  0  0  0  0  0  0  0  0  0  0  0
  1  6  2  0
  2  3  2  0
  2  1  1  0
  3  4  1  0
  4  5  2  0
  6  5  1  0
  7  1  1  0
  8  3  1  0
  2  9  1  0
  5 10  1  0
  7 11  1  0
  8 12  1  0
M  ISO  4   9  14  10  14  11   3  12  11
M  END
>  <minimizedAffinity>  (1) 
-3.19016337

>  <minimizedRMSD>  (1) 
0.070501402

$$$$
