
     RDKit          3D

 13 13  0  0  0  0  0  0  0  0999 V2000
   45.0090   35.4710   44.1760 C   0  0  0  0  0  0  0  0  0  0  0  0
   46.0160   34.9130   43.3690 C   0  0  0  0  0  0  0  0  0  0  0  0
   46.7530   33.8400   43.8830 C   0  0  0  0  0  0  0  0  0  0  0  0
   46.4540   33.3960   45.1340 N   0  0  0  0  0  0  0  0  0  0  0  0
   45.4850   33.9600   45.8670 C   0  0  0  0  0  0  0  0  0  0  0  0
   44.7640   34.9870   45.4020 N   0  0  0  0  0  0  0  0  0  0  0  0
   47.7610   33.3030   43.0360 N   0  0  0  0  0  0  0  0  0  0  0  0
   44.2890   36.5190   43.6750 O   0  0  0  0  0  0  0  0  0  0  0  0
   46.2187   35.3083   42.3627 H   0  0  0  0  0  0  0  0  0  0  0  0
   45.2772   33.5700   46.8743 H   0  0  0  0  0  0  0  0  0  0  0  0
   48.3369   32.5122   43.3582 H   0  0  0  0  0  0  0  0  0  0  0  0
   47.9152   33.7048   42.1002 H   0  0  0  0  0  0  0  0  0  0  0  0
   44.4831   36.8640   42.7676 H   0  0  0  0  0  0  0  0  0  0  0  0
  1  6  2  0
  2  3  2  0
  2  1  1  0
  3  4  1  0
  4  5  2  0
  6  5  1  0
  7  3  1  0
  8  1  1  0
  2  9  1  0
  5 10  1  0
  7 11  1  0
  7 12  1  0
  8 13  1  0
M  ISO  3   9  14  10  14  13   3
M  END
>  <minimizedAffinity>  (1) 
-3.17584181

>  <minimizedRMSD>  (1) 
0.0526017174

$$$$
