
     RDKit          3D

 12 12  0  0  0  0  0  0  0  0999 V2000
   44.9980   35.4840   44.1870 C   0  0  0  0  0  0  0  0  0  0  0  0
   45.9860   34.9390   43.3510 C   0  0  0  0  0  0  0  0  0  0  0  0
   46.7210   33.8550   43.8590 C   0  0  0  0  0  0  0  0  0  0  0  0
   46.4360   33.4070   45.1080 N   0  0  0  0  0  0  0  0  0  0  0  0
   45.4790   33.9650   45.8680 C   0  0  0  0  0  0  0  0  0  0  0  0
   44.7620   34.9980   45.4120 N   0  0  0  0  0  0  0  0  0  0  0  0
   44.2850   36.5370   43.6910 O   0  0  0  0  0  0  0  0  0  0  0  0
   47.6960   33.3190   43.0300 O   0  0  0  0  0  0  0  0  0  0  0  0
   46.1755   35.3421   42.3452 H   0  0  0  0  0  0  0  0  0  0  0  0
   45.2831   33.5685   46.8752 H   0  0  0  0  0  0  0  0  0  0  0  0
   44.4764   36.8802   42.7823 H   0  0  0  0  0  0  0  0  0  0  0  0
   48.2427   32.5538   43.3393 H   0  0  0  0  0  0  0  0  0  0  0  0
  1  6  2  0
  2  3  2  0
  2  1  1  0
  3  4  1  0
  4  5  2  0
  6  5  1  0
  7  1  1  0
  8  3  1  0
  2  9  1  0
  5 10  1  0
  7 11  1  0
  8 12  1  0
M  ISO  4   9  14  10  14  11   3  12   3
M  END
>  <minimizedAffinity>  (1) 
-3.17518544

>  <minimizedRMSD>  (1) 
0.0283758007

$$$$
