
     RDKit          3D

 32 35  0  0  0  0  0  0  0  0999 V2000
   44.8150   33.2660   41.1450 Cl  0  0  0  0  0  0  0  0  0  0  0  0
   46.3480   34.0590   40.9830 C   0  0  0  0  0  0  0  0  0  0  0  0
   46.8740   34.7640   42.0460 C   0  0  0  0  0  0  0  0  0  0  0  0
   48.1070   35.4140   41.9500 C   0  0  0  0  0  0  0  0  0  0  0  0
   48.7570   35.3110   40.7480 C   0  0  0  0  0  0  0  0  0  0  0  0
   48.2360   34.6170   39.7030 C   0  0  0  0  0  0  0  0  0  0  0  0
   47.0240   33.9790   39.8010 C   0  0  0  0  0  0  0  0  0  0  0  0
   45.6220   33.9530   45.4200 C   0  0  0  0  0  0  0  0  0  0  0  0
   44.7130   34.9930   45.6470 C   0  0  0  0  0  0  0  0  0  0  0  0
   44.5280   35.9570   44.6650 C   0  0  0  0  0  0  0  0  0  0  0  0
   45.2490   35.8330   43.5280 N   0  0  0  0  0  0  0  0  0  0  0  0
   46.1330   34.8330   43.2950 C   0  0  0  0  0  0  0  0  0  0  0  0
   46.2960   33.9150   44.2530 N   0  0  0  0  0  0  0  0  0  0  0  0
   46.5980   33.2740   38.5910 C   0  0  0  0  0  0  0  0  0  0  0  0
   47.5020   33.1290   37.5450 C   0  0  0  0  0  0  0  0  0  0  0  0
   46.5360   32.1950   36.2660 S   0  0  0  0  0  0  0  0  0  0  0  0
   45.0380   32.1740   37.4240 C   0  0  0  0  0  0  0  0  0  0  0  0
   45.4500   32.7230   38.3020 N   0  0  0  0  0  0  0  0  0  0  0  0
   43.6830   31.5760   37.1960 C   0  0  0  0  0  0  0  0  0  0  0  0
   42.5910   31.7970   37.9240 N   0  0  0  0  0  0  0  0  0  0  0  0
   41.5480   31.0870   37.4250 C   0  0  0  0  0  0  0  0  0  0  0  0
   42.0440   30.4120   36.3480 N   0  0  0  0  0  0  0  0  0  0  0  0
   43.3280   30.7060   36.2110 N   0  0  0  0  0  0  0  0  0  0  0  0
   48.5328   35.9777   42.7932 H   0  0  0  0  0  0  0  0  0  0  0  0
   49.7316   35.8061   40.6255 H   0  0  0  0  0  0  0  0  0  0  0  0
   48.7969   34.5650   38.7582 H   0  0  0  0  0  0  0  0  0  0  0  0
   45.7841   33.1775   46.1831 H   0  0  0  0  0  0  0  0  0  0  0  0
   44.1521   35.0459   46.5918 H   0  0  0  0  0  0  0  0  0  0  0  0
   43.8225   36.7890   44.8065 H   0  0  0  0  0  0  0  0  0  0  0  0
   48.5418   33.4834   37.4890 H   0  0  0  0  0  0  0  0  0  0  0  0
   40.5174   31.0610   37.8087 H   0  0  0  0  0  0  0  0  0  0  0  0
   41.5071   29.7770   35.7403 H   0  0  0  0  0  0  0  0  0  0  0  0
  2  1  1  0
  2  3  2  0
  3 12  1  0
  4  3  1  0
  5  4  2  0
  6  7  2  0
  6  5  1  0
  7  2  1  0
  8  9  2  0
 10  9  1  0
 11 10  2  0
 12 11  1  0
 12 13  2  0
 13  8  1  0
 14  7  1  0
 15 14  2  0
 16 17  1  0
 16 15  1  0
 17 18  2  0
 18 14  1  0
 19 17  1  0
 19 20  1  0
 21 20  2  0
 22 21  1  0
 23 22  1  0
 23 19  2  0
  4 24  1  0
  5 25  1  0
  6 26  1  0
  8 27  1  0
  9 28  1  0
 10 29  1  0
 15 30  1  0
 21 31  1  0
 22 32  1  0
M  ISO  8  24  14  25  14  26  14  27  14  28  14  29  14  30  14  31  14
M  ISO  1  32   9
M  END
>  <minimizedAffinity>  (1) 
-5.86501169

>  <minimizedRMSD>  (1) 
1.47300076

$$$$
