
     RDKit          3D

 35 37  0  0  1  0  0  0  0  0999 V2000
   44.6180   34.3270   41.6290 C   0  0  0  0  0  0  0  0  0  0  0  0
   45.8970   34.4470   41.0650 C   0  0  0  0  0  0  0  0  0  0  0  0
   46.9890   34.6100   41.9190 C   0  0  0  0  0  0  0  0  0  0  0  0
   46.7790   34.6460   43.2800 N   0  0  0  0  0  0  0  0  0  0  0  0
   45.5390   34.5260   43.7740 C   0  0  0  0  0  0  0  0  0  0  0  0
   44.4670   34.3680   42.9630 N   0  0  0  0  0  0  0  0  0  0  0  0
   48.3790   34.7250   41.3630 C   0  0  0  0  0  0  0  0  0  0  0  0
   49.0920   36.0330   41.4940 C   0  0  0  0  0  0  0  0  0  0  0  0
   49.5030   34.7890   42.2820 C   0  0  0  0  0  0  0  0  0  0  0  0
   43.5630   34.1730   40.8230 O   0  0  0  0  0  0  0  0  0  0  0  0
   42.8800   34.5720   38.6320 C   0  0  1  0  0  0  0  0  0  0  0  0
   42.9580   35.1630   40.0560 C   0  0  1  0  0  0  0  0  0  0  0  0
   41.6670   35.3170   40.5670 O   0  0  0  0  0  0  0  0  0  0  0  0
   40.7160   35.6220   39.6020 C   0  0  0  0  0  0  0  0  0  0  0  0
   40.4800   34.4580   38.6540 C   0  0  2  0  0  0  0  0  0  0  0  0
   41.7360   33.5780   38.7000 C   0  0  1  0  0  0  0  0  0  0  0  0
   42.5850   35.5930   37.7150 O   0  0  0  0  0  0  0  0  0  0  0  0
   40.4620   34.9670   37.3420 O   0  0  0  0  0  0  0  0  0  0  0  0
   41.7420   32.6750   37.6530 O   0  0  0  0  0  0  0  0  0  0  0  0
   46.0361   34.4134   39.9743 H   0  0  0  0  0  0  0  0  0  0  0  0
   45.3891   34.5566   44.8633 H   0  0  0  0  0  0  0  0  0  0  0  0
   48.1268   34.0705   40.5156 H   0  0  0  0  0  0  0  0  0  0  0  0
   49.7237   36.4075   40.6750 H   0  0  0  0  0  0  0  0  0  0  0  0
   48.8106   37.0682   41.7372 H   0  0  0  0  0  0  0  0  0  0  0  0
   49.3290   34.7434   43.3672 H   0  0  0  0  0  0  0  0  0  0  0  0
   50.4373   34.2222   42.4075 H   0  0  0  0  0  0  0  0  0  0  0  0
   43.8212   34.1034   38.3086 H   0  0  0  0  0  0  0  0  0  0  0  0
   43.4868   36.1275   40.0611 H   0  0  0  0  0  0  0  0  0  0  0  0
   39.7686   35.8715   40.1022 H   0  0  0  0  0  0  0  0  0  0  0  0
   41.0881   36.4729   39.0124 H   0  0  0  0  0  0  0  0  0  0  0  0
   39.5557   33.9251   38.9217 H   0  0  0  0  0  0  0  0  0  0  0  0
   41.8013   32.9532   39.6030 H   0  0  0  0  0  0  0  0  0  0  0  0
   42.3464   36.4188   38.2061 H   0  0  0  0  0  0  0  0  0  0  0  0
   40.4270   35.9559   37.3722 H   0  0  0  0  0  0  0  0  0  0  0  0
   41.7481   31.7527   38.0127 H   0  0  0  0  0  0  0  0  0  0  0  0
  1  6  1  0
  2  1  2  0
  2  3  1  0
  3  4  2  0
  4  5  1  0
  6  5  2  0
  7  8  1  0
  7  3  1  0
  7  9  1  0
  8  9  1  0
 10  1  1  0
 11 17  1  0
 11 16  1  0
 11 12  1  0
 12 13  1  0
 12 10  1  0
 14 13  1  0
 15 18  1  0
 15 16  1  0
 15 14  1  0
 16 19  1  0
  2 20  1  0
  5 21  1  0
  7 22  1  0
  8 23  1  0
  8 24  1  0
  9 25  1  0
  9 26  1  0
 11 27  1  6
 12 28  1  6
 14 29  1  0
 14 30  1  0
 15 31  1  1
 16 32  1  1
 17 33  1  0
 18 34  1  0
 19 35  1  0
M  ISO  8  20  14  21  14  22  13  23  13  24  13  25  13  26  13  27  13
M  ISO  8  28  13  29  13  30  13  31  13  32  13  33   3  34   3  35   3
M  END
>  <minimizedAffinity>  (1) 
-6.06202126

>  <minimizedRMSD>  (1) 
2.78992271

$$$$
