
     RDKit          3D

 30 32  0  0  0  0  0  0  0  0999 V2000
   44.7330   33.2390   41.0950 Cl  0  0  0  0  0  0  0  0  0  0  0  0
   46.2800   33.9950   40.8960 C   0  0  0  0  0  0  0  0  0  0  0  0
   46.8240   34.7170   41.9250 C   0  0  0  0  0  0  0  0  0  0  0  0
   48.0690   35.3440   41.8120 C   0  0  0  0  0  0  0  0  0  0  0  0
   48.7070   35.1860   40.5970 C   0  0  0  0  0  0  0  0  0  0  0  0
   48.1640   34.4720   39.5860 C   0  0  0  0  0  0  0  0  0  0  0  0
   46.9380   33.8610   39.7140 C   0  0  0  0  0  0  0  0  0  0  0  0
   46.4900   33.1270   38.5250 C   0  0  0  0  0  0  0  0  0  0  0  0
   46.9700   33.5050   37.2770 C   0  0  0  0  0  0  0  0  0  0  0  0
   46.1400   32.3130   36.1200 S   0  0  0  0  0  0  0  0  0  0  0  0
   45.2730   31.5000   37.5930 C   0  0  0  0  0  0  0  0  0  0  0  0
   45.6720   32.1200   38.4310 N   0  0  0  0  0  0  0  0  0  0  0  0
   43.5200   30.1410   36.4470 C   0  0  0  0  0  0  0  0  0  0  0  0
   43.6880   30.9940   35.5440 O   0  0  0  0  0  0  0  0  0  0  0  0
   44.3490   30.3760   37.5610 N   0  0  0  0  0  0  0  0  0  0  0  0
   45.5670   34.0490   45.3330 C   0  0  0  0  0  0  0  0  0  0  0  0
   44.6980   35.1240   45.5410 C   0  0  0  0  0  0  0  0  0  0  0  0
   44.5450   36.0570   44.5370 C   0  0  0  0  0  0  0  0  0  0  0  0
   45.2470   35.8900   43.3900 N   0  0  0  0  0  0  0  0  0  0  0  0
   46.0910   34.8440   43.1910 C   0  0  0  0  0  0  0  0  0  0  0  0
   46.2390   33.9350   44.1690 N   0  0  0  0  0  0  0  0  0  0  0  0
   48.5107   35.9242   42.6356 H   0  0  0  0  0  0  0  0  0  0  0  0
   49.6897   35.6570   40.4473 H   0  0  0  0  0  0  0  0  0  0  0  0
   48.7152   34.3772   38.6388 H   0  0  0  0  0  0  0  0  0  0  0  0
   47.6727   34.3154   37.0331 H   0  0  0  0  0  0  0  0  0  0  0  0
   42.8076   29.3057   36.3774 H   0  0  0  0  0  0  0  0  0  0  0  0
   44.3004   29.7396   38.3694 H   0  0  0  0  0  0  0  0  0  0  0  0
   45.7032   33.2937   46.1210 H   0  0  0  0  0  0  0  0  0  0  0  0
   44.1466   35.2239   46.4876 H   0  0  0  0  0  0  0  0  0  0  0  0
   43.8696   36.9158   44.6642 H   0  0  0  0  0  0  0  0  0  0  0  0
  2  1  1  0
  2  3  2  0
  3 20  1  0
  4  3  1  0
  5  4  2  0
  6  7  2  0
  6  5  1  0
  7  2  1  0
  8  7  1  0
  9  8  2  0
 10  9  1  0
 10 11  1  0
 11 12  2  0
 12  8  1  0
 13 15  1  0
 14 13  2  0
 15 11  1  0
 16 17  2  0
 18 17  1  0
 19 18  2  0
 20 19  1  0
 20 21  2  0
 21 16  1  0
  4 22  1  0
  5 23  1  0
  6 24  1  0
  9 25  1  0
 13 26  1  0
 15 27  1  0
 16 28  1  0
 17 29  1  0
 18 30  1  0
M  ISO  8  22  14  23  14  24  14  25  14  26   6  28  14  29  14  30  14
M  END
>  <minimizedAffinity>  (1) 
-5.80467463

>  <minimizedRMSD>  (1) 
0.338478833

$$$$
