
     RDKit          3D

 45 48  0  0  1  0  0  0  0  0999 V2000
   42.8210   34.3700   38.8730 C   0  0  1  0  0  0  0  0  0  0  0  0
   43.0280   35.1760   40.1580 C   0  0  1  0  0  0  0  0  0  0  0  0
   41.7780   35.6110   40.6370 O   0  0  0  0  0  0  0  0  0  0  0  0
   40.8760   35.9000   39.6200 C   0  0  0  0  0  0  0  0  0  0  0  0
   40.4430   34.6510   38.8780 C   0  0  2  0  0  0  0  0  0  0  0  0
   41.5330   33.5810   39.1030 C   0  0  1  0  0  0  0  0  0  0  0  0
   42.6780   35.2370   37.7840 O   0  0  0  0  0  0  0  0  0  0  0  0
   40.4760   34.9160   37.5080 O   0  0  0  0  0  0  0  0  0  0  0  0
   43.4660   34.2560   41.1190 O   0  0  0  0  0  0  0  0  0  0  0  0
   44.5970   34.3500   41.8240 C   0  0  0  0  0  0  0  0  0  0  0  0
   45.8300   34.4820   41.1900 C   0  0  0  0  0  0  0  0  0  0  0  0
   46.9740   34.5780   41.9710 C   0  0  0  0  0  0  0  0  0  0  0  0
   46.8640   34.5410   43.3550 N   0  0  0  0  0  0  0  0  0  0  0  0
   45.6570   34.4140   43.9240 C   0  0  0  0  0  0  0  0  0  0  0  0
   44.5290   34.3180   43.1760 N   0  0  0  0  0  0  0  0  0  0  0  0
   48.3290   34.7100   41.3300 C   0  0  0  0  0  0  0  0  0  0  0  0
   49.0590   36.0190   41.5160 C   0  0  0  0  0  0  0  0  0  0  0  0
   49.5140   34.6930   42.1460 C   0  0  0  0  0  0  0  0  0  0  0  0
   41.3740   32.5460   38.2220 O   0  0  0  0  0  0  0  0  0  0  0  0
   40.3760   31.6050   38.3790 C   0  0  0  0  0  0  0  0  0  0  0  0
   39.3160   31.2220   37.6020 C   0  0  0  0  0  0  0  0  0  0  0  0
   38.4640   30.2300   38.0250 C   0  0  0  0  0  0  0  0  0  0  0  0
   38.6220   29.5720   39.2300 C   0  0  0  0  0  0  0  0  0  0  0  0
   39.6990   29.9480   40.0380 C   0  0  0  0  0  0  0  0  0  0  0  0
   40.5580   30.9530   39.6050 C   0  0  0  0  0  0  0  0  0  0  0  0
   43.6715   33.7088   38.6507 H   0  0  0  0  0  0  0  0  0  0  0  0
   43.7124   36.0181   39.9778 H   0  0  0  0  0  0  0  0  0  0  0  0
   39.9881   36.3797   40.0576 H   0  0  0  0  0  0  0  0  0  0  0  0
   41.3738   36.5683   38.9020 H   0  0  0  0  0  0  0  0  0  0  0  0
   39.4455   34.3359   39.2182 H   0  0  0  0  0  0  0  0  0  0  0  0
   41.5111   33.1035   40.0937 H   0  0  0  0  0  0  0  0  0  0  0  0
   42.5261   36.1582   38.1133 H   0  0  0  0  0  0  0  0  0  0  0  0
   40.5970   35.8878   37.3627 H   0  0  0  0  0  0  0  0  0  0  0  0
   45.8962   34.5097   40.0923 H   0  0  0  0  0  0  0  0  0  0  0  0
   45.5793   34.3870   45.0209 H   0  0  0  0  0  0  0  0  0  0  0  0
   48.0128   34.1132   40.4617 H   0  0  0  0  0  0  0  0  0  0  0  0
   49.6245   36.4675   40.6859 H   0  0  0  0  0  0  0  0  0  0  0  0
   48.8093   37.0289   41.8735 H   0  0  0  0  0  0  0  0  0  0  0  0
   49.4284   34.5453   43.2327 H   0  0  0  0  0  0  0  0  0  0  0  0
   50.4496   34.1146   42.1375 H   0  0  0  0  0  0  0  0  0  0  0  0
   39.1449   31.7118   36.6320 H   0  0  0  0  0  0  0  0  0  0  0  0
   37.6209   29.9479   37.3772 H   0  0  0  0  0  0  0  0  0  0  0  0
   37.9249   28.7804   39.5423 H   0  0  0  0  0  0  0  0  0  0  0  0
   39.8656   29.4541   41.0066 H   0  0  0  0  0  0  0  0  0  0  0  0
   41.4047   31.2440   40.2441 H   0  0  0  0  0  0  0  0  0  0  0  0
  1  6  1  0
  1  2  1  0
  2  3  1  0
  2  9  1  0
  4  3  1  0
  5  6  1  0
  5  4  1  0
  7  1  1  0
  8  5  1  0
  9 10  1  0
 10 15  1  0
 11 10  2  0
 11 12  1  0
 12 13  2  0
 13 14  1  0
 15 14  2  0
 16 17  1  0
 16 12  1  0
 16 18  1  0
 17 18  1  0
 19 20  1  0
 19  6  1  0
 20 25  2  0
 21 22  2  0
 21 20  1  0
 22 23  1  0
 23 24  2  0
 25 24  1  0
  1 26  1  6
  2 27  1  6
  4 28  1  0
  4 29  1  0
  5 30  1  1
  6 31  1  1
  7 32  1  0
  8 33  1  0
 11 34  1  0
 14 35  1  0
 16 36  1  0
 17 37  1  0
 17 38  1  0
 18 39  1  0
 18 40  1  0
 21 41  1  0
 22 42  1  0
 23 43  1  0
 24 44  1  0
 25 45  1  0
M  ISO  8  26  13  27  13  28  13  29  13  30  13  31  13  32   3  33   3
M  ISO  8  34  14  35  14  36  13  37  13  38  13  39  13  40  13  41  14
M  ISO  4  42  14  43  14  44  14  45  14
M  END
>  <minimizedAffinity>  (1) 
-6.23098898

>  <minimizedRMSD>  (1) 
1.23283768

$$$$
