
     RDKit          3D

 48 51  0  0  1  0  0  0  0  0999 V2000
   42.8140   34.3250   38.8980 C   0  0  1  0  0  0  0  0  0  0  0  0
   43.0510   35.1530   40.1620 C   0  0  1  0  0  0  0  0  0  0  0  0
   41.8160   35.6530   40.6200 O   0  0  0  0  0  0  0  0  0  0  0  0
   40.9340   35.9580   39.5880 C   0  0  0  0  0  0  0  0  0  0  0  0
   40.4430   34.6800   38.9050 C   0  0  2  0  0  0  0  0  0  0  0  0
   41.4990   33.6070   39.1430 C   0  0  1  0  0  0  0  0  0  0  0  0
   42.7020   35.1650   37.7890 O   0  0  0  0  0  0  0  0  0  0  0  0
   40.4890   34.9250   37.5160 O   0  0  0  0  0  0  0  0  0  0  0  0
   43.4520   34.2410   41.1480 O   0  0  0  0  0  0  0  0  0  0  0  0
   44.5840   34.3150   41.8570 C   0  0  0  0  0  0  0  0  0  0  0  0
   45.8100   34.4680   41.2140 C   0  0  0  0  0  0  0  0  0  0  0  0
   46.9600   34.5410   41.9820 C   0  0  0  0  0  0  0  0  0  0  0  0
   46.8660   34.4620   43.3660 N   0  0  0  0  0  0  0  0  0  0  0  0
   45.6660   34.3130   43.9440 C   0  0  0  0  0  0  0  0  0  0  0  0
   44.5280   34.2400   43.2080 N   0  0  0  0  0  0  0  0  0  0  0  0
   48.3140   34.6900   41.3360 C   0  0  0  0  0  0  0  0  0  0  0  0
   49.0350   36.0040   41.5310 C   0  0  0  0  0  0  0  0  0  0  0  0
   49.5000   34.6790   42.1510 C   0  0  0  0  0  0  0  0  0  0  0  0
   41.2990   32.5290   38.3040 O   0  0  0  0  0  0  0  0  0  0  0  0
   40.0560   31.9480   38.5430 C   0  0  0  0  0  0  0  0  0  0  0  0
   39.6380   30.9880   37.4580 C   0  0  0  0  0  0  0  0  0  0  0  0
   38.5280   30.2010   38.1060 C   0  0  0  0  0  0  0  0  0  0  0  0
   38.7080   30.3690   39.6140 C   0  0  0  0  0  0  0  0  0  0  0  0
   40.0840   31.0260   39.7600 C   0  0  0  0  0  0  0  0  0  0  0  0
   43.6393   33.6262   38.6965 H   0  0  0  0  0  0  0  0  0  0  0  0
   43.7709   35.9615   39.9668 H   0  0  0  0  0  0  0  0  0  0  0  0
   40.0712   36.5029   39.9988 H   0  0  0  0  0  0  0  0  0  0  0  0
   41.4572   36.5787   38.8457 H   0  0  0  0  0  0  0  0  0  0  0  0
   39.4463   34.3895   39.2686 H   0  0  0  0  0  0  0  0  0  0  0  0
   41.4679   33.1743   40.1538 H   0  0  0  0  0  0  0  0  0  0  0  0
   42.5775   36.0987   38.0935 H   0  0  0  0  0  0  0  0  0  0  0  0
   40.6693   35.8852   37.3561 H   0  0  0  0  0  0  0  0  0  0  0  0
   45.8637   34.5297   40.1170 H   0  0  0  0  0  0  0  0  0  0  0  0
   45.6020   34.2484   45.0402 H   0  0  0  0  0  0  0  0  0  0  0  0
   48.0011   34.0977   40.4635 H   0  0  0  0  0  0  0  0  0  0  0  0
   49.5966   36.4625   40.7037 H   0  0  0  0  0  0  0  0  0  0  0  0
   48.7779   37.0095   41.8956 H   0  0  0  0  0  0  0  0  0  0  0  0
   49.4164   34.5238   43.2368 H   0  0  0  0  0  0  0  0  0  0  0  0
   50.4404   34.1086   42.1378 H   0  0  0  0  0  0  0  0  0  0  0  0
   39.3879   32.8162   38.6424 H   0  0  0  0  0  0  0  0  0  0  0  0
   40.4717   30.3308   37.1697 H   0  0  0  0  0  0  0  0  0  0  0  0
   39.3263   31.4923   36.5314 H   0  0  0  0  0  0  0  0  0  0  0  0
   37.5494   30.5939   37.7930 H   0  0  0  0  0  0  0  0  0  0  0  0
   38.5658   29.1411   37.8142 H   0  0  0  0  0  0  0  0  0  0  0  0
   37.9214   31.0153   40.0307 H   0  0  0  0  0  0  0  0  0  0  0  0
   38.6390   29.4135   40.1545 H   0  0  0  0  0  0  0  0  0  0  0  0
   40.8987   30.2895   39.6977 H   0  0  0  0  0  0  0  0  0  0  0  0
   40.2626   31.5278   40.7225 H   0  0  0  0  0  0  0  0  0  0  0  0
  1  6  1  0
  1  2  1  0
  2  3  1  0
  2  9  1  0
  4  3  1  0
  5  6  1  0
  5  4  1  0
  7  1  1  0
  8  5  1  0
  9 10  1  0
 10 15  1  0
 11 10  2  0
 11 12  1  0
 12 13  2  0
 13 14  1  0
 15 14  2  0
 16 17  1  0
 16 12  1  0
 16 18  1  0
 17 18  1  0
 19 20  1  0
 19  6  1  0
 20 24  1  0
 21 22  1  0
 21 20  1  0
 22 23  1  0
 23 24  1  0
  1 25  1  6
  2 26  1  6
  4 27  1  0
  4 28  1  0
  5 29  1  1
  6 30  1  1
  7 31  1  0
  8 32  1  0
 11 33  1  0
 14 34  1  0
 16 35  1  0
 17 36  1  0
 17 37  1  0
 18 38  1  0
 18 39  1  0
 20 40  1  0
 21 41  1  0
 21 42  1  0
 22 43  1  0
 22 44  1  0
 23 45  1  0
 23 46  1  0
 24 47  1  0
 24 48  1  0
M  ISO  8  25  13  26  13  27  13  28  13  29  13  30  13  31   3  32   3
M  ISO  8  33  14  34  14  35  13  36  13  37  13  38  13  39  13  40  13
M  ISO  8  41  13  42  13  43  13  44  13  45  13  46  13  47  13  48  13
M  END
>  <minimizedAffinity>  (1) 
-6.06686497

>  <minimizedRMSD>  (1) 
1.5981437

$$$$
