
     RDKit          3D

 38 40  0  0  1  0  0  0  0  0999 V2000
   42.8400   34.4830   38.7610 C   0  0  1  0  0  0  0  0  0  0  0  0
   42.9640   35.1530   40.1320 C   0  0  1  0  0  0  0  0  0  0  0  0
   41.6720   35.3960   40.6350 O   0  0  0  0  0  0  0  0  0  0  0  0
   40.7500   35.7160   39.6400 C   0  0  0  0  0  0  0  0  0  0  0  0
   40.4480   34.4950   38.7760 C   0  0  2  0  0  0  0  0  0  0  0  0
   41.6450   33.5560   38.8830 C   0  0  1  0  0  0  0  0  0  0  0  0
   42.6100   35.4320   37.7690 O   0  0  0  0  0  0  0  0  0  0  0  0
   40.4530   34.9330   37.4360 O   0  0  0  0  0  0  0  0  0  0  0  0
   43.4960   34.1790   40.9850 O   0  0  0  0  0  0  0  0  0  0  0  0
   44.6050   34.3160   41.7190 C   0  0  0  0  0  0  0  0  0  0  0  0
   45.8510   34.4480   41.1120 C   0  0  0  0  0  0  0  0  0  0  0  0
   46.9750   34.5910   41.9140 C   0  0  0  0  0  0  0  0  0  0  0  0
   46.8280   34.5980   43.2950 N   0  0  0  0  0  0  0  0  0  0  0  0
   45.6060   34.4680   43.8400 C   0  0  0  0  0  0  0  0  0  0  0  0
   44.5020   34.3280   43.0700 N   0  0  0  0  0  0  0  0  0  0  0  0
   48.3430   34.7180   41.3120 C   0  0  0  0  0  0  0  0  0  0  0  0
   49.0740   36.0260   41.5150 C   0  0  0  0  0  0  0  0  0  0  0  0
   49.5010   34.7080   42.1680 C   0  0  0  0  0  0  0  0  0  0  0  0
   41.5870   32.5850   37.9070 O   0  0  0  0  0  0  0  0  0  0  0  0
   41.5530   31.3090   38.4490 C   0  0  0  0  0  0  0  0  0  0  0  0
   43.7594   33.9468   38.4834 H   0  0  0  0  0  0  0  0  0  0  0  0
   43.5584   36.0760   40.0636 H   0  0  0  0  0  0  0  0  0  0  0  0
   39.8188   36.0664   40.1090 H   0  0  0  0  0  0  0  0  0  0  0  0
   41.1751   36.5054   39.0027 H   0  0  0  0  0  0  0  0  0  0  0  0
   39.5025   34.0203   39.0771 H   0  0  0  0  0  0  0  0  0  0  0  0
   41.6881   32.9851   39.8223 H   0  0  0  0  0  0  0  0  0  0  0  0
   42.3988   36.3035   38.1886 H   0  0  0  0  0  0  0  0  0  0  0  0
   40.4643   35.9227   37.4123 H   0  0  0  0  0  0  0  0  0  0  0  0
   45.9432   34.4391   40.0159 H   0  0  0  0  0  0  0  0  0  0  0  0
   45.5013   34.4756   44.9350 H   0  0  0  0  0  0  0  0  0  0  0  0
   48.0521   34.1188   40.4366 H   0  0  0  0  0  0  0  0  0  0  0  0
   49.6696   36.4662   40.7017 H   0  0  0  0  0  0  0  0  0  0  0  0
   48.8165   37.0393   41.8570 H   0  0  0  0  0  0  0  0  0  0  0  0
   49.3784   34.5699   43.2524 H   0  0  0  0  0  0  0  0  0  0  0  0
   50.4351   34.1277   42.1953 H   0  0  0  0  0  0  0  0  0  0  0  0
   41.5548   31.3768   39.5469 H   0  0  0  0  0  0  0  0  0  0  0  0
   40.6408   30.7929   38.1150 H   0  0  0  0  0  0  0  0  0  0  0  0
   42.4364   30.7451   38.1150 H   0  0  0  0  0  0  0  0  0  0  0  0
  1  6  1  0
  1  2  1  0
  2  3  1  0
  2  9  1  0
  4  3  1  0
  5  6  1  0
  5  4  1  0
  7  1  1  0
  8  5  1  0
  9 10  1  0
 10 15  1  0
 11 10  2  0
 11 12  1  0
 12 13  2  0
 13 14  1  0
 15 14  2  0
 16 17  1  0
 16 12  1  0
 16 18  1  0
 17 18  1  0
 19 20  1  0
 19  6  1  0
  1 21  1  6
  2 22  1  6
  4 23  1  0
  4 24  1  0
  5 25  1  1
  6 26  1  1
  7 27  1  0
  8 28  1  0
 11 29  1  0
 14 30  1  0
 16 31  1  0
 17 32  1  0
 17 33  1  0
 18 34  1  0
 18 35  1  0
 20 36  1  0
 20 37  1  0
 20 38  1  0
M  ISO  8  21  13  22  13  23  13  24  13  25  13  26  13  27   3  28   3
M  ISO  8  29  14  30  14  31  13  32  13  33  13  34  13  35  13  36   8
M  ISO  2  37   8  38   8
M  END
>  <minimizedAffinity>  (1) 
-5.70851183

>  <minimizedRMSD>  (1) 
0.163997948

$$$$
