
     RDKit          3D

 27 29  0  0  0  0  0  0  0  0999 V2000
   44.8360   33.1600   41.1090 Cl  0  0  0  0  0  0  0  0  0  0  0  0
   46.3460   33.9640   40.8990 C   0  0  0  0  0  0  0  0  0  0  0  0
   46.8690   34.7300   41.9220 C   0  0  0  0  0  0  0  0  0  0  0  0
   48.0900   35.4010   41.8030 C   0  0  0  0  0  0  0  0  0  0  0  0
   48.7330   35.2430   40.5920 C   0  0  0  0  0  0  0  0  0  0  0  0
   48.2270   34.4950   39.5870 C   0  0  0  0  0  0  0  0  0  0  0  0
   47.0140   33.8370   39.7250 C   0  0  0  0  0  0  0  0  0  0  0  0
   45.5930   34.0600   45.3230 C   0  0  0  0  0  0  0  0  0  0  0  0
   44.7080   35.1160   45.5200 C   0  0  0  0  0  0  0  0  0  0  0  0
   44.5470   36.0490   44.5030 C   0  0  0  0  0  0  0  0  0  0  0  0
   45.2590   35.8920   43.3590 N   0  0  0  0  0  0  0  0  0  0  0  0
   46.1260   34.8480   43.1790 C   0  0  0  0  0  0  0  0  0  0  0  0
   46.2760   33.9580   44.1580 N   0  0  0  0  0  0  0  0  0  0  0  0
   46.6120   33.0710   38.5430 C   0  0  0  0  0  0  0  0  0  0  0  0
   46.8850   33.5710   37.2800 C   0  0  0  0  0  0  0  0  0  0  0  0
   46.2020   32.2780   36.1500 S   0  0  0  0  0  0  0  0  0  0  0  0
   45.6500   31.2580   37.6540 C   0  0  0  0  0  0  0  0  0  0  0  0
   45.9980   31.9200   38.4790 N   0  0  0  0  0  0  0  0  0  0  0  0
   44.9820   30.0040   37.6630 O   0  0  0  0  0  0  0  0  0  0  0  0
   48.5084   36.0115   42.6168 H   0  0  0  0  0  0  0  0  0  0  0  0
   49.6984   35.7475   40.4385 H   0  0  0  0  0  0  0  0  0  0  0  0
   48.7863   34.4065   38.6439 H   0  0  0  0  0  0  0  0  0  0  0  0
   45.7376   33.3086   46.1132 H   0  0  0  0  0  0  0  0  0  0  0  0
   44.1474   35.2101   46.4617 H   0  0  0  0  0  0  0  0  0  0  0  0
   43.8568   36.8970   44.6230 H   0  0  0  0  0  0  0  0  0  0  0  0
   47.3879   34.5123   37.0136 H   0  0  0  0  0  0  0  0  0  0  0  0
   44.7480   29.5740   38.5235 H   0  0  0  0  0  0  0  0  0  0  0  0
  2  1  1  0
  2  3  2  0
  3 12  1  0
  4  3  1  0
  5  4  2  0
  6  7  2  0
  6  5  1  0
  7  2  1  0
  8  9  2  0
 10  9  1  0
 11 10  2  0
 12 11  1  0
 12 13  2  0
 13  8  1  0
 14  7  1  0
 15 14  2  0
 16 15  1  0
 16 17  1  0
 17 19  1  0
 17 18  2  0
 18 14  1  0
  4 20  1  0
  5 21  1  0
  6 22  1  0
  8 23  1  0
  9 24  1  0
 10 25  1  0
 15 26  1  0
 19 27  1  0
M  ISO  8  20  14  21  14  22  14  23  14  24  14  25  14  26  14  27   3
M  END
>  <minimizedAffinity>  (1) 
-5.51051998

>  <minimizedRMSD>  (1) 
0.0217744913

$$$$
