
     RDKit          3D

 51 54  0  0  1  0  0  0  0  0999 V2000
   42.8040   34.3050   39.0120 C   0  0  1  0  0  0  0  0  0  0  0  0
   43.0540   35.1840   40.2290 C   0  0  1  0  0  0  0  0  0  0  0  0
   41.8100   35.6750   40.6760 O   0  0  0  0  0  0  0  0  0  0  0  0
   40.9390   35.9630   39.6220 C   0  0  0  0  0  0  0  0  0  0  0  0
   40.4600   34.7070   38.9240 C   0  0  2  0  0  0  0  0  0  0  0  0
   41.5120   33.5930   39.2610 C   0  0  1  0  0  0  0  0  0  0  0  0
   42.7260   35.0810   37.8470 O   0  0  0  0  0  0  0  0  0  0  0  0
   40.5280   34.8830   37.5510 O   0  0  0  0  0  0  0  0  0  0  0  0
   43.4410   34.2860   41.2460 O   0  0  0  0  0  0  0  0  0  0  0  0
   44.5960   34.3530   41.9160 C   0  0  0  0  0  0  0  0  0  0  0  0
   45.8190   34.4970   41.2430 C   0  0  0  0  0  0  0  0  0  0  0  0
   46.9810   34.5620   41.9910 C   0  0  0  0  0  0  0  0  0  0  0  0
   46.9080   34.4830   43.3730 N   0  0  0  0  0  0  0  0  0  0  0  0
   45.7110   34.3440   43.9850 C   0  0  0  0  0  0  0  0  0  0  0  0
   44.5640   34.2780   43.2640 N   0  0  0  0  0  0  0  0  0  0  0  0
   48.3230   34.6950   41.3420 C   0  0  0  0  0  0  0  0  0  0  0  0
   49.0530   36.0240   41.5370 C   0  0  0  0  0  0  0  0  0  0  0  0
   49.5220   34.6780   42.1190 C   0  0  0  0  0  0  0  0  0  0  0  0
   41.2430   32.5350   38.4750 O   0  0  0  0  0  0  0  0  0  0  0  0
   40.2370   31.6440   38.5560 C   0  0  0  0  0  0  0  0  0  0  0  0
   39.7000   31.1040   37.4920 O   0  0  0  0  0  0  0  0  0  0  0  0
   39.2830   30.8410   39.3630 C   0  0  0  0  0  0  0  0  0  0  0  0
   38.4250   31.6810   40.2630 C   0  0  0  0  0  0  0  0  0  0  0  0
   37.7130   30.6870   41.1610 C   0  0  0  0  0  0  0  0  0  0  0  0
   36.9130   29.8530   40.4140 O   0  0  0  0  0  0  0  0  0  0  0  0
   37.6140   29.1040   39.4840 C   0  0  0  0  0  0  0  0  0  0  0  0
   38.3420   30.0240   38.5090 C   0  0  0  0  0  0  0  0  0  0  0  0
   43.6273   33.5905   38.8647 H   0  0  0  0  0  0  0  0  0  0  0  0
   43.7712   35.9882   40.0078 H   0  0  0  0  0  0  0  0  0  0  0  0
   40.0671   36.5034   40.0191 H   0  0  0  0  0  0  0  0  0  0  0  0
   41.4841   36.5738   38.8873 H   0  0  0  0  0  0  0  0  0  0  0  0
   39.4338   34.4631   39.2361 H   0  0  0  0  0  0  0  0  0  0  0  0
   41.5193   33.1725   40.2774 H   0  0  0  0  0  0  0  0  0  0  0  0
   42.6301   36.0354   38.0920 H   0  0  0  0  0  0  0  0  0  0  0  0
   40.8774   35.7875   37.3511 H   0  0  0  0  0  0  0  0  0  0  0  0
   45.8530   34.5569   40.1452 H   0  0  0  0  0  0  0  0  0  0  0  0
   45.6664   34.2836   45.0824 H   0  0  0  0  0  0  0  0  0  0  0  0
   47.9954   34.0954   40.4799 H   0  0  0  0  0  0  0  0  0  0  0  0
   49.5947   36.4953   40.7036 H   0  0  0  0  0  0  0  0  0  0  0  0
   48.8098   37.0249   41.9230 H   0  0  0  0  0  0  0  0  0  0  0  0
   49.4658   34.5043   43.2037 H   0  0  0  0  0  0  0  0  0  0  0  0
   50.4603   34.1061   42.0685 H   0  0  0  0  0  0  0  0  0  0  0  0
   39.9317   30.1838   39.9606 H   0  0  0  0  0  0  0  0  0  0  0  0
   39.0447   32.3668   40.8594 H   0  0  0  0  0  0  0  0  0  0  0  0
   37.7198   32.3075   39.6971 H   0  0  0  0  0  0  0  0  0  0  0  0
   38.4600   30.0857   41.7000 H   0  0  0  0  0  0  0  0  0  0  0  0
   37.0845   31.2384   41.8758 H   0  0  0  0  0  0  0  0  0  0  0  0
   38.3484   28.4723   40.0051 H   0  0  0  0  0  0  0  0  0  0  0  0
   36.9075   28.4737   38.9240 H   0  0  0  0  0  0  0  0  0  0  0  0
   37.6269   30.6782   37.9888 H   0  0  0  0  0  0  0  0  0  0  0  0
   38.8777   29.4586   37.7322 H   0  0  0  0  0  0  0  0  0  0  0  0
  1  6  1  0
  1  2  1  0
  2  3  1  0
  2  9  1  0
  4  3  1  0
  5  6  1  0
  5  4  1  0
  7  1  1  0
  8  5  1  0
  9 10  1  0
 10 15  1  0
 11 10  2  0
 11 12  1  0
 12 13  2  0
 13 14  1  0
 15 14  2  0
 16 17  1  0
 16 12  1  0
 16 18  1  0
 17 18  1  0
 19 20  1  0
 19  6  1  0
 20 22  1  0
 21 20  2  0
 22 23  1  0
 23 24  1  0
 25 24  1  0
 26 25  1  0
 27 22  1  0
 27 26  1  0
  1 28  1  6
  2 29  1  6
  4 30  1  0
  4 31  1  0
  5 32  1  6
  6 33  1  1
  7 34  1  0
  8 35  1  0
 11 36  1  0
 14 37  1  0
 16 38  1  0
 17 39  1  0
 17 40  1  0
 18 41  1  0
 18 42  1  0
 22 43  1  0
 23 44  1  0
 23 45  1  0
 24 46  1  0
 24 47  1  0
 26 48  1  0
 26 49  1  0
 27 50  1  0
 27 51  1  0
M  ISO  8  28  13  29  13  30  13  31  13  32  13  33  13  34   3  35   3
M  ISO  8  36  14  37  14  38  13  39  13  40  13  41  13  42  13  43  13
M  ISO  8  44  13  45  13  46  13  47  13  48  13  49  13  50  13  51  13
M  END
>  <minimizedAffinity>  (1) 
-6.40552616

>  <minimizedRMSD>  (1) 
1.72905338

$$$$
