
     RDKit          3D

 48 52  0  0  1  0  0  0  0  0999 V2000
   42.6470   34.4270   38.8650 C   0  0  1  0  0  0  0  0  0  0  0  0
   43.0330   35.1760   40.1310 C   0  0  1  0  0  0  0  0  0  0  0  0
   41.8460   35.6280   40.7520 O   0  0  0  0  0  0  0  0  0  0  0  0
   40.8690   36.0130   39.8280 C   0  0  0  0  0  0  0  0  0  0  0  0
   40.3080   34.8230   39.0710 C   0  0  2  0  0  0  0  0  0  0  0  0
   41.3870   33.6910   39.1820 C   0  0  1  0  0  0  0  0  0  0  0  0
   42.4510   35.3210   37.7980 O   0  0  0  0  0  0  0  0  0  0  0  0
   40.2340   35.1230   37.7200 O   0  0  0  0  0  0  0  0  0  0  0  0
   43.5200   34.2020   41.0050 O   0  0  0  0  0  0  0  0  0  0  0  0
   44.6340   34.3130   41.7400 C   0  0  0  0  0  0  0  0  0  0  0  0
   45.8900   34.4410   41.1290 C   0  0  0  0  0  0  0  0  0  0  0  0
   47.0090   34.5540   41.9370 C   0  0  0  0  0  0  0  0  0  0  0  0
   46.8560   34.5370   43.3140 N   0  0  0  0  0  0  0  0  0  0  0  0
   45.6280   34.4130   43.8640 C   0  0  0  0  0  0  0  0  0  0  0  0
   44.5240   34.3020   43.0840 N   0  0  0  0  0  0  0  0  0  0  0  0
   48.3860   34.6820   41.3490 C   0  0  0  0  0  0  0  0  0  0  0  0
   49.0710   36.0350   41.5220 C   0  0  0  0  0  0  0  0  0  0  0  0
   49.5350   34.7350   42.2010 C   0  0  0  0  0  0  0  0  0  0  0  0
   41.0190   32.7020   38.3540 O   0  0  0  0  0  0  0  0  0  0  0  0
   39.9170   31.9520   38.2940 C   0  0  0  0  0  0  0  0  0  0  0  0
   38.9590   32.1810   37.4020 O   0  0  0  0  0  0  0  0  0  0  0  0
   38.1900   30.4460   39.2690 N   0  0  0  0  0  0  0  0  0  0  0  0
   39.4550   30.7530   39.1000 C   0  0  0  0  0  0  0  0  0  0  0  0
   40.1820   29.7960   39.7600 N   0  0  0  0  0  0  0  0  0  0  0  0
   39.3730   28.9090   40.3300 C   0  0  0  0  0  0  0  0  0  0  0  0
   39.7140   27.8040   41.0780 C   0  0  0  0  0  0  0  0  0  0  0  0
   38.6640   27.0690   41.5390 N   0  0  0  0  0  0  0  0  0  0  0  0
   37.3940   27.4310   41.2620 C   0  0  0  0  0  0  0  0  0  0  0  0
   37.1490   28.5240   40.5250 N   0  0  0  0  0  0  0  0  0  0  0  0
   38.0950   29.3110   40.0260 C   0  0  0  0  0  0  0  0  0  0  0  0
   43.4424   33.7339   38.5534 H   0  0  0  0  0  0  0  0  0  0  0  0
   43.7338   35.9951   39.9120 H   0  0  0  0  0  0  0  0  0  0  0  0
   40.0488   36.5124   40.3645 H   0  0  0  0  0  0  0  0  0  0  0  0
   41.3364   36.6918   39.0995 H   0  0  0  0  0  0  0  0  0  0  0  0
   39.3200   34.5491   39.4697 H   0  0  0  0  0  0  0  0  0  0  0  0
   41.5143   33.1790   40.1472 H   0  0  0  0  0  0  0  0  0  0  0  0
   42.2533   36.2229   38.1552 H   0  0  0  0  0  0  0  0  0  0  0  0
   39.9985   36.0778   37.6064 H   0  0  0  0  0  0  0  0  0  0  0  0
   45.9841   34.4514   40.0331 H   0  0  0  0  0  0  0  0  0  0  0  0
   45.5223   34.4019   44.9589 H   0  0  0  0  0  0  0  0  0  0  0  0
   48.1269   34.0340   40.4988 H   0  0  0  0  0  0  0  0  0  0  0  0
   49.6535   36.4786   40.7010 H   0  0  0  0  0  0  0  0  0  0  0  0
   48.7797   37.0468   41.8406 H   0  0  0  0  0  0  0  0  0  0  0  0
   49.4139   34.6143   43.2876 H   0  0  0  0  0  0  0  0  0  0  0  0
   50.4880   34.1870   42.2393 H   0  0  0  0  0  0  0  0  0  0  0  0
   37.3929   30.9773   38.8904 H   0  0  0  0  0  0  0  0  0  0  0  0
   40.7595   27.5343   41.2881 H   0  0  0  0  0  0  0  0  0  0  0  0
   36.5567   26.8273   41.6421 H   0  0  0  0  0  0  0  0  0  0  0  0
  1  6  1  0
  1  2  1  0
  2  3  1  0
  2  9  1  0
  4  3  1  0
  5  6  1  0
  5  4  1  0
  7  1  1  0
  8  5  1  0
  9 10  1  0
 10 15  1  0
 11 10  2  0
 11 12  1  0
 12 13  2  0
 13 14  1  0
 15 14  2  0
 16 17  1  0
 16 12  1  0
 16 18  1  0
 17 18  1  0
 19  6  1  0
 20 19  1  0
 20 23  1  0
 21 20  2  0
 22 30  1  0
 23 22  1  0
 23 24  2  0
 24 25  1  0
 25 26  1  0
 26 27  2  0
 28 27  1  0
 29 28  2  0
 30 25  2  0
 30 29  1  0
  1 31  1  6
  2 32  1  6
  4 33  1  0
  4 34  1  0
  5 35  1  1
  6 36  1  1
  7 37  1  0
  8 38  1  0
 11 39  1  0
 14 40  1  0
 16 41  1  0
 17 42  1  0
 17 43  1  0
 18 44  1  0
 18 45  1  0
 22 46  1  0
 26 47  1  0
 28 48  1  0
M  ISO  8  31  13  32  13  33  13  34  13  35  13  36  13  37   3  38   3
M  ISO  8  39  14  40  14  41  13  42  13  43  13  44  13  45  13  46   9
M  ISO  2  47  14  48  14
M  END
>  <minimizedAffinity>  (1) 
-6.32538414

>  <minimizedRMSD>  (1) 
2.24537826

$$$$
