
     RDKit          3D

 13 13  0  0  0  0  0  0  0  0999 V2000
   44.5490   36.0010   44.5410 C   0  0  0  0  0  0  0  0  0  0  0  0
   45.2760   35.8350   43.3400 C   0  0  0  0  0  0  0  0  0  0  0  0
   46.1390   34.7400   43.2630 C   0  0  0  0  0  0  0  0  0  0  0  0
   46.2380   33.9010   44.3260 N   0  0  0  0  0  0  0  0  0  0  0  0
   45.5280   34.0940   45.4540 C   0  0  0  0  0  0  0  0  0  0  0  0
   44.6850   35.1430   45.5610 N   0  0  0  0  0  0  0  0  0  0  0  0
   45.7790   33.0630   46.5010 C   0  0  0  0  0  0  0  0  0  0  0  0
   44.9310   33.2020   47.5690 F   0  0  0  0  0  0  0  0  0  0  0  0
   47.0970   33.1560   46.9490 F   0  0  0  0  0  0  0  0  0  0  0  0
   45.6720   31.7960   45.9350 F   0  0  0  0  0  0  0  0  0  0  0  0
   43.8581   36.8512   44.6400 H   0  0  0  0  0  0  0  0  0  0  0  0
   45.1665   36.5387   42.5016 H   0  0  0  0  0  0  0  0  0  0  0  0
   46.7307   34.5595   42.3534 H   0  0  0  0  0  0  0  0  0  0  0  0
  1  6  2  0
  2  1  1  0
  3  2  2  0
  3  4  1  0
  4  5  2  0
  5  6  1  0
  5  7  1  0
  7  9  1  0
  7  8  1  0
 10  7  1  0
  1 11  1  0
  2 12  1  0
  3 13  1  0
M  ISO  3  11  14  12  14  13  14
M  END
>  <minimizedAffinity>  (1) 
-3.86056638

>  <minimizedRMSD>  (1) 
0.388148308

$$$$
