
     RDKit          3D

 29 31  0  0  0  0  0  0  0  0999 V2000
   44.8310   33.1620   41.1040 Cl  0  0  0  0  0  0  0  0  0  0  0  0
   46.3510   33.9710   40.9000 C   0  0  0  0  0  0  0  0  0  0  0  0
   46.8610   34.7320   41.9180 C   0  0  0  0  0  0  0  0  0  0  0  0
   48.0900   35.4070   41.8010 C   0  0  0  0  0  0  0  0  0  0  0  0
   48.7390   35.2500   40.6000 C   0  0  0  0  0  0  0  0  0  0  0  0
   48.2360   34.4940   39.5850 C   0  0  0  0  0  0  0  0  0  0  0  0
   47.0330   33.8430   39.7210 C   0  0  0  0  0  0  0  0  0  0  0  0
   45.5980   34.0550   45.3150 C   0  0  0  0  0  0  0  0  0  0  0  0
   44.7100   35.1140   45.5160 C   0  0  0  0  0  0  0  0  0  0  0  0
   44.5440   36.0520   44.5020 C   0  0  0  0  0  0  0  0  0  0  0  0
   45.2570   35.8840   43.3670 N   0  0  0  0  0  0  0  0  0  0  0  0
   46.1200   34.8570   43.1670 C   0  0  0  0  0  0  0  0  0  0  0  0
   46.2670   33.9650   44.1550 N   0  0  0  0  0  0  0  0  0  0  0  0
   46.6180   33.0680   38.5500 C   0  0  0  0  0  0  0  0  0  0  0  0
   46.8860   33.5720   37.2840 C   0  0  0  0  0  0  0  0  0  0  0  0
   46.1930   32.2810   36.1450 S   0  0  0  0  0  0  0  0  0  0  0  0
   45.6510   31.2620   37.6580 C   0  0  0  0  0  0  0  0  0  0  0  0
   46.0050   31.9220   38.4890 N   0  0  0  0  0  0  0  0  0  0  0  0
   44.9420   29.9390   37.5820 C   0  0  0  0  0  0  0  0  0  0  0  0
   48.5034   36.0192   42.6161 H   0  0  0  0  0  0  0  0  0  0  0  0
   49.7046   35.7558   40.4523 H   0  0  0  0  0  0  0  0  0  0  0  0
   48.7994   34.4032   38.6446 H   0  0  0  0  0  0  0  0  0  0  0  0
   45.7479   33.3005   46.1013 H   0  0  0  0  0  0  0  0  0  0  0  0
   44.1517   35.2049   46.4594 H   0  0  0  0  0  0  0  0  0  0  0  0
   43.8555   36.9016   44.6205 H   0  0  0  0  0  0  0  0  0  0  0  0
   47.3897   34.5133   37.0191 H   0  0  0  0  0  0  0  0  0  0  0  0
   44.7443   29.5700   38.5992 H   0  0  0  0  0  0  0  0  0  0  0  0
   43.9898   30.0636   37.0456 H   0  0  0  0  0  0  0  0  0  0  0  0
   45.5730   29.2151   37.0456 H   0  0  0  0  0  0  0  0  0  0  0  0
  2  1  1  0
  2  3  2  0
  3 12  1  0
  4  3  1  0
  5  4  2  0
  6  7  2  0
  6  5  1  0
  7  2  1  0
  8  9  2  0
 10  9  1  0
 11 10  2  0
 12 11  1  0
 12 13  2  0
 13  8  1  0
 14  7  1  0
 15 14  2  0
 16 15  1  0
 16 17  1  0
 17 18  2  0
 18 14  1  0
 19 17  1  0
  4 20  1  0
  5 21  1  0
  6 22  1  0
  8 23  1  0
  9 24  1  0
 10 25  1  0
 15 26  1  0
 19 27  1  0
 19 28  1  0
 19 29  1  0
M  ISO  8  20  14  21  14  22  14  23  14  24  14  25  14  26  14  27   8
M  ISO  2  28   8  29   8
M  END
>  <minimizedAffinity>  (1) 
-5.50616646

>  <minimizedRMSD>  (1) 
0.0226035584

$$$$
