
     RDKit          3D

 23 24  0  0  0  0  0  0  0  0999 V2000
   44.4480   36.0320   44.8820 C   0  0  0  0  0  0  0  0  0  0  0  0
   45.0680   35.9430   43.6110 C   0  0  0  0  0  0  0  0  0  0  0  0
   45.9030   34.8610   43.3800 C   0  0  0  0  0  0  0  0  0  0  0  0
   46.0750   33.9570   44.3780 N   0  0  0  0  0  0  0  0  0  0  0  0
   45.4740   34.0710   45.5670 C   0  0  0  0  0  0  0  0  0  0  0  0
   44.6620   35.1060   45.8170 N   0  0  0  0  0  0  0  0  0  0  0  0
   44.3660   33.2750   41.3760 Cl  0  0  0  0  0  0  0  0  0  0  0  0
   45.9750   33.9600   41.1020 C   0  0  0  0  0  0  0  0  0  0  0  0
   46.5880   34.6770   42.1070 C   0  0  0  0  0  0  0  0  0  0  0  0
   47.8370   35.1750   41.8110 C   0  0  0  0  0  0  0  0  0  0  0  0
   48.4630   34.9870   40.5980 C   0  0  0  0  0  0  0  0  0  0  0  0
   47.7770   34.2570   39.6520 C   0  0  0  0  0  0  0  0  0  0  0  0
   48.5850   34.0190   38.0980 Cl  0  0  0  0  0  0  0  0  0  0  0  0
   46.5260   33.7200   39.8580 C   0  0  0  0  0  0  0  0  0  0  0  0
   45.8160   32.9580   46.4990 C   0  0  0  0  0  0  0  0  0  0  0  0
   44.9900   32.9480   47.6040 F   0  0  0  0  0  0  0  0  0  0  0  0
   47.1290   33.0760   46.9290 F   0  0  0  0  0  0  0  0  0  0  0  0
   45.7560   31.7440   45.8290 F   0  0  0  0  0  0  0  0  0  0  0  0
   43.7799   36.8781   45.1006 H   0  0  0  0  0  0  0  0  0  0  0  0
   44.8932   36.7042   42.8364 H   0  0  0  0  0  0  0  0  0  0  0  0
   48.3633   35.7539   42.5842 H   0  0  0  0  0  0  0  0  0  0  0  0
   49.4621   35.3998   40.3947 H   0  0  0  0  0  0  0  0  0  0  0  0
   46.0011   33.1396   39.0849 H   0  0  0  0  0  0  0  0  0  0  0  0
  1  6  2  0
  2  1  1  0
  3  2  2  0
  3  4  1  0
  4  5  2  0
  5  6  1  0
  5 15  1  0
  8  7  1  0
  8  9  2  0
  9  3  1  0
 10  9  1  0
 11 10  2  0
 12 14  2  0
 12 11  1  0
 13 12  1  0
 14  8  1  0
 15 17  1  0
 15 16  1  0
 18 15  1  0
  1 19  1  0
  2 20  1  0
 10 21  1  0
 11 22  1  0
 14 23  1  0
M  ISO  5  19  14  20  14  21  14  22  14  23  14
M  END
>  <minimizedAffinity>  (1) 
-6.07134342

>  <minimizedRMSD>  (1) 
0.682745516

$$$$
