
     RDKit          3D

 22 23  0  0  0  0  0  0  0  0999 V2000
   44.4830   35.9900   44.7120 C   0  0  0  0  0  0  0  0  0  0  0  0
   45.1780   35.9060   43.4850 C   0  0  0  0  0  0  0  0  0  0  0  0
   46.0580   34.8400   43.3290 C   0  0  0  0  0  0  0  0  0  0  0  0
   46.2040   33.9550   44.3360 N   0  0  0  0  0  0  0  0  0  0  0  0
   45.5270   34.0640   45.4910 C   0  0  0  0  0  0  0  0  0  0  0  0
   44.6670   35.0830   45.6780 N   0  0  0  0  0  0  0  0  0  0  0  0
   46.7980   34.7150   42.0770 C   0  0  0  0  0  0  0  0  0  0  0  0
   48.0080   35.3580   41.9410 C   0  0  0  0  0  0  0  0  0  0  0  0
   48.6550   35.2040   40.7460 C   0  0  0  0  0  0  0  0  0  0  0  0
   48.0490   34.4240   39.7820 C   0  0  0  0  0  0  0  0  0  0  0  0
   46.8340   33.7740   39.9070 C   0  0  0  0  0  0  0  0  0  0  0  0
   46.2510   33.9660   41.1050 N   0  0  0  0  0  0  0  0  0  0  0  0
   45.8350   32.9810   46.4720 C   0  0  0  0  0  0  0  0  0  0  0  0
   44.9990   33.0280   47.5690 F   0  0  0  0  0  0  0  0  0  0  0  0
   47.1470   33.0930   46.9170 F   0  0  0  0  0  0  0  0  0  0  0  0
   45.7480   31.7480   45.8260 F   0  0  0  0  0  0  0  0  0  0  0  0
   43.7768   36.8172   44.8763 H   0  0  0  0  0  0  0  0  0  0  0  0
   45.0299   36.6502   42.6886 H   0  0  0  0  0  0  0  0  0  0  0  0
   48.4332   35.9656   42.7534 H   0  0  0  0  0  0  0  0  0  0  0  0
   49.6261   35.6858   40.5593 H   0  0  0  0  0  0  0  0  0  0  0  0
   48.5810   34.3085   38.8262 H   0  0  0  0  0  0  0  0  0  0  0  0
   46.3894   33.1622   39.1082 H   0  0  0  0  0  0  0  0  0  0  0  0
  1  6  2  0
  2  1  1  0
  3  2  2  0
  3  4  1  0
  4  5  2  0
  5  6  1  0
  5 13  1  0
  7  3  1  0
  8  7  2  0
  9  8  1  0
 10 11  1  0
 10  9  2  0
 11 12  2  0
 12  7  1  0
 13 15  1  0
 13 14  1  0
 16 13  1  0
  1 17  1  0
  2 18  1  0
  8 19  1  0
  9 20  1  0
 10 21  1  0
 11 22  1  0
M  ISO  6  17  14  18  14  19  14  20  14  21  14  22  14
M  END
>  <minimizedAffinity>  (1) 
-5.81181622

>  <minimizedRMSD>  (1) 
0.374025553

$$$$
