
     RDKit          3D

 28 30  0  0  0  0  0  0  0  0999 V2000
   44.8320   33.1750   41.0970 Cl  0  0  0  0  0  0  0  0  0  0  0  0
   46.3500   33.9770   40.8980 C   0  0  0  0  0  0  0  0  0  0  0  0
   46.8690   34.7380   41.9140 C   0  0  0  0  0  0  0  0  0  0  0  0
   48.0930   35.4020   41.7920 C   0  0  0  0  0  0  0  0  0  0  0  0
   48.7340   35.2420   40.5950 C   0  0  0  0  0  0  0  0  0  0  0  0
   48.2370   34.4950   39.5830 C   0  0  0  0  0  0  0  0  0  0  0  0
   47.0160   33.8380   39.7170 C   0  0  0  0  0  0  0  0  0  0  0  0
   45.5870   34.0620   45.3100 C   0  0  0  0  0  0  0  0  0  0  0  0
   44.7060   35.1140   45.5170 C   0  0  0  0  0  0  0  0  0  0  0  0
   44.5530   36.0430   44.5070 C   0  0  0  0  0  0  0  0  0  0  0  0
   45.2630   35.8940   43.3580 N   0  0  0  0  0  0  0  0  0  0  0  0
   46.1200   34.8630   43.1700 C   0  0  0  0  0  0  0  0  0  0  0  0
   46.2720   33.9530   44.1550 N   0  0  0  0  0  0  0  0  0  0  0  0
   46.6090   33.0680   38.5360 C   0  0  0  0  0  0  0  0  0  0  0  0
   46.8930   33.5710   37.2730 C   0  0  0  0  0  0  0  0  0  0  0  0
   46.1940   32.2630   36.1500 S   0  0  0  0  0  0  0  0  0  0  0  0
   45.6370   31.2600   37.6540 C   0  0  0  0  0  0  0  0  0  0  0  0
   45.9900   31.9260   38.4810 N   0  0  0  0  0  0  0  0  0  0  0  0
   44.9510   29.9880   37.3670 C   0  0  0  0  0  0  0  0  0  0  0  0
   44.3540   29.7580   36.3070 O   0  0  0  0  0  0  0  0  0  0  0  0
   48.5126   36.0127   42.6050 H   0  0  0  0  0  0  0  0  0  0  0  0
   49.7010   35.7453   40.4479 H   0  0  0  0  0  0  0  0  0  0  0  0
   48.8030   34.4053   38.6441 H   0  0  0  0  0  0  0  0  0  0  0  0
   45.7278   33.3080   46.0985 H   0  0  0  0  0  0  0  0  0  0  0  0
   44.1454   35.2052   46.4590 H   0  0  0  0  0  0  0  0  0  0  0  0
   43.8654   36.8926   44.6309 H   0  0  0  0  0  0  0  0  0  0  0  0
   47.4032   34.5077   37.0042 H   0  0  0  0  0  0  0  0  0  0  0  0
   44.9703   29.2010   38.1352 H   0  0  0  0  0  0  0  0  0  0  0  0
  2  1  1  0
  2  3  2  0
  3 12  1  0
  4  3  1  0
  5  4  2  0
  6  7  2  0
  6  5  1  0
  7  2  1  0
  8  9  2  0
 10  9  1  0
 11 10  2  0
 12 11  1  0
 12 13  2  0
 13  8  1  0
 14  7  1  0
 15 14  2  0
 16 15  1  0
 16 17  1  0
 17 18  2  0
 18 14  1  0
 19 17  1  0
 20 19  2  0
  4 21  1  0
  5 22  1  0
  6 23  1  0
  8 24  1  0
  9 25  1  0
 10 26  1  0
 15 27  1  0
 19 28  1  0
M  ISO  8  21  14  22  14  23  14  24  14  25  14  26  14  27  14  28   6
M  END
>  <minimizedAffinity>  (1) 
-5.32892323

>  <minimizedRMSD>  (1) 
0.0770154819

$$$$
