
     RDKit          3D

 16 16  0  0  0  0  0  0  0  0999 V2000
   44.5270   36.0230   44.5280 C   0  0  0  0  0  0  0  0  0  0  0  0
   45.2520   35.9220   43.3300 C   0  0  0  0  0  0  0  0  0  0  0  0
   46.1420   34.8540   43.2200 C   0  0  0  0  0  0  0  0  0  0  0  0
   46.2500   33.9930   44.2610 N   0  0  0  0  0  0  0  0  0  0  0  0
   45.5440   34.1190   45.3890 C   0  0  0  0  0  0  0  0  0  0  0  0
   44.6720   35.1370   45.5370 N   0  0  0  0  0  0  0  0  0  0  0  0
   45.8240   33.0570   46.3970 C   0  0  0  0  0  0  0  0  0  0  0  0
   44.9780   33.1430   47.4760 F   0  0  0  0  0  0  0  0  0  0  0  0
   47.1330   33.1510   46.8370 F   0  0  0  0  0  0  0  0  0  0  0  0
   45.7210   31.8070   45.7710 F   0  0  0  0  0  0  0  0  0  0  0  0
   46.9360   34.6980   41.9730 C   0  0  0  0  0  0  0  0  0  0  0  0
   43.8156   36.8532   44.6492 H   0  0  0  0  0  0  0  0  0  0  0  0
   45.1240   36.6511   42.5163 H   0  0  0  0  0  0  0  0  0  0  0  0
   47.9855   34.4918   42.2300 H   0  0  0  0  0  0  0  0  0  0  0  0
   46.5319   33.8621   41.3831 H   0  0  0  0  0  0  0  0  0  0  0  0
   46.8782   35.6247   41.3831 H   0  0  0  0  0  0  0  0  0  0  0  0
  1  6  2  0
  2  1  1  0
  3  2  2  0
  3  4  1  0
  4  5  2  0
  5  6  1  0
  5  7  1  0
  7  9  1  0
  7  8  1  0
 10  7  1  0
 11  3  1  0
  1 12  1  0
  2 13  1  0
 11 14  1  0
 11 15  1  0
 11 16  1  0
M  ISO  5  12  14  13  14  14   8  15   8  16   8
M  END
>  <minimizedAffinity>  (1) 
-4.22919798

>  <minimizedRMSD>  (1) 
0.115695864

$$$$
