
     RDKit          3D

 14 14  0  0  0  0  0  0  0  0999 V2000
   44.5340   36.0240   44.5310 C   0  0  0  0  0  0  0  0  0  0  0  0
   45.2750   35.8870   43.3240 C   0  0  0  0  0  0  0  0  0  0  0  0
   46.1560   34.7990   43.2290 C   0  0  0  0  0  0  0  0  0  0  0  0
   46.2540   33.9490   44.2770 N   0  0  0  0  0  0  0  0  0  0  0  0
   45.5370   34.1090   45.4020 C   0  0  0  0  0  0  0  0  0  0  0  0
   44.6860   35.1450   45.5170 N   0  0  0  0  0  0  0  0  0  0  0  0
   45.7890   33.0680   46.4330 C   0  0  0  0  0  0  0  0  0  0  0  0
   44.9670   33.1860   47.5100 F   0  0  0  0  0  0  0  0  0  0  0  0
   47.1220   33.1580   46.8690 F   0  0  0  0  0  0  0  0  0  0  0  0
   45.6780   31.8110   45.8520 F   0  0  0  0  0  0  0  0  0  0  0  0
   46.9050   34.6240   42.0630 O   0  0  0  0  0  0  0  0  0  0  0  0
   43.8313   36.8620   44.6491 H   0  0  0  0  0  0  0  0  0  0  0  0
   45.1617   36.6052   42.4985 H   0  0  0  0  0  0  0  0  0  0  0  0
   47.5294   33.8596   41.9858 H   0  0  0  0  0  0  0  0  0  0  0  0
  1  6  2  0
  2  1  1  0
  3  2  2  0
  3  4  1  0
  4  5  2  0
  5  6  1  0
  5  7  1  0
  7  9  1  0
  7  8  1  0
 10  7  1  0
 11  3  1  0
  1 12  1  0
  2 13  1  0
 11 14  1  0
M  ISO  3  12  14  13  14  14   3
M  END
>  <minimizedAffinity>  (1) 
-4.0881772

>  <minimizedRMSD>  (1) 
0.0683119893

$$$$
