
     RDKit          3D

 45 48  0  0  0  0  0  0  0  0999 V2000
   46.8530   34.9060   42.0600 C   0  0  0  0  0  0  0  0  0  0  0  0
   48.0490   35.5980   42.1050 C   0  0  0  0  0  0  0  0  0  0  0  0
   48.9830   35.6290   41.0760 C   0  0  0  0  0  0  0  0  0  0  0  0
   48.7250   34.9300   39.9150 C   0  0  0  0  0  0  0  0  0  0  0  0
   47.5540   34.2380   39.8340 C   0  0  0  0  0  0  0  0  0  0  0  0
   47.1940   33.5920   38.7030 C   0  0  0  0  0  0  0  0  0  0  0  0
   46.0130   32.9500   38.5140 C   0  0  0  0  0  0  0  0  0  0  0  0
   45.1470   32.9780   39.5840 C   0  0  0  0  0  0  0  0  0  0  0  0
   45.4650   33.6180   40.7750 C   0  0  0  0  0  0  0  0  0  0  0  0
   46.6710   34.2450   40.8850 C   0  0  0  0  0  0  0  0  0  0  0  0
   44.4310   35.9640   44.7140 C   0  0  0  0  0  0  0  0  0  0  0  0
   45.1220   36.0040   43.5100 C   0  0  0  0  0  0  0  0  0  0  0  0
   46.0780   35.0010   43.2240 C   0  0  0  0  0  0  0  0  0  0  0  0
   46.2200   34.0780   44.2220 N   0  0  0  0  0  0  0  0  0  0  0  0
   45.5590   34.0540   45.3540 C   0  0  0  0  0  0  0  0  0  0  0  0
   44.6610   35.0070   45.5880 N   0  0  0  0  0  0  0  0  0  0  0  0
   45.8820   32.8860   46.2310 C   0  0  0  0  0  0  0  0  0  0  0  0
   45.0980   32.8530   47.3500 F   0  0  0  0  0  0  0  0  0  0  0  0
   47.2260   32.9160   46.5490 F   0  0  0  0  0  0  0  0  0  0  0  0
   45.7320   31.7010   45.4750 F   0  0  0  0  0  0  0  0  0  0  0  0
   44.3980   33.4310   41.7340 C   0  0  0  0  0  0  0  0  0  0  0  0
   44.2510   31.8620   41.6920 C   0  0  0  0  0  0  0  0  0  0  0  0
   43.0010   31.4880   42.4550 C   0  0  0  0  0  0  0  0  0  0  0  0
   41.8970   31.8900   41.5150 C   0  0  0  0  0  0  0  0  0  0  0  0
   41.8930   33.3560   41.2120 C   0  0  0  0  0  0  0  0  0  0  0  0
   43.1390   34.0740   41.1290 C   0  0  0  0  0  0  0  0  0  0  0  0
   48.2777   36.1642   43.0199 H   0  0  0  0  0  0  0  0  0  0  0  0
   49.9149   36.2029   41.1859 H   0  0  0  0  0  0  0  0  0  0  0  0
   49.4421   34.9312   39.0808 H   0  0  0  0  0  0  0  0  0  0  0  0
   47.9137   33.5859   37.8711 H   0  0  0  0  0  0  0  0  0  0  0  0
   45.7648   32.4421   37.5704 H   0  0  0  0  0  0  0  0  0  0  0  0
   44.1718   32.4774   39.4927 H   0  0  0  0  0  0  0  0  0  0  0  0
   43.6842   36.7396   44.9394 H   0  0  0  0  0  0  0  0  0  0  0  0
   44.9278   36.8083   42.7852 H   0  0  0  0  0  0  0  0  0  0  0  0
   44.5600   33.8468   42.7394 H   0  0  0  0  0  0  0  0  0  0  0  0
   44.1668   31.5230   40.6489 H   0  0  0  0  0  0  0  0  0  0  0  0
   45.1320   31.3840   42.1452 H   0  0  0  0  0  0  0  0  0  0  0  0
   42.9716   30.4077   42.6603 H   0  0  0  0  0  0  0  0  0  0  0  0
   42.9316   31.9756   43.4386 H   0  0  0  0  0  0  0  0  0  0  0  0
   42.0206   31.3373   40.5720 H   0  0  0  0  0  0  0  0  0  0  0  0
   40.9424   31.6527   42.0073 H   0  0  0  0  0  0  0  0  0  0  0  0
   41.3894   33.4792   40.2419 H   0  0  0  0  0  0  0  0  0  0  0  0
   41.4033   33.7968   42.0929 H   0  0  0  0  0  0  0  0  0  0  0  0
   43.3435   34.2472   40.0622 H   0  0  0  0  0  0  0  0  0  0  0  0
   42.9738   34.9719   41.7426 H   0  0  0  0  0  0  0  0  0  0  0  0
  1  2  2  0
  1 13  1  0
  3  2  1  0
  4  3  2  0
  5  4  1  0
  5 10  2  0
  6  5  1  0
  7  6  2  0
  7  8  1  0
  8  9  2  0
  9 10  1  0
  9 21  1  0
 10  1  1  0
 11 16  2  0
 12 11  1  0
 13 12  2  0
 13 14  1  0
 14 15  2  0
 15 16  1  0
 15 17  1  0
 17 19  1  0
 17 18  1  0
 20 17  1  0
 22 21  1  0
 22 23  1  0
 24 23  1  0
 25 24  1  0
 26 25  1  0
 26 21  1  0
  2 27  1  0
  3 28  1  0
  4 29  1  0
  6 30  1  0
  7 31  1  0
  8 32  1  0
 11 33  1  0
 12 34  1  0
 21 35  1  0
 22 36  1  0
 22 37  1  0
 23 38  1  0
 23 39  1  0
 24 40  1  0
 24 41  1  0
 25 42  1  0
 25 43  1  0
 26 44  1  0
 26 45  1  0
M  ISO  8  27  14  28  14  29  14  30  14  31  14  32  14  33  14  34  14
M  ISO  8  35  13  36  13  37  13  38  13  39  13  40  13  41  13  42  13
M  ISO  3  43  13  44  13  45  13
M  END
>  <minimizedAffinity>  (1) 
-7.12352467

>  <minimizedRMSD>  (1) 
1.01080739

$$$$
