
     RDKit          3D

 41 44  0  0  0  0  0  0  0  0999 V2000
   46.9600   34.9630   42.0790 C   0  0  0  0  0  0  0  0  0  0  0  0
   48.1640   35.6840   42.1530 C   0  0  0  0  0  0  0  0  0  0  0  0
   49.1020   35.7590   41.1440 C   0  0  0  0  0  0  0  0  0  0  0  0
   48.8740   35.0890   39.9590 C   0  0  0  0  0  0  0  0  0  0  0  0
   47.7020   34.3660   39.8380 C   0  0  0  0  0  0  0  0  0  0  0  0
   47.4240   33.7070   38.6820 C   0  0  0  0  0  0  0  0  0  0  0  0
   46.2690   32.9890   38.4910 C   0  0  0  0  0  0  0  0  0  0  0  0
   45.3610   32.9600   39.5650 C   0  0  0  0  0  0  0  0  0  0  0  0
   45.6870   33.6460   40.7230 C   0  0  0  0  0  0  0  0  0  0  0  0
   46.8300   34.3440   40.8800 C   0  0  0  0  0  0  0  0  0  0  0  0
   44.4100   35.9000   44.6660 C   0  0  0  0  0  0  0  0  0  0  0  0
   45.1420   35.9860   43.4860 C   0  0  0  0  0  0  0  0  0  0  0  0
   46.1360   35.0260   43.2300 C   0  0  0  0  0  0  0  0  0  0  0  0
   46.2910   34.0770   44.1950 N   0  0  0  0  0  0  0  0  0  0  0  0
   45.5920   33.9990   45.3140 C   0  0  0  0  0  0  0  0  0  0  0  0
   44.6450   34.9310   45.5330 N   0  0  0  0  0  0  0  0  0  0  0  0
   45.9370   32.8520   46.1910 C   0  0  0  0  0  0  0  0  0  0  0  0
   45.1540   32.8070   47.3110 F   0  0  0  0  0  0  0  0  0  0  0  0
   47.2830   32.8950   46.5180 F   0  0  0  0  0  0  0  0  0  0  0  0
   45.7960   31.6620   45.4380 F   0  0  0  0  0  0  0  0  0  0  0  0
   44.5730   33.3870   41.5730 N   0  0  0  0  0  0  0  0  0  0  0  0
   43.9500   32.5860   42.6050 C   0  0  0  0  0  0  0  0  0  0  0  0
   42.7020   31.9900   41.9230 C   0  0  0  0  0  0  0  0  0  0  0  0
   42.2500   33.2480   41.1750 C   0  0  0  0  0  0  0  0  0  0  0  0
   43.3660   34.2430   41.4780 C   0  0  0  0  0  0  0  0  0  0  0  0
   48.3743   36.2293   43.0849 H   0  0  0  0  0  0  0  0  0  0  0  0
   50.0217   36.3464   41.2824 H   0  0  0  0  0  0  0  0  0  0  0  0
   49.6027   35.1291   39.1360 H   0  0  0  0  0  0  0  0  0  0  0  0
   48.1569   33.7508   37.8629 H   0  0  0  0  0  0  0  0  0  0  0  0
   46.0644   32.4635   37.5466 H   0  0  0  0  0  0  0  0  0  0  0  0
   44.4142   32.4054   39.4869 H   0  0  0  0  0  0  0  0  0  0  0  0
   43.6291   36.6449   44.8790 H   0  0  0  0  0  0  0  0  0  0  0  0
   44.9458   36.7929   42.7646 H   0  0  0  0  0  0  0  0  0  0  0  0
   44.6284   31.7883   42.9419 H   0  0  0  0  0  0  0  0  0  0  0  0
   43.6993   33.1744   43.4999 H   0  0  0  0  0  0  0  0  0  0  0  0
   42.9538   31.1660   41.2392 H   0  0  0  0  0  0  0  0  0  0  0  0
   41.9584   31.5310   42.5911 H   0  0  0  0  0  0  0  0  0  0  0  0
   41.2833   33.6092   41.5559 H   0  0  0  0  0  0  0  0  0  0  0  0
   42.0960   33.0820   40.0986 H   0  0  0  0  0  0  0  0  0  0  0  0
   43.4682   34.9789   40.6668 H   0  0  0  0  0  0  0  0  0  0  0  0
   43.1825   34.8295   42.3904 H   0  0  0  0  0  0  0  0  0  0  0  0
  1  2  2  0
  1 13  1  0
  3  2  1  0
  4  3  2  0
  5  4  1  0
  5 10  2  0
  6  5  1  0
  7  6  2  0
  7  8  1  0
  8  9  2  0
  9 10  1  0
  9 21  1  0
 10  1  1  0
 11 16  2  0
 12 11  1  0
 13 12  2  0
 13 14  1  0
 14 15  2  0
 15 16  1  0
 15 17  1  0
 17 19  1  0
 17 18  1  0
 20 17  1  0
 21 22  1  0
 23 22  1  0
 24 25  1  0
 24 23  1  0
 25 21  1  0
  2 26  1  0
  3 27  1  0
  4 28  1  0
  6 29  1  0
  7 30  1  0
  8 31  1  0
 11 32  1  0
 12 33  1  0
 22 34  1  0
 22 35  1  0
 23 36  1  0
 23 37  1  0
 24 38  1  0
 24 39  1  0
 25 40  1  0
 25 41  1  0
M  ISO  8  26  14  27  14  28  14  29  14  30  14  31  14  32  14  33  14
M  ISO  8  34  13  35  13  36  13  37  13  38  13  39  13  40  13  41  13
M  END
>  <minimizedAffinity>  (1) 
-6.80972528

>  <minimizedRMSD>  (1) 
1.0728308

$$$$
