
     RDKit          3D

 31 33  0  0  0  0  0  0  0  0999 V2000
   46.6470   34.7880   42.1250 C   0  0  0  0  0  0  0  0  0  0  0  0
   47.8800   35.4150   42.0150 C   0  0  0  0  0  0  0  0  0  0  0  0
   48.7050   35.3440   40.9150 C   0  0  0  0  0  0  0  0  0  0  0  0
   48.3240   34.6120   39.8220 C   0  0  0  0  0  0  0  0  0  0  0  0
   47.1090   33.9650   39.8670 C   0  0  0  0  0  0  0  0  0  0  0  0
   46.6670   33.2210   38.8050 C   0  0  0  0  0  0  0  0  0  0  0  0
   45.4590   32.5620   38.8010 C   0  0  0  0  0  0  0  0  0  0  0  0
   44.6790   32.6810   39.9470 C   0  0  0  0  0  0  0  0  0  0  0  0
   45.1520   33.4340   40.9950 C   0  0  0  0  0  0  0  0  0  0  0  0
   46.3410   34.0790   40.9930 C   0  0  0  0  0  0  0  0  0  0  0  0
   44.4250   36.0630   44.8700 C   0  0  0  0  0  0  0  0  0  0  0  0
   45.0590   36.0230   43.6300 C   0  0  0  0  0  0  0  0  0  0  0  0
   45.9330   34.9760   43.3390 C   0  0  0  0  0  0  0  0  0  0  0  0
   46.0910   34.0560   44.3370 N   0  0  0  0  0  0  0  0  0  0  0  0
   45.4790   34.1080   45.5140 C   0  0  0  0  0  0  0  0  0  0  0  0
   44.6510   35.1130   45.7650 N   0  0  0  0  0  0  0  0  0  0  0  0
   45.8230   32.9720   46.4310 C   0  0  0  0  0  0  0  0  0  0  0  0
   44.9930   32.9240   47.5150 F   0  0  0  0  0  0  0  0  0  0  0  0
   47.1520   33.0610   46.8180 F   0  0  0  0  0  0  0  0  0  0  0  0
   45.7670   31.7690   45.6920 F   0  0  0  0  0  0  0  0  0  0  0  0
   44.2390   33.4620   42.0910 N   0  0  0  0  0  0  0  0  0  0  0  0
   48.2242   36.0139   42.8711 H   0  0  0  0  0  0  0  0  0  0  0  0
   49.6687   35.8744   40.9141 H   0  0  0  0  0  0  0  0  0  0  0  0
   48.9696   34.5428   38.9341 H   0  0  0  0  0  0  0  0  0  0  0  0
   47.3076   33.1469   37.9139 H   0  0  0  0  0  0  0  0  0  0  0  0
   45.1266   31.9707   37.9351 H   0  0  0  0  0  0  0  0  0  0  0  0
   43.7013   32.1814   40.0131 H   0  0  0  0  0  0  0  0  0  0  0  0
   43.7346   36.8861   45.1065 H   0  0  0  0  0  0  0  0  0  0  0  0
   44.8716   36.8114   42.8861 H   0  0  0  0  0  0  0  0  0  0  0  0
   44.4726   33.9925   42.9424 H   0  0  0  0  0  0  0  0  0  0  0  0
   43.3463   32.9518   42.0308 H   0  0  0  0  0  0  0  0  0  0  0  0
  1 13  1  0
  2  1  2  0
  3  2  1  0
  4  5  1  0
  4  3  2  0
  5 10  2  0
  6  5  1  0
  7  6  2  0
  7  8  1  0
  8  9  2  0
  9 21  1  0
 10  9  1  0
 10  1  1  0
 11 16  2  0
 12 11  1  0
 13 12  2  0
 13 14  1  0
 14 15  2  0
 15 16  1  0
 15 17  1  0
 17 19  1  0
 17 18  1  0
 20 17  1  0
  2 22  1  0
  3 23  1  0
  4 24  1  0
  6 25  1  0
  7 26  1  0
  8 27  1  0
 11 28  1  0
 12 29  1  0
 21 30  1  0
 21 31  1  0
M  ISO  8  22  14  23  14  24  14  25  14  26  14  27  14  28  14  29  14
M  END
>  <minimizedAffinity>  (1) 
-6.72228336

>  <minimizedRMSD>  (1) 
0.146693036

$$$$
