
     RDKit          3D

 33 35  0  0  0  0  0  0  0  0999 V2000
   46.5120   34.6770   42.2840 C   0  0  0  0  0  0  0  0  0  0  0  0
   47.7500   35.2930   42.1540 C   0  0  0  0  0  0  0  0  0  0  0  0
   48.5280   35.2350   41.0130 C   0  0  0  0  0  0  0  0  0  0  0  0
   48.0880   34.5340   39.9160 C   0  0  0  0  0  0  0  0  0  0  0  0
   46.8570   33.9020   40.0010 C   0  0  0  0  0  0  0  0  0  0  0  0
   46.3680   33.1920   38.9430 C   0  0  0  0  0  0  0  0  0  0  0  0
   45.1640   32.5490   38.9640 C   0  0  0  0  0  0  0  0  0  0  0  0
   44.4290   32.6520   40.1500 C   0  0  0  0  0  0  0  0  0  0  0  0
   44.9610   33.3800   41.1960 C   0  0  0  0  0  0  0  0  0  0  0  0
   46.1490   34.0050   41.1550 C   0  0  0  0  0  0  0  0  0  0  0  0
   44.4140   35.9020   45.1520 C   0  0  0  0  0  0  0  0  0  0  0  0
   44.9870   35.8840   43.8830 C   0  0  0  0  0  0  0  0  0  0  0  0
   45.8530   34.8450   43.5320 C   0  0  0  0  0  0  0  0  0  0  0  0
   46.0540   33.9150   44.5190 N   0  0  0  0  0  0  0  0  0  0  0  0
   45.5000   33.9510   45.7170 C   0  0  0  0  0  0  0  0  0  0  0  0
   44.6860   34.9460   46.0190 N   0  0  0  0  0  0  0  0  0  0  0  0
   45.8880   32.8060   46.6040 C   0  0  0  0  0  0  0  0  0  0  0  0
   45.0100   32.6510   47.6470 F   0  0  0  0  0  0  0  0  0  0  0  0
   47.1830   32.9580   47.0450 F   0  0  0  0  0  0  0  0  0  0  0  0
   45.9390   31.6330   45.8120 F   0  0  0  0  0  0  0  0  0  0  0  0
   44.7610   36.8670   42.8730 N   0  0  0  0  0  0  0  0  0  0  0  0
   44.0760   33.3820   42.3200 N   0  0  0  0  0  0  0  0  0  0  0  0
   48.1354   35.8625   43.0126 H   0  0  0  0  0  0  0  0  0  0  0  0
   49.4995   35.7501   40.9831 H   0  0  0  0  0  0  0  0  0  0  0  0
   48.6934   34.4762   38.9994 H   0  0  0  0  0  0  0  0  0  0  0  0
   46.9746   33.1350   38.0272 H   0  0  0  0  0  0  0  0  0  0  0  0
   44.7927   31.9820   38.0976 H   0  0  0  0  0  0  0  0  0  0  0  0
   43.4482   32.1635   40.2472 H   0  0  0  0  0  0  0  0  0  0  0  0
   43.7312   36.7175   45.4327 H   0  0  0  0  0  0  0  0  0  0  0  0
   45.2247   36.7806   41.9573 H   0  0  0  0  0  0  0  0  0  0  0  0
   44.1343   37.6627   43.0599 H   0  0  0  0  0  0  0  0  0  0  0  0
   44.3366   33.8858   43.1798 H   0  0  0  0  0  0  0  0  0  0  0  0
   43.1782   32.8797   42.2695 H   0  0  0  0  0  0  0  0  0  0  0  0
  1 13  1  0
  2  1  2  0
  3  2  1  0
  4  5  1  0
  4  3  2  0
  5 10  2  0
  6  7  2  0
  6  5  1  0
  7  8  1  0
  8  9  2  0
  9 22  1  0
 10  9  1  0
 10  1  1  0
 11 16  2  0
 12 11  1  0
 13 12  2  0
 13 14  1  0
 14 15  2  0
 15 16  1  0
 15 17  1  0
 17 19  1  0
 17 18  1  0
 20 17  1  0
 21 12  1  0
  2 23  1  0
  3 24  1  0
  4 25  1  0
  6 26  1  0
  7 27  1  0
  8 28  1  0
 11 29  1  0
 21 30  1  0
 21 31  1  0
 22 32  1  0
 22 33  1  0
M  ISO  7  23  14  24  14  25  14  26  14  27  14  28  14  29  14
M  END
>  <minimizedAffinity>  (1) 
-7.06500483

>  <minimizedRMSD>  (1) 
0.280395716

$$$$
