
     RDKit          3D

 38 40  0  0  0  0  0  0  0  0999 V2000
   46.8380   34.4290   42.3420 C   0  0  0  0  0  0  0  0  0  0  0  0
   47.9020   35.3010   42.1560 C   0  0  0  0  0  0  0  0  0  0  0  0
   48.6320   35.4170   40.9920 C   0  0  0  0  0  0  0  0  0  0  0  0
   48.3270   34.6430   39.9220 C   0  0  0  0  0  0  0  0  0  0  0  0
   47.2840   33.7530   40.0330 C   0  0  0  0  0  0  0  0  0  0  0  0
   46.9270   32.9470   38.9960 C   0  0  0  0  0  0  0  0  0  0  0  0
   45.8960   32.0480   39.0590 C   0  0  0  0  0  0  0  0  0  0  0  0
   45.1920   31.9780   40.2700 C   0  0  0  0  0  0  0  0  0  0  0  0
   45.5810   32.8130   41.3070 C   0  0  0  0  0  0  0  0  0  0  0  0
   46.5930   33.6850   41.2210 C   0  0  0  0  0  0  0  0  0  0  0  0
   44.6750   35.2180   45.3000 C   0  0  0  0  0  0  0  0  0  0  0  0
   45.1980   35.3320   44.0160 C   0  0  0  0  0  0  0  0  0  0  0  0
   46.2060   34.4490   43.6100 C   0  0  0  0  0  0  0  0  0  0  0  0
   46.5630   33.5520   44.5610 N   0  0  0  0  0  0  0  0  0  0  0  0
   46.0650   33.4480   45.7710 C   0  0  0  0  0  0  0  0  0  0  0  0
   45.1200   34.2940   46.1230 N   0  0  0  0  0  0  0  0  0  0  0  0
   46.6620   32.3510   46.6070 C   0  0  0  0  0  0  0  0  0  0  0  0
   45.6970   31.5950   47.1940 F   0  0  0  0  0  0  0  0  0  0  0  0
   47.5190   32.8810   47.5520 F   0  0  0  0  0  0  0  0  0  0  0  0
   47.5090   31.5680   45.7870 F   0  0  0  0  0  0  0  0  0  0  0  0
   44.7750   36.3240   43.0190 C   0  0  0  0  0  0  0  0  0  0  0  0
   43.6830   35.8750   42.1200 C   0  0  0  0  0  0  0  0  0  0  0  0
   42.4660   35.6790   42.7620 O   0  0  0  0  0  0  0  0  0  0  0  0
   44.7560   32.6150   42.4550 N   0  0  0  0  0  0  0  0  0  0  0  0
   48.1837   35.9476   43.0001 H   0  0  0  0  0  0  0  0  0  0  0  0
   49.4613   36.1372   40.9319 H   0  0  0  0  0  0  0  0  0  0  0  0
   48.9001   34.7246   38.9867 H   0  0  0  0  0  0  0  0  0  0  0  0
   47.4966   33.0217   38.0579 H   0  0  0  0  0  0  0  0  0  0  0  0
   45.6327   31.4115   38.2013 H   0  0  0  0  0  0  0  0  0  0  0  0
   44.3523   31.2784   40.3943 H   0  0  0  0  0  0  0  0  0  0  0  0
   43.8828   35.9064   45.6295 H   0  0  0  0  0  0  0  0  0  0  0  0
   44.4310   37.2216   43.5537 H   0  0  0  0  0  0  0  0  0  0  0  0
   45.6485   36.5100   42.3768 H   0  0  0  0  0  0  0  0  0  0  0  0
   43.9860   34.9249   41.6557 H   0  0  0  0  0  0  0  0  0  0  0  0
   43.5281   36.6767   41.3829 H   0  0  0  0  0  0  0  0  0  0  0  0
   42.6027   35.7010   43.7423 H   0  0  0  0  0  0  0  0  0  0  0  0
   44.9222   33.1652   43.3097 H   0  0  0  0  0  0  0  0  0  0  0  0
   43.9945   31.9219   42.4286 H   0  0  0  0  0  0  0  0  0  0  0  0
  1 13  1  0
  2  1  2  0
  3  2  1  0
  4  5  1  0
  4  3  2  0
  5 10  2  0
  6  7  2  0
  6  5  1  0
  7  8  1  0
  8  9  2  0
  9 24  1  0
 10  9  1  0
 10  1  1  0
 11 16  2  0
 12 11  1  0
 13 12  2  0
 13 14  1  0
 14 15  2  0
 15 16  1  0
 15 17  1  0
 17 18  1  0
 17 19  1  0
 20 17  1  0
 21 12  1  0
 22 23  1  0
 22 21  1  0
  2 25  1  0
  3 26  1  0
  4 27  1  0
  6 28  1  0
  7 29  1  0
  8 30  1  0
 11 31  1  0
 21 32  1  0
 21 33  1  0
 22 34  1  0
 22 35  1  0
 23 36  1  0
 24 37  1  0
 24 38  1  0
M  ISO  8  25  14  26  14  27  14  28  14  29  14  30  14  31  14  32   8
M  ISO  4  33   8  34   8  35   8  36   3
M  END
>  <minimizedAffinity>  (1) 
-6.59505939

>  <minimizedRMSD>  (1) 
0.0539346971

$$$$
