
     RDKit          3D

 38 40  0  0  0  0  0  0  0  0999 V2000
   46.9220   34.4980   42.1930 C   0  0  0  0  0  0  0  0  0  0  0  0
   47.9400   35.4240   42.0300 C   0  0  0  0  0  0  0  0  0  0  0  0
   48.7190   35.5430   40.8980 C   0  0  0  0  0  0  0  0  0  0  0  0
   48.5100   34.7160   39.8430 C   0  0  0  0  0  0  0  0  0  0  0  0
   47.5130   33.7680   39.9330 C   0  0  0  0  0  0  0  0  0  0  0  0
   47.2530   32.9090   38.9110 C   0  0  0  0  0  0  0  0  0  0  0  0
   46.2720   31.9550   38.9650 C   0  0  0  0  0  0  0  0  0  0  0  0
   45.5160   31.8840   40.1390 C   0  0  0  0  0  0  0  0  0  0  0  0
   45.8100   32.7780   41.1620 C   0  0  0  0  0  0  0  0  0  0  0  0
   46.7730   33.7020   41.0880 C   0  0  0  0  0  0  0  0  0  0  0  0
   44.5950   35.2790   45.0310 C   0  0  0  0  0  0  0  0  0  0  0  0
   45.1770   35.3880   43.7710 C   0  0  0  0  0  0  0  0  0  0  0  0
   46.2290   34.5230   43.4250 C   0  0  0  0  0  0  0  0  0  0  0  0
   46.5570   33.6510   44.4150 N   0  0  0  0  0  0  0  0  0  0  0  0
   46.0050   33.5530   45.6010 C   0  0  0  0  0  0  0  0  0  0  0  0
   45.0220   34.3800   45.8900 N   0  0  0  0  0  0  0  0  0  0  0  0
   46.5870   32.4860   46.4820 C   0  0  0  0  0  0  0  0  0  0  0  0
   45.6040   31.7330   47.0620 F   0  0  0  0  0  0  0  0  0  0  0  0
   47.4150   33.0470   47.4350 F   0  0  0  0  0  0  0  0  0  0  0  0
   47.4530   31.6790   45.7080 F   0  0  0  0  0  0  0  0  0  0  0  0
   44.7840   36.3540   42.7390 C   0  0  0  0  0  0  0  0  0  0  0  0
   44.0230   35.7790   41.6030 C   0  0  0  0  0  0  0  0  0  0  0  0
   42.2910   35.3820   42.0160 S   0  0  0  0  0  0  0  0  0  0  0  0
   44.9420   32.5700   42.2780 N   0  0  0  0  0  0  0  0  0  0  0  0
   48.1412   36.1135   42.8631 H   0  0  0  0  0  0  0  0  0  0  0  0
   49.5086   36.3074   40.8507 H   0  0  0  0  0  0  0  0  0  0  0  0
   49.1237   34.8002   38.9340 H   0  0  0  0  0  0  0  0  0  0  0  0
   47.8601   32.9842   37.9968 H   0  0  0  0  0  0  0  0  0  0  0  0
   46.0868   31.2740   38.1212 H   0  0  0  0  0  0  0  0  0  0  0  0
   44.7116   31.1419   40.2499 H   0  0  0  0  0  0  0  0  0  0  0  0
   43.7703   35.9512   45.3104 H   0  0  0  0  0  0  0  0  0  0  0  0
   44.1595   37.1255   43.2131 H   0  0  0  0  0  0  0  0  0  0  0  0
   45.7186   36.7503   42.3153 H   0  0  0  0  0  0  0  0  0  0  0  0
   44.5247   34.8550   41.2797 H   0  0  0  0  0  0  0  0  0  0  0  0
   44.0006   36.5404   40.8094 H   0  0  0  0  0  0  0  0  0  0  0  0
   42.1425   35.3480   43.3775 H   0  0  0  0  0  0  0  0  0  0  0  0
   45.0350   33.1571   43.1192 H   0  0  0  0  0  0  0  0  0  0  0  0
   44.2234   31.8330   42.2412 H   0  0  0  0  0  0  0  0  0  0  0  0
  1 13  1  0
  2  1  2  0
  3  2  1  0
  4  5  1  0
  4  3  2  0
  5 10  2  0
  6  7  2  0
  6  5  1  0
  7  8  1  0
  8  9  2  0
  9 24  1  0
 10  9  1  0
 10  1  1  0
 11 16  2  0
 12 11  1  0
 13 12  2  0
 13 14  1  0
 14 15  2  0
 15 16  1  0
 15 17  1  0
 17 18  1  0
 17 19  1  0
 20 17  1  0
 21 12  1  0
 22 23  1  0
 22 21  1  0
  2 25  1  0
  3 26  1  0
  4 27  1  0
  6 28  1  0
  7 29  1  0
  8 30  1  0
 11 31  1  0
 21 32  1  0
 21 33  1  0
 22 34  1  0
 22 35  1  0
 23 36  1  0
 24 37  1  0
 24 38  1  0
M  ISO  8  25  14  26  14  27  14  28  14  29  14  30  14  31  14  32   8
M  ISO  4  33   8  34   8  35   8  36  11
M  END
>  <minimizedAffinity>  (1) 
-5.87666607

>  <minimizedRMSD>  (1) 
0.305803448

$$$$
