
     RDKit          3D

 42 44  0  0  0  0  0  0  0  0999 V2000
   44.6510   35.2670   45.1860 C   0  0  0  0  0  0  0  0  0  0  0  0
   45.2230   35.3980   43.9280 C   0  0  0  0  0  0  0  0  0  0  0  0
   46.2440   34.5280   43.5470 C   0  0  0  0  0  0  0  0  0  0  0  0
   46.5750   33.6140   44.4890 N   0  0  0  0  0  0  0  0  0  0  0  0
   46.0320   33.4960   45.6740 C   0  0  0  0  0  0  0  0  0  0  0  0
   45.0730   34.3260   46.0110 N   0  0  0  0  0  0  0  0  0  0  0  0
   46.9260   34.5320   42.3010 C   0  0  0  0  0  0  0  0  0  0  0  0
   47.9740   35.4390   42.1670 C   0  0  0  0  0  0  0  0  0  0  0  0
   48.7450   35.5830   41.0360 C   0  0  0  0  0  0  0  0  0  0  0  0
   48.5070   34.8130   39.9550 C   0  0  0  0  0  0  0  0  0  0  0  0
   47.4800   33.8890   40.0150 C   0  0  0  0  0  0  0  0  0  0  0  0
   47.1870   33.0800   38.9610 C   0  0  0  0  0  0  0  0  0  0  0  0
   46.1770   32.1540   38.9860 C   0  0  0  0  0  0  0  0  0  0  0  0
   45.4300   32.0560   40.1630 C   0  0  0  0  0  0  0  0  0  0  0  0
   45.7670   32.9000   41.2120 C   0  0  0  0  0  0  0  0  0  0  0  0
   46.7450   33.7940   41.1810 C   0  0  0  0  0  0  0  0  0  0  0  0
   44.8800   32.6630   42.3160 N   0  0  0  0  0  0  0  0  0  0  0  0
   46.5990   32.3850   46.5120 C   0  0  0  0  0  0  0  0  0  0  0  0
   45.6010   31.6290   47.0830 F   0  0  0  0  0  0  0  0  0  0  0  0
   47.4430   32.8790   47.4720 F   0  0  0  0  0  0  0  0  0  0  0  0
   47.4240   31.5770   45.6990 F   0  0  0  0  0  0  0  0  0  0  0  0
   44.8340   36.3950   42.9400 C   0  0  0  0  0  0  0  0  0  0  0  0
   43.9570   35.9430   41.8500 C   0  0  0  0  0  0  0  0  0  0  0  0
   41.5990   35.0730   41.6670 C   0  0  0  0  0  0  0  0  0  0  0  0
   41.7200   35.0950   40.3930 O   0  0  0  0  0  0  0  0  0  0  0  0
   42.7010   35.4650   42.4970 N   0  0  0  0  0  0  0  0  0  0  0  0
   40.3800   34.6590   42.1690 O   0  0  0  0  0  0  0  0  0  0  0  0
   43.8449   35.9481   45.4963 H   0  0  0  0  0  0  0  0  0  0  0  0
   48.2020   36.0867   43.0264 H   0  0  0  0  0  0  0  0  0  0  0  0
   49.5555   36.3264   41.0140 H   0  0  0  0  0  0  0  0  0  0  0  0
   49.1165   34.9176   39.0453 H   0  0  0  0  0  0  0  0  0  0  0  0
   47.7894   33.1736   38.0454 H   0  0  0  0  0  0  0  0  0  0  0  0
   45.9634   31.5150   38.1165 H   0  0  0  0  0  0  0  0  0  0  0  0
   44.6040   31.3353   40.2548 H   0  0  0  0  0  0  0  0  0  0  0  0
   44.9845   33.2044   43.1860 H   0  0  0  0  0  0  0  0  0  0  0  0
   44.1392   31.9516   42.2379 H   0  0  0  0  0  0  0  0  0  0  0  0
   44.3130   37.2046   43.4720 H   0  0  0  0  0  0  0  0  0  0  0  0
   45.7718   36.6938   42.4489 H   0  0  0  0  0  0  0  0  0  0  0  0
   44.4339   35.1239   41.2917 H   0  0  0  0  0  0  0  0  0  0  0  0
   43.7557   36.7544   41.1350 H   0  0  0  0  0  0  0  0  0  0  0  0
   42.6263   35.4172   43.5232 H   0  0  0  0  0  0  0  0  0  0  0  0
   39.6523   34.3992   41.5501 H   0  0  0  0  0  0  0  0  0  0  0  0
  1  6  2  0
  2  1  1  0
  3  2  2  0
  3  4  1  0
  4  5  2  0
  5  6  1  0
  5 18  1  0
  7  3  1  0
  8  7  2  0
  9  8  1  0
 10 11  1  0
 10  9  2  0
 11 16  2  0
 12 13  2  0
 12 11  1  0
 13 14  1  0
 14 15  2  0
 15 17  1  0
 16 15  1  0
 16  7  1  0
 18 19  1  0
 18 20  1  0
 21 18  1  0
 22  2  1  0
 23 26  1  0
 23 22  1  0
 24 27  1  0
 24 26  1  0
 25 24  2  0
  1 28  1  0
  8 29  1  0
  9 30  1  0
 10 31  1  0
 12 32  1  0
 13 33  1  0
 14 34  1  0
 17 35  1  0
 17 36  1  0
 22 37  1  0
 22 38  1  0
 23 39  1  0
 23 40  1  0
 26 41  1  0
 27 42  1  0
M  ISO  8  28  14  29  14  30  14  31  14  32  14  33  14  34  14  37   8
M  ISO  4  38   8  39   8  40   8  42   3
M  END
>  <minimizedAffinity>  (1) 
-7.16506672

>  <minimizedRMSD>  (1) 
0.21164462

$$$$
