
     RDKit          3D

 33 35  0  0  0  0  0  0  0  0999 V2000
   45.8260   32.2450   40.5510 Cl  0  0  0  0  0  0  0  0  0  0  0  0
   47.0200   33.4690   40.2240 C   0  0  0  0  0  0  0  0  0  0  0  0
   47.4910   34.2850   41.2290 C   0  0  0  0  0  0  0  0  0  0  0  0
   48.4390   35.2710   41.0100 C   0  0  0  0  0  0  0  0  0  0  0  0
   48.8930   35.3910   39.7130 C   0  0  0  0  0  0  0  0  0  0  0  0
   48.4320   34.5840   38.6960 C   0  0  0  0  0  0  0  0  0  0  0  0
   47.5110   33.6350   38.9400 C   0  0  0  0  0  0  0  0  0  0  0  0
   48.8650   30.9450   38.5050 Cl  0  0  0  0  0  0  0  0  0  0  0  0
   47.4840   31.5020   37.5830 C   0  0  0  0  0  0  0  0  0  0  0  0
   46.9840   32.7490   37.9020 C   0  0  0  0  0  0  0  0  0  0  0  0
   45.8990   33.2190   37.2000 C   0  0  0  0  0  0  0  0  0  0  0  0
   45.2910   32.5040   36.1930 C   0  0  0  0  0  0  0  0  0  0  0  0
   45.8140   31.2620   35.8980 C   0  0  0  0  0  0  0  0  0  0  0  0
   46.9130   30.7410   36.5820 C   0  0  0  0  0  0  0  0  0  0  0  0
   46.9190   32.9010   44.6040 C   0  0  0  0  0  0  0  0  0  0  0  0
   45.9590   33.7940   45.1370 C   0  0  0  0  0  0  0  0  0  0  0  0
   45.5260   34.8500   44.3360 C   0  0  0  0  0  0  0  0  0  0  0  0
   46.0390   34.9820   43.0800 N   0  0  0  0  0  0  0  0  0  0  0  0
   46.9670   34.1030   42.5900 C   0  0  0  0  0  0  0  0  0  0  0  0
   47.3920   33.0790   43.3560 N   0  0  0  0  0  0  0  0  0  0  0  0
   44.5150   35.8590   44.7880 C   0  0  0  0  0  0  0  0  0  0  0  0
   44.9690   37.1350   44.5680 F   0  0  0  0  0  0  0  0  0  0  0  0
   43.3420   35.6610   44.0690 F   0  0  0  0  0  0  0  0  0  0  0  0
   44.2910   35.6200   46.1240 F   0  0  0  0  0  0  0  0  0  0  0  0
   48.8069   35.9180   41.8200 H   0  0  0  0  0  0  0  0  0  0  0  0
   49.6485   36.1567   39.4830 H   0  0  0  0  0  0  0  0  0  0  0  0
   48.8206   34.7171   37.6756 H   0  0  0  0  0  0  0  0  0  0  0  0
   45.4987   34.2114   37.4547 H   0  0  0  0  0  0  0  0  0  0  0  0
   44.4249   32.9059   35.6468 H   0  0  0  0  0  0  0  0  0  0  0  0
   45.3506   30.6642   35.0993 H   0  0  0  0  0  0  0  0  0  0  0  0
   47.3147   29.7484   36.3301 H   0  0  0  0  0  0  0  0  0  0  0  0
   47.2801   32.0582   45.2117 H   0  0  0  0  0  0  0  0  0  0  0  0
   45.5653   33.6587   46.1552 H   0  0  0  0  0  0  0  0  0  0  0  0
  2  1  1  0
  2  3  2  0
  3 19  1  0
  4  3  1  0
  5  4  2  0
  6  7  2  0
  6  5  1  0
  7  2  1  0
  9 10  2  0
  9  8  1  0
 10  7  1  0
 11 10  1  0
 12 11  2  0
 13 12  1  0
 13 14  2  0
 14  9  1  0
 15 16  2  0
 17 21  1  0
 17 16  1  0
 18 17  2  0
 19 18  1  0
 19 20  2  0
 20 15  1  0
 21 24  1  0
 22 21  1  0
 23 21  1  0
  4 25  1  0
  5 26  1  0
  6 27  1  0
 11 28  1  0
 12 29  1  0
 13 30  1  0
 14 31  1  0
 15 32  1  0
 16 33  1  0
M  ISO  8  25  14  26  14  27  14  28  14  29  14  30  14  31  14  32  14
M  ISO  1  33  14
M  END
>  <minimizedAffinity>  (1) 
-5.66842079

>  <minimizedRMSD>  (1) 
1.69202435

$$$$
