
     RDKit          3D

 37 39  0  0  0  0  0  0  0  0999 V2000
   45.5100   32.0510   40.7300 Cl  0  0  0  0  0  0  0  0  0  0  0  0
   46.7270   33.2010   40.2650 C   0  0  0  0  0  0  0  0  0  0  0  0
   47.2920   34.0350   41.1910 C   0  0  0  0  0  0  0  0  0  0  0  0
   48.2760   34.9760   40.8570 C   0  0  0  0  0  0  0  0  0  0  0  0
   48.6430   35.0080   39.5170 C   0  0  0  0  0  0  0  0  0  0  0  0
   48.0790   34.1710   38.5860 C   0  0  0  0  0  0  0  0  0  0  0  0
   47.1230   33.2660   38.9410 C   0  0  0  0  0  0  0  0  0  0  0  0
   46.5330   32.3820   37.9200 C   0  0  0  0  0  0  0  0  0  0  0  0
   45.5710   33.1170   37.0100 C   0  0  0  0  0  0  0  0  0  0  0  0
   45.5950   32.5640   35.6000 C   0  0  0  0  0  0  0  0  0  0  0  0
   45.6290   31.1760   35.7380 O   0  0  0  0  0  0  0  0  0  0  0  0
   46.8930   30.7550   36.1290 C   0  0  0  0  0  0  0  0  0  0  0  0
   47.5940   31.7870   37.0090 C   0  0  0  0  0  0  0  0  0  0  0  0
   46.9410   32.9130   44.6820 C   0  0  0  0  0  0  0  0  0  0  0  0
   46.0020   33.8370   45.2100 C   0  0  0  0  0  0  0  0  0  0  0  0
   45.5200   34.8110   44.3590 C   0  0  0  0  0  0  0  0  0  0  0  0
   45.9530   34.8500   43.0730 N   0  0  0  0  0  0  0  0  0  0  0  0
   46.8580   33.9490   42.5880 C   0  0  0  0  0  0  0  0  0  0  0  0
   47.3360   32.9980   43.3990 N   0  0  0  0  0  0  0  0  0  0  0  0
   44.5210   35.8450   44.7980 C   0  0  0  0  0  0  0  0  0  0  0  0
   44.9900   37.1170   44.5480 F   0  0  0  0  0  0  0  0  0  0  0  0
   43.3400   35.6700   44.0770 F   0  0  0  0  0  0  0  0  0  0  0  0
   44.2990   35.6420   46.1330 F   0  0  0  0  0  0  0  0  0  0  0  0
   48.7273   35.6441   41.6053 H   0  0  0  0  0  0  0  0  0  0  0  0
   49.4097   35.7267   39.1919 H   0  0  0  0  0  0  0  0  0  0  0  0
   48.4037   34.2316   37.5368 H   0  0  0  0  0  0  0  0  0  0  0  0
   46.0111   31.6006   38.4918 H   0  0  0  0  0  0  0  0  0  0  0  0
   44.5527   33.0176   37.4139 H   0  0  0  0  0  0  0  0  0  0  0  0
   45.8791   34.1721   36.9682 H   0  0  0  0  0  0  0  0  0  0  0  0
   46.4884   32.9180   35.0646 H   0  0  0  0  0  0  0  0  0  0  0  0
   44.7195   32.8925   35.0207 H   0  0  0  0  0  0  0  0  0  0  0  0
   46.7956   29.8155   36.6927 H   0  0  0  0  0  0  0  0  0  0  0  0
   47.4994   30.6145   35.2221 H   0  0  0  0  0  0  0  0  0  0  0  0
   48.3791   31.3027   37.6082 H   0  0  0  0  0  0  0  0  0  0  0  0
   48.0715   32.5671   36.3978 H   0  0  0  0  0  0  0  0  0  0  0  0
   47.3490   32.1210   45.3272 H   0  0  0  0  0  0  0  0  0  0  0  0
   45.6710   33.7791   46.2574 H   0  0  0  0  0  0  0  0  0  0  0  0
  2  1  1  0
  2  3  2  0
  3 18  1  0
  4  3  1  0
  5  4  2  0
  6  7  2  0
  6  5  1  0
  7  2  1  0
  8  7  1  0
  9  8  1  0
 10 11  1  0
 10  9  1  0
 11 12  1  0
 12 13  1  0
 13  8  1  0
 14 15  2  0
 16 20  1  0
 16 15  1  0
 17 16  2  0
 18 17  1  0
 18 19  2  0
 19 14  1  0
 20 23  1  0
 21 20  1  0
 22 20  1  0
  4 24  1  0
  5 25  1  0
  6 26  1  0
  8 27  1  0
  9 28  1  0
  9 29  1  0
 10 30  1  0
 10 31  1  0
 12 32  1  0
 12 33  1  0
 13 34  1  0
 13 35  1  0
 14 36  1  0
 15 37  1  0
M  ISO  8  24  14  25  14  26  14  27  13  28  13  29  13  30  13  31  13
M  ISO  6  32  13  33  13  34  13  35  13  36  14  37  14
M  END
>  <minimizedAffinity>  (1) 
-5.64450216

>  <minimizedRMSD>  (1) 
1.68630087

$$$$
