
     RDKit          3D

 30 32  0  0  0  0  0  0  0  0999 V2000
   45.4140   32.4490   40.5300 Cl  0  0  0  0  0  0  0  0  0  0  0  0
   46.7420   33.5030   40.1760 C   0  0  0  0  0  0  0  0  0  0  0  0
   47.3610   34.2040   41.1790 C   0  0  0  0  0  0  0  0  0  0  0  0
   48.4290   35.0540   40.9090 C   0  0  0  0  0  0  0  0  0  0  0  0
   48.8250   35.1540   39.6070 C   0  0  0  0  0  0  0  0  0  0  0  0
   48.2130   34.4600   38.6110 C   0  0  0  0  0  0  0  0  0  0  0  0
   47.1750   33.6340   38.8790 C   0  0  0  0  0  0  0  0  0  0  0  0
   46.8980   32.9090   44.5920 C   0  0  0  0  0  0  0  0  0  0  0  0
   45.9640   33.8110   45.1340 C   0  0  0  0  0  0  0  0  0  0  0  0
   45.5070   34.8530   44.3180 C   0  0  0  0  0  0  0  0  0  0  0  0
   45.9780   34.9510   43.0490 N   0  0  0  0  0  0  0  0  0  0  0  0
   46.8900   34.0540   42.5510 C   0  0  0  0  0  0  0  0  0  0  0  0
   47.3270   33.0570   43.3330 N   0  0  0  0  0  0  0  0  0  0  0  0
   44.5090   35.8800   44.7820 C   0  0  0  0  0  0  0  0  0  0  0  0
   44.9830   37.1460   44.5560 F   0  0  0  0  0  0  0  0  0  0  0  0
   43.3280   35.6920   44.0910 F   0  0  0  0  0  0  0  0  0  0  0  0
   44.3070   35.6570   46.1220 F   0  0  0  0  0  0  0  0  0  0  0  0
   46.5510   32.9090   37.7590 C   0  0  0  0  0  0  0  0  0  0  0  0
   45.5370   33.1300   36.8280 C   0  0  0  0  0  0  0  0  0  0  0  0
   45.3020   32.1290   35.9440 C   0  0  0  0  0  0  0  0  0  0  0  0
   45.9990   30.9980   35.9590 C   0  0  0  0  0  0  0  0  0  0  0  0
   47.1910   31.2000   37.3450 S   0  0  0  0  0  0  0  0  0  0  0  0
   48.9309   35.6192   41.7081 H   0  0  0  0  0  0  0  0  0  0  0  0
   49.6659   35.8170   39.3554 H   0  0  0  0  0  0  0  0  0  0  0  0
   48.5657   34.5712   37.5750 H   0  0  0  0  0  0  0  0  0  0  0  0
   47.2772   32.0786   45.2057 H   0  0  0  0  0  0  0  0  0  0  0  0
   45.6037   33.7009   46.1675 H   0  0  0  0  0  0  0  0  0  0  0  0
   44.9589   34.0657   36.8115 H   0  0  0  0  0  0  0  0  0  0  0  0
   44.5101   32.2573   35.1914 H   0  0  0  0  0  0  0  0  0  0  0  0
   45.8877   30.1319   35.2901 H   0  0  0  0  0  0  0  0  0  0  0  0
  2  1  1  0
  2  3  2  0
  3 12  1  0
  4  3  1  0
  5  4  2  0
  6  7  2  0
  6  5  1  0
  7  2  1  0
  8  9  2  0
 10 14  1  0
 10  9  1  0
 11 10  2  0
 12 11  1  0
 12 13  2  0
 13  8  1  0
 14 17  1  0
 15 14  1  0
 16 14  1  0
 18  7  1  0
 19 18  2  0
 20 21  2  0
 20 19  1  0
 21 22  1  0
 22 18  1  0
  4 23  1  0
  5 24  1  0
  6 25  1  0
  8 26  1  0
  9 27  1  0
 19 28  1  0
 20 29  1  0
 21 30  1  0
M  ISO  8  23  14  24  14  25  14  26  14  27  14  28  14  29  14  30  14
M  END
>  <minimizedAffinity>  (1) 
-5.55644369

>  <minimizedRMSD>  (1) 
1.43726456

$$$$
