
     RDKit          3D

 36 38  0  0  0  0  0  0  0  0999 V2000
   45.4790   32.2880   40.5790 Cl  0  0  0  0  0  0  0  0  0  0  0  0
   46.7610   33.3940   40.2030 C   0  0  0  0  0  0  0  0  0  0  0  0
   47.3590   34.1560   41.1780 C   0  0  0  0  0  0  0  0  0  0  0  0
   48.3850   35.0450   40.9020 C   0  0  0  0  0  0  0  0  0  0  0  0
   48.7810   35.1270   39.5820 C   0  0  0  0  0  0  0  0  0  0  0  0
   48.1920   34.3710   38.5990 C   0  0  0  0  0  0  0  0  0  0  0  0
   47.1830   33.5010   38.8970 C   0  0  0  0  0  0  0  0  0  0  0  0
   46.9060   32.9110   44.6200 C   0  0  0  0  0  0  0  0  0  0  0  0
   45.9700   33.8170   45.1590 C   0  0  0  0  0  0  0  0  0  0  0  0
   45.5130   34.8370   44.3300 C   0  0  0  0  0  0  0  0  0  0  0  0
   45.9770   34.9200   43.0570 N   0  0  0  0  0  0  0  0  0  0  0  0
   46.8880   34.0200   42.5680 C   0  0  0  0  0  0  0  0  0  0  0  0
   47.3410   33.0310   43.3510 N   0  0  0  0  0  0  0  0  0  0  0  0
   44.5140   35.8720   44.7750 C   0  0  0  0  0  0  0  0  0  0  0  0
   44.9850   37.1280   44.5540 F   0  0  0  0  0  0  0  0  0  0  0  0
   43.3350   35.6730   44.0690 F   0  0  0  0  0  0  0  0  0  0  0  0
   44.3030   35.6470   46.1250 F   0  0  0  0  0  0  0  0  0  0  0  0
   46.5970   32.7340   37.8490 N   0  0  0  0  0  0  0  0  0  0  0  0
   45.3580   33.1190   37.2020 C   0  0  0  0  0  0  0  0  0  0  0  0
   44.7020   31.8000   36.7800 C   0  0  0  0  0  0  0  0  0  0  0  0
   44.9790   30.7770   37.6880 O   0  0  0  0  0  0  0  0  0  0  0  0
   46.3070   30.3730   37.6710 C   0  0  0  0  0  0  0  0  0  0  0  0
   47.2560   31.5280   37.4070 C   0  0  0  0  0  0  0  0  0  0  0  0
   48.8571   35.6508   41.6895 H   0  0  0  0  0  0  0  0  0  0  0  0
   49.5922   35.8183   39.3099 H   0  0  0  0  0  0  0  0  0  0  0  0
   48.5371   34.4674   37.5590 H   0  0  0  0  0  0  0  0  0  0  0  0
   47.2878   32.0917   45.2469 H   0  0  0  0  0  0  0  0  0  0  0  0
   45.6144   33.7213   46.1955 H   0  0  0  0  0  0  0  0  0  0  0  0
   44.7100   33.6658   37.9028 H   0  0  0  0  0  0  0  0  0  0  0  0
   45.5305   33.7865   36.3449 H   0  0  0  0  0  0  0  0  0  0  0  0
   43.6128   31.9440   36.7253 H   0  0  0  0  0  0  0  0  0  0  0  0
   45.1087   31.5106   35.7998 H   0  0  0  0  0  0  0  0  0  0  0  0
   46.5540   29.9277   38.6460 H   0  0  0  0  0  0  0  0  0  0  0  0
   46.4273   29.6448   36.8554 H   0  0  0  0  0  0  0  0  0  0  0  0
   48.1911   31.3827   37.9678 H   0  0  0  0  0  0  0  0  0  0  0  0
   47.5062   31.5902   36.3376 H   0  0  0  0  0  0  0  0  0  0  0  0
  2  1  1  0
  2  3  2  0
  3 12  1  0
  4  3  1  0
  5  4  2  0
  6  7  2  0
  6  5  1  0
  7  2  1  0
  8  9  2  0
 10 14  1  0
 10  9  1  0
 11 10  2  0
 12 11  1  0
 12 13  2  0
 13  8  1  0
 14 17  1  0
 15 14  1  0
 16 14  1  0
 18  7  1  0
 19 18  1  0
 20 19  1  0
 20 21  1  0
 22 21  1  0
 23 22  1  0
 23 18  1  0
  4 24  1  0
  5 25  1  0
  6 26  1  0
  8 27  1  0
  9 28  1  0
 19 29  1  0
 19 30  1  0
 20 31  1  0
 20 32  1  0
 22 33  1  0
 22 34  1  0
 23 35  1  0
 23 36  1  0
M  ISO  8  24  14  25  14  26  14  27  14  28  14  29  13  30  13  31  13
M  ISO  5  32  13  33  13  34  13  35  13  36  13
M  END
>  <minimizedAffinity>  (1) 
-5.49233103

>  <minimizedRMSD>  (1) 
1.4592315

$$$$
