
     RDKit          3D

 39 41  0  0  0  0  0  0  0  0999 V2000
   45.7250   32.3160   40.5480 Cl  0  0  0  0  0  0  0  0  0  0  0  0
   46.9520   33.4960   40.2260 C   0  0  0  0  0  0  0  0  0  0  0  0
   47.4570   34.2780   41.2330 C   0  0  0  0  0  0  0  0  0  0  0  0
   48.4460   35.2380   41.0020 C   0  0  0  0  0  0  0  0  0  0  0  0
   48.8820   35.3460   39.6960 C   0  0  0  0  0  0  0  0  0  0  0  0
   48.3780   34.5620   38.6830 C   0  0  0  0  0  0  0  0  0  0  0  0
   47.4210   33.6400   38.9280 C   0  0  0  0  0  0  0  0  0  0  0  0
   46.9230   32.9120   44.6090 C   0  0  0  0  0  0  0  0  0  0  0  0
   45.9650   33.8070   45.1450 C   0  0  0  0  0  0  0  0  0  0  0  0
   45.5290   34.8530   44.3380 C   0  0  0  0  0  0  0  0  0  0  0  0
   46.0270   34.9820   43.0790 N   0  0  0  0  0  0  0  0  0  0  0  0
   46.9470   34.1070   42.5880 C   0  0  0  0  0  0  0  0  0  0  0  0
   47.3850   33.0810   43.3600 N   0  0  0  0  0  0  0  0  0  0  0  0
   44.5140   35.8670   44.7980 C   0  0  0  0  0  0  0  0  0  0  0  0
   44.9610   37.1390   44.5800 F   0  0  0  0  0  0  0  0  0  0  0  0
   43.3430   35.6690   44.0860 F   0  0  0  0  0  0  0  0  0  0  0  0
   44.2930   35.6280   46.1370 F   0  0  0  0  0  0  0  0  0  0  0  0
   46.8770   32.7940   37.8330 C   0  0  0  0  0  0  0  0  0  0  0  0
   47.3080   31.3550   37.9180 C   0  0  0  0  0  0  0  0  0  0  0  0
   46.1810   30.3830   37.6800 C   0  0  0  0  0  0  0  0  0  0  0  0
   45.3320   30.7500   36.4890 C   0  0  0  0  0  0  0  0  0  0  0  0
   44.9880   32.2060   36.4380 C   0  0  0  0  0  0  0  0  0  0  0  0
   45.3680   32.8270   37.7600 C   0  0  0  0  0  0  0  0  0  0  0  0
   48.8511   35.8670   41.8084 H   0  0  0  0  0  0  0  0  0  0  0  0
   49.6604   36.0855   39.4566 H   0  0  0  0  0  0  0  0  0  0  0  0
   48.7599   34.6879   37.6591 H   0  0  0  0  0  0  0  0  0  0  0  0
   47.2904   32.0739   45.2195 H   0  0  0  0  0  0  0  0  0  0  0  0
   45.5781   33.6791   46.1667 H   0  0  0  0  0  0  0  0  0  0  0  0
   47.3007   33.2414   36.9218 H   0  0  0  0  0  0  0  0  0  0  0  0
   48.0876   31.1783   37.1624 H   0  0  0  0  0  0  0  0  0  0  0  0
   47.6771   31.1840   38.9400 H   0  0  0  0  0  0  0  0  0  0  0  0
   46.6089   29.3837   37.5116 H   0  0  0  0  0  0  0  0  0  0  0  0
   45.5321   30.4058   38.5679 H   0  0  0  0  0  0  0  0  0  0  0  0
   45.8822   30.4882   35.5732 H   0  0  0  0  0  0  0  0  0  0  0  0
   44.3874   30.1931   36.5761 H   0  0  0  0  0  0  0  0  0  0  0  0
   45.5460   32.6921   35.6242 H   0  0  0  0  0  0  0  0  0  0  0  0
   43.9115   32.3358   36.2527 H   0  0  0  0  0  0  0  0  0  0  0  0
   45.0080   33.8652   37.8093 H   0  0  0  0  0  0  0  0  0  0  0  0
   44.9175   32.2788   38.6005 H   0  0  0  0  0  0  0  0  0  0  0  0
  2  1  1  0
  2  3  2  0
  3 12  1  0
  4  3  1  0
  5  4  2  0
  6  7  2  0
  6  5  1  0
  7  2  1  0
  8  9  2  0
 10 14  1  0
 10  9  1  0
 11 10  2  0
 12 11  1  0
 12 13  2  0
 13  8  1  0
 14 17  1  0
 15 14  1  0
 16 14  1  0
 18 19  1  0
 18  7  1  0
 20 19  1  0
 21 20  1  0
 22 21  1  0
 22 23  1  0
 23 18  1  0
  4 24  1  0
  5 25  1  0
  6 26  1  0
  8 27  1  0
  9 28  1  0
 18 29  1  0
 19 30  1  0
 19 31  1  0
 20 32  1  0
 20 33  1  0
 21 34  1  0
 21 35  1  0
 22 36  1  0
 22 37  1  0
 23 38  1  0
 23 39  1  0
M  ISO  8  24  14  25  14  26  14  27  14  28  14  29  13  30  13  31  13
M  ISO  8  32  13  33  13  34  13  35  13  36  13  37  13  38  13  39  13
M  END
>  <minimizedAffinity>  (1) 
-5.47233486

>  <minimizedRMSD>  (1) 
1.66218495

$$$$
