
     RDKit          3D

 27 28  0  0  0  0  0  0  0  0999 V2000
   45.0150   32.4180   39.6790 Cl  0  0  0  0  0  0  0  0  0  0  0  0
   46.3640   33.2460   38.9640 C   0  0  0  0  0  0  0  0  0  0  0  0
   47.2630   33.9460   39.7410 C   0  0  0  0  0  0  0  0  0  0  0  0
   48.3420   34.6110   39.1880 C   0  0  0  0  0  0  0  0  0  0  0  0
   48.4830   34.5450   37.8240 C   0  0  0  0  0  0  0  0  0  0  0  0
   47.5990   33.8550   37.0450 C   0  0  0  0  0  0  0  0  0  0  0  0
   46.5540   33.2140   37.6000 C   0  0  0  0  0  0  0  0  0  0  0  0
   47.5780   33.1980   43.3360 C   0  0  0  0  0  0  0  0  0  0  0  0
   46.6520   34.0960   43.9190 C   0  0  0  0  0  0  0  0  0  0  0  0
   45.9480   34.9300   43.0740 C   0  0  0  0  0  0  0  0  0  0  0  0
   46.1660   34.8600   41.7250 N   0  0  0  0  0  0  0  0  0  0  0  0
   47.0640   33.9840   41.1980 C   0  0  0  0  0  0  0  0  0  0  0  0
   47.7590   33.1640   42.0040 N   0  0  0  0  0  0  0  0  0  0  0  0
   44.9340   35.9320   43.5650 C   0  0  0  0  0  0  0  0  0  0  0  0
   45.2680   37.2050   43.1780 F   0  0  0  0  0  0  0  0  0  0  0  0
   43.6900   35.6050   43.0210 F   0  0  0  0  0  0  0  0  0  0  0  0
   44.9000   35.8180   44.9270 F   0  0  0  0  0  0  0  0  0  0  0  0
   45.5830   32.0160   35.4670 C   0  0  0  0  0  0  0  0  0  0  0  0
   46.4740   32.1380   34.5870 O   0  0  0  0  0  0  0  0  0  0  0  0
   45.6310   32.4930   36.7900 N   0  0  0  0  0  0  0  0  0  0  0  0
   49.0555   35.1680   39.8131 H   0  0  0  0  0  0  0  0  0  0  0  0
   49.3292   35.0609   37.3468 H   0  0  0  0  0  0  0  0  0  0  0  0
   47.7422   33.8228   35.9548 H   0  0  0  0  0  0  0  0  0  0  0  0
   48.1565   32.5198   43.9804 H   0  0  0  0  0  0  0  0  0  0  0  0
   46.4988   34.1281   45.0078 H   0  0  0  0  0  0  0  0  0  0  0  0
   44.6696   31.4795   35.1707 H   0  0  0  0  0  0  0  0  0  0  0  0
   44.7727   32.2591   37.3091 H   0  0  0  0  0  0  0  0  0  0  0  0
  2  1  1  0
  2  3  2  0
  3 12  1  0
  4  3  1  0
  5  4  2  0
  6  7  2  0
  6  5  1  0
  7  2  1  0
  8  9  2  0
 10 14  1  0
 10  9  1  0
 11 10  2  0
 12 11  1  0
 12 13  2  0
 13  8  1  0
 14 17  1  0
 15 14  1  0
 16 14  1  0
 18 20  1  0
 19 18  2  0
 20  7  1  0
  4 21  1  0
  5 22  1  0
  6 23  1  0
  8 24  1  0
  9 25  1  0
 18 26  1  0
 20 27  1  0
M  ISO  6  21  14  22  14  23  14  24  14  25  14  26   6
M  END
>  <minimizedAffinity>  (1) 
-5.20926476

>  <minimizedRMSD>  (1) 
0.0942943096

$$$$
