
     RDKit          3D

 24 25  0  0  0  0  0  0  0  0999 V2000
   47.5830   33.2160   43.3520 C   0  0  0  0  0  0  0  0  0  0  0  0
   46.6640   34.1160   43.9240 C   0  0  0  0  0  0  0  0  0  0  0  0
   45.9490   34.9440   43.0700 C   0  0  0  0  0  0  0  0  0  0  0  0
   46.1610   34.8590   41.7220 N   0  0  0  0  0  0  0  0  0  0  0  0
   47.0630   33.9720   41.2070 C   0  0  0  0  0  0  0  0  0  0  0  0
   47.7590   33.1670   42.0200 N   0  0  0  0  0  0  0  0  0  0  0  0
   45.0480   32.3550   39.7160 Cl  0  0  0  0  0  0  0  0  0  0  0  0
   46.3690   33.2000   38.9870 C   0  0  0  0  0  0  0  0  0  0  0  0
   47.2510   33.9210   39.7480 C   0  0  0  0  0  0  0  0  0  0  0  0
   48.3280   34.6160   39.1940 C   0  0  0  0  0  0  0  0  0  0  0  0
   48.4560   34.5330   37.8220 C   0  0  0  0  0  0  0  0  0  0  0  0
   47.5720   33.8100   37.0570 C   0  0  0  0  0  0  0  0  0  0  0  0
   46.5280   33.1400   37.6220 C   0  0  0  0  0  0  0  0  0  0  0  0
   45.6600   32.4230   36.8150 O   0  0  0  0  0  0  0  0  0  0  0  0
   44.9450   35.9400   43.5620 C   0  0  0  0  0  0  0  0  0  0  0  0
   45.2670   37.2180   43.1600 F   0  0  0  0  0  0  0  0  0  0  0  0
   43.6930   35.6220   43.0250 F   0  0  0  0  0  0  0  0  0  0  0  0
   44.8940   35.8300   44.9280 F   0  0  0  0  0  0  0  0  0  0  0  0
   48.1637   32.5452   44.0022 H   0  0  0  0  0  0  0  0  0  0  0  0
   46.5173   34.1615   45.0132 H   0  0  0  0  0  0  0  0  0  0  0  0
   49.0307   35.1937   39.8124 H   0  0  0  0  0  0  0  0  0  0  0  0
   49.2866   35.0588   37.3284 H   0  0  0  0  0  0  0  0  0  0  0  0
   47.7099   33.7713   35.9664 H   0  0  0  0  0  0  0  0  0  0  0  0
   44.8995   31.9338   37.2180 H   0  0  0  0  0  0  0  0  0  0  0  0
  1  2  2  0
  3 15  1  0
  3  2  1  0
  4  3  2  0
  5  4  1  0
  5  6  2  0
  6  1  1  0
  8  7  1  0
  8  9  2  0
  9  5  1  0
 10  9  1  0
 11 10  2  0
 12 13  2  0
 12 11  1  0
 13  8  1  0
 14 13  1  0
 15 18  1  0
 16 15  1  0
 17 15  1  0
  1 19  1  0
  2 20  1  0
 10 21  1  0
 11 22  1  0
 12 23  1  0
 14 24  1  0
M  ISO  6  19  14  20  14  21  14  22  14  23  14  24   3
M  END
>  <minimizedAffinity>  (1) 
-5.09950686

>  <minimizedRMSD>  (1) 
0.0422020257

$$$$
