
     RDKit          3D

 31 32  0  0  0  0  0  0  0  0999 V2000
   45.1760   39.7210   43.5950 C   0  0  0  0  0  0  0  0  0  0  0  0
   45.4020   40.6450   44.6560 N   0  0  0  0  0  0  0  0  0  0  0  0
   45.7980   40.0270   45.9030 C   0  0  0  0  0  0  0  0  0  0  0  0
   44.6030   40.0680   46.8710 C   0  0  0  0  0  0  0  0  0  0  0  0
   44.3340   41.4420   47.2630 N   0  0  0  0  0  0  0  0  0  0  0  0
   44.5630   42.3460   46.1480 C   0  0  0  0  0  0  0  0  0  0  0  0
   44.3470   41.5800   44.8790 C   0  0  0  0  0  0  0  0  0  0  0  0
   44.9630   37.2800   43.3780 C   0  0  0  0  0  0  0  0  0  0  0  0
   45.3610   38.3390   44.0420 C   0  0  0  0  0  0  0  0  0  0  0  0
   45.1970   35.9490   43.8880 C   0  0  0  0  0  0  0  0  0  0  0  0
   45.8470   35.0730   43.0010 C   0  0  0  0  0  0  0  0  0  0  0  0
   46.1020   33.7500   43.4210 C   0  0  0  0  0  0  0  0  0  0  0  0
   45.6930   33.4040   44.6810 N   0  0  0  0  0  0  0  0  0  0  0  0
   45.0710   34.2770   45.5070 C   0  0  0  0  0  0  0  0  0  0  0  0
   44.8310   35.5410   45.0940 N   0  0  0  0  0  0  0  0  0  0  0  0
   45.8843   39.9315   42.7801 H   0  0  0  0  0  0  0  0  0  0  0  0
   44.1381   39.8373   43.2497 H   0  0  0  0  0  0  0  0  0  0  0  0
   46.0930   38.9828   45.7221 H   0  0  0  0  0  0  0  0  0  0  0  0
   46.6521   40.5680   46.3365 H   0  0  0  0  0  0  0  0  0  0  0  0
   43.7155   39.6497   46.3736 H   0  0  0  0  0  0  0  0  0  0  0  0
   44.8402   39.4746   47.7663 H   0  0  0  0  0  0  0  0  0  0  0  0
   43.3532   41.5214   47.5673 H   0  0  0  0  0  0  0  0  0  0  0  0
   43.8580   43.1888   46.1999 H   0  0  0  0  0  0  0  0  0  0  0  0
   45.5875   42.7450   46.1838 H   0  0  0  0  0  0  0  0  0  0  0  0
   44.3083   42.2855   44.0359 H   0  0  0  0  0  0  0  0  0  0  0  0
   43.4010   41.0250   44.9632 H   0  0  0  0  0  0  0  0  0  0  0  0
   44.4427   37.4076   42.4173 H   0  0  0  0  0  0  0  0  0  0  0  0
   45.8702   38.1772   45.0035 H   0  0  0  0  0  0  0  0  0  0  0  0
   46.1508   35.4120   41.9996 H   0  0  0  0  0  0  0  0  0  0  0  0
   46.6079   33.0274   42.7639 H   0  0  0  0  0  0  0  0  0  0  0  0
   44.7612   33.9581   46.5132 H   0  0  0  0  0  0  0  0  0  0  0  0
  1  9  1  0
  1  2  1  0
  2  7  1  0
  2  3  1  0
  3  4  1  0
  4  5  1  0
  6  5  1  0
  7  6  1  0
  8 10  1  0
  8  9  2  0
 10 15  2  0
 11 12  2  0
 11 10  1  0
 12 13  1  0
 13 14  2  0
 15 14  1  0
  1 16  1  0
  1 17  1  0
  3 18  1  0
  3 19  1  0
  4 20  1  0
  4 21  1  0
  5 22  1  0
  6 23  1  0
  6 24  1  0
  7 25  1  0
  7 26  1  0
  8 27  1  0
  9 28  1  0
 11 29  1  0
 12 30  1  0
 14 31  1  0
M  ISO  8  16   8  17   8  18  13  19  13  20  13  21  13  22   5  23  13
M  ISO  6  24  13  25  13  26  13  29  14  30  14  31  14
M  END
>  <minimizedAffinity>  (1) 
-2.51891255

>  <minimizedRMSD>  (1) 
2.24916434

$$$$
