
     RDKit          3D

 45 48  0  0  0  0  0  0  0  0999 V2000
   45.5360   32.4730   40.4320 Cl  0  0  0  0  0  0  0  0  0  0  0  0
   46.8480   33.5770   40.1280 C   0  0  0  0  0  0  0  0  0  0  0  0
   47.4220   34.2840   41.1480 C   0  0  0  0  0  0  0  0  0  0  0  0
   48.4660   35.1690   40.9470 C   0  0  0  0  0  0  0  0  0  0  0  0
   48.9030   35.3030   39.6370 C   0  0  0  0  0  0  0  0  0  0  0  0
   48.3270   34.5920   38.6000 C   0  0  0  0  0  0  0  0  0  0  0  0
   47.3180   33.7430   38.8340 C   0  0  0  0  0  0  0  0  0  0  0  0
   46.8850   32.8880   44.5250 C   0  0  0  0  0  0  0  0  0  0  0  0
   45.9420   33.7850   45.0860 C   0  0  0  0  0  0  0  0  0  0  0  0
   45.5060   34.8550   44.2950 C   0  0  0  0  0  0  0  0  0  0  0  0
   46.0080   34.9830   43.0270 N   0  0  0  0  0  0  0  0  0  0  0  0
   46.9130   34.0980   42.5270 C   0  0  0  0  0  0  0  0  0  0  0  0
   47.3300   33.0770   43.2790 N   0  0  0  0  0  0  0  0  0  0  0  0
   44.5170   35.8660   44.7660 C   0  0  0  0  0  0  0  0  0  0  0  0
   44.9780   37.1420   44.5450 F   0  0  0  0  0  0  0  0  0  0  0  0
   43.3390   35.6870   44.0780 F   0  0  0  0  0  0  0  0  0  0  0  0
   44.3080   35.6210   46.1040 F   0  0  0  0  0  0  0  0  0  0  0  0
   46.6890   32.9800   37.7590 C   0  0  0  0  0  0  0  0  0  0  0  0
   45.3540   33.0870   37.3800 C   0  0  0  0  0  0  0  0  0  0  0  0
   45.0930   32.2350   36.3450 C   0  0  0  0  0  0  0  0  0  0  0  0
   46.3100   31.6300   36.1320 C   0  0  0  0  0  0  0  0  0  0  0  0
   47.2420   32.0760   36.9720 O   0  0  0  0  0  0  0  0  0  0  0  0
   46.7500   30.6430   35.2110 N   0  0  0  0  0  0  0  0  0  0  0  0
   48.0380   30.7920   34.5260 C   0  0  0  0  0  0  0  0  0  0  0  0
   47.6450   31.0340   33.0610 C   0  0  0  0  0  0  0  0  0  0  0  0
   47.0500   29.7560   32.5650 C   0  0  0  0  0  0  0  0  0  0  0  0
   46.7800   28.7810   33.6600 C   0  0  0  0  0  0  0  0  0  0  0  0
   46.0760   29.4200   34.8110 C   0  0  0  0  0  0  0  0  0  0  0  0
   48.9217   35.7319   41.7749 H   0  0  0  0  0  0  0  0  0  0  0  0
   49.7304   35.9938   39.4172 H   0  0  0  0  0  0  0  0  0  0  0  0
   48.7009   34.7250   37.5741 H   0  0  0  0  0  0  0  0  0  0  0  0
   47.2511   32.0353   45.1157 H   0  0  0  0  0  0  0  0  0  0  0  0
   45.5648   33.6452   46.1098 H   0  0  0  0  0  0  0  0  0  0  0  0
   44.6177   33.7587   37.8455 H   0  0  0  0  0  0  0  0  0  0  0  0
   44.1440   32.0726   35.8130 H   0  0  0  0  0  0  0  0  0  0  0  0
   48.5995   31.6482   34.9281 H   0  0  0  0  0  0  0  0  0  0  0  0
   48.6923   29.9169   34.6530 H   0  0  0  0  0  0  0  0  0  0  0  0
   46.9076   31.8475   32.9947 H   0  0  0  0  0  0  0  0  0  0  0  0
   48.5172   31.3272   32.4582 H   0  0  0  0  0  0  0  0  0  0  0  0
   46.1020   29.9840   32.0558 H   0  0  0  0  0  0  0  0  0  0  0  0
   47.7789   29.2942   31.8828 H   0  0  0  0  0  0  0  0  0  0  0  0
   46.1526   27.9679   33.2659 H   0  0  0  0  0  0  0  0  0  0  0  0
   47.7454   28.3965   34.0208 H   0  0  0  0  0  0  0  0  0  0  0  0
   45.0432   29.6570   34.5159 H   0  0  0  0  0  0  0  0  0  0  0  0
   46.0798   28.7205   35.6600 H   0  0  0  0  0  0  0  0  0  0  0  0
  2  1  1  0
  2  3  2  0
  3 12  1  0
  4  3  1  0
  5  4  2  0
  6  7  2  0
  6  5  1  0
  7  2  1  0
  8  9  2  0
 10 14  1  0
 10  9  1  0
 11 10  2  0
 12 11  1  0
 12 13  2  0
 13  8  1  0
 14 17  1  0
 15 14  1  0
 16 14  1  0
 18  7  1  0
 19 18  2  0
 20 19  1  0
 21 20  2  0
 21 22  1  0
 22 18  1  0
 23 21  1  0
 24 23  1  0
 25 24  1  0
 26 25  1  0
 26 27  1  0
 27 28  1  0
 28 23  1  0
  4 29  1  0
  5 30  1  0
  6 31  1  0
  8 32  1  0
  9 33  1  0
 19 34  1  0
 20 35  1  0
 24 36  1  0
 24 37  1  0
 25 38  1  0
 25 39  1  0
 26 40  1  0
 26 41  1  0
 27 42  1  0
 27 43  1  0
 28 44  1  0
 28 45  1  0
M  ISO  8  29  14  30  14  31  14  32  14  33  14  34  14  35  14  36  13
M  ISO  8  37  13  38  13  39  13  40  13  41  13  42  13  43  13  44  13
M  ISO  1  45  13
M  END
>  <minimizedAffinity>  (1) 
-6.10103273

>  <minimizedRMSD>  (1) 
1.20756698

$$$$
