
     RDKit          3D

 33 35  0  0  0  0  0  0  0  0999 V2000
   45.4940   32.3210   40.5820 Cl  0  0  0  0  0  0  0  0  0  0  0  0
   46.7760   33.4220   40.2080 C   0  0  0  0  0  0  0  0  0  0  0  0
   47.3610   34.1740   41.1770 C   0  0  0  0  0  0  0  0  0  0  0  0
   48.3960   35.0720   40.9210 C   0  0  0  0  0  0  0  0  0  0  0  0
   48.7990   35.1540   39.6050 C   0  0  0  0  0  0  0  0  0  0  0  0
   48.2140   34.3950   38.6060 C   0  0  0  0  0  0  0  0  0  0  0  0
   47.2230   33.5450   38.8990 C   0  0  0  0  0  0  0  0  0  0  0  0
   46.9130   32.9170   44.6240 C   0  0  0  0  0  0  0  0  0  0  0  0
   45.9740   33.8250   45.1620 C   0  0  0  0  0  0  0  0  0  0  0  0
   45.5100   34.8530   44.3370 C   0  0  0  0  0  0  0  0  0  0  0  0
   45.9880   34.9250   43.0520 N   0  0  0  0  0  0  0  0  0  0  0  0
   46.8830   34.0400   42.5750 C   0  0  0  0  0  0  0  0  0  0  0  0
   47.3380   33.0490   43.3580 N   0  0  0  0  0  0  0  0  0  0  0  0
   44.5150   35.8710   44.7970 C   0  0  0  0  0  0  0  0  0  0  0  0
   44.9760   37.1340   44.5660 F   0  0  0  0  0  0  0  0  0  0  0  0
   43.3320   35.6810   44.0820 F   0  0  0  0  0  0  0  0  0  0  0  0
   44.2990   35.6410   46.1280 F   0  0  0  0  0  0  0  0  0  0  0  0
   46.5860   32.7300   37.8640 C   0  0  0  0  0  0  0  0  0  0  0  0
   45.5870   33.1710   37.0010 C   0  0  0  0  0  0  0  0  0  0  0  0
   45.2210   32.1450   36.1610 C   0  0  0  0  0  0  0  0  0  0  0  0
   46.0290   31.1050   36.5570 C   0  0  0  0  0  0  0  0  0  0  0  0
   46.8140   31.4820   37.5550 O   0  0  0  0  0  0  0  0  0  0  0  0
   46.1280   29.7100   36.0480 C   0  0  0  0  0  0  0  0  0  0  0  0
   48.8601   35.6747   41.7156 H   0  0  0  0  0  0  0  0  0  0  0  0
   49.6124   35.8455   39.3401 H   0  0  0  0  0  0  0  0  0  0  0  0
   48.5650   34.4910   37.5679 H   0  0  0  0  0  0  0  0  0  0  0  0
   47.2983   32.0964   45.2469 H   0  0  0  0  0  0  0  0  0  0  0  0
   45.6190   33.7259   46.1984 H   0  0  0  0  0  0  0  0  0  0  0  0
   45.1567   34.1833   36.9921 H   0  0  0  0  0  0  0  0  0  0  0  0
   44.4634   32.1542   35.3635 H   0  0  0  0  0  0  0  0  0  0  0  0
   46.1775   29.0125   36.8971 H   0  0  0  0  0  0  0  0  0  0  0  0
   45.2439   29.4796   35.4353 H   0  0  0  0  0  0  0  0  0  0  0  0
   47.0357   29.6068   35.4353 H   0  0  0  0  0  0  0  0  0  0  0  0
  2  1  1  0
  2  3  2  0
  3 12  1  0
  4  3  1  0
  5  4  2  0
  6  7  2  0
  6  5  1  0
  7  2  1  0
  8  9  2  0
 10 14  1  0
 10  9  1  0
 11 10  2  0
 12 11  1  0
 12 13  2  0
 13  8  1  0
 14 17  1  0
 15 14  1  0
 16 14  1  0
 18  7  1  0
 19 18  2  0
 20 21  2  0
 20 19  1  0
 21 22  1  0
 22 18  1  0
 23 21  1  0
  4 24  1  0
  5 25  1  0
  6 26  1  0
  8 27  1  0
  9 28  1  0
 19 29  1  0
 20 30  1  0
 23 31  1  0
 23 32  1  0
 23 33  1  0
M  ISO  8  24  14  25  14  26  14  27  14  28  14  29  14  30  14  31   8
M  ISO  2  32   8  33   8
M  END
>  <minimizedAffinity>  (1) 
-5.62839031

>  <minimizedRMSD>  (1) 
0.00734496443

$$$$
