
     RDKit          3D

 31 33  0  0  0  0  0  0  0  0999 V2000
   45.4960   32.3130   40.5850 Cl  0  0  0  0  0  0  0  0  0  0  0  0
   46.7830   33.4210   40.2100 C   0  0  0  0  0  0  0  0  0  0  0  0
   47.3650   34.1770   41.1910 C   0  0  0  0  0  0  0  0  0  0  0  0
   48.3980   35.0750   40.9240 C   0  0  0  0  0  0  0  0  0  0  0  0
   48.8020   35.1600   39.6030 C   0  0  0  0  0  0  0  0  0  0  0  0
   48.2150   34.4000   38.6220 C   0  0  0  0  0  0  0  0  0  0  0  0
   47.2210   33.5420   38.9090 C   0  0  0  0  0  0  0  0  0  0  0  0
   46.9180   32.9090   44.6200 C   0  0  0  0  0  0  0  0  0  0  0  0
   45.9680   33.8250   45.1620 C   0  0  0  0  0  0  0  0  0  0  0  0
   45.5140   34.8410   44.3430 C   0  0  0  0  0  0  0  0  0  0  0  0
   45.9900   34.9210   43.0620 N   0  0  0  0  0  0  0  0  0  0  0  0
   46.8860   34.0390   42.5830 C   0  0  0  0  0  0  0  0  0  0  0  0
   47.3360   33.0500   43.3640 N   0  0  0  0  0  0  0  0  0  0  0  0
   44.5140   35.8640   44.8010 C   0  0  0  0  0  0  0  0  0  0  0  0
   44.9790   37.1380   44.5630 F   0  0  0  0  0  0  0  0  0  0  0  0
   43.3350   35.6830   44.0980 F   0  0  0  0  0  0  0  0  0  0  0  0
   44.3050   35.6410   46.1330 F   0  0  0  0  0  0  0  0  0  0  0  0
   46.5840   32.7240   37.8690 C   0  0  0  0  0  0  0  0  0  0  0  0
   45.5830   33.1670   37.0100 C   0  0  0  0  0  0  0  0  0  0  0  0
   45.2180   32.1530   36.1710 C   0  0  0  0  0  0  0  0  0  0  0  0
   46.0360   31.1080   36.5640 C   0  0  0  0  0  0  0  0  0  0  0  0
   46.8190   31.4770   37.5580 O   0  0  0  0  0  0  0  0  0  0  0  0
   46.1310   29.4270   35.9120 S   0  0  0  0  0  0  0  0  0  0  0  0
   48.8639   35.6797   41.7160 H   0  0  0  0  0  0  0  0  0  0  0  0
   49.6125   35.8528   39.3328 H   0  0  0  0  0  0  0  0  0  0  0  0
   48.5641   34.4948   37.5832 H   0  0  0  0  0  0  0  0  0  0  0  0
   47.3049   32.0866   45.2397 H   0  0  0  0  0  0  0  0  0  0  0  0
   45.6090   33.7258   46.1970 H   0  0  0  0  0  0  0  0  0  0  0  0
   45.1517   34.1789   37.0071 H   0  0  0  0  0  0  0  0  0  0  0  0
   44.4581   32.1642   35.3757 H   0  0  0  0  0  0  0  0  0  0  0  0
   46.1813   28.5361   36.9516 H   0  0  0  0  0  0  0  0  0  0  0  0
  2  1  1  0
  2  3  2  0
  3 12  1  0
  4  3  1  0
  5  4  2  0
  6  7  2  0
  6  5  1  0
  7  2  1  0
  8  9  2  0
 10 14  1  0
 10  9  1  0
 11 10  2  0
 12 11  1  0
 12 13  2  0
 13  8  1  0
 14 17  1  0
 15 14  1  0
 16 14  1  0
 18  7  1  0
 19 18  2  0
 20 21  2  0
 20 19  1  0
 21 22  1  0
 22 18  1  0
 23 21  1  0
  4 24  1  0
  5 25  1  0
  6 26  1  0
  8 27  1  0
  9 28  1  0
 19 29  1  0
 20 30  1  0
 23 31  1  0
M  ISO  8  24  14  25  14  26  14  27  14  28  14  29  14  30  14  31  11
M  END
>  <minimizedAffinity>  (1) 
-5.62031412

>  <minimizedRMSD>  (1) 
0.00779792247

$$$$
