
     RDKit          3D

 12 12  0  0  0  0  0  0  0  0999 V2000
   44.6590   36.0380   44.3260 C   0  0  0  0  0  0  0  0  0  0  0  0
   45.4650   35.5600   43.2810 C   0  0  0  0  0  0  0  0  0  0  0  0
   46.1750   34.3770   43.5240 C   0  0  0  0  0  0  0  0  0  0  0  0
   46.0530   33.7590   44.7350 N   0  0  0  0  0  0  0  0  0  0  0  0
   45.2610   34.2640   45.7030 C   0  0  0  0  0  0  0  0  0  0  0  0
   44.5600   35.4090   45.5000 N   0  0  0  0  0  0  0  0  0  0  0  0
   45.1200   33.6340   46.9730 N   0  0  0  0  0  0  0  0  0  0  0  0
   44.0876   36.9653   44.1723 H   0  0  0  0  0  0  0  0  0  0  0  0
   45.5357   36.0882   42.3187 H   0  0  0  0  0  0  0  0  0  0  0  0
   46.8249   33.9500   42.7460 H   0  0  0  0  0  0  0  0  0  0  0  0
   44.5058   34.0488   47.6883 H   0  0  0  0  0  0  0  0  0  0  0  0
   45.6322   32.7637   47.1759 H   0  0  0  0  0  0  0  0  0  0  0  0
  1  6  2  0
  2  3  2  0
  2  1  1  0
  3  4  1  0
  4  5  2  0
  5  7  1  0
  6  5  1  0
  1  8  1  0
  2  9  1  0
  3 10  1  0
  7 11  1  0
  7 12  1  0
M  ISO  3   8  14   9  14  10  14
M  END
>  <minimizedAffinity>  (1) 
-3.34810996

>  <minimizedRMSD>  (1) 
0.218560874

$$$$
