
     RDKit          3D

 23 24  0  0  0  0  0  0  0  0999 V2000
   44.4070   36.1740   44.7680 C   0  0  0  0  0  0  0  0  0  0  0  0
   45.0990   36.0850   43.5380 C   0  0  0  0  0  0  0  0  0  0  0  0
   45.9520   35.0030   43.3520 C   0  0  0  0  0  0  0  0  0  0  0  0
   46.0660   34.1020   44.3610 N   0  0  0  0  0  0  0  0  0  0  0  0
   45.3950   34.2150   45.5150 C   0  0  0  0  0  0  0  0  0  0  0  0
   44.5610   35.2560   45.7200 N   0  0  0  0  0  0  0  0  0  0  0  0
   45.5380   33.2540   46.5480 N   0  0  0  0  0  0  0  0  0  0  0  0
   46.1560   34.1050   41.0840 C   0  0  0  0  0  0  0  0  0  0  0  0
   46.7110   34.8200   42.1240 C   0  0  0  0  0  0  0  0  0  0  0  0
   47.9790   35.3150   41.9070 C   0  0  0  0  0  0  0  0  0  0  0  0
   48.6800   35.1270   40.7340 C   0  0  0  0  0  0  0  0  0  0  0  0
   48.0670   34.4030   39.7300 C   0  0  0  0  0  0  0  0  0  0  0  0
   46.7990   33.8790   39.8820 C   0  0  0  0  0  0  0  0  0  0  0  0
   43.7570   33.0800   41.2980 N   0  0  0  0  0  0  0  0  0  0  0  0
   44.8350   33.5420   41.1990 C   0  0  0  0  0  0  0  0  0  0  0  0
   43.7264   37.0204   44.9421 H   0  0  0  0  0  0  0  0  0  0  0  0
   44.9669   36.8461   42.7549 H   0  0  0  0  0  0  0  0  0  0  0  0
   45.0122   33.3609   47.4272 H   0  0  0  0  0  0  0  0  0  0  0  0
   46.1676   32.4491   46.4191 H   0  0  0  0  0  0  0  0  0  0  0  0
   48.4577   35.8910   42.7127 H   0  0  0  0  0  0  0  0  0  0  0  0
   49.6914   35.5391   40.6028 H   0  0  0  0  0  0  0  0  0  0  0  0
   48.6037   34.2396   38.7838 H   0  0  0  0  0  0  0  0  0  0  0  0
   46.3188   33.3035   39.0769 H   0  0  0  0  0  0  0  0  0  0  0  0
  1  6  2  0
  2  1  1  0
  3  2  2  0
  3  4  1  0
  4  5  2  0
  5  6  1  0
  5  7  1  0
  8 15  1  0
  8  9  2  0
  9  3  1  0
 10  9  1  0
 11 10  2  0
 12 13  2  0
 12 11  1  0
 13  8  1  0
 15 14  3  0
  1 16  1  0
  2 17  1  0
  7 18  1  0
  7 19  1  0
 10 20  1  0
 11 21  1  0
 12 22  1  0
 13 23  1  0
M  ISO  6  16  14  17  14  20  14  21  14  22  14  23  14
M  END
>  <minimizedAffinity>  (1) 
-5.44202995

>  <minimizedRMSD>  (1) 
1.1602689

$$$$
