
     RDKit          3D

 23 24  0  0  1  0  0  0  0  0999 V2000
   44.7810   36.0820   43.9970 C   0  0  0  0  0  0  0  0  0  0  0  0
   45.5570   35.6300   42.9290 C   0  0  0  0  0  0  0  0  0  0  0  0
   46.2690   34.4420   43.1290 C   0  0  0  0  0  0  0  0  0  0  0  0
   46.1750   33.7930   44.3300 N   0  0  0  0  0  0  0  0  0  0  0  0
   45.4080   34.2830   45.3240 C   0  0  0  0  0  0  0  0  0  0  0  0
   44.7020   35.4400   45.1560 N   0  0  0  0  0  0  0  0  0  0  0  0
   45.2960   33.6220   46.5860 N   0  0  0  0  0  0  0  0  0  0  0  0
   49.3210   34.8690   43.0330 O   0  0  0  0  0  0  0  0  0  0  0  0
   48.5090   34.3960   42.1790 C   0  0  0  0  0  0  0  0  0  0  0  0
   47.1350   33.8360   42.0910 C   0  0  2  0  0  0  0  0  0  0  0  0
   46.6940   34.1900   40.6950 C   0  0  0  0  0  0  0  0  0  0  0  0
   47.9360   34.3680   39.8770 C   0  0  0  0  0  0  0  0  0  0  0  0
   49.0310   34.3630   40.8360 N   0  0  0  0  0  0  0  0  0  0  0  0
   44.2085   37.0130   43.8727 H   0  0  0  0  0  0  0  0  0  0  0  0
   45.6066   36.1799   41.9776 H   0  0  0  0  0  0  0  0  0  0  0  0
   44.7014   34.0220   47.3259 H   0  0  0  0  0  0  0  0  0  0  0  0
   45.8098   32.7456   46.7557 H   0  0  0  0  0  0  0  0  0  0  0  0
   47.0850   32.7515   42.2684 H   0  0  0  0  0  0  0  0  0  0  0  0
   46.0784   33.3803   40.2763 H   0  0  0  0  0  0  0  0  0  0  0  0
   46.0882   35.1082   40.6950 H   0  0  0  0  0  0  0  0  0  0  0  0
   48.0474   33.5408   39.1605 H   0  0  0  0  0  0  0  0  0  0  0  0
   47.9101   35.2971   39.2887 H   0  0  0  0  0  0  0  0  0  0  0  0
   50.0312   34.3394   40.5910 H   0  0  0  0  0  0  0  0  0  0  0  0
  1  6  2  0
  2  3  2  0
  2  1  1  0
  3  4  1  0
  4  5  2  0
  5  7  1  0
  6  5  1  0
  9  8  2  0
 10  9  1  0
 10  3  1  0
 11 10  1  0
 12 11  1  0
 12 13  1  0
 13  9  1  0
  1 14  1  0
  2 15  1  0
  7 16  1  0
  7 17  1  0
 10 18  1  6
 11 19  1  0
 11 20  1  0
 12 21  1  0
 12 22  1  0
 13 23  1  0
M  ISO  8  14  14  15  14  18  13  19  13  20  13  21  13  22  13  23  10
M  END
>  <minimizedAffinity>  (1) 
-4.91075134

>  <minimizedRMSD>  (1) 
0.428391159

$$$$
