
     RDKit          3D

 19 20  0  0  0  0  0  0  0  0999 V2000
   44.6170   36.0930   44.3180 C   0  0  0  0  0  0  0  0  0  0  0  0
   45.4220   36.0730   43.1770 C   0  0  0  0  0  0  0  0  0  0  0  0
   46.2990   35.0000   43.0480 C   0  0  0  0  0  0  0  0  0  0  0  0
   46.3440   34.0360   44.0020 N   0  0  0  0  0  0  0  0  0  0  0  0
   45.5350   34.1110   45.0890 C   0  0  0  0  0  0  0  0  0  0  0  0
   44.6680   35.1450   45.2460 N   0  0  0  0  0  0  0  0  0  0  0  0
   45.5530   33.1260   46.1060 N   0  0  0  0  0  0  0  0  0  0  0  0
   47.1660   34.9250   41.8760 C   0  0  0  0  0  0  0  0  0  0  0  0
   46.8990   34.1990   40.7340 C   0  0  0  0  0  0  0  0  0  0  0  0
   48.0100   34.4500   39.9290 C   0  0  0  0  0  0  0  0  0  0  0  0
   48.8690   35.2790   40.5770 N   0  0  0  0  0  0  0  0  0  0  0  0
   48.3440   35.5690   41.7770 N   0  0  0  0  0  0  0  0  0  0  0  0
   43.9128   36.9272   44.4532 H   0  0  0  0  0  0  0  0  0  0  0  0
   45.3657   36.8665   42.4173 H   0  0  0  0  0  0  0  0  0  0  0  0
   44.9257   33.2129   46.9183 H   0  0  0  0  0  0  0  0  0  0  0  0
   46.1934   32.3225   46.0335 H   0  0  0  0  0  0  0  0  0  0  0  0
   46.0219   33.5734   40.5119 H   0  0  0  0  0  0  0  0  0  0  0  0
   48.1670   34.0385   38.9210 H   0  0  0  0  0  0  0  0  0  0  0  0
   49.7674   35.6249   40.2107 H   0  0  0  0  0  0  0  0  0  0  0  0
  1  6  2  0
  2  1  1  0
  3  2  2  0
  3  4  1  0
  4  5  2  0
  5  6  1  0
  5  7  1  0
  8  3  1  0
  9  8  1  0
 10 11  1  0
 10  9  2  0
 11 12  1  0
 12  8  2  0
  1 13  1  0
  2 14  1  0
  7 15  1  0
  7 16  1  0
  9 17  1  0
 10 18  1  0
 11 19  1  0
M  ISO  5  13  14  14  14  17  14  18  14  19   9
M  END
>  <minimizedAffinity>  (1) 
-4.90501451

>  <minimizedRMSD>  (1) 
1.34443915

$$$$
