
     RDKit          3D

 27 28  0  0  0  0  0  0  0  0999 V2000
   44.4960   36.0990   44.5870 C   0  0  0  0  0  0  0  0  0  0  0  0
   45.2450   35.8720   43.4300 C   0  0  0  0  0  0  0  0  0  0  0  0
   46.0630   34.7470   43.4330 C   0  0  0  0  0  0  0  0  0  0  0  0
   46.1110   33.9320   44.5160 N   0  0  0  0  0  0  0  0  0  0  0  0
   45.3610   34.2010   45.6170 C   0  0  0  0  0  0  0  0  0  0  0  0
   44.5570   35.2870   45.6440 N   0  0  0  0  0  0  0  0  0  0  0  0
   45.3900   33.3710   46.7600 N   0  0  0  0  0  0  0  0  0  0  0  0
   46.8530   34.4540   42.2900 N   0  0  0  0  0  0  0  0  0  0  0  0
   47.9480   35.3110   41.9220 C   0  0  0  0  0  0  0  0  0  0  0  0
   48.8100   34.4650   40.9740 C   0  0  0  0  0  0  0  0  0  0  0  0
   47.9950   34.2980   39.7080 C   0  0  0  0  0  0  0  0  0  0  0  0
   46.6170   33.7610   40.0290 C   0  0  0  0  0  0  0  0  0  0  0  0
   46.5590   33.2890   41.4870 C   0  0  0  0  0  0  0  0  0  0  0  0
   43.8338   36.9764   44.6281 H   0  0  0  0  0  0  0  0  0  0  0  0
   45.1908   36.5468   42.5630 H   0  0  0  0  0  0  0  0  0  0  0  0
   44.8097   33.6019   47.5790 H   0  0  0  0  0  0  0  0  0  0  0  0
   45.9915   32.5350   46.7743 H   0  0  0  0  0  0  0  0  0  0  0  0
   47.5792   36.2118   41.4097 H   0  0  0  0  0  0  0  0  0  0  0  0
   48.5148   35.6583   42.7984 H   0  0  0  0  0  0  0  0  0  0  0  0
   49.7563   34.9811   40.7544 H   0  0  0  0  0  0  0  0  0  0  0  0
   49.0656   33.4927   41.4205 H   0  0  0  0  0  0  0  0  0  0  0  0
   48.5097   33.5948   39.0367 H   0  0  0  0  0  0  0  0  0  0  0  0
   47.8891   35.2792   39.2222 H   0  0  0  0  0  0  0  0  0  0  0  0
   45.8723   34.5557   39.8744 H   0  0  0  0  0  0  0  0  0  0  0  0
   46.4004   32.9095   39.3672 H   0  0  0  0  0  0  0  0  0  0  0  0
   45.5569   32.9027   41.7250 H   0  0  0  0  0  0  0  0  0  0  0  0
   47.2738   32.4749   41.6777 H   0  0  0  0  0  0  0  0  0  0  0  0
  1  6  2  0
  2  3  2  0
  2  1  1  0
  3  4  1  0
  4  5  2  0
  5  6  1  0
  5  7  1  0
  8  3  1  0
  9  8  1  0
 10  9  1  0
 11 12  1  0
 11 10  1  0
 12 13  1  0
 13  8  1  0
  1 14  1  0
  2 15  1  0
  7 16  1  0
  7 17  1  0
  9 18  1  0
  9 19  1  0
 10 20  1  0
 10 21  1  0
 11 22  1  0
 11 23  1  0
 12 24  1  0
 12 25  1  0
 13 26  1  0
 13 27  1  0
M  ISO  8  14  14  15  14  18  13  19  13  20  13  21  13  22  13  23  13
M  ISO  4  24  13  25  13  26  13  27  13
M  END
>  <minimizedAffinity>  (1) 
-4.8701005

>  <minimizedRMSD>  (1) 
0.732624412

$$$$
