
     RDKit          3D

 13 13  0  0  0  0  0  0  0  0999 V2000
   44.6450   36.0410   44.3440 C   0  0  0  0  0  0  0  0  0  0  0  0
   45.4740   35.5860   43.3090 C   0  0  0  0  0  0  0  0  0  0  0  0
   46.1990   34.4250   43.5470 C   0  0  0  0  0  0  0  0  0  0  0  0
   46.0840   33.7830   44.7460 N   0  0  0  0  0  0  0  0  0  0  0  0
   45.2710   34.2640   45.7080 C   0  0  0  0  0  0  0  0  0  0  0  0
   44.5520   35.3990   45.4990 N   0  0  0  0  0  0  0  0  0  0  0  0
   45.1250   33.6180   46.9770 N   0  0  0  0  0  0  0  0  0  0  0  0
   47.0060   33.9840   42.5380 O   0  0  0  0  0  0  0  0  0  0  0  0
   44.0551   36.9570   44.1927 H   0  0  0  0  0  0  0  0  0  0  0  0
   45.5471   36.1237   42.3522 H   0  0  0  0  0  0  0  0  0  0  0  0
   44.4941   34.0153   47.6876 H   0  0  0  0  0  0  0  0  0  0  0  0
   45.6509   32.7558   47.1795 H   0  0  0  0  0  0  0  0  0  0  0  0
   47.5435   33.1612   42.6577 H   0  0  0  0  0  0  0  0  0  0  0  0
  1  6  2  0
  2  3  2  0
  2  1  1  0
  3  4  1  0
  4  5  2  0
  5  7  1  0
  6  5  1  0
  8  3  1  0
  1  9  1  0
  2 10  1  0
  7 11  1  0
  7 12  1  0
  8 13  1  0
M  ISO  3   9  14  10  14  13   3
M  END
>  <minimizedAffinity>  (1) 
-3.56666517

>  <minimizedRMSD>  (1) 
0.0435216017

$$$$
