
     RDKit          3D

 17 17  0  0  0  0  0  0  0  0999 V2000
   44.9000   35.4450   44.0880 C   0  0  0  0  0  0  0  0  0  0  0  0
   45.9150   34.6760   43.5380 C   0  0  0  0  0  0  0  0  0  0  0  0
   46.4920   33.6990   44.3590 C   0  0  0  0  0  0  0  0  0  0  0  0
   46.0530   33.5360   45.6370 N   0  0  0  0  0  0  0  0  0  0  0  0
   45.0600   34.3210   46.1100 C   0  0  0  0  0  0  0  0  0  0  0  0
   44.4800   35.2780   45.3350 N   0  0  0  0  0  0  0  0  0  0  0  0
   44.5550   34.2020   47.4350 N   0  0  0  0  0  0  0  0  0  0  0  0
   46.4200   34.8320   42.1340 C   0  0  0  0  0  0  0  0  0  0  0  0
   47.5140   35.6600   42.1710 F   0  0  0  0  0  0  0  0  0  0  0  0
   46.7740   33.6010   41.6260 F   0  0  0  0  0  0  0  0  0  0  0  0
   45.4330   35.3550   41.3130 F   0  0  0  0  0  0  0  0  0  0  0  0
   47.5330   32.9000   43.8180 N   0  0  0  0  0  0  0  0  0  0  0  0
   44.4267   36.2207   43.4681 H   0  0  0  0  0  0  0  0  0  0  0  0
   43.7966   34.8214   47.7547 H   0  0  0  0  0  0  0  0  0  0  0  0
   44.9478   33.4965   48.0744 H   0  0  0  0  0  0  0  0  0  0  0  0
   47.9777   32.1729   44.3963 H   0  0  0  0  0  0  0  0  0  0  0  0
   47.8437   33.0473   42.8471 H   0  0  0  0  0  0  0  0  0  0  0  0
  1  6  2  0
  2  1  1  0
  2  3  2  0
  3  4  1  0
  4  5  2  0
  5  7  1  0
  6  5  1  0
  8  9  1  0
  8  2  1  0
 10  8  1  0
 11  8  1  0
 12  3  1  0
  1 13  1  0
  7 14  1  0
  7 15  1  0
 12 16  1  0
 12 17  1  0
M  ISO  1  13  14
M  END
>  <minimizedAffinity>  (1) 
-4.53004789

>  <minimizedRMSD>  (1) 
1.33877897

$$$$
