
     RDKit          3D

 18 18  0  0  0  0  0  0  0  0999 V2000
   45.0300   35.6430   43.8470 C   0  0  0  0  0  0  0  0  0  0  0  0
   46.1020   34.8330   43.4490 C   0  0  0  0  0  0  0  0  0  0  0  0
   46.5570   33.8800   44.3650 C   0  0  0  0  0  0  0  0  0  0  0  0
   45.9610   33.7770   45.5750 N   0  0  0  0  0  0  0  0  0  0  0  0
   44.9260   34.5940   45.8980 C   0  0  0  0  0  0  0  0  0  0  0  0
   44.4650   35.5210   45.0390 N   0  0  0  0  0  0  0  0  0  0  0  0
   44.2760   34.5170   47.1570 N   0  0  0  0  0  0  0  0  0  0  0  0
   45.9120   34.3310   41.1320 C   0  0  0  0  0  0  0  0  0  0  0  0
   44.8960   33.6000   41.3510 O   0  0  0  0  0  0  0  0  0  0  0  0
   46.6400   35.0380   42.1520 N   0  0  0  0  0  0  0  0  0  0  0  0
   47.6380   33.0620   43.9650 N   0  0  0  0  0  0  0  0  0  0  0  0
   44.6465   36.4022   43.1494 H   0  0  0  0  0  0  0  0  0  0  0  0
   43.4933   35.1511   47.3721 H   0  0  0  0  0  0  0  0  0  0  0  0
   44.5868   33.8270   47.8557 H   0  0  0  0  0  0  0  0  0  0  0  0
   46.2583   34.4300   40.0926 H   0  0  0  0  0  0  0  0  0  0  0  0
   47.4621   35.6286   41.9615 H   0  0  0  0  0  0  0  0  0  0  0  0
   48.0070   32.3459   44.6068 H   0  0  0  0  0  0  0  0  0  0  0  0
   48.0568   33.1820   43.0317 H   0  0  0  0  0  0  0  0  0  0  0  0
  1  6  2  0
  2  1  1  0
  2  3  2  0
  3  4  1  0
  4  5  2  0
  5  7  1  0
  6  5  1  0
  8  9  2  0
  8 10  1  0
 10  2  1  0
 11  3  1  0
  1 12  1  0
  7 13  1  0
  7 14  1  0
  8 15  1  0
 10 16  1  0
 11 17  1  0
 11 18  1  0
M  ISO  2  12  14  15   6
M  END
>  <minimizedAffinity>  (1) 
-4.25284004

>  <minimizedRMSD>  (1) 
1.12583196

$$$$
