
     RDKit          3D

 16 16  0  0  0  0  0  0  0  0999 V2000
   44.9350   35.6380   44.1040 C   0  0  0  0  0  0  0  0  0  0  0  0
   45.9340   34.8620   43.5250 C   0  0  0  0  0  0  0  0  0  0  0  0
   46.4680   33.8190   44.2900 C   0  0  0  0  0  0  0  0  0  0  0  0
   45.9890   33.6190   45.5510 N   0  0  0  0  0  0  0  0  0  0  0  0
   45.0230   34.4010   46.0580 C   0  0  0  0  0  0  0  0  0  0  0  0
   44.4930   35.4110   45.3380 N   0  0  0  0  0  0  0  0  0  0  0  0
   44.5100   34.2080   47.3680 N   0  0  0  0  0  0  0  0  0  0  0  0
   47.4870   33.0230   43.7070 N   0  0  0  0  0  0  0  0  0  0  0  0
   46.4080   35.1070   42.2010 N   0  0  0  0  0  0  0  0  0  0  0  0
   44.4975   36.4640   43.5241 H   0  0  0  0  0  0  0  0  0  0  0  0
   43.7684   34.8261   47.7269 H   0  0  0  0  0  0  0  0  0  0  0  0
   44.8795   33.4499   47.9593 H   0  0  0  0  0  0  0  0  0  0  0  0
   47.9030   32.2467   44.2410 H   0  0  0  0  0  0  0  0  0  0  0  0
   47.8110   33.2213   42.7496 H   0  0  0  0  0  0  0  0  0  0  0  0
   47.1492   34.5138   41.8013 H   0  0  0  0  0  0  0  0  0  0  0  0
   46.0089   35.8770   41.6453 H   0  0  0  0  0  0  0  0  0  0  0  0
  1  6  2  0
  2  1  1  0
  2  3  2  0
  3  4  1  0
  4  5  2  0
  5  7  1  0
  6  5  1  0
  8  3  1  0
  9  2  1  0
  1 10  1  0
  7 11  1  0
  7 12  1  0
  8 13  1  0
  8 14  1  0
  9 15  1  0
  9 16  1  0
M  ISO  1  10  14
M  END
>  <minimizedAffinity>  (1) 
-3.9057703

>  <minimizedRMSD>  (1) 
0.964055836

$$$$
