
     RDKit          3D

 38 40  0  0  1  0  0  0  0  0999 V2000
   46.3650   35.1520   42.1320 C   0  0  1  0  0  0  0  0  0  0  0  0
   47.8970   35.0700   42.1590 C   0  0  0  0  0  0  0  0  0  0  0  0
   48.6020   34.6200   40.9580 C   0  0  0  0  0  0  0  0  0  0  0  0
   47.7230   34.2550   39.7980 C   0  0  0  0  0  0  0  0  0  0  0  0
   46.6170   33.3810   40.4000 C   0  0  0  0  0  0  0  0  0  0  0  0
   45.6920   34.4330   41.0690 C   0  0  1  0  0  0  0  0  0  0  0  0
   46.3380   33.7230   44.1680 C   0  0  0  0  0  0  0  0  0  0  0  0
   45.9440   34.8880   43.5250 C   0  0  0  0  0  0  0  0  0  0  0  0
   45.0610   35.7280   44.2270 C   0  0  0  0  0  0  0  0  0  0  0  0
   44.6400   35.3790   45.4650 N   0  0  0  0  0  0  0  0  0  0  0  0
   45.0660   34.2180   46.0380 C   0  0  0  0  0  0  0  0  0  0  0  0
   45.9170   33.3900   45.3860 N   0  0  0  0  0  0  0  0  0  0  0  0
   44.6410   33.8670   47.3290 N   0  0  0  0  0  0  0  0  0  0  0  0
   44.6880   36.9430   43.6010 N   0  0  0  0  0  0  0  0  0  0  0  0
   43.1910   35.8890   41.0830 F   0  0  0  0  0  0  0  0  0  0  0  0
   43.0460   34.5270   41.2170 C   0  0  0  0  0  0  0  0  0  0  0  0
   44.3290   33.9560   41.2030 C   0  0  0  0  0  0  0  0  0  0  0  0
   44.3100   32.5560   41.3410 C   0  0  0  0  0  0  0  0  0  0  0  0
   43.1430   31.8210   41.4760 C   0  0  0  0  0  0  0  0  0  0  0  0
   41.9210   32.4420   41.4830 C   0  0  0  0  0  0  0  0  0  0  0  0
   41.8820   33.8110   41.3510 C   0  0  0  0  0  0  0  0  0  0  0  0
   46.0231   36.1506   41.8222 H   0  0  0  0  0  0  0  0  0  0  0  0
   48.4559   35.3448   43.0657 H   0  0  0  0  0  0  0  0  0  0  0  0
   49.6989   34.5540   40.9092 H   0  0  0  0  0  0  0  0  0  0  0  0
   48.2923   33.6930   39.0430 H   0  0  0  0  0  0  0  0  0  0  0  0
   47.3184   35.1428   39.2900 H   0  0  0  0  0  0  0  0  0  0  0  0
   46.0829   32.8201   39.6189 H   0  0  0  0  0  0  0  0  0  0  0  0
   46.9901   32.6158   41.0966 H   0  0  0  0  0  0  0  0  0  0  0  0
   45.4902   35.2881   40.4072 H   0  0  0  0  0  0  0  0  0  0  0  0
   47.0295   33.0441   43.6475 H   0  0  0  0  0  0  0  0  0  0  0  0
   44.9661   32.9884   47.7571 H   0  0  0  0  0  0  0  0  0  0  0  0
   44.0041   34.4880   47.8481 H   0  0  0  0  0  0  0  0  0  0  0  0
   44.0435   37.5906   44.0765 H   0  0  0  0  0  0  0  0  0  0  0  0
   45.0614   37.1787   42.6704 H   0  0  0  0  0  0  0  0  0  0  0  0
   45.2694   32.0180   41.3418 H   0  0  0  0  0  0  0  0  0  0  0  0
   43.1979   30.7272   41.5787 H   0  0  0  0  0  0  0  0  0  0  0  0
   40.9940   31.8599   41.5915 H   0  0  0  0  0  0  0  0  0  0  0  0
   40.9143   34.3341   41.3528 H   0  0  0  0  0  0  0  0  0  0  0  0
  1  2  1  0
  1  8  1  0
  3  2  2  0
  4  5  1  0
  4  3  1  0
  5  6  1  0
  6 17  1  0
  6  1  1  0
  7 12  2  0
  8  7  1  0
  8  9  2  0
  9 10  1  0
 10 11  2  0
 11 13  1  0
 12 11  1  0
 14  9  1  0
 15 16  1  0
 16 21  2  0
 17 16  1  0
 17 18  2  0
 18 19  1  0
 19 20  2  0
 21 20  1  0
  1 22  1  6
  2 23  1  0
  3 24  1  0
  4 25  1  0
  4 26  1  0
  5 27  1  0
  5 28  1  0
  6 29  1  6
  7 30  1  0
 13 31  1  0
 13 32  1  0
 14 33  1  0
 14 34  1  0
 18 35  1  0
 19 36  1  0
 20 37  1  0
 21 38  1  0
M  ISO  8  22  13  23  13  24  13  25  13  26  13  27  13  28  13  29  13
M  ISO  5  30  14  35  14  36  14  37  14  38  14
M  END
>  <minimizedAffinity>  (1) 
-6.95107698

>  <minimizedRMSD>  (1) 
4.33848047

$$$$
