
     RDKit          3D

 24 25  0  0  0  0  0  0  0  0999 V2000
   44.9990   35.5140   44.2580 C   0  0  0  0  0  0  0  0  0  0  0  0
   45.9670   34.9110   43.4070 C   0  0  0  0  0  0  0  0  0  0  0  0
   46.6210   33.7810   43.9080 C   0  0  0  0  0  0  0  0  0  0  0  0
   46.3200   33.3200   45.1420 N   0  0  0  0  0  0  0  0  0  0  0  0
   45.3790   33.9410   45.9190 C   0  0  0  0  0  0  0  0  0  0  0  0
   44.7410   35.0230   45.4580 N   0  0  0  0  0  0  0  0  0  0  0  0
   44.3530   36.6210   43.7720 O   0  0  0  0  0  0  0  0  0  0  0  0
   45.0500   33.4840   47.2000 O   0  0  0  0  0  0  0  0  0  0  0  0
   45.8510   32.3770   49.3800 O   0  0  0  0  0  0  0  0  0  0  0  0
   45.7300   32.0930   47.8860 P   0  0  2  0  0  0  0  0  0  0  0  0
   47.2870   31.7680   47.3070 O   0  0  0  0  0  0  0  0  0  0  0  0
   44.7750   30.7390   47.7250 O   0  0  0  0  0  0  0  0  0  0  0  0
   45.3420   29.7310   46.9770 C   0  0  0  0  0  0  0  0  0  0  0  0
   44.3530   28.8250   46.2860 C   0  0  0  0  0  0  0  0  0  0  0  0
   45.0440   28.3180   47.5290 C   0  0  0  0  0  0  0  0  0  0  0  0
   46.1892   35.3127   42.4074 H   0  0  0  0  0  0  0  0  0  0  0  0
   47.3795   33.2681   43.2983 H   0  0  0  0  0  0  0  0  0  0  0  0
   44.5694   36.9637   42.8688 H   0  0  0  0  0  0  0  0  0  0  0  0
   47.9031   31.6394   48.0712 H   0  0  0  0  0  0  0  0  0  0  0  0
   46.2375   30.2872   46.6628 H   0  0  0  0  0  0  0  0  0  0  0  0
   43.2798   29.0641   46.3176 H   0  0  0  0  0  0  0  0  0  0  0  0
   44.2452   28.4470   45.2586 H   0  0  0  0  0  0  0  0  0  0  0  0
   45.8024   27.5247   47.4547 H   0  0  0  0  0  0  0  0  0  0  0  0
   44.7152   27.9086   48.4955 H   0  0  0  0  0  0  0  0  0  0  0  0
  1  6  2  0
  2  3  2  0
  2  1  1  0
  3  4  1  0
  4  5  2  0
  5  8  1  0
  6  5  1  0
  7  1  1  0
  8 10  1  0
 10  9  2  0
 11 10  1  0
 12 10  1  0
 13 15  1  0
 13 12  1  0
 14 13  1  0
 14 15  1  0
  2 16  1  0
  3 17  1  0
  7 18  1  0
 11 19  1  0
 13 20  1  0
 14 21  1  0
 14 22  1  0
 15 23  1  0
 15 24  1  0
M  ISO  8  16  14  17  14  18   3  19   3  20  13  21  13  22  13  23  13
M  ISO  1  24  13
M  END
>  <minimizedAffinity>  (1) 
-4.48649645

>  <minimizedRMSD>  (1) 
1.60800123

$$$$
