
     RDKit          3D

 19 19  0  0  0  0  0  0  0  0999 V2000
   44.7760   35.1210   44.3360 C   0  0  0  0  0  0  0  0  0  0  0  0
   45.5320   35.1880   43.1470 C   0  0  0  0  0  0  0  0  0  0  0  0
   46.7170   34.4530   43.0940 C   0  0  0  0  0  0  0  0  0  0  0  0
   47.0780   33.7210   44.1730 N   0  0  0  0  0  0  0  0  0  0  0  0
   46.3190   33.6810   45.3040 C   0  0  0  0  0  0  0  0  0  0  0  0
   45.1770   34.3860   45.3620 N   0  0  0  0  0  0  0  0  0  0  0  0
   43.6130   35.8510   44.3730 O   0  0  0  0  0  0  0  0  0  0  0  0
   46.6780   32.9360   46.4110 O   0  0  0  0  0  0  0  0  0  0  0  0
   47.6710   30.6590   45.7840 O   0  0  0  0  0  0  0  0  0  0  0  0
   46.4670   31.2480   46.5120 P   0  0  2  0  0  0  0  0  0  0  0  0
   45.0770   30.7110   45.7130 O   0  0  0  0  0  0  0  0  0  0  0  0
   46.5010   30.6630   48.0690 O   0  0  0  0  0  0  0  0  0  0  0  0
   46.1230   31.3580   49.2120 C   0  0  0  0  0  0  0  0  0  0  0  0
   44.8780   31.3180   49.4720 O   0  0  0  0  0  0  0  0  0  0  0  0
   45.1998   35.7970   42.2933 H   0  0  0  0  0  0  0  0  0  0  0  0
   47.3459   34.4685   42.1917 H   0  0  0  0  0  0  0  0  0  0  0  0
   43.3419   36.3903   43.5883 H   0  0  0  0  0  0  0  0  0  0  0  0
   44.3943   30.4472   46.3797 H   0  0  0  0  0  0  0  0  0  0  0  0
   46.8435   31.9000   49.8422 H   0  0  0  0  0  0  0  0  0  0  0  0
  1  7  1  0
  1  6  2  0
  2  1  1  0
  3  2  2  0
  3  4  1  0
  4  5  2  0
  5  6  1  0
  5  8  1  0
  8 10  1  0
 10  9  2  0
 10 12  1  0
 11 10  1  0
 12 13  1  0
 13 14  2  0
  2 15  1  0
  3 16  1  0
  7 17  1  0
 11 18  1  0
 13 19  1  0
M  ISO  5  15  14  16  14  17   3  18   3  19   6
M  END
>  <minimizedAffinity>  (1) 
-4.37758636

>  <minimizedRMSD>  (1) 
1.87621593

$$$$
