
     RDKit          3D

 45 48  0  0  1  0  0  0  0  0999 V2000
   48.2810   30.1320   48.4490 C   0  0  2  0  0  0  0  0  0  0  0  0
   46.8210   29.8950   48.4540 C   0  0  2  0  0  0  0  0  0  0  0  0
   46.6130   28.9860   47.2960 C   0  0  0  0  0  0  0  0  0  0  0  0
   47.7640   28.2360   47.1430 O   0  0  0  0  0  0  0  0  0  0  0  0
   48.7310   28.7430   47.9490 C   0  0  0  0  0  0  0  0  0  0  0  0
   46.0560   31.0370   48.3790 O   0  0  0  0  0  0  0  0  0  0  0  0
   47.7440   32.9280   47.9440 O   0  0  0  0  0  0  0  0  0  0  0  0
   46.7120   32.0760   47.2540 P   0  0  1  0  0  0  0  0  0  0  0  0
   47.4730   31.1770   46.0360 O   0  0  0  0  0  0  0  0  0  0  0  0
   45.5370   33.1190   46.5760 O   0  0  0  0  0  0  0  0  0  0  0  0
   45.0710   35.5340   43.9870 C   0  0  0  0  0  0  0  0  0  0  0  0
   46.0570   35.1970   43.0160 C   0  0  0  0  0  0  0  0  0  0  0  0
   46.8800   34.0930   43.3140 C   0  0  0  0  0  0  0  0  0  0  0  0
   46.6860   33.4390   44.4800 N   0  0  0  0  0  0  0  0  0  0  0  0
   45.7450   33.7920   45.3670 C   0  0  0  0  0  0  0  0  0  0  0  0
   44.9390   34.8400   45.1170 N   0  0  0  0  0  0  0  0  0  0  0  0
   44.2750   36.6000   43.6980 O   0  0  0  0  0  0  0  0  0  0  0  0
   48.7830   30.4210   49.7060 O   0  0  0  0  0  0  0  0  0  0  0  0
   49.9290   31.0380   50.0930 C   0  0  0  0  0  0  0  0  0  0  0  0
   50.4250   32.3070   49.8660 C   0  0  0  0  0  0  0  0  0  0  0  0
   51.6290   32.7490   50.3520 C   0  0  0  0  0  0  0  0  0  0  0  0
   52.4190   31.9140   51.1140 C   0  0  0  0  0  0  0  0  0  0  0  0
   51.9600   30.6380   51.3630 C   0  0  0  0  0  0  0  0  0  0  0  0
   52.8050   29.8640   52.1310 C   0  0  0  0  0  0  0  0  0  0  0  0
   52.4210   28.5730   52.4270 C   0  0  0  0  0  0  0  0  0  0  0  0
   51.2280   28.0960   51.9600 C   0  0  0  0  0  0  0  0  0  0  0  0
   50.4280   28.8990   51.2060 C   0  0  0  0  0  0  0  0  0  0  0  0
   50.7430   30.1990   50.8690 C   0  0  0  0  0  0  0  0  0  0  0  0
   48.6179   30.9938   47.8542 H   0  0  0  0  0  0  0  0  0  0  0  0
   46.4882   29.4629   49.4093 H   0  0  0  0  0  0  0  0  0  0  0  0
   45.7561   28.3235   47.4880 H   0  0  0  0  0  0  0  0  0  0  0  0
   46.4034   29.5635   46.3836 H   0  0  0  0  0  0  0  0  0  0  0  0
   48.8861   28.0730   48.8075 H   0  0  0  0  0  0  0  0  0  0  0  0
   49.6746   28.8334   47.3909 H   0  0  0  0  0  0  0  0  0  0  0  0
   48.0547   30.4898   46.4476 H   0  0  0  0  0  0  0  0  0  0  0  0
   46.1699   35.7684   42.0829 H   0  0  0  0  0  0  0  0  0  0  0  0
   47.6635   33.7706   42.6125 H   0  0  0  0  0  0  0  0  0  0  0  0
   44.3989   37.0946   42.8494 H   0  0  0  0  0  0  0  0  0  0  0  0
   49.8215   33.0010   49.2625 H   0  0  0  0  0  0  0  0  0  0  0  0
   51.9657   33.7731   50.1332 H   0  0  0  0  0  0  0  0  0  0  0  0
   53.3862   32.2558   51.5112 H   0  0  0  0  0  0  0  0  0  0  0  0
   53.7608   30.2663   52.4980 H   0  0  0  0  0  0  0  0  0  0  0  0
   53.0722   27.9294   53.0366 H   0  0  0  0  0  0  0  0  0  0  0  0
   50.9157   27.0672   52.1926 H   0  0  0  0  0  0  0  0  0  0  0  0
   49.4744   28.4870   50.8443 H   0  0  0  0  0  0  0  0  0  0  0  0
  1  2  1  0
  1 18  1  0
  3  2  1  0
  4  3  1  0
  4  5  1  0
  5  1  1  0
  6  2  1  0
  8  7  2  0
  8  6  1  0
  9  8  1  0
 10  8  1  0
 11 16  2  0
 12 13  2  0
 12 11  1  0
 13 14  1  0
 14 15  2  0
 15 10  1  0
 16 15  1  0
 17 11  1  0
 18 19  1  0
 19 28  1  0
 20 19  2  0
 20 21  1  0
 21 22  2  0
 22 23  1  0
 23 24  2  0
 24 25  1  0
 26 25  2  0
 27 26  1  0
 28 27  2  0
 28 23  1  0
  1 29  1  6
  2 30  1  1
  3 31  1  0
  3 32  1  0
  5 33  1  0
  5 34  1  0
  9 35  1  0
 12 36  1  0
 13 37  1  0
 17 38  1  0
 20 39  1  0
 21 40  1  0
 22 41  1  0
 24 42  1  0
 25 43  1  0
 26 44  1  0
 27 45  1  0
M  ISO  8  29  13  30  13  31  13  32  13  33  13  34  13  35   3  36  14
M  ISO  8  37  14  38   3  39  14  40  14  41  14  42  14  43  14  44  14
M  ISO  1  45  14
M  END
>  <minimizedAffinity>  (1) 
-5.98292685

>  <minimizedRMSD>  (1) 
1.45444441

$$$$
