
     RDKit          3D

 38 40  0  0  1  0  0  0  0  0999 V2000
   46.8090   30.9150   48.6040 C   0  0  2  0  0  0  0  0  0  0  0  0
   46.5980   32.3440   48.2660 C   0  0  2  0  0  0  0  0  0  0  0  0
   45.1490   32.4220   47.9730 C   0  0  0  0  0  0  0  0  0  0  0  0
   44.5120   31.4590   48.7310 O   0  0  0  0  0  0  0  0  0  0  0  0
   45.4460   30.6450   49.2830 C   0  0  0  0  0  0  0  0  0  0  0  0
   47.3910   32.7900   47.2330 O   0  0  0  0  0  0  0  0  0  0  0  0
   47.6770   30.6990   45.7560 O   0  0  0  0  0  0  0  0  0  0  0  0
   46.9640   32.0240   45.8180 P   0  0  1  0  0  0  0  0  0  0  0  0
   45.2960   31.7280   45.8160 O   0  0  0  0  0  0  0  0  0  0  0  0
   47.4210   32.9200   44.4360 O   0  0  0  0  0  0  0  0  0  0  0  0
   44.7030   35.1520   43.8580 C   0  0  0  0  0  0  0  0  0  0  0  0
   44.7100   35.3620   42.4510 C   0  0  0  0  0  0  0  0  0  0  0  0
   45.7070   34.6880   41.7220 C   0  0  0  0  0  0  0  0  0  0  0  0
   46.5740   33.9000   42.4010 N   0  0  0  0  0  0  0  0  0  0  0  0
   46.5250   33.7340   43.7380 C   0  0  0  0  0  0  0  0  0  0  0  0
   45.5860   34.3640   44.4550 N   0  0  0  0  0  0  0  0  0  0  0  0
   43.7240   35.8150   44.5740 O   0  0  0  0  0  0  0  0  0  0  0  0
   47.8480   30.7190   49.4730 O   0  0  0  0  0  0  0  0  0  0  0  0
   49.1170   30.3680   49.4430 C   0  0  0  0  0  0  0  0  0  0  0  0
   49.9310   30.0090   48.3670 C   0  0  0  0  0  0  0  0  0  0  0  0
   51.2650   29.6550   48.4600 C   0  0  0  0  0  0  0  0  0  0  0  0
   51.7950   29.6690   49.7240 C   0  0  0  0  0  0  0  0  0  0  0  0
   51.0260   30.0180   50.8270 C   0  0  0  0  0  0  0  0  0  0  0  0
   49.7550   30.3440   50.6520 N   0  0  0  0  0  0  0  0  0  0  0  0
   47.0742   30.2675   47.7552 H   0  0  0  0  0  0  0  0  0  0  0  0
   46.8950   33.0127   49.0874 H   0  0  0  0  0  0  0  0  0  0  0  0
   44.7671   33.4192   48.2372 H   0  0  0  0  0  0  0  0  0  0  0  0
   44.9641   32.2521   46.9020 H   0  0  0  0  0  0  0  0  0  0  0  0
   45.1581   29.5946   49.1288 H   0  0  0  0  0  0  0  0  0  0  0  0
   45.5215   30.8422   50.3625 H   0  0  0  0  0  0  0  0  0  0  0  0
   44.9700   31.6701   46.7490 H   0  0  0  0  0  0  0  0  0  0  0  0
   43.9752   36.0164   41.9592 H   0  0  0  0  0  0  0  0  0  0  0  0
   45.7802   34.7982   40.6300 H   0  0  0  0  0  0  0  0  0  0  0  0
   43.0763   36.3979   44.1042 H   0  0  0  0  0  0  0  0  0  0  0  0
   49.4754   30.0075   47.3658 H   0  0  0  0  0  0  0  0  0  0  0  0
   51.8614   29.3803   47.5775 H   0  0  0  0  0  0  0  0  0  0  0  0
   52.8514   29.3982   49.8680 H   0  0  0  0  0  0  0  0  0  0  0  0
   51.4681   30.0234   51.8342 H   0  0  0  0  0  0  0  0  0  0  0  0
  1  5  1  0
  1 18  1  0
  2  1  1  0
  3  2  1  0
  3  4  1  0
  4  5  1  0
  6  2  1  0
  8  7  2  0
  8  6  1  0
  9  8  1  0
 10  8  1  0
 11 16  2  0
 11 17  1  0
 12 11  1  0
 13 14  1  0
 13 12  2  0
 14 15  2  0
 15 10  1  0
 15 16  1  0
 19 18  1  0
 19 24  2  0
 20 21  2  0
 20 19  1  0
 21 22  1  0
 22 23  2  0
 24 23  1  0
  1 25  1  6
  2 26  1  1
  3 27  1  0
  3 28  1  0
  5 29  1  0
  5 30  1  0
  9 31  1  0
 12 32  1  0
 13 33  1  0
 17 34  1  0
 20 35  1  0
 21 36  1  0
 22 37  1  0
 23 38  1  0
M  ISO  8  25  13  26  13  27  13  28  13  29  13  30  13  31   3  32  14
M  ISO  6  33  14  34   3  35  14  36  14  37  14  38  14
M  END
>  <minimizedAffinity>  (1) 
-5.64213848

>  <minimizedRMSD>  (1) 
2.07889557

$$$$
