
     RDKit          3D

 37 38  0  0  1  0  0  0  0  0999 V2000
   47.0150   30.6650   48.1560 C   0  0  2  0  0  0  0  0  0  0  0  0
   45.5600   30.9120   48.3110 C   0  0  2  0  0  0  0  0  0  0  0  0
   44.8930   29.9970   47.4120 C   0  0  0  0  0  0  0  0  0  0  0  0
   45.7560   28.9270   47.1380 O   0  0  0  0  0  0  0  0  0  0  0  0
   46.8400   29.1140   47.9220 C   0  0  0  0  0  0  0  0  0  0  0  0
   45.2020   32.2220   48.1220 O   0  0  0  0  0  0  0  0  0  0  0  0
   47.1840   33.0180   46.7660 O   0  0  0  0  0  0  0  0  0  0  0  0
   45.7240   32.7490   46.6480 P   0  0  1  0  0  0  0  0  0  0  0  0
   45.4710   31.5440   45.4890 O   0  0  0  0  0  0  0  0  0  0  0  0
   45.0130   34.2280   46.1830 O   0  0  0  0  0  0  0  0  0  0  0  0
   44.9940   36.4720   43.3830 C   0  0  0  0  0  0  0  0  0  0  0  0
   44.9560   35.6130   42.2500 C   0  0  0  0  0  0  0  0  0  0  0  0
   44.9390   34.2430   42.5300 C   0  0  0  0  0  0  0  0  0  0  0  0
   44.9580   33.8180   43.8090 N   0  0  0  0  0  0  0  0  0  0  0  0
   44.9930   34.6660   44.8540 C   0  0  0  0  0  0  0  0  0  0  0  0
   45.0110   35.9850   44.6350 N   0  0  0  0  0  0  0  0  0  0  0  0
   45.0160   37.8330   43.1920 O   0  0  0  0  0  0  0  0  0  0  0  0
   45.3270   38.6420   44.2810 C   0  0  0  0  0  0  0  0  0  0  0  0
   45.2540   39.8780   44.5730 O   0  0  0  0  0  0  0  0  0  0  0  0
   47.7820   30.8290   49.2490 O   0  0  0  0  0  0  0  0  0  0  0  0
   48.9890   31.3230   49.2640 C   0  0  0  0  0  0  0  0  0  0  0  0
   49.7980   30.5570   50.3070 C   0  0  0  0  0  0  0  0  0  0  0  0
   47.5095   31.3237   47.4269 H   0  0  0  0  0  0  0  0  0  0  0  0
   45.2498   30.7244   49.3496 H   0  0  0  0  0  0  0  0  0  0  0  0
   43.9734   29.6196   47.8831 H   0  0  0  0  0  0  0  0  0  0  0  0
   44.6295   30.5147   46.4779 H   0  0  0  0  0  0  0  0  0  0  0  0
   46.6946   28.6056   48.8866 H   0  0  0  0  0  0  0  0  0  0  0  0
   47.7362   28.6983   47.4382 H   0  0  0  0  0  0  0  0  0  0  0  0
   45.2902   30.6827   45.9425 H   0  0  0  0  0  0  0  0  0  0  0  0
   44.9410   36.0009   41.2208 H   0  0  0  0  0  0  0  0  0  0  0  0
   44.9102   33.5131   41.7075 H   0  0  0  0  0  0  0  0  0  0  0  0
   45.7486   38.0560   45.1110 H   0  0  0  0  0  0  0  0  0  0  0  0
   49.4523   31.2072   48.2731 H   0  0  0  0  0  0  0  0  0  0  0  0
   48.9609   32.3942   49.5127 H   0  0  0  0  0  0  0  0  0  0  0  0
   49.4777   30.8603   51.3147 H   0  0  0  0  0  0  0  0  0  0  0  0
   49.6322   29.4771   50.1790 H   0  0  0  0  0  0  0  0  0  0  0  0
   50.8672   30.7815   50.1790 H   0  0  0  0  0  0  0  0  0  0  0  0
  1  2  1  0
  1 20  1  0
  3  2  1  0
  4  3  1  0
  4  5  1  0
  5  1  1  0
  6  2  1  0
  8  7  2  0
  8  6  1  0
  9  8  1  0
 10  8  1  0
 11 16  2  0
 12 13  2  0
 12 11  1  0
 13 14  1  0
 14 15  2  0
 15 10  1  0
 16 15  1  0
 17 11  1  0
 17 18  1  0
 18 19  2  0
 20 21  1  0
 21 22  1  0
  1 23  1  6
  2 24  1  1
  3 25  1  0
  3 26  1  0
  5 27  1  0
  5 28  1  0
  9 29  1  0
 12 30  1  0
 13 31  1  0
 18 32  1  0
 21 33  1  0
 21 34  1  0
 22 35  1  0
 22 36  1  0
 22 37  1  0
M  ISO  8  23  13  24  13  25  13  26  13  27  13  28  13  29   3  30  14
M  ISO  7  31  14  32   6  33   8  34   8  35   8  36   8  37   8
M  END
>  <minimizedAffinity>  (1) 
-4.39210796

>  <minimizedRMSD>  (1) 
0.529008806

$$$$
