
     RDKit          3D

 46 48  0  0  1  0  0  0  0  0999 V2000
   49.7240   32.7160   41.5620 C   0  0  0  0  0  0  0  0  0  0  0  0
   51.0700   32.3640   41.7490 C   0  0  0  0  0  0  0  0  0  0  0  0
   51.7670   31.7280   40.7210 C   0  0  0  0  0  0  0  0  0  0  0  0
   51.0860   31.4830   39.5750 N   0  0  0  0  0  0  0  0  0  0  0  0
   49.7990   31.8330   39.4250 C   0  0  0  0  0  0  0  0  0  0  0  0
   49.1420   32.4370   40.4060 N   0  0  0  0  0  0  0  0  0  0  0  0
   49.4850   32.5160   37.0730 C   0  0  2  0  0  0  0  0  0  0  0  0
   49.1390   31.5130   38.1090 C   0  0  2  0  0  0  0  0  0  0  0  0
   47.8250   31.2780   38.3620 O   0  0  0  0  0  0  0  0  0  0  0  0
   46.9180   31.7860   37.4580 C   0  0  0  0  0  0  0  0  0  0  0  0
   47.1260   33.3020   37.4500 C   0  0  1  0  0  0  0  0  0  0  0  0
   48.4460   33.5480   36.7780 C   0  0  2  0  0  0  0  0  0  0  0  0
   49.9320   31.9040   35.8930 O   0  0  0  0  0  0  0  0  0  0  0  0
   46.0810   33.9000   36.7650 O   0  0  0  0  0  0  0  0  0  0  0  0
   48.2080   33.5670   35.4030 O   0  0  0  0  0  0  0  0  0  0  0  0
   49.0670   33.3780   42.6860 C   0  0  0  0  0  0  0  0  0  0  0  0
   47.8570   33.0020   43.0360 C   0  0  0  0  0  0  0  0  0  0  0  0
   47.1270   33.6210   44.1600 C   0  0  0  0  0  0  0  0  0  0  0  0
   44.7300   36.2450   43.4620 C   0  0  1  0  0  0  0  0  0  0  0  0
   45.9140   35.4460   42.8980 C   0  0  0  0  0  0  0  0  0  0  0  0
   45.7810   34.1870   43.6770 C   0  0  2  0  0  0  0  0  0  0  0  0
   44.9050   34.3780   44.7110 O   0  0  0  0  0  0  0  0  0  0  0  0
   44.6970   35.7310   44.8870 C   0  0  0  0  0  0  0  0  0  0  0  0
   44.9950   37.6040   43.3840 O   0  0  0  0  0  0  0  0  0  0  0  0
   51.5728   32.5884   42.7013 H   0  0  0  0  0  0  0  0  0  0  0  0
   52.8220   31.4384   40.8356 H   0  0  0  0  0  0  0  0  0  0  0  0
   50.3073   33.0847   37.5316 H   0  0  0  0  0  0  0  0  0  0  0  0
   49.5197   30.5916   37.6442 H   0  0  0  0  0  0  0  0  0  0  0  0
   47.1041   31.3704   36.4567 H   0  0  0  0  0  0  0  0  0  0  0  0
   45.8862   31.5246   37.7357 H   0  0  0  0  0  0  0  0  0  0  0  0
   47.1381   33.7295   38.4635 H   0  0  0  0  0  0  0  0  0  0  0  0
   48.8460   34.4979   37.1623 H   0  0  0  0  0  0  0  0  0  0  0  0
   50.5004   31.1258   36.1197 H   0  0  0  0  0  0  0  0  0  0  0  0
   45.4314   34.2717   37.4131 H   0  0  0  0  0  0  0  0  0  0  0  0
   47.2350   33.6447   35.2376 H   0  0  0  0  0  0  0  0  0  0  0  0
   49.5793   34.1827   43.2338 H   0  0  0  0  0  0  0  0  0  0  0  0
   47.3695   32.1949   42.4695 H   0  0  0  0  0  0  0  0  0  0  0  0
   46.9441   32.8624   44.9353 H   0  0  0  0  0  0  0  0  0  0  0  0
   47.7331   34.4420   44.5707 H   0  0  0  0  0  0  0  0  0  0  0  0
   43.7721   36.1223   42.9354 H   0  0  0  0  0  0  0  0  0  0  0  0
   45.8076   35.2691   41.8175 H   0  0  0  0  0  0  0  0  0  0  0  0
   46.8907   35.9435   42.9908 H   0  0  0  0  0  0  0  0  0  0  0  0
   45.3782   33.4193   42.9999 H   0  0  0  0  0  0  0  0  0  0  0  0
   45.4964   36.1824   45.4929 H   0  0  0  0  0  0  0  0  0  0  0  0
   43.7662   35.9698   45.4223 H   0  0  0  0  0  0  0  0  0  0  0  0
   45.0681   37.9789   44.2973 H   0  0  0  0  0  0  0  0  0  0  0  0
  1  2  2  0
  1 16  1  0
  3  2  1  0
  4  3  2  0
  5  4  1  0
  5  6  2  0
  6  1  1  0
  7 13  1  0
  7  8  1  0
  8  9  1  0
  8  5  1  0
 10  9  1  0
 11 14  1  0
 11 10  1  0
 12 15  1  0
 12  7  1  0
 12 11  1  0
 16 17  2  0
 17 18  1  0
 19 23  1  0
 20 19  1  0
 20 21  1  0
 21 18  1  0
 21 22  1  0
 22 23  1  0
 24 19  1  0
  2 25  1  0
  3 26  1  0
  7 27  1  1
  8 28  1  6
 10 29  1  0
 10 30  1  0
 11 31  1  1
 12 32  1  1
 13 33  1  0
 14 34  1  0
 15 35  1  0
 16 36  1  0
 17 37  1  0
 18 38  1  0
 18 39  1  0
 19 40  1  6
 20 41  1  0
 20 42  1  0
 21 43  1  6
 23 44  1  0
 23 45  1  0
 24 46  1  0
M  ISO  8  25  14  26  14  27  13  28  13  29  13  30  13  31  13  32  13
M  ISO  8  33   3  34   3  35   3  38   8  39   8  40  13  41  13  42  13
M  ISO  4  43  13  44  13  45  13  46   3
M  END
>  <minimizedAffinity>  (1) 
-6.30207586

>  <minimizedRMSD>  (1) 
0.463061213

$$$$
