
     RDKit          3D

 29 31  0  0  1  0  0  0  0  0999 V2000
   46.2960   33.0390   43.1500 C   0  0  1  0  0  0  0  0  0  0  0  0
   45.7430   31.7220   43.3640 C   0  0  0  0  0  0  0  0  0  0  0  0
   45.8820   32.5960   44.5530 C   0  0  1  0  0  0  0  0  0  0  0  0
   48.5830   32.1450   42.5830 C   0  0  0  0  0  0  0  0  0  0  0  0
   47.7430   33.2610   42.8920 C   0  0  0  0  0  0  0  0  0  0  0  0
   48.3030   34.5230   42.9500 C   0  0  0  0  0  0  0  0  0  0  0  0
   49.6450   34.6350   42.7040 N   0  0  0  0  0  0  0  0  0  0  0  0
   50.4200   33.5490   42.4110 C   0  0  0  0  0  0  0  0  0  0  0  0
   49.9030   32.2860   42.3450 N   0  0  0  0  0  0  0  0  0  0  0  0
   46.9300   32.3540   45.5670 C   0  0  0  0  0  0  0  0  0  0  0  0
   46.2900   31.7870   46.8040 C   0  0  0  0  0  0  0  0  0  0  0  0
   45.6690   30.5540   46.8020 C   0  0  0  0  0  0  0  0  0  0  0  0
   45.0800   30.0430   47.9640 C   0  0  0  0  0  0  0  0  0  0  0  0
   45.1700   30.8540   49.0770 C   0  0  0  0  0  0  0  0  0  0  0  0
   45.7850   32.0900   49.1030 C   0  0  0  0  0  0  0  0  0  0  0  0
   46.3360   32.5270   47.9490 N   0  0  0  0  0  0  0  0  0  0  0  0
   46.0477   33.8562   42.4568 H   0  0  0  0  0  0  0  0  0  0  0  0
   44.7398   31.4867   42.9790 H   0  0  0  0  0  0  0  0  0  0  0  0
   46.0868   30.7051   43.1239 H   0  0  0  0  0  0  0  0  0  0  0  0
   45.2045   32.9504   45.3438 H   0  0  0  0  0  0  0  0  0  0  0  0
   48.1382   31.1400   42.5381 H   0  0  0  0  0  0  0  0  0  0  0  0
   47.6918   35.4067   43.1856 H   0  0  0  0  0  0  0  0  0  0  0  0
   51.4937   33.6958   42.2223 H   0  0  0  0  0  0  0  0  0  0  0  0
   47.6675   31.6396   45.1724 H   0  0  0  0  0  0  0  0  0  0  0  0
   47.4382   33.2988   45.8102 H   0  0  0  0  0  0  0  0  0  0  0  0
   45.6367   29.9648   45.8737 H   0  0  0  0  0  0  0  0  0  0  0  0
   44.5802   29.0634   47.9886 H   0  0  0  0  0  0  0  0  0  0  0  0
   44.7189   30.4892   50.0116 H   0  0  0  0  0  0  0  0  0  0  0  0
   45.8247   32.6924   50.0225 H   0  0  0  0  0  0  0  0  0  0  0  0
  1  2  1  0
  1  3  1  0
  2  3  1  0
  3 10  1  0
  4  5  2  0
  5  6  1  0
  5  1  1  0
  7  6  2  0
  8  7  1  0
  9  8  2  0
  9  4  1  0
 10 11  1  0
 11 16  1  0
 12 11  2  0
 12 13  1  0
 13 14  2  0
 14 15  1  0
 16 15  2  0
  1 17  1  6
  2 18  1  0
  2 19  1  0
  3 20  1  1
  4 21  1  0
  6 22  1  0
  8 23  1  0
 10 24  1  0
 10 25  1  0
 12 26  1  0
 13 27  1  0
 14 28  1  0
 15 29  1  0
M  ISO  8  17  13  18  13  19  13  20  13  21  14  22  14  23  14  24   8
M  ISO  5  25   8  26  14  27  14  28  14  29  14
M  END
>  <minimizedAffinity>  (1) 
-4.17009449

>  <minimizedRMSD>  (1) 
7.04253006

$$$$
