
     RDKit          3D

 24 25  0  0  1  0  0  0  0  0999 V2000
   46.3030   33.4020   43.2710 C   0  0  1  0  0  0  0  0  0  0  0  0
   46.4230   34.8370   43.2010 C   0  0  0  0  0  0  0  0  0  0  0  0
   47.4340   34.0270   42.4500 C   0  0  1  0  0  0  0  0  0  0  0  0
   46.5830   33.2150   45.7510 C   0  0  0  0  0  0  0  0  0  0  0  0
   46.6830   32.6200   44.4570 C   0  0  0  0  0  0  0  0  0  0  0  0
   47.1540   31.3240   44.3990 C   0  0  0  0  0  0  0  0  0  0  0  0
   47.4890   30.7060   45.5690 N   0  0  0  0  0  0  0  0  0  0  0  0
   47.3810   31.3020   46.7800 C   0  0  0  0  0  0  0  0  0  0  0  0
   46.9200   32.5830   46.8930 N   0  0  0  0  0  0  0  0  0  0  0  0
   48.8220   33.9270   42.9250 C   0  0  0  0  0  0  0  0  0  0  0  0
   49.4490   35.8820   41.8520 C   0  0  0  0  0  0  0  0  0  0  0  0
   48.9240   35.7300   40.6980 O   0  0  0  0  0  0  0  0  0  0  0  0
   49.5400   35.1520   43.0950 N   0  0  0  0  0  0  0  0  0  0  0  0
   45.4577   32.7199   43.0975 H   0  0  0  0  0  0  0  0  0  0  0  0
   45.6720   35.4174   42.6451 H   0  0  0  0  0  0  0  0  0  0  0  0
   46.4946   35.6327   43.9571 H   0  0  0  0  0  0  0  0  0  0  0  0
   47.7927   33.9776   41.4113 H   0  0  0  0  0  0  0  0  0  0  0  0
   46.2099   34.2475   45.8200 H   0  0  0  0  0  0  0  0  0  0  0  0
   47.2567   30.8030   43.4356 H   0  0  0  0  0  0  0  0  0  0  0  0
   47.6684   30.7471   47.6852 H   0  0  0  0  0  0  0  0  0  0  0  0
   48.8035   33.4154   43.8986 H   0  0  0  0  0  0  0  0  0  0  0  0
   49.3583   33.3898   42.1289 H   0  0  0  0  0  0  0  0  0  0  0  0
   49.9837   36.8410   41.9183 H   0  0  0  0  0  0  0  0  0  0  0  0
   50.0316   35.4575   43.9470 H   0  0  0  0  0  0  0  0  0  0  0  0
  1  5  1  0
  2  1  1  0
  3 10  1  0
  3  2  1  0
  3  1  1  0
  4  9  2  0
  5  4  1  0
  6  5  2  0
  6  7  1  0
  7  8  2  0
  8  9  1  0
 10 13  1  0
 11 13  1  0
 12 11  2  0
  1 14  1  6
  2 15  1  0
  2 16  1  0
  3 17  1  6
  4 18  1  0
  6 19  1  0
  8 20  1  0
 10 21  1  0
 10 22  1  0
 11 23  1  0
 13 24  1  0
M  ISO  8  14  13  15  13  16  13  17  13  18  14  19  14  20  14  21   8
M  ISO  2  22   8  23   6
M  END
>  <minimizedAffinity>  (1) 
-3.55202508

>  <minimizedRMSD>  (1) 
3.06089902

$$$$
