
     RDKit          3D

 47 50  0  0  1  0  0  0  0  0999 V2000
   45.9790   32.0050   46.5060 N   0  0  0  0  0  0  0  0  0  0  0  0
   45.2290   32.5700   47.5630 C   0  0  0  0  0  0  0  0  0  0  0  0
   45.9480   32.4560   48.9070 C   0  0  0  0  0  0  0  0  0  0  0  0
   46.0000   30.9660   49.2070 C   0  0  0  0  0  0  0  0  0  0  0  0
   46.9010   30.3900   48.1480 C   0  0  0  0  0  0  0  0  0  0  0  0
   46.4150   30.6940   46.7590 C   0  0  2  0  0  0  0  0  0  0  0  0
   48.4000   29.2540   46.1740 C   0  0  1  0  0  0  0  0  0  0  0  0
   47.3920   30.2670   45.7200 C   0  0  1  0  0  0  0  0  0  0  0  0
   46.6180   29.4590   44.6940 C   0  0  0  0  0  0  0  0  0  0  0  0
   46.8850   28.1320   44.8730 O   0  0  0  0  0  0  0  0  0  0  0  0
   47.7030   27.9570   45.9480 C   0  0  0  0  0  0  0  0  0  0  0  0
   49.4890   29.3280   45.2860 O   0  0  0  0  0  0  0  0  0  0  0  0
   46.8360   32.8990   45.7990 C   0  0  0  0  0  0  0  0  0  0  0  0
   46.3460   34.1140   43.5390 C   0  0  1  0  0  0  0  0  0  0  0  0
   45.2340   33.2880   43.8330 C   0  0  0  0  0  0  0  0  0  0  0  0
   45.9790   33.8150   45.0070 C   0  0  1  0  0  0  0  0  0  0  0  0
   47.7730   32.2830   42.6220 C   0  0  0  0  0  0  0  0  0  0  0  0
   47.6780   33.6320   43.0720 C   0  0  0  0  0  0  0  0  0  0  0  0
   48.7960   34.4260   43.0620 C   0  0  0  0  0  0  0  0  0  0  0  0
   49.9660   33.8700   42.6140 N   0  0  0  0  0  0  0  0  0  0  0  0
   50.0380   32.5800   42.1890 C   0  0  0  0  0  0  0  0  0  0  0  0
   48.9410   31.7620   42.1850 N   0  0  0  0  0  0  0  0  0  0  0  0
   45.0541   33.6337   47.3440 H   0  0  0  0  0  0  0  0  0  0  0  0
   44.2819   32.0156   47.6388 H   0  0  0  0  0  0  0  0  0  0  0  0
   46.9643   32.8710   48.8371 H   0  0  0  0  0  0  0  0  0  0  0  0
   45.4300   33.0167   49.6990 H   0  0  0  0  0  0  0  0  0  0  0  0
   46.4168   30.7871   50.2091 H   0  0  0  0  0  0  0  0  0  0  0  0
   45.0009   30.5059   49.1963 H   0  0  0  0  0  0  0  0  0  0  0  0
   47.9082   30.8146   48.2712 H   0  0  0  0  0  0  0  0  0  0  0  0
   46.9082   29.2969   48.2704 H   0  0  0  0  0  0  0  0  0  0  0  0
   45.5000   30.0867   46.6956 H   0  0  0  0  0  0  0  0  0  0  0  0
   48.7489   29.3898   47.2083 H   0  0  0  0  0  0  0  0  0  0  0  0
   47.8884   31.1927   45.3935 H   0  0  0  0  0  0  0  0  0  0  0  0
   45.5402   29.6379   44.8219 H   0  0  0  0  0  0  0  0  0  0  0  0
   46.9192   29.7631   43.6807 H   0  0  0  0  0  0  0  0  0  0  0  0
   47.1107   27.6859   46.8344 H   0  0  0  0  0  0  0  0  0  0  0  0
   48.4251   27.1472   45.7669 H   0  0  0  0  0  0  0  0  0  0  0  0
   50.3321   29.3853   45.8018 H   0  0  0  0  0  0  0  0  0  0  0  0
   47.4438   33.4767   46.5109 H   0  0  0  0  0  0  0  0  0  0  0  0
   47.5149   32.3398   45.1385 H   0  0  0  0  0  0  0  0  0  0  0  0
   46.4487   34.9821   42.8713 H   0  0  0  0  0  0  0  0  0  0  0  0
   44.2189   33.6593   43.6289 H   0  0  0  0  0  0  0  0  0  0  0  0
   44.9451   32.2744   43.5180 H   0  0  0  0  0  0  0  0  0  0  0  0
   45.7437   34.3970   45.9102 H   0  0  0  0  0  0  0  0  0  0  0  0
   46.8733   31.6501   42.6306 H   0  0  0  0  0  0  0  0  0  0  0  0
   48.7553   35.4716   43.4013 H   0  0  0  0  0  0  0  0  0  0  0  0
   51.0029   32.1841   41.8395 H   0  0  0  0  0  0  0  0  0  0  0  0
  1  6  1  0
  1  2  1  0
  2  3  1  0
  3  4  1  0
  5  4  1  0
  6  5  1  0
  7 12  1  0
  8  9  1  0
  8  7  1  0
  8  6  1  0
  9 10  1  0
 10 11  1  0
 11  7  1  0
 13  1  1  0
 14 15  1  0
 14 16  1  0
 15 16  1  0
 16 13  1  0
 17 18  2  0
 18 14  1  0
 19 18  1  0
 20 19  2  0
 21 20  1  0
 22 21  2  0
 22 17  1  0
  2 23  1  0
  2 24  1  0
  3 25  1  0
  3 26  1  0
  4 27  1  0
  4 28  1  0
  5 29  1  0
  5 30  1  0
  6 31  1  6
  7 32  1  1
  8 33  1  6
  9 34  1  0
  9 35  1  0
 11 36  1  0
 11 37  1  0
 12 38  1  0
 13 39  1  0
 13 40  1  0
 14 41  1  1
 15 42  1  0
 15 43  1  0
 16 44  1  1
 17 45  1  0
 19 46  1  0
 21 47  1  0
M  ISO  8  23  13  24  13  25  13  26  13  27  13  28  13  29  13  30  13
M  ISO  8  31  13  32  13  33  13  34  13  35  13  36  13  37  13  38   3
M  ISO  8  39   8  40   8  41  13  42  13  43  13  44  13  45  14  46  14
M  ISO  1  47  14
M  END
>  <minimizedAffinity>  (1) 
-4.38885736

>  <minimizedRMSD>  (1) 
2.98941851

$$$$
