
     RDKit          3D

 37 39  0  0  1  0  0  0  0  0999 V2000
   46.7110   32.1990   45.1400 C   0  0  0  0  0  0  0  0  0  0  0  0
   46.2240   31.6880   46.3800 N   0  0  0  0  0  0  0  0  0  0  0  0
   46.3500   32.5400   47.4990 C   0  0  0  0  0  0  0  0  0  0  0  0
   47.6580   32.3010   48.2570 C   0  0  0  0  0  0  0  0  0  0  0  0
   47.5450   30.9190   48.8510 C   0  0  0  0  0  0  0  0  0  0  0  0
   47.4460   29.9700   47.6770 C   0  0  0  0  0  0  0  0  0  0  0  0
   46.4080   30.3300   46.6700 C   0  0  1  0  0  0  0  0  0  0  0  0
   45.0910   29.7260   47.0240 C   0  0  0  0  0  0  0  0  0  0  0  0
   44.9800   28.7820   47.7810 O   0  0  0  0  0  0  0  0  0  0  0  0
   46.4380   34.3380   43.6690 C   0  0  1  0  0  0  0  0  0  0  0  0
   45.1570   33.7580   43.8290 C   0  0  0  0  0  0  0  0  0  0  0  0
   46.1130   33.5480   44.9520 C   0  0  1  0  0  0  0  0  0  0  0  0
   47.1680   32.8950   41.7770 C   0  0  0  0  0  0  0  0  0  0  0  0
   47.5330   33.8050   42.8110 C   0  0  0  0  0  0  0  0  0  0  0  0
   48.8510   34.1450   42.9750 C   0  0  0  0  0  0  0  0  0  0  0  0
   49.7610   33.5830   42.1230 N   0  0  0  0  0  0  0  0  0  0  0  0
   49.3890   32.7130   41.1370 C   0  0  0  0  0  0  0  0  0  0  0  0
   48.0850   32.3500   40.9430 N   0  0  0  0  0  0  0  0  0  0  0  0
   47.8080   32.2742   45.1687 H   0  0  0  0  0  0  0  0  0  0  0  0
   46.4366   31.5322   44.3093 H   0  0  0  0  0  0  0  0  0  0  0  0
   46.3247   33.5845   47.1548 H   0  0  0  0  0  0  0  0  0  0  0  0
   45.5163   32.3267   48.1842 H   0  0  0  0  0  0  0  0  0  0  0  0
   48.5142   32.3526   47.5684 H   0  0  0  0  0  0  0  0  0  0  0  0
   47.8194   33.0626   49.0341 H   0  0  0  0  0  0  0  0  0  0  0  0
   48.4346   30.6884   49.4554 H   0  0  0  0  0  0  0  0  0  0  0  0
   46.6710   30.8344   49.5136 H   0  0  0  0  0  0  0  0  0  0  0  0
   48.4221   29.9491   47.1702 H   0  0  0  0  0  0  0  0  0  0  0  0
   47.1517   28.9942   48.0907 H   0  0  0  0  0  0  0  0  0  0  0  0
   46.8248   29.9065   45.7443 H   0  0  0  0  0  0  0  0  0  0  0  0
   44.1800   30.1540   46.5802 H   0  0  0  0  0  0  0  0  0  0  0  0
   46.7404   35.3541   43.3757 H   0  0  0  0  0  0  0  0  0  0  0  0
   44.2850   34.4115   43.9792 H   0  0  0  0  0  0  0  0  0  0  0  0
   44.5580   33.0726   43.2115 H   0  0  0  0  0  0  0  0  0  0  0  0
   46.1344   33.7361   46.0356 H   0  0  0  0  0  0  0  0  0  0  0  0
   46.1085   32.6270   41.6525 H   0  0  0  0  0  0  0  0  0  0  0  0
   49.1651   34.8447   43.7635 H   0  0  0  0  0  0  0  0  0  0  0  0
   50.1629   32.2915   40.4787 H   0  0  0  0  0  0  0  0  0  0  0  0
  1  2  1  0
  2  7  1  0
  2  3  1  0
  3  4  1  0
  4  5  1  0
  6  5  1  0
  7  8  1  0
  7  6  1  0
  8  9  2  0
 10 11  1  0
 10 12  1  0
 11 12  1  0
 12  1  1  0
 13 14  2  0
 14 15  1  0
 14 10  1  0
 16 15  2  0
 17 16  1  0
 18 17  2  0
 18 13  1  0
  1 19  1  0
  1 20  1  0
  3 21  1  0
  3 22  1  0
  4 23  1  0
  4 24  1  0
  5 25  1  0
  5 26  1  0
  6 27  1  0
  6 28  1  0
  7 29  1  6
  8 30  1  0
 10 31  1  1
 11 32  1  0
 11 33  1  0
 12 34  1  1
 13 35  1  0
 15 36  1  0
 17 37  1  0
M  ISO  8  19   8  20   8  21  13  22  13  23  13  24  13  25  13  26  13
M  ISO  8  27  13  28  13  29  13  30   6  31  13  32  13  33  13  34  13
M  ISO  3  35  14  36  14  37  14
M  END
>  <minimizedAffinity>  (1) 
-4.09628057

>  <minimizedRMSD>  (1) 
2.00684571

$$$$
