
     RDKit          3D

 42 45  0  0  1  0  0  0  0  0999 V2000
   46.0860   32.0770   45.3600 C   0  0  0  0  0  0  0  0  0  0  0  0
   45.8070   31.7370   46.7130 N   0  0  0  0  0  0  0  0  0  0  0  0
   46.2820   32.6140   47.7020 C   0  0  0  0  0  0  0  0  0  0  0  0
   47.6610   32.1900   48.2130 C   0  0  0  0  0  0  0  0  0  0  0  0
   47.4270   30.8780   48.9410 C   0  0  0  0  0  0  0  0  0  0  0  0
   46.9810   29.8950   47.8610 C   0  0  0  0  0  0  0  0  0  0  0  0
   45.8060   30.3820   47.0980 C   0  0  2  0  0  0  0  0  0  0  0  0
   45.4350   29.4250   46.0060 C   0  0  0  0  0  0  0  0  0  0  0  0
   44.0710   28.7150   46.1050 C   0  0  0  0  0  0  0  0  0  0  0  0
   45.3440   27.9630   46.2190 C   0  0  0  0  0  0  0  0  0  0  0  0
   46.5360   34.2360   43.9590 C   0  0  1  0  0  0  0  0  0  0  0  0
   45.1710   34.2400   44.3360 C   0  0  0  0  0  0  0  0  0  0  0  0
   46.1070   33.5630   45.2800 C   0  0  1  0  0  0  0  0  0  0  0  0
   46.3070   32.9140   41.8630 C   0  0  0  0  0  0  0  0  0  0  0  0
   47.1450   33.3570   42.9260 C   0  0  0  0  0  0  0  0  0  0  0  0
   48.4570   32.9580   42.9560 C   0  0  0  0  0  0  0  0  0  0  0  0
   48.8980   32.1460   41.9500 N   0  0  0  0  0  0  0  0  0  0  0  0
   48.0750   31.7340   40.9380 C   0  0  0  0  0  0  0  0  0  0  0  0
   46.7600   32.1090   40.8730 N   0  0  0  0  0  0  0  0  0  0  0  0
   47.0629   31.6688   45.0617 H   0  0  0  0  0  0  0  0  0  0  0  0
   45.3249   31.6583   44.6852 H   0  0  0  0  0  0  0  0  0  0  0  0
   46.3540   33.6262   47.2774 H   0  0  0  0  0  0  0  0  0  0  0  0
   45.5792   32.5930   48.5480 H   0  0  0  0  0  0  0  0  0  0  0  0
   48.3568   32.0468   47.3731 H   0  0  0  0  0  0  0  0  0  0  0  0
   48.1094   32.9509   48.8688 H   0  0  0  0  0  0  0  0  0  0  0  0
   48.3551   30.5311   49.4188 H   0  0  0  0  0  0  0  0  0  0  0  0
   46.6776   30.9790   49.7399 H   0  0  0  0  0  0  0  0  0  0  0  0
   47.8151   29.7377   47.1613 H   0  0  0  0  0  0  0  0  0  0  0  0
   46.6897   28.9595   48.3610 H   0  0  0  0  0  0  0  0  0  0  0  0
   44.9860   30.3895   47.8311 H   0  0  0  0  0  0  0  0  0  0  0  0
   45.9758   30.0515   45.2814 H   0  0  0  0  0  0  0  0  0  0  0  0
   43.4332   28.8615   46.9891 H   0  0  0  0  0  0  0  0  0  0  0  0
   43.1722   28.6479   45.4745 H   0  0  0  0  0  0  0  0  0  0  0  0
   45.6433   27.2776   45.4123 H   0  0  0  0  0  0  0  0  0  0  0  0
   45.7579   27.2756   46.9714 H   0  0  0  0  0  0  0  0  0  0  0  0
   47.1959   35.0482   43.6202 H   0  0  0  0  0  0  0  0  0  0  0  0
   44.6974   35.1871   44.6339 H   0  0  0  0  0  0  0  0  0  0  0  0
   44.2488   33.9187   43.8297 H   0  0  0  0  0  0  0  0  0  0  0  0
   46.3764   33.6435   46.3434 H   0  0  0  0  0  0  0  0  0  0  0  0
   45.2556   33.2369   41.8457 H   0  0  0  0  0  0  0  0  0  0  0  0
   49.1312   33.2810   43.7629 H   0  0  0  0  0  0  0  0  0  0  0  0
   48.4825   31.0811   40.1521 H   0  0  0  0  0  0  0  0  0  0  0  0
  1  2  1  0
  2  7  1  0
  2  3  1  0
  3  4  1  0
  4  5  1  0
  6  5  1  0
  7  6  1  0
  8  9  1  0
  8 10  1  0
  8  7  1  0
  9 10  1  0
 11 12  1  0
 11 13  1  0
 12 13  1  0
 13  1  1  0
 14 15  2  0
 15 16  1  0
 15 11  1  0
 17 16  2  0
 18 17  1  0
 19 18  2  0
 19 14  1  0
  1 20  1  0
  1 21  1  0
  3 22  1  0
  3 23  1  0
  4 24  1  0
  4 25  1  0
  5 26  1  0
  5 27  1  0
  6 28  1  0
  6 29  1  0
  7 30  1  1
  8 31  1  0
  9 32  1  0
  9 33  1  0
 10 34  1  0
 10 35  1  0
 11 36  1  1
 12 37  1  0
 12 38  1  0
 13 39  1  1
 14 40  1  0
 16 41  1  0
 18 42  1  0
M  ISO  8  20   8  21   8  22  13  23  13  24  13  25  13  26  13  27  13
M  ISO  8  28  13  29  13  30  13  31  13  32  13  33  13  34  13  35  13
M  ISO  7  36  13  37  13  38  13  39  13  40  14  41  14  42  14
M  END
>  <minimizedAffinity>  (1) 
-3.98706722

>  <minimizedRMSD>  (1) 
1.50686395

$$$$
