
     RDKit          3D

 48 51  0  0  1  0  0  0  0  0999 V2000
   48.6740   32.3770   40.4740 C   0  0  0  0  0  0  0  0  0  0  0  0
   49.8990   31.7330   40.7420 C   0  0  0  0  0  0  0  0  0  0  0  0
   50.7670   31.4730   39.6750 C   0  0  0  0  0  0  0  0  0  0  0  0
   50.3790   31.8580   38.4260 N   0  0  0  0  0  0  0  0  0  0  0  0
   49.2040   32.4690   38.2060 C   0  0  0  0  0  0  0  0  0  0  0  0
   48.3660   32.7240   39.2180 N   0  0  0  0  0  0  0  0  0  0  0  0
   47.7900   32.6340   41.6040 C   0  0  0  0  0  0  0  0  0  0  0  0
   48.2420   33.3690   42.6100 C   0  0  0  0  0  0  0  0  0  0  0  0
   47.4090   33.6740   43.7900 C   0  0  0  0  0  0  0  0  0  0  0  0
   44.7690   36.1340   43.4510 C   0  0  1  0  0  0  0  0  0  0  0  0
   46.0500   35.5630   42.8240 C   0  0  0  0  0  0  0  0  0  0  0  0
   46.0280   34.1830   43.3750 C   0  0  2  0  0  0  0  0  0  0  0  0
   45.1340   34.1250   44.4060 O   0  0  0  0  0  0  0  0  0  0  0  0
   44.7550   35.3870   44.7680 C   0  0  0  0  0  0  0  0  0  0  0  0
   44.9120   37.5090   43.6230 O   0  0  0  0  0  0  0  0  0  0  0  0
   48.7630   32.8940   36.8750 C   0  0  0  0  0  0  0  0  0  0  0  0
   48.2330   31.7510   36.0420 C   0  0  1  0  0  0  0  0  0  0  0  0
   47.5610   32.2450   34.7800 C   0  0  0  0  0  0  0  0  0  0  0  0
   48.5730   32.4400   33.7750 N   0  0  0  0  0  0  0  0  0  0  0  0
   49.4350   33.0060   32.7780 C   0  0  0  0  0  0  0  0  0  0  0  0
   49.3920   34.0690   32.1060 O   0  0  0  0  0  0  0  0  0  0  0  0
   50.3860   31.8660   32.8430 C   0  0  0  0  0  0  0  0  0  0  0  0
   49.2760   31.1800   33.5690 C   0  0  1  0  0  0  0  0  0  0  0  0
   49.6220   30.7840   35.3280 S   0  0  0  0  0  0  0  0  0  0  0  0
   47.3780   30.7850   36.7950 C   0  0  0  0  0  0  0  0  0  0  0  0
   50.1672   31.4409   41.7680 H   0  0  0  0  0  0  0  0  0  0  0  0
   51.7330   30.9731   39.8393 H   0  0  0  0  0  0  0  0  0  0  0  0
   46.7685   32.2262   41.6215 H   0  0  0  0  0  0  0  0  0  0  0  0
   49.2679   33.7633   42.5644 H   0  0  0  0  0  0  0  0  0  0  0  0
   47.2891   32.7602   44.3905 H   0  0  0  0  0  0  0  0  0  0  0  0
   47.9086   34.4599   44.3755 H   0  0  0  0  0  0  0  0  0  0  0  0
   43.8444   36.0123   42.8676 H   0  0  0  0  0  0  0  0  0  0  0  0
   46.9432   36.1163   43.1496 H   0  0  0  0  0  0  0  0  0  0  0  0
   46.0874   35.6181   41.7260 H   0  0  0  0  0  0  0  0  0  0  0  0
   45.7051   33.5047   42.5715 H   0  0  0  0  0  0  0  0  0  0  0  0
   45.4695   35.8261   45.4799 H   0  0  0  0  0  0  0  0  0  0  0  0
   43.7798   35.4193   45.2759 H   0  0  0  0  0  0  0  0  0  0  0  0
   44.9340   37.7201   44.5900 H   0  0  0  0  0  0  0  0  0  0  0  0
   47.9661   33.6433   36.9913 H   0  0  0  0  0  0  0  0  0  0  0  0
   49.6381   33.3072   36.3521 H   0  0  0  0  0  0  0  0  0  0  0  0
   46.8300   31.5003   34.4320 H   0  0  0  0  0  0  0  0  0  0  0  0
   47.0350   33.1909   34.9764 H   0  0  0  0  0  0  0  0  0  0  0  0
   50.6592   31.4241   31.8734 H   0  0  0  0  0  0  0  0  0  0  0  0
   51.4089   31.9507   33.2386 H   0  0  0  0  0  0  0  0  0  0  0  0
   48.9081   30.2730   33.0671 H   0  0  0  0  0  0  0  0  0  0  0  0
   47.5146   30.9394   37.8755 H   0  0  0  0  0  0  0  0  0  0  0  0
   46.3223   30.9474   36.5320 H   0  0  0  0  0  0  0  0  0  0  0  0
   47.6674   29.7569   36.5320 H   0  0  0  0  0  0  0  0  0  0  0  0
  1  2  2  0
  1  7  1  0
  3  2  1  0
  4  3  2  0
  5  4  1  0
  5  6  2  0
  6  1  1  0
  7  8  2  0
  8  9  1  0
 10 15  1  0
 10 14  1  0
 11 12  1  0
 11 10  1  0
 12  9  1  0
 12 13  1  0
 13 14  1  0
 16  5  1  0
 17 25  1  1
 17 16  1  0
 18 17  1  0
 19 18  1  0
 20 22  1  0
 20 19  1  0
 21 20  2  0
 23 22  1  0
 23 19  1  0
 23 24  1  0
 24 17  1  0
  2 26  1  0
  3 27  1  0
  7 28  1  0
  8 29  1  0
  9 30  1  0
  9 31  1  0
 10 32  1  6
 11 33  1  0
 11 34  1  0
 12 35  1  6
 14 36  1  0
 14 37  1  0
 15 38  1  0
 16 39  1  0
 16 40  1  0
 18 41  1  0
 18 42  1  0
 22 43  1  0
 22 44  1  0
 23 45  1  6
 25 46  1  0
 25 47  1  0
 25 48  1  0
M  ISO  8  26  14  27  14  30   8  31   8  32  13  33  13  34  13  35  13
M  ISO  8  36  13  37  13  38   3  39   8  40   8  41  13  42  13  43  13
M  ISO  5  44  13  45  13  46   8  47   8  48   8
M  END
>  <minimizedAffinity>  (1) 
-5.49112558

>  <minimizedRMSD>  (1) 
1.98710883

$$$$
