
     RDKit          3D

 37 39  0  0  1  0  0  0  0  0999 V2000
   46.0150   32.2710   45.4680 C   0  0  0  0  0  0  0  0  0  0  0  0
   45.7640   31.8530   46.8150 N   0  0  0  0  0  0  0  0  0  0  0  0
   46.4000   32.6140   47.8200 C   0  0  0  0  0  0  0  0  0  0  0  0
   47.7660   32.0390   48.2130 C   0  0  0  0  0  0  0  0  0  0  0  0
   47.4790   30.7070   48.8660 C   0  0  0  0  0  0  0  0  0  0  0  0
   46.8520   29.8450   47.7880 C   0  0  0  0  0  0  0  0  0  0  0  0
   45.7050   30.4780   47.0800 C   0  0  2  0  0  0  0  0  0  0  0  0
   45.5420   29.7850   45.7910 N   0  0  0  0  0  0  0  0  0  0  0  0
   45.9420   34.5340   44.1700 C   0  0  1  0  0  0  0  0  0  0  0  0
   44.9830   34.6010   45.2090 C   0  0  0  0  0  0  0  0  0  0  0  0
   46.1710   33.7470   45.4760 C   0  0  1  0  0  0  0  0  0  0  0  0
   44.4860   33.4510   42.4550 C   0  0  0  0  0  0  0  0  0  0  0  0
   45.8040   33.7350   42.9200 C   0  0  0  0  0  0  0  0  0  0  0  0
   46.8800   33.2640   42.2120 C   0  0  0  0  0  0  0  0  0  0  0  0
   46.6270   32.5360   41.0810 N   0  0  0  0  0  0  0  0  0  0  0  0
   45.3580   32.2770   40.6540 C   0  0  0  0  0  0  0  0  0  0  0  0
   44.2630   32.7320   41.3360 N   0  0  0  0  0  0  0  0  0  0  0  0
   45.1698   31.9869   44.8238 H   0  0  0  0  0  0  0  0  0  0  0  0
   46.9237   31.7893   45.0778 H   0  0  0  0  0  0  0  0  0  0  0  0
   46.5421   33.6399   47.4494 H   0  0  0  0  0  0  0  0  0  0  0  0
   45.7581   32.5930   48.7130 H   0  0  0  0  0  0  0  0  0  0  0  0
   48.3945   31.9008   47.3209 H   0  0  0  0  0  0  0  0  0  0  0  0
   48.3096   32.7136   48.8908 H   0  0  0  0  0  0  0  0  0  0  0  0
   48.4113   30.2493   49.2284 H   0  0  0  0  0  0  0  0  0  0  0  0
   46.8131   30.8171   49.7346 H   0  0  0  0  0  0  0  0  0  0  0  0
   47.6266   29.6082   47.0438 H   0  0  0  0  0  0  0  0  0  0  0  0
   46.4536   28.9529   48.2934 H   0  0  0  0  0  0  0  0  0  0  0  0
   44.8661   30.3759   47.7842 H   0  0  0  0  0  0  0  0  0  0  0  0
   45.3094   28.7959   45.9599 H   0  0  0  0  0  0  0  0  0  0  0  0
   44.7827   30.2297   45.2557 H   0  0  0  0  0  0  0  0  0  0  0  0
   46.4334   35.3241   43.5833 H   0  0  0  0  0  0  0  0  0  0  0  0
   44.8591   35.5406   45.7674 H   0  0  0  0  0  0  0  0  0  0  0  0
   43.8993   34.4161   45.2463 H   0  0  0  0  0  0  0  0  0  0  0  0
   46.9550   33.6798   46.2447 H   0  0  0  0  0  0  0  0  0  0  0  0
   43.6256   33.8297   43.0261 H   0  0  0  0  0  0  0  0  0  0  0  0
   47.9102   33.4643   42.5416 H   0  0  0  0  0  0  0  0  0  0  0  0
   45.2111   31.6869   39.7374 H   0  0  0  0  0  0  0  0  0  0  0  0
  1 11  1  0
  1  2  1  0
  2  7  1  0
  2  3  1  0
  3  4  1  0
  4  5  1  0
  6  5  1  0
  7  6  1  0
  8  7  1  0
  9 10  1  0
  9 11  1  0
 10 11  1  0
 12 13  2  0
 13  9  1  0
 14 13  1  0
 15 14  2  0
 16 15  1  0
 16 17  2  0
 17 12  1  0
  1 18  1  0
  1 19  1  0
  3 20  1  0
  3 21  1  0
  4 22  1  0
  4 23  1  0
  5 24  1  0
  5 25  1  0
  6 26  1  0
  6 27  1  0
  7 28  1  1
  8 29  1  0
  8 30  1  0
  9 31  1  6
 10 32  1  0
 10 33  1  0
 11 34  1  1
 12 35  1  0
 14 36  1  0
 16 37  1  0
M  ISO  8  18   8  19   8  20  13  21  13  22  13  23  13  24  13  25  13
M  ISO  8  26  13  27  13  28  13  29   5  30   5  31  13  32  13  33  13
M  ISO  4  34  13  35  14  36  14  37  14
M  END
>  <minimizedAffinity>  (1) 
-3.63630104

>  <minimizedRMSD>  (1) 
0.150680125

$$$$
