
     RDKit          3D

 45 48  0  0  1  0  0  0  0  0999 V2000
   49.6290   32.0930   41.3980 C   0  0  0  0  0  0  0  0  0  0  0  0
   50.9830   31.7880   41.5080 C   0  0  0  0  0  0  0  0  0  0  0  0
   51.7150   31.5740   40.3430 C   0  0  0  0  0  0  0  0  0  0  0  0
   51.0500   31.6780   39.1530 N   0  0  0  0  0  0  0  0  0  0  0  0
   49.7450   31.9730   39.0640 C   0  0  0  0  0  0  0  0  0  0  0  0
   49.0960   32.1670   40.2100 N   0  0  0  0  0  0  0  0  0  0  0  0
   49.2850   32.0210   37.6870 C   0  0  0  0  0  0  0  0  0  0  0  0
   48.0960   32.6320   37.3550 C   0  0  0  0  0  0  0  0  0  0  0  0
   47.6110   32.7090   36.0690 C   0  0  0  0  0  0  0  0  0  0  0  0
   48.3080   32.1630   35.0140 C   0  0  0  0  0  0  0  0  0  0  0  0
   49.4890   31.5480   35.2950 C   0  0  0  0  0  0  0  0  0  0  0  0
   50.1970   30.9970   34.2480 C   0  0  0  0  0  0  0  0  0  0  0  0
   51.4020   30.3560   34.4490 C   0  0  0  0  0  0  0  0  0  0  0  0
   51.8750   30.2910   35.7590 C   0  0  0  0  0  0  0  0  0  0  0  0
   51.1330   30.8550   36.7710 C   0  0  0  0  0  0  0  0  0  0  0  0
   49.9310   31.4980   36.5950 C   0  0  0  0  0  0  0  0  0  0  0  0
   48.8690   32.2850   42.6260 C   0  0  0  0  0  0  0  0  0  0  0  0
   48.0590   33.3140   42.7370 C   0  0  0  0  0  0  0  0  0  0  0  0
   47.2640   33.5510   43.9680 C   0  0  0  0  0  0  0  0  0  0  0  0
   44.6860   36.0620   43.5700 C   0  0  1  0  0  0  0  0  0  0  0  0
   45.8770   35.3700   42.8940 C   0  0  0  0  0  0  0  0  0  0  0  0
   45.8540   34.0550   43.6060 C   0  0  2  0  0  0  0  0  0  0  0  0
   45.0490   34.1400   44.7140 O   0  0  0  0  0  0  0  0  0  0  0  0
   44.7510   35.4570   44.9530 C   0  0  0  0  0  0  0  0  0  0  0  0
   44.9090   37.4480   43.5850 O   0  0  0  0  0  0  0  0  0  0  0  0
   51.4644   31.7176   42.4946 H   0  0  0  0  0  0  0  0  0  0  0  0
   52.7871   31.3306   40.3787 H   0  0  0  0  0  0  0  0  0  0  0  0
   47.5009   33.0835   38.1624 H   0  0  0  0  0  0  0  0  0  0  0  0
   46.6522   33.2143   35.8811 H   0  0  0  0  0  0  0  0  0  0  0  0
   47.9250   32.2217   33.9845 H   0  0  0  0  0  0  0  0  0  0  0  0
   49.7914   31.0702   33.2281 H   0  0  0  0  0  0  0  0  0  0  0  0
   51.9648   29.9156   33.6127 H   0  0  0  0  0  0  0  0  0  0  0  0
   52.8310   29.7942   35.9809 H   0  0  0  0  0  0  0  0  0  0  0  0
   51.5302   30.7864   37.7945 H   0  0  0  0  0  0  0  0  0  0  0  0
   48.9727   31.5716   43.4569 H   0  0  0  0  0  0  0  0  0  0  0  0
   47.9678   34.0175   41.8963 H   0  0  0  0  0  0  0  0  0  0  0  0
   47.1793   32.6103   44.5318 H   0  0  0  0  0  0  0  0  0  0  0  0
   47.7700   34.3129   44.5792 H   0  0  0  0  0  0  0  0  0  0  0  0
   43.7082   35.9262   43.0847 H   0  0  0  0  0  0  0  0  0  0  0  0
   45.7191   35.2508   41.8119 H   0  0  0  0  0  0  0  0  0  0  0  0
   46.8292   35.9164   42.9623 H   0  0  0  0  0  0  0  0  0  0  0  0
   45.4351   33.3073   42.9164 H   0  0  0  0  0  0  0  0  0  0  0  0
   45.5382   35.9351   45.5544 H   0  0  0  0  0  0  0  0  0  0  0  0
   43.8186   35.5883   45.5217 H   0  0  0  0  0  0  0  0  0  0  0  0
   44.9598   37.7639   44.5219 H   0  0  0  0  0  0  0  0  0  0  0  0
  1  2  2  0
  1 17  1  0
  3  2  1  0
  4  3  2  0
  5  4  1  0
  5  6  2  0
  6  1  1  0
  7  5  1  0
  8  7  2  0
  9  8  1  0
 10 11  1  0
 10  9  2  0
 11 16  2  0
 12 13  2  0
 12 11  1  0
 13 14  1  0
 14 15  2  0
 16 15  1  0
 16  7  1  0
 17 18  2  0
 18 19  1  0
 20 25  1  0
 20 24  1  0
 21 20  1  0
 21 22  1  0
 22 19  1  0
 22 23  1  0
 23 24  1  0
  2 26  1  0
  3 27  1  0
  8 28  1  0
  9 29  1  0
 10 30  1  0
 12 31  1  0
 13 32  1  0
 14 33  1  0
 15 34  1  0
 17 35  1  0
 18 36  1  0
 19 37  1  0
 19 38  1  0
 20 39  1  6
 21 40  1  0
 21 41  1  0
 22 42  1  6
 24 43  1  0
 24 44  1  0
 25 45  1  0
M  ISO  8  26  14  27  14  28  14  29  14  30  14  31  14  32  14  33  14
M  ISO  8  34  14  37   8  38   8  39  13  40  13  41  13  42  13  43  13
M  ISO  2  44  13  45   3
M  END
>  <minimizedAffinity>  (1) 
-5.43602848

>  <minimizedRMSD>  (1) 
0.836043119

$$$$
