
     RDKit          3D

 41 43  0  0  1  0  0  0  0  0999 V2000
   48.9300   33.3240   42.7830 C   0  0  0  0  0  0  0  0  0  0  0  0
   47.7640   32.8570   43.2190 C   0  0  0  0  0  0  0  0  0  0  0  0
   49.5100   32.7350   41.5830 C   0  0  0  0  0  0  0  0  0  0  0  0
   50.8490   32.2760   41.6820 C   0  0  0  0  0  0  0  0  0  0  0  0
   51.4380   31.7030   40.5450 C   0  0  0  0  0  0  0  0  0  0  0  0
   50.7060   31.6160   39.4130 N   0  0  0  0  0  0  0  0  0  0  0  0
   49.4260   32.0710   39.3690 C   0  0  0  0  0  0  0  0  0  0  0  0
   48.8570   32.6150   40.4380 N   0  0  0  0  0  0  0  0  0  0  0  0
   49.3420   32.5350   36.9280 C   0  0  1  0  0  0  0  0  0  0  0  0
   48.6420   31.9670   38.1190 C   0  0  2  0  0  0  0  0  0  0  0  0
   47.3720   32.7790   38.1500 C   0  0  0  0  0  0  0  0  0  0  0  0
   47.1300   33.2670   36.8960 O   0  0  0  0  0  0  0  0  0  0  0  0
   48.1370   32.8910   36.0500 C   0  0  0  0  0  0  0  0  0  0  0  0
   49.9910   33.7370   37.1950 O   0  0  0  0  0  0  0  0  0  0  0  0
   47.1060   33.3960   44.4250 C   0  0  0  0  0  0  0  0  0  0  0  0
   44.5460   35.9240   43.9940 C   0  0  1  0  0  0  0  0  0  0  0  0
   45.7140   35.1780   43.3280 C   0  0  0  0  0  0  0  0  0  0  0  0
   45.6930   33.9120   44.1000 C   0  0  2  0  0  0  0  0  0  0  0  0
   44.9530   34.0880   45.2410 O   0  0  0  0  0  0  0  0  0  0  0  0
   44.6960   35.4240   45.4120 C   0  0  0  0  0  0  0  0  0  0  0  0
   44.7670   37.3020   43.8960 O   0  0  0  0  0  0  0  0  0  0  0  0
   49.4452   34.1366   43.3161 H   0  0  0  0  0  0  0  0  0  0  0  0
   47.2745   32.0435   42.6635 H   0  0  0  0  0  0  0  0  0  0  0  0
   51.4096   32.3669   42.6241 H   0  0  0  0  0  0  0  0  0  0  0  0
   52.4733   31.3326   40.5746 H   0  0  0  0  0  0  0  0  0  0  0  0
   50.1006   31.8465   36.5274 H   0  0  0  0  0  0  0  0  0  0  0  0
   48.4707   30.8830   38.0442 H   0  0  0  0  0  0  0  0  0  0  0  0
   46.5334   32.1416   38.4668 H   0  0  0  0  0  0  0  0  0  0  0  0
   47.4782   33.6117   38.8609 H   0  0  0  0  0  0  0  0  0  0  0  0
   47.8280   32.0168   35.4582 H   0  0  0  0  0  0  0  0  0  0  0  0
   48.3854   33.7000   35.3473 H   0  0  0  0  0  0  0  0  0  0  0  0
   50.0598   33.8644   38.1744 H   0  0  0  0  0  0  0  0  0  0  0  0
   47.0330   32.6001   45.1808 H   0  0  0  0  0  0  0  0  0  0  0  0
   47.7062   34.2357   44.8053 H   0  0  0  0  0  0  0  0  0  0  0  0
   43.5463   35.7580   43.5661 H   0  0  0  0  0  0  0  0  0  0  0  0
   45.5292   35.0052   42.2575 H   0  0  0  0  0  0  0  0  0  0  0  0
   46.6744   35.7140   43.3479 H   0  0  0  0  0  0  0  0  0  0  0  0
   45.2233   33.1384   43.4748 H   0  0  0  0  0  0  0  0  0  0  0  0
   45.5317   35.9255   45.9220 H   0  0  0  0  0  0  0  0  0  0  0  0
   43.8121   35.6195   46.0370 H   0  0  0  0  0  0  0  0  0  0  0  0
   44.8295   37.6916   44.8040 H   0  0  0  0  0  0  0  0  0  0  0  0
  1  2  2  0
  2 15  1  0
  3  4  2  0
  3  1  1  0
  5  4  1  0
  6  5  2  0
  7  6  1  0
  7  8  2  0
  8  3  1  0
  9 14  1  0
  9 10  1  0
 10 11  1  0
 10  7  1  0
 12 11  1  0
 13 12  1  0
 13  9  1  0
 16 20  1  0
 17 16  1  0
 17 18  1  0
 18 15  1  0
 18 19  1  0
 19 20  1  0
 21 16  1  0
  1 22  1  0
  2 23  1  0
  4 24  1  0
  5 25  1  0
  9 26  1  6
 10 27  1  6
 11 28  1  0
 11 29  1  0
 13 30  1  0
 13 31  1  0
 14 32  1  0
 15 33  1  0
 15 34  1  0
 16 35  1  6
 17 36  1  0
 17 37  1  0
 18 38  1  6
 20 39  1  0
 20 40  1  0
 21 41  1  0
M  ISO  8  24  14  25  14  26  13  27  13  28  13  29  13  30  13  31  13
M  ISO  8  32   3  33   8  34   8  35  13  36  13  37  13  38  13  39  13
M  ISO  2  40  13  41   3
M  END
>  <minimizedAffinity>  (1) 
-5.42463398

>  <minimizedRMSD>  (1) 
0.689968407

$$$$
