
     RDKit          3D

 51 54  0  0  1  0  0  0  0  0999 V2000
   45.6620   35.4780   43.3390 C   0  0  1  0  0  0  0  0  0  0  0  0
   44.5530   34.8620   43.9240 C   0  0  0  0  0  0  0  0  0  0  0  0
   45.8210   34.6490   44.6460 C   0  0  1  0  0  0  0  0  0  0  0  0
   45.7530   34.1590   41.2290 C   0  0  0  0  0  0  0  0  0  0  0  0
   46.4270   34.9900   42.1500 C   0  0  0  0  0  0  0  0  0  0  0  0
   47.7280   35.3060   41.9210 C   0  0  0  0  0  0  0  0  0  0  0  0
   48.3180   34.8020   40.8080 N   0  0  0  0  0  0  0  0  0  0  0  0
   47.6830   34.0120   39.9280 C   0  0  0  0  0  0  0  0  0  0  0  0
   46.3840   33.6800   40.1330 N   0  0  0  0  0  0  0  0  0  0  0  0
   49.0910   32.3430   38.7560 C   0  0  0  0  0  0  0  0  0  0  0  0
   48.2610   33.4420   38.7190 C   0  0  0  0  0  0  0  0  0  0  0  0
   48.0070   33.9760   37.4500 C   0  0  0  0  0  0  0  0  0  0  0  0
   48.5200   33.4850   36.2870 C   0  0  0  0  0  0  0  0  0  0  0  0
   49.3490   32.3900   36.3170 C   0  0  0  0  0  0  0  0  0  0  0  0
   49.6030   31.8590   37.5470 C   0  0  0  0  0  0  0  0  0  0  0  0
   49.5250   31.5370   40.2420 S   0  0  0  0  0  0  0  0  0  0  0  0
   48.2930   31.1730   41.0200 O   0  0  0  0  0  0  0  0  0  0  0  0
   50.4370   32.3800   41.1040 O   0  0  0  0  0  0  0  0  0  0  0  0
   46.5010   33.3340   44.5950 C   0  0  0  0  0  0  0  0  0  0  0  0
   45.8990   32.5080   45.5780 N   0  0  0  0  0  0  0  0  0  0  0  0
   45.9150   32.9440   46.9060 C   0  0  0  0  0  0  0  0  0  0  0  0
   47.1710   32.4540   47.6570 C   0  0  0  0  0  0  0  0  0  0  0  0
   47.0240   30.9520   47.7740 C   0  0  0  0  0  0  0  0  0  0  0  0
   46.9540   30.4120   46.3710 C   0  0  0  0  0  0  0  0  0  0  0  0
   45.9910   31.1140   45.4550 C   0  0  2  0  0  0  0  0  0  0  0  0
   46.3380   30.6860   44.0340 C   0  0  0  0  0  0  0  0  0  0  0  0
   45.8044   36.5053   42.9725 H   0  0  0  0  0  0  0  0  0  0  0  0
   43.7751   35.4888   44.3845 H   0  0  0  0  0  0  0  0  0  0  0  0
   43.7948   34.1681   43.5319 H   0  0  0  0  0  0  0  0  0  0  0  0
   46.1977   34.8066   45.6674 H   0  0  0  0  0  0  0  0  0  0  0  0
   44.6992   33.8973   41.4054 H   0  0  0  0  0  0  0  0  0  0  0  0
   48.2859   35.9505   42.6163 H   0  0  0  0  0  0  0  0  0  0  0  0
   47.3469   34.8537   37.3874 H   0  0  0  0  0  0  0  0  0  0  0  0
   48.2714   33.9634   35.3282 H   0  0  0  0  0  0  0  0  0  0  0  0
   49.7836   31.9653   35.4001 H   0  0  0  0  0  0  0  0  0  0  0  0
   50.2630   30.9802   37.5925 H   0  0  0  0  0  0  0  0  0  0  0  0
   50.2064   30.4001   39.8955 H   0  0  0  0  0  0  0  0  0  0  0  0
   46.3768   32.8847   43.5987 H   0  0  0  0  0  0  0  0  0  0  0  0
   47.5783   33.4456   44.7876 H   0  0  0  0  0  0  0  0  0  0  0  0
   45.8989   34.0438   46.9195 H   0  0  0  0  0  0  0  0  0  0  0  0
   45.0312   32.5284   47.4121 H   0  0  0  0  0  0  0  0  0  0  0  0
   48.0790   32.7067   47.0898 H   0  0  0  0  0  0  0  0  0  0  0  0
   47.2623   32.9293   48.6448 H   0  0  0  0  0  0  0  0  0  0  0  0
   47.8908   30.5265   48.3009 H   0  0  0  0  0  0  0  0  0  0  0  0
   46.1219   30.6867   48.3448 H   0  0  0  0  0  0  0  0  0  0  0  0
   47.9583   30.4867   45.9286 H   0  0  0  0  0  0  0  0  0  0  0  0
   46.5857   29.3796   46.4627 H   0  0  0  0  0  0  0  0  0  0  0  0
   44.9783   30.8035   45.7518 H   0  0  0  0  0  0  0  0  0  0  0  0
   47.0304   29.8319   44.0671 H   0  0  0  0  0  0  0  0  0  0  0  0
   45.4193   30.3930   43.5047 H   0  0  0  0  0  0  0  0  0  0  0  0
   46.8147   31.5242   43.5047 H   0  0  0  0  0  0  0  0  0  0  0  0
  1  2  1  0
  1  3  1  0
  2  3  1  0
  4  5  2  0
  5  1  1  0
  6  5  1  0
  7  6  2  0
  8  9  2  0
  8  7  1  0
  9  4  1  0
 10 16  1  0
 11 10  2  0
 11  8  1  0
 12 11  1  0
 13 14  1  0
 13 12  2  0
 14 15  2  0
 15 10  1  0
 16 17  2  0
 16 18  2  0
 19  3  1  0
 19 20  1  0
 20 21  1  0
 21 22  1  0
 22 23  1  0
 24 23  1  0
 25 20  1  0
 25 24  1  0
 26 25  1  0
  1 27  1  1
  2 28  1  0
  2 29  1  0
  3 30  1  1
  4 31  1  0
  6 32  1  0
 12 33  1  0
 13 34  1  0
 14 35  1  0
 15 36  1  0
 16 37  1  0
 19 38  1  0
 19 39  1  0
 21 40  1  0
 21 41  1  0
 22 42  1  0
 22 43  1  0
 23 44  1  0
 23 45  1  0
 24 46  1  0
 24 47  1  0
 25 48  1  1
 26 49  1  0
 26 50  1  0
 26 51  1  0
M  ISO  8  27  13  28  13  29  13  30  13  31  14  32  14  33  14  34  14
M  ISO  8  35  14  36  14  37  11  38   8  39   8  40  13  41  13  42  13
M  ISO  8  43  13  44  13  45  13  46  13  47  13  48  13  49   8  50   8
M  ISO  1  51   8
M  END
>  <minimizedAffinity>  (1) 
-5.27488518

>  <minimizedRMSD>  (1) 
2.96271205

$$$$
