
     RDKit          3D

 48 51  0  0  1  0  0  0  0  0999 V2000
   45.9010   35.3750   42.8760 C   0  0  1  0  0  0  0  0  0  0  0  0
   44.7670   34.9300   43.5600 C   0  0  0  0  0  0  0  0  0  0  0  0
   46.0460   34.5650   44.1960 C   0  0  1  0  0  0  0  0  0  0  0  0
   45.6370   34.0310   40.7880 C   0  0  0  0  0  0  0  0  0  0  0  0
   46.5110   34.7610   41.6580 C   0  0  0  0  0  0  0  0  0  0  0  0
   47.8320   34.8660   41.3550 C   0  0  0  0  0  0  0  0  0  0  0  0
   48.2640   34.2500   40.2040 N   0  0  0  0  0  0  0  0  0  0  0  0
   47.4310   33.5660   39.3920 C   0  0  0  0  0  0  0  0  0  0  0  0
   46.0870   33.4340   39.6610 N   0  0  0  0  0  0  0  0  0  0  0  0
   47.9600   35.0140   37.1190 F   0  0  0  0  0  0  0  0  0  0  0  0
   48.2190   33.6690   37.0600 C   0  0  0  0  0  0  0  0  0  0  0  0
   47.9530   32.9460   38.2010 C   0  0  0  0  0  0  0  0  0  0  0  0
   48.1990   31.5910   38.1820 C   0  0  0  0  0  0  0  0  0  0  0  0
   48.7030   30.9790   37.0340 C   0  0  0  0  0  0  0  0  0  0  0  0
   48.9620   31.7390   35.8960 C   0  0  0  0  0  0  0  0  0  0  0  0
   48.7150   33.0830   35.9240 C   0  0  0  0  0  0  0  0  0  0  0  0
   46.5380   33.1650   44.1390 C   0  0  0  0  0  0  0  0  0  0  0  0
   45.8960   32.4550   45.1880 N   0  0  0  0  0  0  0  0  0  0  0  0
   45.8950   33.0220   46.4670 C   0  0  0  0  0  0  0  0  0  0  0  0
   47.1190   32.5590   47.2840 C   0  0  0  0  0  0  0  0  0  0  0  0
   46.9180   31.0950   47.5540 C   0  0  0  0  0  0  0  0  0  0  0  0
   46.8780   30.4180   46.1950 C   0  0  0  0  0  0  0  0  0  0  0  0
   45.9500   31.0560   45.2040 C   0  0  2  0  0  0  0  0  0  0  0  0
   46.3090   30.4820   43.8410 C   0  0  0  0  0  0  0  0  0  0  0  0
   46.1465   36.3642   42.4621 H   0  0  0  0  0  0  0  0  0  0  0  0
   44.1169   35.6678   44.0529 H   0  0  0  0  0  0  0  0  0  0  0  0
   43.8954   34.3360   43.2477 H   0  0  0  0  0  0  0  0  0  0  0  0
   46.5166   34.6954   45.1817 H   0  0  0  0  0  0  0  0  0  0  0  0
   44.5700   33.9541   41.0441 H   0  0  0  0  0  0  0  0  0  0  0  0
   48.5263   35.4205   42.0034 H   0  0  0  0  0  0  0  0  0  0  0  0
   47.9966   30.9868   39.0787 H   0  0  0  0  0  0  0  0  0  0  0  0
   48.8958   29.8961   37.0277 H   0  0  0  0  0  0  0  0  0  0  0  0
   49.3599   31.2641   34.9871 H   0  0  0  0  0  0  0  0  0  0  0  0
   48.9147   33.6961   35.0328 H   0  0  0  0  0  0  0  0  0  0  0  0
   46.2842   32.7149   43.1679 H   0  0  0  0  0  0  0  0  0  0  0  0
   47.6315   33.1288   44.2530 H   0  0  0  0  0  0  0  0  0  0  0  0
   45.9197   34.1178   46.3736 H   0  0  0  0  0  0  0  0  0  0  0  0
   44.9838   32.6976   46.9909 H   0  0  0  0  0  0  0  0  0  0  0  0
   48.0428   32.7165   46.7080 H   0  0  0  0  0  0  0  0  0  0  0  0
   47.2127   33.1285   48.2204 H   0  0  0  0  0  0  0  0  0  0  0  0
   47.7512   30.6993   48.1533 H   0  0  0  0  0  0  0  0  0  0  0  0
   45.9927   30.9141   48.1206 H   0  0  0  0  0  0  0  0  0  0  0  0
   47.8939   30.4353   45.7735 H   0  0  0  0  0  0  0  0  0  0  0  0
   46.4978   29.4001   46.3660 H   0  0  0  0  0  0  0  0  0  0  0  0
   44.9239   30.8086   45.5139 H   0  0  0  0  0  0  0  0  0  0  0  0
   46.8880   29.5562   43.9740 H   0  0  0  0  0  0  0  0  0  0  0  0
   45.3878   30.2612   43.2819 H   0  0  0  0  0  0  0  0  0  0  0  0
   46.9107   31.2137   43.2819 H   0  0  0  0  0  0  0  0  0  0  0  0
  1  2  1  0
  1  3  1  0
  2  3  1  0
  4  5  2  0
  5  1  1  0
  6  5  1  0
  7  6  2  0
  8  9  2  0
  8  7  1  0
  9  4  1  0
 11 10  1  0
 11 12  2  0
 12  8  1  0
 13 12  1  0
 14 13  2  0
 15 16  2  0
 15 14  1  0
 16 11  1  0
 17  3  1  0
 17 18  1  0
 18 23  1  0
 18 19  1  0
 19 20  1  0
 20 21  1  0
 22 21  1  0
 23 22  1  0
 24 23  1  0
  1 25  1  1
  2 26  1  0
  2 27  1  0
  3 28  1  1
  4 29  1  0
  6 30  1  0
 13 31  1  0
 14 32  1  0
 15 33  1  0
 16 34  1  0
 17 35  1  0
 17 36  1  0
 19 37  1  0
 19 38  1  0
 20 39  1  0
 20 40  1  0
 21 41  1  0
 21 42  1  0
 22 43  1  0
 22 44  1  0
 23 45  1  1
 24 46  1  0
 24 47  1  0
 24 48  1  0
M  ISO  8  25  13  26  13  27  13  28  13  29  14  30  14  31  14  32  14
M  ISO  8  33  14  34  14  35   8  36   8  37  13  38  13  39  13  40  13
M  ISO  8  41  13  42  13  43  13  44  13  45  13  46   8  47   8  48   8
M  END
>  <minimizedAffinity>  (1) 
-5.25950193

>  <minimizedRMSD>  (1) 
2.91802001

$$$$
