
     RDKit          3D

 52 55  0  0  1  0  0  0  0  0999 V2000
   45.5900   35.3820   44.0600 C   0  0  1  0  0  0  0  0  0  0  0  0
   44.4690   34.9660   44.7810 C   0  0  0  0  0  0  0  0  0  0  0  0
   45.7430   34.3790   45.2400 C   0  0  1  0  0  0  0  0  0  0  0  0
   45.0230   34.2650   41.8940 C   0  0  0  0  0  0  0  0  0  0  0  0
   46.0220   34.8880   42.7140 C   0  0  0  0  0  0  0  0  0  0  0  0
   47.2970   35.0030   42.2580 C   0  0  0  0  0  0  0  0  0  0  0  0
   47.5550   34.5000   41.0030 N   0  0  0  0  0  0  0  0  0  0  0  0
   46.6060   33.9180   40.2420 C   0  0  0  0  0  0  0  0  0  0  0  0
   45.3180   33.7840   40.6650 N   0  0  0  0  0  0  0  0  0  0  0  0
   46.9710   33.4290   38.9570 N   0  0  0  0  0  0  0  0  0  0  0  0
   48.3450   33.5740   38.5120 C   0  0  0  0  0  0  0  0  0  0  0  0
   48.2550   34.3980   37.2210 C   0  0  0  0  0  0  0  0  0  0  0  0
   47.4970   33.6050   36.2980 N   0  0  0  0  0  0  0  0  0  0  0  0
   46.1460   33.3370   36.6850 C   0  0  0  0  0  0  0  0  0  0  0  0
   45.9990   32.7920   38.0890 C   0  0  0  0  0  0  0  0  0  0  0  0
   46.0590   32.9600   44.9480 C   0  0  0  0  0  0  0  0  0  0  0  0
   45.7450   32.2110   46.1120 N   0  0  0  0  0  0  0  0  0  0  0  0
   46.0000   32.7910   47.3590 C   0  0  0  0  0  0  0  0  0  0  0  0
   47.4110   32.4490   47.8650 C   0  0  0  0  0  0  0  0  0  0  0  0
   47.4160   30.9730   48.1550 C   0  0  0  0  0  0  0  0  0  0  0  0
   47.1140   30.2770   46.8430 C   0  0  0  0  0  0  0  0  0  0  0  0
   45.9240   30.8210   46.1050 C   0  0  2  0  0  0  0  0  0  0  0  0
   45.9970   30.2620   44.6920 C   0  0  0  0  0  0  0  0  0  0  0  0
   45.9192   36.3886   43.7627 H   0  0  0  0  0  0  0  0  0  0  0  0
   43.9510   35.6898   45.4274 H   0  0  0  0  0  0  0  0  0  0  0  0
   43.5117   34.5189   44.4749 H   0  0  0  0  0  0  0  0  0  0  0  0
   46.3018   34.3153   46.1854 H   0  0  0  0  0  0  0  0  0  0  0  0
   43.9943   34.1766   42.2734 H   0  0  0  0  0  0  0  0  0  0  0  0
   48.0850   35.4754   42.8628 H   0  0  0  0  0  0  0  0  0  0  0  0
   48.9433   34.1032   39.2683 H   0  0  0  0  0  0  0  0  0  0  0  0
   48.8335   32.6018   38.3504 H   0  0  0  0  0  0  0  0  0  0  0  0
   47.7450   35.3537   37.4123 H   0  0  0  0  0  0  0  0  0  0  0  0
   49.2531   34.6347   36.8237 H   0  0  0  0  0  0  0  0  0  0  0  0
   47.9798   32.7024   36.1834 H   0  0  0  0  0  0  0  0  0  0  0  0
   45.5754   34.2750   36.6177 H   0  0  0  0  0  0  0  0  0  0  0  0
   45.7704   32.5596   36.0034 H   0  0  0  0  0  0  0  0  0  0  0  0
   44.9843   33.0002   38.4592 H   0  0  0  0  0  0  0  0  0  0  0  0
   46.1696   31.7053   38.0812 H   0  0  0  0  0  0  0  0  0  0  0  0
   45.4558   32.6068   44.0987 H   0  0  0  0  0  0  0  0  0  0  0  0
   47.1203   32.8432   44.6835 H   0  0  0  0  0  0  0  0  0  0  0  0
   45.9079   33.8835   47.2700 H   0  0  0  0  0  0  0  0  0  0  0  0
   45.2704   32.3923   48.0793 H   0  0  0  0  0  0  0  0  0  0  0  0
   48.1589   32.6872   47.0944 H   0  0  0  0  0  0  0  0  0  0  0  0
   47.6628   33.0313   48.7636 H   0  0  0  0  0  0  0  0  0  0  0  0
   48.4018   30.6629   48.5318 H   0  0  0  0  0  0  0  0  0  0  0  0
   46.6719   30.7154   48.9231 H   0  0  0  0  0  0  0  0  0  0  0  0
   47.9953   30.3748   46.1921 H   0  0  0  0  0  0  0  0  0  0  0  0
   46.8750   29.2326   47.0923 H   0  0  0  0  0  0  0  0  0  0  0  0
   45.0271   30.4909   46.6496 H   0  0  0  0  0  0  0  0  0  0  0  0
   46.1393   29.1721   44.7358 H   0  0  0  0  0  0  0  0  0  0  0  0
   45.0616   30.4885   44.1593 H   0  0  0  0  0  0  0  0  0  0  0  0
   46.8428   30.7211   44.1593 H   0  0  0  0  0  0  0  0  0  0  0  0
  1  2  1  0
  1  3  1  0
  2  3  1  0
  4  5  2  0
  5  1  1  0
  6  5  1  0
  7  6  2  0
  8  9  2  0
  8  7  1  0
  9  4  1  0
 10  8  1  0
 11 10  1  0
 12 11  1  0
 13 14  1  0
 13 12  1  0
 14 15  1  0
 15 10  1  0
 16  3  1  0
 16 17  1  0
 17 18  1  0
 18 19  1  0
 19 20  1  0
 21 20  1  0
 22 17  1  0
 22 21  1  0
 23 22  1  0
  1 24  1  1
  2 25  1  0
  2 26  1  0
  3 27  1  1
  4 28  1  0
  6 29  1  0
 11 30  1  0
 11 31  1  0
 12 32  1  0
 12 33  1  0
 13 34  1  0
 14 35  1  0
 14 36  1  0
 15 37  1  0
 15 38  1  0
 16 39  1  0
 16 40  1  0
 18 41  1  0
 18 42  1  0
 19 43  1  0
 19 44  1  0
 20 45  1  0
 20 46  1  0
 21 47  1  0
 21 48  1  0
 22 49  1  1
 23 50  1  0
 23 51  1  0
 23 52  1  0
M  ISO  8  24  13  25  13  26  13  27  13  28  14  29  14  30  13  31  13
M  ISO  8  32  13  33  13  34   5  35  13  36  13  37  13  38  13  39   8
M  ISO  8  40   8  41  13  42  13  43  13  44  13  45  13  46  13  47  13
M  ISO  5  48  13  49  13  50   8  51   8  52   8
M  END
>  <minimizedAffinity>  (1) 
-5.17250729

>  <minimizedRMSD>  (1) 
2.09973383

$$$$
