
     RDKit          3D

 48 51  0  0  1  0  0  0  0  0999 V2000
   45.7050   35.4610   43.3190 C   0  0  1  0  0  0  0  0  0  0  0  0
   44.5800   34.9090   43.9340 C   0  0  0  0  0  0  0  0  0  0  0  0
   45.8530   34.6130   44.6160 C   0  0  1  0  0  0  0  0  0  0  0  0
   45.6260   34.2010   41.1620 C   0  0  0  0  0  0  0  0  0  0  0  0
   46.4090   34.9410   42.1060 C   0  0  0  0  0  0  0  0  0  0  0  0
   47.7340   35.1390   41.8790 C   0  0  0  0  0  0  0  0  0  0  0  0
   48.2620   34.6060   40.7280 N   0  0  0  0  0  0  0  0  0  0  0  0
   47.5120   33.9100   39.8480 C   0  0  0  0  0  0  0  0  0  0  0  0
   46.1660   33.6840   40.0360 N   0  0  0  0  0  0  0  0  0  0  0  0
   48.1630   33.3830   38.6530 C   0  0  0  0  0  0  0  0  0  0  0  0
   49.0570   32.3370   38.7340 C   0  0  0  0  0  0  0  0  0  0  0  0
   49.6510   31.8660   37.5840 C   0  0  0  0  0  0  0  0  0  0  0  0
   49.3420   32.4490   36.3660 C   0  0  0  0  0  0  0  0  0  0  0  0
   48.4530   33.4860   36.2950 C   0  0  0  0  0  0  0  0  0  0  0  0
   47.8500   33.9670   37.4490 C   0  0  0  0  0  0  0  0  0  0  0  0
   46.4500   33.2570   44.5290 C   0  0  0  0  0  0  0  0  0  0  0  0
   45.8660   32.4750   45.5590 N   0  0  0  0  0  0  0  0  0  0  0  0
   45.9060   32.9670   46.8670 C   0  0  0  0  0  0  0  0  0  0  0  0
   47.1710   32.4850   47.6070 C   0  0  0  0  0  0  0  0  0  0  0  0
   47.0130   31.0020   47.7950 C   0  0  0  0  0  0  0  0  0  0  0  0
   46.9300   30.4040   46.4080 C   0  0  0  0  0  0  0  0  0  0  0  0
   45.9500   31.0780   45.4930 C   0  0  2  0  0  0  0  0  0  0  0  0
   46.2630   30.5910   44.0860 C   0  0  0  0  0  0  0  0  0  0  0  0
   45.8952   36.4806   42.9526 H   0  0  0  0  0  0  0  0  0  0  0  0
   43.8561   35.5782   44.4219 H   0  0  0  0  0  0  0  0  0  0  0  0
   43.7696   34.2655   43.5609 H   0  0  0  0  0  0  0  0  0  0  0  0
   46.2682   34.7385   45.6269 H   0  0  0  0  0  0  0  0  0  0  0  0
   44.5545   34.0491   41.3591 H   0  0  0  0  0  0  0  0  0  0  0  0
   48.3583   35.7029   42.5877 H   0  0  0  0  0  0  0  0  0  0  0  0
   49.2937   31.8829   39.7075 H   0  0  0  0  0  0  0  0  0  0  0  0
   50.3665   31.0319   37.6325 H   0  0  0  0  0  0  0  0  0  0  0  0
   49.8162   32.0743   35.4469 H   0  0  0  0  0  0  0  0  0  0  0  0
   48.2154   33.9397   35.3215 H   0  0  0  0  0  0  0  0  0  0  0  0
   47.1343   34.8009   37.4007 H   0  0  0  0  0  0  0  0  0  0  0  0
   46.2315   32.8112   43.5474 H   0  0  0  0  0  0  0  0  0  0  0  0
   47.5428   33.3031   44.6454 H   0  0  0  0  0  0  0  0  0  0  0  0
   45.9053   34.0666   46.8367 H   0  0  0  0  0  0  0  0  0  0  0  0
   45.0235   32.5928   47.4066 H   0  0  0  0  0  0  0  0  0  0  0  0
   48.0677   32.6991   47.0069 H   0  0  0  0  0  0  0  0  0  0  0  0
   47.2888   32.9992   48.5722 H   0  0  0  0  0  0  0  0  0  0  0  0
   47.8792   30.5922   48.3351 H   0  0  0  0  0  0  0  0  0  0  0  0
   46.1151   30.7676   48.3856 H   0  0  0  0  0  0  0  0  0  0  0  0
   47.9272   30.4659   45.9478 H   0  0  0  0  0  0  0  0  0  0  0  0
   46.5762   29.3703   46.5356 H   0  0  0  0  0  0  0  0  0  0  0  0
   44.9433   30.7908   45.8307 H   0  0  0  0  0  0  0  0  0  0  0  0
   46.8570   29.6668   44.1415 H   0  0  0  0  0  0  0  0  0  0  0  0
   45.3236   30.3914   43.5496 H   0  0  0  0  0  0  0  0  0  0  0  0
   46.8347   31.3626   43.5496 H   0  0  0  0  0  0  0  0  0  0  0  0
  1  2  1  0
  1  3  1  0
  2  3  1  0
  4  5  2  0
  5  1  1  0
  6  5  1  0
  7  6  2  0
  8  9  2  0
  8  7  1  0
  9  4  1  0
 10 11  2  0
 10  8  1  0
 12 11  1  0
 13 12  2  0
 14 13  1  0
 14 15  2  0
 15 10  1  0
 16  3  1  0
 16 17  1  0
 17 18  1  0
 18 19  1  0
 19 20  1  0
 21 20  1  0
 22 17  1  0
 22 21  1  0
 23 22  1  0
  1 24  1  1
  2 25  1  0
  2 26  1  0
  3 27  1  1
  4 28  1  0
  6 29  1  0
 11 30  1  0
 12 31  1  0
 13 32  1  0
 14 33  1  0
 15 34  1  0
 16 35  1  0
 16 36  1  0
 18 37  1  0
 18 38  1  0
 19 39  1  0
 19 40  1  0
 20 41  1  0
 20 42  1  0
 21 43  1  0
 21 44  1  0
 22 45  1  1
 23 46  1  0
 23 47  1  0
 23 48  1  0
M  ISO  8  24  13  25  13  26  13  27  13  28  14  29  14  30  14  31  14
M  ISO  8  32  14  33  14  34  14  35   8  36   8  37  13  38  13  39  13
M  ISO  8  40  13  41  13  42  13  43  13  44  13  45  13  46   8  47   8
M  ISO  1  48   8
M  END
>  <minimizedAffinity>  (1) 
-5.05916548

>  <minimizedRMSD>  (1) 
2.83790183

$$$$
