
     RDKit          3D

 49 52  0  0  1  0  0  0  0  0999 V2000
   45.6700   35.4740   43.3640 C   0  0  1  0  0  0  0  0  0  0  0  0
   44.5640   34.8900   43.9870 C   0  0  0  0  0  0  0  0  0  0  0  0
   45.8450   34.6440   44.6700 C   0  0  1  0  0  0  0  0  0  0  0  0
   45.6500   34.1260   41.2610 C   0  0  0  0  0  0  0  0  0  0  0  0
   46.3880   34.9670   42.1550 C   0  0  0  0  0  0  0  0  0  0  0  0
   47.6860   35.2680   41.8880 C   0  0  0  0  0  0  0  0  0  0  0  0
   48.2230   34.7290   40.7400 N   0  0  0  0  0  0  0  0  0  0  0  0
   47.5160   33.9380   39.9060 C   0  0  0  0  0  0  0  0  0  0  0  0
   46.2010   33.6110   40.1410 N   0  0  0  0  0  0  0  0  0  0  0  0
   49.0200   32.3320   38.7960 C   0  0  0  0  0  0  0  0  0  0  0  0
   48.1670   33.4120   38.7120 C   0  0  0  0  0  0  0  0  0  0  0  0
   47.9000   34.0310   37.5080 C   0  0  0  0  0  0  0  0  0  0  0  0
   48.5040   33.5520   36.3560 C   0  0  0  0  0  0  0  0  0  0  0  0
   49.3770   32.4600   36.3850 C   0  0  0  0  0  0  0  0  0  0  0  0
   49.6140   31.8730   37.6170 C   0  0  0  0  0  0  0  0  0  0  0  0
   49.5110   31.2080   41.0750 N   0  0  0  0  0  0  0  0  0  0  0  0
   49.2810   31.7090   40.0570 C   0  0  0  0  0  0  0  0  0  0  0  0
   46.4920   33.3120   44.5970 C   0  0  0  0  0  0  0  0  0  0  0  0
   45.8990   32.4970   45.5950 N   0  0  0  0  0  0  0  0  0  0  0  0
   45.9240   32.9440   46.9200 C   0  0  0  0  0  0  0  0  0  0  0  0
   47.1790   32.4450   47.6630 C   0  0  0  0  0  0  0  0  0  0  0  0
   47.0340   30.9520   47.7910 C   0  0  0  0  0  0  0  0  0  0  0  0
   46.9660   30.4060   46.3930 C   0  0  0  0  0  0  0  0  0  0  0  0
   45.9890   31.1030   45.4870 C   0  0  2  0  0  0  0  0  0  0  0  0
   46.3120   30.6640   44.0660 C   0  0  0  0  0  0  0  0  0  0  0  0
   45.8274   36.4955   42.9874 H   0  0  0  0  0  0  0  0  0  0  0  0
   43.8184   35.5394   44.4690 H   0  0  0  0  0  0  0  0  0  0  0  0
   43.7755   34.2157   43.6214 H   0  0  0  0  0  0  0  0  0  0  0  0
   46.2532   34.7923   45.6806 H   0  0  0  0  0  0  0  0  0  0  0  0
   44.6008   33.8921   41.4942 H   0  0  0  0  0  0  0  0  0  0  0  0
   48.2786   35.9105   42.5559 H   0  0  0  0  0  0  0  0  0  0  0  0
   47.2174   34.8924   37.4630 H   0  0  0  0  0  0  0  0  0  0  0  0
   48.2913   34.0431   35.3950 H   0  0  0  0  0  0  0  0  0  0  0  0
   49.8550   32.0833   35.4687 H   0  0  0  0  0  0  0  0  0  0  0  0
   50.2964   31.0119   37.6696 H   0  0  0  0  0  0  0  0  0  0  0  0
   46.3287   32.8687   43.6036 H   0  0  0  0  0  0  0  0  0  0  0  0
   47.5766   33.3977   44.7595 H   0  0  0  0  0  0  0  0  0  0  0  0
   45.9193   34.0440   46.9259 H   0  0  0  0  0  0  0  0  0  0  0  0
   45.0376   32.5449   47.4348 H   0  0  0  0  0  0  0  0  0  0  0  0
   48.0840   32.6911   47.0882 H   0  0  0  0  0  0  0  0  0  0  0  0
   47.2732   32.9218   48.6498 H   0  0  0  0  0  0  0  0  0  0  0  0
   47.9007   30.5306   48.3213 H   0  0  0  0  0  0  0  0  0  0  0  0
   46.1327   30.6886   48.3640 H   0  0  0  0  0  0  0  0  0  0  0  0
   47.9670   30.4895   45.9447 H   0  0  0  0  0  0  0  0  0  0  0  0
   46.6146   29.3677   46.4845 H   0  0  0  0  0  0  0  0  0  0  0  0
   44.9824   30.7964   45.8076 H   0  0  0  0  0  0  0  0  0  0  0  0
   46.9637   29.7783   44.0950 H   0  0  0  0  0  0  0  0  0  0  0  0
   45.3795   30.4159   43.5380 H   0  0  0  0  0  0  0  0  0  0  0  0
   46.8263   31.4805   43.5380 H   0  0  0  0  0  0  0  0  0  0  0  0
  1  2  1  0
  1  3  1  0
  2  3  1  0
  4  5  2  0
  5  1  1  0
  6  5  1  0
  7  6  2  0
  8  9  2  0
  8  7  1  0
  9  4  1  0
 10 17  1  0
 11 10  2  0
 11  8  1  0
 12 11  1  0
 13 14  1  0
 13 12  2  0
 14 15  2  0
 15 10  1  0
 17 16  3  0
 18  3  1  0
 18 19  1  0
 19 20  1  0
 20 21  1  0
 21 22  1  0
 23 22  1  0
 24 19  1  0
 24 23  1  0
 25 24  1  0
  1 26  1  1
  2 27  1  0
  2 28  1  0
  3 29  1  1
  4 30  1  0
  6 31  1  0
 12 32  1  0
 13 33  1  0
 14 34  1  0
 15 35  1  0
 18 36  1  0
 18 37  1  0
 20 38  1  0
 20 39  1  0
 21 40  1  0
 21 41  1  0
 22 42  1  0
 22 43  1  0
 23 44  1  0
 23 45  1  0
 24 46  1  1
 25 47  1  0
 25 48  1  0
 25 49  1  0
M  ISO  8  26  13  27  13  28  13  29  13  30  14  31  14  32  14  33  14
M  ISO  8  34  14  35  14  36   8  37   8  38  13  39  13  40  13  41  13
M  ISO  8  42  13  43  13  44  13  45  13  46  13  47   8  48   8  49   8
M  END
>  <minimizedAffinity>  (1) 
-5.05220747

>  <minimizedRMSD>  (1) 
2.83288264

$$$$
