
     RDKit          3D

 50 53  0  0  1  0  0  0  0  0999 V2000
   46.5650   33.0620   44.3360 C   0  0  0  0  0  0  0  0  0  0  0  0
   46.0080   32.2590   45.3650 N   0  0  0  0  0  0  0  0  0  0  0  0
   45.9470   32.7930   46.6580 C   0  0  0  0  0  0  0  0  0  0  0  0
   47.2140   32.4610   47.4720 C   0  0  0  0  0  0  0  0  0  0  0  0
   47.1840   30.9690   47.7010 C   0  0  0  0  0  0  0  0  0  0  0  0
   47.2240   30.3250   46.3260 C   0  0  0  0  0  0  0  0  0  0  0  0
   46.2250   30.8760   45.3520 C   0  0  2  0  0  0  0  0  0  0  0  0
   46.6370   30.3780   43.9750 C   0  0  0  0  0  0  0  0  0  0  0  0
   45.8110   35.3420   43.2830 C   0  0  1  0  0  0  0  0  0  0  0  0
   44.7320   34.8250   44.0040 C   0  0  0  0  0  0  0  0  0  0  0  0
   46.0540   34.4410   44.5300 C   0  0  1  0  0  0  0  0  0  0  0  0
   45.4370   34.1270   41.1340 C   0  0  0  0  0  0  0  0  0  0  0  0
   46.3480   34.8310   41.9850 C   0  0  0  0  0  0  0  0  0  0  0  0
   47.6370   35.0070   41.5960 C   0  0  0  0  0  0  0  0  0  0  0  0
   48.0120   34.4940   40.3880 N   0  0  0  0  0  0  0  0  0  0  0  0
   47.1340   33.8240   39.5850 C   0  0  0  0  0  0  0  0  0  0  0  0
   45.8200   33.6240   39.9390 N   0  0  0  0  0  0  0  0  0  0  0  0
   47.5480   33.3030   38.3340 N   0  0  0  0  0  0  0  0  0  0  0  0
   47.0500   32.1360   37.6300 C   0  0  0  0  0  0  0  0  0  0  0  0
   48.3470   31.4380   37.2360 C   0  0  0  0  0  0  0  0  0  0  0  0
   49.2310   32.6000   36.8330 C   0  0  0  0  0  0  0  0  0  0  0  0
   48.5840   33.8340   37.4690 C   0  0  0  0  0  0  0  0  0  0  0  0
   46.2560   32.6807   43.3515 H   0  0  0  0  0  0  0  0  0  0  0  0
   47.6640   33.0435   44.3782 H   0  0  0  0  0  0  0  0  0  0  0  0
   45.8444   33.8860   46.5879 H   0  0  0  0  0  0  0  0  0  0  0  0
   45.0823   32.3483   47.1724 H   0  0  0  0  0  0  0  0  0  0  0  0
   48.1152   32.7428   46.9078 H   0  0  0  0  0  0  0  0  0  0  0  0
   47.2377   33.0136   48.4228 H   0  0  0  0  0  0  0  0  0  0  0  0
   48.0570   30.6570   48.2931 H   0  0  0  0  0  0  0  0  0  0  0  0
   46.2838   30.6682   48.2570 H   0  0  0  0  0  0  0  0  0  0  0  0
   48.2302   30.4725   45.9066 H   0  0  0  0  0  0  0  0  0  0  0  0
   46.9691   29.2646   46.4695 H   0  0  0  0  0  0  0  0  0  0  0  0
   45.2372   30.5056   45.6636 H   0  0  0  0  0  0  0  0  0  0  0  0
   47.3348   29.5346   44.0837 H   0  0  0  0  0  0  0  0  0  0  0  0
   45.7451   30.0471   43.4227 H   0  0  0  0  0  0  0  0  0  0  0  0
   47.1291   31.1922   43.4227 H   0  0  0  0  0  0  0  0  0  0  0  0
   46.0145   36.3631   42.9282 H   0  0  0  0  0  0  0  0  0  0  0  0
   44.1035   35.5118   44.5899 H   0  0  0  0  0  0  0  0  0  0  0  0
   43.8520   34.2368   43.7048 H   0  0  0  0  0  0  0  0  0  0  0  0
   46.5831   34.5086   45.4920 H   0  0  0  0  0  0  0  0  0  0  0  0
   44.3958   33.9915   41.4618 H   0  0  0  0  0  0  0  0  0  0  0  0
   48.3547   35.5448   42.2329 H   0  0  0  0  0  0  0  0  0  0  0  0
   46.4369   31.5021   38.2875 H   0  0  0  0  0  0  0  0  0  0  0  0
   46.3936   32.3730   36.7797 H   0  0  0  0  0  0  0  0  0  0  0  0
   48.7765   30.8869   38.0856 H   0  0  0  0  0  0  0  0  0  0  0  0
   48.2189   30.6869   36.4427 H   0  0  0  0  0  0  0  0  0  0  0  0
   50.2524   32.4590   37.2161 H   0  0  0  0  0  0  0  0  0  0  0  0
   49.3132   32.6952   35.7402 H   0  0  0  0  0  0  0  0  0  0  0  0
   49.3233   34.4019   38.0529 H   0  0  0  0  0  0  0  0  0  0  0  0
   48.1818   34.5275   36.7158 H   0  0  0  0  0  0  0  0  0  0  0  0
  1 11  1  0
  1  2  1  0
  2  3  1  0
  3  4  1  0
  4  5  1  0
  6  5  1  0
  7  2  1  0
  7  6  1  0
  8  7  1  0
  9 10  1  0
  9 11  1  0
 10 11  1  0
 12 13  2  0
 13  9  1  0
 14 13  1  0
 15 14  2  0
 16 17  2  0
 16 15  1  0
 17 12  1  0
 18 16  1  0
 19 18  1  0
 20 19  1  0
 21 20  1  0
 21 22  1  0
 22 18  1  0
  1 23  1  0
  1 24  1  0
  3 25  1  0
  3 26  1  0
  4 27  1  0
  4 28  1  0
  5 29  1  0
  5 30  1  0
  6 31  1  0
  6 32  1  0
  7 33  1  1
  8 34  1  0
  8 35  1  0
  8 36  1  0
  9 37  1  1
 10 38  1  0
 10 39  1  0
 11 40  1  1
 12 41  1  0
 14 42  1  0
 19 43  1  0
 19 44  1  0
 20 45  1  0
 20 46  1  0
 21 47  1  0
 21 48  1  0
 22 49  1  0
 22 50  1  0
M  ISO  8  23   8  24   8  25  13  26  13  27  13  28  13  29  13  30  13
M  ISO  8  31  13  32  13  33  13  34   8  35   8  36   8  37  13  38  13
M  ISO  8  39  13  40  13  41  14  42  14  43  13  44  13  45  13  46  13
M  ISO  4  47  13  48  13  49  13  50  13
M  END
>  <minimizedAffinity>  (1) 
-4.89689207

>  <minimizedRMSD>  (1) 
2.50738597

$$$$
