
     RDKit          3D

 44 47  0  0  1  0  0  0  0  0999 V2000
   46.4900   32.9840   44.2430 C   0  0  0  0  0  0  0  0  0  0  0  0
   45.9530   32.2090   45.3030 N   0  0  0  0  0  0  0  0  0  0  0  0
   45.9230   32.7740   46.5820 C   0  0  0  0  0  0  0  0  0  0  0  0
   47.2020   32.4560   47.3780 C   0  0  0  0  0  0  0  0  0  0  0  0
   47.1910   30.9770   47.6390 C   0  0  0  0  0  0  0  0  0  0  0  0
   47.1860   30.2950   46.2870 C   0  0  0  0  0  0  0  0  0  0  0  0
   46.1640   30.8240   45.3200 C   0  0  2  0  0  0  0  0  0  0  0  0
   46.5440   30.2900   43.9480 C   0  0  0  0  0  0  0  0  0  0  0  0
   45.8550   35.3160   43.2260 C   0  0  1  0  0  0  0  0  0  0  0  0
   44.7560   34.8530   43.9550 C   0  0  0  0  0  0  0  0  0  0  0  0
   46.0610   34.3860   44.4570 C   0  0  1  0  0  0  0  0  0  0  0  0
   45.3840   34.1140   41.0840 C   0  0  0  0  0  0  0  0  0  0  0  0
   46.3400   34.7870   41.9110 C   0  0  0  0  0  0  0  0  0  0  0  0
   47.6240   34.9150   41.4870 C   0  0  0  0  0  0  0  0  0  0  0  0
   47.9490   34.3870   40.2690 N   0  0  0  0  0  0  0  0  0  0  0  0
   47.0210   33.7470   39.4930 C   0  0  0  0  0  0  0  0  0  0  0  0
   45.7160   33.5950   39.8820 N   0  0  0  0  0  0  0  0  0  0  0  0
   47.5880   33.2530   38.2150 C   0  0  0  0  0  0  0  0  0  0  0  0
   48.3540   34.0590   37.2270 C   0  0  0  0  0  0  0  0  0  0  0  0
   48.6550   32.6980   35.9960 S   0  0  0  0  0  0  0  0  0  0  0  0
   47.7340   31.3840   37.0080 C   0  0  0  0  0  0  0  0  0  0  0  0
   47.3030   31.9600   38.0800 N   0  0  0  0  0  0  0  0  0  0  0  0
   46.1086   32.6173   43.2786 H   0  0  0  0  0  0  0  0  0  0  0  0
   47.5875   32.9121   44.2269 H   0  0  0  0  0  0  0  0  0  0  0  0
   45.8251   33.8655   46.4868 H   0  0  0  0  0  0  0  0  0  0  0  0
   45.0673   32.3460   47.1248 H   0  0  0  0  0  0  0  0  0  0  0  0
   48.0914   32.7310   46.7921 H   0  0  0  0  0  0  0  0  0  0  0  0
   47.2336   33.0238   48.3196 H   0  0  0  0  0  0  0  0  0  0  0  0
   48.0870   30.6859   48.2069 H   0  0  0  0  0  0  0  0  0  0  0  0
   46.3105   30.6869   48.2311 H   0  0  0  0  0  0  0  0  0  0  0  0
   48.1815   30.4208   45.8362 H   0  0  0  0  0  0  0  0  0  0  0  0
   46.9238   29.2427   46.4710 H   0  0  0  0  0  0  0  0  0  0  0  0
   45.1822   30.4644   45.6616 H   0  0  0  0  0  0  0  0  0  0  0  0
   47.1782   29.3988   44.0642 H   0  0  0  0  0  0  0  0  0  0  0  0
   45.6326   30.0217   43.3936 H   0  0  0  0  0  0  0  0  0  0  0  0
   47.0961   31.0632   43.3936 H   0  0  0  0  0  0  0  0  0  0  0  0
   46.1157   36.3281   42.8828 H   0  0  0  0  0  0  0  0  0  0  0  0
   44.1763   35.5671   44.5584 H   0  0  0  0  0  0  0  0  0  0  0  0
   43.8391   34.3214   43.6606 H   0  0  0  0  0  0  0  0  0  0  0  0
   46.6061   34.4099   45.4122 H   0  0  0  0  0  0  0  0  0  0  0  0
   44.3473   34.0167   41.4386 H   0  0  0  0  0  0  0  0  0  0  0  0
   48.3775   35.4268   42.1036 H   0  0  0  0  0  0  0  0  0  0  0  0
   48.6479   35.1190   37.2251 H   0  0  0  0  0  0  0  0  0  0  0  0
   47.5934   30.3283   36.7328 H   0  0  0  0  0  0  0  0  0  0  0  0
  1 11  1  0
  1  2  1  0
  2  7  1  0
  2  3  1  0
  3  4  1  0
  4  5  1  0
  6  5  1  0
  7  6  1  0
  8  7  1  0
  9 10  1  0
  9 11  1  0
 10 11  1  0
 12 13  2  0
 13  9  1  0
 14 13  1  0
 15 14  2  0
 16 17  2  0
 16 15  1  0
 17 12  1  0
 18 16  1  0
 19 18  2  0
 20 21  1  0
 20 19  1  0
 21 22  2  0
 22 18  1  0
  1 23  1  0
  1 24  1  0
  3 25  1  0
  3 26  1  0
  4 27  1  0
  4 28  1  0
  5 29  1  0
  5 30  1  0
  6 31  1  0
  6 32  1  0
  7 33  1  1
  8 34  1  0
  8 35  1  0
  8 36  1  0
  9 37  1  1
 10 38  1  0
 10 39  1  0
 11 40  1  1
 12 41  1  0
 14 42  1  0
 19 43  1  0
 21 44  1  0
M  ISO  8  23   8  24   8  25  13  26  13  27  13  28  13  29  13  30  13
M  ISO  8  31  13  32  13  33  13  34   8  35   8  36   8  37  13  38  13
M  ISO  6  39  13  40  13  41  14  42  14  43  14  44  14
M  END
>  <minimizedAffinity>  (1) 
-4.75748777

>  <minimizedRMSD>  (1) 
2.47029948

$$$$
