
     RDKit          3D

 42 44  0  0  1  0  0  0  0  0999 V2000
   46.5110   33.0890   44.0700 C   0  0  0  0  0  0  0  0  0  0  0  0
   45.8810   32.3890   45.1340 N   0  0  0  0  0  0  0  0  0  0  0  0
   45.9120   32.9600   46.4090 C   0  0  0  0  0  0  0  0  0  0  0  0
   47.1500   32.4970   47.2070 C   0  0  0  0  0  0  0  0  0  0  0  0
   46.9550   31.0330   47.4820 C   0  0  0  0  0  0  0  0  0  0  0  0
   46.8720   30.3470   46.1320 C   0  0  0  0  0  0  0  0  0  0  0  0
   45.9300   30.9900   45.1570 C   0  0  2  0  0  0  0  0  0  0  0  0
   46.2650   30.4060   43.7910 C   0  0  0  0  0  0  0  0  0  0  0  0
   45.8430   35.3460   42.9120 C   0  0  1  0  0  0  0  0  0  0  0  0
   44.7960   34.9790   43.7620 C   0  0  0  0  0  0  0  0  0  0  0  0
   46.1260   34.5170   44.1980 C   0  0  1  0  0  0  0  0  0  0  0  0
   45.1930   33.9330   40.9540 C   0  0  0  0  0  0  0  0  0  0  0  0
   46.2080   34.6980   41.6150 C   0  0  0  0  0  0  0  0  0  0  0  0
   47.4440   34.8060   41.0600 C   0  0  0  0  0  0  0  0  0  0  0  0
   47.6600   34.1670   39.8710 N   0  0  0  0  0  0  0  0  0  0  0  0
   46.6860   33.4400   39.2480 C   0  0  0  0  0  0  0  0  0  0  0  0
   45.4230   33.3070   39.7790 N   0  0  0  0  0  0  0  0  0  0  0  0
   48.0610   33.6180   37.3720 C   0  0  0  0  0  0  0  0  0  0  0  0
   48.5890   34.7110   37.7660 O   0  0  0  0  0  0  0  0  0  0  0  0
   47.0670   32.8350   38.0180 N   0  0  0  0  0  0  0  0  0  0  0  0
   46.1698   32.6915   43.1027 H   0  0  0  0  0  0  0  0  0  0  0  0
   47.6038   32.9725   44.1178 H   0  0  0  0  0  0  0  0  0  0  0  0
   45.9401   34.0551   46.3095 H   0  0  0  0  0  0  0  0  0  0  0  0
   45.0113   32.6389   46.9527 H   0  0  0  0  0  0  0  0  0  0  0  0
   48.0642   32.6545   46.6159 H   0  0  0  0  0  0  0  0  0  0  0  0
   47.2578   33.0671   48.1415 H   0  0  0  0  0  0  0  0  0  0  0  0
   47.8055   30.6380   48.0570 H   0  0  0  0  0  0  0  0  0  0  0  0
   46.0440   30.8578   48.0732 H   0  0  0  0  0  0  0  0  0  0  0  0
   47.8777   30.3457   45.6863 H   0  0  0  0  0  0  0  0  0  0  0  0
   46.4802   29.3367   46.3213 H   0  0  0  0  0  0  0  0  0  0  0  0
   44.9079   30.7545   45.4885 H   0  0  0  0  0  0  0  0  0  0  0  0
   46.8085   29.4585   43.9206 H   0  0  0  0  0  0  0  0  0  0  0  0
   45.3352   30.2219   43.2329 H   0  0  0  0  0  0  0  0  0  0  0  0
   46.8933   31.1157   43.2329 H   0  0  0  0  0  0  0  0  0  0  0  0
   46.0984   36.3174   42.4636 H   0  0  0  0  0  0  0  0  0  0  0  0
   44.2837   35.7582   44.3454 H   0  0  0  0  0  0  0  0  0  0  0  0
   43.8462   34.4523   43.5874 H   0  0  0  0  0  0  0  0  0  0  0  0
   46.7442   34.6037   45.1037 H   0  0  0  0  0  0  0  0  0  0  0  0
   44.1981   33.8530   41.4163 H   0  0  0  0  0  0  0  0  0  0  0  0
   48.2406   35.3858   41.5492 H   0  0  0  0  0  0  0  0  0  0  0  0
   48.4223   33.2322   36.4073 H   0  0  0  0  0  0  0  0  0  0  0  0
   46.6780   31.9556   37.6489 H   0  0  0  0  0  0  0  0  0  0  0  0
  1 11  1  0
  1  2  1  0
  2  7  1  0
  2  3  1  0
  3  4  1  0
  4  5  1  0
  6  5  1  0
  7  6  1  0
  8  7  1  0
  9 10  1  0
  9 11  1  0
 10 11  1  0
 12 13  2  0
 13  9  1  0
 14 13  1  0
 15 14  2  0
 16 17  2  0
 16 15  1  0
 17 12  1  0
 18 19  2  0
 18 20  1  0
 20 16  1  0
  1 21  1  0
  1 22  1  0
  3 23  1  0
  3 24  1  0
  4 25  1  0
  4 26  1  0
  5 27  1  0
  5 28  1  0
  6 29  1  0
  6 30  1  0
  7 31  1  1
  8 32  1  0
  8 33  1  0
  8 34  1  0
  9 35  1  1
 10 36  1  0
 10 37  1  0
 11 38  1  1
 12 39  1  0
 14 40  1  0
 18 41  1  0
 20 42  1  0
M  ISO  8  21   8  22   8  23  13  24  13  25  13  26  13  27  13  28  13
M  ISO  8  29  13  30  13  31  13  32   8  33   8  34   8  35  13  36  13
M  ISO  5  37  13  38  13  39  14  40  14  41   6
M  END
>  <minimizedAffinity>  (1) 
-4.6516161

>  <minimizedRMSD>  (1) 
2.05011106

$$$$
