
     RDKit          3D

 41 43  0  0  1  0  0  0  0  0999 V2000
   45.9990   32.2700   45.4840 C   0  0  0  0  0  0  0  0  0  0  0  0
   45.7730   31.8530   46.8200 N   0  0  0  0  0  0  0  0  0  0  0  0
   46.3640   32.5870   47.8550 C   0  0  0  0  0  0  0  0  0  0  0  0
   47.7580   32.0390   48.2230 C   0  0  0  0  0  0  0  0  0  0  0  0
   47.5320   30.6780   48.8290 C   0  0  0  0  0  0  0  0  0  0  0  0
   46.8600   29.8400   47.7760 C   0  0  0  0  0  0  0  0  0  0  0  0
   45.6800   30.4840   47.1060 C   0  0  2  0  0  0  0  0  0  0  0  0
   45.3820   29.6610   45.8620 C   0  0  0  0  0  0  0  0  0  0  0  0
   45.9170   34.5410   44.1790 C   0  0  1  0  0  0  0  0  0  0  0  0
   44.9830   34.6120   45.2170 C   0  0  0  0  0  0  0  0  0  0  0  0
   46.1420   33.7460   45.4980 C   0  0  1  0  0  0  0  0  0  0  0  0
   44.4760   33.4450   42.4540 C   0  0  0  0  0  0  0  0  0  0  0  0
   45.7980   33.7310   42.9280 C   0  0  0  0  0  0  0  0  0  0  0  0
   46.8750   33.2670   42.2460 C   0  0  0  0  0  0  0  0  0  0  0  0
   46.6280   32.5320   41.1140 N   0  0  0  0  0  0  0  0  0  0  0  0
   45.3780   32.2680   40.6780 C   0  0  0  0  0  0  0  0  0  0  0  0
   44.2600   32.7170   41.3340 N   0  0  0  0  0  0  0  0  0  0  0  0
   45.1350   31.4700   39.4480 C   0  0  0  0  0  0  0  0  0  0  0  0
   45.1473   31.9808   44.8507 H   0  0  0  0  0  0  0  0  0  0  0  0
   46.9045   31.7960   45.0772 H   0  0  0  0  0  0  0  0  0  0  0  0
   46.4664   33.6345   47.5351 H   0  0  0  0  0  0  0  0  0  0  0  0
   45.7196   32.5056   48.7428 H   0  0  0  0  0  0  0  0  0  0  0  0
   48.3842   31.9556   47.3225 H   0  0  0  0  0  0  0  0  0  0  0  0
   48.2774   32.7076   48.9252 H   0  0  0  0  0  0  0  0  0  0  0  0
   48.4933   30.2267   49.1157 H   0  0  0  0  0  0  0  0  0  0  0  0
   46.9111   30.7471   49.7344 H   0  0  0  0  0  0  0  0  0  0  0  0
   47.6048   29.6043   47.0016 H   0  0  0  0  0  0  0  0  0  0  0  0
   46.4705   28.9514   48.2943 H   0  0  0  0  0  0  0  0  0  0  0  0
   44.8533   30.4753   47.8316 H   0  0  0  0  0  0  0  0  0  0  0  0
   45.0214   28.6651   46.1589 H   0  0  0  0  0  0  0  0  0  0  0  0
   44.6101   30.1671   45.2637 H   0  0  0  0  0  0  0  0  0  0  0  0
   46.2990   29.5556   45.2637 H   0  0  0  0  0  0  0  0  0  0  0  0
   46.3939   35.3333   43.5834 H   0  0  0  0  0  0  0  0  0  0  0  0
   44.8735   35.5547   45.7732 H   0  0  0  0  0  0  0  0  0  0  0  0
   43.8977   34.4369   45.2539 H   0  0  0  0  0  0  0  0  0  0  0  0
   46.9103   33.6689   46.2814 H   0  0  0  0  0  0  0  0  0  0  0  0
   43.6121   33.8283   43.0168 H   0  0  0  0  0  0  0  0  0  0  0  0
   47.9012   33.4710   42.5856 H   0  0  0  0  0  0  0  0  0  0  0  0
   44.8250   30.4520   39.7266 H   0  0  0  0  0  0  0  0  0  0  0  0
   44.3409   31.9453   38.8535 H   0  0  0  0  0  0  0  0  0  0  0  0
   46.0593   31.4220   38.8535 H   0  0  0  0  0  0  0  0  0  0  0  0
  1 11  1  0
  1  2  1  0
  2  7  1  0
  2  3  1  0
  3  4  1  0
  4  5  1  0
  6  5  1  0
  7  6  1  0
  8  7  1  0
  9 10  1  0
  9 11  1  0
 10 11  1  0
 12 13  2  0
 13  9  1  0
 14 13  1  0
 15 14  2  0
 16 15  1  0
 16 17  2  0
 17 12  1  0
 18 16  1  0
  1 19  1  0
  1 20  1  0
  3 21  1  0
  3 22  1  0
  4 23  1  0
  4 24  1  0
  5 25  1  0
  5 26  1  0
  6 27  1  0
  6 28  1  0
  7 29  1  1
  8 30  1  0
  8 31  1  0
  8 32  1  0
  9 33  1  6
 10 34  1  0
 10 35  1  0
 11 36  1  1
 12 37  1  0
 14 38  1  0
 18 39  1  0
 18 40  1  0
 18 41  1  0
M  ISO  8  19   8  20   8  21  13  22  13  23  13  24  13  25  13  26  13
M  ISO  8  27  13  28  13  29  13  30   8  31   8  32   8  33  13  34  13
M  ISO  7  35  13  36  13  37  14  38  14  39   8  40   8  41   8
M  END
>  <minimizedAffinity>  (1) 
-3.74751782

>  <minimizedRMSD>  (1) 
0.181654677

$$$$
