
     RDKit          3D

 40 42  0  0  1  0  0  0  0  0999 V2000
   46.0130   32.2720   45.4510 C   0  0  0  0  0  0  0  0  0  0  0  0
   45.7700   31.8470   46.7820 N   0  0  0  0  0  0  0  0  0  0  0  0
   46.3450   32.5850   47.8250 C   0  0  0  0  0  0  0  0  0  0  0  0
   47.7300   32.0440   48.2080 C   0  0  0  0  0  0  0  0  0  0  0  0
   47.4960   30.6890   48.8250 C   0  0  0  0  0  0  0  0  0  0  0  0
   46.8590   29.8360   47.7440 C   0  0  0  0  0  0  0  0  0  0  0  0
   45.6860   30.4770   47.0610 C   0  0  2  0  0  0  0  0  0  0  0  0
   45.4140   29.6550   45.8090 C   0  0  0  0  0  0  0  0  0  0  0  0
   45.9070   34.5570   44.1670 C   0  0  1  0  0  0  0  0  0  0  0  0
   44.9830   34.6090   45.2140 C   0  0  0  0  0  0  0  0  0  0  0  0
   46.1510   33.7500   45.4760 C   0  0  1  0  0  0  0  0  0  0  0  0
   44.4730   33.4560   42.4450 C   0  0  0  0  0  0  0  0  0  0  0  0
   45.7950   33.7580   42.9100 C   0  0  0  0  0  0  0  0  0  0  0  0
   46.8740   33.3160   42.2140 C   0  0  0  0  0  0  0  0  0  0  0  0
   46.6240   32.5870   41.0750 N   0  0  0  0  0  0  0  0  0  0  0  0
   45.3670   32.3060   40.6450 C   0  0  0  0  0  0  0  0  0  0  0  0
   44.2550   32.7360   41.3220 N   0  0  0  0  0  0  0  0  0  0  0  0
   45.1600   31.5300   39.4320 C   0  0  0  0  0  0  0  0  0  0  0  0
   45.0840   32.0620   38.3060 O   0  0  0  0  0  0  0  0  0  0  0  0
   45.1710   31.9837   44.8045 H   0  0  0  0  0  0  0  0  0  0  0  0
   46.9252   31.8031   45.0536 H   0  0  0  0  0  0  0  0  0  0  0  0
   46.4474   33.6327   47.5059 H   0  0  0  0  0  0  0  0  0  0  0  0
   45.6898   32.5027   48.7047 H   0  0  0  0  0  0  0  0  0  0  0  0
   48.3639   31.9515   47.3138 H   0  0  0  0  0  0  0  0  0  0  0  0
   48.2450   32.7193   48.9071 H   0  0  0  0  0  0  0  0  0  0  0  0
   48.4503   30.2466   49.1469 H   0  0  0  0  0  0  0  0  0  0  0  0
   46.8504   30.7589   49.7129 H   0  0  0  0  0  0  0  0  0  0  0  0
   47.6229   29.6171   46.9834 H   0  0  0  0  0  0  0  0  0  0  0  0
   46.4780   28.9315   48.2407 H   0  0  0  0  0  0  0  0  0  0  0  0
   44.8500   30.4630   47.7758 H   0  0  0  0  0  0  0  0  0  0  0  0
   45.0805   28.6472   46.0973 H   0  0  0  0  0  0  0  0  0  0  0  0
   44.6298   30.1441   45.2125 H   0  0  0  0  0  0  0  0  0  0  0  0
   46.3351   29.5798   45.2125 H   0  0  0  0  0  0  0  0  0  0  0  0
   46.3661   35.3618   43.5741 H   0  0  0  0  0  0  0  0  0  0  0  0
   44.8709   35.5450   45.7809 H   0  0  0  0  0  0  0  0  0  0  0  0
   43.8996   34.4242   45.2589 H   0  0  0  0  0  0  0  0  0  0  0  0
   46.9294   33.6710   46.2492 H   0  0  0  0  0  0  0  0  0  0  0  0
   43.6093   33.8215   43.0199 H   0  0  0  0  0  0  0  0  0  0  0  0
   47.9004   33.5311   42.5459 H   0  0  0  0  0  0  0  0  0  0  0  0
   45.0673   30.4367   39.5102 H   0  0  0  0  0  0  0  0  0  0  0  0
  1 11  1  0
  1  2  1  0
  2  7  1  0
  2  3  1  0
  3  4  1  0
  4  5  1  0
  6  5  1  0
  7  6  1  0
  8  7  1  0
  9 10  1  0
  9 11  1  0
 10 11  1  0
 12 13  2  0
 13  9  1  0
 14 13  1  0
 15 14  2  0
 16 15  1  0
 16 17  2  0
 17 12  1  0
 18 16  1  0
 19 18  2  0
  1 20  1  0
  1 21  1  0
  3 22  1  0
  3 23  1  0
  4 24  1  0
  4 25  1  0
  5 26  1  0
  5 27  1  0
  6 28  1  0
  6 29  1  0
  7 30  1  1
  8 31  1  0
  8 32  1  0
  8 33  1  0
  9 34  1  6
 10 35  1  0
 10 36  1  0
 11 37  1  1
 12 38  1  0
 14 39  1  0
 18 40  1  0
M  ISO  8  20   8  21   8  22  13  23  13  24  13  25  13  26  13  27  13
M  ISO  8  28  13  29  13  30  13  31   8  32   8  33   8  34  13  35  13
M  ISO  5  36  13  37  13  38  14  39  14  40   6
M  END
>  <minimizedAffinity>  (1) 
-3.67622733

>  <minimizedRMSD>  (1) 
0.2155108

$$$$
