
     RDKit          3D

 23 24  0  0  0  0  0  0  0  0999 V2000
   45.3460   35.7630   42.7280 C   0  0  0  0  0  0  0  0  0  0  0  0
   45.3440   35.0670   44.0450 C   0  0  0  0  0  0  0  0  0  0  0  0
   46.1730   33.9470   44.1900 C   0  0  0  0  0  0  0  0  0  0  0  0
   46.1940   33.2670   45.4100 C   0  0  0  0  0  0  0  0  0  0  0  0
   45.3960   33.7400   46.3950 N   0  0  0  0  0  0  0  0  0  0  0  0
   44.5930   34.8330   46.2400 C   0  0  0  0  0  0  0  0  0  0  0  0
   44.5780   35.4830   45.0650 N   0  0  0  0  0  0  0  0  0  0  0  0
   46.7840   34.0100   40.5210 Br  0  0  0  0  0  0  0  0  0  0  0  0
   44.9180   34.3690   40.7710 C   0  0  0  0  0  0  0  0  0  0  0  0
   44.3910   35.1530   41.7770 C   0  0  0  0  0  0  0  0  0  0  0  0
   43.0040   35.3210   41.8290 C   0  0  0  0  0  0  0  0  0  0  0  0
   42.1440   34.7400   40.9240 C   0  0  0  0  0  0  0  0  0  0  0  0
   42.7210   33.9560   39.9270 C   0  0  0  0  0  0  0  0  0  0  0  0
   44.0850   33.7630   39.8360 C   0  0  0  0  0  0  0  0  0  0  0  0
   45.0692   36.8163   42.8826 H   0  0  0  0  0  0  0  0  0  0  0  0
   46.3551   35.6754   42.2991 H   0  0  0  0  0  0  0  0  0  0  0  0
   46.8002   33.6070   43.3527 H   0  0  0  0  0  0  0  0  0  0  0  0
   46.8323   32.3844   45.5634 H   0  0  0  0  0  0  0  0  0  0  0  0
   43.9623   35.1791   47.0722 H   0  0  0  0  0  0  0  0  0  0  0  0
   42.5805   35.9457   42.6292 H   0  0  0  0  0  0  0  0  0  0  0  0
   41.0556   34.8875   40.9851 H   0  0  0  0  0  0  0  0  0  0  0  0
   42.0664   33.4737   39.1861 H   0  0  0  0  0  0  0  0  0  0  0  0
   44.5074   33.1385   39.0350 H   0  0  0  0  0  0  0  0  0  0  0  0
  1  2  1  0
  2  3  2  0
  2  7  1  0
  3  4  1  0
  4  5  2  0
  6  5  1  0
  7  6  2  0
  8  9  1  0
  9 10  2  0
 10 11  1  0
 10  1  1  0
 12 11  2  0
 13 12  1  0
 14 13  2  0
 14  9  1  0
  1 15  1  0
  1 16  1  0
  3 17  1  0
  4 18  1  0
  6 19  1  0
 11 20  1  0
 12 21  1  0
 13 22  1  0
 14 23  1  0
M  ISO  8  15   8  16   8  17  14  18  14  19  14  20  14  21  14  22  14
M  ISO  1  23  14
M  END
>  <minimizedAffinity>  (1) 
-4.21057796

>  <minimizedRMSD>  (1) 
1.13913941

$$$$
