
     RDKit          3D

 20 20  0  0  0  0  0  0  0  0999 V2000
   45.6860   34.9150   43.8530 C   0  0  0  0  0  0  0  0  0  0  0  0
   46.7910   34.2820   43.2420 C   0  0  0  0  0  0  0  0  0  0  0  0
   47.3770   33.2140   43.9260 C   0  0  0  0  0  0  0  0  0  0  0  0
   46.8620   32.8520   45.1210 N   0  0  0  0  0  0  0  0  0  0  0  0
   45.8030   33.4850   45.6730 C   0  0  0  0  0  0  0  0  0  0  0  0
   45.2110   34.5230   45.0370 N   0  0  0  0  0  0  0  0  0  0  0  0
   45.0550   36.0570   43.1280 C   0  0  0  0  0  0  0  0  0  0  0  0
   44.9500   37.2610   43.9950 C   0  0  0  0  0  0  0  0  0  0  0  0
   45.3900   38.4640   43.6580 C   0  0  0  0  0  0  0  0  0  0  0  0
   45.3580   39.7530   44.4110 C   0  0  0  0  0  0  0  0  0  0  0  0
   47.1747   34.6165   42.2669 H   0  0  0  0  0  0  0  0  0  0  0  0
   48.2391   32.6795   43.5005 H   0  0  0  0  0  0  0  0  0  0  0  0
   45.4184   33.1534   46.6488 H   0  0  0  0  0  0  0  0  0  0  0  0
   45.6663   36.3029   42.2472 H   0  0  0  0  0  0  0  0  0  0  0  0
   44.0398   35.7574   42.8285 H   0  0  0  0  0  0  0  0  0  0  0  0
   44.4758   37.1447   44.9807 H   0  0  0  0  0  0  0  0  0  0  0  0
   45.8540   38.5230   42.6624 H   0  0  0  0  0  0  0  0  0  0  0  0
   45.3631   39.5467   45.4915 H   0  0  0  0  0  0  0  0  0  0  0  0
   46.2415   40.3532   44.1481 H   0  0  0  0  0  0  0  0  0  0  0  0
   44.4458   40.3087   44.1481 H   0  0  0  0  0  0  0  0  0  0  0  0
  1  6  2  0
  2  1  1  0
  2  3  2  0
  3  4  1  0
  4  5  2  0
  6  5  1  0
  7  1  1  0
  7  8  1  0
  9  8  2  0
  9 10  1  0
  2 11  1  0
  3 12  1  0
  5 13  1  0
  7 14  1  0
  7 15  1  0
  8 16  1  0
  9 17  1  0
 10 18  1  0
 10 19  1  0
 10 20  1  0
M  ISO  8  11  14  12  14  13  14  14   8  15   8  18   8  19   8  20   8
M  END
>  <minimizedAffinity>  (1) 
-3.02767754

>  <minimizedRMSD>  (1) 
1.09523988

$$$$
