
     RDKit          3D

 20 21  0  0  0  0  0  0  0  0999 V2000
   46.3500   34.4480   43.5690 C   0  0  0  0  0  0  0  0  0  0  0  0
   45.5820   35.5780   43.2940 C   0  0  0  0  0  0  0  0  0  0  0  0
   44.6650   36.0220   44.2590 C   0  0  0  0  0  0  0  0  0  0  0  0
   44.5830   35.3180   45.4110 N   0  0  0  0  0  0  0  0  0  0  0  0
   45.3550   34.2110   45.6460 C   0  0  0  0  0  0  0  0  0  0  0  0
   46.2390   33.7720   44.7280 N   0  0  0  0  0  0  0  0  0  0  0  0
   47.3180   33.9980   42.5220 C   0  0  0  0  0  0  0  0  0  0  0  0
   47.5260   35.0980   41.5170 C   0  0  0  0  0  0  0  0  0  0  0  0
   48.9260   35.6720   41.5030 C   0  0  0  0  0  0  0  0  0  0  0  0
   48.3780   34.8790   40.3290 C   0  0  0  0  0  0  0  0  0  0  0  0
   45.6926   36.1118   42.3386 H   0  0  0  0  0  0  0  0  0  0  0  0
   44.0371   36.9083   44.0853 H   0  0  0  0  0  0  0  0  0  0  0  0
   45.2518   33.6717   46.5992 H   0  0  0  0  0  0  0  0  0  0  0  0
   48.2791   33.7489   42.9955 H   0  0  0  0  0  0  0  0  0  0  0  0
   46.9162   33.1100   42.0121 H   0  0  0  0  0  0  0  0  0  0  0  0
   46.4984   35.4749   41.6262 H   0  0  0  0  0  0  0  0  0  0  0  0
   49.0793   36.7577   41.4155 H   0  0  0  0  0  0  0  0  0  0  0  0
   49.8106   35.6059   42.1535 H   0  0  0  0  0  0  0  0  0  0  0  0
   48.1429   35.3904   39.3839 H   0  0  0  0  0  0  0  0  0  0  0  0
   48.7130   33.9933   39.7693 H   0  0  0  0  0  0  0  0  0  0  0  0
  1  6  1  0
  2  1  2  0
  2  3  1  0
  3  4  2  0
  4  5  1  0
  6  5  2  0
  7  1  1  0
  8  7  1  0
  9  8  1  0
 10  9  1  0
 10  8  1  0
  2 11  1  0
  3 12  1  0
  5 13  1  0
  7 14  1  0
  7 15  1  0
  8 16  1  0
  9 17  1  0
  9 18  1  0
 10 19  1  0
 10 20  1  0
M  ISO  8  11  14  12  14  13  14  14   8  15   8  16  13  17  13  18  13
M  ISO  2  19  13  20  13
M  END
>  <minimizedAffinity>  (1) 
-4.13856125

>  <minimizedRMSD>  (1) 
3.89704609

$$$$
