
     RDKit          3D

 32 34  0  0  1  0  0  0  0  0999 V2000
   47.5420   34.6230   41.2130 C   0  0  1  0  0  0  0  0  0  0  0  0
   48.6790   35.4270   40.6260 C   0  0  0  0  0  0  0  0  0  0  0  0
   48.3620   34.0540   40.1040 C   0  0  2  0  0  0  0  0  0  0  0  0
   48.3920   34.3840   37.5880 C   0  0  2  0  0  0  0  0  0  0  0  0
   47.7160   33.7910   38.8050 C   0  0  1  0  0  0  0  0  0  0  0  0
   47.6660   32.3460   38.3710 C   0  0  0  0  0  0  0  0  0  0  0  0
   47.5430   32.3500   36.9880 O   0  0  0  0  0  0  0  0  0  0  0  0
   47.5080   33.6660   36.5390 C   0  0  0  0  0  0  0  0  0  0  0  0
   49.6730   33.8430   37.4680 O   0  0  0  0  0  0  0  0  0  0  0  0
   47.7600   34.0790   42.5870 C   0  0  0  0  0  0  0  0  0  0  0  0
   46.6660   34.4190   43.5150 C   0  0  0  0  0  0  0  0  0  0  0  0
   45.8840   35.4780   43.1020 C   0  0  0  0  0  0  0  0  0  0  0  0
   44.8090   35.9230   43.8900 C   0  0  0  0  0  0  0  0  0  0  0  0
   44.6050   35.2460   45.0600 N   0  0  0  0  0  0  0  0  0  0  0  0
   45.3920   34.2060   45.4420 C   0  0  0  0  0  0  0  0  0  0  0  0
   46.4080   33.7980   44.6790 N   0  0  0  0  0  0  0  0  0  0  0  0
   46.4650   34.7818   41.3706 H   0  0  0  0  0  0  0  0  0  0  0  0
   48.4676   36.3138   40.0104 H   0  0  0  0  0  0  0  0  0  0  0  0
   49.5749   35.9228   41.0280 H   0  0  0  0  0  0  0  0  0  0  0  0
   48.9828   33.1615   39.9364 H   0  0  0  0  0  0  0  0  0  0  0  0
   48.4800   35.4799   37.5520 H   0  0  0  0  0  0  0  0  0  0  0  0
   46.7390   34.2348   39.0467 H   0  0  0  0  0  0  0  0  0  0  0  0
   48.5901   31.8285   38.6681 H   0  0  0  0  0  0  0  0  0  0  0  0
   46.8228   31.8198   38.8422 H   0  0  0  0  0  0  0  0  0  0  0  0
   47.9333   33.7556   35.5285 H   0  0  0  0  0  0  0  0  0  0  0  0
   46.4925   34.0803   36.4546 H   0  0  0  0  0  0  0  0  0  0  0  0
   50.0498   33.6839   38.3696 H   0  0  0  0  0  0  0  0  0  0  0  0
   47.8394   32.9837   42.5231 H   0  0  0  0  0  0  0  0  0  0  0  0
   48.6818   34.5320   42.9807 H   0  0  0  0  0  0  0  0  0  0  0  0
   46.1040   35.9784   42.1474 H   0  0  0  0  0  0  0  0  0  0  0  0
   44.1705   36.7648   43.5840 H   0  0  0  0  0  0  0  0  0  0  0  0
   45.1886   33.6932   46.3937 H   0  0  0  0  0  0  0  0  0  0  0  0
  1 10  1  0
  2  1  1  0
  3  2  1  0
  3  1  1  0
  4  9  1  0
  4  5  1  0
  5  6  1  0
  5  3  1  0
  7  6  1  0
  8  7  1  0
  8  4  1  0
 10 11  1  0
 11 16  1  0
 12 11  2  0
 12 13  1  0
 13 14  2  0
 14 15  1  0
 16 15  2  0
  1 17  1  6
  2 18  1  0
  2 19  1  0
  3 20  1  1
  4 21  1  1
  5 22  1  1
  6 23  1  0
  6 24  1  0
  8 25  1  0
  8 26  1  0
  9 27  1  0
 10 28  1  0
 10 29  1  0
 12 30  1  0
 13 31  1  0
 15 32  1  0
M  ISO  8  17  13  18  13  19  13  20  13  21  13  22  13  23  13  24  13
M  ISO  8  25  13  26  13  27   3  28   8  29   8  30  14  31  14  32  14
M  END
>  <minimizedAffinity>  (1) 
-4.99095488

>  <minimizedRMSD>  (1) 
1.56504297

$$$$
