
     RDKit          3D

 27 29  0  0  1  0  0  0  0  0999 V2000
   47.4280   34.5600   41.4550 C   0  0  1  0  0  0  0  0  0  0  0  0
   48.6140   35.3720   40.9620 C   0  0  0  0  0  0  0  0  0  0  0  0
   48.3330   33.9970   40.4090 C   0  0  2  0  0  0  0  0  0  0  0  0
   47.9200   33.9350   38.9850 C   0  0  0  0  0  0  0  0  0  0  0  0
   48.5650   34.5720   37.9260 C   0  0  0  0  0  0  0  0  0  0  0  0
   47.8370   34.2340   36.8050 C   0  0  0  0  0  0  0  0  0  0  0  0
   46.7900   33.4190   37.2040 C   0  0  0  0  0  0  0  0  0  0  0  0
   46.8980   33.2830   38.4980 O   0  0  0  0  0  0  0  0  0  0  0  0
   47.5490   33.9760   42.8210 C   0  0  0  0  0  0  0  0  0  0  0  0
   46.4750   34.4170   43.7330 C   0  0  0  0  0  0  0  0  0  0  0  0
   45.7400   35.4900   43.2740 C   0  0  0  0  0  0  0  0  0  0  0  0
   44.6980   36.0270   44.0350 C   0  0  0  0  0  0  0  0  0  0  0  0
   44.4730   35.4170   45.2370 N   0  0  0  0  0  0  0  0  0  0  0  0
   45.2050   34.3600   45.6730 C   0  0  0  0  0  0  0  0  0  0  0  0
   46.1980   33.8620   44.9300 N   0  0  0  0  0  0  0  0  0  0  0  0
   46.3446   34.7330   41.5350 H   0  0  0  0  0  0  0  0  0  0  0  0
   48.4523   36.2626   40.3369 H   0  0  0  0  0  0  0  0  0  0  0  0
   49.4764   35.8647   41.4347 H   0  0  0  0  0  0  0  0  0  0  0  0
   48.8689   33.0399   40.3265 H   0  0  0  0  0  0  0  0  0  0  0  0
   49.4616   35.2074   37.9743 H   0  0  0  0  0  0  0  0  0  0  0  0
   48.0500   34.5550   35.7747 H   0  0  0  0  0  0  0  0  0  0  0  0
   46.0192   32.9740   36.5576 H   0  0  0  0  0  0  0  0  0  0  0  0
   47.5109   32.8798   42.7384 H   0  0  0  0  0  0  0  0  0  0  0  0
   48.5035   34.3224   43.2441 H   0  0  0  0  0  0  0  0  0  0  0  0
   45.9775   35.9298   42.2941 H   0  0  0  0  0  0  0  0  0  0  0  0
   44.0994   36.8829   43.6898 H   0  0  0  0  0  0  0  0  0  0  0  0
   44.9780   33.9079   46.6498 H   0  0  0  0  0  0  0  0  0  0  0  0
  1  9  1  0
  2  1  1  0
  3  2  1  0
  3  1  1  0
  4  3  1  0
  5  4  2  0
  6  7  2  0
  6  5  1  0
  7  8  1  0
  8  4  1  0
  9 10  1  0
 10 15  1  0
 11 10  2  0
 11 12  1  0
 12 13  2  0
 13 14  1  0
 15 14  2  0
  1 16  1  6
  2 17  1  0
  2 18  1  0
  3 19  1  1
  5 20  1  0
  6 21  1  0
  7 22  1  0
  9 23  1  0
  9 24  1  0
 11 25  1  0
 12 26  1  0
 14 27  1  0
M  ISO  8  16  13  17  13  18  13  19  13  20  14  21  14  22  14  23   8
M  ISO  4  24   8  25  14  26  14  27  14
M  END
>  <minimizedAffinity>  (1) 
-4.74783707

>  <minimizedRMSD>  (1) 
1.44433367

$$$$
