
     RDKit          3D

 35 37  0  0  1  0  0  0  0  0999 V2000
   47.6690   35.0960   41.8190 C   0  0  1  0  0  0  0  0  0  0  0  0
   49.1440   34.6820   41.8070 C   0  0  0  0  0  0  0  0  0  0  0  0
   48.4000   34.9740   40.5410 C   0  0  1  0  0  0  0  0  0  0  0  0
   48.0190   33.9330   39.6070 N   0  0  0  0  0  0  0  0  0  0  0  0
   48.9740   32.8360   39.8760 C   0  0  0  0  0  0  0  0  0  0  0  0
   48.8510   31.7640   38.8240 C   0  0  0  0  0  0  0  0  0  0  0  0
   49.1720   32.3610   37.4710 C   0  0  0  0  0  0  0  0  0  0  0  0
   48.0930   33.4240   37.2200 C   0  0  0  0  0  0  0  0  0  0  0  0
   48.3400   34.4730   38.2800 C   0  0  0  0  0  0  0  0  0  0  0  0
   46.7510   34.0230   42.2850 C   0  0  0  0  0  0  0  0  0  0  0  0
   46.0120   34.4090   43.5140 C   0  0  0  0  0  0  0  0  0  0  0  0
   45.2710   35.5660   43.4300 C   0  0  0  0  0  0  0  0  0  0  0  0
   44.5510   36.0140   44.5350 C   0  0  0  0  0  0  0  0  0  0  0  0
   44.6350   35.2480   45.6600 N   0  0  0  0  0  0  0  0  0  0  0  0
   45.3700   34.1090   45.7250 C   0  0  0  0  0  0  0  0  0  0  0  0
   46.0540   33.6930   44.6570 N   0  0  0  0  0  0  0  0  0  0  0  0
   47.0421   35.8977   42.2365 H   0  0  0  0  0  0  0  0  0  0  0  0
   49.9176   35.3757   42.1681 H   0  0  0  0  0  0  0  0  0  0  0  0
   49.7276   33.8365   42.2001 H   0  0  0  0  0  0  0  0  0  0  0  0
   48.6083   35.6377   39.6889 H   0  0  0  0  0  0  0  0  0  0  0  0
   49.9984   33.2367   39.8674 H   0  0  0  0  0  0  0  0  0  0  0  0
   48.7480   32.3988   40.8597 H   0  0  0  0  0  0  0  0  0  0  0  0
   49.5562   30.9490   39.0440 H   0  0  0  0  0  0  0  0  0  0  0  0
   47.8263   31.3640   38.8196 H   0  0  0  0  0  0  0  0  0  0  0  0
   50.1702   32.8229   37.4826 H   0  0  0  0  0  0  0  0  0  0  0  0
   49.1799   31.5957   36.6809 H   0  0  0  0  0  0  0  0  0  0  0  0
   48.1993   33.8556   36.2138 H   0  0  0  0  0  0  0  0  0  0  0  0
   47.0761   33.0079   37.2728 H   0  0  0  0  0  0  0  0  0  0  0  0
   49.3979   34.7734   38.2554 H   0  0  0  0  0  0  0  0  0  0  0  0
   47.6993   35.3447   38.0808 H   0  0  0  0  0  0  0  0  0  0  0  0
   46.0242   33.8082   41.4878 H   0  0  0  0  0  0  0  0  0  0  0  0
   47.3599   33.1381   42.5220 H   0  0  0  0  0  0  0  0  0  0  0  0
   45.2475   36.1369   42.4900 H   0  0  0  0  0  0  0  0  0  0  0  0
   43.9486   36.9338   44.5020 H   0  0  0  0  0  0  0  0  0  0  0  0
   45.4021   33.5282   46.6586 H   0  0  0  0  0  0  0  0  0  0  0  0
  1 10  1  0
  2  1  1  0
  3  2  1  0
  3  1  1  0
  4  5  1  0
  4  3  1  0
  6  5  1  0
  7  6  1  0
  8  7  1  0
  8  9  1  0
  9  4  1  0
 10 11  1  0
 11 16  1  0
 12 11  2  0
 12 13  1  0
 13 14  2  0
 14 15  1  0
 16 15  2  0
  1 17  1  1
  2 18  1  0
  2 19  1  0
  3 20  1  6
  5 21  1  0
  5 22  1  0
  6 23  1  0
  6 24  1  0
  7 25  1  0
  7 26  1  0
  8 27  1  0
  8 28  1  0
  9 29  1  0
  9 30  1  0
 10 31  1  0
 10 32  1  0
 12 33  1  0
 13 34  1  0
 15 35  1  0
M  ISO  8  17  13  18  13  19  13  20  13  21  13  22  13  23  13  24  13
M  ISO  8  25  13  26  13  27  13  28  13  29  13  30  13  31   8  32   8
M  ISO  3  33  14  34  14  35  14
M  END
>  <minimizedAffinity>  (1) 
-4.69310904

>  <minimizedRMSD>  (1) 
1.15910125

$$$$
