
     RDKit          3D

 34 36  0  0  1  0  0  0  0  0999 V2000
   47.2470   34.5350   41.4000 C   0  0  1  0  0  0  0  0  0  0  0  0
   48.4720   35.2020   40.8270 C   0  0  0  0  0  0  0  0  0  0  0  0
   48.0060   33.8790   40.2940 C   0  0  2  0  0  0  0  0  0  0  0  0
   47.5850   33.8770   38.9460 N   0  0  0  0  0  0  0  0  0  0  0  0
   46.4920   33.0730   38.5910 C   0  0  0  0  0  0  0  0  0  0  0  0
   46.7130   32.1190   37.4630 C   0  0  0  0  0  0  0  0  0  0  0  0
   47.8100   32.4830   36.6010 N   0  0  0  0  0  0  0  0  0  0  0  0
   48.0280   33.9110   36.5820 C   0  0  0  0  0  0  0  0  0  0  0  0
   48.4440   34.3640   37.9560 C   0  0  0  0  0  0  0  0  0  0  0  0
   47.4210   33.9600   42.7610 C   0  0  0  0  0  0  0  0  0  0  0  0
   46.4050   34.4360   43.7190 C   0  0  0  0  0  0  0  0  0  0  0  0
   45.6640   35.5260   43.3220 C   0  0  0  0  0  0  0  0  0  0  0  0
   44.6620   36.0110   44.2000 C   0  0  0  0  0  0  0  0  0  0  0  0
   44.5040   35.3550   45.3870 N   0  0  0  0  0  0  0  0  0  0  0  0
   45.2720   34.2810   45.7210 C   0  0  0  0  0  0  0  0  0  0  0  0
   46.2180   33.8260   44.8870 N   0  0  0  0  0  0  0  0  0  0  0  0
   46.1942   34.8158   41.5507 H   0  0  0  0  0  0  0  0  0  0  0  0
   48.3698   36.1100   40.2146 H   0  0  0  0  0  0  0  0  0  0  0  0
   49.4154   35.5888   41.2398 H   0  0  0  0  0  0  0  0  0  0  0  0
   48.3910   32.8544   40.1842 H   0  0  0  0  0  0  0  0  0  0  0  0
   46.2061   32.4856   39.4760 H   0  0  0  0  0  0  0  0  0  0  0  0
   45.7165   33.7695   38.2395 H   0  0  0  0  0  0  0  0  0  0  0  0
   46.9186   31.1242   37.8850 H   0  0  0  0  0  0  0  0  0  0  0  0
   45.8019   32.1341   36.8468 H   0  0  0  0  0  0  0  0  0  0  0  0
   48.6661   32.0197   36.9376 H   0  0  0  0  0  0  0  0  0  0  0  0
   48.8206   34.1530   35.8586 H   0  0  0  0  0  0  0  0  0  0  0  0
   47.1003   34.4237   36.2878 H   0  0  0  0  0  0  0  0  0  0  0  0
   48.4349   35.4635   37.9862 H   0  0  0  0  0  0  0  0  0  0  0  0
   49.4520   33.9711   38.1547 H   0  0  0  0  0  0  0  0  0  0  0  0
   47.3514   32.8645   42.6908 H   0  0  0  0  0  0  0  0  0  0  0  0
   48.4039   34.2844   43.1335 H   0  0  0  0  0  0  0  0  0  0  0  0
   45.8444   36.0078   42.3497 H   0  0  0  0  0  0  0  0  0  0  0  0
   44.0388   36.8783   43.9363 H   0  0  0  0  0  0  0  0  0  0  0  0
   45.1141   33.7803   46.6876 H   0  0  0  0  0  0  0  0  0  0  0  0
  1 10  1  0
  2  1  1  0
  3  2  1  0
  3  1  1  0
  4  9  1  0
  4  3  1  0
  5  4  1  0
  6  5  1  0
  7  6  1  0
  8  7  1  0
  8  9  1  0
 10 11  1  0
 11 16  1  0
 12 11  2  0
 12 13  1  0
 13 14  2  0
 14 15  1  0
 16 15  2  0
  1 17  1  6
  2 18  1  0
  2 19  1  0
  3 20  1  1
  5 21  1  0
  5 22  1  0
  6 23  1  0
  6 24  1  0
  7 25  1  0
  8 26  1  0
  8 27  1  0
  9 28  1  0
  9 29  1  0
 10 30  1  0
 10 31  1  0
 12 32  1  0
 13 33  1  0
 15 34  1  0
M  ISO  8  17  13  18  13  19  13  20  13  21  13  22  13  23  13  24  13
M  ISO  8  25   5  26  13  27  13  28  13  29  13  30   8  31   8  32  14
M  ISO  2  33  14  34  14
M  END
>  <minimizedAffinity>  (1) 
-4.58012342

>  <minimizedRMSD>  (1) 
1.45586443

$$$$
