
     RDKit          3D

 23 24  0  0  1  0  0  0  0  0999 V2000
   47.3190   34.0570   42.5910 C   0  0  0  0  0  0  0  0  0  0  0  0
   46.3810   34.4130   43.6670 C   0  0  0  0  0  0  0  0  0  0  0  0
   45.5480   35.4830   43.4330 C   0  0  0  0  0  0  0  0  0  0  0  0
   44.6160   35.8540   44.4290 C   0  0  0  0  0  0  0  0  0  0  0  0
   44.6110   35.1090   45.5700 N   0  0  0  0  0  0  0  0  0  0  0  0
   45.4540   34.0600   45.7530 C   0  0  0  0  0  0  0  0  0  0  0  0
   46.3320   33.7180   44.8070 N   0  0  0  0  0  0  0  0  0  0  0  0
   47.4910   35.1510   41.5910 C   0  0  1  0  0  0  0  0  0  0  0  0
   48.9400   35.5910   41.4100 C   0  0  0  0  0  0  0  0  0  0  0  0
   48.2450   34.8070   40.3520 C   0  0  1  0  0  0  0  0  0  0  0  0
   48.5330   33.3670   40.1180 C   0  0  0  0  0  0  0  0  0  0  0  0
   49.5000   32.9540   41.0130 F   0  0  0  0  0  0  0  0  0  0  0  0
   48.8650   33.0540   38.8160 F   0  0  0  0  0  0  0  0  0  0  0  0
   47.4090   32.5870   40.4170 F   0  0  0  0  0  0  0  0  0  0  0  0
   48.2985   33.8320   43.0383 H   0  0  0  0  0  0  0  0  0  0  0  0
   46.9032   33.1865   42.0625 H   0  0  0  0  0  0  0  0  0  0  0  0
   45.6064   36.0405   42.4865 H   0  0  0  0  0  0  0  0  0  0  0  0
   43.9291   36.7018   44.2899 H   0  0  0  0  0  0  0  0  0  0  0  0
   45.4130   33.4861   46.6905 H   0  0  0  0  0  0  0  0  0  0  0  0
   46.5253   35.6376   41.7925 H   0  0  0  0  0  0  0  0  0  0  0  0
   49.1781   36.6520   41.2442 H   0  0  0  0  0  0  0  0  0  0  0  0
   49.8703   35.4751   41.9855 H   0  0  0  0  0  0  0  0  0  0  0  0
   48.1243   34.9718   39.2711 H   0  0  0  0  0  0  0  0  0  0  0  0
  1  2  1  0
  2  7  1  0
  3  2  2  0
  3  4  1  0
  4  5  2  0
  5  6  1  0
  7  6  2  0
  8  1  1  0
  9  8  1  0
 10  9  1  0
 10  8  1  0
 11 10  1  0
 11 14  1  0
 11 12  1  0
 13 11  1  0
  1 15  1  0
  1 16  1  0
  3 17  1  0
  4 18  1  0
  6 19  1  0
  8 20  1  6
  9 21  1  0
  9 22  1  0
 10 23  1  6
M  ISO  8  15   8  16   8  17  14  18  14  19  14  20  13  21  13  22  13
M  ISO  1  23  13
M  END
>  <minimizedAffinity>  (1) 
-4.56838131

>  <minimizedRMSD>  (1) 
0.49500221

$$$$
