
     RDKit          3D

 27 29  0  0  1  0  0  0  0  0999 V2000
   47.5410   33.9210   42.8040 C   0  0  0  0  0  0  0  0  0  0  0  0
   46.4770   34.3770   43.7260 C   0  0  0  0  0  0  0  0  0  0  0  0
   45.7550   35.4530   43.2540 C   0  0  0  0  0  0  0  0  0  0  0  0
   44.7160   36.0150   44.0160 C   0  0  0  0  0  0  0  0  0  0  0  0
   44.4800   35.4280   45.2280 N   0  0  0  0  0  0  0  0  0  0  0  0
   45.2110   34.3680   45.6630 C   0  0  0  0  0  0  0  0  0  0  0  0
   46.1950   33.8440   44.9290 N   0  0  0  0  0  0  0  0  0  0  0  0
   47.5240   34.6630   41.5090 C   0  0  1  0  0  0  0  0  0  0  0  0
   48.7710   35.4880   41.2050 C   0  0  0  0  0  0  0  0  0  0  0  0
   48.4710   34.2440   40.4330 C   0  0  2  0  0  0  0  0  0  0  0  0
   48.0800   34.3880   39.0040 C   0  0  0  0  0  0  0  0  0  0  0  0
   48.5870   33.3580   38.0260 C   0  0  0  0  0  0  0  0  0  0  0  0
   47.1340   33.4500   38.3550 C   0  0  0  0  0  0  0  0  0  0  0  0
   48.5174   34.0744   43.2869 H   0  0  0  0  0  0  0  0  0  0  0  0
   47.3640   32.8576   42.5852 H   0  0  0  0  0  0  0  0  0  0  0  0
   45.9954   35.8772   42.2680 H   0  0  0  0  0  0  0  0  0  0  0  0
   44.1290   36.8741   43.6591 H   0  0  0  0  0  0  0  0  0  0  0  0
   44.9856   33.9301   46.6466 H   0  0  0  0  0  0  0  0  0  0  0  0
   46.4388   34.8388   41.5477 H   0  0  0  0  0  0  0  0  0  0  0  0
   48.6777   36.4726   40.7234 H   0  0  0  0  0  0  0  0  0  0  0  0
   49.6256   35.8584   41.7902 H   0  0  0  0  0  0  0  0  0  0  0  0
   49.0091   33.3088   40.2188 H   0  0  0  0  0  0  0  0  0  0  0  0
   48.1106   35.4832   39.1020 H   0  0  0  0  0  0  0  0  0  0  0  0
   49.1809   32.5034   38.3823 H   0  0  0  0  0  0  0  0  0  0  0  0
   49.1833   33.3830   37.1020 H   0  0  0  0  0  0  0  0  0  0  0  0
   46.4246   33.8222   37.6012 H   0  0  0  0  0  0  0  0  0  0  0  0
   46.3784   32.7391   38.7205 H   0  0  0  0  0  0  0  0  0  0  0  0
  1  2  1  0
  2  7  1  0
  3  2  2  0
  3  4  1  0
  4  5  2  0
  5  6  1  0
  7  6  2  0
  8  1  1  0
  9  8  1  0
 10  9  1  0
 10  8  1  0
 11 10  1  0
 12 13  1  0
 12 11  1  0
 13 11  1  0
  1 14  1  0
  1 15  1  0
  3 16  1  0
  4 17  1  0
  6 18  1  0
  8 19  1  6
  9 20  1  0
  9 21  1  0
 10 22  1  1
 11 23  1  0
 12 24  1  0
 12 25  1  0
 13 26  1  0
 13 27  1  0
M  ISO  8  14   8  15   8  16  14  17  14  18  14  19  13  20  13  21  13
M  ISO  6  22  13  23  13  24  13  25  13  26  13  27  13
M  END
>  <minimizedAffinity>  (1) 
-4.36691523

>  <minimizedRMSD>  (1) 
1.00718677

$$$$
