
     RDKit          3D

 23 24  0  0  1  0  0  0  0  0999 V2000
   47.5360   33.9220   42.8000 C   0  0  0  0  0  0  0  0  0  0  0  0
   46.4690   34.3890   43.7110 C   0  0  0  0  0  0  0  0  0  0  0  0
   45.7530   35.4630   43.2310 C   0  0  0  0  0  0  0  0  0  0  0  0
   44.7150   36.0210   43.9980 C   0  0  0  0  0  0  0  0  0  0  0  0
   44.4850   35.4310   45.2070 N   0  0  0  0  0  0  0  0  0  0  0  0
   45.2010   34.3710   45.6630 C   0  0  0  0  0  0  0  0  0  0  0  0
   46.1810   33.8680   44.9060 N   0  0  0  0  0  0  0  0  0  0  0  0
   47.5620   34.6920   41.5150 C   0  0  1  0  0  0  0  0  0  0  0  0
   48.8160   35.5150   41.3030 C   0  0  0  0  0  0  0  0  0  0  0  0
   48.5420   34.2900   40.4660 C   0  0  2  0  0  0  0  0  0  0  0  0
   48.0910   34.4300   39.0310 C   0  0  0  0  0  0  0  0  0  0  0  0
   48.5073   34.0395   43.3028 H   0  0  0  0  0  0  0  0  0  0  0  0
   47.3348   32.8681   42.5575 H   0  0  0  0  0  0  0  0  0  0  0  0
   45.9939   35.8857   42.2444 H   0  0  0  0  0  0  0  0  0  0  0  0
   44.1249   36.8798   43.6455 H   0  0  0  0  0  0  0  0  0  0  0  0
   44.9766   33.9307   46.6457 H   0  0  0  0  0  0  0  0  0  0  0  0
   46.4765   34.8697   41.5046 H   0  0  0  0  0  0  0  0  0  0  0  0
   48.7499   36.5170   40.8540 H   0  0  0  0  0  0  0  0  0  0  0  0
   49.6440   35.8590   41.9402 H   0  0  0  0  0  0  0  0  0  0  0  0
   49.1335   33.3930   40.2303 H   0  0  0  0  0  0  0  0  0  0  0  0
   47.0407   34.7560   39.0069 H   0  0  0  0  0  0  0  0  0  0  0  0
   48.7182   35.1757   38.5206 H   0  0  0  0  0  0  0  0  0  0  0  0
   48.1857   33.4602   38.5206 H   0  0  0  0  0  0  0  0  0  0  0  0
  1  2  1  0
  2  7  1  0
  3  2  2  0
  3  4  1  0
  4  5  2  0
  5  6  1  0
  7  6  2  0
  8  1  1  0
  9  8  1  0
 10  9  1  0
 10  8  1  0
 11 10  1  0
  1 12  1  0
  1 13  1  0
  3 14  1  0
  4 15  1  0
  6 16  1  0
  8 17  1  6
  9 18  1  0
  9 19  1  0
 10 20  1  1
 11 21  1  0
 11 22  1  0
 11 23  1  0
M  ISO  8  12   8  13   8  14  14  15  14  16  14  17  13  18  13  19  13
M  ISO  4  20  13  21   8  22   8  23   8
M  END
>  <minimizedAffinity>  (1) 
-4.17783546

>  <minimizedRMSD>  (1) 
0.51007551

$$$$
