
     RDKit          3D

 33 35  0  0  1  0  0  0  0  0999 V2000
   47.5840   35.2320   41.7780 C   0  0  1  0  0  0  0  0  0  0  0  0
   49.0700   35.5190   41.5980 C   0  0  0  0  0  0  0  0  0  0  0  0
   48.2470   34.9500   40.4640 C   0  0  1  0  0  0  0  0  0  0  0  0
   47.2230   34.0470   42.5740 C   0  0  0  0  0  0  0  0  0  0  0  0
   46.3510   34.3090   43.7220 C   0  0  0  0  0  0  0  0  0  0  0  0
   45.5150   35.3770   43.5350 C   0  0  0  0  0  0  0  0  0  0  0  0
   44.6170   35.7650   44.5550 C   0  0  0  0  0  0  0  0  0  0  0  0
   44.6650   34.9990   45.7000 N   0  0  0  0  0  0  0  0  0  0  0  0
   45.4990   33.9510   45.8560 C   0  0  0  0  0  0  0  0  0  0  0  0
   46.3240   33.6250   44.8720 N   0  0  0  0  0  0  0  0  0  0  0  0
   48.4590   33.6370   40.1350 O   0  0  0  0  0  0  0  0  0  0  0  0
   48.2990   34.6530   37.6690 O   0  0  0  0  0  0  0  0  0  0  0  0
   48.3690   33.3750   38.4610 P   0  0  1  0  0  0  0  0  0  0  0  0
   49.8310   32.5970   38.0060 O   0  0  0  0  0  0  0  0  0  0  0  0
   47.0830   32.3450   38.1130 O   0  0  0  0  0  0  0  0  0  0  0  0
   46.5210   32.4390   36.8340 C   0  0  0  0  0  0  0  0  0  0  0  0
   45.3800   33.1520   36.5390 C   0  0  0  0  0  0  0  0  0  0  0  0
   45.1240   33.0280   35.2170 N   0  0  0  0  0  0  0  0  0  0  0  0
   46.0800   32.2520   34.6760 C   0  0  0  0  0  0  0  0  0  0  0  0
   46.9120   31.9110   35.6800 N   0  0  0  0  0  0  0  0  0  0  0  0
   46.7201   35.8250   42.1128 H   0  0  0  0  0  0  0  0  0  0  0  0
   49.4304   36.5573   41.5521 H   0  0  0  0  0  0  0  0  0  0  0  0
   49.9928   35.2252   42.1196 H   0  0  0  0  0  0  0  0  0  0  0  0
   48.0543   35.2459   39.4222 H   0  0  0  0  0  0  0  0  0  0  0  0
   46.7086   33.3356   41.9112 H   0  0  0  0  0  0  0  0  0  0  0  0
   48.1651   33.6589   42.9884 H   0  0  0  0  0  0  0  0  0  0  0  0
   45.5424   35.9351   42.5875 H   0  0  0  0  0  0  0  0  0  0  0  0
   43.9296   36.6165   44.4433 H   0  0  0  0  0  0  0  0  0  0  0  0
   45.4944   33.3722   46.7914 H   0  0  0  0  0  0  0  0  0  0  0  0
   50.3302   32.3314   38.8186 H   0  0  0  0  0  0  0  0  0  0  0  0
   44.7778   33.7262   37.2585 H   0  0  0  0  0  0  0  0  0  0  0  0
   44.3338   33.4540   34.7119 H   0  0  0  0  0  0  0  0  0  0  0  0
   46.1660   31.9540   33.6206 H   0  0  0  0  0  0  0  0  0  0  0  0
  1  4  1  0
  2  1  1  0
  3  2  1  0
  3  1  1  0
  4  5  1  0
  5 10  1  0
  6  5  2  0
  6  7  1  0
  7  8  2  0
  8  9  1  0
 10  9  2  0
 11  3  1  0
 13 12  2  0
 13 11  1  0
 14 13  1  0
 15 13  1  0
 16 15  1  0
 17 16  2  0
 18 17  1  0
 19 18  1  0
 19 20  2  0
 20 16  1  0
  1 21  1  6
  2 22  1  0
  2 23  1  0
  3 24  1  6
  4 25  1  0
  4 26  1  0
  6 27  1  0
  7 28  1  0
  9 29  1  0
 14 30  1  0
 17 31  1  0
 18 32  1  0
 19 33  1  0
M  ISO  8  21  13  22  13  23  13  24  13  25   8  26   8  27  14  28  14
M  ISO  5  29  14  30   3  31  14  32   9  33  14
M  END
>  <minimizedAffinity>  (1) 
-5.37704849

>  <minimizedRMSD>  (1) 
1.29455388

$$$$
