
     RDKit          3D

 36 38  0  0  1  0  0  0  0  0999 V2000
   47.6200   35.2170   41.8660 C   0  0  1  0  0  0  0  0  0  0  0  0
   49.0680   35.5500   41.5250 C   0  0  0  0  0  0  0  0  0  0  0  0
   48.1710   34.8740   40.5130 C   0  0  1  0  0  0  0  0  0  0  0  0
   47.4030   34.0740   42.7720 C   0  0  0  0  0  0  0  0  0  0  0  0
   46.4460   34.3210   43.8620 C   0  0  0  0  0  0  0  0  0  0  0  0
   45.6160   35.3820   43.6260 C   0  0  0  0  0  0  0  0  0  0  0  0
   44.6510   35.7560   44.5890 C   0  0  0  0  0  0  0  0  0  0  0  0
   44.6340   34.9830   45.7300 N   0  0  0  0  0  0  0  0  0  0  0  0
   45.4660   33.9420   45.9340 C   0  0  0  0  0  0  0  0  0  0  0  0
   46.3570   33.6250   45.0040 N   0  0  0  0  0  0  0  0  0  0  0  0
   48.4070   33.5500   40.2500 O   0  0  0  0  0  0  0  0  0  0  0  0
   47.3520   33.9160   37.8240 O   0  0  0  0  0  0  0  0  0  0  0  0
   47.4460   32.9550   38.9950 P   0  0  1  0  0  0  0  0  0  0  0  0
   48.2010   31.5310   38.4110 O   0  0  0  0  0  0  0  0  0  0  0  0
   45.9310   32.5450   39.5940 O   0  0  0  0  0  0  0  0  0  0  0  0
   44.2240   32.5020   37.4340 F   0  0  0  0  0  0  0  0  0  0  0  0
   43.9510   33.2990   38.4980 C   0  0  0  0  0  0  0  0  0  0  0  0
   44.7990   33.3300   39.5860 C   0  0  0  0  0  0  0  0  0  0  0  0
   44.4240   34.1760   40.6100 C   0  0  0  0  0  0  0  0  0  0  0  0
   43.2910   34.9600   40.6000 C   0  0  0  0  0  0  0  0  0  0  0  0
   42.4590   34.9130   39.5010 C   0  0  0  0  0  0  0  0  0  0  0  0
   42.7980   34.0770   38.4520 C   0  0  0  0  0  0  0  0  0  0  0  0
   46.7614   35.7933   42.2410 H   0  0  0  0  0  0  0  0  0  0  0  0
   49.3743   36.5964   41.3793 H   0  0  0  0  0  0  0  0  0  0  0  0
   50.0480   35.3286   41.9729 H   0  0  0  0  0  0  0  0  0  0  0  0
   47.8718   35.0922   39.4772 H   0  0  0  0  0  0  0  0  0  0  0  0
   47.0293   33.2299   42.1738 H   0  0  0  0  0  0  0  0  0  0  0  0
   48.3720   33.8721   43.2518 H   0  0  0  0  0  0  0  0  0  0  0  0
   45.6995   35.9455   42.6850 H   0  0  0  0  0  0  0  0  0  0  0  0
   43.9641   36.6019   44.4387 H   0  0  0  0  0  0  0  0  0  0  0  0
   45.4063   33.3596   46.8652 H   0  0  0  0  0  0  0  0  0  0  0  0
   48.4953   30.9760   39.1761 H   0  0  0  0  0  0  0  0  0  0  0  0
   45.0747   34.2279   41.4954 H   0  0  0  0  0  0  0  0  0  0  0  0
   43.0542   35.6120   41.4537 H   0  0  0  0  0  0  0  0  0  0  0  0
   41.5467   35.5262   39.4594 H   0  0  0  0  0  0  0  0  0  0  0  0
   42.1458   34.0265   37.5676 H   0  0  0  0  0  0  0  0  0  0  0  0
  1  4  1  0
  2  1  1  0
  3  2  1  0
  3  1  1  0
  4  5  1  0
  5 10  1  0
  6  5  2  0
  6  7  1  0
  7  8  2  0
  8  9  1  0
 10  9  2  0
 11  3  1  0
 13 12  2  0
 13 15  1  0
 13 11  1  0
 14 13  1  0
 16 17  1  0
 17 18  2  0
 18 15  1  0
 18 19  1  0
 20 19  2  0
 21 20  1  0
 22 17  1  0
 22 21  2  0
  1 23  1  6
  2 24  1  0
  2 25  1  0
  3 26  1  6
  4 27  1  0
  4 28  1  0
  6 29  1  0
  7 30  1  0
  9 31  1  0
 14 32  1  0
 19 33  1  0
 20 34  1  0
 21 35  1  0
 22 36  1  0
M  ISO  8  23  13  24  13  25  13  26  13  27   8  28   8  29  14  30  14
M  ISO  6  31  14  32   3  33  14  34  14  35  14  36  14
M  END
>  <minimizedAffinity>  (1) 
-5.18718052

>  <minimizedRMSD>  (1) 
1.6457479

$$$$
