
     RDKit          3D

 30 31  0  0  1  0  0  0  0  0999 V2000
   47.6310   35.2460   41.8570 C   0  0  1  0  0  0  0  0  0  0  0  0
   49.1390   35.3880   41.6800 C   0  0  0  0  0  0  0  0  0  0  0  0
   48.2570   34.9920   40.5210 C   0  0  1  0  0  0  0  0  0  0  0  0
   47.1540   34.0490   42.5730 C   0  0  0  0  0  0  0  0  0  0  0  0
   46.2920   34.3240   43.7310 C   0  0  0  0  0  0  0  0  0  0  0  0
   45.4690   35.4020   43.5490 C   0  0  0  0  0  0  0  0  0  0  0  0
   44.5920   35.8020   44.5830 C   0  0  0  0  0  0  0  0  0  0  0  0
   44.6460   35.0380   45.7270 N   0  0  0  0  0  0  0  0  0  0  0  0
   45.4670   33.9790   45.8770 C   0  0  0  0  0  0  0  0  0  0  0  0
   46.2750   33.6400   44.8800 N   0  0  0  0  0  0  0  0  0  0  0  0
   48.3050   33.6880   40.0890 O   0  0  0  0  0  0  0  0  0  0  0  0
   48.5380   34.9020   37.7190 O   0  0  0  0  0  0  0  0  0  0  0  0
   48.3310   33.5620   38.4070 P   0  0  1  0  0  0  0  0  0  0  0  0
   49.6660   32.5690   37.9880 O   0  0  0  0  0  0  0  0  0  0  0  0
   46.9150   32.8180   37.8860 O   0  0  0  0  0  0  0  0  0  0  0  0
   46.3310   32.9230   36.6480 C   0  0  0  0  0  0  0  0  0  0  0  0
   46.7770   32.2930   35.6410 O   0  0  0  0  0  0  0  0  0  0  0  0
   45.1970   33.8140   36.6930 N   0  0  0  0  0  0  0  0  0  0  0  0
   46.8341   35.8996   42.2415 H   0  0  0  0  0  0  0  0  0  0  0  0
   49.6066   36.3834   41.7034 H   0  0  0  0  0  0  0  0  0  0  0  0
   50.0281   34.9625   42.1683 H   0  0  0  0  0  0  0  0  0  0  0  0
   48.1050   35.3824   39.5039 H   0  0  0  0  0  0  0  0  0  0  0  0
   46.5857   33.4299   41.8632 H   0  0  0  0  0  0  0  0  0  0  0  0
   48.0501   33.5474   42.9673 H   0  0  0  0  0  0  0  0  0  0  0  0
   45.4898   35.9566   42.5993 H   0  0  0  0  0  0  0  0  0  0  0  0
   43.9145   36.6626   44.4808 H   0  0  0  0  0  0  0  0  0  0  0  0
   45.4672   33.4030   46.8142 H   0  0  0  0  0  0  0  0  0  0  0  0
   50.1057   32.2420   38.8125 H   0  0  0  0  0  0  0  0  0  0  0  0
   44.6515   33.9968   35.8387 H   0  0  0  0  0  0  0  0  0  0  0  0
   44.9330   34.2672   37.5795 H   0  0  0  0  0  0  0  0  0  0  0  0
  1  4  1  0
  2  1  1  0
  3  2  1  0
  3  1  1  0
  4  5  1  0
  5 10  1  0
  6  5  2  0
  6  7  1  0
  7  8  2  0
  8  9  1  0
 10  9  2  0
 11  3  1  0
 13 12  2  0
 13 11  1  0
 14 13  1  0
 15 13  1  0
 16 18  1  0
 16 15  1  0
 17 16  2  0
  1 19  1  6
  2 20  1  0
  2 21  1  0
  3 22  1  6
  4 23  1  0
  4 24  1  0
  6 25  1  0
  7 26  1  0
  9 27  1  0
 14 28  1  0
 18 29  1  0
 18 30  1  0
M  ISO  8  19  13  20  13  21  13  22  13  23   8  24   8  25  14  26  14
M  ISO  2  27  14  28   3
M  END
>  <minimizedAffinity>  (1) 
-5.06249428

>  <minimizedRMSD>  (1) 
1.41776037

$$$$
