
     RDKit          3D

 29 30  0  0  1  0  0  0  0  0999 V2000
   47.5920   35.2440   41.8050 C   0  0  1  0  0  0  0  0  0  0  0  0
   49.0750   35.5580   41.6600 C   0  0  0  0  0  0  0  0  0  0  0  0
   48.2990   34.9680   40.5100 C   0  0  1  0  0  0  0  0  0  0  0  0
   47.2300   34.0560   42.5960 C   0  0  0  0  0  0  0  0  0  0  0  0
   46.3480   34.3250   43.7400 C   0  0  0  0  0  0  0  0  0  0  0  0
   45.5100   35.3900   43.5500 C   0  0  0  0  0  0  0  0  0  0  0  0
   44.6130   35.7710   44.5620 C   0  0  0  0  0  0  0  0  0  0  0  0
   44.6510   35.0080   45.7090 N   0  0  0  0  0  0  0  0  0  0  0  0
   45.4880   33.9610   45.8680 C   0  0  0  0  0  0  0  0  0  0  0  0
   46.3190   33.6370   44.8890 N   0  0  0  0  0  0  0  0  0  0  0  0
   48.5050   33.6480   40.1850 O   0  0  0  0  0  0  0  0  0  0  0  0
   48.2400   34.6360   37.7150 O   0  0  0  0  0  0  0  0  0  0  0  0
   48.3950   33.3640   38.5320 P   0  0  1  0  0  0  0  0  0  0  0  0
   49.8290   32.5970   38.0200 O   0  0  0  0  0  0  0  0  0  0  0  0
   47.0830   32.3150   38.2530 O   0  0  0  0  0  0  0  0  0  0  0  0
   46.5860   31.9000   39.4730 C   0  0  0  0  0  0  0  0  0  0  0  0
   46.7088   35.8219   42.1149 H   0  0  0  0  0  0  0  0  0  0  0  0
   49.4161   36.6029   41.6170 H   0  0  0  0  0  0  0  0  0  0  0  0
   49.9888   35.2848   42.2080 H   0  0  0  0  0  0  0  0  0  0  0  0
   48.1526   35.2590   39.4593 H   0  0  0  0  0  0  0  0  0  0  0  0
   46.7203   33.3437   41.9306 H   0  0  0  0  0  0  0  0  0  0  0  0
   48.1688   33.6630   43.0134 H   0  0  0  0  0  0  0  0  0  0  0  0
   45.5387   35.9489   42.6030 H   0  0  0  0  0  0  0  0  0  0  0  0
   43.9258   36.6221   44.4464 H   0  0  0  0  0  0  0  0  0  0  0  0
   45.4799   33.3816   46.8030 H   0  0  0  0  0  0  0  0  0  0  0  0
   50.3537   32.3163   38.8112 H   0  0  0  0  0  0  0  0  0  0  0  0
   47.1572   32.3770   40.2831 H   0  0  0  0  0  0  0  0  0  0  0  0
   45.5268   32.1857   39.5538 H   0  0  0  0  0  0  0  0  0  0  0  0
   46.6781   30.8068   39.5538 H   0  0  0  0  0  0  0  0  0  0  0  0
  1  4  1  0
  2  1  1  0
  3  2  1  0
  3  1  1  0
  4  5  1  0
  5 10  1  0
  6  5  2  0
  6  7  1  0
  7  8  2  0
  8  9  1  0
 10  9  2  0
 11  3  1  0
 13 12  2  0
 13 11  1  0
 14 13  1  0
 15 13  1  0
 15 16  1  0
  1 17  1  6
  2 18  1  0
  2 19  1  0
  3 20  1  6
  4 21  1  0
  4 22  1  0
  6 23  1  0
  7 24  1  0
  9 25  1  0
 14 26  1  0
 16 27  1  0
 16 28  1  0
 16 29  1  0
M  ISO  8  17  13  18  13  19  13  20  13  21   8  22   8  23  14  24  14
M  ISO  5  25  14  26   3  27   8  28   8  29   8
M  END
>  <minimizedAffinity>  (1) 
-4.48897409

>  <minimizedRMSD>  (1) 
0.271488041

$$$$
