
     RDKit          3D

 21 22  0  0  0  0  0  0  0  0999 V2000
   44.6780   35.2160   45.1870 C   0  0  0  0  0  0  0  0  0  0  0  0
   45.3830   35.0200   43.9970 C   0  0  0  0  0  0  0  0  0  0  0  0
   46.3240   34.0000   43.9040 C   0  0  0  0  0  0  0  0  0  0  0  0
   46.5260   33.2160   45.0050 N   0  0  0  0  0  0  0  0  0  0  0  0
   45.8320   33.4240   46.1470 C   0  0  0  0  0  0  0  0  0  0  0  0
   44.9250   34.4080   46.2310 N   0  0  0  0  0  0  0  0  0  0  0  0
   46.0750   32.5650   47.3010 C   0  0  0  0  0  0  0  0  0  0  0  0
   47.3160   32.1580   47.6660 C   0  0  0  0  0  0  0  0  0  0  0  0
   47.5630   31.3470   48.7540 C   0  0  0  0  0  0  0  0  0  0  0  0
   46.4810   30.9510   49.4770 N   0  0  0  0  0  0  0  0  0  0  0  0
   45.2430   31.3550   49.1130 C   0  0  0  0  0  0  0  0  0  0  0  0
   45.0000   32.1530   48.0440 N   0  0  0  0  0  0  0  0  0  0  0  0
   45.1320   35.9050   42.8080 C   0  0  0  0  0  0  0  0  0  0  0  0
   43.8120   35.7970   42.3800 F   0  0  0  0  0  0  0  0  0  0  0  0
   45.3110   37.2490   43.1630 F   0  0  0  0  0  0  0  0  0  0  0  0
   46.0190   35.5770   41.8110 F   0  0  0  0  0  0  0  0  0  0  0  0
   43.9317   36.0201   45.2678 H   0  0  0  0  0  0  0  0  0  0  0  0
   46.8872   33.8299   42.9746 H   0  0  0  0  0  0  0  0  0  0  0  0
   48.1720   32.4928   47.0617 H   0  0  0  0  0  0  0  0  0  0  0  0
   48.5832   31.0362   49.0234 H   0  0  0  0  0  0  0  0  0  0  0  0
   44.3872   31.0182   49.7164 H   0  0  0  0  0  0  0  0  0  0  0  0
  1  6  2  0
  2  1  1  0
  3  2  2  0
  3  4  1  0
  4  5  2  0
  5  6  1  0
  5  7  1  0
  7  8  2  0
  7 12  1  0
  8  9  1  0
  9 10  2  0
 11 10  1  0
 12 11  2  0
 13 15  1  0
 13  2  1  0
 14 13  1  0
 16 13  1  0
  1 17  1  0
  3 18  1  0
  8 19  1  0
  9 20  1  0
 11 21  1  0
M  ISO  5  17  14  18  14  19  14  20  14  21  14
M  END
>  <minimizedAffinity>  (1) 
-5.24577093

>  <minimizedRMSD>  (1) 
0.965811729

$$$$
