
     RDKit          3D

 19 20  0  0  0  0  0  0  0  0999 V2000
   44.4510   35.7560   44.9880 C   0  0  0  0  0  0  0  0  0  0  0  0
   45.0520   35.7030   43.7300 C   0  0  0  0  0  0  0  0  0  0  0  0
   45.9890   34.6910   43.4480 C   0  0  0  0  0  0  0  0  0  0  0  0
   46.2420   33.8130   44.4630 N   0  0  0  0  0  0  0  0  0  0  0  0
   45.6550   33.8810   45.6600 C   0  0  0  0  0  0  0  0  0  0  0  0
   44.7650   34.8410   45.9320 N   0  0  0  0  0  0  0  0  0  0  0  0
   45.9760   32.9060   46.6990 C   0  0  0  0  0  0  0  0  0  0  0  0
   47.0620   32.0830   46.5940 C   0  0  0  0  0  0  0  0  0  0  0  0
   47.4030   31.1520   47.5420 C   0  0  0  0  0  0  0  0  0  0  0  0
   46.5870   31.0820   48.6300 N   0  0  0  0  0  0  0  0  0  0  0  0
   45.5220   31.8880   48.7340 C   0  0  0  0  0  0  0  0  0  0  0  0
   45.1740   32.8150   47.7990 N   0  0  0  0  0  0  0  0  0  0  0  0
   44.7300   36.6380   42.7680 O   0  0  0  0  0  0  0  0  0  0  0  0
   43.7187   36.5456   45.2125 H   0  0  0  0  0  0  0  0  0  0  0  0
   46.4868   34.6122   42.4702 H   0  0  0  0  0  0  0  0  0  0  0  0
   47.6974   32.1720   45.7005 H   0  0  0  0  0  0  0  0  0  0  0  0
   48.2827   30.5011   47.4301 H   0  0  0  0  0  0  0  0  0  0  0  0
   44.8899   31.7954   49.6295 H   0  0  0  0  0  0  0  0  0  0  0  0
   45.1579   36.5981   41.8761 H   0  0  0  0  0  0  0  0  0  0  0  0
  1  6  2  0
  2  1  1  0
  3  2  2  0
  3  4  1  0
  4  5  2  0
  5  6  1  0
  5  7  1  0
  7 12  1  0
  8  7  2  0
  8  9  1  0
  9 10  2  0
 10 11  1  0
 12 11  2  0
 13  2  1  0
  1 14  1  0
  3 15  1  0
  8 16  1  0
  9 17  1  0
 11 18  1  0
 13 19  1  0
M  ISO  6  14  14  15  14  16  14  17  14  18  14  19   3
M  END
>  <minimizedAffinity>  (1) 
-4.67525196

>  <minimizedRMSD>  (1) 
0.233067051

$$$$
