
     RDKit          3D

 31 33  0  0  0  0  0  0  0  0999 V2000
   45.8390   33.4100   45.8570 C   0  0  0  0  0  0  0  0  0  0  0  0
   46.0170   33.0390   44.5140 C   0  0  0  0  0  0  0  0  0  0  0  0
   46.8600   31.9900   44.1670 C   0  0  0  0  0  0  0  0  0  0  0  0
   47.5000   31.3450   45.1860 N   0  0  0  0  0  0  0  0  0  0  0  0
   47.3120   31.7210   46.4760 C   0  0  0  0  0  0  0  0  0  0  0  0
   46.4930   32.7400   46.8120 N   0  0  0  0  0  0  0  0  0  0  0  0
   48.0220   30.9940   47.5360 C   0  0  0  0  0  0  0  0  0  0  0  0
   48.4150   29.7080   47.4030 C   0  0  0  0  0  0  0  0  0  0  0  0
   49.0790   29.0070   48.3740 C   0  0  0  0  0  0  0  0  0  0  0  0
   49.3360   29.6810   49.5180 N   0  0  0  0  0  0  0  0  0  0  0  0
   48.9480   30.9660   49.6610 C   0  0  0  0  0  0  0  0  0  0  0  0
   48.2920   31.6640   48.7060 N   0  0  0  0  0  0  0  0  0  0  0  0
   44.3450   33.4360   42.6190 C   0  0  0  0  0  0  0  0  0  0  0  0
   45.2500   33.8520   43.5740 C   0  0  0  0  0  0  0  0  0  0  0  0
   45.4580   35.2380   43.6370 C   0  0  0  0  0  0  0  0  0  0  0  0
   44.8400   36.1780   42.8380 C   0  0  0  0  0  0  0  0  0  0  0  0
   43.9430   35.7210   41.8950 C   0  0  0  0  0  0  0  0  0  0  0  0
   43.7180   34.3620   41.8110 C   0  0  0  0  0  0  0  0  0  0  0  0
   44.0700   31.7170   42.5320 S   0  0  0  0  0  0  0  0  0  0  0  0
   42.6210   31.3610   42.3480 O   0  0  0  0  0  0  0  0  0  0  0  0
   44.7790   31.1620   41.3070 O   0  0  0  0  0  0  0  0  0  0  0  0
   45.1694   34.2421   46.1202 H   0  0  0  0  0  0  0  0  0  0  0  0
   47.0051   31.6926   43.1180 H   0  0  0  0  0  0  0  0  0  0  0  0
   48.1878   29.1932   46.4578 H   0  0  0  0  0  0  0  0  0  0  0  0
   49.3846   27.9599   48.2322 H   0  0  0  0  0  0  0  0  0  0  0  0
   49.1786   31.4747   50.6087 H   0  0  0  0  0  0  0  0  0  0  0  0
   46.1740   35.6064   44.3864 H   0  0  0  0  0  0  0  0  0  0  0  0
   45.0545   37.2512   42.9488 H   0  0  0  0  0  0  0  0  0  0  0  0
   43.4205   36.4217   41.2272 H   0  0  0  0  0  0  0  0  0  0  0  0
   43.0011   33.9979   41.0604 H   0  0  0  0  0  0  0  0  0  0  0  0
   44.5276   31.1993   43.7150 H   0  0  0  0  0  0  0  0  0  0  0  0
  1  6  2  0
  2  1  1  0
  3  2  2  0
  3  4  1  0
  4  5  2  0
  5  6  1  0
  5  7  1  0
  7 12  1  0
  8  7  2  0
  8  9  1  0
  9 10  2  0
 10 11  1  0
 12 11  2  0
 13 14  2  0
 14 15  1  0
 14  2  1  0
 16 15  2  0
 17 16  1  0
 18 17  2  0
 18 13  1  0
 19 13  1  0
 20 19  2  0
 21 19  2  0
  1 22  1  0
  3 23  1  0
  8 24  1  0
  9 25  1  0
 11 26  1  0
 15 27  1  0
 16 28  1  0
 17 29  1  0
 18 30  1  0
 19 31  1  0
M  ISO  8  22  14  23  14  24  14  25  14  26  14  27  14  28  14  29  14
M  ISO  2  30  14  31  11
M  END
>  <minimizedAffinity>  (1) 
-4.64440298

>  <minimizedRMSD>  (1) 
3.27210522

$$$$
