
     RDKit          3D

 33 35  0  0  0  0  0  0  0  0999 V2000
   45.5200   34.0000   44.8040 C   0  0  0  0  0  0  0  0  0  0  0  0
   45.1600   33.2290   43.6990 C   0  0  0  0  0  0  0  0  0  0  0  0
   45.5020   31.8850   43.6660 C   0  0  0  0  0  0  0  0  0  0  0  0
   46.1840   31.3760   44.7360 N   0  0  0  0  0  0  0  0  0  0  0  0
   46.5180   32.1460   45.7910 C   0  0  0  0  0  0  0  0  0  0  0  0
   46.1910   33.4520   45.8320 N   0  0  0  0  0  0  0  0  0  0  0  0
   47.2510   31.5540   46.9180 C   0  0  0  0  0  0  0  0  0  0  0  0
   47.5530   30.2380   46.9570 C   0  0  0  0  0  0  0  0  0  0  0  0
   48.2350   29.6580   47.9940 C   0  0  0  0  0  0  0  0  0  0  0  0
   48.6110   30.4750   49.0150 N   0  0  0  0  0  0  0  0  0  0  0  0
   48.3080   31.7810   48.9680 C   0  0  0  0  0  0  0  0  0  0  0  0
   47.6260   32.3890   47.9450 N   0  0  0  0  0  0  0  0  0  0  0  0
   44.4490   33.8030   42.6090 N   0  0  0  0  0  0  0  0  0  0  0  0
   43.4930   33.0510   41.8330 C   0  0  0  0  0  0  0  0  0  0  0  0
   43.3750   33.5210   40.3990 C   0  0  0  0  0  0  0  0  0  0  0  0
   43.2290   35.0020   40.2550 C   0  0  0  0  0  0  0  0  0  0  0  0
   43.4350   35.7350   41.5630 C   0  0  0  0  0  0  0  0  0  0  0  0
   44.6710   35.1820   42.2450 C   0  0  0  0  0  0  0  0  0  0  0  0
   45.2524   35.0665   44.8347 H   0  0  0  0  0  0  0  0  0  0  0  0
   45.2337   31.2506   42.8084 H   0  0  0  0  0  0  0  0  0  0  0  0
   47.2366   29.6023   46.1169 H   0  0  0  0  0  0  0  0  0  0  0  0
   48.4676   28.5829   48.0009 H   0  0  0  0  0  0  0  0  0  0  0  0
   48.6299   32.4099   49.8111 H   0  0  0  0  0  0  0  0  0  0  0  0
   43.8016   31.9952   41.8289 H   0  0  0  0  0  0  0  0  0  0  0  0
   42.5091   33.1967   42.3029 H   0  0  0  0  0  0  0  0  0  0  0  0
   44.2795   33.2082   39.8568 H   0  0  0  0  0  0  0  0  0  0  0  0
   42.4590   33.0695   39.9902 H   0  0  0  0  0  0  0  0  0  0  0  0
   43.9731   35.3608   39.5287 H   0  0  0  0  0  0  0  0  0  0  0  0
   42.2023   35.2051   39.9163 H   0  0  0  0  0  0  0  0  0  0  0  0
   43.5702   36.8090   41.3674 H   0  0  0  0  0  0  0  0  0  0  0  0
   42.5572   35.5957   42.2112 H   0  0  0  0  0  0  0  0  0  0  0  0
   45.5274   35.2456   41.5576 H   0  0  0  0  0  0  0  0  0  0  0  0
   44.8809   35.7691   43.1513 H   0  0  0  0  0  0  0  0  0  0  0  0
  1  6  2  0
  2  1  1  0
  3  2  2  0
  3  4  1  0
  4  5  2  0
  5  6  1  0
  5  7  1  0
  7  8  2  0
  7 12  1  0
  8  9  1  0
  9 10  2  0
 11 10  1  0
 12 11  2  0
 13  2  1  0
 14 13  1  0
 15 14  1  0
 16 15  1  0
 16 17  1  0
 17 18  1  0
 18 13  1  0
  1 19  1  0
  3 20  1  0
  8 21  1  0
  9 22  1  0
 11 23  1  0
 14 24  1  0
 14 25  1  0
 15 26  1  0
 15 27  1  0
 16 28  1  0
 16 29  1  0
 17 30  1  0
 17 31  1  0
 18 32  1  0
 18 33  1  0
M  ISO  8  19  14  20  14  21  14  22  14  23  14  24  13  25  13  26  13
M  ISO  7  27  13  28  13  29  13  30  13  31  13  32  13  33  13
M  END
>  <minimizedAffinity>  (1) 
-4.4545064

>  <minimizedRMSD>  (1) 
2.74436426

$$$$
