
     RDKit          3D

 34 36  0  0  0  0  0  0  0  0999 V2000
   44.8640   35.0370   44.4400 C   0  0  0  0  0  0  0  0  0  0  0  0
   44.8500   34.2930   43.2650 C   0  0  0  0  0  0  0  0  0  0  0  0
   45.2480   32.9430   43.2770 C   0  0  0  0  0  0  0  0  0  0  0  0
   45.6410   32.4130   44.4770 N   0  0  0  0  0  0  0  0  0  0  0  0
   45.6480   33.1410   45.5900 C   0  0  0  0  0  0  0  0  0  0  0  0
   45.2610   34.4450   45.5730 N   0  0  0  0  0  0  0  0  0  0  0  0
   46.0640   32.5740   46.8580 C   0  0  0  0  0  0  0  0  0  0  0  0
   47.3120   32.0520   47.0430 C   0  0  0  0  0  0  0  0  0  0  0  0
   47.7400   31.5090   48.2270 C   0  0  0  0  0  0  0  0  0  0  0  0
   46.8520   31.5050   49.2480 N   0  0  0  0  0  0  0  0  0  0  0  0
   45.6330   32.0160   49.0600 C   0  0  0  0  0  0  0  0  0  0  0  0
   45.1920   32.5530   47.9120 N   0  0  0  0  0  0  0  0  0  0  0  0
   44.4200   34.9290   42.0400 C   0  0  0  0  0  0  0  0  0  0  0  0
   45.2060   34.9370   41.0790 O   0  0  0  0  0  0  0  0  0  0  0  0
   43.2320   35.5760   41.6950 O   0  0  0  0  0  0  0  0  0  0  0  0
   42.4310   35.2310   40.6230 C   0  0  0  0  0  0  0  0  0  0  0  0
   42.1220   33.7710   40.5010 C   0  0  0  0  0  0  0  0  0  0  0  0
   40.8980   33.5080   41.3480 C   0  0  0  0  0  0  0  0  0  0  0  0
   40.1070   34.7680   41.2050 C   0  0  0  0  0  0  0  0  0  0  0  0
   41.0630   35.8660   40.8880 C   0  0  0  0  0  0  0  0  0  0  0  0
   44.5545   36.0926   44.4383 H   0  0  0  0  0  0  0  0  0  0  0  0
   45.2435   32.3375   42.3587 H   0  0  0  0  0  0  0  0  0  0  0  0
   48.0128   32.0680   46.1953 H   0  0  0  0  0  0  0  0  0  0  0  0
   48.7537   31.0975   48.3411 H   0  0  0  0  0  0  0  0  0  0  0  0
   44.9368   31.9952   49.9114 H   0  0  0  0  0  0  0  0  0  0  0  0
   42.9718   35.5541   39.7212 H   0  0  0  0  0  0  0  0  0  0  0  0
   41.9176   33.5142   39.4511 H   0  0  0  0  0  0  0  0  0  0  0  0
   42.9721   33.1595   40.8377 H   0  0  0  0  0  0  0  0  0  0  0  0
   40.3342   32.6430   40.9686 H   0  0  0  0  0  0  0  0  0  0  0  0
   41.1404   33.2670   42.3935 H   0  0  0  0  0  0  0  0  0  0  0  0
   39.3751   34.6611   40.3908 H   0  0  0  0  0  0  0  0  0  0  0  0
   39.5596   34.9882   42.1334 H   0  0  0  0  0  0  0  0  0  0  0  0
   41.1309   36.5606   41.7382 H   0  0  0  0  0  0  0  0  0  0  0  0
   40.7231   36.4300   40.0069 H   0  0  0  0  0  0  0  0  0  0  0  0
  1  6  2  0
  2  3  2  0
  2  1  1  0
  3  4  1  0
  4  5  2  0
  5  7  1  0
  6  5  1  0
  7  8  2  0
  7 12  1  0
  8  9  1  0
  9 10  2  0
 11 10  1  0
 12 11  2  0
 13  2  1  0
 14 13  2  0
 15 13  1  0
 16 20  1  0
 16 15  1  0
 17 16  1  0
 17 18  1  0
 19 18  1  0
 20 19  1  0
  1 21  1  0
  3 22  1  0
  8 23  1  0
  9 24  1  0
 11 25  1  0
 16 26  1  0
 17 27  1  0
 17 28  1  0
 18 29  1  0
 18 30  1  0
 19 31  1  0
 19 32  1  0
 20 33  1  0
 20 34  1  0
M  ISO  8  21  14  22  14  23  14  24  14  25  14  26  13  27  13  28  13
M  ISO  6  29  13  30  13  31  13  32  13  33  13  34  13
M  END
>  <minimizedAffinity>  (1) 
-5.18707752

>  <minimizedRMSD>  (1) 
2.45492315

$$$$
