
     RDKit          3D

 28 30  0  0  0  0  0  0  0  0999 V2000
   44.8730   35.0250   44.4680 C   0  0  0  0  0  0  0  0  0  0  0  0
   44.9040   34.2860   43.2910 C   0  0  0  0  0  0  0  0  0  0  0  0
   45.3300   32.9450   43.3190 C   0  0  0  0  0  0  0  0  0  0  0  0
   45.6990   32.4340   44.5400 N   0  0  0  0  0  0  0  0  0  0  0  0
   45.6560   33.1770   45.6530 C   0  0  0  0  0  0  0  0  0  0  0  0
   45.2500   34.4550   45.6230 N   0  0  0  0  0  0  0  0  0  0  0  0
   46.0570   32.5870   46.9240 C   0  0  0  0  0  0  0  0  0  0  0  0
   45.1990   32.3400   47.9320 C   0  0  0  0  0  0  0  0  0  0  0  0
   45.5540   31.7890   49.1340 C   0  0  0  0  0  0  0  0  0  0  0  0
   46.8640   31.4840   49.2850 N   0  0  0  0  0  0  0  0  0  0  0  0
   47.7130   31.7260   48.2940 C   0  0  0  0  0  0  0  0  0  0  0  0
   47.3900   32.2660   47.1030 N   0  0  0  0  0  0  0  0  0  0  0  0
   44.4880   34.9250   42.0600 C   0  0  0  0  0  0  0  0  0  0  0  0
   45.2110   34.7210   41.0440 O   0  0  0  0  0  0  0  0  0  0  0  0
   43.4330   35.7440   41.7370 O   0  0  0  0  0  0  0  0  0  0  0  0
   42.3740   35.4300   40.9070 C   0  0  0  0  0  0  0  0  0  0  0  0
   40.9840   35.8340   41.1600 C   0  0  0  0  0  0  0  0  0  0  0  0
   41.3670   34.3670   41.3100 C   0  0  0  0  0  0  0  0  0  0  0  0
   44.5406   36.0735   44.4527 H   0  0  0  0  0  0  0  0  0  0  0  0
   45.3659   32.3338   42.4051 H   0  0  0  0  0  0  0  0  0  0  0  0
   44.1408   32.5985   47.7793 H   0  0  0  0  0  0  0  0  0  0  0  0
   44.8178   31.6050   49.9303 H   0  0  0  0  0  0  0  0  0  0  0  0
   48.7685   31.4637   48.4590 H   0  0  0  0  0  0  0  0  0  0  0  0
   43.0597   35.5909   40.0620 H   0  0  0  0  0  0  0  0  0  0  0  0
   40.7410   36.4302   42.0519 H   0  0  0  0  0  0  0  0  0  0  0  0
   40.2209   36.3778   40.5839 H   0  0  0  0  0  0  0  0  0  0  0  0
   41.0196   33.6238   40.5772 H   0  0  0  0  0  0  0  0  0  0  0  0
   41.2933   33.6076   42.1024 H   0  0  0  0  0  0  0  0  0  0  0  0
  1  6  2  0
  2  3  2  0
  2  1  1  0
  3  4  1  0
  4  5  2  0
  5  7  1  0
  6  5  1  0
  7 12  1  0
  7  8  2  0
  8  9  1  0
  9 10  2  0
 11 10  1  0
 12 11  2  0
 13  2  1  0
 14 13  2  0
 15 13  1  0
 16 17  1  0
 16 18  1  0
 16 15  1  0
 17 18  1  0
  1 19  1  0
  3 20  1  0
  8 21  1  0
  9 22  1  0
 11 23  1  0
 16 24  1  0
 17 25  1  0
 17 26  1  0
 18 27  1  0
 18 28  1  0
M  ISO  8  19  14  20  14  21  14  22  14  23  14  24  13  25  13  26  13
M  ISO  2  27  13  28  13
M  END
>  <minimizedAffinity>  (1) 
-4.84447479

>  <minimizedRMSD>  (1) 
2.23192167

$$$$
