
     RDKit          3D

 37 39  0  0  0  0  0  0  0  0999 V2000
   44.5220   35.0120   42.2850 C   0  0  0  0  0  0  0  0  0  0  0  0
   45.2980   34.9620   41.3090 O   0  0  0  0  0  0  0  0  0  0  0  0
   44.8280   35.0360   44.7100 C   0  0  0  0  0  0  0  0  0  0  0  0
   44.9240   34.3570   43.5230 C   0  0  0  0  0  0  0  0  0  0  0  0
   45.4090   33.0250   43.4770 C   0  0  0  0  0  0  0  0  0  0  0  0
   45.7710   32.4650   44.6780 N   0  0  0  0  0  0  0  0  0  0  0  0
   45.6730   33.1360   45.8170 C   0  0  0  0  0  0  0  0  0  0  0  0
   45.2080   34.4000   45.8290 N   0  0  0  0  0  0  0  0  0  0  0  0
   46.0620   32.5200   47.0720 C   0  0  0  0  0  0  0  0  0  0  0  0
   47.3450   32.2410   47.3920 C   0  0  0  0  0  0  0  0  0  0  0  0
   47.7360   31.6610   48.5700 C   0  0  0  0  0  0  0  0  0  0  0  0
   46.7440   31.3620   49.4490 N   0  0  0  0  0  0  0  0  0  0  0  0
   45.4880   31.6320   49.1420 C   0  0  0  0  0  0  0  0  0  0  0  0
   45.0800   32.2000   47.9930 N   0  0  0  0  0  0  0  0  0  0  0  0
   43.4180   35.7180   41.9150 O   0  0  0  0  0  0  0  0  0  0  0  0
   42.5680   35.3460   40.8990 C   0  0  0  0  0  0  0  0  0  0  0  0
   41.1110   35.7210   41.1420 C   0  0  0  0  0  0  0  0  0  0  0  0
   40.3250   35.1520   40.0270 C   0  0  0  0  0  0  0  0  0  0  0  0
   40.8290   35.4190   38.7490 C   0  0  0  0  0  0  0  0  0  0  0  0
   40.1850   34.9430   37.6310 C   0  0  0  0  0  0  0  0  0  0  0  0
   39.0320   34.2000   37.8470 C   0  0  0  0  0  0  0  0  0  0  0  0
   38.5160   33.9250   39.0990 C   0  0  0  0  0  0  0  0  0  0  0  0
   39.1800   34.4130   40.1990 C   0  0  0  0  0  0  0  0  0  0  0  0
   44.4516   36.0690   44.7442 H   0  0  0  0  0  0  0  0  0  0  0  0
   45.4909   32.4703   42.5307 H   0  0  0  0  0  0  0  0  0  0  0  0
   48.1253   32.4959   46.6598 H   0  0  0  0  0  0  0  0  0  0  0  0
   48.7925   31.4495   48.7915 H   0  0  0  0  0  0  0  0  0  0  0  0
   44.7169   31.3726   49.8824 H   0  0  0  0  0  0  0  0  0  0  0  0
   42.6289   34.2542   40.7792 H   0  0  0  0  0  0  0  0  0  0  0  0
   42.8908   35.8893   39.9987 H   0  0  0  0  0  0  0  0  0  0  0  0
   40.7676   35.3009   42.0989 H   0  0  0  0  0  0  0  0  0  0  0  0
   40.9901   36.8133   41.1894 H   0  0  0  0  0  0  0  0  0  0  0  0
   41.7474   36.0142   38.6379 H   0  0  0  0  0  0  0  0  0  0  0  0
   40.5639   35.1407   36.6174 H   0  0  0  0  0  0  0  0  0  0  0  0
   38.4977   33.8070   36.9694 H   0  0  0  0  0  0  0  0  0  0  0  0
   37.5973   33.3307   39.2124 H   0  0  0  0  0  0  0  0  0  0  0  0
   38.7970   34.2130   41.2106 H   0  0  0  0  0  0  0  0  0  0  0  0
  1  4  1  0
  2  1  2  0
  3  8  2  0
  4  3  1  0
  5  4  2  0
  5  6  1  0
  6  7  2  0
  7  8  1  0
  7  9  1  0
  9 10  2  0
  9 14  1  0
 10 11  1  0
 11 12  2  0
 13 12  1  0
 14 13  2  0
 15  1  1  0
 16 17  1  0
 16 15  1  0
 18 23  1  0
 18 17  1  0
 19 18  2  0
 20 21  2  0
 20 19  1  0
 21 22  1  0
 22 23  2  0
  3 24  1  0
  5 25  1  0
 10 26  1  0
 11 27  1  0
 13 28  1  0
 16 29  1  0
 16 30  1  0
 17 31  1  0
 17 32  1  0
 19 33  1  0
 20 34  1  0
 21 35  1  0
 22 36  1  0
 23 37  1  0
M  ISO  8  24  14  25  14  26  14  27  14  28  14  29   8  30   8  31   8
M  ISO  6  32   8  33  14  34  14  35  14  36  14  37  14
M  END
>  <minimizedAffinity>  (1) 
-6.44885921

>  <minimizedRMSD>  (1) 
0.56504178

$$$$
