
     RDKit          3D

 39 41  0  0  0  0  0  0  0  0999 V2000
   44.8880   35.0170   44.5430 C   0  0  0  0  0  0  0  0  0  0  0  0
   44.9570   34.2930   43.3690 C   0  0  0  0  0  0  0  0  0  0  0  0
   45.4000   32.9670   43.3830 C   0  0  0  0  0  0  0  0  0  0  0  0
   45.7590   32.4240   44.5890 N   0  0  0  0  0  0  0  0  0  0  0  0
   45.6820   33.1470   45.7110 C   0  0  0  0  0  0  0  0  0  0  0  0
   45.2540   34.4280   45.7000 N   0  0  0  0  0  0  0  0  0  0  0  0
   46.0670   32.5520   46.9850 C   0  0  0  0  0  0  0  0  0  0  0  0
   47.3380   32.2460   47.3080 C   0  0  0  0  0  0  0  0  0  0  0  0
   47.7150   31.6850   48.5020 C   0  0  0  0  0  0  0  0  0  0  0  0
   46.7290   31.4340   49.3920 N   0  0  0  0  0  0  0  0  0  0  0  0
   45.4640   31.7340   49.0820 C   0  0  0  0  0  0  0  0  0  0  0  0
   45.0780   32.2860   47.9130 N   0  0  0  0  0  0  0  0  0  0  0  0
   44.5550   34.9300   42.1290 C   0  0  0  0  0  0  0  0  0  0  0  0
   45.2660   34.7460   41.1230 O   0  0  0  0  0  0  0  0  0  0  0  0
   43.5050   35.7370   41.7940 O   0  0  0  0  0  0  0  0  0  0  0  0
   42.5610   35.4090   40.8390 C   0  0  0  0  0  0  0  0  0  0  0  0
   41.2400   34.9880   41.4210 C   0  0  0  0  0  0  0  0  0  0  0  0
   40.6950   33.9280   40.6830 N   0  0  0  0  0  0  0  0  0  0  0  0
   39.4250   33.4290   41.0600 C   0  0  0  0  0  0  0  0  0  0  0  0
   38.5240   33.9280   39.9590 C   0  0  0  0  0  0  0  0  0  0  0  0
   39.4580   34.5380   38.9010 C   0  0  0  0  0  0  0  0  0  0  0  0
   40.8300   33.9320   39.2800 C   0  0  0  0  0  0  0  0  0  0  0  0
   44.5392   36.0602   44.5347 H   0  0  0  0  0  0  0  0  0  0  0  0
   45.4585   32.3784   42.4556 H   0  0  0  0  0  0  0  0  0  0  0  0
   48.1234   32.4592   46.5680 H   0  0  0  0  0  0  0  0  0  0  0  0
   48.7667   31.4512   48.7239 H   0  0  0  0  0  0  0  0  0  0  0  0
   44.6865   31.5166   49.8291 H   0  0  0  0  0  0  0  0  0  0  0  0
   42.9537   34.5803   40.2315 H   0  0  0  0  0  0  0  0  0  0  0  0
   42.3775   36.3141   40.2414 H   0  0  0  0  0  0  0  0  0  0  0  0
   41.3891   34.6655   42.4620 H   0  0  0  0  0  0  0  0  0  0  0  0
   40.5465   35.8411   41.3845 H   0  0  0  0  0  0  0  0  0  0  0  0
   39.4283   32.3298   41.1005 H   0  0  0  0  0  0  0  0  0  0  0  0
   39.1096   33.7584   42.0610 H   0  0  0  0  0  0  0  0  0  0  0  0
   37.9481   33.0958   39.5280 H   0  0  0  0  0  0  0  0  0  0  0  0
   37.7972   34.6647   40.3319 H   0  0  0  0  0  0  0  0  0  0  0  0
   39.4749   35.6357   38.9705 H   0  0  0  0  0  0  0  0  0  0  0  0
   39.1521   34.3207   37.8670 H   0  0  0  0  0  0  0  0  0  0  0  0
   40.9573   32.9169   38.8759 H   0  0  0  0  0  0  0  0  0  0  0  0
   41.7066   34.4719   38.8927 H   0  0  0  0  0  0  0  0  0  0  0  0
  1  6  2  0
  2  3  2  0
  2  1  1  0
  3  4  1  0
  4  5  2  0
  5  7  1  0
  6  5  1  0
  7  8  2  0
  7 12  1  0
  8  9  1  0
  9 10  2  0
 11 10  1  0
 12 11  2  0
 13  2  1  0
 14 13  2  0
 15 13  1  0
 16 17  1  0
 16 15  1  0
 18 19  1  0
 18 17  1  0
 20 19  1  0
 21 22  1  0
 21 20  1  0
 22 18  1  0
  1 23  1  0
  3 24  1  0
  8 25  1  0
  9 26  1  0
 11 27  1  0
 16 28  1  0
 16 29  1  0
 17 30  1  0
 17 31  1  0
 19 32  1  0
 19 33  1  0
 20 34  1  0
 20 35  1  0
 21 36  1  0
 21 37  1  0
 22 38  1  0
 22 39  1  0
M  ISO  8  23  14  24  14  25  14  26  14  27  14  28   8  29   8  30   8
M  ISO  8  31   8  32  13  33  13  34  13  35  13  36  13  37  13  38  13
M  ISO  1  39  13
M  END
>  <minimizedAffinity>  (1) 
-5.5025177

>  <minimizedRMSD>  (1) 
1.57313669

$$$$
