
     RDKit          3D

 31 32  0  0  0  0  0  0  0  0999 V2000
   44.9950   34.8350   44.7460 C   0  0  0  0  0  0  0  0  0  0  0  0
   45.6070   34.3860   43.6020 C   0  0  0  0  0  0  0  0  0  0  0  0
   46.4490   33.2480   43.6150 C   0  0  0  0  0  0  0  0  0  0  0  0
   46.6180   32.6210   44.8280 N   0  0  0  0  0  0  0  0  0  0  0  0
   46.0190   33.0690   45.9220 C   0  0  0  0  0  0  0  0  0  0  0  0
   45.2210   34.1550   45.8840 N   0  0  0  0  0  0  0  0  0  0  0  0
   46.2090   32.3910   47.2010 C   0  0  0  0  0  0  0  0  0  0  0  0
   47.4310   31.9640   47.6220 C   0  0  0  0  0  0  0  0  0  0  0  0
   47.6250   31.3240   48.8250 C   0  0  0  0  0  0  0  0  0  0  0  0
   46.5360   31.1270   49.5940 N   0  0  0  0  0  0  0  0  0  0  0  0
   45.3510   31.5450   49.1770 C   0  0  0  0  0  0  0  0  0  0  0  0
   45.1150   32.1740   48.0100 N   0  0  0  0  0  0  0  0  0  0  0  0
   45.3880   35.0940   42.3450 C   0  0  0  0  0  0  0  0  0  0  0  0
   46.2880   35.0590   41.4800 O   0  0  0  0  0  0  0  0  0  0  0  0
   44.3480   35.8400   41.8660 O   0  0  0  0  0  0  0  0  0  0  0  0
   43.4630   35.3960   40.9120 C   0  0  0  0  0  0  0  0  0  0  0  0
   42.0920   35.0220   41.4570 C   0  0  0  0  0  0  0  0  0  0  0  0
   40.1960   36.3250   40.6120 C   0  0  0  0  0  0  0  0  0  0  0  0
   40.1200   35.4340   39.7250 O   0  0  0  0  0  0  0  0  0  0  0  0
   41.2360   36.1590   41.5730 N   0  0  0  0  0  0  0  0  0  0  0  0
   44.3424   35.7204   44.7322 H   0  0  0  0  0  0  0  0  0  0  0  0
   46.9428   32.8837   42.7021 H   0  0  0  0  0  0  0  0  0  0  0  0
   48.3015   32.1380   46.9724 H   0  0  0  0  0  0  0  0  0  0  0  0
   48.6229   30.9888   49.1440 H   0  0  0  0  0  0  0  0  0  0  0  0
   44.4899   31.3639   49.8370 H   0  0  0  0  0  0  0  0  0  0  0  0
   43.8953   34.5081   40.4274 H   0  0  0  0  0  0  0  0  0  0  0  0
   43.3076   36.2308   40.2128 H   0  0  0  0  0  0  0  0  0  0  0  0
   41.6257   34.2939   40.7770 H   0  0  0  0  0  0  0  0  0  0  0  0
   42.2296   34.5954   42.4615 H   0  0  0  0  0  0  0  0  0  0  0  0
   39.5028   37.1785   40.6433 H   0  0  0  0  0  0  0  0  0  0  0  0
   41.3667   36.8425   42.3324 H   0  0  0  0  0  0  0  0  0  0  0  0
  1  6  2  0
  2  3  2  0
  2  1  1  0
  3  4  1  0
  4  5  2  0
  5  7  1  0
  6  5  1  0
  7  8  2  0
  7 12  1  0
  8  9  1  0
  9 10  2  0
 11 10  1  0
 12 11  2  0
 13  2  1  0
 14 13  2  0
 15 13  1  0
 16 17  1  0
 16 15  1  0
 17 20  1  0
 18 20  1  0
 19 18  2  0
  1 21  1  0
  3 22  1  0
  8 23  1  0
  9 24  1  0
 11 25  1  0
 16 26  1  0
 16 27  1  0
 17 28  1  0
 17 29  1  0
 18 30  1  0
 20 31  1  0
M  ISO  8  21  14  22  14  23  14  24  14  25  14  26   8  27   8  28   8
M  ISO  2  29   8  30   6
M  END
>  <minimizedAffinity>  (1) 
-5.07180309

>  <minimizedRMSD>  (1) 
0.906710625

$$$$
