
     RDKit          3D

 29 30  0  0  1  0  0  0  0  0999 V2000
   46.1330   33.8790   44.7290 C   0  0  0  0  0  0  0  0  0  0  0  0
   46.3730   34.4770   43.5060 C   0  0  0  0  0  0  0  0  0  0  0  0
   45.6310   35.6530   43.1760 C   0  0  0  0  0  0  0  0  0  0  0  0
   44.7280   36.1010   44.1070 N   0  0  0  0  0  0  0  0  0  0  0  0
   44.5320   35.4790   45.2830 C   0  0  0  0  0  0  0  0  0  0  0  0
   45.2230   34.3860   45.5910 N   0  0  0  0  0  0  0  0  0  0  0  0
   46.6610   32.9750   41.5520 C   0  0  2  0  0  0  0  0  0  0  0  0
   47.2580   34.0970   42.4190 C   0  0  1  0  0  0  0  0  0  0  0  0
   47.4240   35.0890   41.4540 O   0  0  0  0  0  0  0  0  0  0  0  0
   48.1920   34.4160   40.5050 C   0  0  0  0  0  0  0  0  0  0  0  0
   47.6000   33.0280   40.3600 C   0  0  2  0  0  0  0  0  0  0  0  0
   45.4030   33.3700   41.0650 O   0  0  0  0  0  0  0  0  0  0  0  0
   46.9280   32.8780   39.1590 O   0  0  0  0  0  0  0  0  0  0  0  0
   46.8930   32.6800   45.0510 C   0  0  0  0  0  0  0  0  0  0  0  0
   46.8660   32.4450   46.5560 C   0  0  0  0  0  0  0  0  0  0  0  0
   45.7772   36.1754   42.2190 H   0  0  0  0  0  0  0  0  0  0  0  0
   43.7945   35.8775   45.9953 H   0  0  0  0  0  0  0  0  0  0  0  0
   46.5584   32.0127   42.0749 H   0  0  0  0  0  0  0  0  0  0  0  0
   48.1841   33.8397   42.9540 H   0  0  0  0  0  0  0  0  0  0  0  0
   48.1525   34.9461   39.5420 H   0  0  0  0  0  0  0  0  0  0  0  0
   49.2452   34.3631   40.8179 H   0  0  0  0  0  0  0  0  0  0  0  0
   48.3463   32.2200   40.3462 H   0  0  0  0  0  0  0  0  0  0  0  0
   44.7991   33.5596   41.8262 H   0  0  0  0  0  0  0  0  0  0  0  0
   45.9775   32.6658   39.3369 H   0  0  0  0  0  0  0  0  0  0  0  0
   46.4471   31.8153   44.5377 H   0  0  0  0  0  0  0  0  0  0  0  0
   47.9343   32.8085   44.7205 H   0  0  0  0  0  0  0  0  0  0  0  0
   46.9764   33.4063   47.0792 H   0  0  0  0  0  0  0  0  0  0  0  0
   45.9088   31.9820   46.8377 H   0  0  0  0  0  0  0  0  0  0  0  0
   47.6933   31.7770   46.8377 H   0  0  0  0  0  0  0  0  0  0  0  0
  1 14  1  0
  1  6  2  0
  2  1  1  0
  3  2  2  0
  3  4  1  0
  4  5  2  0
  5  6  1  0
  7 12  1  0
  7  8  1  0
  8  2  1  0
  9  8  1  0
 10  9  1  0
 11 13  1  0
 11 10  1  0
 11  7  1  0
 14 15  1  0
  3 16  1  0
  5 17  1  0
  7 18  1  1
  8 19  1  1
 10 20  1  0
 10 21  1  0
 11 22  1  1
 12 23  1  0
 13 24  1  0
 14 25  1  0
 14 26  1  0
 15 27  1  0
 15 28  1  0
 15 29  1  0
M  ISO  8  16  14  17  14  18  13  19  13  20  13  21  13  22  13  23   3
M  ISO  6  24   3  25   8  26   8  27   8  28   8  29   8
M  END
>  <minimizedAffinity>  (1) 
-4.18505383

>  <minimizedRMSD>  (1) 
3.14010215

$$$$
