
     RDKit          3D

 19 19  0  0  0  0  0  0  0  0999 V2000
   46.9600   33.4360   43.8320 C   0  0  0  0  0  0  0  0  0  0  0  0
   46.0530   34.4860   43.7490 C   0  0  0  0  0  0  0  0  0  0  0  0
   45.2640   34.6750   44.9190 C   0  0  0  0  0  0  0  0  0  0  0  0
   45.4410   33.8570   45.9860 N   0  0  0  0  0  0  0  0  0  0  0  0
   46.3360   32.8570   46.0030 C   0  0  0  0  0  0  0  0  0  0  0  0
   47.0860   32.6580   44.9260 N   0  0  0  0  0  0  0  0  0  0  0  0
   45.7820   35.4420   42.6830 C   0  0  0  0  0  0  0  0  0  0  0  0
   47.0060   35.9430   42.1570 F   0  0  0  0  0  0  0  0  0  0  0  0
   45.0440   36.5290   42.9850 F   0  0  0  0  0  0  0  0  0  0  0  0
   45.3310   34.7590   41.5240 F   0  0  0  0  0  0  0  0  0  0  0  0
   47.7860   33.1760   42.6410 C   0  0  0  0  0  0  0  0  0  0  0  0
   49.1720   33.7210   42.8580 C   0  0  0  0  0  0  0  0  0  0  0  0
   44.5152   35.4799   44.9572 H   0  0  0  0  0  0  0  0  0  0  0  0
   46.4457   32.2161   46.8903 H   0  0  0  0  0  0  0  0  0  0  0  0
   47.3326   33.6665   41.7670 H   0  0  0  0  0  0  0  0  0  0  0  0
   47.8435   32.0915   42.4664 H   0  0  0  0  0  0  0  0  0  0  0  0
   49.3705   33.7991   43.9371 H   0  0  0  0  0  0  0  0  0  0  0  0
   49.9079   33.0453   42.3977 H   0  0  0  0  0  0  0  0  0  0  0  0
   49.2506   34.7170   42.3977 H   0  0  0  0  0  0  0  0  0  0  0  0
  1  6  2  0
  2  1  1  0
  2  3  2  0
  3  4  1  0
  4  5  2  0
  6  5  1  0
  7  9  1  0
  7  2  1  0
  8  7  1  0
 10  7  1  0
 11 12  1  0
 11  1  1  0
  3 13  1  0
  5 14  1  0
 11 15  1  0
 11 16  1  0
 12 17  1  0
 12 18  1  0
 12 19  1  0
M  ISO  7  13  14  14  14  15   8  16   8  17   8  18   8  19   8
M  END
>  <minimizedAffinity>  (1) 
-3.71383762

>  <minimizedRMSD>  (1) 
1.84033334

$$$$
