
     RDKit          3D

 18 18  0  0  0  0  0  0  0  0999 V2000
   46.0090   34.7660   43.2830 C   0  0  0  0  0  0  0  0  0  0  0  0
   45.0870   35.6670   43.7960 C   0  0  0  0  0  0  0  0  0  0  0  0
   44.6140   35.5110   45.1110 C   0  0  0  0  0  0  0  0  0  0  0  0
   45.1100   34.4610   45.8020 N   0  0  0  0  0  0  0  0  0  0  0  0
   46.0040   33.5940   45.2940 C   0  0  0  0  0  0  0  0  0  0  0  0
   46.4440   33.7520   44.0480 N   0  0  0  0  0  0  0  0  0  0  0  0
   46.5290   34.8840   41.9220 C   0  0  0  0  0  0  0  0  0  0  0  0
   48.0030   35.2100   41.9920 C   0  0  0  0  0  0  0  0  0  0  0  0
   44.6050   36.7520   43.0110 N   0  0  0  0  0  0  0  0  0  0  0  0
   43.8822   36.2039   45.5519 H   0  0  0  0  0  0  0  0  0  0  0  0
   46.3703   32.7570   45.9065 H   0  0  0  0  0  0  0  0  0  0  0  0
   45.9972   35.6874   41.3911 H   0  0  0  0  0  0  0  0  0  0  0  0
   46.3801   33.9379   41.3810 H   0  0  0  0  0  0  0  0  0  0  0  0
   48.3137   35.2787   43.0450 H   0  0  0  0  0  0  0  0  0  0  0  0
   48.5780   34.4173   41.4910 H   0  0  0  0  0  0  0  0  0  0  0  0
   48.1901   36.1712   41.4910 H   0  0  0  0  0  0  0  0  0  0  0  0
   43.9206   37.4111   43.4085 H   0  0  0  0  0  0  0  0  0  0  0  0
   44.9406   36.8781   42.0454 H   0  0  0  0  0  0  0  0  0  0  0  0
  1  2  2  0
  1  6  1  0
  2  3  1  0
  3  4  2  0
  5  4  1  0
  6  5  2  0
  7  8  1  0
  7  1  1  0
  9  2  1  0
  3 10  1  0
  5 11  1  0
  7 12  1  0
  7 13  1  0
  8 14  1  0
  8 15  1  0
  8 16  1  0
  9 17  1  0
  9 18  1  0
M  ISO  7  10  14  11  14  12   8  13   8  14   8  15   8  16   8
M  END
>  <minimizedAffinity>  (1) 
-3.66169

>  <minimizedRMSD>  (1) 
1.95848548

$$$$
