
     RDKit          3D

 26 27  0  0  0  0  0  0  0  0999 V2000
   47.4870   32.1830   43.5670 C   0  0  0  0  0  0  0  0  0  0  0  0
   47.0800   33.3220   42.8870 C   0  0  0  0  0  0  0  0  0  0  0  0
   46.3410   34.2860   43.6150 C   0  0  0  0  0  0  0  0  0  0  0  0
   46.0780   34.0350   44.9370 N   0  0  0  0  0  0  0  0  0  0  0  0
   46.4990   32.9160   45.5440 C   0  0  0  0  0  0  0  0  0  0  0  0
   47.1920   32.0040   44.8700 N   0  0  0  0  0  0  0  0  0  0  0  0
   45.0210   32.0120   41.2670 Cl  0  0  0  0  0  0  0  0  0  0  0  0
   46.3480   33.0090   40.7030 C   0  0  0  0  0  0  0  0  0  0  0  0
   47.3330   33.6280   41.4880 C   0  0  0  0  0  0  0  0  0  0  0  0
   48.3020   34.3790   40.8450 C   0  0  0  0  0  0  0  0  0  0  0  0
   48.2860   34.5070   39.4760 C   0  0  0  0  0  0  0  0  0  0  0  0
   47.3330   33.9110   38.6970 C   0  0  0  0  0  0  0  0  0  0  0  0
   46.3570   33.1580   39.3100 C   0  0  0  0  0  0  0  0  0  0  0  0
   48.2230   31.1520   42.8560 C   0  0  0  0  0  0  0  0  0  0  0  0
   49.6860   31.4560   42.8620 C   0  0  0  0  0  0  0  0  0  0  0  0
   45.9880   35.2099   43.1336 H   0  0  0  0  0  0  0  0  0  0  0  0
   46.2692   32.7517   46.6071 H   0  0  0  0  0  0  0  0  0  0  0  0
   49.0885   34.8757   41.4320 H   0  0  0  0  0  0  0  0  0  0  0  0
   49.0673   35.1101   38.9903 H   0  0  0  0  0  0  0  0  0  0  0  0
   47.3460   34.0307   37.6036 H   0  0  0  0  0  0  0  0  0  0  0  0
   45.5800   32.6707   38.7027 H   0  0  0  0  0  0  0  0  0  0  0  0
   47.8672   31.1048   41.8162 H   0  0  0  0  0  0  0  0  0  0  0  0
   48.0578   30.1868   43.3571 H   0  0  0  0  0  0  0  0  0  0  0  0
   50.0409   31.5297   43.9006 H   0  0  0  0  0  0  0  0  0  0  0  0
   50.2298   30.6517   42.3449 H   0  0  0  0  0  0  0  0  0  0  0  0
   49.8643   32.4104   42.3449 H   0  0  0  0  0  0  0  0  0  0  0  0
  1  6  2  0
  2  1  1  0
  2  3  2  0
  3  4  1  0
  4  5  2  0
  6  5  1  0
  8  7  1  0
  8  9  2  0
  9  2  1  0
 10  9  1  0
 11 10  2  0
 12 13  2  0
 12 11  1  0
 13  8  1  0
 14 15  1  0
 14  1  1  0
  3 16  1  0
  5 17  1  0
 10 18  1  0
 11 19  1  0
 12 20  1  0
 13 21  1  0
 14 22  1  0
 14 23  1  0
 15 24  1  0
 15 25  1  0
 15 26  1  0
M  ISO  8  16  14  17  14  18  14  19  14  20  14  21  14  22   8  23   8
M  ISO  3  24   8  25   8  26   8
M  END
>  <minimizedAffinity>  (1) 
-3.18971801

>  <minimizedRMSD>  (1) 
2.269063

$$$$
