
     RDKit          3D

 32 33  0  0  0  0  0  0  0  0999 V2000
   46.6790   34.3330   42.4510 C   0  0  0  0  0  0  0  0  0  0  0  0
   45.3720   34.6840   42.7990 C   0  0  0  0  0  0  0  0  0  0  0  0
   44.9600   34.4180   44.1200 C   0  0  0  0  0  0  0  0  0  0  0  0
   45.8610   33.8450   44.9540 N   0  0  0  0  0  0  0  0  0  0  0  0
   47.1040   33.5190   44.5920 C   0  0  0  0  0  0  0  0  0  0  0  0
   47.5080   33.7660   43.3380 N   0  0  0  0  0  0  0  0  0  0  0  0
   47.1760   34.5760   41.1070 C   0  0  0  0  0  0  0  0  0  0  0  0
   48.5000   35.2770   41.1720 C   0  0  0  0  0  0  0  0  0  0  0  0
   44.6000   35.2650   41.8010 O   0  0  0  0  0  0  0  0  0  0  0  0
   43.9850   33.8200   39.7120 O   0  0  0  0  0  0  0  0  0  0  0  0
   43.3750   34.4900   40.9290 P   0  0  1  0  0  0  0  0  0  0  0  0
   42.6800   33.2990   41.9060 O   0  0  0  0  0  0  0  0  0  0  0  0
   42.1320   35.5400   40.4450 O   0  0  0  0  0  0  0  0  0  0  0  0
   41.0230   35.1280   39.7250 C   0  0  0  0  0  0  0  0  0  0  0  0
   39.9110   34.7330   40.4410 C   0  0  0  0  0  0  0  0  0  0  0  0
   38.7780   34.3130   39.7760 C   0  0  0  0  0  0  0  0  0  0  0  0
   38.8390   34.3150   38.3880 C   0  0  0  0  0  0  0  0  0  0  0  0
   39.9390   34.7040   37.6380 C   0  0  0  0  0  0  0  0  0  0  0  0
   41.0700   35.1240   38.3270 C   0  0  0  0  0  0  0  0  0  0  0  0
   43.9443   34.6664   44.4615 H   0  0  0  0  0  0  0  0  0  0  0  0
   47.7893   33.0527   45.3151 H   0  0  0  0  0  0  0  0  0  0  0  0
   46.4572   35.2039   40.5602 H   0  0  0  0  0  0  0  0  0  0  0  0
   47.3001   33.6145   40.5872 H   0  0  0  0  0  0  0  0  0  0  0  0
   48.7840   35.4274   42.2240 H   0  0  0  0  0  0  0  0  0  0  0  0
   49.2639   34.6652   40.6698 H   0  0  0  0  0  0  0  0  0  0  0  0
   48.4234   36.2527   40.6698 H   0  0  0  0  0  0  0  0  0  0  0  0
   42.8163   33.5325   42.8584 H   0  0  0  0  0  0  0  0  0  0  0  0
   39.9284   34.7532   41.5407 H   0  0  0  0  0  0  0  0  0  0  0  0
   37.8743   33.9935   40.3158 H   0  0  0  0  0  0  0  0  0  0  0  0
   37.9447   33.9819   37.8409 H   0  0  0  0  0  0  0  0  0  0  0  0
   39.9167   34.6808   36.5385 H   0  0  0  0  0  0  0  0  0  0  0  0
   41.9749   35.4437   37.7895 H   0  0  0  0  0  0  0  0  0  0  0  0
  1  2  2  0
  1  6  1  0
  2  3  1  0
  3  4  2  0
  5  4  1  0
  6  5  2  0
  7  8  1  0
  7  1  1  0
  9  2  1  0
 11 10  2  0
 11  9  1  0
 11 12  1  0
 13 11  1  0
 14 15  2  0
 14 13  1  0
 16 15  1  0
 17 16  2  0
 18 19  2  0
 18 17  1  0
 19 14  1  0
  3 20  1  0
  5 21  1  0
  7 22  1  0
  7 23  1  0
  8 24  1  0
  8 25  1  0
  8 26  1  0
 12 27  1  0
 15 28  1  0
 16 29  1  0
 17 30  1  0
 18 31  1  0
 19 32  1  0
M  ISO  8  20  14  21  14  22   8  23   8  24   8  25   8  26   8  27   3
M  ISO  5  28  14  29  14  30  14  31  14  32  14
M  END
>  <minimizedAffinity>  (1) 
-5.49364948

>  <minimizedRMSD>  (1) 
3.00930691

$$$$
