
     RDKit          3D

 25 25  0  0  0  0  0  0  0  0999 V2000
   46.2220   34.2450   42.1540 C   0  0  0  0  0  0  0  0  0  0  0  0
   45.0360   34.8130   42.6120 C   0  0  0  0  0  0  0  0  0  0  0  0
   44.8020   34.7620   44.0000 C   0  0  0  0  0  0  0  0  0  0  0  0
   45.7250   34.1770   44.7830 N   0  0  0  0  0  0  0  0  0  0  0  0
   46.8580   33.6390   44.3150 C   0  0  0  0  0  0  0  0  0  0  0  0
   47.0920   33.6800   43.0010 N   0  0  0  0  0  0  0  0  0  0  0  0
   46.5480   34.2510   40.7380 C   0  0  0  0  0  0  0  0  0  0  0  0
   47.9880   34.6540   40.5470 C   0  0  0  0  0  0  0  0  0  0  0  0
   44.2130   35.3670   41.6550 O   0  0  0  0  0  0  0  0  0  0  0  0
   42.4460   33.4470   41.4080 O   0  0  0  0  0  0  0  0  0  0  0  0
   42.6090   34.9580   41.3600 P   0  0  1  0  0  0  0  0  0  0  0  0
   41.6500   35.6640   42.5680 O   0  0  0  0  0  0  0  0  0  0  0  0
   42.0380   35.5300   39.8540 O   0  0  0  0  0  0  0  0  0  0  0  0
   40.6520   35.5640   39.8050 C   0  0  0  0  0  0  0  0  0  0  0  0
   40.2220   35.4320   38.5010 F   0  0  0  0  0  0  0  0  0  0  0  0
   40.0850   34.5300   40.5230 F   0  0  0  0  0  0  0  0  0  0  0  0
   40.2480   36.7250   40.3930 F   0  0  0  0  0  0  0  0  0  0  0  0
   43.8860   35.1905   44.4329 H   0  0  0  0  0  0  0  0  0  0  0  0
   47.5819   33.1724   44.9993 H   0  0  0  0  0  0  0  0  0  0  0  0
   46.3925   33.2441   40.3232 H   0  0  0  0  0  0  0  0  0  0  0  0
   45.8977   34.9704   40.2187 H   0  0  0  0  0  0  0  0  0  0  0  0
   48.4648   34.7874   41.5293 H   0  0  0  0  0  0  0  0  0  0  0  0
   48.5170   33.8694   39.9862 H   0  0  0  0  0  0  0  0  0  0  0  0
   48.0329   35.5992   39.9862 H   0  0  0  0  0  0  0  0  0  0  0  0
   41.9987   35.4073   43.4583 H   0  0  0  0  0  0  0  0  0  0  0  0
  1  2  2  0
  1  6  1  0
  2  3  1  0
  3  4  2  0
  5  4  1  0
  6  5  2  0
  7  1  1  0
  8  7  1  0
  9  2  1  0
 11 10  2  0
 11  9  1  0
 11 12  1  0
 13 11  1  0
 14 13  1  0
 14 17  1  0
 14 16  1  0
 15 14  1  0
  3 18  1  0
  5 19  1  0
  7 20  1  0
  7 21  1  0
  8 22  1  0
  8 23  1  0
  8 24  1  0
 12 25  1  0
M  ISO  8  18  14  19  14  20   8  21   8  22   8  23   8  24   8  25   3
M  END
>  <minimizedAffinity>  (1) 
-4.76042604

>  <minimizedRMSD>  (1) 
2.23984957

$$$$
