
     RDKit          3D

 26 26  0  0  0  0  0  0  0  0999 V2000
   46.5190   34.3010   42.6680 C   0  0  0  0  0  0  0  0  0  0  0  0
   45.2800   34.7410   43.1110 C   0  0  0  0  0  0  0  0  0  0  0  0
   44.9520   34.4820   44.4640 C   0  0  0  0  0  0  0  0  0  0  0  0
   45.8530   33.8360   45.2160 N   0  0  0  0  0  0  0  0  0  0  0  0
   47.0550   33.4200   44.7540 C   0  0  0  0  0  0  0  0  0  0  0  0
   47.3650   33.6650   43.4730 N   0  0  0  0  0  0  0  0  0  0  0  0
   46.9270   34.5320   41.2820 C   0  0  0  0  0  0  0  0  0  0  0  0
   48.2960   35.1390   41.2560 C   0  0  0  0  0  0  0  0  0  0  0  0
   44.4750   35.3920   42.1910 O   0  0  0  0  0  0  0  0  0  0  0  0
   43.3790   34.7320   39.8980 O   0  0  0  0  0  0  0  0  0  0  0  0
   43.1410   34.7570   41.3930 P   0  0  1  0  0  0  0  0  0  0  0  0
   42.9230   33.1480   41.9360 O   0  0  0  0  0  0  0  0  0  0  0  0
   41.6970   35.6010   41.7440 O   0  0  0  0  0  0  0  0  0  0  0  0
   40.4690   34.9790   41.5570 C   0  0  0  0  0  0  0  0  0  0  0  0
   39.8660   35.5190   40.5690 O   0  0  0  0  0  0  0  0  0  0  0  0
   39.8930   33.9210   42.2790 N   0  0  0  0  0  0  0  0  0  0  0  0
   43.9871   34.8014   44.8846 H   0  0  0  0  0  0  0  0  0  0  0  0
   47.7606   32.8936   45.4136 H   0  0  0  0  0  0  0  0  0  0  0  0
   46.9405   33.5749   40.7400 H   0  0  0  0  0  0  0  0  0  0  0  0
   46.2141   35.2176   40.8007 H   0  0  0  0  0  0  0  0  0  0  0  0
   48.6476   35.2949   42.2866 H   0  0  0  0  0  0  0  0  0  0  0  0
   48.9870   34.4629   40.7312 H   0  0  0  0  0  0  0  0  0  0  0  0
   48.2589   36.1050   40.7312 H   0  0  0  0  0  0  0  0  0  0  0  0
   42.9207   33.1312   42.9259 H   0  0  0  0  0  0  0  0  0  0  0  0
   38.9630   33.5645   42.0164 H   0  0  0  0  0  0  0  0  0  0  0  0
   40.4005   33.5016   43.0711 H   0  0  0  0  0  0  0  0  0  0  0  0
  1  2  2  0
  1  6  1  0
  2  3  1  0
  3  4  2  0
  5  4  1  0
  6  5  2  0
  7  1  1  0
  8  7  1  0
  9  2  1  0
 11 10  2  0
 11 13  1  0
 11 12  1  0
 11  9  1  0
 14 13  1  0
 14 16  1  0
 15 14  2  0
  3 17  1  0
  5 18  1  0
  7 19  1  0
  7 20  1  0
  8 21  1  0
  8 22  1  0
  8 23  1  0
 12 24  1  0
 16 25  1  0
 16 26  1  0
M  ISO  8  17  14  18  14  19   8  20   8  21   8  22   8  23   8  24   3
M  END
>  <minimizedAffinity>  (1) 
-4.47895813

>  <minimizedRMSD>  (1) 
0.684796333

$$$$
