
     RDKit          3D

 25 25  0  0  0  0  0  0  0  0999 V2000
   45.7380   34.5940   42.7130 C   0  0  0  0  0  0  0  0  0  0  0  0
   44.5870   35.3430   42.9240 C   0  0  0  0  0  0  0  0  0  0  0  0
   44.1760   35.5310   44.2700 C   0  0  0  0  0  0  0  0  0  0  0  0
   44.9270   34.9720   45.2350 N   0  0  0  0  0  0  0  0  0  0  0  0
   46.0290   34.2570   44.9920 C   0  0  0  0  0  0  0  0  0  0  0  0
   46.4250   34.0740   43.7320 N   0  0  0  0  0  0  0  0  0  0  0  0
   46.2290   34.3550   41.3600 C   0  0  0  0  0  0  0  0  0  0  0  0
   47.6850   34.7740   41.2880 C   0  0  0  0  0  0  0  0  0  0  0  0
   43.9390   35.8440   41.8040 O   0  0  0  0  0  0  0  0  0  0  0  0
   42.7490   35.0440   39.6110 O   0  0  0  0  0  0  0  0  0  0  0  0
   42.5430   35.2310   41.1080 P   0  0  1  0  0  0  0  0  0  0  0  0
   42.2220   33.7060   41.7930 O   0  0  0  0  0  0  0  0  0  0  0  0
   41.1790   36.2120   41.3800 O   0  0  0  0  0  0  0  0  0  0  0  0
   40.2020   35.9390   40.4250 C   0  0  0  0  0  0  0  0  0  0  0  0
   43.2753   36.1132   44.5145 H   0  0  0  0  0  0  0  0  0  0  0  0
   46.6042   33.8234   45.8234 H   0  0  0  0  0  0  0  0  0  0  0  0
   46.1394   33.2858   41.1176 H   0  0  0  0  0  0  0  0  0  0  0  0
   45.6363   34.9368   40.6388 H   0  0  0  0  0  0  0  0  0  0  0  0
   48.0843   34.8889   42.3065 H   0  0  0  0  0  0  0  0  0  0  0  0
   48.2617   34.0054   40.7526 H   0  0  0  0  0  0  0  0  0  0  0  0
   47.7649   35.7316   40.7526 H   0  0  0  0  0  0  0  0  0  0  0  0
   42.2371   33.7779   42.7803 H   0  0  0  0  0  0  0  0  0  0  0  0
   39.2602   35.6758   40.9288 H   0  0  0  0  0  0  0  0  0  0  0  0
   40.0455   36.8278   39.7961 H   0  0  0  0  0  0  0  0  0  0  0  0
   40.5289   35.0978   39.7961 H   0  0  0  0  0  0  0  0  0  0  0  0
  1  2  2  0
  1  6  1  0
  2  3  1  0
  3  4  2  0
  5  4  1  0
  6  5  2  0
  7  1  1  0
  8  7  1  0
  9  2  1  0
 11 10  2  0
 11 13  1  0
 11 12  1  0
 11  9  1  0
 14 13  1  0
  3 15  1  0
  5 16  1  0
  7 17  1  0
  7 18  1  0
  8 19  1  0
  8 20  1  0
  8 21  1  0
 12 22  1  0
 14 23  1  0
 14 24  1  0
 14 25  1  0
M  ISO  8  15  14  16  14  17   8  18   8  19   8  20   8  21   8  22   3
M  ISO  3  23   8  24   8  25   8
M  END
>  <minimizedAffinity>  (1) 
-3.97260308

>  <minimizedRMSD>  (1) 
1.25897348

$$$$
