
     RDKit          3D

 40 42  0  0  0  0  0  0  0  0999 V2000
   43.4060   35.7070   40.1060 O   0  0  0  0  0  0  0  0  0  0  0  0
   43.2630   35.0420   41.4720 P   0  0  1  0  0  0  0  0  0  0  0  0
   43.5340   33.3870   41.2880 O   0  0  0  0  0  0  0  0  0  0  0  0
   44.4420   35.6480   42.5160 O   0  0  0  0  0  0  0  0  0  0  0  0
   46.4080   34.4530   42.9950 C   0  0  0  0  0  0  0  0  0  0  0  0
   45.1920   34.9220   43.4380 C   0  0  0  0  0  0  0  0  0  0  0  0
   44.8080   34.6410   44.7530 C   0  0  0  0  0  0  0  0  0  0  0  0
   45.6550   33.9230   45.5180 N   0  0  0  0  0  0  0  0  0  0  0  0
   46.8380   33.4740   45.0670 C   0  0  0  0  0  0  0  0  0  0  0  0
   47.2090   33.7390   43.8140 N   0  0  0  0  0  0  0  0  0  0  0  0
   46.8690   34.7110   41.6370 C   0  0  0  0  0  0  0  0  0  0  0  0
   48.2370   35.3170   41.6860 C   0  0  0  0  0  0  0  0  0  0  0  0
   41.6820   35.2550   42.0510 O   0  0  0  0  0  0  0  0  0  0  0  0
   40.6500   34.6000   41.3860 C   0  0  0  0  0  0  0  0  0  0  0  0
   40.0380   35.2880   40.3480 C   0  0  0  0  0  0  0  0  0  0  0  0
   38.9890   34.7180   39.6140 C   0  0  0  0  0  0  0  0  0  0  0  0
   38.5820   33.4590   39.9500 N   0  0  0  0  0  0  0  0  0  0  0  0
   39.1780   32.8130   40.9440 C   0  0  0  0  0  0  0  0  0  0  0  0
   40.1830   33.3700   41.6420 N   0  0  0  0  0  0  0  0  0  0  0  0
   41.4670   31.1810   42.0790 Br  0  0  0  0  0  0  0  0  0  0  0  0
   39.6790   30.5600   41.8740 C   0  0  0  0  0  0  0  0  0  0  0  0
   38.7720   31.4670   41.3310 C   0  0  0  0  0  0  0  0  0  0  0  0
   37.4630   31.0030   41.1850 C   0  0  0  0  0  0  0  0  0  0  0  0
   37.1450   29.7330   41.5650 C   0  0  0  0  0  0  0  0  0  0  0  0
   38.0570   28.8640   42.0960 C   0  0  0  0  0  0  0  0  0  0  0  0
   39.3770   29.2720   42.2650 C   0  0  0  0  0  0  0  0  0  0  0  0
   43.6035   32.9628   42.1798 H   0  0  0  0  0  0  0  0  0  0  0  0
   43.8453   34.9946   45.1508 H   0  0  0  0  0  0  0  0  0  0  0  0
   47.4968   32.8911   45.7275 H   0  0  0  0  0  0  0  0  0  0  0  0
   46.1767   35.4063   41.1397 H   0  0  0  0  0  0  0  0  0  0  0  0
   46.9041   33.7667   41.0740 H   0  0  0  0  0  0  0  0  0  0  0  0
   48.5410   35.4517   42.7345 H   0  0  0  0  0  0  0  0  0  0  0  0
   48.9514   34.6511   41.1797 H   0  0  0  0  0  0  0  0  0  0  0  0
   48.2238   36.2935   41.1797 H   0  0  0  0  0  0  0  0  0  0  0  0
   40.3833   36.3016   40.0961 H   0  0  0  0  0  0  0  0  0  0  0  0
   38.5081   35.2685   38.7920 H   0  0  0  0  0  0  0  0  0  0  0  0
   36.6892   31.6616   40.7638 H   0  0  0  0  0  0  0  0  0  0  0  0
   36.1069   29.3918   41.4386 H   0  0  0  0  0  0  0  0  0  0  0  0
   37.7497   27.8489   42.3878 H   0  0  0  0  0  0  0  0  0  0  0  0
   40.1399   28.6021   42.6884 H   0  0  0  0  0  0  0  0  0  0  0  0
  2  1  2  0
  2 13  1  0
  2  4  1  0
  3  2  1  0
  4  6  1  0
  5  6  2  0
  5 10  1  0
  6  7  1  0
  7  8  2  0
  9  8  1  0
 10  9  2  0
 11 12  1  0
 11  5  1  0
 14 19  1  0
 14 13  1  0
 15 14  2  0
 16 17  2  0
 16 15  1  0
 17 18  1  0
 18 22  1  0
 18 19  2  0
 21 20  1  0
 21 26  2  0
 22 21  1  0
 23 22  2  0
 23 24  1  0
 24 25  2  0
 25 26  1  0
  3 27  1  0
  7 28  1  0
  9 29  1  0
 11 30  1  0
 11 31  1  0
 12 32  1  0
 12 33  1  0
 12 34  1  0
 15 35  1  0
 16 36  1  0
 23 37  1  0
 24 38  1  0
 25 39  1  0
 26 40  1  0
M  ISO  8  27   3  28  14  29  14  30   8  31   8  32   8  33   8  34   8
M  ISO  6  35  14  36  14  37  14  38  14  39  14  40  14
M  END
>  <minimizedAffinity>  (1) 
-6.05039501

>  <minimizedRMSD>  (1) 
0.660975993

$$$$
