
     RDKit          3D

 46 48  0  0  0  0  0  0  0  0999 V2000
   43.7510   35.0120   40.2310 O   0  0  0  0  0  0  0  0  0  0  0  0
   43.3000   34.8020   41.6740 P   0  0  1  0  0  0  0  0  0  0  0  0
   43.2250   33.1330   41.9750 O   0  0  0  0  0  0  0  0  0  0  0  0
   44.4580   35.4530   42.7310 O   0  0  0  0  0  0  0  0  0  0  0  0
   46.4810   34.3200   43.1170 C   0  0  0  0  0  0  0  0  0  0  0  0
   45.2660   34.7490   43.6100 C   0  0  0  0  0  0  0  0  0  0  0  0
   44.9590   34.4380   44.9430 C   0  0  0  0  0  0  0  0  0  0  0  0
   45.8700   33.7410   45.6570 N   0  0  0  0  0  0  0  0  0  0  0  0
   47.0320   33.3400   45.1540 C   0  0  0  0  0  0  0  0  0  0  0  0
   47.3330   33.6320   43.8870 N   0  0  0  0  0  0  0  0  0  0  0  0
   46.8720   34.6040   41.7370 C   0  0  0  0  0  0  0  0  0  0  0  0
   48.2000   35.3040   41.7340 C   0  0  0  0  0  0  0  0  0  0  0  0
   41.7520   35.4430   41.9160 O   0  0  0  0  0  0  0  0  0  0  0  0
   40.6780   34.7850   41.3280 C   0  0  0  0  0  0  0  0  0  0  0  0
   40.0030   35.4560   40.3020 C   0  0  0  0  0  0  0  0  0  0  0  0
   38.9170   34.8740   39.6580 C   0  0  0  0  0  0  0  0  0  0  0  0
   38.5190   33.6290   40.0440 N   0  0  0  0  0  0  0  0  0  0  0  0
   39.1740   33.0040   41.0260 C   0  0  0  0  0  0  0  0  0  0  0  0
   40.2120   33.5720   41.6330 N   0  0  0  0  0  0  0  0  0  0  0  0
   38.7810   31.6520   41.4820 C   0  0  0  0  0  0  0  0  0  0  0  0
   39.9560   30.7210   41.6950 C   0  0  0  0  0  0  0  0  0  0  0  0
   39.4340   29.5720   42.5170 C   0  0  0  0  0  0  0  0  0  0  0  0
   38.1840   28.9500   42.0290 C   0  0  0  0  0  0  0  0  0  0  0  0
   37.2540   29.7880   41.2360 C   0  0  0  0  0  0  0  0  0  0  0  0
   37.8920   30.9340   40.4920 C   0  0  0  0  0  0  0  0  0  0  0  0
   43.2179   32.9739   42.9521 H   0  0  0  0  0  0  0  0  0  0  0  0
   44.0057   34.7520   45.3932 H   0  0  0  0  0  0  0  0  0  0  0  0
   47.7398   32.7724   45.7760 H   0  0  0  0  0  0  0  0  0  0  0  0
   46.9518   33.6613   41.1758 H   0  0  0  0  0  0  0  0  0  0  0  0
   46.1149   35.2461   41.2632 H   0  0  0  0  0  0  0  0  0  0  0  0
   48.5262   35.4759   42.7704 H   0  0  0  0  0  0  0  0  0  0  0  0
   48.9422   34.6800   41.2147 H   0  0  0  0  0  0  0  0  0  0  0  0
   48.1046   36.2690   41.2147 H   0  0  0  0  0  0  0  0  0  0  0  0
   40.3370   36.4597   40.0003 H   0  0  0  0  0  0  0  0  0  0  0  0
   38.3898   35.4075   38.8534 H   0  0  0  0  0  0  0  0  0  0  0  0
   38.2588   31.8549   42.4287 H   0  0  0  0  0  0  0  0  0  0  0  0
   40.3355   30.3577   40.7285 H   0  0  0  0  0  0  0  0  0  0  0  0
   40.7877   31.2326   42.2015 H   0  0  0  0  0  0  0  0  0  0  0  0
   40.2112   28.7940   42.5422 H   0  0  0  0  0  0  0  0  0  0  0  0
   39.1934   29.9943   43.5038 H   0  0  0  0  0  0  0  0  0  0  0  0
   38.4685   28.0929   41.4010 H   0  0  0  0  0  0  0  0  0  0  0  0
   37.6230   28.7063   42.9433 H   0  0  0  0  0  0  0  0  0  0  0  0
   36.7569   29.1397   40.4994 H   0  0  0  0  0  0  0  0  0  0  0  0
   36.5631   30.2437   41.9606 H   0  0  0  0  0  0  0  0  0  0  0  0
   38.4905   30.5539   39.6510 H   0  0  0  0  0  0  0  0  0  0  0  0
   37.1300   31.6118   40.0797 H   0  0  0  0  0  0  0  0  0  0  0  0
  2  1  2  0
  2 13  1  0
  2  3  1  0
  2  4  1  0
  4  6  1  0
  5  6  2  0
  5 10  1  0
  6  7  1  0
  7  8  2  0
  9  8  1  0
 10  9  2  0
 11  5  1  0
 12 11  1  0
 14 19  1  0
 14 13  1  0
 15 14  2  0
 16 17  2  0
 16 15  1  0
 17 18  1  0
 18 20  1  0
 18 19  2  0
 20 21  1  0
 21 22  1  0
 23 22  1  0
 24 23  1  0
 25 24  1  0
 25 20  1  0
  3 26  1  0
  7 27  1  0
  9 28  1  0
 11 29  1  0
 11 30  1  0
 12 31  1  0
 12 32  1  0
 12 33  1  0
 15 34  1  0
 16 35  1  0
 20 36  1  0
 21 37  1  0
 21 38  1  0
 22 39  1  0
 22 40  1  0
 23 41  1  0
 23 42  1  0
 24 43  1  0
 24 44  1  0
 25 45  1  0
 25 46  1  0
M  ISO  8  26   3  27  14  28  14  29   8  30   8  31   8  32   8  33   8
M  ISO  8  34  14  35  14  36  13  37  13  38  13  39  13  40  13  41  13
M  ISO  5  42  13  43  13  44  13  45  13  46  13
M  END
>  <minimizedAffinity>  (1) 
-6.00806904

>  <minimizedRMSD>  (1) 
0.989385068

$$$$
