
     RDKit          3D

 43 45  0  0  0  0  0  0  0  0999 V2000
   43.7130   34.8130   40.1360 O   0  0  0  0  0  0  0  0  0  0  0  0
   43.2750   34.6840   41.5980 P   0  0  1  0  0  0  0  0  0  0  0  0
   43.1850   33.0340   41.9700 O   0  0  0  0  0  0  0  0  0  0  0  0
   44.4480   35.3830   42.5970 O   0  0  0  0  0  0  0  0  0  0  0  0
   46.5250   34.3590   42.9980 C   0  0  0  0  0  0  0  0  0  0  0  0
   45.2850   34.7160   43.4820 C   0  0  0  0  0  0  0  0  0  0  0  0
   44.9600   34.3880   44.8080 C   0  0  0  0  0  0  0  0  0  0  0  0
   45.8890   33.7390   45.5300 N   0  0  0  0  0  0  0  0  0  0  0  0
   47.0890   33.3990   45.0430 C   0  0  0  0  0  0  0  0  0  0  0  0
   47.3990   33.7100   43.7860 N   0  0  0  0  0  0  0  0  0  0  0  0
   46.9220   34.6690   41.6350 C   0  0  0  0  0  0  0  0  0  0  0  0
   48.2820   35.3290   41.6480 C   0  0  0  0  0  0  0  0  0  0  0  0
   41.7310   35.3530   41.8130 O   0  0  0  0  0  0  0  0  0  0  0  0
   40.6470   34.6790   41.2720 C   0  0  0  0  0  0  0  0  0  0  0  0
   39.8800   35.3360   40.3170 C   0  0  0  0  0  0  0  0  0  0  0  0
   38.7780   34.7450   39.7200 C   0  0  0  0  0  0  0  0  0  0  0  0
   38.4510   33.4800   40.0920 N   0  0  0  0  0  0  0  0  0  0  0  0
   39.1940   32.8530   41.0130 C   0  0  0  0  0  0  0  0  0  0  0  0
   40.2490   33.4310   41.5780 N   0  0  0  0  0  0  0  0  0  0  0  0
   38.9030   31.5280   41.4450 N   0  0  0  0  0  0  0  0  0  0  0  0
   39.8000   30.6830   42.1800 C   0  0  0  0  0  0  0  0  0  0  0  0
   39.3330   29.2390   42.0290 C   0  0  0  0  0  0  0  0  0  0  0  0
   39.1250   29.0200   40.6540 O   0  0  0  0  0  0  0  0  0  0  0  0
   37.8590   29.5820   40.3780 C   0  0  0  0  0  0  0  0  0  0  0  0
   37.6560   30.8400   41.2040 C   0  0  0  0  0  0  0  0  0  0  0  0
   43.1786   32.9172   42.9531 H   0  0  0  0  0  0  0  0  0  0  0  0
   43.9830   34.6520   45.2390 H   0  0  0  0  0  0  0  0  0  0  0  0
   47.8135   32.8666   45.6768 H   0  0  0  0  0  0  0  0  0  0  0  0
   46.1866   35.3518   41.1845 H   0  0  0  0  0  0  0  0  0  0  0  0
   46.9683   33.7418   41.0450 H   0  0  0  0  0  0  0  0  0  0  0  0
   48.6038   35.4852   42.6882 H   0  0  0  0  0  0  0  0  0  0  0  0
   49.0080   34.6830   41.1326 H   0  0  0  0  0  0  0  0  0  0  0  0
   48.2237   36.2990   41.1326 H   0  0  0  0  0  0  0  0  0  0  0  0
   40.1572   36.3597   40.0253 H   0  0  0  0  0  0  0  0  0  0  0  0
   38.1851   35.2845   38.9667 H   0  0  0  0  0  0  0  0  0  0  0  0
   40.8197   30.7874   41.7809 H   0  0  0  0  0  0  0  0  0  0  0  0
   39.8047   30.9697   43.2420 H   0  0  0  0  0  0  0  0  0  0  0  0
   40.1018   28.5507   42.4100 H   0  0  0  0  0  0  0  0  0  0  0  0
   38.4103   29.0609   42.6008 H   0  0  0  0  0  0  0  0  0  0  0  0
   37.7981   29.8347   39.3091 H   0  0  0  0  0  0  0  0  0  0  0  0
   37.0771   28.8522   40.6348 H   0  0  0  0  0  0  0  0  0  0  0  0
   36.9751   31.5147   40.6644 H   0  0  0  0  0  0  0  0  0  0  0  0
   37.2325   30.5473   42.1761 H   0  0  0  0  0  0  0  0  0  0  0  0
  2  1  2  0
  2 13  1  0
  2  3  1  0
  2  4  1  0
  4  6  1  0
  5  6  2  0
  5 10  1  0
  6  7  1  0
  7  8  2  0
  9  8  1  0
 10  9  2  0
 11 12  1  0
 11  5  1  0
 14 19  1  0
 14 13  1  0
 15 14  2  0
 16 17  2  0
 16 15  1  0
 17 18  1  0
 18 20  1  0
 18 19  2  0
 20 21  1  0
 22 21  1  0
 23 22  1  0
 24 23  1  0
 24 25  1  0
 25 20  1  0
  3 26  1  0
  7 27  1  0
  9 28  1  0
 11 29  1  0
 11 30  1  0
 12 31  1  0
 12 32  1  0
 12 33  1  0
 15 34  1  0
 16 35  1  0
 21 36  1  0
 21 37  1  0
 22 38  1  0
 22 39  1  0
 24 40  1  0
 24 41  1  0
 25 42  1  0
 25 43  1  0
M  ISO  8  26   3  27  14  28  14  29   8  30   8  31   8  32   8  33   8
M  ISO  8  34  14  35  14  36  13  37  13  38  13  39  13  40  13  41  13
M  ISO  2  42  13  43  13
M  END
>  <minimizedAffinity>  (1) 
-5.95333815

>  <minimizedRMSD>  (1) 
0.371067643

$$$$
