
     RDKit          3D

 38 40  0  0  0  0  0  0  0  0999 V2000
   43.7740   34.8490   40.1420 O   0  0  0  0  0  0  0  0  0  0  0  0
   43.3150   34.7070   41.5910 P   0  0  1  0  0  0  0  0  0  0  0  0
   43.2120   33.0600   41.9550 O   0  0  0  0  0  0  0  0  0  0  0  0
   44.4720   35.3980   42.6160 O   0  0  0  0  0  0  0  0  0  0  0  0
   46.5390   34.3500   43.0330 C   0  0  0  0  0  0  0  0  0  0  0  0
   45.3050   34.7230   43.4990 C   0  0  0  0  0  0  0  0  0  0  0  0
   44.9730   34.3980   44.8270 C   0  0  0  0  0  0  0  0  0  0  0  0
   45.8960   33.7390   45.5510 N   0  0  0  0  0  0  0  0  0  0  0  0
   47.0910   33.3880   45.0750 C   0  0  0  0  0  0  0  0  0  0  0  0
   47.4090   33.6960   43.8100 N   0  0  0  0  0  0  0  0  0  0  0  0
   46.9490   34.6550   41.6640 C   0  0  0  0  0  0  0  0  0  0  0  0
   48.2900   35.3390   41.6850 C   0  0  0  0  0  0  0  0  0  0  0  0
   41.7720   35.3880   41.7810 O   0  0  0  0  0  0  0  0  0  0  0  0
   40.6850   34.6890   41.2690 C   0  0  0  0  0  0  0  0  0  0  0  0
   39.9020   35.3440   40.3240 C   0  0  0  0  0  0  0  0  0  0  0  0
   38.7950   34.7560   39.7400 C   0  0  0  0  0  0  0  0  0  0  0  0
   38.4880   33.4830   40.1330 N   0  0  0  0  0  0  0  0  0  0  0  0
   39.2320   32.8510   41.0370 C   0  0  0  0  0  0  0  0  0  0  0  0
   40.3000   33.4490   41.5830 N   0  0  0  0  0  0  0  0  0  0  0  0
   38.8940   31.4730   41.4550 C   0  0  0  0  0  0  0  0  0  0  0  0
   37.6540   30.9560   41.1370 C   0  0  0  0  0  0  0  0  0  0  0  0
   37.3860   29.6490   41.5580 C   0  0  0  0  0  0  0  0  0  0  0  0
   38.3270   28.9690   42.2370 N   0  0  0  0  0  0  0  0  0  0  0  0
   39.5340   29.4720   42.5470 C   0  0  0  0  0  0  0  0  0  0  0  0
   39.7860   30.7340   42.1380 N   0  0  0  0  0  0  0  0  0  0  0  0
   43.2044   32.9390   42.9376 H   0  0  0  0  0  0  0  0  0  0  0  0
   43.9979   34.6717   45.2562 H   0  0  0  0  0  0  0  0  0  0  0  0
   47.8081   32.8514   45.7136 H   0  0  0  0  0  0  0  0  0  0  0  0
   46.2058   35.3183   41.1973 H   0  0  0  0  0  0  0  0  0  0  0  0
   47.0209   33.7223   41.0852 H   0  0  0  0  0  0  0  0  0  0  0  0
   48.6037   35.4990   42.7271 H   0  0  0  0  0  0  0  0  0  0  0  0
   49.0311   34.7088   41.1716 H   0  0  0  0  0  0  0  0  0  0  0  0
   48.2150   36.3090   41.1716 H   0  0  0  0  0  0  0  0  0  0  0  0
   40.1737   36.3686   40.0301 H   0  0  0  0  0  0  0  0  0  0  0  0
   38.1885   35.2887   38.9927 H   0  0  0  0  0  0  0  0  0  0  0  0
   36.9112   31.5444   40.5785 H   0  0  0  0  0  0  0  0  0  0  0  0
   36.4151   29.1821   41.3358 H   0  0  0  0  0  0  0  0  0  0  0  0
   40.2786   28.8857   43.1054 H   0  0  0  0  0  0  0  0  0  0  0  0
  2  1  2  0
  2 13  1  0
  2  3  1  0
  2  4  1  0
  4  6  1  0
  5  6  2  0
  5 10  1  0
  6  7  1  0
  7  8  2  0
  9  8  1  0
 10  9  2  0
 11 12  1  0
 11  5  1  0
 14 19  1  0
 14 13  1  0
 15 14  2  0
 16 17  2  0
 16 15  1  0
 17 18  1  0
 18 20  1  0
 18 19  2  0
 20 25  1  0
 21 20  2  0
 21 22  1  0
 22 23  2  0
 23 24  1  0
 25 24  2  0
  3 26  1  0
  7 27  1  0
  9 28  1  0
 11 29  1  0
 11 30  1  0
 12 31  1  0
 12 32  1  0
 12 33  1  0
 15 34  1  0
 16 35  1  0
 21 36  1  0
 22 37  1  0
 24 38  1  0
M  ISO  8  26   3  27  14  28  14  29   8  30   8  31   8  32   8  33   8
M  ISO  5  34  14  35  14  36  14  37  14  38  14
M  END
>  <minimizedAffinity>  (1) 
-5.92916012

>  <minimizedRMSD>  (1) 
0.441073656

$$$$
