
     RDKit          3D

 42 44  0  0  0  0  0  0  0  0999 V2000
   43.7240   34.8370   40.1340 O   0  0  0  0  0  0  0  0  0  0  0  0
   43.2810   34.7020   41.5850 P   0  0  1  0  0  0  0  0  0  0  0  0
   43.2020   33.0520   41.9560 O   0  0  0  0  0  0  0  0  0  0  0  0
   44.4440   35.4050   42.6050 O   0  0  0  0  0  0  0  0  0  0  0  0
   46.5130   34.3610   43.0250 C   0  0  0  0  0  0  0  0  0  0  0  0
   45.2730   34.7320   43.4960 C   0  0  0  0  0  0  0  0  0  0  0  0
   44.9500   34.4060   44.8180 C   0  0  0  0  0  0  0  0  0  0  0  0
   45.8710   33.7500   45.5480 N   0  0  0  0  0  0  0  0  0  0  0  0
   47.0700   33.3970   45.0770 C   0  0  0  0  0  0  0  0  0  0  0  0
   47.3890   33.7070   43.8050 N   0  0  0  0  0  0  0  0  0  0  0  0
   46.9210   34.6680   41.6510 C   0  0  0  0  0  0  0  0  0  0  0  0
   48.2660   35.3280   41.6670 C   0  0  0  0  0  0  0  0  0  0  0  0
   41.7350   35.3420   41.7870 O   0  0  0  0  0  0  0  0  0  0  0  0
   40.6500   34.6460   41.2810 C   0  0  0  0  0  0  0  0  0  0  0  0
   39.8670   35.2990   40.3330 C   0  0  0  0  0  0  0  0  0  0  0  0
   38.7540   34.6900   39.7610 C   0  0  0  0  0  0  0  0  0  0  0  0
   38.4520   33.4190   40.1640 N   0  0  0  0  0  0  0  0  0  0  0  0
   39.2110   32.8050   41.0740 C   0  0  0  0  0  0  0  0  0  0  0  0
   40.2680   33.4000   41.6080 N   0  0  0  0  0  0  0  0  0  0  0  0
   38.8280   31.4840   41.4370 N   0  0  0  0  0  0  0  0  0  0  0  0
   37.5700   30.8290   41.1780 C   0  0  0  0  0  0  0  0  0  0  0  0
   38.0540   29.4060   40.8860 C   0  0  0  0  0  0  0  0  0  0  0  0
   39.0330   29.2020   42.0280 C   0  0  0  0  0  0  0  0  0  0  0  0
   39.6810   30.5480   42.1580 C   0  0  0  0  0  0  0  0  0  0  0  0
   43.1964   32.9347   42.9390 H   0  0  0  0  0  0  0  0  0  0  0  0
   43.9741   34.6773   45.2470 H   0  0  0  0  0  0  0  0  0  0  0  0
   47.7861   32.8614   45.7176 H   0  0  0  0  0  0  0  0  0  0  0  0
   46.1854   35.3451   41.1923 H   0  0  0  0  0  0  0  0  0  0  0  0
   46.9753   33.7373   41.0672 H   0  0  0  0  0  0  0  0  0  0  0  0
   48.5852   35.4846   42.7079 H   0  0  0  0  0  0  0  0  0  0  0  0
   48.9958   34.6857   41.1524 H   0  0  0  0  0  0  0  0  0  0  0  0
   48.2045   36.2983   41.1524 H   0  0  0  0  0  0  0  0  0  0  0  0
   40.1347   36.3216   40.0285 H   0  0  0  0  0  0  0  0  0  0  0  0
   38.1400   35.2120   39.0123 H   0  0  0  0  0  0  0  0  0  0  0  0
   36.9069   30.8609   42.0551 H   0  0  0  0  0  0  0  0  0  0  0  0
   36.9718   31.2845   40.3751 H   0  0  0  0  0  0  0  0  0  0  0  0
   37.2279   28.6807   40.9258 H   0  0  0  0  0  0  0  0  0  0  0  0
   38.4860   29.2672   39.8839 H   0  0  0  0  0  0  0  0  0  0  0  0
   38.5085   28.9242   42.9541 H   0  0  0  0  0  0  0  0  0  0  0  0
   39.7517   28.3897   41.8443 H   0  0  0  0  0  0  0  0  0  0  0  0
   40.6875   30.5306   41.7145 H   0  0  0  0  0  0  0  0  0  0  0  0
   39.7909   30.8386   43.2132 H   0  0  0  0  0  0  0  0  0  0  0  0
  2  1  2  0
  2 13  1  0
  2  3  1  0
  2  4  1  0
  4  6  1  0
  5  6  2  0
  5 10  1  0
  6  7  1  0
  7  8  2  0
  9  8  1  0
 10  9  2  0
 11 12  1  0
 11  5  1  0
 14 19  1  0
 14 13  1  0
 15 14  2  0
 16 17  2  0
 16 15  1  0
 17 18  1  0
 18 20  1  0
 18 19  2  0
 20 24  1  0
 21 20  1  0
 22 21  1  0
 22 23  1  0
 23 24  1  0
  3 25  1  0
  7 26  1  0
  9 27  1  0
 11 28  1  0
 11 29  1  0
 12 30  1  0
 12 31  1  0
 12 32  1  0
 15 33  1  0
 16 34  1  0
 21 35  1  0
 21 36  1  0
 22 37  1  0
 22 38  1  0
 23 39  1  0
 23 40  1  0
 24 41  1  0
 24 42  1  0
M  ISO  8  25   3  26  14  27  14  28   8  29   8  30   8  31   8  32   8
M  ISO  8  33  14  34  14  35  13  36  13  37  13  38  13  39  13  40  13
M  ISO  2  41  13  42  13
M  END
>  <minimizedAffinity>  (1) 
-5.87350702

>  <minimizedRMSD>  (1) 
0.343882829

$$$$
