
     RDKit          3D

 37 39  0  0  0  0  0  0  0  0999 V2000
   43.7560   34.8600   40.1510 O   0  0  0  0  0  0  0  0  0  0  0  0
   43.3130   34.7310   41.6030 P   0  0  1  0  0  0  0  0  0  0  0  0
   43.2110   33.0680   41.9800 O   0  0  0  0  0  0  0  0  0  0  0  0
   44.4830   35.4110   42.6200 O   0  0  0  0  0  0  0  0  0  0  0  0
   46.5450   34.3510   43.0270 C   0  0  0  0  0  0  0  0  0  0  0  0
   45.3060   34.7320   43.4990 C   0  0  0  0  0  0  0  0  0  0  0  0
   44.9820   34.3980   44.8320 C   0  0  0  0  0  0  0  0  0  0  0  0
   45.9100   33.7280   45.5510 N   0  0  0  0  0  0  0  0  0  0  0  0
   47.1020   33.3730   45.0660 C   0  0  0  0  0  0  0  0  0  0  0  0
   47.4220   33.6870   43.7920 N   0  0  0  0  0  0  0  0  0  0  0  0
   46.9460   34.6610   41.6610 C   0  0  0  0  0  0  0  0  0  0  0  0
   48.2960   35.3360   41.6850 C   0  0  0  0  0  0  0  0  0  0  0  0
   41.7710   35.3920   41.8170 O   0  0  0  0  0  0  0  0  0  0  0  0
   40.6860   34.7240   41.2650 C   0  0  0  0  0  0  0  0  0  0  0  0
   39.9300   35.3970   40.3200 C   0  0  0  0  0  0  0  0  0  0  0  0
   38.8210   34.8100   39.7110 C   0  0  0  0  0  0  0  0  0  0  0  0
   38.4940   33.5310   40.0770 N   0  0  0  0  0  0  0  0  0  0  0  0
   39.2330   32.9030   40.9870 C   0  0  0  0  0  0  0  0  0  0  0  0
   40.2870   33.4700   41.5630 N   0  0  0  0  0  0  0  0  0  0  0  0
   38.8440   31.5220   41.3550 C   0  0  0  0  0  0  0  0  0  0  0  0
   37.6550   30.9530   41.1720 C   0  0  0  0  0  0  0  0  0  0  0  0
   37.4130   29.6620   41.5540 C   0  0  0  0  0  0  0  0  0  0  0  0
   38.6070   29.0050   42.1770 C   0  0  0  0  0  0  0  0  0  0  0  0
   39.8890   30.3780   42.1020 S   0  0  0  0  0  0  0  0  0  0  0  0
   43.2039   32.9523   42.9632 H   0  0  0  0  0  0  0  0  0  0  0  0
   44.0107   34.6728   45.2691 H   0  0  0  0  0  0  0  0  0  0  0  0
   47.8182   32.8288   45.6992 H   0  0  0  0  0  0  0  0  0  0  0  0
   46.2057   35.3336   41.2032 H   0  0  0  0  0  0  0  0  0  0  0  0
   47.0051   33.7338   41.0721 H   0  0  0  0  0  0  0  0  0  0  0  0
   48.6092   35.4926   42.7278 H   0  0  0  0  0  0  0  0  0  0  0  0
   49.0330   34.7003   41.1723 H   0  0  0  0  0  0  0  0  0  0  0  0
   48.2296   36.3070   41.1723 H   0  0  0  0  0  0  0  0  0  0  0  0
   40.2120   36.4232   40.0418 H   0  0  0  0  0  0  0  0  0  0  0  0
   38.2287   35.3558   38.9618 H   0  0  0  0  0  0  0  0  0  0  0  0
   36.8479   31.5345   40.7025 H   0  0  0  0  0  0  0  0  0  0  0  0
   36.4441   29.1592   41.4182 H   0  0  0  0  0  0  0  0  0  0  0  0
   38.7073   27.9844   42.5749 H   0  0  0  0  0  0  0  0  0  0  0  0
  2  1  2  0
  2 13  1  0
  2  3  1  0
  2  4  1  0
  4  6  1  0
  5  6  2  0
  5 10  1  0
  6  7  1  0
  7  8  2  0
  9  8  1  0
 10  9  2  0
 11 12  1  0
 11  5  1  0
 14 19  1  0
 14 13  1  0
 15 14  2  0
 16 17  2  0
 16 15  1  0
 17 18  1  0
 18 20  1  0
 18 19  2  0
 20 24  1  0
 21 20  2  0
 21 22  1  0
 22 23  2  0
 24 23  1  0
  3 25  1  0
  7 26  1  0
  9 27  1  0
 11 28  1  0
 11 29  1  0
 12 30  1  0
 12 31  1  0
 12 32  1  0
 15 33  1  0
 16 34  1  0
 21 35  1  0
 22 36  1  0
 23 37  1  0
M  ISO  8  25   3  26  14  27  14  28   8  29   8  30   8  31   8  32   8
M  ISO  5  33  14  34  14  35  14  36  14  37  14
M  END
>  <minimizedAffinity>  (1) 
-5.81028795

>  <minimizedRMSD>  (1) 
0.523619711

$$$$
