
     RDKit          3D

 32 33  0  0  0  0  0  0  0  0999 V2000
   44.4430   35.2970   42.5370 O   0  0  0  0  0  0  0  0  0  0  0  0
   46.5520   34.3140   42.8740 C   0  0  0  0  0  0  0  0  0  0  0  0
   45.3140   34.6330   43.3960 C   0  0  0  0  0  0  0  0  0  0  0  0
   45.0220   34.2780   44.7250 C   0  0  0  0  0  0  0  0  0  0  0  0
   45.9880   33.6370   45.4070 N   0  0  0  0  0  0  0  0  0  0  0  0
   47.1820   33.3330   44.8930 C   0  0  0  0  0  0  0  0  0  0  0  0
   47.4680   33.6690   43.6250 N   0  0  0  0  0  0  0  0  0  0  0  0
   46.9150   34.6550   41.5030 C   0  0  0  0  0  0  0  0  0  0  0  0
   48.2960   35.2530   41.4890 C   0  0  0  0  0  0  0  0  0  0  0  0
   43.6470   34.6200   40.1190 O   0  0  0  0  0  0  0  0  0  0  0  0
   43.2260   34.5970   41.5940 P   0  0  1  0  0  0  0  0  0  0  0  0
   43.0780   32.9760   42.0490 O   0  0  0  0  0  0  0  0  0  0  0  0
   41.7250   35.3310   41.7840 O   0  0  0  0  0  0  0  0  0  0  0  0
   40.6250   34.7790   41.1500 C   0  0  0  0  0  0  0  0  0  0  0  0
   40.1930   35.4080   39.9800 C   0  0  0  0  0  0  0  0  0  0  0  0
   39.0990   34.9280   39.2720 C   0  0  0  0  0  0  0  0  0  0  0  0
   38.4510   33.8250   39.7440 N   0  0  0  0  0  0  0  0  0  0  0  0
   38.8830   33.2350   40.8720 C   0  0  0  0  0  0  0  0  0  0  0  0
   39.9350   33.7010   41.5470 N   0  0  0  0  0  0  0  0  0  0  0  0
   38.1570   32.0910   41.3020 N   0  0  0  0  0  0  0  0  0  0  0  0
   44.0507   34.5131   45.1846 H   0  0  0  0  0  0  0  0  0  0  0  0
   47.9294   32.8087   45.5066 H   0  0  0  0  0  0  0  0  0  0  0  0
   46.9014   33.7469   40.8824 H   0  0  0  0  0  0  0  0  0  0  0  0
   46.1942   35.3820   41.1006 H   0  0  0  0  0  0  0  0  0  0  0  0
   48.6413   35.4025   42.5226 H   0  0  0  0  0  0  0  0  0  0  0  0
   48.9849   34.5726   40.9671 H   0  0  0  0  0  0  0  0  0  0  0  0
   48.2711   36.2210   40.9671 H   0  0  0  0  0  0  0  0  0  0  0  0
   43.0720   32.9097   43.0368 H   0  0  0  0  0  0  0  0  0  0  0  0
   40.7275   36.2970   39.6139 H   0  0  0  0  0  0  0  0  0  0  0  0
   38.7627   35.4265   38.3509 H   0  0  0  0  0  0  0  0  0  0  0  0
   38.4388   31.5945   42.1593 H   0  0  0  0  0  0  0  0  0  0  0  0
   37.3492   31.7586   40.7562 H   0  0  0  0  0  0  0  0  0  0  0  0
  1  3  1  0
  2  3  2  0
  2  7  1  0
  3  4  1  0
  4  5  2  0
  6  5  1  0
  7  6  2  0
  8  2  1  0
  9  8  1  0
 11 10  2  0
 11 13  1  0
 11 12  1  0
 11  1  1  0
 14 19  1  0
 14 13  1  0
 15 14  2  0
 16 17  2  0
 16 15  1  0
 17 18  1  0
 18 20  1  0
 18 19  2  0
  4 21  1  0
  6 22  1  0
  8 23  1  0
  8 24  1  0
  9 25  1  0
  9 26  1  0
  9 27  1  0
 12 28  1  0
 15 29  1  0
 16 30  1  0
 20 31  1  0
 20 32  1  0
M  ISO  8  21  14  22  14  23   8  24   8  25   8  26   8  27   8  28   3
M  ISO  2  29  14  30  14
M  END
>  <minimizedAffinity>  (1) 
-5.40578556

>  <minimizedRMSD>  (1) 
0.267622262

$$$$
