
     RDKit          3D

 26 28  0  0  1  0  0  0  0  0999 V2000
   46.7790   35.2120   41.8090 C   0  0  1  0  0  0  0  0  0  0  0  0
   48.2360   34.8150   41.9060 C   0  0  0  0  0  0  0  0  0  0  0  0
   47.1710   33.9730   41.1520 C   0  0  2  0  0  0  0  0  0  0  0  0
   44.5050   35.8720   44.7330 C   0  0  0  0  0  0  0  0  0  0  0  0
   45.1100   36.0730   43.4800 C   0  0  0  0  0  0  0  0  0  0  0  0
   46.0690   35.1370   43.1270 C   0  0  0  0  0  0  0  0  0  0  0  0
   46.3700   34.1020   43.9790 N   0  0  0  0  0  0  0  0  0  0  0  0
   45.7500   33.9600   45.1800 C   0  0  0  0  0  0  0  0  0  0  0  0
   44.8110   34.8550   45.5520 N   0  0  0  0  0  0  0  0  0  0  0  0
   47.3120   33.8680   39.6750 C   0  0  0  0  0  0  0  0  0  0  0  0
   48.3130   34.5410   38.9860 C   0  0  0  0  0  0  0  0  0  0  0  0
   48.3590   34.3780   37.6170 C   0  0  0  0  0  0  0  0  0  0  0  0
   47.4520   33.5780   36.9270 C   0  0  0  0  0  0  0  0  0  0  0  0
   46.4780   32.9340   37.6730 C   0  0  0  0  0  0  0  0  0  0  0  0
   46.4180   33.0830   39.0180 N   0  0  0  0  0  0  0  0  0  0  0  0
   46.2128   36.0805   41.4415 H   0  0  0  0  0  0  0  0  0  0  0  0
   49.0051   35.3711   41.3499 H   0  0  0  0  0  0  0  0  0  0  0  0
   48.9627   34.6422   42.7135 H   0  0  0  0  0  0  0  0  0  0  0  0
   46.7746   32.9478   41.1956 H   0  0  0  0  0  0  0  0  0  0  0  0
   43.7376   36.5891   45.0600 H   0  0  0  0  0  0  0  0  0  0  0  0
   44.8408   36.9149   42.8252 H   0  0  0  0  0  0  0  0  0  0  0  0
   46.0114   33.1224   45.8434 H   0  0  0  0  0  0  0  0  0  0  0  0
   49.0398   35.1783   39.5110 H   0  0  0  0  0  0  0  0  0  0  0  0
   49.1426   34.9002   37.0484 H   0  0  0  0  0  0  0  0  0  0  0  0
   47.5065   33.4620   35.8345 H   0  0  0  0  0  0  0  0  0  0  0  0
   45.7427   32.2923   37.1655 H   0  0  0  0  0  0  0  0  0  0  0  0
  1  2  1  0
  1  6  1  0
  3  1  1  0
  3  2  1  0
  4  9  2  0
  5  4  1  0
  6  5  2  0
  6  7  1  0
  7  8  2  0
  8  9  1  0
 10  3  1  0
 11 10  2  0
 12 11  1  0
 13 12  2  0
 13 14  1  0
 14 15  2  0
 15 10  1  0
  1 16  1  6
  2 17  1  0
  2 18  1  0
  3 19  1  1
  4 20  1  0
  5 21  1  0
  8 22  1  0
 11 23  1  0
 12 24  1  0
 13 25  1  0
 14 26  1  0
M  ISO  8  16  13  17  13  18  13  19  13  20  14  21  14  22  14  23  14
M  ISO  3  24  14  25  14  26  14
M  END
>  <minimizedAffinity>  (1) 
-4.86477852

>  <minimizedRMSD>  (1) 
1.76312304

$$$$
