
     RDKit          3D

 31 33  0  0  1  0  0  0  0  0999 V2000
   46.7190   34.8450   41.6570 C   0  0  1  0  0  0  0  0  0  0  0  0
   48.2060   35.1380   41.7360 C   0  0  0  0  0  0  0  0  0  0  0  0
   47.6360   33.7380   41.4330 C   0  0  2  0  0  0  0  0  0  0  0  0
   44.5550   36.0070   44.5160 C   0  0  0  0  0  0  0  0  0  0  0  0
   45.1630   36.0070   43.2480 C   0  0  0  0  0  0  0  0  0  0  0  0
   46.0330   34.9580   42.9880 C   0  0  0  0  0  0  0  0  0  0  0  0
   46.2610   33.9940   43.9410 N   0  0  0  0  0  0  0  0  0  0  0  0
   45.6510   34.0330   45.1530 C   0  0  0  0  0  0  0  0  0  0  0  0
   44.8040   35.0440   45.4230 N   0  0  0  0  0  0  0  0  0  0  0  0
   47.9850   33.2140   40.1640 N   0  0  0  0  0  0  0  0  0  0  0  0
   49.1890   32.4940   40.0540 C   0  0  0  0  0  0  0  0  0  0  0  0
   49.3070   32.0300   38.5960 C   0  0  0  0  0  0  0  0  0  0  0  0
   49.5100   33.2370   37.8300 N   0  0  0  0  0  0  0  0  0  0  0  0
   48.3190   34.0360   37.8480 C   0  0  0  0  0  0  0  0  0  0  0  0
   47.4360   33.8350   39.0370 C   0  0  0  0  0  0  0  0  0  0  0  0
   45.8614   35.2113   41.0737 H   0  0  0  0  0  0  0  0  0  0  0  0
   48.7031   35.7216   40.9471 H   0  0  0  0  0  0  0  0  0  0  0  0
   48.8933   35.5749   42.4754 H   0  0  0  0  0  0  0  0  0  0  0  0
   47.6471   32.7238   41.8587 H   0  0  0  0  0  0  0  0  0  0  0  0
   43.8564   36.8166   44.7739 H   0  0  0  0  0  0  0  0  0  0  0  0
   44.9606   36.7929   42.5055 H   0  0  0  0  0  0  0  0  0  0  0  0
   45.8455   33.2514   45.9022 H   0  0  0  0  0  0  0  0  0  0  0  0
   50.0401   33.1405   40.3141 H   0  0  0  0  0  0  0  0  0  0  0  0
   49.1944   31.6339   40.7397 H   0  0  0  0  0  0  0  0  0  0  0  0
   50.1621   31.3486   38.4760 H   0  0  0  0  0  0  0  0  0  0  0  0
   48.4138   31.4791   38.2663 H   0  0  0  0  0  0  0  0  0  0  0  0
   49.7395   32.9889   36.8570 H   0  0  0  0  0  0  0  0  0  0  0  0
   48.6186   35.0941   37.8215 H   0  0  0  0  0  0  0  0  0  0  0  0
   47.7291   33.7245   36.9734 H   0  0  0  0  0  0  0  0  0  0  0  0
   46.5813   33.2243   38.7105 H   0  0  0  0  0  0  0  0  0  0  0  0
   47.1931   34.8533   39.3747 H   0  0  0  0  0  0  0  0  0  0  0  0
  1  2  1  0
  1  6  1  0
  3  1  1  0
  3  2  1  0
  4  9  2  0
  5  4  1  0
  6  5  2  0
  6  7  1  0
  7  8  2  0
  8  9  1  0
 10 15  1  0
 10  3  1  0
 11 10  1  0
 12 11  1  0
 13 14  1  0
 13 12  1  0
 14 15  1  0
  1 16  1  6
  2 17  1  0
  2 18  1  0
  3 19  1  1
  4 20  1  0
  5 21  1  0
  8 22  1  0
 11 23  1  0
 11 24  1  0
 12 25  1  0
 12 26  1  0
 13 27  1  0
 14 28  1  0
 14 29  1  0
 15 30  1  0
 15 31  1  0
M  ISO  8  16  13  17  13  18  13  19  13  20  14  21  14  22  14  23  13
M  ISO  8  24  13  25  13  26  13  27   5  28  13  29  13  30  13  31  13
M  END
>  <minimizedAffinity>  (1) 
-4.81301117

>  <minimizedRMSD>  (1) 
0.939988136

$$$$
