
     RDKit          3D

 33 35  0  0  1  0  0  0  0  0999 V2000
   46.6340   35.1440   41.8790 C   0  0  1  0  0  0  0  0  0  0  0  0
   48.1460   35.2160   41.8700 C   0  0  0  0  0  0  0  0  0  0  0  0
   47.3460   34.0310   41.2620 C   0  0  2  0  0  0  0  0  0  0  0  0
   44.5790   35.5070   45.0240 C   0  0  0  0  0  0  0  0  0  0  0  0
   45.0840   35.7910   43.7180 C   0  0  0  0  0  0  0  0  0  0  0  0
   46.0700   34.9410   43.2460 C   0  0  0  0  0  0  0  0  0  0  0  0
   46.5120   33.8990   44.0110 N   0  0  0  0  0  0  0  0  0  0  0  0
   46.0100   33.6550   45.2530 C   0  0  0  0  0  0  0  0  0  0  0  0
   45.0410   34.4660   45.7530 N   0  0  0  0  0  0  0  0  0  0  0  0
   47.4260   33.8200   39.7830 C   0  0  0  0  0  0  0  0  0  0  0  0
   48.4210   34.7370   39.1110 C   0  0  0  0  0  0  0  0  0  0  0  0
   48.3360   34.4080   37.6170 C   0  0  0  0  0  0  0  0  0  0  0  0
   48.7750   33.0000   37.3590 C   0  0  0  0  0  0  0  0  0  0  0  0
   49.0840   32.2940   38.6760 C   0  0  0  0  0  0  0  0  0  0  0  0
   47.8620   32.3940   39.5290 C   0  0  0  0  0  0  0  0  0  0  0  0
   45.8100   35.7767   41.5174 H   0  0  0  0  0  0  0  0  0  0  0  0
   48.6675   35.9315   41.2172 H   0  0  0  0  0  0  0  0  0  0  0  0
   48.9419   35.3383   42.6193 H   0  0  0  0  0  0  0  0  0  0  0  0
   47.2830   32.9414   41.3990 H   0  0  0  0  0  0  0  0  0  0  0  0
   43.7945   36.1515   45.4472 H   0  0  0  0  0  0  0  0  0  0  0  0
   44.7109   36.6366   43.1215 H   0  0  0  0  0  0  0  0  0  0  0  0
   46.3857   32.8085   45.8466 H   0  0  0  0  0  0  0  0  0  0  0  0
   46.4319   34.0367   39.3648 H   0  0  0  0  0  0  0  0  0  0  0  0
   48.1549   35.7894   39.2887 H   0  0  0  0  0  0  0  0  0  0  0  0
   49.4385   34.5932   39.5035 H   0  0  0  0  0  0  0  0  0  0  0  0
   47.2963   34.5296   37.2791 H   0  0  0  0  0  0  0  0  0  0  0  0
   48.9989   35.0915   37.0662 H   0  0  0  0  0  0  0  0  0  0  0  0
   47.9722   32.4591   36.8366 H   0  0  0  0  0  0  0  0  0  0  0  0
   49.6832   33.0155   36.7386 H   0  0  0  0  0  0  0  0  0  0  0  0
   49.3276   31.2377   38.4891 H   0  0  0  0  0  0  0  0  0  0  0  0
   49.9471   32.7590   39.1748 H   0  0  0  0  0  0  0  0  0  0  0  0
   47.0408   31.8618   39.0266 H   0  0  0  0  0  0  0  0  0  0  0  0
   48.1078   31.9493   40.5046 H   0  0  0  0  0  0  0  0  0  0  0  0
  1  6  1  0
  2  1  1  0
  3  2  1  0
  3  1  1  0
  4  9  2  0
  5  4  1  0
  6  5  2  0
  6  7  1  0
  7  8  2  0
  8  9  1  0
 10  3  1  0
 11 10  1  0
 12 11  1  0
 13 12  1  0
 13 14  1  0
 14 15  1  0
 15 10  1  0
  1 16  1  6
  2 17  1  0
  2 18  1  0
  3 19  1  1
  4 20  1  0
  5 21  1  0
  8 22  1  0
 10 23  1  0
 11 24  1  0
 11 25  1  0
 12 26  1  0
 12 27  1  0
 13 28  1  0
 13 29  1  0
 14 30  1  0
 14 31  1  0
 15 32  1  0
 15 33  1  0
M  ISO  8  16  13  17  13  18  13  19  13  20  14  21  14  22  14  23  13
M  ISO  8  24  13  25  13  26  13  27  13  28  13  29  13  30  13  31  13
M  ISO  2  32  13  33  13
M  END
>  <minimizedAffinity>  (1) 
-4.80735636

>  <minimizedRMSD>  (1) 
1.5234772

$$$$
