
     RDKit          3D

 24 26  0  0  1  0  0  0  0  0999 V2000
   47.2310   34.3090   42.1550 C   0  0  1  0  0  0  0  0  0  0  0  0
   48.1710   35.4350   41.7790 C   0  0  0  0  0  0  0  0  0  0  0  0
   48.6420   34.1350   42.4800 C   0  0  2  0  0  0  0  0  0  0  0  0
   44.6520   36.0620   44.2650 C   0  0  0  0  0  0  0  0  0  0  0  0
   45.4810   35.8260   43.1560 C   0  0  0  0  0  0  0  0  0  0  0  0
   46.2970   34.6990   43.2700 C   0  0  0  0  0  0  0  0  0  0  0  0
   46.2460   33.9220   44.4040 N   0  0  0  0  0  0  0  0  0  0  0  0
   45.4230   34.2040   45.4370 C   0  0  0  0  0  0  0  0  0  0  0  0
   44.6240   35.2880   45.3500 N   0  0  0  0  0  0  0  0  0  0  0  0
   49.5610   33.2410   41.6900 C   0  0  0  0  0  0  0  0  0  0  0  0
   50.9230   32.9080   42.0910 C   0  0  0  0  0  0  0  0  0  0  0  0
   49.8610   31.9100   42.4330 C   0  0  0  0  0  0  0  0  0  0  0  0
   46.5177   33.6581   41.6282 H   0  0  0  0  0  0  0  0  0  0  0  0
   48.4228   35.6240   40.7250 H   0  0  0  0  0  0  0  0  0  0  0  0
   48.2384   36.5151   41.9763 H   0  0  0  0  0  0  0  0  0  0  0  0
   49.1551   33.8523   43.4110 H   0  0  0  0  0  0  0  0  0  0  0  0
   43.9864   36.9373   44.2365 H   0  0  0  0  0  0  0  0  0  0  0  0
   45.4868   36.4767   42.2691 H   0  0  0  0  0  0  0  0  0  0  0  0
   45.4044   33.5632   46.3309 H   0  0  0  0  0  0  0  0  0  0  0  0
   49.1725   33.6104   40.7295 H   0  0  0  0  0  0  0  0  0  0  0  0
   51.6681   32.6614   41.3203 H   0  0  0  0  0  0  0  0  0  0  0  0
   51.6878   33.4326   42.6825 H   0  0  0  0  0  0  0  0  0  0  0  0
   49.5426   31.7696   43.4765 H   0  0  0  0  0  0  0  0  0  0  0  0
   49.6870   30.8398   42.2475 H   0  0  0  0  0  0  0  0  0  0  0  0
  1  3  1  0
  1  6  1  0
  2  1  1  0
  2  3  1  0
  4  9  2  0
  5  6  2  0
  5  4  1  0
  6  7  1  0
  7  8  2  0
  9  8  1  0
 10 11  1  0
 10 12  1  0
 10  3  1  0
 11 12  1  0
  1 13  1  6
  2 14  1  0
  2 15  1  0
  3 16  1  1
  4 17  1  0
  5 18  1  0
  8 19  1  0
 10 20  1  0
 11 21  1  0
 11 22  1  0
 12 23  1  0
 12 24  1  0
M  ISO  8  13  13  14  13  15  13  16  13  17  14  18  14  19  14  20  13
M  ISO  4  21  13  22  13  23  13  24  13
M  END
>  <minimizedAffinity>  (1) 
-4.30015421

>  <minimizedRMSD>  (1) 
1.07437849

$$$$
