
     RDKit          3D

 20 21  0  0  1  0  0  0  0  0999 V2000
   47.4330   33.5260   41.2980 C   0  0  1  0  0  0  0  0  0  0  0  0
   47.9580   34.6190   40.3990 C   0  0  0  0  0  0  0  0  0  0  0  0
   48.8640   33.7790   41.3250 C   0  0  1  0  0  0  0  0  0  0  0  0
   45.2680   35.7110   43.4850 C   0  0  0  0  0  0  0  0  0  0  0  0
   46.0640   35.3300   42.3770 C   0  0  0  0  0  0  0  0  0  0  0  0
   46.5890   34.0480   42.4200 C   0  0  0  0  0  0  0  0  0  0  0  0
   46.3250   33.2340   43.4920 N   0  0  0  0  0  0  0  0  0  0  0  0
   45.5660   33.6240   44.5260 C   0  0  0  0  0  0  0  0  0  0  0  0
   45.0410   34.8640   44.5140 N   0  0  0  0  0  0  0  0  0  0  0  0
   49.6080   34.6010   42.3140 C   0  0  0  0  0  0  0  0  0  0  0  0
   49.0060   34.5770   43.5830 F   0  0  0  0  0  0  0  0  0  0  0  0
   50.9560   34.4120   42.3480 F   0  0  0  0  0  0  0  0  0  0  0  0
   49.4520   35.9560   41.9440 F   0  0  0  0  0  0  0  0  0  0  0  0
   46.8595   32.5962   41.1697 H   0  0  0  0  0  0  0  0  0  0  0  0
   47.9900   34.4781   39.3085 H   0  0  0  0  0  0  0  0  0  0  0  0
   47.7527   35.6883   40.2428 H   0  0  0  0  0  0  0  0  0  0  0  0
   49.6966   33.0610   41.2882 H   0  0  0  0  0  0  0  0  0  0  0  0
   44.8251   36.7176   43.5087 H   0  0  0  0  0  0  0  0  0  0  0  0
   46.2539   36.0102   41.5337 H   0  0  0  0  0  0  0  0  0  0  0  0
   45.3755   32.9434   45.3689 H   0  0  0  0  0  0  0  0  0  0  0  0
  1  3  1  0
  1  6  1  0
  2  1  1  0
  2  3  1  0
  3 10  1  0
  4  9  2  0
  5  6  2  0
  5  4  1  0
  6  7  1  0
  7  8  2  0
  9  8  1  0
 10 12  1  0
 10 11  1  0
 13 10  1  0
  1 14  1  6
  2 15  1  0
  2 16  1  0
  3 17  1  6
  4 18  1  0
  5 19  1  0
  8 20  1  0
M  ISO  7  14  13  15  13  16  13  17  13  18  14  19  14  20  14
M  END
>  <minimizedAffinity>  (1) 
-4.12648535

>  <minimizedRMSD>  (1) 
1.65925753

$$$$
