
     RDKit          3D

 38 40  0  0  1  0  0  0  0  0999 V2000
   47.1520   34.9280   41.8730 C   0  0  1  0  0  0  0  0  0  0  0  0
   47.8400   33.6450   41.5870 C   0  0  0  0  0  0  0  0  0  0  0  0
   46.6680   34.1220   40.7390 C   0  0  1  0  0  0  0  0  0  0  0  0
   45.6430   34.0060   45.1960 C   0  0  0  0  0  0  0  0  0  0  0  0
   46.4650   33.9460   44.0590 C   0  0  0  0  0  0  0  0  0  0  0  0
   46.3080   34.9530   43.1000 C   0  0  0  0  0  0  0  0  0  0  0  0
   45.3890   35.9410   43.2880 N   0  0  0  0  0  0  0  0  0  0  0  0
   44.6090   35.9720   44.3950 C   0  0  0  0  0  0  0  0  0  0  0  0
   44.7380   35.0060   45.3460 N   0  0  0  0  0  0  0  0  0  0  0  0
   45.4420   33.5860   40.8330 O   0  0  0  0  0  0  0  0  0  0  0  0
   44.0110   31.8910   39.3710 O   0  0  0  0  0  0  0  0  0  0  0  0
   44.5830   33.2860   39.4720 P   0  0  2  0  0  0  0  0  0  0  0  0
   45.4460   33.5450   38.0370 O   0  0  0  0  0  0  0  0  0  0  0  0
   43.2520   34.3300   39.4140 O   0  0  0  0  0  0  0  0  0  0  0  0
   40.3730   36.1660   40.3120 N   0  0  0  0  0  0  0  0  0  0  0  0
   40.5280   35.2410   39.2260 C   0  0  0  0  0  0  0  0  0  0  0  0
   40.9170   33.9010   39.8220 C   0  0  0  0  0  0  0  0  0  0  0  0
   42.3250   34.0080   40.4040 C   0  0  0  0  0  0  0  0  0  0  0  0
   42.2820   35.0810   41.4450 C   0  0  0  0  0  0  0  0  0  0  0  0
   40.9270   35.7500   41.5600 C   0  0  0  0  0  0  0  0  0  0  0  0
   47.4756   35.9742   41.9771 H   0  0  0  0  0  0  0  0  0  0  0  0
   48.8589   33.6435   41.1725 H   0  0  0  0  0  0  0  0  0  0  0  0
   48.0771   32.7360   42.1593 H   0  0  0  0  0  0  0  0  0  0  0  0
   46.5253   34.2504   39.6559 H   0  0  0  0  0  0  0  0  0  0  0  0
   45.7337   33.2336   45.9739 H   0  0  0  0  0  0  0  0  0  0  0  0
   47.2023   33.1403   43.9275 H   0  0  0  0  0  0  0  0  0  0  0  0
   43.8714   36.7775   44.5257 H   0  0  0  0  0  0  0  0  0  0  0  0
   46.3712   33.8227   38.2539 H   0  0  0  0  0  0  0  0  0  0  0  0
   39.3650   36.3263   40.4504 H   0  0  0  0  0  0  0  0  0  0  0  0
   41.3160   35.5916   38.5433 H   0  0  0  0  0  0  0  0  0  0  0  0
   39.5926   35.1542   38.6538 H   0  0  0  0  0  0  0  0  0  0  0  0
   40.2078   33.6313   40.6185 H   0  0  0  0  0  0  0  0  0  0  0  0
   40.8942   33.1257   39.0420 H   0  0  0  0  0  0  0  0  0  0  0  0
   42.6377   33.0463   40.8367 H   0  0  0  0  0  0  0  0  0  0  0  0
   42.5345   34.6340   42.4179 H   0  0  0  0  0  0  0  0  0  0  0  0
   43.0035   35.8553   41.1451 H   0  0  0  0  0  0  0  0  0  0  0  0
   41.0331   36.6361   42.2031 H   0  0  0  0  0  0  0  0  0  0  0  0
   40.2385   35.0007   41.9779 H   0  0  0  0  0  0  0  0  0  0  0  0
  1  6  1  0
  2  1  1  0
  3 10  1  0
  3  2  1  0
  3  1  1  0
  4  9  2  0
  5  4  1  0
  6  7  1  0
  6  5  2  0
  7  8  2  0
  8  9  1  0
 12 11  2  0
 12 10  1  0
 13 12  1  0
 14 12  1  0
 14 18  1  0
 15 20  1  0
 16 17  1  0
 16 15  1  0
 17 18  1  0
 18 19  1  0
 19 20  1  0
  1 21  1  6
  2 22  1  0
  2 23  1  0
  3 24  1  6
  4 25  1  0
  5 26  1  0
  8 27  1  0
 13 28  1  0
 15 29  1  0
 16 30  1  0
 16 31  1  0
 17 32  1  0
 17 33  1  0
 18 34  1  0
 19 35  1  0
 19 36  1  0
 20 37  1  0
 20 38  1  0
M  ISO  8  21  13  22  13  23  13  24  13  25  14  26  14  27  14  28   3
M  ISO  8  29   5  30  13  31  13  32  13  33  13  34  13  35  13  36  13
M  ISO  2  37  13  38  13
M  END
>  <minimizedAffinity>  (1) 
-5.01135683

>  <minimizedRMSD>  (1) 
3.1219604

$$$$
