
     RDKit          3D

 33 35  0  0  1  0  0  0  0  0999 V2000
   48.2070   35.6080   42.0500 C   0  0  1  0  0  0  0  0  0  0  0  0
   49.4770   34.8570   41.9270 C   0  0  0  0  0  0  0  0  0  0  0  0
   48.6030   35.1540   40.7160 C   0  0  1  0  0  0  0  0  0  0  0  0
   46.3010   33.0780   44.1130 C   0  0  0  0  0  0  0  0  0  0  0  0
   47.3730   33.7480   43.5200 C   0  0  0  0  0  0  0  0  0  0  0  0
   47.1000   34.8590   42.7120 C   0  0  0  0  0  0  0  0  0  0  0  0
   45.8030   35.2370   42.5390 N   0  0  0  0  0  0  0  0  0  0  0  0
   44.7760   34.5750   43.1230 C   0  0  0  0  0  0  0  0  0  0  0  0
   45.0320   33.4980   43.9070 N   0  0  0  0  0  0  0  0  0  0  0  0
   47.8640   34.2070   40.1170 O   0  0  0  0  0  0  0  0  0  0  0  0
   49.0620   32.5180   38.4630 O   0  0  0  0  0  0  0  0  0  0  0  0
   48.2140   33.7650   38.5770 P   0  0  2  0  0  0  0  0  0  0  0  0
   49.0220   34.9550   37.6890 O   0  0  0  0  0  0  0  0  0  0  0  0
   46.7840   33.4210   37.7480 O   0  0  0  0  0  0  0  0  0  0  0  0
   44.1050   32.2560   37.4520 Cl  0  0  0  0  0  0  0  0  0  0  0  0
   45.4480   32.1640   36.3240 C   0  0  0  0  0  0  0  0  0  0  0  0
   46.6860   32.7550   36.5600 C   0  0  0  0  0  0  0  0  0  0  0  0
   47.6360   32.5960   35.5830 C   0  0  0  0  0  0  0  0  0  0  0  0
   47.4000   31.8980   34.4330 C   0  0  0  0  0  0  0  0  0  0  0  0
   46.1740   31.3050   34.1840 C   0  0  0  0  0  0  0  0  0  0  0  0
   45.1890   31.4540   35.1660 C   0  0  0  0  0  0  0  0  0  0  0  0
   47.9202   36.5881   42.4589 H   0  0  0  0  0  0  0  0  0  0  0  0
   50.4405   35.3720   42.0553 H   0  0  0  0  0  0  0  0  0  0  0  0
   49.9058   33.9542   42.3864 H   0  0  0  0  0  0  0  0  0  0  0  0
   48.7953   35.6134   39.7352 H   0  0  0  0  0  0  0  0  0  0  0  0
   46.4899   32.2028   44.7520 H   0  0  0  0  0  0  0  0  0  0  0  0
   48.4073   33.4113   43.6835 H   0  0  0  0  0  0  0  0  0  0  0  0
   43.7402   34.9087   42.9625 H   0  0  0  0  0  0  0  0  0  0  0  0
   49.4552   35.5930   38.3099 H   0  0  0  0  0  0  0  0  0  0  0  0
   48.6274   33.0488   35.7318 H   0  0  0  0  0  0  0  0  0  0  0  0
   48.2030   31.8048   33.6870 H   0  0  0  0  0  0  0  0  0  0  0  0
   45.9835   30.7432   33.2577 H   0  0  0  0  0  0  0  0  0  0  0  0
   44.1977   31.0015   35.0154 H   0  0  0  0  0  0  0  0  0  0  0  0
  1  6  1  0
  2  1  1  0
  3  2  1  0
  3  1  1  0
  5  4  2  0
  6  5  1  0
  7  6  2  0
  7  8  1  0
  8  9  2  0
  9  4  1  0
 10  3  1  0
 12 11  2  0
 12 10  1  0
 13 12  1  0
 14 12  1  0
 16 17  2  0
 16 15  1  0
 17 14  1  0
 18 17  1  0
 19 18  2  0
 20 19  1  0
 20 21  2  0
 21 16  1  0
  1 22  1  6
  2 23  1  0
  2 24  1  0
  3 25  1  6
  4 26  1  0
  5 27  1  0
  8 28  1  0
 13 29  1  0
 18 30  1  0
 19 31  1  0
 20 32  1  0
 21 33  1  0
M  ISO  8  22  13  23  13  24  13  25  13  26  14  27  14  28  14  29   3
M  ISO  4  30  14  31  14  32  14  33  14
M  END
>  <minimizedAffinity>  (1) 
-4.70658302

>  <minimizedRMSD>  (1) 
0.78483057

$$$$
