
     RDKit          3D

 35 37  0  0  1  0  0  0  0  0999 V2000
   47.9670   35.6120   41.8490 C   0  0  1  0  0  0  0  0  0  0  0  0
   49.3560   35.0930   41.9320 C   0  0  0  0  0  0  0  0  0  0  0  0
   48.5930   35.0950   40.6160 C   0  0  1  0  0  0  0  0  0  0  0  0
   46.2650   33.0990   44.0750 C   0  0  0  0  0  0  0  0  0  0  0  0
   47.2870   33.8810   43.5170 C   0  0  0  0  0  0  0  0  0  0  0  0
   46.9300   34.7540   42.4940 C   0  0  0  0  0  0  0  0  0  0  0  0
   45.6380   34.8250   42.0720 N   0  0  0  0  0  0  0  0  0  0  0  0
   44.6710   34.0590   42.6270 C   0  0  0  0  0  0  0  0  0  0  0  0
   44.9900   33.1940   43.6310 N   0  0  0  0  0  0  0  0  0  0  0  0
   48.0700   33.9920   40.0660 O   0  0  0  0  0  0  0  0  0  0  0  0
   48.6670   34.9750   37.6760 O   0  0  0  0  0  0  0  0  0  0  0  0
   48.0420   33.8280   38.4390 P   0  0  2  0  0  0  0  0  0  0  0  0
   46.4870   33.6460   37.7960 O   0  0  0  0  0  0  0  0  0  0  0  0
   48.8930   32.4550   37.9820 O   0  0  0  0  0  0  0  0  0  0  0  0
   50.9510   31.5710   38.5920 C   0  0  1  0  0  0  0  0  0  0  0  0
   49.5210   31.8130   39.0400 C   0  0  2  0  0  0  0  0  0  0  0  0
   49.0040   30.3790   39.1990 C   0  0  0  0  0  0  0  0  0  0  0  0
   50.1020   29.5380   39.0240 O   0  0  0  0  0  0  0  0  0  0  0  0
   50.7860   30.1750   37.9800 C   0  0  0  0  0  0  0  0  0  0  0  0
   51.3600   32.4310   37.5950 O   0  0  0  0  0  0  0  0  0  0  0  0
   47.4727   36.5601   42.1072 H   0  0  0  0  0  0  0  0  0  0  0  0
   50.1971   35.7852   42.0850 H   0  0  0  0  0  0  0  0  0  0  0  0
   49.8758   34.3352   42.5366 H   0  0  0  0  0  0  0  0  0  0  0  0
   48.8373   35.4657   39.6096 H   0  0  0  0  0  0  0  0  0  0  0  0
   46.5038   32.3966   44.8872 H   0  0  0  0  0  0  0  0  0  0  0  0
   48.3253   33.8073   43.8726 H   0  0  0  0  0  0  0  0  0  0  0  0
   43.6332   34.1337   42.2701 H   0  0  0  0  0  0  0  0  0  0  0  0
   45.8316   33.5693   38.5340 H   0  0  0  0  0  0  0  0  0  0  0  0
   51.6868   31.6954   39.4002 H   0  0  0  0  0  0  0  0  0  0  0  0
   49.3760   32.4156   39.9487 H   0  0  0  0  0  0  0  0  0  0  0  0
   48.5750   30.2393   40.2022 H   0  0  0  0  0  0  0  0  0  0  0  0
   48.2145   30.1584   38.4655 H   0  0  0  0  0  0  0  0  0  0  0  0
   50.1899   30.2010   37.0559 H   0  0  0  0  0  0  0  0  0  0  0  0
   51.7227   29.6880   37.6712 H   0  0  0  0  0  0  0  0  0  0  0  0
   51.7478   33.2464   38.0011 H   0  0  0  0  0  0  0  0  0  0  0  0
  1  2  1  0
  1  6  1  0
  3  1  1  0
  3  2  1  0
  5  4  2  0
  6  5  1  0
  7  6  2  0
  7  8  1  0
  8  9  2  0
  9  4  1  0
 10  3  1  0
 12 11  2  0
 12 10  1  0
 13 12  1  0
 14 12  1  0
 15 20  1  0
 15 16  1  0
 16 14  1  0
 16 17  1  0
 18 17  1  0
 19 15  1  0
 19 18  1  0
  1 21  1  6
  2 22  1  0
  2 23  1  0
  3 24  1  6
  4 25  1  0
  5 26  1  0
  8 27  1  0
 13 28  1  0
 15 29  1  1
 16 30  1  1
 17 31  1  0
 17 32  1  0
 19 33  1  0
 19 34  1  0
 20 35  1  0
M  ISO  8  21  13  22  13  23  13  24  13  25  14  26  14  27  14  28   3
M  ISO  7  29  13  30  13  31  13  32  13  33  13  34  13  35   3
M  END
>  <minimizedAffinity>  (1) 
-4.52229881

>  <minimizedRMSD>  (1) 
3.17140865

$$$$
