
     RDKit          3D

 50 53  0  0  1  0  0  0  0  0999 V2000
   46.6320   32.9390   38.6680 N   0  0  0  0  0  0  0  0  0  0  0  0
   45.9350   33.3780   37.4560 C   0  0  0  0  0  0  0  0  0  0  0  0
   44.9470   32.3370   36.9930 C   0  0  0  0  0  0  0  0  0  0  0  0
   45.5970   31.0900   36.6220 N   0  0  0  0  0  0  0  0  0  0  0  0
   46.9240   31.1030   37.2030 C   0  0  0  0  0  0  0  0  0  0  0  0
   46.8110   31.4860   38.6940 C   0  0  1  0  0  0  0  0  0  0  0  0
   44.7390   33.0020   41.1790 Br  0  0  0  0  0  0  0  0  0  0  0  0
   46.3970   33.9290   40.9300 C   0  0  0  0  0  0  0  0  0  0  0  0
   46.8710   34.7340   41.9250 C   0  0  0  0  0  0  0  0  0  0  0  0
   48.0780   35.4360   41.7660 C   0  0  0  0  0  0  0  0  0  0  0  0
   48.7480   35.2760   40.5770 C   0  0  0  0  0  0  0  0  0  0  0  0
   48.2250   34.4510   39.6050 C   0  0  0  0  0  0  0  0  0  0  0  0
   47.0760   33.7740   39.7430 C   0  0  0  0  0  0  0  0  0  0  0  0
   45.5990   34.0820   45.2860 C   0  0  0  0  0  0  0  0  0  0  0  0
   44.6880   35.1290   45.5130 C   0  0  0  0  0  0  0  0  0  0  0  0
   44.5360   36.0450   44.4860 C   0  0  0  0  0  0  0  0  0  0  0  0
   45.2490   35.8950   43.3460 N   0  0  0  0  0  0  0  0  0  0  0  0
   46.1210   34.8670   43.1610 C   0  0  0  0  0  0  0  0  0  0  0  0
   46.2750   33.9780   44.1500 N   0  0  0  0  0  0  0  0  0  0  0  0
   47.9380   30.9680   39.4810 C   0  0  0  0  0  0  0  0  0  0  0  0
   49.2330   31.5610   38.8790 C   0  0  0  0  0  0  0  0  0  0  0  0
   50.3070   31.7510   39.8910 C   0  0  0  0  0  0  0  0  0  0  0  0
   50.3390   30.6890   40.9700 C   0  0  0  0  0  0  0  0  0  0  0  0
   49.0000   30.7330   41.6860 C   0  0  0  0  0  0  0  0  0  0  0  0
   47.9740   31.4880   40.9100 C   0  0  0  0  0  0  0  0  0  0  0  0
   45.3978   34.3140   37.6691 H   0  0  0  0  0  0  0  0  0  0  0  0
   46.6791   33.5328   36.6608 H   0  0  0  0  0  0  0  0  0  0  0  0
   44.2352   32.1369   37.8075 H   0  0  0  0  0  0  0  0  0  0  0  0
   44.4353   32.7295   36.1019 H   0  0  0  0  0  0  0  0  0  0  0  0
   45.0603   30.2908   36.9882 H   0  0  0  0  0  0  0  0  0  0  0  0
   47.3775   30.1051   37.1111 H   0  0  0  0  0  0  0  0  0  0  0  0
   47.5552   31.8339   36.6764 H   0  0  0  0  0  0  0  0  0  0  0  0
   45.9639   31.0241   39.2224 H   0  0  0  0  0  0  0  0  0  0  0  0
   48.4705   36.0871   42.5610 H   0  0  0  0  0  0  0  0  0  0  0  0
   49.6971   35.8038   40.4020 H   0  0  0  0  0  0  0  0  0  0  0  0
   48.7817   34.3417   38.6626 H   0  0  0  0  0  0  0  0  0  0  0  0
   45.7551   33.3287   46.0723 H   0  0  0  0  0  0  0  0  0  0  0  0
   44.1268   35.2155   46.4551 H   0  0  0  0  0  0  0  0  0  0  0  0
   43.8398   36.8895   44.5962 H   0  0  0  0  0  0  0  0  0  0  0  0
   47.8425   29.8722   39.4664 H   0  0  0  0  0  0  0  0  0  0  0  0
   49.6021   30.8787   38.0991 H   0  0  0  0  0  0  0  0  0  0  0  0
   48.9842   32.5519   38.4712 H   0  0  0  0  0  0  0  0  0  0  0  0
   51.2762   31.7434   39.3708 H   0  0  0  0  0  0  0  0  0  0  0  0
   50.1007   32.7069   40.3947 H   0  0  0  0  0  0  0  0  0  0  0  0
   50.4921   29.6978   40.5183 H   0  0  0  0  0  0  0  0  0  0  0  0
   51.1637   30.8736   41.6741 H   0  0  0  0  0  0  0  0  0  0  0  0
   48.6441   29.7031   41.8365 H   0  0  0  0  0  0  0  0  0  0  0  0
   49.1460   31.2489   42.6465 H   0  0  0  0  0  0  0  0  0  0  0  0
   48.2312   32.5575   40.9050 H   0  0  0  0  0  0  0  0  0  0  0  0
   46.9869   31.3514   41.3758 H   0  0  0  0  0  0  0  0  0  0  0  0
  1  6  1  0
  1 13  1  0
  2  1  1  0
  3  2  1  0
  4  3  1  0
  4  5  1  0
  5  6  1  0
  6 20  1  0
  8  7  1  0
  8  9  2  0
  9 18  1  0
 10  9  1  0
 11 10  2  0
 12 13  2  0
 12 11  1  0
 13  8  1  0
 14 15  2  0
 16 15  1  0
 17 16  2  0
 18 17  1  0
 18 19  2  0
 19 14  1  0
 20 25  1  0
 21 20  1  0
 21 22  1  0
 22 23  1  0
 23 24  1  0
 25 24  1  0
  2 26  1  0
  2 27  1  0
  3 28  1  0
  3 29  1  0
  4 30  1  0
  5 31  1  0
  5 32  1  0
  6 33  1  1
 10 34  1  0
 11 35  1  0
 12 36  1  0
 14 37  1  0
 15 38  1  0
 16 39  1  0
 20 40  1  0
 21 41  1  0
 21 42  1  0
 22 43  1  0
 22 44  1  0
 23 45  1  0
 23 46  1  0
 24 47  1  0
 24 48  1  0
 25 49  1  0
 25 50  1  0
M  ISO  8  26  13  27  13  28  13  29  13  30   5  31  13  32  13  33  13
M  ISO  8  34  14  35  14  36  14  37  14  38  14  39  14  40  13  41  13
M  ISO  8  42  13  43  13  44  13  45  13  46  13  47  13  48  13  49  13
M  ISO  1  50  13
M  END
>  <minimizedAffinity>  (1) 
-5.787642

>  <minimizedRMSD>  (1) 
0.488215029

$$$$
