
     RDKit          3D

 47 51  0  0  1  0  0  0  0  0999 V2000
   46.9150   33.8400   37.1110 O   0  0  0  0  0  0  0  0  0  0  0  0
   46.0820   32.7510   36.9430 C   0  0  0  0  0  0  0  0  0  0  0  0
   46.3540   31.5550   36.2900 C   0  0  0  0  0  0  0  0  0  0  0  0
   45.4210   30.5700   36.2100 C   0  0  0  0  0  0  0  0  0  0  0  0
   44.1820   30.7400   36.7770 C   0  0  0  0  0  0  0  0  0  0  0  0
   43.9440   31.9530   37.4240 C   0  0  0  0  0  0  0  0  0  0  0  0
   44.8670   32.9260   37.5030 N   0  0  0  0  0  0  0  0  0  0  0  0
   42.6170   32.1150   37.9950 C   0  0  0  0  0  0  0  0  0  0  0  0
   41.7880   31.0310   38.1820 C   0  0  0  0  0  0  0  0  0  0  0  0
   40.5360   31.1550   38.7130 C   0  0  0  0  0  0  0  0  0  0  0  0
   40.0190   32.3720   39.0960 C   0  0  0  0  0  0  0  0  0  0  0  0
   38.7840   32.4760   39.6160 N   0  0  0  0  0  0  0  0  0  0  0  0
   38.2510   33.6690   40.0030 C   0  0  0  0  0  0  0  0  0  0  0  0
   39.0600   34.7720   39.8260 C   0  0  0  0  0  0  0  0  0  0  0  0
   40.3310   34.7040   39.2970 C   0  0  0  0  0  0  0  0  0  0  0  0
   40.8290   33.4800   38.9210 C   0  0  0  0  0  0  0  0  0  0  0  0
   42.0890   33.3230   38.3820 C   0  0  0  0  0  0  0  0  0  0  0  0
   48.8860   32.5280   38.0420 O   0  0  0  0  0  0  0  0  0  0  0  0
   48.2030   33.8890   38.1880 P   0  0  1  0  0  0  0  0  0  0  0  0
   49.3220   35.0110   37.6060 O   0  0  0  0  0  0  0  0  0  0  0  0
   47.6820   34.1600   39.7160 O   0  0  0  0  0  0  0  0  0  0  0  0
   47.9020   35.2840   41.8480 C   0  0  1  0  0  0  0  0  0  0  0  0
   49.1200   34.4700   41.7440 C   0  0  0  0  0  0  0  0  0  0  0  0
   48.3890   35.0000   40.4990 C   0  0  1  0  0  0  0  0  0  0  0  0
   45.6420   32.6580   43.3820 C   0  0  0  0  0  0  0  0  0  0  0  0
   46.7980   33.3330   43.0040 C   0  0  0  0  0  0  0  0  0  0  0  0
   46.6750   34.5360   42.2830 C   0  0  0  0  0  0  0  0  0  0  0  0
   45.4310   34.9950   41.9800 N   0  0  0  0  0  0  0  0  0  0  0  0
   44.3260   34.3050   42.3680 C   0  0  0  0  0  0  0  0  0  0  0  0
   44.4320   33.1460   43.0640 N   0  0  0  0  0  0  0  0  0  0  0  0
   47.3415   31.4028   35.8299 H   0  0  0  0  0  0  0  0  0  0  0  0
   45.6597   29.6315   35.6882 H   0  0  0  0  0  0  0  0  0  0  0  0
   43.4124   29.9558   36.7236 H   0  0  0  0  0  0  0  0  0  0  0  0
   42.1465   30.0318   37.8939 H   0  0  0  0  0  0  0  0  0  0  0  0
   39.9201   30.2523   38.8389 H   0  0  0  0  0  0  0  0  0  0  0  0
   37.2400   33.7473   40.4294 H   0  0  0  0  0  0  0  0  0  0  0  0
   38.6706   35.7572   40.1224 H   0  0  0  0  0  0  0  0  0  0  0  0
   40.9365   35.6146   39.1779 H   0  0  0  0  0  0  0  0  0  0  0  0
   42.7103   34.2217   38.2539 H   0  0  0  0  0  0  0  0  0  0  0  0
   49.7680   35.4582   38.3684 H   0  0  0  0  0  0  0  0  0  0  0  0
   47.6442   36.2152   42.3737 H   0  0  0  0  0  0  0  0  0  0  0  0
   50.0943   34.8890   42.0360 H   0  0  0  0  0  0  0  0  0  0  0  0
   49.4429   33.4837   42.1087 H   0  0  0  0  0  0  0  0  0  0  0  0
   48.6811   35.5912   39.6186 H   0  0  0  0  0  0  0  0  0  0  0  0
   45.7196   31.7168   43.9460 H   0  0  0  0  0  0  0  0  0  0  0  0
   47.7898   32.9343   43.2636 H   0  0  0  0  0  0  0  0  0  0  0  0
   43.3289   34.6933   42.1131 H   0  0  0  0  0  0  0  0  0  0  0  0
  1 19  1  0
  2  1  1  0
  2  7  1  0
  3  2  2  0
  4  3  1  0
  4  5  2  0
  5  6  1  0
  6  7  2  0
  6  8  1  0
  8  9  2  0
  8 17  1  0
  9 10  1  0
 10 11  2  0
 11 12  1  0
 12 13  2  0
 14 13  1  0
 15 14  2  0
 16 11  1  0
 16 15  1  0
 17 16  2  0
 19 18  2  0
 19 21  1  0
 20 19  1  0
 21 24  1  0
 22 27  1  0
 23 22  1  0
 24 23  1  0
 24 22  1  0
 26 25  2  0
 27 26  1  0
 28 27  2  0
 28 29  1  0
 29 30  2  0
 30 25  1  0
  3 31  1  0
  4 32  1  0
  5 33  1  0
  9 34  1  0
 10 35  1  0
 13 36  1  0
 14 37  1  0
 15 38  1  0
 17 39  1  0
 20 40  1  0
 22 41  1  1
 23 42  1  0
 23 43  1  0
 24 44  1  6
 25 45  1  0
 26 46  1  0
 29 47  1  0
M  ISO  8  31  14  32  14  33  14  34  14  35  14  36  14  37  14  38  14
M  ISO  8  39  14  40   3  41  13  42  13  43  13  44  13  45  14  46  14
M  ISO  1  47  14
M  END
>  <minimizedAffinity>  (1) 
-6.08073997

>  <minimizedRMSD>  (1) 
1.56183004

$$$$
