
     RDKit          3D

 42 45  0  0  1  0  0  0  0  0999 V2000
   48.9170   32.5080   38.4360 O   0  0  0  0  0  0  0  0  0  0  0  0
   48.0700   33.7710   38.5850 P   0  0  2  0  0  0  0  0  0  0  0  0
   48.8490   34.9680   37.6630 O   0  0  0  0  0  0  0  0  0  0  0  0
   47.8090   34.1730   40.1460 O   0  0  0  0  0  0  0  0  0  0  0  0
   48.2490   35.6020   42.0510 C   0  0  1  0  0  0  0  0  0  0  0  0
   49.4900   34.8310   41.8880 C   0  0  0  0  0  0  0  0  0  0  0  0
   48.5670   35.1490   40.6990 C   0  0  1  0  0  0  0  0  0  0  0  0
   46.3700   33.0800   44.1600 C   0  0  0  0  0  0  0  0  0  0  0  0
   47.4200   33.7380   43.5270 C   0  0  0  0  0  0  0  0  0  0  0  0
   47.1340   34.8780   42.7520 C   0  0  0  0  0  0  0  0  0  0  0  0
   45.8450   35.3040   42.6430 N   0  0  0  0  0  0  0  0  0  0  0  0
   44.8440   34.6400   43.2710 C   0  0  0  0  0  0  0  0  0  0  0  0
   45.1160   33.5290   44.0290 N   0  0  0  0  0  0  0  0  0  0  0  0
   46.6310   33.4230   37.8000 O   0  0  0  0  0  0  0  0  0  0  0  0
   45.5870   32.7140   38.3740 C   0  0  0  0  0  0  0  0  0  0  0  0
   45.6440   31.4790   38.9960 C   0  0  0  0  0  0  0  0  0  0  0  0
   44.5060   30.9080   39.5170 C   0  0  0  0  0  0  0  0  0  0  0  0
   43.3030   31.5610   39.4240 C   0  0  0  0  0  0  0  0  0  0  0  0
   43.2750   32.7920   38.7970 C   0  0  0  0  0  0  0  0  0  0  0  0
   44.4010   33.3470   38.2880 N   0  0  0  0  0  0  0  0  0  0  0  0
   42.8040   35.4300   40.4380 Cl  0  0  0  0  0  0  0  0  0  0  0  0
   41.6480   34.6060   39.4200 C   0  0  0  0  0  0  0  0  0  0  0  0
   41.9840   33.4510   38.7590 C   0  0  0  0  0  0  0  0  0  0  0  0
   40.9330   32.9010   38.0620 C   0  0  0  0  0  0  0  0  0  0  0  0
   39.6710   33.4470   38.0250 C   0  0  0  0  0  0  0  0  0  0  0  0
   39.3940   34.6110   38.7090 C   0  0  0  0  0  0  0  0  0  0  0  0
   40.4220   35.2160   39.4360 C   0  0  0  0  0  0  0  0  0  0  0  0
   49.2764   35.6247   38.2682 H   0  0  0  0  0  0  0  0  0  0  0  0
   48.0095   36.5872   42.4776 H   0  0  0  0  0  0  0  0  0  0  0  0
   50.4678   35.3265   41.9800 H   0  0  0  0  0  0  0  0  0  0  0  0
   49.9177   33.9207   42.3335 H   0  0  0  0  0  0  0  0  0  0  0  0
   48.7026   35.6204   39.7144 H   0  0  0  0  0  0  0  0  0  0  0  0
   46.5714   32.1874   44.7704 H   0  0  0  0  0  0  0  0  0  0  0  0
   48.4531   33.3746   43.6301 H   0  0  0  0  0  0  0  0  0  0  0  0
   43.8072   34.9940   43.1724 H   0  0  0  0  0  0  0  0  0  0  0  0
   46.6055   30.9505   39.0743 H   0  0  0  0  0  0  0  0  0  0  0  0
   44.5607   29.9258   40.0092 H   0  0  0  0  0  0  0  0  0  0  0  0
   42.3856   31.1166   39.8374 H   0  0  0  0  0  0  0  0  0  0  0  0
   41.1122   31.9712   37.5022 H   0  0  0  0  0  0  0  0  0  0  0  0
   38.8779   32.9515   37.4458 H   0  0  0  0  0  0  0  0  0  0  0  0
   38.3871   35.0532   38.6831 H   0  0  0  0  0  0  0  0  0  0  0  0
   40.2534   36.1458   39.9991 H   0  0  0  0  0  0  0  0  0  0  0  0
  2  1  2  0
  2  4  1  0
  3  2  1  0
  4  7  1  0
  5 10  1  0
  6  5  1  0
  7  6  1  0
  7  5  1  0
  9  8  2  0
 10  9  1  0
 11 10  2  0
 11 12  1  0
 12 13  2  0
 13  8  1  0
 14 15  1  0
 14  2  1  0
 15 16  2  0
 16 17  1  0
 18 17  2  0
 19 18  1  0
 20 15  1  0
 20 19  2  0
 22 27  2  0
 22 21  1  0
 23 19  1  0
 23 22  1  0
 24 23  2  0
 25 24  1  0
 25 26  2  0
 26 27  1  0
  3 28  1  0
  5 29  1  6
  6 30  1  0
  6 31  1  0
  7 32  1  6
  8 33  1  0
  9 34  1  0
 12 35  1  0
 16 36  1  0
 17 37  1  0
 18 38  1  0
 24 39  1  0
 25 40  1  0
 26 41  1  0
 27 42  1  0
M  ISO  8  28   3  29  13  30  13  31  13  32  13  33  14  34  14  35  14
M  ISO  7  36  14  37  14  38  14  39  14  40  14  41  14  42  14
M  END
>  <minimizedAffinity>  (1) 
-5.98696661

>  <minimizedRMSD>  (1) 
2.04373765

$$$$
