
     RDKit          3D

 42 45  0  0  1  0  0  0  0  0999 V2000
   48.8320   32.4730   38.4270 O   0  0  0  0  0  0  0  0  0  0  0  0
   48.0270   33.7620   38.6030 P   0  0  2  0  0  0  0  0  0  0  0  0
   48.8300   34.9280   37.6750 O   0  0  0  0  0  0  0  0  0  0  0  0
   47.8200   34.1560   40.1770 O   0  0  0  0  0  0  0  0  0  0  0  0
   48.2890   35.6140   42.0530 C   0  0  1  0  0  0  0  0  0  0  0  0
   49.5190   34.8340   41.8870 C   0  0  0  0  0  0  0  0  0  0  0  0
   48.5870   35.1320   40.7020 C   0  0  1  0  0  0  0  0  0  0  0  0
   46.4070   33.1220   44.1980 C   0  0  0  0  0  0  0  0  0  0  0  0
   47.4540   33.7650   43.5440 C   0  0  0  0  0  0  0  0  0  0  0  0
   47.1750   34.9140   42.7780 C   0  0  0  0  0  0  0  0  0  0  0  0
   45.8970   35.3580   42.7010 N   0  0  0  0  0  0  0  0  0  0  0  0
   44.9010   34.6990   43.3570 C   0  0  0  0  0  0  0  0  0  0  0  0
   45.1530   33.5950   44.0950 N   0  0  0  0  0  0  0  0  0  0  0  0
   46.5520   33.4500   37.8600 O   0  0  0  0  0  0  0  0  0  0  0  0
   45.4780   32.8400   38.4820 C   0  0  0  0  0  0  0  0  0  0  0  0
   45.3200   31.5000   38.7850 C   0  0  0  0  0  0  0  0  0  0  0  0
   44.1870   31.0530   39.4090 C   0  0  0  0  0  0  0  0  0  0  0  0
   43.1850   31.9300   39.7420 C   0  0  0  0  0  0  0  0  0  0  0  0
   43.3870   33.2770   39.4170 C   0  0  0  0  0  0  0  0  0  0  0  0
   44.5060   33.7050   38.8040 N   0  0  0  0  0  0  0  0  0  0  0  0
   42.2940   34.1680   39.7710 C   0  0  0  0  0  0  0  0  0  0  0  0
   42.2230   34.9390   40.8960 C   0  0  0  0  0  0  0  0  0  0  0  0
   41.1780   35.7740   41.2290 C   0  0  0  0  0  0  0  0  0  0  0  0
   40.1010   35.8560   40.3710 C   0  0  0  0  0  0  0  0  0  0  0  0
   40.1380   35.0940   39.2290 C   0  0  0  0  0  0  0  0  0  0  0  0
   41.2040   34.2710   38.9340 C   0  0  0  0  0  0  0  0  0  0  0  0
   49.2768   35.5767   38.2747 H   0  0  0  0  0  0  0  0  0  0  0  0
   48.0636   36.6079   42.4670 H   0  0  0  0  0  0  0  0  0  0  0  0
   50.5008   35.3251   41.9574 H   0  0  0  0  0  0  0  0  0  0  0  0
   49.9456   33.9295   42.3451 H   0  0  0  0  0  0  0  0  0  0  0  0
   48.7138   35.5819   39.7063 H   0  0  0  0  0  0  0  0  0  0  0  0
   46.6064   32.2239   44.8011 H   0  0  0  0  0  0  0  0  0  0  0  0
   48.4822   33.3824   43.6239 H   0  0  0  0  0  0  0  0  0  0  0  0
   43.8693   35.0736   43.2844 H   0  0  0  0  0  0  0  0  0  0  0  0
   46.1138   30.7855   38.5215 H   0  0  0  0  0  0  0  0  0  0  0  0
   44.0786   29.9841   39.6452 H   0  0  0  0  0  0  0  0  0  0  0  0
   42.2656   31.5903   40.2412 H   0  0  0  0  0  0  0  0  0  0  0  0
   43.0709   34.8895   41.5951 H   0  0  0  0  0  0  0  0  0  0  0  0
   41.2024   36.3619   42.1584 H   0  0  0  0  0  0  0  0  0  0  0  0
   39.2435   36.5081   40.5934 H   0  0  0  0  0  0  0  0  0  0  0  0
   39.2913   35.1418   38.5284 H   0  0  0  0  0  0  0  0  0  0  0  0
   41.1840   33.6809   38.0059 H   0  0  0  0  0  0  0  0  0  0  0  0
  2  1  2  0
  2  4  1  0
  3  2  1  0
  4  7  1  0
  5 10  1  0
  6  5  1  0
  7  6  1  0
  7  5  1  0
  9  8  2  0
 10  9  1  0
 11 10  2  0
 11 12  1  0
 12 13  2  0
 13  8  1  0
 14 15  1  0
 14  2  1  0
 15 16  2  0
 15 20  1  0
 16 17  1  0
 17 18  2  0
 19 18  1  0
 19 21  1  0
 20 19  2  0
 21 22  2  0
 22 23  1  0
 24 23  2  0
 25 24  1  0
 26 25  2  0
 26 21  1  0
  3 27  1  0
  5 28  1  6
  6 29  1  0
  6 30  1  0
  7 31  1  6
  8 32  1  0
  9 33  1  0
 12 34  1  0
 16 35  1  0
 17 36  1  0
 18 37  1  0
 22 38  1  0
 23 39  1  0
 24 40  1  0
 25 41  1  0
 26 42  1  0
M  ISO  8  27   3  28  13  29  13  30  13  31  13  32  14  33  14  34  14
M  ISO  8  35  14  36  14  37  14  38  14  39  14  40  14  41  14  42  14
M  END
>  <minimizedAffinity>  (1) 
-5.77863216

>  <minimizedRMSD>  (1) 
2.16794014

$$$$
