
     RDKit          3D

 39 42  0  0  1  0  0  0  0  0999 V2000
   47.7780   34.1970   40.1090 O   0  0  0  0  0  0  0  0  0  0  0  0
   48.2520   35.5790   42.0390 C   0  0  1  0  0  0  0  0  0  0  0  0
   49.4590   34.7570   41.8760 C   0  0  0  0  0  0  0  0  0  0  0  0
   48.5610   35.1340   40.6820 C   0  0  1  0  0  0  0  0  0  0  0  0
   46.2630   33.1240   44.1310 C   0  0  0  0  0  0  0  0  0  0  0  0
   47.3430   33.7520   43.5200 C   0  0  0  0  0  0  0  0  0  0  0  0
   47.1060   34.8880   42.7220 C   0  0  0  0  0  0  0  0  0  0  0  0
   45.8310   35.3410   42.5680 N   0  0  0  0  0  0  0  0  0  0  0  0
   44.7950   34.7070   43.1790 C   0  0  0  0  0  0  0  0  0  0  0  0
   45.0090   33.6040   43.9570 N   0  0  0  0  0  0  0  0  0  0  0  0
   48.9480   32.5060   38.4720 O   0  0  0  0  0  0  0  0  0  0  0  0
   48.0800   33.7630   38.5620 P   0  0  2  0  0  0  0  0  0  0  0  0
   48.8880   34.9290   37.6370 O   0  0  0  0  0  0  0  0  0  0  0  0
   46.6670   33.3630   37.7520 O   0  0  0  0  0  0  0  0  0  0  0  0
   45.5560   32.7990   38.3510 C   0  0  0  0  0  0  0  0  0  0  0  0
   45.4600   31.6200   39.0630 C   0  0  0  0  0  0  0  0  0  0  0  0
   44.2810   31.2040   39.5920 C   0  0  0  0  0  0  0  0  0  0  0  0
   43.1420   31.9500   39.4330 C   0  0  0  0  0  0  0  0  0  0  0  0
   43.2700   33.1380   38.7090 C   0  0  0  0  0  0  0  0  0  0  0  0
   44.4470   33.5470   38.1840 N   0  0  0  0  0  0  0  0  0  0  0  0
   42.0320   33.9710   38.5230 C   0  0  0  0  0  0  0  0  0  0  0  0
   41.9200   35.2270   39.4070 C   0  0  0  0  0  0  0  0  0  0  0  0
   41.0850   33.9970   39.7210 C   0  0  0  0  0  0  0  0  0  0  0  0
   48.0502   36.5681   42.4761 H   0  0  0  0  0  0  0  0  0  0  0  0
   50.4566   35.2075   41.9847 H   0  0  0  0  0  0  0  0  0  0  0  0
   49.8420   33.8222   42.3113 H   0  0  0  0  0  0  0  0  0  0  0  0
   48.7205   35.6179   39.7071 H   0  0  0  0  0  0  0  0  0  0  0  0
   46.4280   32.2349   44.7573 H   0  0  0  0  0  0  0  0  0  0  0  0
   48.3646   33.3681   43.6576 H   0  0  0  0  0  0  0  0  0  0  0  0
   43.7713   35.0868   43.0454 H   0  0  0  0  0  0  0  0  0  0  0  0
   49.3358   35.5752   38.2386 H   0  0  0  0  0  0  0  0  0  0  0  0
   46.3598   31.0034   39.2049 H   0  0  0  0  0  0  0  0  0  0  0  0
   44.2393   30.2591   40.1537 H   0  0  0  0  0  0  0  0  0  0  0  0
   42.1773   31.6299   39.8536 H   0  0  0  0  0  0  0  0  0  0  0  0
   41.9371   33.7685   37.4460 H   0  0  0  0  0  0  0  0  0  0  0  0
   42.7522   35.5106   40.0681 H   0  0  0  0  0  0  0  0  0  0  0  0
   41.7026   36.2899   39.2254 H   0  0  0  0  0  0  0  0  0  0  0  0
   39.9971   34.0173   39.5593 H   0  0  0  0  0  0  0  0  0  0  0  0
   40.9440   33.3640   40.6095 H   0  0  0  0  0  0  0  0  0  0  0  0
  1  4  1  0
  2  7  1  0
  3  2  1  0
  4  3  1  0
  4  2  1  0
  6  5  2  0
  7  6  1  0
  8  7  2  0
  8  9  1  0
  9 10  2  0
 10  5  1  0
 12 11  2  0
 12  1  1  0
 13 12  1  0
 14 15  1  0
 14 12  1  0
 15 16  2  0
 16 17  1  0
 18 17  2  0
 19 18  1  0
 20 15  1  0
 20 19  2  0
 21 19  1  0
 21 22  1  0
 21 23  1  0
 22 23  1  0
  2 24  1  6
  3 25  1  0
  3 26  1  0
  4 27  1  6
  5 28  1  0
  6 29  1  0
  9 30  1  0
 13 31  1  0
 16 32  1  0
 17 33  1  0
 18 34  1  0
 21 35  1  0
 22 36  1  0
 22 37  1  0
 23 38  1  0
 23 39  1  0
M  ISO  8  24  13  25  13  26  13  27  13  28  14  29  14  30  14  31   3
M  ISO  8  32  14  33  14  34  14  35  13  36  13  37  13  38  13  39  13
M  END
>  <minimizedAffinity>  (1) 
-4.72443151

>  <minimizedRMSD>  (1) 
1.7649467

$$$$
