
     RDKit          3D

 35 37  0  0  1  0  0  0  0  0999 V2000
   47.7430   34.1650   39.8010 O   0  0  0  0  0  0  0  0  0  0  0  0
   48.0970   35.4650   41.8100 C   0  0  1  0  0  0  0  0  0  0  0  0
   49.3260   34.6740   41.6720 C   0  0  0  0  0  0  0  0  0  0  0  0
   48.4810   35.0840   40.4530 C   0  0  1  0  0  0  0  0  0  0  0  0
   46.0540   32.9530   43.7760 C   0  0  0  0  0  0  0  0  0  0  0  0
   47.1500   33.6280   43.2520 C   0  0  0  0  0  0  0  0  0  0  0  0
   46.9290   34.7300   42.4030 C   0  0  0  0  0  0  0  0  0  0  0  0
   45.6530   35.1000   42.1250 N   0  0  0  0  0  0  0  0  0  0  0  0
   44.6010   34.4200   42.6520 C   0  0  0  0  0  0  0  0  0  0  0  0
   44.8020   33.3520   43.4740 N   0  0  0  0  0  0  0  0  0  0  0  0
   48.5260   32.3990   38.0150 O   0  0  0  0  0  0  0  0  0  0  0  0
   48.0900   33.8480   38.2350 P   0  0  2  0  0  0  0  0  0  0  0  0
   49.3370   34.7900   37.5760 O   0  0  0  0  0  0  0  0  0  0  0  0
   46.7380   34.0410   37.2600 O   0  0  0  0  0  0  0  0  0  0  0  0
   45.7740   33.0710   37.0590 C   0  0  0  0  0  0  0  0  0  0  0  0
   45.6280   32.2200   35.9840 C   0  0  0  0  0  0  0  0  0  0  0  0
   44.6220   31.3100   35.9240 C   0  0  0  0  0  0  0  0  0  0  0  0
   43.7060   31.2090   36.9520 C   0  0  0  0  0  0  0  0  0  0  0  0
   43.8900   32.0890   38.0230 C   0  0  0  0  0  0  0  0  0  0  0  0
   44.8980   32.9860   38.0590 N   0  0  0  0  0  0  0  0  0  0  0  0
   42.9060   32.0040   39.1620 C   0  0  0  0  0  0  0  0  0  0  0  0
   47.8557   36.4298   42.2801 H   0  0  0  0  0  0  0  0  0  0  0  0
   50.3076   35.1379   41.8485 H   0  0  0  0  0  0  0  0  0  0  0  0
   49.7065   33.7287   42.0863 H   0  0  0  0  0  0  0  0  0  0  0  0
   48.6810   35.6097   39.5077 H   0  0  0  0  0  0  0  0  0  0  0  0
   46.2086   32.0896   44.4399 H   0  0  0  0  0  0  0  0  0  0  0  0
   48.1733   33.3069   43.4963 H   0  0  0  0  0  0  0  0  0  0  0  0
   43.5749   34.7355   42.4121 H   0  0  0  0  0  0  0  0  0  0  0  0
   49.8690   35.1919   38.3078 H   0  0  0  0  0  0  0  0  0  0  0  0
   46.3458   32.2799   35.1526 H   0  0  0  0  0  0  0  0  0  0  0  0
   44.5362   30.6482   35.0496 H   0  0  0  0  0  0  0  0  0  0  0  0
   42.8818   30.4808   36.9299 H   0  0  0  0  0  0  0  0  0  0  0  0
   43.4473   32.0508   40.1185 H   0  0  0  0  0  0  0  0  0  0  0  0
   42.1991   32.8444   39.0993 H   0  0  0  0  0  0  0  0  0  0  0  0
   42.3537   31.0548   39.0993 H   0  0  0  0  0  0  0  0  0  0  0  0
  1  4  1  0
  2  7  1  0
  3  2  1  0
  4  3  1  0
  4  2  1  0
  6  5  2  0
  7  6  1  0
  8  7  2  0
  8  9  1  0
  9 10  2  0
 10  5  1  0
 12 11  2  0
 12  1  1  0
 13 12  1  0
 14 12  1  0
 15 14  1  0
 15 20  1  0
 16 15  2  0
 17 16  1  0
 17 18  2  0
 18 19  1  0
 19 20  2  0
 19 21  1  0
  2 22  1  6
  3 23  1  0
  3 24  1  0
  4 25  1  6
  5 26  1  0
  6 27  1  0
  9 28  1  0
 13 29  1  0
 16 30  1  0
 17 31  1  0
 18 32  1  0
 21 33  1  0
 21 34  1  0
 21 35  1  0
M  ISO  8  22  13  23  13  24  13  25  13  26  14  27  14  28  14  29   3
M  ISO  6  30  14  31  14  32  14  33   8  34   8  35   8
M  END
>  <minimizedAffinity>  (1) 
-4.38126993

>  <minimizedRMSD>  (1) 
0.0697805583

$$$$
