
     RDKit          3D

 28 29  0  0  0  0  0  0  0  0999 V2000
   44.7400   35.9930   44.0290 C   0  0  0  0  0  0  0  0  0  0  0  0
   45.3290   35.1790   43.0600 C   0  0  0  0  0  0  0  0  0  0  0  0
   45.8070   33.9280   43.4540 C   0  0  0  0  0  0  0  0  0  0  0  0
   45.6730   33.5740   44.7670 N   0  0  0  0  0  0  0  0  0  0  0  0
   45.1010   34.3800   45.6760 C   0  0  0  0  0  0  0  0  0  0  0  0
   44.6340   35.5960   45.3010 N   0  0  0  0  0  0  0  0  0  0  0  0
   46.4150   33.0920   42.4470 C   0  0  0  0  0  0  0  0  0  0  0  0
   45.7790   32.2240   41.7950 O   0  0  0  0  0  0  0  0  0  0  0  0
   47.8630   33.3050   42.2060 C   0  0  0  0  0  0  0  0  0  0  0  0
   48.4820   34.2310   43.2320 C   0  0  0  0  0  0  0  0  0  0  0  0
   49.7390   34.7740   42.5820 C   0  0  0  0  0  0  0  0  0  0  0  0
   49.2840   35.8410   41.6010 C   0  0  0  0  0  0  0  0  0  0  0  0
   48.2760   35.2450   40.6530 C   0  0  0  0  0  0  0  0  0  0  0  0
   48.1380   33.7560   40.7970 C   0  0  0  0  0  0  0  0  0  0  0  0
   44.3550   36.9820   43.7398 H   0  0  0  0  0  0  0  0  0  0  0  0
   45.4141   35.5138   42.0156 H   0  0  0  0  0  0  0  0  0  0  0  0
   45.0116   34.0541   46.7228 H   0  0  0  0  0  0  0  0  0  0  0  0
   48.3528   32.3277   42.3287 H   0  0  0  0  0  0  0  0  0  0  0  0
   47.7907   35.0510   43.4763 H   0  0  0  0  0  0  0  0  0  0  0  0
   48.7034   33.7069   44.1735 H   0  0  0  0  0  0  0  0  0  0  0  0
   50.4018   35.2131   43.3422 H   0  0  0  0  0  0  0  0  0  0  0  0
   50.3028   33.9777   42.0740 H   0  0  0  0  0  0  0  0  0  0  0  0
   48.8233   36.6745   42.1515 H   0  0  0  0  0  0  0  0  0  0  0  0
   50.1492   36.2144   41.0336 H   0  0  0  0  0  0  0  0  0  0  0  0
   48.5895   35.4692   39.6227 H   0  0  0  0  0  0  0  0  0  0  0  0
   47.2986   35.6891   40.8928 H   0  0  0  0  0  0  0  0  0  0  0  0
   47.3080   33.4212   40.1575 H   0  0  0  0  0  0  0  0  0  0  0  0
   49.1015   33.3149   40.5017 H   0  0  0  0  0  0  0  0  0  0  0  0
  1  6  2  0
  2  3  2  0
  2  1  1  0
  3  4  1  0
  4  5  2  0
  6  5  1  0
  7  3  1  0
  8  7  2  0
  9  7  1  0
  9 10  1  0
 11 10  1  0
 12 11  1  0
 13 14  1  0
 13 12  1  0
 14  9  1  0
  1 15  1  0
  2 16  1  0
  5 17  1  0
  9 18  1  0
 10 19  1  0
 10 20  1  0
 11 21  1  0
 11 22  1  0
 12 23  1  0
 12 24  1  0
 13 25  1  0
 13 26  1  0
 14 27  1  0
 14 28  1  0
M  ISO  8  15  14  16  14  17  14  18  13  19  13  20  13  21  13  22  13
M  ISO  6  23  13  24  13  25  13  26  13  27  13  28  13
M  END
>  <minimizedAffinity>  (1) 
-4.70465851

>  <minimizedRMSD>  (1) 
2.67939329

$$$$
