
     RDKit          3D

 19 20  0  0  0  0  0  0  0  0999 V2000
   44.5640   35.9720   44.5380 C   0  0  0  0  0  0  0  0  0  0  0  0
   45.3050   35.6860   43.3900 C   0  0  0  0  0  0  0  0  0  0  0  0
   46.1400   34.5810   43.3470 C   0  0  0  0  0  0  0  0  0  0  0  0
   46.1810   33.8220   44.4690 N   0  0  0  0  0  0  0  0  0  0  0  0
   45.4570   34.1070   45.5790 C   0  0  0  0  0  0  0  0  0  0  0  0
   44.6490   35.1840   45.6090 N   0  0  0  0  0  0  0  0  0  0  0  0
   46.8710   34.3480   42.1340 C   0  0  0  0  0  0  0  0  0  0  0  0
   46.3940   34.5600   40.9860 O   0  0  0  0  0  0  0  0  0  0  0  0
   48.2300   33.8430   42.1910 C   0  0  0  0  0  0  0  0  0  0  0  0
   48.7250   32.6110   42.0830 C   0  0  0  0  0  0  0  0  0  0  0  0
   50.0550   32.3450   42.1670 C   0  0  0  0  0  0  0  0  0  0  0  0
   50.8690   33.4970   42.3810 C   0  0  0  0  0  0  0  0  0  0  0  0
   49.6470   34.8730   42.4440 S   0  0  0  0  0  0  0  0  0  0  0  0
   43.9060   36.8532   44.5585 H   0  0  0  0  0  0  0  0  0  0  0  0
   45.2253   36.3436   42.5118 H   0  0  0  0  0  0  0  0  0  0  0  0
   45.5300   33.4541   46.4613 H   0  0  0  0  0  0  0  0  0  0  0  0
   48.0290   31.7751   41.9192 H   0  0  0  0  0  0  0  0  0  0  0  0
   50.4682   31.3295   42.0777 H   0  0  0  0  0  0  0  0  0  0  0  0
   51.9629   33.5503   42.4836 H   0  0  0  0  0  0  0  0  0  0  0  0
  1  6  2  0
  2  1  1  0
  3  2  2  0
  3  4  1  0
  4  5  2  0
  5  6  1  0
  7  9  1  0
  7  3  1  0
  8  7  2  0
  9 13  1  0
 10 11  1  0
 10  9  2  0
 11 12  2  0
 12 13  1  0
  1 14  1  0
  2 15  1  0
  5 16  1  0
 10 17  1  0
 11 18  1  0
 12 19  1  0
M  ISO  6  14  14  15  14  16  14  17  14  18  14  19  14
M  END
>  <minimizedAffinity>  (1) 
-4.25959349

>  <minimizedRMSD>  (1) 
2.88130426

$$$$
