
     RDKit          3D

 19 20  0  0  0  0  0  0  0  0999 V2000
   46.9250   34.9290   42.0700 C   0  0  0  0  0  0  0  0  0  0  0  0
   48.0260   35.4890   41.8850 O   0  0  0  0  0  0  0  0  0  0  0  0
   44.5480   35.9310   44.6850 C   0  0  0  0  0  0  0  0  0  0  0  0
   45.3090   35.9190   43.4820 C   0  0  0  0  0  0  0  0  0  0  0  0
   46.2020   34.8780   43.3010 C   0  0  0  0  0  0  0  0  0  0  0  0
   46.3260   33.9230   44.2470 N   0  0  0  0  0  0  0  0  0  0  0  0
   45.5820   33.9600   45.3930 C   0  0  0  0  0  0  0  0  0  0  0  0
   44.6930   34.9650   45.6130 N   0  0  0  0  0  0  0  0  0  0  0  0
   46.3540   34.2720   40.8780 C   0  0  0  0  0  0  0  0  0  0  0  0
   47.0820   33.6370   39.8760 C   0  0  0  0  0  0  0  0  0  0  0  0
   46.1170   33.1750   38.9730 C   0  0  0  0  0  0  0  0  0  0  0  0
   44.8950   33.5180   39.4210 N   0  0  0  0  0  0  0  0  0  0  0  0
   45.0370   34.1730   40.5590 N   0  0  0  0  0  0  0  0  0  0  0  0
   43.8282   36.7441   44.8602 H   0  0  0  0  0  0  0  0  0  0  0  0
   45.1914   36.7080   42.7246 H   0  0  0  0  0  0  0  0  0  0  0  0
   45.7039   33.1675   46.1461 H   0  0  0  0  0  0  0  0  0  0  0  0
   48.1740   33.5233   39.8085 H   0  0  0  0  0  0  0  0  0  0  0  0
   46.3243   32.6205   38.0459 H   0  0  0  0  0  0  0  0  0  0  0  0
   44.0011   33.3057   38.9554 H   0  0  0  0  0  0  0  0  0  0  0  0
  1  5  1  0
  2  1  2  0
  3  8  2  0
  4  3  1  0
  5  4  2  0
  5  6  1  0
  6  7  2  0
  7  8  1  0
  9  1  1  0
 10  9  1  0
 11 12  1  0
 11 10  2  0
 12 13  1  0
 13  9  2  0
  3 14  1  0
  4 15  1  0
  7 16  1  0
 10 17  1  0
 11 18  1  0
 12 19  1  0
M  ISO  6  14  14  15  14  16  14  17  14  18  14  19   9
M  END
>  <minimizedAffinity>  (1) 
-4.15466785

>  <minimizedRMSD>  (1) 
0.740861595

$$$$
