
     RDKit          3D

 13 13  0  0  0  0  0  0  0  0999 V2000
   44.5550   36.0030   44.5080 C   0  0  0  0  0  0  0  0  0  0  0  0
   45.3100   35.9440   43.3090 C   0  0  0  0  0  0  0  0  0  0  0  0
   46.2130   34.9040   43.1500 C   0  0  0  0  0  0  0  0  0  0  0  0
   46.3400   33.9900   44.1370 N   0  0  0  0  0  0  0  0  0  0  0  0
   45.6050   34.0620   45.2860 C   0  0  0  0  0  0  0  0  0  0  0  0
   44.7120   35.0760   45.4590 N   0  0  0  0  0  0  0  0  0  0  0  0
   46.9460   34.8910   41.9220 C   0  0  0  0  0  0  0  0  0  0  0  0
   48.0850   35.3770   41.7650 O   0  0  0  0  0  0  0  0  0  0  0  0
   46.3400   34.2910   40.8250 O   0  0  0  0  0  0  0  0  0  0  0  0
   43.8330   36.8194   44.6573 H   0  0  0  0  0  0  0  0  0  0  0  0
   45.1824   36.7045   42.5246 H   0  0  0  0  0  0  0  0  0  0  0  0
   45.7340   33.3020   46.0707 H   0  0  0  0  0  0  0  0  0  0  0  0
   46.8113   34.2594   39.9550 H   0  0  0  0  0  0  0  0  0  0  0  0
  1  6  2  0
  2  1  1  0
  3  2  2  0
  3  4  1  0
  4  5  2  0
  5  6  1  0
  7  3  1  0
  8  7  2  0
  9  7  1  0
  1 10  1  0
  2 11  1  0
  5 12  1  0
  9 13  1  0
M  ISO  4  10  14  11  14  12  14  13   3
M  END
>  <minimizedAffinity>  (1) 
-3.40235424

>  <minimizedRMSD>  (1) 
0.122926466

$$$$
