
     RDKit          3D

 32 34  0  0  1  0  0  0  0  0999 V2000
   48.1090   33.0240   38.0700 C   0  0  2  0  0  0  0  0  0  0  0  0
   49.0740   32.1910   38.7950 C   0  0  0  0  0  0  0  0  0  0  0  0
   49.1800   32.5810   40.1580 N   0  0  0  0  0  0  0  0  0  0  0  0
   49.5510   32.9980   41.4680 C   0  0  0  0  0  0  0  0  0  0  0  0
   50.7270   33.1370   41.9140 O   0  0  0  0  0  0  0  0  0  0  0  0
   48.1770   33.1520   41.9330 C   0  0  2  0  0  0  0  0  0  0  0  0
   47.8460   32.4930   40.6140 C   0  0  1  0  0  0  0  0  0  0  0  0
   46.9880   33.5520   39.4140 S   0  0  0  0  0  0  0  0  0  0  0  0
   47.2860   32.1420   37.1550 C   0  0  0  0  0  0  0  0  0  0  0  0
   48.7020   34.2120   37.3530 C   0  0  0  0  0  0  0  0  0  0  0  0
   48.9760   35.2130   38.2540 O   0  0  0  0  0  0  0  0  0  0  0  0
   47.8140   34.5610   42.1040 C   0  0  0  0  0  0  0  0  0  0  0  0
   48.2900   35.5420   41.4840 O   0  0  0  0  0  0  0  0  0  0  0  0
   44.8350   35.7770   43.8970 C   0  0  0  0  0  0  0  0  0  0  0  0
   45.8500   35.6490   42.9360 C   0  0  0  0  0  0  0  0  0  0  0  0
   46.8070   34.6440   43.1200 C   0  0  0  0  0  0  0  0  0  0  0  0
   46.7230   33.8350   44.2130 N   0  0  0  0  0  0  0  0  0  0  0  0
   45.7180   34.0010   45.1180 C   0  0  0  0  0  0  0  0  0  0  0  0
   44.7710   34.9640   44.9740 N   0  0  0  0  0  0  0  0  0  0  0  0
   48.7466   31.1419   38.7480 H   0  0  0  0  0  0  0  0  0  0  0  0
   50.0598   32.3156   38.3232 H   0  0  0  0  0  0  0  0  0  0  0  0
   47.7582   32.7817   42.8804 H   0  0  0  0  0  0  0  0  0  0  0  0
   47.2560   31.5695   40.7086 H   0  0  0  0  0  0  0  0  0  0  0  0
   46.6591   31.4702   37.7597 H   0  0  0  0  0  0  0  0  0  0  0  0
   46.6438   32.7703   36.5203 H   0  0  0  0  0  0  0  0  0  0  0  0
   47.9572   31.5448   36.5203 H   0  0  0  0  0  0  0  0  0  0  0  0
   49.6325   33.9080   36.8513 H   0  0  0  0  0  0  0  0  0  0  0  0
   47.9819   34.5821   36.6083 H   0  0  0  0  0  0  0  0  0  0  0  0
   48.8802   34.8632   39.1752 H   0  0  0  0  0  0  0  0  0  0  0  0
   44.0722   36.5593   43.7699 H   0  0  0  0  0  0  0  0  0  0  0  0
   45.8922   36.3185   42.0642 H   0  0  0  0  0  0  0  0  0  0  0  0
   45.6722   33.3347   45.9920 H   0  0  0  0  0  0  0  0  0  0  0  0
  1  9  1  6
  1  2  1  0
  1  8  1  0
  2  3  1  0
  3  7  1  0
  3  4  1  0
  4  5  2  0
  4  6  1  0
  6 12  1  0
  7  6  1  0
  8  7  1  0
 10  1  1  0
 10 11  1  0
 12 16  1  0
 13 12  2  0
 14 19  2  0
 15 16  2  0
 15 14  1  0
 16 17  1  0
 17 18  2  0
 19 18  1  0
  2 20  1  0
  2 21  1  0
  6 22  1  1
  7 23  1  1
  9 24  1  0
  9 25  1  0
  9 26  1  0
 10 27  1  0
 10 28  1  0
 11 29  1  0
 14 30  1  0
 15 31  1  0
 18 32  1  0
M  ISO  8  20  13  21  13  22  13  23  13  24   8  25   8  26   8  27   8
M  ISO  5  28   8  29   3  30  14  31  14  32  14
M  END
>  <minimizedAffinity>  (1) 
-5.01382828

>  <minimizedRMSD>  (1) 
0.190195754

$$$$
