
     RDKit          3D

 19 20  0  0  0  0  0  0  0  0999 V2000
   44.9780   35.1420   44.0340 C   0  0  0  0  0  0  0  0  0  0  0  0
   45.6820   35.4440   42.8590 C   0  0  0  0  0  0  0  0  0  0  0  0
   46.8700   34.7510   42.6830 C   0  0  0  0  0  0  0  0  0  0  0  0
   47.2930   33.8380   43.6200 N   0  0  0  0  0  0  0  0  0  0  0  0
   46.5630   33.5870   44.7470 C   0  0  0  0  0  0  0  0  0  0  0  0
   45.4100   34.2530   44.9280 N   0  0  0  0  0  0  0  0  0  0  0  0
   43.7410   35.8290   44.2690 N   0  0  0  0  0  0  0  0  0  0  0  0
   47.7210   34.9580   41.4600 C   0  0  0  0  0  0  0  0  0  0  0  0
   48.9620   35.7690   41.7440 C   0  0  0  0  0  0  0  0  0  0  0  0
   49.0000   34.2600   41.3840 C   0  0  0  0  0  0  0  0  0  0  0  0
   45.3168   36.1799   42.1275 H   0  0  0  0  0  0  0  0  0  0  0  0
   46.9116   32.8552   45.4906 H   0  0  0  0  0  0  0  0  0  0  0  0
   43.3968   36.5183   43.5854 H   0  0  0  0  0  0  0  0  0  0  0  0
   43.1970   35.6331   45.1214 H   0  0  0  0  0  0  0  0  0  0  0  0
   46.8789   35.0165   40.7546 H   0  0  0  0  0  0  0  0  0  0  0  0
   49.3126   36.5237   41.0246 H   0  0  0  0  0  0  0  0  0  0  0  0
   49.3289   36.4000   42.5669 H   0  0  0  0  0  0  0  0  0  0  0  0
   49.2680   33.5184   42.1509 H   0  0  0  0  0  0  0  0  0  0  0  0
   49.5116   33.6557   40.6204 H   0  0  0  0  0  0  0  0  0  0  0  0
  1  7  1  0
  1  6  2  0
  2  1  1  0
  3  2  2  0
  3  4  1  0
  4  5  2  0
  5  6  1  0
  8  9  1  0
  8  3  1  0
 10  8  1  0
 10  9  1  0
  2 11  1  0
  5 12  1  0
  7 13  1  0
  7 14  1  0
  8 15  1  0
  9 16  1  0
  9 17  1  0
 10 18  1  0
 10 19  1  0
M  ISO  7  11  14  12  14  15  13  16  13  17  13  18  13  19  13
M  END
>  <minimizedAffinity>  (1) 
-4.43621922

>  <minimizedRMSD>  (1) 
0.895874739

$$$$
