
     RDKit          3D

 46 49  0  0  1  0  0  0  0  0999 V2000
   46.7740   32.9930   38.7020 N   0  0  0  0  0  0  0  0  0  0  0  0
   46.1330   33.3760   37.4460 C   0  0  0  0  0  0  0  0  0  0  0  0
   45.1550   32.3530   36.9540 C   0  0  0  0  0  0  0  0  0  0  0  0
   45.8100   31.0890   36.6480 N   0  0  0  0  0  0  0  0  0  0  0  0
   47.1210   31.0880   37.2920 C   0  0  0  0  0  0  0  0  0  0  0  0
   46.9510   31.5590   38.7300 C   0  0  1  0  0  0  0  0  0  0  0  0
   44.8630   32.9700   41.1960 Br  0  0  0  0  0  0  0  0  0  0  0  0
   46.4890   33.9570   40.9540 C   0  0  0  0  0  0  0  0  0  0  0  0
   46.9290   34.7700   41.9600 C   0  0  0  0  0  0  0  0  0  0  0  0
   48.1080   35.5130   41.8040 C   0  0  0  0  0  0  0  0  0  0  0  0
   48.7920   35.3930   40.6190 C   0  0  0  0  0  0  0  0  0  0  0  0
   48.3060   34.5630   39.6410 C   0  0  0  0  0  0  0  0  0  0  0  0
   47.1770   33.8400   39.7710 C   0  0  0  0  0  0  0  0  0  0  0  0
   45.6420   34.0450   45.3010 C   0  0  0  0  0  0  0  0  0  0  0  0
   44.7040   35.0760   45.5280 C   0  0  0  0  0  0  0  0  0  0  0  0
   44.5310   36.0180   44.5030 C   0  0  0  0  0  0  0  0  0  0  0  0
   45.2620   35.8870   43.3760 N   0  0  0  0  0  0  0  0  0  0  0  0
   46.1660   34.8650   43.1960 C   0  0  0  0  0  0  0  0  0  0  0  0
   46.3360   33.9630   44.1710 N   0  0  0  0  0  0  0  0  0  0  0  0
   47.9940   31.0580   39.5430 N   0  0  0  0  0  0  0  0  0  0  0  0
   47.7520   30.8500   40.9170 C   0  0  0  0  0  0  0  0  0  0  0  0
   48.6670   31.7630   41.7030 C   0  0  0  0  0  0  0  0  0  0  0  0
   49.7280   32.1630   40.7130 C   0  0  0  0  0  0  0  0  0  0  0  0
   49.2120   31.7750   39.3420 C   0  0  0  0  0  0  0  0  0  0  0  0
   45.5998   34.3258   37.5996 H   0  0  0  0  0  0  0  0  0  0  0  0
   46.9237   33.4681   36.6869 H   0  0  0  0  0  0  0  0  0  0  0  0
   44.3954   32.1825   37.7312 H   0  0  0  0  0  0  0  0  0  0  0  0
   44.6938   32.7339   36.0308 H   0  0  0  0  0  0  0  0  0  0  0  0
   45.2442   30.3069   37.0073 H   0  0  0  0  0  0  0  0  0  0  0  0
   47.5393   30.0707   37.2814 H   0  0  0  0  0  0  0  0  0  0  0  0
   47.8069   31.7585   36.7535 H   0  0  0  0  0  0  0  0  0  0  0  0
   46.0501   31.1515   39.2121 H   0  0  0  0  0  0  0  0  0  0  0  0
   48.4737   36.1714   42.6057 H   0  0  0  0  0  0  0  0  0  0  0  0
   49.7217   35.9577   40.4556 H   0  0  0  0  0  0  0  0  0  0  0  0
   48.8689   34.4835   38.6993 H   0  0  0  0  0  0  0  0  0  0  0  0
   45.8027   33.2878   46.0825 H   0  0  0  0  0  0  0  0  0  0  0  0
   44.1343   35.1377   46.4669 H   0  0  0  0  0  0  0  0  0  0  0  0
   43.8151   36.8455   44.6153 H   0  0  0  0  0  0  0  0  0  0  0  0
   46.7028   31.0845   41.1497 H   0  0  0  0  0  0  0  0  0  0  0  0
   47.9452   29.7999   41.1816 H   0  0  0  0  0  0  0  0  0  0  0  0
   48.1197   32.6453   42.0663 H   0  0  0  0  0  0  0  0  0  0  0  0
   49.0856   31.2740   42.5950 H   0  0  0  0  0  0  0  0  0  0  0  0
   49.9007   33.2483   40.7600 H   0  0  0  0  0  0  0  0  0  0  0  0
   50.6830   31.6632   40.9326 H   0  0  0  0  0  0  0  0  0  0  0  0
   49.9461   31.1366   38.8287 H   0  0  0  0  0  0  0  0  0  0  0  0
   49.0454   32.6656   38.7183 H   0  0  0  0  0  0  0  0  0  0  0  0
  1  6  1  0
  1 13  1  0
  2  1  1  0
  3  2  1  0
  4  3  1  0
  4  5  1  0
  5  6  1  0
  6 20  1  0
  8  7  1  0
  8  9  2  0
  9 18  1  0
 10  9  1  0
 11 10  2  0
 12 13  2  0
 12 11  1  0
 13  8  1  0
 14 15  2  0
 16 15  1  0
 17 16  2  0
 18 17  1  0
 18 19  2  0
 19 14  1  0
 20 21  1  0
 21 22  1  0
 23 22  1  0
 24 20  1  0
 24 23  1  0
  2 25  1  0
  2 26  1  0
  3 27  1  0
  3 28  1  0
  4 29  1  0
  5 30  1  0
  5 31  1  0
  6 32  1  1
 10 33  1  0
 11 34  1  0
 12 35  1  0
 14 36  1  0
 15 37  1  0
 16 38  1  0
 21 39  1  0
 21 40  1  0
 22 41  1  0
 22 42  1  0
 23 43  1  0
 23 44  1  0
 24 45  1  0
 24 46  1  0
M  ISO  8  25  13  26  13  27  13  28  13  29   5  30  13  31  13  32  13
M  ISO  8  33  14  34  14  35  14  36  14  37  14  38  14  39  13  40  13
M  ISO  6  41  13  42  13  43  13  44  13  45  13  46  13
M  END
>  <minimizedAffinity>  (1) 
-5.77019453

>  <minimizedRMSD>  (1) 
0.418702841

$$$$
