
     RDKit          3D

 38 40  0  0  1  0  0  0  0  0999 V2000
   49.0020   33.0460   42.6900 C   0  0  0  0  0  0  0  0  0  0  0  0
   47.7040   32.9570   42.9350 C   0  0  0  0  0  0  0  0  0  0  0  0
   49.4910   32.5800   41.3910 C   0  0  0  0  0  0  0  0  0  0  0  0
   50.7760   32.0150   41.3480 C   0  0  0  0  0  0  0  0  0  0  0  0
   51.3120   31.5490   40.1400 C   0  0  0  0  0  0  0  0  0  0  0  0
   50.5250   31.6800   39.0600 N   0  0  0  0  0  0  0  0  0  0  0  0
   49.2870   32.2260   39.1100 C   0  0  0  0  0  0  0  0  0  0  0  0
   48.7940   32.6640   40.2650 N   0  0  0  0  0  0  0  0  0  0  0  0
   48.4340   32.3710   37.8790 C   0  0  2  0  0  0  0  0  0  0  0  0
   49.0070   32.7690   36.5980 C   0  0  0  0  0  0  0  0  0  0  0  0
   48.2150   33.7910   37.3450 C   0  0  1  0  0  0  0  0  0  0  0  0
   46.9510   34.1580   36.7860 N   0  0  0  0  0  0  0  0  0  0  0  0
   47.0970   33.3940   44.2070 C   0  0  0  0  0  0  0  0  0  0  0  0
   44.5410   35.9340   44.0680 C   0  0  1  0  0  0  0  0  0  0  0  0
   45.6550   35.2160   43.2880 C   0  0  0  0  0  0  0  0  0  0  0  0
   45.6850   33.9190   44.0080 C   0  0  2  0  0  0  0  0  0  0  0  0
   45.0210   34.0520   45.1990 O   0  0  0  0  0  0  0  0  0  0  0  0
   44.7630   35.3670   45.4480 C   0  0  0  0  0  0  0  0  0  0  0  0
   44.7320   37.3030   44.0110 O   0  0  0  0  0  0  0  0  0  0  0  0
   49.6928   33.4580   43.4404 H   0  0  0  0  0  0  0  0  0  0  0  0
   47.0493   32.5389   42.1562 H   0  0  0  0  0  0  0  0  0  0  0  0
   51.3678   31.9375   42.2720 H   0  0  0  0  0  0  0  0  0  0  0  0
   52.3159   31.1032   40.0802 H   0  0  0  0  0  0  0  0  0  0  0  0
   47.8065   31.5238   38.1928 H   0  0  0  0  0  0  0  0  0  0  0  0
   48.6036   32.3436   35.6673 H   0  0  0  0  0  0  0  0  0  0  0  0
   50.0237   32.7495   36.1784 H   0  0  0  0  0  0  0  0  0  0  0  0
   48.3722   34.8016   37.7501 H   0  0  0  0  0  0  0  0  0  0  0  0
   46.2830   34.3520   37.5456 H   0  0  0  0  0  0  0  0  0  0  0  0
   47.0643   35.0008   36.2049 H   0  0  0  0  0  0  0  0  0  0  0  0
   47.0647   32.5390   44.8983 H   0  0  0  0  0  0  0  0  0  0  0  0
   47.7106   34.2103   44.6158 H   0  0  0  0  0  0  0  0  0  0  0  0
   43.5165   35.7851   43.6961 H   0  0  0  0  0  0  0  0  0  0  0  0
   46.6148   35.7477   43.3660 H   0  0  0  0  0  0  0  0  0  0  0  0
   45.4834   35.1385   42.2042 H   0  0  0  0  0  0  0  0  0  0  0  0
   45.1747   33.1666   43.3887 H   0  0  0  0  0  0  0  0  0  0  0  0
   45.6181   35.8514   45.9420 H   0  0  0  0  0  0  0  0  0  0  0  0
   43.9090   35.5217   46.1238 H   0  0  0  0  0  0  0  0  0  0  0  0
   44.7829   37.6676   44.9300 H   0  0  0  0  0  0  0  0  0  0  0  0
  1  2  2  0
  2 13  1  0
  3  1  1  0
  4  3  2  0
  5  4  1  0
  6  7  1  0
  6  5  2  0
  7  8  2  0
  8  3  1  0
  9  7  1  0
 10 11  1  0
 10  9  1  0
 11  9  1  0
 12 11  1  0
 14 18  1  0
 15 16  1  0
 15 14  1  0
 16 13  1  0
 16 17  1  0
 17 18  1  0
 19 14  1  0
  1 20  1  0
  2 21  1  0
  4 22  1  0
  5 23  1  0
  9 24  1  6
 10 25  1  0
 10 26  1  0
 11 27  1  1
 12 28  1  0
 12 29  1  0
 13 30  1  0
 13 31  1  0
 14 32  1  6
 15 33  1  0
 15 34  1  0
 16 35  1  6
 18 36  1  0
 18 37  1  0
 19 38  1  0
M  ISO  8  22  14  23  14  24  13  25  13  26  13  27  13  28   5  29   5
M  ISO  8  30   8  31   8  32  13  33  13  34  13  35  13  36  13  37  13
M  ISO  1  38   3
M  END
>  <minimizedAffinity>  (1) 
-5.07598305

>  <minimizedRMSD>  (1) 
0.919778645

$$$$
