
     RDKit          3D

 26 28  0  0  1  0  0  0  0  0999 V2000
   48.2860   32.6170   42.4440 C   0  0  1  0  0  0  0  0  0  0  0  0
   48.7500   33.5830   41.3990 C   0  0  0  0  0  0  0  0  0  0  0  0
   49.6950   33.0160   42.5080 C   0  0  2  0  0  0  0  0  0  0  0  0
   45.7050   34.7800   44.1130 C   0  0  0  0  0  0  0  0  0  0  0  0
   46.5740   34.3330   43.1190 C   0  0  0  0  0  0  0  0  0  0  0  0
   47.3170   33.2020   43.4180 C   0  0  0  0  0  0  0  0  0  0  0  0
   47.1740   32.5950   44.6310 N   0  0  0  0  0  0  0  0  0  0  0  0
   46.3060   33.0740   45.5780 C   0  0  0  0  0  0  0  0  0  0  0  0
   45.5680   34.1770   45.3070 N   0  0  0  0  0  0  0  0  0  0  0  0
   44.8800   35.9850   43.8170 C   0  0  0  0  0  0  0  0  0  0  0  0
   44.6600   36.6390   45.0230 F   0  0  0  0  0  0  0  0  0  0  0  0
   43.6630   35.5650   43.3470 F   0  0  0  0  0  0  0  0  0  0  0  0
   45.5330   36.8430   42.9720 F   0  0  0  0  0  0  0  0  0  0  0  0
   50.6940   32.0180   42.0310 C   0  0  0  0  0  0  0  0  0  0  0  0
   50.8720   30.8020   42.7380 C   0  0  0  0  0  0  0  0  0  0  0  0
   52.1900   29.9540   41.7520 S   0  0  0  0  0  0  0  0  0  0  0  0
   52.2570   31.4210   40.5460 C   0  0  0  0  0  0  0  0  0  0  0  0
   51.4810   32.1490   40.9560 N   0  0  0  0  0  0  0  0  0  0  0  0
   47.8138   31.6235   42.4457 H   0  0  0  0  0  0  0  0  0  0  0  0
   48.8621   33.2616   40.3530 H   0  0  0  0  0  0  0  0  0  0  0  0
   48.4459   34.5804   41.0488 H   0  0  0  0  0  0  0  0  0  0  0  0
   50.3461   33.4371   43.2882 H   0  0  0  0  0  0  0  0  0  0  0  0
   46.6649   34.8489   42.1517 H   0  0  0  0  0  0  0  0  0  0  0  0
   46.2097   32.5670   46.5494 H   0  0  0  0  0  0  0  0  0  0  0  0
   50.3568   30.4508   43.6442 H   0  0  0  0  0  0  0  0  0  0  0  0
   52.8959   31.5402   39.6586 H   0  0  0  0  0  0  0  0  0  0  0  0
  1  3  1  0
  1  6  1  0
  2  1  1  0
  2  3  1  0
  4  9  2  0
  5  6  2  0
  5  4  1  0
  6  7  1  0
  7  8  2  0
  9  8  1  0
 10  4  1  0
 10 11  1  0
 12 10  1  0
 13 10  1  0
 14  3  1  0
 14 15  2  0
 16 15  1  0
 17 18  2  0
 17 16  1  0
 18 14  1  0
  1 19  1  6
  2 20  1  0
  2 21  1  0
  3 22  1  1
  5 23  1  0
  8 24  1  0
 15 25  1  0
 17 26  1  0
M  ISO  8  19  13  20  13  21  13  22  13  23  14  24  14  25  14  26  14
M  END
>  <minimizedAffinity>  (1) 
-4.59790373

>  <minimizedRMSD>  (1) 
1.99522901

$$$$
