
     RDKit          3D

 26 27  0  0  1  0  0  0  0  0999 V2000
   45.7180   34.8530   43.7050 C   0  0  0  0  0  0  0  0  0  0  0  0
   46.7760   34.8610   42.7760 C   0  0  0  0  0  0  0  0  0  0  0  0
   47.7360   33.8820   42.9890 C   0  0  0  0  0  0  0  0  0  0  0  0
   47.6100   33.0000   44.0430 N   0  0  0  0  0  0  0  0  0  0  0  0
   46.5650   33.0540   44.8960 C   0  0  0  0  0  0  0  0  0  0  0  0
   45.6080   33.9970   44.7170 N   0  0  0  0  0  0  0  0  0  0  0  0
   48.9230   33.7570   42.0930 C   0  0  1  0  0  0  0  0  0  0  0  0
   50.0030   34.7480   42.3930 C   0  0  0  0  0  0  0  0  0  0  0  0
   50.1720   33.2070   42.6360 C   0  0  2  0  0  0  0  0  0  0  0  0
   51.0530   32.5300   41.6030 C   0  0  0  0  0  0  0  0  0  0  0  0
   51.3290   31.0910   41.8910 C   0  0  0  0  0  0  0  0  0  0  0  0
   44.6460   35.8810   43.5090 C   0  0  0  0  0  0  0  0  0  0  0  0
   43.9370   35.9700   44.6980 F   0  0  0  0  0  0  0  0  0  0  0  0
   43.7860   35.4250   42.5460 F   0  0  0  0  0  0  0  0  0  0  0  0
   45.1810   37.1130   43.2360 F   0  0  0  0  0  0  0  0  0  0  0  0
   46.8366   35.5840   41.9492 H   0  0  0  0  0  0  0  0  0  0  0  0
   46.4909   32.3392   45.7288 H   0  0  0  0  0  0  0  0  0  0  0  0
   48.3350   33.4757   41.2070 H   0  0  0  0  0  0  0  0  0  0  0  0
   50.5451   35.2464   41.5759 H   0  0  0  0  0  0  0  0  0  0  0  0
   50.0961   35.6620   42.9979 H   0  0  0  0  0  0  0  0  0  0  0  0
   50.4386   32.5639   43.4877 H   0  0  0  0  0  0  0  0  0  0  0  0
   52.0131   33.0653   41.5628 H   0  0  0  0  0  0  0  0  0  0  0  0
   50.5088   32.5652   40.6477 H   0  0  0  0  0  0  0  0  0  0  0  0
   51.3591   30.9341   42.9793 H   0  0  0  0  0  0  0  0  0  0  0  0
   50.5335   30.4703   41.4529 H   0  0  0  0  0  0  0  0  0  0  0  0
   52.2977   30.8086   41.4529 H   0  0  0  0  0  0  0  0  0  0  0  0
  1  6  2  0
  2  3  2  0
  2  1  1  0
  3  4  1  0
  4  5  2  0
  6  5  1  0
  7  8  1  0
  7  9  1  0
  7  3  1  0
  8  9  1  0
 10 11  1  0
 10  9  1  0
 12  1  1  0
 12 13  1  0
 14 12  1  0
 15 12  1  0
  2 16  1  0
  5 17  1  0
  7 18  1  6
  8 19  1  0
  8 20  1  0
  9 21  1  1
 10 22  1  0
 10 23  1  0
 11 24  1  0
 11 25  1  0
 11 26  1  0
M  ISO  8  16  14  17  14  18  13  19  13  20  13  21  13  22   8  23   8
M  ISO  3  24   8  25   8  26   8
M  END
>  <minimizedAffinity>  (1) 
-4.56230974

>  <minimizedRMSD>  (1) 
1.17373478

$$$$
