
     RDKit          3D

 32 34  0  0  1  0  0  0  0  0999 V2000
   46.2170   32.5080   44.2730 C   0  0  1  0  0  0  0  0  0  0  0  0
   46.2230   33.6710   45.2170 C   0  0  0  0  0  0  0  0  0  0  0  0
   47.2470   33.5430   44.1020 C   0  0  2  0  0  0  0  0  0  0  0  0
   46.2030   29.3680   46.3380 C   0  0  0  0  0  0  0  0  0  0  0  0
   45.7280   30.5670   45.7920 C   0  0  0  0  0  0  0  0  0  0  0  0
   46.5980   31.2060   44.9200 C   0  0  0  0  0  0  0  0  0  0  0  0
   47.8180   30.6700   44.6430 N   0  0  0  0  0  0  0  0  0  0  0  0
   48.2240   29.4970   45.2090 C   0  0  0  0  0  0  0  0  0  0  0  0
   47.3980   28.8440   46.0660 N   0  0  0  0  0  0  0  0  0  0  0  0
   45.2910   28.6380   47.2760 C   0  0  0  0  0  0  0  0  0  0  0  0
   46.0680   27.7320   47.9860 F   0  0  0  0  0  0  0  0  0  0  0  0
   44.3970   27.9230   46.5260 F   0  0  0  0  0  0  0  0  0  0  0  0
   44.7010   29.4900   48.1730 F   0  0  0  0  0  0  0  0  0  0  0  0
   48.6390   34.9110   42.4520 C   0  0  2  0  0  0  0  0  0  0  0  0
   47.3540   34.4470   42.9560 C   0  0  1  0  0  0  0  0  0  0  0  0
   46.6210   33.8820   41.7270 C   0  0  0  0  0  0  0  0  0  0  0  0
   47.3430   34.3860   40.6750 O   0  0  0  0  0  0  0  0  0  0  0  0
   48.6880   34.2450   41.0630 C   0  0  0  0  0  0  0  0  0  0  0  0
   49.7730   34.7350   43.1730 O   0  0  0  0  0  0  0  0  0  0  0  0
   45.5043   32.0512   43.5706 H   0  0  0  0  0  0  0  0  0  0  0  0
   45.4340   34.4354   45.1603 H   0  0  0  0  0  0  0  0  0  0  0  0
   46.2595   33.7989   46.3089 H   0  0  0  0  0  0  0  0  0  0  0  0
   48.3455   33.5448   44.0453 H   0  0  0  0  0  0  0  0  0  0  0  0
   44.7356   30.9734   46.0370 H   0  0  0  0  0  0  0  0  0  0  0  0
   49.2151   29.0826   44.9723 H   0  0  0  0  0  0  0  0  0  0  0  0
   48.6564   36.0105   42.4809 H   0  0  0  0  0  0  0  0  0  0  0  0
   46.9118   35.3321   43.4368 H   0  0  0  0  0  0  0  0  0  0  0  0
   46.6392   32.7822   41.7275 H   0  0  0  0  0  0  0  0  0  0  0  0
   45.5570   34.1589   41.6931 H   0  0  0  0  0  0  0  0  0  0  0  0
   48.9852   33.1879   41.1277 H   0  0  0  0  0  0  0  0  0  0  0  0
   49.4187   34.6815   40.3662 H   0  0  0  0  0  0  0  0  0  0  0  0
   49.5584   34.7683   44.1389 H   0  0  0  0  0  0  0  0  0  0  0  0
  1  6  1  0
  1  2  1  0
  3  1  1  0
  3  2  1  0
  4 10  1  0
  5  4  2  0
  6  5  1  0
  7  6  2  0
  7  8  1  0
  8  9  2  0
  9  4  1  0
 10 11  1  0
 10 13  1  0
 12 10  1  0
 14 15  1  0
 14 19  1  0
 15 16  1  0
 15  3  1  0
 17 18  1  0
 17 16  1  0
 18 14  1  0
  1 20  1  6
  2 21  1  0
  2 22  1  0
  3 23  1  1
  5 24  1  0
  8 25  1  0
 14 26  1  6
 15 27  1  1
 16 28  1  0
 16 29  1  0
 18 30  1  0
 18 31  1  0
 19 32  1  0
M  ISO  8  20  13  21  13  22  13  23  13  24  14  25  14  26  13  27  13
M  ISO  5  28  13  29  13  30  13  31  13  32   3
M  END
>  <minimizedAffinity>  (1) 
-4.28294754

>  <minimizedRMSD>  (1) 
5.43079853

$$$$
