
     RDKit          3D

 33 36  0  0  1  0  0  0  0  0999 V2000
   46.1680   32.8880   43.8910 C   0  0  1  0  0  0  0  0  0  0  0  0
   45.9260   34.2960   44.2780 C   0  0  0  0  0  0  0  0  0  0  0  0
   47.3510   33.7450   43.8800 C   0  0  2  0  0  0  0  0  0  0  0  0
   45.8250   31.2610   47.2610 C   0  0  0  0  0  0  0  0  0  0  0  0
   45.9900   32.2660   46.3230 C   0  0  0  0  0  0  0  0  0  0  0  0
   45.9900   31.8890   44.9910 C   0  0  0  0  0  0  0  0  0  0  0  0
   45.8340   30.5880   44.6620 N   0  0  0  0  0  0  0  0  0  0  0  0
   45.6750   29.6330   45.6150 C   0  0  0  0  0  0  0  0  0  0  0  0
   45.6720   29.9820   46.9210 N   0  0  0  0  0  0  0  0  0  0  0  0
   45.8100   31.6510   48.7080 C   0  0  0  0  0  0  0  0  0  0  0  0
   46.9810   31.1940   49.2690 F   0  0  0  0  0  0  0  0  0  0  0  0
   44.7630   30.9760   49.3000 F   0  0  0  0  0  0  0  0  0  0  0  0
   45.7190   33.0040   48.8590 F   0  0  0  0  0  0  0  0  0  0  0  0
   47.7970   34.2420   42.5530 C   0  0  0  0  0  0  0  0  0  0  0  0
   48.6970   35.2720   42.3010 C   0  0  0  0  0  0  0  0  0  0  0  0
   48.7570   35.3180   40.9310 C   0  0  0  0  0  0  0  0  0  0  0  0
   47.9090   34.3290   40.3890 C   0  0  0  0  0  0  0  0  0  0  0  0
   47.3850   33.7450   41.4300 O   0  0  0  0  0  0  0  0  0  0  0  0
   47.7260   34.0930   38.9600 C   0  0  0  0  0  0  0  0  0  0  0  0
   46.7170   33.2480   38.6200 N   0  0  0  0  0  0  0  0  0  0  0  0
   46.7010   33.1540   37.2590 C   0  0  0  0  0  0  0  0  0  0  0  0
   47.7020   33.9430   36.8030 N   0  0  0  0  0  0  0  0  0  0  0  0
   48.3440   34.5290   37.8250 N   0  0  0  0  0  0  0  0  0  0  0  0
   45.7592   32.2133   43.1244 H   0  0  0  0  0  0  0  0  0  0  0  0
   45.3817   34.9744   43.6046 H   0  0  0  0  0  0  0  0  0  0  0  0
   45.4883   34.8197   45.1406 H   0  0  0  0  0  0  0  0  0  0  0  0
   48.3526   33.6763   44.3294 H   0  0  0  0  0  0  0  0  0  0  0  0
   46.1155   33.3169   46.6228 H   0  0  0  0  0  0  0  0  0  0  0  0
   45.5491   28.5794   45.3250 H   0  0  0  0  0  0  0  0  0  0  0  0
   49.2332   35.9004   43.0274 H   0  0  0  0  0  0  0  0  0  0  0  0
   49.3714   36.0179   40.3456 H   0  0  0  0  0  0  0  0  0  0  0  0
   46.0089   32.5535   36.6503 H   0  0  0  0  0  0  0  0  0  0  0  0
   47.9381   34.0752   35.8092 H   0  0  0  0  0  0  0  0  0  0  0  0
  1  2  1  0
  1  6  1  0
  3  1  1  0
  3  2  1  0
  4 10  1  0
  5  4  2  0
  6  5  1  0
  7  6  2  0
  7  8  1  0
  8  9  2  0
  9  4  1  0
 10 13  1  0
 10 11  1  0
 10 12  1  0
 14  3  1  0
 15 14  2  0
 16 15  1  0
 17 16  2  0
 17 18  1  0
 18 14  1  0
 19 17  1  0
 20 19  1  0
 21 20  2  0
 22 21  1  0
 22 23  1  0
 23 19  2  0
  1 24  1  6
  2 25  1  0
  2 26  1  0
  3 27  1  1
  5 28  1  0
  8 29  1  0
 15 30  1  0
 16 31  1  0
 21 32  1  0
 22 33  1  0
M  ISO  8  24  13  25  13  26  13  27  13  28  14  29  14  30  14  31  14
M  ISO  2  32  14  33   9
M  END
>  <minimizedAffinity>  (1) 
-5.97070837

>  <minimizedRMSD>  (1) 
2.52542377

$$$$
