
     RDKit          3D

 41 44  0  0  1  0  0  0  0  0999 V2000
   46.2350   33.0730   43.5410 C   0  0  1  0  0  0  0  0  0  0  0  0
   45.9590   34.5030   43.7920 C   0  0  0  0  0  0  0  0  0  0  0  0
   47.3880   33.9610   43.3890 C   0  0  2  0  0  0  0  0  0  0  0  0
   46.4300   31.7160   47.0370 C   0  0  0  0  0  0  0  0  0  0  0  0
   46.5430   32.6220   45.9980 C   0  0  0  0  0  0  0  0  0  0  0  0
   46.1460   32.1870   44.7390 C   0  0  0  0  0  0  0  0  0  0  0  0
   45.6780   30.9270   44.5830 N   0  0  0  0  0  0  0  0  0  0  0  0
   45.5840   30.0710   45.6330 C   0  0  0  0  0  0  0  0  0  0  0  0
   45.9650   30.4760   46.8620 N   0  0  0  0  0  0  0  0  0  0  0  0
   46.8420   32.1650   48.4090 C   0  0  0  0  0  0  0  0  0  0  0  0
   47.0180   31.0380   49.1770 F   0  0  0  0  0  0  0  0  0  0  0  0
   45.7870   32.8800   48.9370 F   0  0  0  0  0  0  0  0  0  0  0  0
   47.9990   32.8860   48.3630 F   0  0  0  0  0  0  0  0  0  0  0  0
   47.7420   34.3340   41.9840 C   0  0  0  0  0  0  0  0  0  0  0  0
   48.6250   35.3300   41.5750 C   0  0  0  0  0  0  0  0  0  0  0  0
   48.5530   35.2090   40.1920 C   0  0  0  0  0  0  0  0  0  0  0  0
   47.6740   34.1990   39.8220 C   0  0  0  0  0  0  0  0  0  0  0  0
   47.2370   33.7310   40.9550 O   0  0  0  0  0  0  0  0  0  0  0  0
   47.3330   33.7700   38.4390 C   0  0  0  0  0  0  0  0  0  0  0  0
   48.5140   33.8980   37.5040 C   0  0  0  0  0  0  0  0  0  0  0  0
   49.4870   32.7460   37.6150 C   0  0  0  0  0  0  0  0  0  0  0  0
   49.1180   31.9160   38.6660 O   0  0  0  0  0  0  0  0  0  0  0  0
   47.8920   31.3190   38.3400 C   0  0  0  0  0  0  0  0  0  0  0  0
   46.7920   32.3640   38.3940 C   0  0  0  0  0  0  0  0  0  0  0  0
   45.8148   32.3119   42.8671 H   0  0  0  0  0  0  0  0  0  0  0  0
   45.3630   35.0900   43.0777 H   0  0  0  0  0  0  0  0  0  0  0  0
   45.5381   35.0986   44.6155 H   0  0  0  0  0  0  0  0  0  0  0  0
   48.4098   33.9713   43.7963 H   0  0  0  0  0  0  0  0  0  0  0  0
   46.9290   33.6392   46.1605 H   0  0  0  0  0  0  0  0  0  0  0  0
   45.1988   29.0518   45.4820 H   0  0  0  0  0  0  0  0  0  0  0  0
   49.2204   36.0265   42.1836 H   0  0  0  0  0  0  0  0  0  0  0  0
   49.1183   35.8318   39.4831 H   0  0  0  0  0  0  0  0  0  0  0  0
   46.5401   34.4513   38.0966 H   0  0  0  0  0  0  0  0  0  0  0  0
   49.0475   34.8306   37.7398 H   0  0  0  0  0  0  0  0  0  0  0  0
   48.1204   33.8966   36.4768 H   0  0  0  0  0  0  0  0  0  0  0  0
   49.4809   32.1715   36.6769 H   0  0  0  0  0  0  0  0  0  0  0  0
   50.4965   33.1409   37.8022 H   0  0  0  0  0  0  0  0  0  0  0  0
   47.6717   30.5167   39.0596 H   0  0  0  0  0  0  0  0  0  0  0  0
   47.9474   30.8960   37.3261 H   0  0  0  0  0  0  0  0  0  0  0  0
   46.1602   32.2576   37.4998 H   0  0  0  0  0  0  0  0  0  0  0  0
   46.2177   32.1972   39.3173 H   0  0  0  0  0  0  0  0  0  0  0  0
  1  2  1  0
  1  6  1  0
  3  1  1  0
  3  2  1  0
  4 10  1  0
  5  4  2  0
  6  5  1  0
  7  6  2  0
  7  8  1  0
  8  9  2  0
  9  4  1  0
 10 12  1  0
 10 11  1  0
 13 10  1  0
 14  3  1  0
 15 14  2  0
 16 15  1  0
 17 16  2  0
 17 18  1  0
 18 14  1  0
 19 17  1  0
 20 21  1  0
 20 19  1  0
 21 22  1  0
 23 24  1  0
 23 22  1  0
 24 19  1  0
  1 25  1  6
  2 26  1  0
  2 27  1  0
  3 28  1  1
  5 29  1  0
  8 30  1  0
 15 31  1  0
 16 32  1  0
 19 33  1  0
 20 34  1  0
 20 35  1  0
 21 36  1  0
 21 37  1  0
 23 38  1  0
 23 39  1  0
 24 40  1  0
 24 41  1  0
M  ISO  8  25  13  26  13  27  13  28  13  29  14  30  14  31  14  32  14
M  ISO  8  33  13  34  13  35  13  36  13  37  13  38  13  39  13  40  13
M  ISO  1  41  13
M  END
>  <minimizedAffinity>  (1) 
-5.70744801

>  <minimizedRMSD>  (1) 
3.58966565

$$$$
