
     RDKit          3D

 37 40  0  0  1  0  0  0  0  0999 V2000
   46.0190   32.2430   45.4680 C   0  0  1  0  0  0  0  0  0  0  0  0
   45.5790   33.5060   46.0950 C   0  0  0  0  0  0  0  0  0  0  0  0
   46.7840   33.4240   45.0750 C   0  0  2  0  0  0  0  0  0  0  0  0
   48.1250   30.5840   48.1010 C   0  0  0  0  0  0  0  0  0  0  0  0
   47.6280   31.5880   47.2880 C   0  0  0  0  0  0  0  0  0  0  0  0
   46.6260   31.2420   46.3980 C   0  0  0  0  0  0  0  0  0  0  0  0
   46.1790   29.9670   46.3520 N   0  0  0  0  0  0  0  0  0  0  0  0
   46.6990   29.0070   47.1710 C   0  0  0  0  0  0  0  0  0  0  0  0
   47.6750   29.3270   48.0440 N   0  0  0  0  0  0  0  0  0  0  0  0
   49.2030   30.9440   49.0800 C   0  0  0  0  0  0  0  0  0  0  0  0
   50.3720   30.3750   48.6290 F   0  0  0  0  0  0  0  0  0  0  0  0
   48.8770   30.3480   50.2800 F   0  0  0  0  0  0  0  0  0  0  0  0
   49.3520   32.2950   49.1810 F   0  0  0  0  0  0  0  0  0  0  0  0
   46.4370   34.0160   43.7470 C   0  0  0  0  0  0  0  0  0  0  0  0
   45.5940   35.0960   43.4980 C   0  0  0  0  0  0  0  0  0  0  0  0
   45.6450   35.2050   42.1280 C   0  0  0  0  0  0  0  0  0  0  0  0
   46.4930   34.2150   41.5890 C   0  0  0  0  0  0  0  0  0  0  0  0
   46.9140   33.5600   42.6340 O   0  0  0  0  0  0  0  0  0  0  0  0
   46.8190   33.9880   40.1830 C   0  0  0  0  0  0  0  0  0  0  0  0
   48.0100   34.5360   39.7530 C   0  0  0  0  0  0  0  0  0  0  0  0
   48.3220   34.3200   38.4130 C   0  0  0  0  0  0  0  0  0  0  0  0
   47.4640   33.5930   37.5890 C   0  0  0  0  0  0  0  0  0  0  0  0
   46.2830   33.0720   38.0910 C   0  0  0  0  0  0  0  0  0  0  0  0
   45.9210   33.2590   39.4290 C   0  0  0  0  0  0  0  0  0  0  0  0
   45.5266   31.4683   44.8619 H   0  0  0  0  0  0  0  0  0  0  0  0
   44.6285   33.9744   45.7997 H   0  0  0  0  0  0  0  0  0  0  0  0
   45.4288   33.8747   47.1204 H   0  0  0  0  0  0  0  0  0  0  0  0
   47.8541   33.6781   45.0568 H   0  0  0  0  0  0  0  0  0  0  0  0
   48.0129   32.6168   47.3467 H   0  0  0  0  0  0  0  0  0  0  0  0
   46.3226   27.9747   47.1188 H   0  0  0  0  0  0  0  0  0  0  0  0
   45.0292   35.7081   44.2165 H   0  0  0  0  0  0  0  0  0  0  0  0
   45.1019   35.9570   41.5368 H   0  0  0  0  0  0  0  0  0  0  0  0
   48.6695   35.1058   40.4242 H   0  0  0  0  0  0  0  0  0  0  0  0
   49.2564   34.7278   37.9999 H   0  0  0  0  0  0  0  0  0  0  0  0
   47.7268   33.4321   36.5330 H   0  0  0  0  0  0  0  0  0  0  0  0
   45.6182   32.5013   37.4259 H   0  0  0  0  0  0  0  0  0  0  0  0
   44.9886   32.8547   39.8500 H   0  0  0  0  0  0  0  0  0  0  0  0
  1  2  1  0
  1  6  1  0
  3  1  1  0
  3  2  1  0
  4 10  1  0
  5  4  2  0
  6  5  1  0
  7  6  2  0
  7  8  1  0
  8  9  2  0
  9  4  1  0
 10 13  1  0
 10 12  1  0
 11 10  1  0
 14  3  1  0
 15 14  2  0
 16 15  1  0
 17 16  2  0
 17 18  1  0
 18 14  1  0
 19 17  1  0
 20 19  2  0
 21 20  1  0
 22 23  1  0
 22 21  2  0
 23 24  2  0
 24 19  1  0
  1 25  1  6
  2 26  1  0
  2 27  1  0
  3 28  1  1
  5 29  1  0
  8 30  1  0
 15 31  1  0
 16 32  1  0
 20 33  1  0
 21 34  1  0
 22 35  1  0
 23 36  1  0
 24 37  1  0
M  ISO  8  25  13  26  13  27  13  28  13  29  14  30  14  31  14  32  14
M  ISO  5  33  14  34  14  35  14  36  14  37  14
M  END
>  <minimizedAffinity>  (1) 
-5.62546635

>  <minimizedRMSD>  (1) 
3.4895401

$$$$
