
     RDKit          3D

 37 40  0  0  1  0  0  0  0  0999 V2000
   45.9900   32.2510   44.4800 C   0  0  1  0  0  0  0  0  0  0  0  0
   46.2650   33.6570   44.8470 C   0  0  0  0  0  0  0  0  0  0  0  0
   47.0040   32.9180   43.6660 C   0  0  2  0  0  0  0  0  0  0  0  0
   47.3010   30.6040   47.5850 C   0  0  0  0  0  0  0  0  0  0  0  0
   46.9340   31.6200   46.7230 C   0  0  0  0  0  0  0  0  0  0  0  0
   46.4090   31.2350   45.4950 C   0  0  0  0  0  0  0  0  0  0  0  0
   46.2800   29.9220   45.1990 N   0  0  0  0  0  0  0  0  0  0  0  0
   46.6550   28.9590   46.0780 C   0  0  0  0  0  0  0  0  0  0  0  0
   47.1700   29.3150   47.2790 N   0  0  0  0  0  0  0  0  0  0  0  0
   47.8600   30.9880   48.9240 C   0  0  0  0  0  0  0  0  0  0  0  0
   48.7230   29.9920   49.3140 F   0  0  0  0  0  0  0  0  0  0  0  0
   46.8050   31.0360   49.8110 F   0  0  0  0  0  0  0  0  0  0  0  0
   48.5350   32.1820   48.8560 F   0  0  0  0  0  0  0  0  0  0  0  0
   46.5500   33.4060   42.3270 C   0  0  0  0  0  0  0  0  0  0  0  0
   47.3480   33.8600   41.2820 C   0  0  0  0  0  0  0  0  0  0  0  0
   46.4090   34.1690   40.3160 C   0  0  0  0  0  0  0  0  0  0  0  0
   45.1260   33.9070   40.7780 C   0  0  0  0  0  0  0  0  0  0  0  0
   45.3020   33.4550   41.9890 O   0  0  0  0  0  0  0  0  0  0  0  0
   44.1090   32.1930   38.7240 F   0  0  0  0  0  0  0  0  0  0  0  0
   43.3710   33.2450   39.1290 C   0  0  0  0  0  0  0  0  0  0  0  0
   43.8440   34.0760   40.1120 C   0  0  0  0  0  0  0  0  0  0  0  0
   43.0210   35.1250   40.4600 C   0  0  0  0  0  0  0  0  0  0  0  0
   41.7970   35.3060   39.8400 C   0  0  0  0  0  0  0  0  0  0  0  0
   41.3400   34.4580   38.8510 C   0  0  0  0  0  0  0  0  0  0  0  0
   42.1540   33.4020   38.4930 C   0  0  0  0  0  0  0  0  0  0  0  0
   45.0905   31.6864   44.1933 H   0  0  0  0  0  0  0  0  0  0  0  0
   45.5251   34.4435   44.6371 H   0  0  0  0  0  0  0  0  0  0  0  0
   46.5639   34.1969   45.7576 H   0  0  0  0  0  0  0  0  0  0  0  0
   48.0380   32.6793   43.3764 H   0  0  0  0  0  0  0  0  0  0  0  0
   47.0514   32.6794   46.9949 H   0  0  0  0  0  0  0  0  0  0  0  0
   46.5416   27.8964   45.8171 H   0  0  0  0  0  0  0  0  0  0  0  0
   48.4434   33.9499   41.2362 H   0  0  0  0  0  0  0  0  0  0  0  0
   46.6455   34.5676   39.3184 H   0  0  0  0  0  0  0  0  0  0  0  0
   43.3416   35.8289   41.2421 H   0  0  0  0  0  0  0  0  0  0  0  0
   41.1669   36.1543   40.1456 H   0  0  0  0  0  0  0  0  0  0  0  0
   40.3651   34.6176   38.3671 H   0  0  0  0  0  0  0  0  0  0  0  0
   41.8382   32.6949   37.7119 H   0  0  0  0  0  0  0  0  0  0  0  0
  1  2  1  0
  1  6  1  0
  3  1  1  0
  3  2  1  0
  4 10  1  0
  5  4  2  0
  6  5  1  0
  7  6  2  0
  7  8  1  0
  8  9  2  0
  9  4  1  0
 10 11  1  0
 10 12  1  0
 13 10  1  0
 14  3  1  0
 15 14  2  0
 16 17  2  0
 16 15  1  0
 17 18  1  0
 18 14  1  0
 19 20  1  0
 20 21  2  0
 21 22  1  0
 21 17  1  0
 23 22  2  0
 24 23  1  0
 25 24  2  0
 25 20  1  0
  1 26  1  6
  2 27  1  0
  2 28  1  0
  3 29  1  1
  5 30  1  0
  8 31  1  0
 15 32  1  0
 16 33  1  0
 22 34  1  0
 23 35  1  0
 24 36  1  0
 25 37  1  0
M  ISO  8  26  13  27  13  28  13  29  13  30  14  31  14  32  14  33  14
M  ISO  4  34  14  35  14  36  14  37  14
M  END
>  <minimizedAffinity>  (1) 
-5.06687117

>  <minimizedRMSD>  (1) 
4.89297628

$$$$
