
     RDKit          3D

 34 37  0  0  1  0  0  0  0  0999 V2000
   45.9280   32.4630   44.3120 C   0  0  1  0  0  0  0  0  0  0  0  0
   46.5540   33.7620   44.6260 C   0  0  0  0  0  0  0  0  0  0  0  0
   47.1660   32.7450   43.5910 C   0  0  2  0  0  0  0  0  0  0  0  0
   45.9970   30.8370   47.6950 C   0  0  0  0  0  0  0  0  0  0  0  0
   46.0100   31.8480   46.7500 C   0  0  0  0  0  0  0  0  0  0  0  0
   45.9160   31.4610   45.4240 C   0  0  0  0  0  0  0  0  0  0  0  0
   45.8190   30.1530   45.1000 N   0  0  0  0  0  0  0  0  0  0  0  0
   45.8100   29.1890   46.0680 C   0  0  0  0  0  0  0  0  0  0  0  0
   45.9010   29.5470   47.3660 N   0  0  0  0  0  0  0  0  0  0  0  0
   46.0860   31.2280   49.1390 C   0  0  0  0  0  0  0  0  0  0  0  0
   47.3430   30.8870   49.5830 F   0  0  0  0  0  0  0  0  0  0  0  0
   45.1690   30.4620   49.8290 F   0  0  0  0  0  0  0  0  0  0  0  0
   45.8840   32.5690   49.3040 F   0  0  0  0  0  0  0  0  0  0  0  0
   47.0160   33.2040   42.1780 C   0  0  0  0  0  0  0  0  0  0  0  0
   45.9980   33.9940   41.6540 C   0  0  0  0  0  0  0  0  0  0  0  0
   46.3470   34.1050   40.3280 C   0  0  0  0  0  0  0  0  0  0  0  0
   47.5230   33.4080   40.0890 C   0  0  0  0  0  0  0  0  0  0  0  0
   47.8630   32.8950   41.2510 O   0  0  0  0  0  0  0  0  0  0  0  0
   48.1970   33.3010   38.7990 C   0  0  0  0  0  0  0  0  0  0  0  0
   47.9650   34.1220   37.7130 C   0  0  0  0  0  0  0  0  0  0  0  0
   48.8460   33.6090   36.7540 C   0  0  0  0  0  0  0  0  0  0  0  0
   49.5410   32.5380   37.2980 C   0  0  0  0  0  0  0  0  0  0  0  0
   49.1060   32.3940   38.5480 O   0  0  0  0  0  0  0  0  0  0  0  0
   44.9384   32.1467   43.9504 H   0  0  0  0  0  0  0  0  0  0  0  0
   46.0949   34.7004   44.2814 H   0  0  0  0  0  0  0  0  0  0  0  0
   46.9013   34.2780   45.5333 H   0  0  0  0  0  0  0  0  0  0  0  0
   48.1139   32.2061   43.4458 H   0  0  0  0  0  0  0  0  0  0  0  0
   46.0910   32.9065   47.0381 H   0  0  0  0  0  0  0  0  0  0  0  0
   45.7291   28.1275   45.7911 H   0  0  0  0  0  0  0  0  0  0  0  0
   45.1282   34.4240   42.1722 H   0  0  0  0  0  0  0  0  0  0  0  0
   45.7784   34.6633   39.5697 H   0  0  0  0  0  0  0  0  0  0  0  0
   47.2649   34.9657   37.6242 H   0  0  0  0  0  0  0  0  0  0  0  0
   48.9682   33.9939   35.7308 H   0  0  0  0  0  0  0  0  0  0  0  0
   50.3038   31.9264   36.7939 H   0  0  0  0  0  0  0  0  0  0  0  0
  1  2  1  0
  1  6  1  0
  3  1  1  0
  3  2  1  0
  4 10  1  0
  5  4  2  0
  6  5  1  0
  7  6  2  0
  7  8  1  0
  8  9  2  0
  9  4  1  0
 10 13  1  0
 10 11  1  0
 10 12  1  0
 14  3  1  0
 15 14  2  0
 16 15  1  0
 17 16  2  0
 17 18  1  0
 18 14  1  0
 19 17  1  0
 20 19  2  0
 21 22  2  0
 21 20  1  0
 22 23  1  0
 23 19  1  0
  1 24  1  6
  2 25  1  0
  2 26  1  0
  3 27  1  1
  5 28  1  0
  8 29  1  0
 15 30  1  0
 16 31  1  0
 20 32  1  0
 21 33  1  0
 22 34  1  0
M  ISO  8  24  13  25  13  26  13  27  13  28  14  29  14  30  14  31  14
M  ISO  3  32  14  33  14  34  14
M  END
>  <minimizedAffinity>  (1) 
-5.05071497

>  <minimizedRMSD>  (1) 
2.64553785

$$$$
