
     RDKit          3D

 42 45  0  0  1  0  0  0  0  0999 V2000
   46.6280   31.9520   44.4530 C   0  0  1  0  0  0  0  0  0  0  0  0
   45.4480   31.3480   43.8010 C   0  0  0  0  0  0  0  0  0  0  0  0
   46.4810   30.4930   44.6390 C   0  0  2  0  0  0  0  0  0  0  0  0
   48.6580   34.1400   42.1720 C   0  0  0  0  0  0  0  0  0  0  0  0
   47.6210   33.7750   43.0420 C   0  0  0  0  0  0  0  0  0  0  0  0
   47.6800   32.4630   43.5260 C   0  0  0  0  0  0  0  0  0  0  0  0
   48.6870   31.6330   43.1570 N   0  0  0  0  0  0  0  0  0  0  0  0
   49.6630   32.0540   42.3060 C   0  0  0  0  0  0  0  0  0  0  0  0
   49.6400   33.3070   41.8200 N   0  0  0  0  0  0  0  0  0  0  0  0
   48.6370   35.5360   41.6360 C   0  0  0  0  0  0  0  0  0  0  0  0
   48.6450   35.4600   40.2610 F   0  0  0  0  0  0  0  0  0  0  0  0
   49.8030   36.1530   42.0430 F   0  0  0  0  0  0  0  0  0  0  0  0
   47.5130   36.2170   42.0380 F   0  0  0  0  0  0  0  0  0  0  0  0
   45.9300   30.0440   45.9510 C   0  0  0  0  0  0  0  0  0  0  0  0
   45.8460   30.7700   47.1060 C   0  0  0  0  0  0  0  0  0  0  0  0
   45.2680   29.9080   48.0030 C   0  0  0  0  0  0  0  0  0  0  0  0
   45.0180   28.6970   47.3890 C   0  0  0  0  0  0  0  0  0  0  0  0
   45.4480   28.8600   46.1440 O   0  0  0  0  0  0  0  0  0  0  0  0
   44.4650   27.4420   47.7360 N   0  0  0  0  0  0  0  0  0  0  0  0
   43.6560   26.7530   46.7190 C   0  0  0  0  0  0  0  0  0  0  0  0
   44.6640   25.8090   46.0500 C   0  0  0  0  0  0  0  0  0  0  0  0
   45.1950   24.9340   47.1600 C   0  0  0  0  0  0  0  0  0  0  0  0
   44.5560   25.1560   48.4950 C   0  0  0  0  0  0  0  0  0  0  0  0
   44.5300   26.6170   48.9270 C   0  0  0  0  0  0  0  0  0  0  0  0
   46.7774   32.7664   45.1771 H   0  0  0  0  0  0  0  0  0  0  0  0
   44.4377   31.5393   44.1918 H   0  0  0  0  0  0  0  0  0  0  0  0
   45.0377   31.3157   42.7809 H   0  0  0  0  0  0  0  0  0  0  0  0
   47.1355   29.6232   44.4806 H   0  0  0  0  0  0  0  0  0  0  0  0
   46.8173   34.4709   43.3244 H   0  0  0  0  0  0  0  0  0  0  0  0
   50.4719   31.3674   42.0157 H   0  0  0  0  0  0  0  0  0  0  0  0
   46.1681   31.8078   47.2771 H   0  0  0  0  0  0  0  0  0  0  0  0
   45.0385   30.1456   49.0522 H   0  0  0  0  0  0  0  0  0  0  0  0
   42.8350   26.1878   47.1844 H   0  0  0  0  0  0  0  0  0  0  0  0
   43.1749   27.4430   46.0102 H   0  0  0  0  0  0  0  0  0  0  0  0
   44.1671   25.1973   45.2826 H   0  0  0  0  0  0  0  0  0  0  0  0
   45.4697   26.3630   45.5460 H   0  0  0  0  0  0  0  0  0  0  0  0
   45.0346   23.8839   46.8743 H   0  0  0  0  0  0  0  0  0  0  0  0
   46.2572   25.1945   47.2782 H   0  0  0  0  0  0  0  0  0  0  0  0
   43.5200   24.7890   48.4493 H   0  0  0  0  0  0  0  0  0  0  0  0
   45.1618   24.6129   49.2353 H   0  0  0  0  0  0  0  0  0  0  0  0
   45.4423   26.8536   49.4942 H   0  0  0  0  0  0  0  0  0  0  0  0
   43.6570   26.8074   49.5685 H   0  0  0  0  0  0  0  0  0  0  0  0
  1  3  1  0
  2  1  1  0
  2  3  1  0
  3 14  1  0
  4  5  2  0
  5  6  1  0
  6  1  1  0
  7  6  2  0
  8  7  1  0
  9  4  1  0
  9  8  2  0
 10 13  1  0
 10 12  1  0
 10  4  1  0
 11 10  1  0
 14 18  1  0
 14 15  2  0
 15 16  1  0
 17 19  1  0
 17 16  2  0
 18 17  1  0
 19 24  1  0
 20 19  1  0
 21 20  1  0
 21 22  1  0
 22 23  1  0
 23 24  1  0
  1 25  1  1
  2 26  1  0
  2 27  1  0
  3 28  1  6
  5 29  1  0
  8 30  1  0
 15 31  1  0
 16 32  1  0
 20 33  1  0
 20 34  1  0
 21 35  1  0
 21 36  1  0
 22 37  1  0
 22 38  1  0
 23 39  1  0
 23 40  1  0
 24 41  1  0
 24 42  1  0
M  ISO  8  25  13  26  13  27  13  28  13  29  14  30  14  31  14  32  14
M  ISO  8  33  13  34  13  35  13  36  13  37  13  38  13  39  13  40  13
M  ISO  2  41  13  42  13
M  END
>  <minimizedAffinity>  (1) 
-4.92989492

>  <minimizedRMSD>  (1) 
9.45398808

$$$$
