
     RDKit          3D

 30 32  0  0  1  0  0  0  0  0999 V2000
   45.9100   32.3580   44.4740 C   0  0  1  0  0  0  0  0  0  0  0  0
   45.7350   33.6980   45.0730 C   0  0  0  0  0  0  0  0  0  0  0  0
   47.0910   33.2160   44.4290 C   0  0  2  0  0  0  0  0  0  0  0  0
   45.5750   30.3000   47.6000 C   0  0  0  0  0  0  0  0  0  0  0  0
   45.5860   31.4220   46.7900 C   0  0  0  0  0  0  0  0  0  0  0  0
   45.8570   31.2190   45.4420 C   0  0  0  0  0  0  0  0  0  0  0  0
   46.0950   29.9650   44.9900 N   0  0  0  0  0  0  0  0  0  0  0  0
   46.0750   28.8950   45.8180 C   0  0  0  0  0  0  0  0  0  0  0  0
   45.8120   29.0760   47.1330 N   0  0  0  0  0  0  0  0  0  0  0  0
   45.2750   30.4900   49.0560 C   0  0  0  0  0  0  0  0  0  0  0  0
   46.4650   30.7540   49.6950 F   0  0  0  0  0  0  0  0  0  0  0  0
   44.7820   29.2940   49.5350 F   0  0  0  0  0  0  0  0  0  0  0  0
   44.4050   31.5290   49.2510 F   0  0  0  0  0  0  0  0  0  0  0  0
   47.3730   33.8800   43.1280 C   0  0  0  0  0  0  0  0  0  0  0  0
   46.7490   33.6440   41.9070 C   0  0  0  0  0  0  0  0  0  0  0  0
   47.3840   34.5170   41.0600 C   0  0  0  0  0  0  0  0  0  0  0  0
   48.3600   35.2500   41.7660 C   0  0  0  0  0  0  0  0  0  0  0  0
   48.2790   34.8010   42.9890 O   0  0  0  0  0  0  0  0  0  0  0  0
   49.2960   36.3030   41.2950 C   0  0  0  0  0  0  0  0  0  0  0  0
   45.4018   31.7895   43.6812 H   0  0  0  0  0  0  0  0  0  0  0  0
   45.1176   34.4574   44.5709 H   0  0  0  0  0  0  0  0  0  0  0  0
   45.4152   34.0980   46.0465 H   0  0  0  0  0  0  0  0  0  0  0  0
   48.1403   33.0992   44.7378 H   0  0  0  0  0  0  0  0  0  0  0  0
   45.3897   32.4263   47.1936 H   0  0  0  0  0  0  0  0  0  0  0  0
   46.2709   27.8863   45.4254 H   0  0  0  0  0  0  0  0  0  0  0  0
   45.9432   32.9314   41.6769 H   0  0  0  0  0  0  0  0  0  0  0  0
   47.1641   34.6286   39.9880 H   0  0  0  0  0  0  0  0  0  0  0  0
   49.7455   36.8087   42.1623 H   0  0  0  0  0  0  0  0  0  0  0  0
   50.0891   35.8433   40.6870 H   0  0  0  0  0  0  0  0  0  0  0  0
   48.7465   37.0367   40.6870 H   0  0  0  0  0  0  0  0  0  0  0  0
  1  2  1  0
  1  6  1  0
  3  1  1  0
  3  2  1  0
  4 10  1  0
  5  4  2  0
  6  5  1  0
  7  6  2  0
  7  8  1  0
  8  9  2  0
  9  4  1  0
 10 13  1  0
 10 12  1  0
 10 11  1  0
 14  3  1  0
 15 14  2  0
 16 17  2  0
 16 15  1  0
 17 18  1  0
 18 14  1  0
 19 17  1  0
  1 20  1  6
  2 21  1  0
  2 22  1  0
  3 23  1  1
  5 24  1  0
  8 25  1  0
 15 26  1  0
 16 27  1  0
 19 28  1  0
 19 29  1  0
 19 30  1  0
M  ISO  8  20  13  21  13  22  13  23  13  24  14  25  14  26  14  27  14
M  ISO  3  28   8  29   8  30   8
M  END
>  <minimizedAffinity>  (1) 
-4.77530241

>  <minimizedRMSD>  (1) 
1.01845193

$$$$
