
     RDKit          3D

 28 30  0  0  1  0  0  0  0  0999 V2000
   46.3830   31.4370   44.3130 C   0  0  1  0  0  0  0  0  0  0  0  0
   45.4140   32.3090   43.6120 C   0  0  0  0  0  0  0  0  0  0  0  0
   46.6990   32.8630   44.3400 C   0  0  2  0  0  0  0  0  0  0  0  0
   45.5610   30.6080   47.8830 C   0  0  0  0  0  0  0  0  0  0  0  0
   46.0890   31.3230   46.8140 C   0  0  0  0  0  0  0  0  0  0  0  0
   45.8580   30.7750   45.5480 C   0  0  0  0  0  0  0  0  0  0  0  0
   45.1610   29.6230   45.4190 N   0  0  0  0  0  0  0  0  0  0  0  0
   44.6690   28.9680   46.5010 C   0  0  0  0  0  0  0  0  0  0  0  0
   44.8770   29.4750   47.7400 N   0  0  0  0  0  0  0  0  0  0  0  0
   45.7800   31.1670   49.2580 C   0  0  0  0  0  0  0  0  0  0  0  0
   47.0390   30.7890   49.6620 F   0  0  0  0  0  0  0  0  0  0  0  0
   44.8590   30.5710   50.0960 F   0  0  0  0  0  0  0  0  0  0  0  0
   45.6860   32.5330   49.2640 F   0  0  0  0  0  0  0  0  0  0  0  0
   47.7450   33.3150   43.3750 C   0  0  0  0  0  0  0  0  0  0  0  0
   48.7270   32.5400   42.7630 C   0  0  0  0  0  0  0  0  0  0  0  0
   49.3870   33.4750   41.9920 C   0  0  0  0  0  0  0  0  0  0  0  0
   48.8230   34.7350   42.1400 C   0  0  0  0  0  0  0  0  0  0  0  0
   47.8370   34.5590   42.9890 O   0  0  0  0  0  0  0  0  0  0  0  0
   49.2890   36.2800   41.3750 S   0  0  0  0  0  0  0  0  0  0  0  0
   46.9937   30.5681   44.0265 H   0  0  0  0  0  0  0  0  0  0  0  0
   45.3526   32.3053   42.5137 H   0  0  0  0  0  0  0  0  0  0  0  0
   44.3307   32.4939   43.6605 H   0  0  0  0  0  0  0  0  0  0  0  0
   46.9323   33.5864   45.1351 H   0  0  0  0  0  0  0  0  0  0  0  0
   46.6513   32.2579   46.9545 H   0  0  0  0  0  0  0  0  0  0  0  0
   44.1053   28.0321   46.3729 H   0  0  0  0  0  0  0  0  0  0  0  0
   48.9250   31.4630   42.8671 H   0  0  0  0  0  0  0  0  0  0  0  0
   50.2477   33.2512   41.3446 H   0  0  0  0  0  0  0  0  0  0  0  0
   49.5679   37.2048   42.3465 H   0  0  0  0  0  0  0  0  0  0  0  0
  1  3  1  0
  1  6  1  0
  2  1  1  0
  2  3  1  0
  4 10  1  0
  5  4  2  0
  6  5  1  0
  7  6  2  0
  7  8  1  0
  8  9  2  0
  9  4  1  0
 10 13  1  0
 10 11  1  0
 10 12  1  0
 14  3  1  0
 15 14  2  0
 16 17  2  0
 16 15  1  0
 17 18  1  0
 18 14  1  0
 19 17  1  0
  1 20  1  6
  2 21  1  0
  2 22  1  0
  3 23  1  1
  5 24  1  0
  8 25  1  0
 15 26  1  0
 16 27  1  0
 19 28  1  0
M  ISO  8  20  13  21  13  22  13  23  13  24  14  25  14  26  14  27  14
M  ISO  1  28  11
M  END
>  <minimizedAffinity>  (1) 
-4.29712152

>  <minimizedRMSD>  (1) 
1.7398777

$$$$
