
     RDKit          3D

 20 21  0  0  0  0  0  0  0  0999 V2000
   45.4840   36.0320   43.0950 C   0  0  0  0  0  0  0  0  0  0  0  0
   46.3980   34.9580   42.9510 C   0  0  0  0  0  0  0  0  0  0  0  0
   46.3720   34.0290   43.9850 C   0  0  0  0  0  0  0  0  0  0  0  0
   45.4990   34.2120   45.0260 N   0  0  0  0  0  0  0  0  0  0  0  0
   44.6530   35.2600   45.1030 C   0  0  0  0  0  0  0  0  0  0  0  0
   44.6570   36.1700   44.1240 N   0  0  0  0  0  0  0  0  0  0  0  0
   47.2540   34.9380   41.7720 C   0  0  0  0  0  0  0  0  0  0  0  0
   46.9740   34.2320   40.6260 C   0  0  0  0  0  0  0  0  0  0  0  0
   47.9850   34.4330   39.7170 C   0  0  0  0  0  0  0  0  0  0  0  0
   48.8680   35.2490   40.2990 N   0  0  0  0  0  0  0  0  0  0  0  0
   48.4250   35.5310   41.4900 N   0  0  0  0  0  0  0  0  0  0  0  0
   47.3070   32.9140   43.8690 C   0  0  0  0  0  0  0  0  0  0  0  0
   47.4220   32.2630   45.0920 F   0  0  0  0  0  0  0  0  0  0  0  0
   48.5610   33.4850   43.6580 F   0  0  0  0  0  0  0  0  0  0  0  0
   46.9570   32.0040   42.9350 F   0  0  0  0  0  0  0  0  0  0  0  0
   45.4586   36.7978   42.3058 H   0  0  0  0  0  0  0  0  0  0  0  0
   43.9699   35.3641   45.9589 H   0  0  0  0  0  0  0  0  0  0  0  0
   46.0838   33.6067   40.4629 H   0  0  0  0  0  0  0  0  0  0  0  0
   48.0537   34.0049   38.7061 H   0  0  0  0  0  0  0  0  0  0  0  0
   49.7435   35.5937   39.8800 H   0  0  0  0  0  0  0  0  0  0  0  0
  1  6  2  0
  2  1  1  0
  2  3  2  0
  3  4  1  0
  4  5  2  0
  6  5  1  0
  7  2  1  0
  8  7  1  0
  9 10  1  0
  9  8  2  0
 10 11  1  0
 11  7  2  0
 12  3  1  0
 12 13  1  0
 14 12  1  0
 15 12  1  0
  1 16  1  0
  5 17  1  0
  8 18  1  0
  9 19  1  0
 10 20  1  0
M  ISO  5  16  14  17  14  18  14  19  14  20   9
M  END
>  <minimizedAffinity>  (1) 
-4.95471239

>  <minimizedRMSD>  (1) 
3.08108139

$$$$
