
     RDKit          3D

 23 24  0  0  0  0  0  0  0  0999 V2000
   45.2150   32.5580   43.6610 C   0  0  0  0  0  0  0  0  0  0  0  0
   45.6890   33.5060   42.7330 C   0  0  0  0  0  0  0  0  0  0  0  0
   47.0680   33.7670   42.7250 C   0  0  0  0  0  0  0  0  0  0  0  0
   47.8570   33.0980   43.6010 N   0  0  0  0  0  0  0  0  0  0  0  0
   47.3430   32.1920   44.4770 C   0  0  0  0  0  0  0  0  0  0  0  0
   46.0360   31.9290   44.5030 N   0  0  0  0  0  0  0  0  0  0  0  0
   44.4880   36.0550   43.1480 F   0  0  0  0  0  0  0  0  0  0  0  0
   44.0980   35.3520   42.0500 C   0  0  0  0  0  0  0  0  0  0  0  0
   44.6900   34.1240   41.8690 C   0  0  0  0  0  0  0  0  0  0  0  0
   44.3520   33.3370   40.7730 C   0  0  0  0  0  0  0  0  0  0  0  0
   43.4070   33.7830   39.8440 C   0  0  0  0  0  0  0  0  0  0  0  0
   42.8220   35.0180   40.0410 C   0  0  0  0  0  0  0  0  0  0  0  0
   43.1620   35.8010   41.1340 C   0  0  0  0  0  0  0  0  0  0  0  0
   47.5050   34.7530   41.7470 C   0  0  0  0  0  0  0  0  0  0  0  0
   48.8990   34.7040   41.6520 F   0  0  0  0  0  0  0  0  0  0  0  0
   47.1990   35.9950   42.2520 F   0  0  0  0  0  0  0  0  0  0  0  0
   47.0040   34.5450   40.4890 F   0  0  0  0  0  0  0  0  0  0  0  0
   44.1392   32.3305   43.6920 H   0  0  0  0  0  0  0  0  0  0  0  0
   48.0152   31.6693   45.1734 H   0  0  0  0  0  0  0  0  0  0  0  0
   44.8317   32.3566   40.6361 H   0  0  0  0  0  0  0  0  0  0  0  0
   43.1358   33.1641   38.9760 H   0  0  0  0  0  0  0  0  0  0  0  0
   42.0760   35.3859   39.3212 H   0  0  0  0  0  0  0  0  0  0  0  0
   42.6861   36.7828   41.2737 H   0  0  0  0  0  0  0  0  0  0  0  0
  1  6  2  0
  2  1  1  0
  3  2  2  0
  3  4  1  0
  4  5  2  0
  5  6  1  0
  8  7  1  0
  9  8  2  0
  9  2  1  0
 10  9  1  0
 11 12  1  0
 11 10  2  0
 12 13  2  0
 13  8  1  0
 14 16  1  0
 14  3  1  0
 15 14  1  0
 17 14  1  0
  1 18  1  0
  5 19  1  0
 10 20  1  0
 11 21  1  0
 12 22  1  0
 13 23  1  0
M  ISO  6  18  14  19  14  20  14  21  14  22  14  23  14
M  END
>  <minimizedAffinity>  (1) 
-4.27117968

>  <minimizedRMSD>  (1) 
2.74283791

$$$$
