
     RDKit          3D

 14 14  0  0  0  0  0  0  0  0999 V2000
   44.5070   35.7070   45.0260 C   0  0  0  0  0  0  0  0  0  0  0  0
   45.0930   35.7280   43.7380 C   0  0  0  0  0  0  0  0  0  0  0  0
   45.9940   34.6980   43.4480 C   0  0  0  0  0  0  0  0  0  0  0  0
   46.2670   33.7460   44.3840 N   0  0  0  0  0  0  0  0  0  0  0  0
   45.6710   33.7800   45.6090 C   0  0  0  0  0  0  0  0  0  0  0  0
   44.8060   34.7440   45.9210 N   0  0  0  0  0  0  0  0  0  0  0  0
   46.5740   34.7580   42.1070 C   0  0  0  0  0  0  0  0  0  0  0  0
   47.3750   33.6300   41.9030 F   0  0  0  0  0  0  0  0  0  0  0  0
   47.4740   35.8160   42.0990 F   0  0  0  0  0  0  0  0  0  0  0  0
   45.6720   34.8100   41.1010 F   0  0  0  0  0  0  0  0  0  0  0  0
   44.7730   36.7260   42.8270 O   0  0  0  0  0  0  0  0  0  0  0  0
   43.7910   36.4946   45.3034 H   0  0  0  0  0  0  0  0  0  0  0  0
   45.9071   33.0017   46.3496 H   0  0  0  0  0  0  0  0  0  0  0  0
   45.1902   36.7290   41.9292 H   0  0  0  0  0  0  0  0  0  0  0  0
  1  6  2  0
  2  1  1  0
  3  2  2  0
  3  4  1  0
  4  5  2  0
  5  6  1  0
  7  3  1  0
  8  7  1  0
  9  7  1  0
 10  7  1  0
 11  2  1  0
  1 12  1  0
  5 13  1  0
 11 14  1  0
M  ISO  3  12  14  13  14  14   3
M  END
>  <minimizedAffinity>  (1) 
-4.07058239

>  <minimizedRMSD>  (1) 
0.581043839

$$$$
