
     RDKit          3D

 15 15  0  0  0  0  0  0  0  0999 V2000
   44.5590   35.5600   45.0970 C   0  0  0  0  0  0  0  0  0  0  0  0
   45.1270   35.6410   43.7980 C   0  0  0  0  0  0  0  0  0  0  0  0
   46.0640   34.6470   43.4710 C   0  0  0  0  0  0  0  0  0  0  0  0
   46.3780   33.6830   44.3830 N   0  0  0  0  0  0  0  0  0  0  0  0
   45.7880   33.6720   45.6170 C   0  0  0  0  0  0  0  0  0  0  0  0
   44.8930   34.5990   45.9600 N   0  0  0  0  0  0  0  0  0  0  0  0
   46.6330   34.7530   42.1290 C   0  0  0  0  0  0  0  0  0  0  0  0
   47.4530   33.6450   41.8940 F   0  0  0  0  0  0  0  0  0  0  0  0
   47.4830   35.8390   42.1370 F   0  0  0  0  0  0  0  0  0  0  0  0
   45.7010   34.8030   41.1340 F   0  0  0  0  0  0  0  0  0  0  0  0
   44.7500   36.6770   42.8970 N   0  0  0  0  0  0  0  0  0  0  0  0
   43.8190   36.3147   45.4018 H   0  0  0  0  0  0  0  0  0  0  0  0
   46.0562   32.8858   46.3380 H   0  0  0  0  0  0  0  0  0  0  0  0
   45.1714   36.7217   41.9582 H   0  0  0  0  0  0  0  0  0  0  0  0
   44.0559   37.3818   43.1840 H   0  0  0  0  0  0  0  0  0  0  0  0
  1  6  2  0
  2  1  1  0
  3  2  2  0
  3  4  1  0
  4  5  2  0
  5  6  1  0
  7  9  1  0
  7  3  1  0
  8  7  1  0
 10  7  1  0
 11  2  1  0
  1 12  1  0
  5 13  1  0
 11 14  1  0
 11 15  1  0
M  ISO  2  12  14  13  14
M  END
>  <minimizedAffinity>  (1) 
-4.04725361

>  <minimizedRMSD>  (1) 
0.630260229

$$$$
