
     RDKit          3D

 44 47  0  0  1  0  0  0  0  0999 V2000
   49.2390   31.5720   41.9780 C   0  0  0  0  0  0  0  0  0  0  0  0
   50.4780   32.2630   42.0130 C   0  0  0  0  0  0  0  0  0  0  0  0
   51.4370   32.0540   41.0160 C   0  0  0  0  0  0  0  0  0  0  0  0
   51.1030   31.1730   40.0510 N   0  0  0  0  0  0  0  0  0  0  0  0
   49.9180   30.5230   40.0340 C   0  0  0  0  0  0  0  0  0  0  0  0
   49.0070   30.7150   40.9710 N   0  0  0  0  0  0  0  0  0  0  0  0
   49.6080   29.5760   38.9210 C   0  0  2  0  0  0  0  0  0  0  0  0
   50.2810   29.5970   37.6290 C   0  0  0  0  0  0  0  0  0  0  0  0
   48.9020   30.1030   37.6700 C   0  0  2  0  0  0  0  0  0  0  0  0
   48.5550   31.5250   37.5600 C   0  0  0  0  0  0  0  0  0  0  0  0
   49.3430   32.5750   37.1350 C   0  0  0  0  0  0  0  0  0  0  0  0
   48.9020   33.8770   37.0890 C   0  0  0  0  0  0  0  0  0  0  0  0
   47.6670   34.2000   37.4590 N   0  0  0  0  0  0  0  0  0  0  0  0
   46.8780   33.1820   37.8790 C   0  0  0  0  0  0  0  0  0  0  0  0
   47.2950   31.9040   37.9300 N   0  0  0  0  0  0  0  0  0  0  0  0
   48.2840   31.8430   43.0450 C   0  0  0  0  0  0  0  0  0  0  0  0
   48.0070   33.1230   43.3010 C   0  0  0  0  0  0  0  0  0  0  0  0
   47.0520   33.5180   44.3630 C   0  0  0  0  0  0  0  0  0  0  0  0
   44.7840   36.1450   43.3970 C   0  0  1  0  0  0  0  0  0  0  0  0
   45.9700   35.2810   42.9570 C   0  0  0  0  0  0  0  0  0  0  0  0
   45.7640   34.0800   43.7970 C   0  0  2  0  0  0  0  0  0  0  0  0
   44.8620   34.3740   44.7850 O   0  0  0  0  0  0  0  0  0  0  0  0
   44.6380   35.7150   44.8340 C   0  0  0  0  0  0  0  0  0  0  0  0
   45.0890   37.4890   43.2680 O   0  0  0  0  0  0  0  0  0  0  0  0
   50.6861   32.9687   42.8307 H   0  0  0  0  0  0  0  0  0  0  0  0
   52.4049   32.5766   41.0190 H   0  0  0  0  0  0  0  0  0  0  0  0
   49.4441   28.7938   39.6769 H   0  0  0  0  0  0  0  0  0  0  0  0
   50.4946   28.6486   37.1144 H   0  0  0  0  0  0  0  0  0  0  0  0
   51.2341   30.0176   37.2759 H   0  0  0  0  0  0  0  0  0  0  0  0
   47.9838   29.8820   37.1059 H   0  0  0  0  0  0  0  0  0  0  0  0
   50.3741   32.3603   36.8175 H   0  0  0  0  0  0  0  0  0  0  0  0
   49.5843   34.6658   36.7394 H   0  0  0  0  0  0  0  0  0  0  0  0
   45.8489   33.4110   38.1928 H   0  0  0  0  0  0  0  0  0  0  0  0
   47.8124   31.0284   43.6142 H   0  0  0  0  0  0  0  0  0  0  0  0
   48.5011   33.9063   42.7075 H   0  0  0  0  0  0  0  0  0  0  0  0
   46.8145   32.6334   44.9722 H   0  0  0  0  0  0  0  0  0  0  0  0
   47.5265   34.3056   44.9668 H   0  0  0  0  0  0  0  0  0  0  0  0
   43.8628   36.0202   42.8089 H   0  0  0  0  0  0  0  0  0  0  0  0
   45.9191   35.0391   41.8851 H   0  0  0  0  0  0  0  0  0  0  0  0
   46.9528   35.7597   43.0795 H   0  0  0  0  0  0  0  0  0  0  0  0
   45.3613   33.2826   43.1551 H   0  0  0  0  0  0  0  0  0  0  0  0
   45.3812   36.2154   45.4722 H   0  0  0  0  0  0  0  0  0  0  0  0
   43.6578   35.9718   45.2621 H   0  0  0  0  0  0  0  0  0  0  0  0
   45.1810   37.8942   44.1666 H   0  0  0  0  0  0  0  0  0  0  0  0
  1  2  2  0
  1 16  1  0
  3  2  1  0
  4  3  2  0
  5  4  1  0
  5  6  2  0
  6  1  1  0
  7  5  1  0
  8  9  1  0
  8  7  1  0
  9  7  1  0
 10  9  1  0
 10 15  1  0
 11 10  2  0
 12 11  1  0
 12 13  2  0
 13 14  1  0
 14 15  2  0
 16 17  2  0
 17 18  1  0
 19 23  1  0
 20 19  1  0
 20 21  1  0
 21 18  1  0
 21 22  1  0
 22 23  1  0
 24 19  1  0
  2 25  1  0
  3 26  1  0
  7 27  1  1
  8 28  1  0
  8 29  1  0
  9 30  1  6
 11 31  1  0
 12 32  1  0
 14 33  1  0
 16 34  1  0
 17 35  1  0
 18 36  1  0
 18 37  1  0
 19 38  1  6
 20 39  1  0
 20 40  1  0
 21 41  1  6
 23 42  1  0
 23 43  1  0
 24 44  1  0
M  ISO  8  25  14  26  14  27  13  28  13  29  13  30  13  31  14  32  14
M  ISO  8  33  14  36   8  37   8  38  13  39  13  40  13  41  13  42  13
M  ISO  2  43  13  44   3
M  END
>  <minimizedAffinity>  (1) 
-4.71222115

>  <minimizedRMSD>  (1) 
1.95936882

$$$$
