
     RDKit          3D

 15 15  0  0  0  0  0  0  0  0999 V2000
   44.9630   34.9390   45.0970 C   0  0  0  0  0  0  0  0  0  0  0  0
   45.5070   35.1890   43.8230 C   0  0  0  0  0  0  0  0  0  0  0  0
   46.5500   34.3680   43.3910 C   0  0  0  0  0  0  0  0  0  0  0  0
   46.9770   33.3830   44.2160 N   0  0  0  0  0  0  0  0  0  0  0  0
   46.4320   33.1690   45.4380 C   0  0  0  0  0  0  0  0  0  0  0  0
   45.4340   33.9400   45.8720 N   0  0  0  0  0  0  0  0  0  0  0  0
   47.0690   34.6830   42.0590 C   0  0  0  0  0  0  0  0  0  0  0  0
   48.0630   33.7490   41.7460 F   0  0  0  0  0  0  0  0  0  0  0  0
   47.7280   35.8840   42.1550 F   0  0  0  0  0  0  0  0  0  0  0  0
   46.1260   34.6320   41.0740 F   0  0  0  0  0  0  0  0  0  0  0  0
   44.8960   36.3000   43.1030 C   0  0  0  0  0  0  0  0  0  0  0  0
   45.1870   37.5270   43.2910 O   0  0  0  0  0  0  0  0  0  0  0  0
   44.1403   35.5685   45.4669 H   0  0  0  0  0  0  0  0  0  0  0  0
   46.8139   32.3568   46.0741 H   0  0  0  0  0  0  0  0  0  0  0  0
   44.1328   36.0637   42.3469 H   0  0  0  0  0  0  0  0  0  0  0  0
  1  6  2  0
  2  1  1  0
  3  2  2  0
  3  4  1  0
  4  5  2  0
  5  6  1  0
  7  9  1  0
  7  3  1  0
  8  7  1  0
 10  7  1  0
 11 12  2  0
 11  2  1  0
  1 13  1  0
  5 14  1  0
 11 15  1  0
M  ISO  3  13  14  14  14  15   6
M  END
>  <minimizedAffinity>  (1) 
-3.76576614

>  <minimizedRMSD>  (1) 
0.923067093

$$$$
