
     RDKit          3D

 27 28  0  0  0  0  0  0  0  0999 V2000
   44.9760   34.2700   44.3260 C   0  0  0  0  0  0  0  0  0  0  0  0
   45.6800   33.6020   43.2800 C   0  0  0  0  0  0  0  0  0  0  0  0
   46.7580   32.8200   43.7170 C   0  0  0  0  0  0  0  0  0  0  0  0
   47.0490   32.7500   45.0510 N   0  0  0  0  0  0  0  0  0  0  0  0
   46.3360   33.4100   45.9880 C   0  0  0  0  0  0  0  0  0  0  0  0
   45.2980   34.1710   45.6160 N   0  0  0  0  0  0  0  0  0  0  0  0
   45.2330   33.7760   41.8870 C   0  0  0  0  0  0  0  0  0  0  0  0
   44.0460   32.8860   41.6660 C   0  0  0  0  0  0  0  0  0  0  0  0
   42.7630   33.5720   41.3700 C   0  0  0  0  0  0  0  0  0  0  0  0
   42.6940   34.8650   41.9090 O   0  0  0  0  0  0  0  0  0  0  0  0
   43.6270   35.5980   41.1790 C   0  0  0  0  0  0  0  0  0  0  0  0
   44.9940   35.2340   41.6510 C   0  0  0  0  0  0  0  0  0  0  0  0
   47.4910   32.1220   42.6610 C   0  0  0  0  0  0  0  0  0  0  0  0
   48.6300   31.5320   43.1950 F   0  0  0  0  0  0  0  0  0  0  0  0
   47.9560   33.0750   41.7900 F   0  0  0  0  0  0  0  0  0  0  0  0
   46.7610   31.1240   42.0710 F   0  0  0  0  0  0  0  0  0  0  0  0
   44.1188   34.9027   44.0525 H   0  0  0  0  0  0  0  0  0  0  0  0
   46.6056   33.3235   47.0509 H   0  0  0  0  0  0  0  0  0  0  0  0
   45.9845   33.4708   41.1439 H   0  0  0  0  0  0  0  0  0  0  0  0
   44.2760   32.2227   40.8191 H   0  0  0  0  0  0  0  0  0  0  0  0
   43.8879   32.3611   42.6196 H   0  0  0  0  0  0  0  0  0  0  0  0
   42.6465   33.6410   40.2784 H   0  0  0  0  0  0  0  0  0  0  0  0
   41.9598   32.9800   41.8330 H   0  0  0  0  0  0  0  0  0  0  0  0
   43.4560   36.6736   41.3335 H   0  0  0  0  0  0  0  0  0  0  0  0
   43.5271   35.3713   40.1073 H   0  0  0  0  0  0  0  0  0  0  0  0
   45.7150   35.5763   40.8941 H   0  0  0  0  0  0  0  0  0  0  0  0
   45.1114   35.7192   42.6312 H   0  0  0  0  0  0  0  0  0  0  0  0
  1  6  2  0
  2  3  2  0
  2  1  1  0
  3  4  1  0
  4  5  2  0
  6  5  1  0
  7  2  1  0
  8  7  1  0
  9  8  1  0
  9 10  1  0
 11 12  1  0
 11 10  1  0
 12  7  1  0
 13 14  1  0
 13  3  1  0
 15 13  1  0
 16 13  1  0
  1 17  1  0
  5 18  1  0
  7 19  1  0
  8 20  1  0
  8 21  1  0
  9 22  1  0
  9 23  1  0
 11 24  1  0
 11 25  1  0
 12 26  1  0
 12 27  1  0
M  ISO  8  17  14  18  14  19  13  20  13  21  13  22  13  23  13  24  13
M  ISO  3  25  13  26  13  27  13
M  END
>  <minimizedAffinity>  (1) 
-3.44737983

>  <minimizedRMSD>  (1) 
2.56967521

$$$$
