
     RDKit          3D

 17 17  0  0  0  0  0  0  0  0999 V2000
   44.9000   34.9660   45.0710 C   0  0  0  0  0  0  0  0  0  0  0  0
   45.4080   35.2170   43.7750 C   0  0  0  0  0  0  0  0  0  0  0  0
   46.4810   34.3980   43.3840 C   0  0  0  0  0  0  0  0  0  0  0  0
   46.9560   33.4380   44.2430 N   0  0  0  0  0  0  0  0  0  0  0  0
   46.4170   33.2600   45.4640 C   0  0  0  0  0  0  0  0  0  0  0  0
   45.3980   34.0190   45.8700 N   0  0  0  0  0  0  0  0  0  0  0  0
   47.0240   34.6540   42.0580 C   0  0  0  0  0  0  0  0  0  0  0  0
   48.0250   33.7400   41.7780 F   0  0  0  0  0  0  0  0  0  0  0  0
   47.6930   35.8860   42.1480 F   0  0  0  0  0  0  0  0  0  0  0  0
   46.1280   34.6430   41.0650 F   0  0  0  0  0  0  0  0  0  0  0  0
   44.8620   36.2540   42.8900 C   0  0  0  0  0  0  0  0  0  0  0  0
   44.9900   37.5420   43.4030 O   0  0  0  0  0  0  0  0  0  0  0  0
   44.0603   35.5759   45.4357 H   0  0  0  0  0  0  0  0  0  0  0  0
   46.8197   32.4835   46.1311 H   0  0  0  0  0  0  0  0  0  0  0  0
   43.7937   36.0475   42.7285 H   0  0  0  0  0  0  0  0  0  0  0  0
   45.4384   36.2185   41.9538 H   0  0  0  0  0  0  0  0  0  0  0  0
   44.9863   37.5051   44.3923 H   0  0  0  0  0  0  0  0  0  0  0  0
  1  6  2  0
  2  1  1  0
  3  2  2  0
  3  4  1  0
  4  5  2  0
  5  6  1  0
  7  9  1  0
  7  3  1  0
  8  7  1  0
 10  7  1  0
 11 12  1  0
 11  2  1  0
  1 13  1  0
  5 14  1  0
 11 15  1  0
 11 16  1  0
 12 17  1  0
M  ISO  5  13  14  14  14  15   8  16   8  17   3
M  END
>  <minimizedAffinity>  (1) 
-4.11551046

>  <minimizedRMSD>  (1) 
0.270589322

$$$$
