
     RDKit          3D

 39 41  0  0  1  0  0  0  0  0999 V2000
   48.6260   32.1240   42.8780 C   0  0  0  0  0  0  0  0  0  0  0  0
   48.0010   33.2980   42.9800 C   0  0  0  0  0  0  0  0  0  0  0  0
   49.4880   31.9340   41.7210 C   0  0  0  0  0  0  0  0  0  0  0  0
   50.8870   31.8830   41.9490 C   0  0  0  0  0  0  0  0  0  0  0  0
   51.7750   31.7030   40.8830 C   0  0  0  0  0  0  0  0  0  0  0  0
   51.2220   31.5860   39.6610 N   0  0  0  0  0  0  0  0  0  0  0  0
   49.8850   31.6360   39.4510 C   0  0  0  0  0  0  0  0  0  0  0  0
   49.0620   31.8070   40.4750 N   0  0  0  0  0  0  0  0  0  0  0  0
   49.2930   31.5120   38.0730 C   0  0  2  0  0  0  0  0  0  0  0  0
   50.1260   31.5560   36.8800 C   0  0  0  0  0  0  0  0  0  0  0  0
   49.3130   32.7690   37.1990 C   0  0  1  0  0  0  0  0  0  0  0  0
   48.1290   33.1280   36.3670 C   0  0  0  0  0  0  0  0  0  0  0  0
   47.0980   33.6040   44.1160 C   0  0  0  0  0  0  0  0  0  0  0  0
   44.7350   36.2360   43.4630 C   0  0  1  0  0  0  0  0  0  0  0  0
   45.8970   35.4270   42.8840 C   0  0  0  0  0  0  0  0  0  0  0  0
   45.7720   34.1740   43.6590 C   0  0  2  0  0  0  0  0  0  0  0  0
   44.9300   34.3880   44.7200 O   0  0  0  0  0  0  0  0  0  0  0  0
   44.7080   35.7220   44.8800 C   0  0  0  0  0  0  0  0  0  0  0  0
   44.9930   37.5920   43.3890 O   0  0  0  0  0  0  0  0  0  0  0  0
   48.4958   31.3355   43.6339 H   0  0  0  0  0  0  0  0  0  0  0  0
   48.1594   34.0588   42.2015 H   0  0  0  0  0  0  0  0  0  0  0  0
   51.2770   31.9858   42.9724 H   0  0  0  0  0  0  0  0  0  0  0  0
   52.8636   31.6595   41.0347 H   0  0  0  0  0  0  0  0  0  0  0  0
   48.5420   30.7956   38.4373 H   0  0  0  0  0  0  0  0  0  0  0  0
   49.8607   30.9381   36.0095 H   0  0  0  0  0  0  0  0  0  0  0  0
   51.1955   31.3830   36.6897 H   0  0  0  0  0  0  0  0  0  0  0  0
   49.5154   33.8392   37.3533 H   0  0  0  0  0  0  0  0  0  0  0  0
   47.2840   33.3842   37.0230 H   0  0  0  0  0  0  0  0  0  0  0  0
   48.3753   33.9918   35.7321 H   0  0  0  0  0  0  0  0  0  0  0  0
   47.8541   32.2728   35.7321 H   0  0  0  0  0  0  0  0  0  0  0  0
   46.9098   32.6772   44.6778 H   0  0  0  0  0  0  0  0  0  0  0  0
   47.5913   34.3611   44.7433 H   0  0  0  0  0  0  0  0  0  0  0  0
   43.7752   36.1211   42.9380 H   0  0  0  0  0  0  0  0  0  0  0  0
   45.7705   35.2508   41.8056 H   0  0  0  0  0  0  0  0  0  0  0  0
   46.8787   35.9169   42.9635 H   0  0  0  0  0  0  0  0  0  0  0  0
   45.3505   33.4111   42.9880 H   0  0  0  0  0  0  0  0  0  0  0  0
   45.5007   36.1860   45.4852 H   0  0  0  0  0  0  0  0  0  0  0  0
   43.7697   35.9476   45.4079 H   0  0  0  0  0  0  0  0  0  0  0  0
   45.0639   37.9648   44.3034 H   0  0  0  0  0  0  0  0  0  0  0  0
  1  2  2  0
  2 13  1  0
  3  4  2  0
  3  1  1  0
  5  4  1  0
  6  5  2  0
  7  6  1  0
  7  8  2  0
  8  3  1  0
  9  7  1  0
 10 11  1  0
 10  9  1  0
 11  9  1  0
 12 11  1  0
 14 18  1  0
 15 14  1  0
 15 16  1  0
 16 13  1  0
 16 17  1  0
 17 18  1  0
 19 14  1  0
  1 20  1  0
  2 21  1  0
  4 22  1  0
  5 23  1  0
  9 24  1  1
 10 25  1  0
 10 26  1  0
 11 27  1  1
 12 28  1  0
 12 29  1  0
 12 30  1  0
 13 31  1  0
 13 32  1  0
 14 33  1  6
 15 34  1  0
 15 35  1  0
 16 36  1  6
 18 37  1  0
 18 38  1  0
 19 39  1  0
M  ISO  8  22  14  23  14  24  13  25  13  26  13  27  13  28   8  29   8
M  ISO  8  30   8  31   8  32   8  33  13  34  13  35  13  36  13  37  13
M  ISO  2  38  13  39   3
M  END
>  <minimizedAffinity>  (1) 
-4.6104188

>  <minimizedRMSD>  (1) 
0.0727858096

$$$$
