
     RDKit          3D

 18 18  0  0  0  0  0  0  0  0999 V2000
   44.9340   34.9120   45.0660 C   0  0  0  0  0  0  0  0  0  0  0  0
   45.4360   35.1740   43.7750 C   0  0  0  0  0  0  0  0  0  0  0  0
   46.5120   34.3890   43.3520 C   0  0  0  0  0  0  0  0  0  0  0  0
   47.0150   33.4320   44.1870 N   0  0  0  0  0  0  0  0  0  0  0  0
   46.4990   33.2230   45.4100 C   0  0  0  0  0  0  0  0  0  0  0  0
   45.4560   33.9640   45.8500 N   0  0  0  0  0  0  0  0  0  0  0  0
   47.0210   34.6670   42.0010 C   0  0  0  0  0  0  0  0  0  0  0  0
   47.9550   33.7000   41.6600 F   0  0  0  0  0  0  0  0  0  0  0  0
   47.7120   35.8630   42.0930 F   0  0  0  0  0  0  0  0  0  0  0  0
   46.0630   34.6770   41.0520 F   0  0  0  0  0  0  0  0  0  0  0  0
   44.8560   36.2190   42.9130 C   0  0  0  0  0  0  0  0  0  0  0  0
   44.9830   37.5190   43.5520 N   0  0  0  0  0  0  0  0  0  0  0  0
   44.0868   35.5060   45.4394 H   0  0  0  0  0  0  0  0  0  0  0  0
   46.9275   32.4441   46.0579 H   0  0  0  0  0  0  0  0  0  0  0  0
   43.7918   36.0001   42.7412 H   0  0  0  0  0  0  0  0  0  0  0  0
   45.3937   36.2346   41.9535 H   0  0  0  0  0  0  0  0  0  0  0  0
   44.9715   37.4012   44.5752 H   0  0  0  0  0  0  0  0  0  0  0  0
   45.8707   37.9565   43.2667 H   0  0  0  0  0  0  0  0  0  0  0  0
  1  6  2  0
  2  1  1  0
  3  2  2  0
  3  4  1  0
  4  5  2  0
  5  6  1  0
  7  9  1  0
  7  3  1  0
  8  7  1  0
 10  7  1  0
 11 12  1  0
 11  2  1  0
  1 13  1  0
  5 14  1  0
 11 15  1  0
 11 16  1  0
 12 17  1  0
 12 18  1  0
M  ISO  6  13  14  14  14  15   8  16   8  17   5  18   5
M  END
>  <minimizedAffinity>  (1) 
-4.08296156

>  <minimizedRMSD>  (1) 
0.374308914

$$$$
