
     RDKit          3D

 20 20  0  0  0  0  0  0  0  0999 V2000
   44.9870   34.8760   45.6060 C   0  0  0  0  0  0  0  0  0  0  0  0
   45.2510   35.3440   44.2890 C   0  0  0  0  0  0  0  0  0  0  0  0
   45.8990   34.4330   43.4630 C   0  0  0  0  0  0  0  0  0  0  0  0
   46.2450   33.1800   43.9210 N   0  0  0  0  0  0  0  0  0  0  0  0
   45.9560   32.8130   45.1950 C   0  0  0  0  0  0  0  0  0  0  0  0
   45.3350   33.6530   46.0240 N   0  0  0  0  0  0  0  0  0  0  0  0
   46.1880   34.8880   42.1040 C   0  0  0  0  0  0  0  0  0  0  0  0
   46.7680   33.8660   41.3740 F   0  0  0  0  0  0  0  0  0  0  0  0
   47.1830   35.8640   42.2200 F   0  0  0  0  0  0  0  0  0  0  0  0
   45.1240   35.3500   41.4340 F   0  0  0  0  0  0  0  0  0  0  0  0
   44.8590   36.6770   43.8360 C   0  0  0  0  0  0  0  0  0  0  0  0
   45.2520   39.0440   44.4030 C   0  0  0  0  0  0  0  0  0  0  0  0
   45.5850   39.3070   43.2180 O   0  0  0  0  0  0  0  0  0  0  0  0
   44.8610   37.7180   44.8170 N   0  0  0  0  0  0  0  0  0  0  0  0
   44.4751   35.5477   46.3109 H   0  0  0  0  0  0  0  0  0  0  0  0
   46.2375   31.8101   45.5484 H   0  0  0  0  0  0  0  0  0  0  0  0
   45.5520   36.9734   43.0348 H   0  0  0  0  0  0  0  0  0  0  0  0
   43.8089   36.5777   43.5238 H   0  0  0  0  0  0  0  0  0  0  0  0
   45.2593   39.8527   45.1487 H   0  0  0  0  0  0  0  0  0  0  0  0
   44.5907   37.5264   45.7923 H   0  0  0  0  0  0  0  0  0  0  0  0
  1  6  2  0
  2  1  1  0
  3  4  1  0
  3  2  2  0
  4  5  2  0
  5  6  1  0
  7  9  1  0
  7  3  1  0
  8  7  1  0
 10  7  1  0
 11  2  1  0
 11 14  1  0
 12 14  1  0
 13 12  2  0
  1 15  1  0
  5 16  1  0
 11 17  1  0
 11 18  1  0
 12 19  1  0
 14 20  1  0
M  ISO  5  15  14  16  14  17   8  18   8  19   6
M  END
>  <minimizedAffinity>  (1) 
-3.64567852

>  <minimizedRMSD>  (1) 
1.48727417

$$$$
