
     RDKit          3D

 21 21  0  0  0  0  0  0  0  0999 V2000
   44.7140   35.4390   45.4560 C   0  0  0  0  0  0  0  0  0  0  0  0
   45.1740   35.6770   44.1560 C   0  0  0  0  0  0  0  0  0  0  0  0
   45.8840   34.6470   43.5550 C   0  0  0  0  0  0  0  0  0  0  0  0
   46.0970   33.4840   44.2430 N   0  0  0  0  0  0  0  0  0  0  0  0
   45.6400   33.2980   45.4870 C   0  0  0  0  0  0  0  0  0  0  0  0
   44.9450   34.2810   46.0980 N   0  0  0  0  0  0  0  0  0  0  0  0
   46.3500   34.9080   42.1910 C   0  0  0  0  0  0  0  0  0  0  0  0
   47.0180   33.7810   41.7060 F   0  0  0  0  0  0  0  0  0  0  0  0
   47.2990   35.8910   42.2780 F   0  0  0  0  0  0  0  0  0  0  0  0
   45.3320   35.1700   41.3310 F   0  0  0  0  0  0  0  0  0  0  0  0
   44.9190   36.9510   43.4850 C   0  0  0  0  0  0  0  0  0  0  0  0
   45.0360   38.0360   44.4700 N   0  0  0  0  0  0  0  0  0  0  0  0
   45.3550   39.2890   43.8140 C   0  0  0  0  0  0  0  0  0  0  0  0
   46.7300   39.4460   43.7510 F   0  0  0  0  0  0  0  0  0  0  0  0
   44.8760   40.3240   44.5770 F   0  0  0  0  0  0  0  0  0  0  0  0
   44.8700   39.3250   42.5240 F   0  0  0  0  0  0  0  0  0  0  0  0
   44.1438   36.2267   45.9701 H   0  0  0  0  0  0  0  0  0  0  0  0
   45.8298   32.3486   46.0092 H   0  0  0  0  0  0  0  0  0  0  0  0
   45.6555   37.0998   42.6816 H   0  0  0  0  0  0  0  0  0  0  0  0
   43.9090   36.9487   43.0492 H   0  0  0  0  0  0  0  0  0  0  0  0
   44.1423   38.1349   44.9723 H   0  0  0  0  0  0  0  0  0  0  0  0
  1  6  2  0
  2  1  1  0
  3  2  2  0
  3  4  1  0
  4  5  2  0
  5  6  1  0
  7  9  1  0
  7  3  1  0
  8  7  1  0
 10  7  1  0
 11  2  1  0
 11 12  1  0
 13 12  1  0
 13 15  1  0
 14 13  1  0
 16 13  1  0
  1 17  1  0
  5 18  1  0
 11 19  1  0
 11 20  1  0
 12 21  1  0
M  ISO  5  17  14  18  14  19   8  20   8  21   5
M  END
>  <minimizedAffinity>  (1) 
-4.22048759

>  <minimizedRMSD>  (1) 
1.17529464

$$$$
