
     RDKit          3D

 21 21  0  0  0  0  0  0  0  0999 V2000
   45.0270   34.9090   45.2580 C   0  0  0  0  0  0  0  0  0  0  0  0
   45.4760   35.2370   43.9590 C   0  0  0  0  0  0  0  0  0  0  0  0
   46.3690   34.3500   43.3810 C   0  0  0  0  0  0  0  0  0  0  0  0
   46.7700   33.2390   44.0500 N   0  0  0  0  0  0  0  0  0  0  0  0
   46.3220   32.9590   45.2840 C   0  0  0  0  0  0  0  0  0  0  0  0
   45.4470   33.7950   45.8920 N   0  0  0  0  0  0  0  0  0  0  0  0
   46.8020   34.7220   42.0250 C   0  0  0  0  0  0  0  0  0  0  0  0
   47.6430   33.7200   41.5350 F   0  0  0  0  0  0  0  0  0  0  0  0
   47.5790   35.8390   42.1450 F   0  0  0  0  0  0  0  0  0  0  0  0
   45.7680   34.8270   41.1530 F   0  0  0  0  0  0  0  0  0  0  0  0
   44.9890   36.4450   43.3370 C   0  0  0  0  0  0  0  0  0  0  0  0
   44.9440   37.5520   44.3060 N   0  0  0  0  0  0  0  0  0  0  0  0
   45.4040   38.7310   43.6210 C   0  0  0  0  0  0  0  0  0  0  0  0
   44.3171   35.5790   45.7650 H   0  0  0  0  0  0  0  0  0  0  0  0
   46.6654   32.0509   45.8012 H   0  0  0  0  0  0  0  0  0  0  0  0
   45.6584   36.7186   42.5081 H   0  0  0  0  0  0  0  0  0  0  0  0
   43.9706   36.2626   42.9635 H   0  0  0  0  0  0  0  0  0  0  0  0
   43.9795   37.6907   44.6398 H   0  0  0  0  0  0  0  0  0  0  0  0
   45.7006   39.4913   44.3585 H   0  0  0  0  0  0  0  0  0  0  0  0
   46.2682   38.4750   42.9904 H   0  0  0  0  0  0  0  0  0  0  0  0
   44.5948   39.1279   42.9904 H   0  0  0  0  0  0  0  0  0  0  0  0
  1  6  2  0
  2  1  1  0
  3  2  2  0
  3  4  1  0
  4  5  2  0
  5  6  1  0
  7  9  1  0
  7  3  1  0
  8  7  1  0
 10  7  1  0
 11  2  1  0
 11 12  1  0
 13 12  1  0
  1 14  1  0
  5 15  1  0
 11 16  1  0
 11 17  1  0
 12 18  1  0
 13 19  1  0
 13 20  1  0
 13 21  1  0
M  ISO  8  14  14  15  14  16   8  17   8  18   5  19   8  20   8  21   8
M  END
>  <minimizedAffinity>  (1) 
-3.70072794

>  <minimizedRMSD>  (1) 
0.509362757

$$$$
