
     RDKit          3D

 37 39  0  0  1  0  0  0  0  0999 V2000
   48.6120   32.1410   42.8980 C   0  0  0  0  0  0  0  0  0  0  0  0
   47.9630   33.3000   43.0040 C   0  0  0  0  0  0  0  0  0  0  0  0
   49.4690   31.9530   41.7290 C   0  0  0  0  0  0  0  0  0  0  0  0
   50.8650   31.8800   41.9370 C   0  0  0  0  0  0  0  0  0  0  0  0
   51.7350   31.7090   40.8600 C   0  0  0  0  0  0  0  0  0  0  0  0
   51.1530   31.6210   39.6430 N   0  0  0  0  0  0  0  0  0  0  0  0
   49.8150   31.6930   39.4580 C   0  0  0  0  0  0  0  0  0  0  0  0
   48.9990   31.8550   40.4800 N   0  0  0  0  0  0  0  0  0  0  0  0
   49.2230   31.6010   38.0760 C   0  0  2  0  0  0  0  0  0  0  0  0
   50.0450   31.6490   36.8730 C   0  0  0  0  0  0  0  0  0  0  0  0
   49.2460   32.8660   37.2100 C   0  0  1  0  0  0  0  0  0  0  0  0
   48.1630   33.1470   36.4140 O   0  0  0  0  0  0  0  0  0  0  0  0
   47.0690   33.5940   44.1490 C   0  0  0  0  0  0  0  0  0  0  0  0
   44.7250   36.2400   43.4680 C   0  0  1  0  0  0  0  0  0  0  0  0
   45.8750   35.4040   42.8990 C   0  0  0  0  0  0  0  0  0  0  0  0
   45.7360   34.1670   43.7020 C   0  0  2  0  0  0  0  0  0  0  0  0
   44.9060   34.4150   44.7650 O   0  0  0  0  0  0  0  0  0  0  0  0
   44.7120   35.7590   44.9000 C   0  0  0  0  0  0  0  0  0  0  0  0
   45.0040   37.5880   43.3560 O   0  0  0  0  0  0  0  0  0  0  0  0
   48.5068   31.3558   43.6611 H   0  0  0  0  0  0  0  0  0  0  0  0
   48.0945   34.0599   42.2196 H   0  0  0  0  0  0  0  0  0  0  0  0
   51.2691   31.9587   42.9571 H   0  0  0  0  0  0  0  0  0  0  0  0
   52.8254   31.6495   40.9926 H   0  0  0  0  0  0  0  0  0  0  0  0
   48.4694   30.8884   38.4424 H   0  0  0  0  0  0  0  0  0  0  0  0
   49.7656   31.0408   36.0001 H   0  0  0  0  0  0  0  0  0  0  0  0
   51.1111   31.4688   36.6703 H   0  0  0  0  0  0  0  0  0  0  0  0
   49.4460   33.9328   37.3887 H   0  0  0  0  0  0  0  0  0  0  0  0
   47.3790   33.3504   36.9832 H   0  0  0  0  0  0  0  0  0  0  0  0
   46.8860   32.6622   44.7042 H   0  0  0  0  0  0  0  0  0  0  0  0
   47.5651   34.3452   44.7812 H   0  0  0  0  0  0  0  0  0  0  0  0
   43.7561   36.1254   42.9599 H   0  0  0  0  0  0  0  0  0  0  0  0
   45.7411   35.2076   41.8250 H   0  0  0  0  0  0  0  0  0  0  0  0
   46.8635   35.8823   42.9632 H   0  0  0  0  0  0  0  0  0  0  0  0
   45.2908   33.3915   43.0613 H   0  0  0  0  0  0  0  0  0  0  0  0
   45.5237   36.2208   45.4813 H   0  0  0  0  0  0  0  0  0  0  0  0
   43.7880   36.0154   45.4390 H   0  0  0  0  0  0  0  0  0  0  0  0
   45.0860   37.9842   44.2595 H   0  0  0  0  0  0  0  0  0  0  0  0
  1  2  2  0
  2 13  1  0
  3  4  2  0
  3  1  1  0
  5  4  1  0
  6  5  2  0
  7  6  1  0
  7  8  2  0
  8  3  1  0
  9  7  1  0
 10 11  1  0
 10  9  1  0
 11  9  1  0
 12 11  1  0
 14 18  1  0
 15 14  1  0
 15 16  1  0
 16 13  1  0
 16 17  1  0
 17 18  1  0
 19 14  1  0
  1 20  1  0
  2 21  1  0
  4 22  1  0
  5 23  1  0
  9 24  1  1
 10 25  1  0
 10 26  1  0
 11 27  1  1
 12 28  1  0
 13 29  1  0
 13 30  1  0
 14 31  1  6
 15 32  1  0
 15 33  1  0
 16 34  1  6
 18 35  1  0
 18 36  1  0
 19 37  1  0
M  ISO  8  22  14  23  14  24  13  25  13  26  13  27  13  28   3  29   8
M  ISO  8  30   8  31  13  32  13  33  13  34  13  35  13  36  13  37   3
M  END
>  <minimizedAffinity>  (1) 
-4.57611179

>  <minimizedRMSD>  (1) 
0.0323125944

$$$$
