
     RDKit          3D

 25 25  0  0  0  0  0  0  0  0999 V2000
   45.0120   36.5180   43.4170 C   0  0  0  0  0  0  0  0  0  0  0  0
   45.0440   34.9200   45.2850 C   0  0  0  0  0  0  0  0  0  0  0  0
   45.4660   35.2700   44.0110 C   0  0  0  0  0  0  0  0  0  0  0  0
   46.3110   34.3770   43.3800 C   0  0  0  0  0  0  0  0  0  0  0  0
   46.7000   33.2150   43.9980 N   0  0  0  0  0  0  0  0  0  0  0  0
   46.2510   32.9350   45.2470 C   0  0  0  0  0  0  0  0  0  0  0  0
   45.4180   33.7880   45.9000 N   0  0  0  0  0  0  0  0  0  0  0  0
   46.7470   34.7680   42.0240 C   0  0  0  0  0  0  0  0  0  0  0  0
   47.5390   33.7500   41.4930 F   0  0  0  0  0  0  0  0  0  0  0  0
   47.5230   35.8800   42.1560 F   0  0  0  0  0  0  0  0  0  0  0  0
   45.6810   34.8890   41.1770 F   0  0  0  0  0  0  0  0  0  0  0  0
   44.7750   37.5080   44.4720 N   0  0  0  0  0  0  0  0  0  0  0  0
   45.3600   38.7440   43.9900 C   0  0  0  0  0  0  0  0  0  0  0  0
   45.4130   39.8270   45.0380 C   0  0  0  0  0  0  0  0  0  0  0  0
   44.5630   40.8530   44.6970 O   0  0  0  0  0  0  0  0  0  0  0  0
   45.7807   36.8957   42.7267 H   0  0  0  0  0  0  0  0  0  0  0  0
   44.0767   36.3409   42.8658 H   0  0  0  0  0  0  0  0  0  0  0  0
   44.3685   35.6053   45.8180 H   0  0  0  0  0  0  0  0  0  0  0  0
   46.5659   32.0030   45.7392 H   0  0  0  0  0  0  0  0  0  0  0  0
   43.7645   37.6275   44.6317 H   0  0  0  0  0  0  0  0  0  0  0  0
   46.3855   38.5359   43.6507 H   0  0  0  0  0  0  0  0  0  0  0  0
   44.7200   39.1110   43.1741 H   0  0  0  0  0  0  0  0  0  0  0  0
   45.1089   39.4094   46.0092 H   0  0  0  0  0  0  0  0  0  0  0  0
   46.4399   40.2156   45.1043 H   0  0  0  0  0  0  0  0  0  0  0  0
   44.2114   41.2774   45.5194 H   0  0  0  0  0  0  0  0  0  0  0  0
  1  3  1  0
  1 12  1  0
  2  7  2  0
  3  2  1  0
  4  5  1  0
  4  3  2  0
  5  6  2  0
  6  7  1  0
  8 10  1  0
  8  4  1  0
  9  8  1  0
 11  8  1  0
 13 12  1  0
 13 14  1  0
 15 14  1  0
  1 16  1  0
  1 17  1  0
  2 18  1  0
  6 19  1  0
 12 20  1  0
 13 21  1  0
 13 22  1  0
 14 23  1  0
 14 24  1  0
 15 25  1  0
M  ISO  8  16   8  17   8  18  14  19  14  20   5  21   8  22   8  23   8
M  ISO  2  24   8  25   3
M  END
>  <minimizedAffinity>  (1) 
-4.35573292

>  <minimizedRMSD>  (1) 
0.315819114

$$$$
