
     RDKit          3D

 43 46  0  0  1  0  0  0  0  0999 V2000
   48.6380   32.0670   43.0100 C   0  0  0  0  0  0  0  0  0  0  0  0
   47.9260   33.1830   43.1650 C   0  0  0  0  0  0  0  0  0  0  0  0
   49.4260   31.9360   41.7860 C   0  0  0  0  0  0  0  0  0  0  0  0
   50.8350   31.8570   41.9230 C   0  0  0  0  0  0  0  0  0  0  0  0
   51.6500   31.7380   40.7930 C   0  0  0  0  0  0  0  0  0  0  0  0
   51.0050   31.7060   39.6020 N   0  0  0  0  0  0  0  0  0  0  0  0
   49.6590   31.7820   39.4950 C   0  0  0  0  0  0  0  0  0  0  0  0
   48.8830   31.8950   40.5600 N   0  0  0  0  0  0  0  0  0  0  0  0
   48.9980   31.7560   38.1400 C   0  0  2  0  0  0  0  0  0  0  0  0
   49.2670   32.7650   37.1240 C   0  0  0  0  0  0  0  0  0  0  0  0
   47.9550   32.8360   37.8320 C   0  0  1  0  0  0  0  0  0  0  0  0
   46.7170   32.3090   37.1450 C   0  0  0  0  0  0  0  0  0  0  0  0
   45.4300   32.2940   37.8900 C   0  0  0  0  0  0  0  0  0  0  0  0
   45.6560   33.2660   36.8050 C   0  0  0  0  0  0  0  0  0  0  0  0
   47.0920   33.4210   44.3650 C   0  0  0  0  0  0  0  0  0  0  0  0
   44.6080   35.9550   43.7560 C   0  0  1  0  0  0  0  0  0  0  0  0
   45.7410   35.1330   43.1360 C   0  0  0  0  0  0  0  0  0  0  0  0
   45.7070   33.9260   44.0040 C   0  0  2  0  0  0  0  0  0  0  0  0
   44.9640   34.2020   45.1220 O   0  0  0  0  0  0  0  0  0  0  0  0
   44.7010   35.5330   45.1990 C   0  0  0  0  0  0  0  0  0  0  0  0
   44.8400   37.3080   43.5770 O   0  0  0  0  0  0  0  0  0  0  0  0
   48.6328   31.2753   43.7736 H   0  0  0  0  0  0  0  0  0  0  0  0
   47.9590   33.9504   42.3776 H   0  0  0  0  0  0  0  0  0  0  0  0
   51.2897   31.8895   42.9241 H   0  0  0  0  0  0  0  0  0  0  0  0
   52.7457   31.6744   40.8664 H   0  0  0  0  0  0  0  0  0  0  0  0
   49.0427   30.6569   38.1397 H   0  0  0  0  0  0  0  0  0  0  0  0
   49.2964   32.4732   36.0638 H   0  0  0  0  0  0  0  0  0  0  0  0
   50.0844   33.4826   36.9601 H   0  0  0  0  0  0  0  0  0  0  0  0
   47.4171   33.6363   38.3613 H   0  0  0  0  0  0  0  0  0  0  0  0
   47.3008   31.5565   36.5947 H   0  0  0  0  0  0  0  0  0  0  0  0
   44.7208   31.4651   37.7489 H   0  0  0  0  0  0  0  0  0  0  0  0
   45.1399   32.3592   38.9490 H   0  0  0  0  0  0  0  0  0  0  0  0
   45.7833   34.3325   37.0424 H   0  0  0  0  0  0  0  0  0  0  0  0
   45.1214   33.5325   35.8813 H   0  0  0  0  0  0  0  0  0  0  0  0
   46.9921   32.4771   44.9209 H   0  0  0  0  0  0  0  0  0  0  0  0
   47.5863   34.1916   44.9748 H   0  0  0  0  0  0  0  0  0  0  0  0
   43.6114   35.7902   43.3204 H   0  0  0  0  0  0  0  0  0  0  0  0
   45.5334   34.8833   42.0850 H   0  0  0  0  0  0  0  0  0  0  0  0
   46.7136   35.6457   43.1020 H   0  0  0  0  0  0  0  0  0  0  0  0
   45.2346   33.1087   43.4394 H   0  0  0  0  0  0  0  0  0  0  0  0
   45.5145   36.0658   45.7132 H   0  0  0  0  0  0  0  0  0  0  0  0
   43.7891   35.7580   45.7716 H   0  0  0  0  0  0  0  0  0  0  0  0
   44.9157   37.7495   44.4599 H   0  0  0  0  0  0  0  0  0  0  0  0
  1  2  2  0
  2 15  1  0
  3  4  2  0
  3  1  1  0
  5  4  1  0
  6  5  2  0
  7  6  1  0
  7  8  2  0
  8  3  1  0
  9  7  1  0
 10 11  1  0
 10  9  1  0
 11  9  1  0
 12 11  1  0
 12 13  1  0
 14 12  1  0
 14 13  1  0
 16 20  1  0
 17 16  1  0
 17 18  1  0
 18 15  1  0
 18 19  1  0
 19 20  1  0
 21 16  1  0
  1 22  1  0
  2 23  1  0
  4 24  1  0
  5 25  1  0
  9 26  1  6
 10 27  1  0
 10 28  1  0
 11 29  1  1
 12 30  1  0
 13 31  1  0
 13 32  1  0
 14 33  1  0
 14 34  1  0
 15 35  1  0
 15 36  1  0
 16 37  1  6
 17 38  1  0
 17 39  1  0
 18 40  1  6
 20 41  1  0
 20 42  1  0
 21 43  1  0
M  ISO  8  24  14  25  14  26  13  27  13  28  13  29  13  30  13  31  13
M  ISO  8  32  13  33  13  34  13  35   8  36   8  37  13  38  13  39  13
M  ISO  4  40  13  41  13  42  13  43   3
M  END
>  <minimizedAffinity>  (1) 
-4.56307316

>  <minimizedRMSD>  (1) 
0.768020213

$$$$
