
     RDKit          3D

 48 51  0  0  1  0  0  0  0  0999 V2000
   49.3510   31.6130   42.1270 C   0  0  0  0  0  0  0  0  0  0  0  0
   50.6240   32.2390   42.1810 C   0  0  0  0  0  0  0  0  0  0  0  0
   51.5610   32.0490   41.1630 C   0  0  0  0  0  0  0  0  0  0  0  0
   51.1740   31.2460   40.1520 N   0  0  0  0  0  0  0  0  0  0  0  0
   49.9660   30.6610   40.1170 C   0  0  0  0  0  0  0  0  0  0  0  0
   49.0810   30.8450   41.0860 N   0  0  0  0  0  0  0  0  0  0  0  0
   49.5670   29.7930   38.9460 C   0  0  2  0  0  0  0  0  0  0  0  0
   50.1600   29.9430   37.6240 C   0  0  0  0  0  0  0  0  0  0  0  0
   48.7560   30.3930   37.8300 C   0  0  2  0  0  0  0  0  0  0  0  0
   48.5010   31.7900   37.9030 N   0  0  0  0  0  0  0  0  0  0  0  0
   49.2460   32.5530   36.9260 C   0  0  0  0  0  0  0  0  0  0  0  0
   48.2650   33.2380   36.0500 C   0  0  0  0  0  0  0  0  0  0  0  0
   47.0720   33.4290   36.9730 C   0  0  0  0  0  0  0  0  0  0  0  0
   47.1340   32.1930   37.8800 C   0  0  0  0  0  0  0  0  0  0  0  0
   48.4210   31.8810   43.2170 C   0  0  0  0  0  0  0  0  0  0  0  0
   47.9560   33.1260   43.3300 C   0  0  0  0  0  0  0  0  0  0  0  0
   47.0070   33.5140   44.4020 C   0  0  0  0  0  0  0  0  0  0  0  0
   44.7760   36.1630   43.4330 C   0  0  1  0  0  0  0  0  0  0  0  0
   45.9440   35.2750   42.9890 C   0  0  0  0  0  0  0  0  0  0  0  0
   45.7200   34.0850   43.8460 C   0  0  2  0  0  0  0  0  0  0  0  0
   44.8360   34.4070   44.8400 O   0  0  0  0  0  0  0  0  0  0  0  0
   44.6440   35.7560   44.8770 C   0  0  0  0  0  0  0  0  0  0  0  0
   45.1060   37.4980   43.2760 O   0  0  0  0  0  0  0  0  0  0  0  0
   50.8759   32.8827   43.0367 H   0  0  0  0  0  0  0  0  0  0  0  0
   52.5525   32.5248   41.1849 H   0  0  0  0  0  0  0  0  0  0  0  0
   49.4627   28.9432   39.6366 H   0  0  0  0  0  0  0  0  0  0  0  0
   50.3635   29.0516   37.0125 H   0  0  0  0  0  0  0  0  0  0  0  0
   51.0729   30.4218   37.2401 H   0  0  0  0  0  0  0  0  0  0  0  0
   47.7909   30.1846   37.3450 H   0  0  0  0  0  0  0  0  0  0  0  0
   49.8788   33.2960   37.4334 H   0  0  0  0  0  0  0  0  0  0  0  0
   49.8972   31.8926   36.3346 H   0  0  0  0  0  0  0  0  0  0  0  0
   48.6539   34.2051   35.6986 H   0  0  0  0  0  0  0  0  0  0  0  0
   48.0254   32.6736   35.1367 H   0  0  0  0  0  0  0  0  0  0  0  0
   47.1702   34.3546   37.5592 H   0  0  0  0  0  0  0  0  0  0  0  0
   46.1179   33.5227   36.4335 H   0  0  0  0  0  0  0  0  0  0  0  0
   46.7932   32.4462   38.8947 H   0  0  0  0  0  0  0  0  0  0  0  0
   46.4831   31.3879   37.5085 H   0  0  0  0  0  0  0  0  0  0  0  0
   48.1154   31.0895   43.9171 H   0  0  0  0  0  0  0  0  0  0  0  0
   48.2858   33.8870   42.6074 H   0  0  0  0  0  0  0  0  0  0  0  0
   46.7692   32.6245   45.0039 H   0  0  0  0  0  0  0  0  0  0  0  0
   47.4867   34.2933   45.0124 H   0  0  0  0  0  0  0  0  0  0  0  0
   43.8418   36.0453   42.8642 H   0  0  0  0  0  0  0  0  0  0  0  0
   45.8795   35.0236   41.9201 H   0  0  0  0  0  0  0  0  0  0  0  0
   46.9369   35.7363   43.0957 H   0  0  0  0  0  0  0  0  0  0  0  0
   45.2906   33.2870   43.2225 H   0  0  0  0  0  0  0  0  0  0  0  0
   45.4094   36.2464   45.4964 H   0  0  0  0  0  0  0  0  0  0  0  0
   43.6781   36.0419   45.3189 H   0  0  0  0  0  0  0  0  0  0  0  0
   45.2101   37.9191   44.1659 H   0  0  0  0  0  0  0  0  0  0  0  0
  1  2  2  0
  1 15  1  0
  3  2  1  0
  4  3  2  0
  5  4  1  0
  5  6  2  0
  6  1  1  0
  7  5  1  0
  8  9  1  0
  8  7  1  0
  9 10  1  0
  9  7  1  0
 10 11  1  0
 12 11  1  0
 12 13  1  0
 13 14  1  0
 14 10  1  0
 15 16  2  0
 16 17  1  0
 18 22  1  0
 19 18  1  0
 19 20  1  0
 20 17  1  0
 20 21  1  0
 21 22  1  0
 23 18  1  0
  2 24  1  0
  3 25  1  0
  7 26  1  1
  8 27  1  0
  8 28  1  0
  9 29  1  6
 11 30  1  0
 11 31  1  0
 12 32  1  0
 12 33  1  0
 13 34  1  0
 13 35  1  0
 14 36  1  0
 14 37  1  0
 15 38  1  0
 16 39  1  0
 17 40  1  0
 17 41  1  0
 18 42  1  6
 19 43  1  0
 19 44  1  0
 20 45  1  6
 22 46  1  0
 22 47  1  0
 23 48  1  0
M  ISO  8  24  14  25  14  26  13  27  13  28  13  29  13  30  13  31  13
M  ISO  8  32  13  33  13  34  13  35  13  36  13  37  13  40   8  41   8
M  ISO  7  42  13  43  13  44  13  45  13  46  13  47  13  48   3
M  END
>  <minimizedAffinity>  (1) 
-4.48930931

>  <minimizedRMSD>  (1) 
1.76835907

$$$$
