
     RDKit          3D

 42 45  0  0  0  0  0  0  0  0999 V2000
   42.9710   31.7520   41.4990 F   0  0  0  0  0  0  0  0  0  0  0  0
   43.2130   33.0670   41.5060 C   0  0  0  0  0  0  0  0  0  0  0  0
   44.3000   33.5300   42.1910 C   0  0  0  0  0  0  0  0  0  0  0  0
   44.5830   34.9040   42.2330 C   0  0  0  0  0  0  0  0  0  0  0  0
   43.7720   35.8150   41.5850 C   0  0  0  0  0  0  0  0  0  0  0  0
   42.6850   35.3160   40.9030 C   0  0  0  0  0  0  0  0  0  0  0  0
   42.3920   33.9700   40.8510 C   0  0  0  0  0  0  0  0  0  0  0  0
   46.2090   31.9020   44.6680 C   0  0  0  0  0  0  0  0  0  0  0  0
   46.7220   31.3190   43.5060 C   0  0  0  0  0  0  0  0  0  0  0  0
   46.0920   31.8350   42.4240 C   0  0  0  0  0  0  0  0  0  0  0  0
   45.2100   32.7150   42.8950 N   0  0  0  0  0  0  0  0  0  0  0  0
   45.2840   32.7510   44.2430 N   0  0  0  0  0  0  0  0  0  0  0  0
   47.0510   30.0330   47.6920 C   0  0  0  0  0  0  0  0  0  0  0  0
   47.4740   31.0580   48.5720 C   0  0  0  0  0  0  0  0  0  0  0  0
   47.4640   32.3810   48.1110 C   0  0  0  0  0  0  0  0  0  0  0  0
   47.0380   32.5580   46.8330 N   0  0  0  0  0  0  0  0  0  0  0  0
   46.6410   31.5950   46.0090 C   0  0  0  0  0  0  0  0  0  0  0  0
   46.6430   30.3090   46.4330 N   0  0  0  0  0  0  0  0  0  0  0  0
   41.2470   33.5610   40.0970 N   0  0  0  0  0  0  0  0  0  0  0  0
   41.2740   33.3200   38.6670 C   0  0  0  0  0  0  0  0  0  0  0  0
   40.4440   34.4210   38.0290 C   0  0  0  0  0  0  0  0  0  0  0  0
   39.0350   34.3600   38.5050 C   0  0  0  0  0  0  0  0  0  0  0  0
   38.9160   34.2880   40.0100 C   0  0  0  0  0  0  0  0  0  0  0  0
   39.9220   33.3170   40.5950 C   0  0  0  0  0  0  0  0  0  0  0  0
   45.4625   35.2601   42.7895 H   0  0  0  0  0  0  0  0  0  0  0  0
   43.9855   36.8937   41.6126 H   0  0  0  0  0  0  0  0  0  0  0  0
   42.0231   36.0204   40.3780 H   0  0  0  0  0  0  0  0  0  0  0  0
   47.5156   30.5579   43.4751 H   0  0  0  0  0  0  0  0  0  0  0  0
   46.2722   31.5792   41.3695 H   0  0  0  0  0  0  0  0  0  0  0  0
   47.0543   28.9895   48.0401 H   0  0  0  0  0  0  0  0  0  0  0  0
   47.8031   30.8211   49.5945 H   0  0  0  0  0  0  0  0  0  0  0  0
   47.7810   33.2232   48.7437 H   0  0  0  0  0  0  0  0  0  0  0  0
   42.3082   33.3592   38.2944 H   0  0  0  0  0  0  0  0  0  0  0  0
   40.8713   32.3258   38.4232 H   0  0  0  0  0  0  0  0  0  0  0  0
   40.4615   34.2992   36.9359 H   0  0  0  0  0  0  0  0  0  0  0  0
   40.8710   35.3947   38.3112 H   0  0  0  0  0  0  0  0  0  0  0  0
   38.5090   35.2607   38.1557 H   0  0  0  0  0  0  0  0  0  0  0  0
   38.5929   33.4385   38.0983 H   0  0  0  0  0  0  0  0  0  0  0  0
   39.0954   35.2878   40.4321 H   0  0  0  0  0  0  0  0  0  0  0  0
   37.9051   33.9354   40.2624 H   0  0  0  0  0  0  0  0  0  0  0  0
   39.6243   32.2919   40.3292 H   0  0  0  0  0  0  0  0  0  0  0  0
   39.9353   33.4529   41.6865 H   0  0  0  0  0  0  0  0  0  0  0  0
  1  2  1  0
  2  3  2  0
  3  4  1  0
  3 11  1  0
  5  4  2  0
  6  5  1  0
  7  6  2  0
  7  2  1  0
  8 17  1  0
  9  8  1  0
 10 11  1  0
 10  9  2  0
 11 12  1  0
 12  8  2  0
 13 14  2  0
 15 14  1  0
 16 15  2  0
 17 18  2  0
 17 16  1  0
 18 13  1  0
 19 24  1  0
 19  7  1  0
 20 19  1  0
 21 22  1  0
 21 20  1  0
 22 23  1  0
 23 24  1  0
  4 25  1  0
  5 26  1  0
  6 27  1  0
  9 28  1  0
 10 29  1  0
 13 30  1  0
 14 31  1  0
 15 32  1  0
 20 33  1  0
 20 34  1  0
 21 35  1  0
 21 36  1  0
 22 37  1  0
 22 38  1  0
 23 39  1  0
 23 40  1  0
 24 41  1  0
 24 42  1  0
M  ISO  8  25  14  26  14  27  14  28  14  29  14  30  14  31  14  32  14
M  ISO  8  33  13  34  13  35  13  36  13  37  13  38  13  39  13  40  13
M  ISO  2  41  13  42  13
M  END
>  <minimizedAffinity>  (1) 
-5.80260277

>  <minimizedRMSD>  (1) 
2.37773538

$$$$
