
     RDKit          3D

 36 39  0  0  0  0  0  0  0  0999 V2000
   45.5730   32.3710   40.1200 F   0  0  0  0  0  0  0  0  0  0  0  0
   44.6340   33.3370   40.2230 C   0  0  0  0  0  0  0  0  0  0  0  0
   44.6060   34.1240   41.3390 C   0  0  0  0  0  0  0  0  0  0  0  0
   43.6420   35.1170   41.4480 C   0  0  0  0  0  0  0  0  0  0  0  0
   42.7060   35.3450   40.4740 C   0  0  0  0  0  0  0  0  0  0  0  0
   42.7620   34.5410   39.3690 C   0  0  0  0  0  0  0  0  0  0  0  0
   43.6970   33.5420   39.2130 C   0  0  0  0  0  0  0  0  0  0  0  0
   43.7920   32.6620   38.0530 C   0  0  0  0  0  0  0  0  0  0  0  0
   42.8280   31.7270   37.7400 C   0  0  0  0  0  0  0  0  0  0  0  0
   42.8640   30.8710   36.6590 C   0  0  0  0  0  0  0  0  0  0  0  0
   43.9470   30.9430   35.8110 C   0  0  0  0  0  0  0  0  0  0  0  0
   44.9040   31.8760   36.1260 C   0  0  0  0  0  0  0  0  0  0  0  0
   44.8260   32.6910   37.1930 N   0  0  0  0  0  0  0  0  0  0  0  0
   46.1470   33.4100   44.4150 C   0  0  0  0  0  0  0  0  0  0  0  0
   47.1710   34.0850   43.7590 C   0  0  0  0  0  0  0  0  0  0  0  0
   46.7530   34.4500   42.5200 C   0  0  0  0  0  0  0  0  0  0  0  0
   45.4930   34.0100   42.4130 N   0  0  0  0  0  0  0  0  0  0  0  0
   45.1430   33.3900   43.5510 N   0  0  0  0  0  0  0  0  0  0  0  0
   47.2760   31.5060   47.3250 C   0  0  0  0  0  0  0  0  0  0  0  0
   46.3550   31.8870   48.3220 C   0  0  0  0  0  0  0  0  0  0  0  0
   45.3460   32.8060   47.9710 C   0  0  0  0  0  0  0  0  0  0  0  0
   45.3560   33.2430   46.6910 N   0  0  0  0  0  0  0  0  0  0  0  0
   46.2350   32.8730   45.7570 C   0  0  0  0  0  0  0  0  0  0  0  0
   47.2090   31.9970   46.0640 N   0  0  0  0  0  0  0  0  0  0  0  0
   43.6292   35.7449   42.3511 H   0  0  0  0  0  0  0  0  0  0  0  0
   41.9474   36.1351   40.5756 H   0  0  0  0  0  0  0  0  0  0  0  0
   42.0257   34.6997   38.5673 H   0  0  0  0  0  0  0  0  0  0  0  0
   41.9572   31.6580   38.4085 H   0  0  0  0  0  0  0  0  0  0  0  0
   42.0514   30.1517   36.4794 H   0  0  0  0  0  0  0  0  0  0  0  0
   44.0401   30.2898   34.9309 H   0  0  0  0  0  0  0  0  0  0  0  0
   45.7826   31.9615   35.4697 H   0  0  0  0  0  0  0  0  0  0  0  0
   48.1663   34.2913   44.1794 H   0  0  0  0  0  0  0  0  0  0  0  0
   47.3311   34.9956   41.7597 H   0  0  0  0  0  0  0  0  0  0  0  0
   48.0716   30.7898   47.5780 H   0  0  0  0  0  0  0  0  0  0  0  0
   46.4219   31.4798   49.3417 H   0  0  0  0  0  0  0  0  0  0  0  0
   44.5933   33.1484   48.6965 H   0  0  0  0  0  0  0  0  0  0  0  0
  1  2  1  0
  2  3  2  0
  3  4  1  0
  3 17  1  0
  5  4  2  0
  6  5  1  0
  7  6  2  0
  7  2  1  0
  8  7  1  0
  9  8  2  0
 10  9  1  0
 11 12  1  0
 11 10  2  0
 12 13  2  0
 13  8  1  0
 14 23  1  0
 15 14  1  0
 16 15  2  0
 17 16  1  0
 17 18  1  0
 18 14  2  0
 19 20  2  0
 21 20  1  0
 22 21  2  0
 23 24  2  0
 23 22  1  0
 24 19  1  0
  4 25  1  0
  5 26  1  0
  6 27  1  0
  9 28  1  0
 10 29  1  0
 11 30  1  0
 12 31  1  0
 15 32  1  0
 16 33  1  0
 19 34  1  0
 20 35  1  0
 21 36  1  0
M  ISO  8  25  14  26  14  27  14  28  14  29  14  30  14  31  14  32  14
M  ISO  4  33  14  34  14  35  14  36  14
M  END
>  <minimizedAffinity>  (1) 
-5.13210964

>  <minimizedRMSD>  (1) 
0.675869584

$$$$
