
     RDKit          3D

 30 32  0  0  0  0  0  0  0  0999 V2000
   46.2170   33.1940   44.7020 C   0  0  0  0  0  0  0  0  0  0  0  0
   47.2690   33.7460   43.9770 C   0  0  0  0  0  0  0  0  0  0  0  0
   46.7760   34.2050   42.7890 C   0  0  0  0  0  0  0  0  0  0  0  0
   45.4520   33.9370   42.7960 N   0  0  0  0  0  0  0  0  0  0  0  0
   45.1230   33.3330   43.9410 N   0  0  0  0  0  0  0  0  0  0  0  0
   45.3450   32.6600   40.2860 F   0  0  0  0  0  0  0  0  0  0  0  0
   44.4520   33.6050   40.5790 C   0  0  0  0  0  0  0  0  0  0  0  0
   44.5130   34.2170   41.8000 C   0  0  0  0  0  0  0  0  0  0  0  0
   43.5830   35.2150   42.1320 C   0  0  0  0  0  0  0  0  0  0  0  0
   42.5910   35.6130   41.2660 C   0  0  0  0  0  0  0  0  0  0  0  0
   42.5610   34.9750   40.0480 C   0  0  0  0  0  0  0  0  0  0  0  0
   43.4600   33.9940   39.6950 C   0  0  0  0  0  0  0  0  0  0  0  0
   43.3550   33.3530   38.3520 C   0  0  0  0  0  0  0  0  0  0  0  0
   47.3630   31.1080   47.4830 C   0  0  0  0  0  0  0  0  0  0  0  0
   46.5150   31.4920   48.5290 C   0  0  0  0  0  0  0  0  0  0  0  0
   45.5470   32.4740   48.2680 C   0  0  0  0  0  0  0  0  0  0  0  0
   45.5230   32.9640   47.0140 N   0  0  0  0  0  0  0  0  0  0  0  0
   46.3310   32.5960   46.0220 C   0  0  0  0  0  0  0  0  0  0  0  0
   47.2660   31.6570   46.2520 N   0  0  0  0  0  0  0  0  0  0  0  0
   48.3175   33.8028   44.3046 H   0  0  0  0  0  0  0  0  0  0  0  0
   47.3446   34.6958   41.9854 H   0  0  0  0  0  0  0  0  0  0  0  0
   43.6499   35.6955   43.1192 H   0  0  0  0  0  0  0  0  0  0  0  0
   41.8648   36.3952   41.5320 H   0  0  0  0  0  0  0  0  0  0  0  0
   41.7842   35.2613   39.3237 H   0  0  0  0  0  0  0  0  0  0  0  0
   43.1783   32.2741   38.4735 H   0  0  0  0  0  0  0  0  0  0  0  0
   42.5183   33.8013   37.7961 H   0  0  0  0  0  0  0  0  0  0  0  0
   44.2910   33.5109   37.7961 H   0  0  0  0  0  0  0  0  0  0  0  0
   48.1280   30.3395   47.6681 H   0  0  0  0  0  0  0  0  0  0  0  0
   46.6050   31.0371   49.5265 H   0  0  0  0  0  0  0  0  0  0  0  0
   44.8485   32.8231   49.0427 H   0  0  0  0  0  0  0  0  0  0  0  0
  1 18  1  0
  2  1  1  0
  3  4  1  0
  3  2  2  0
  4  5  1  0
  5  1  2  0
  6  7  1  0
  7  8  2  0
  8  9  1  0
  8  4  1  0
 10  9  2  0
 11 10  1  0
 12 11  2  0
 12  7  1  0
 13 12  1  0
 14 15  2  0
 16 15  1  0
 17 16  2  0
 18 19  2  0
 18 17  1  0
 19 14  1  0
  2 20  1  0
  3 21  1  0
  9 22  1  0
 10 23  1  0
 11 24  1  0
 13 25  1  0
 13 26  1  0
 13 27  1  0
 14 28  1  0
 15 29  1  0
 16 30  1  0
M  ISO  8  20  14  21  14  22  14  23  14  24  14  25   8  26   8  27   8
M  ISO  3  28  14  29  14  30  14
M  END
>  <minimizedAffinity>  (1) 
-4.7408371

>  <minimizedRMSD>  (1) 
0.149843201

$$$$
