
     RDKit          3D

 34 37  0  0  0  0  0  0  0  0999 V2000
   44.8100   32.0360   40.9850 F   0  0  0  0  0  0  0  0  0  0  0  0
   44.3230   33.2690   41.0910 C   0  0  0  0  0  0  0  0  0  0  0  0
   44.7340   34.0750   42.1210 C   0  0  0  0  0  0  0  0  0  0  0  0
   44.2330   35.3790   42.2490 C   0  0  0  0  0  0  0  0  0  0  0  0
   43.3250   35.8890   41.3620 C   0  0  0  0  0  0  0  0  0  0  0  0
   42.9240   35.0640   40.3320 C   0  0  0  0  0  0  0  0  0  0  0  0
   43.4110   33.7710   40.1910 C   0  0  0  0  0  0  0  0  0  0  0  0
   42.9180   32.9850   39.0660 C   0  0  0  0  0  0  0  0  0  0  0  0
   43.5500   32.4710   37.9630 C   0  0  0  0  0  0  0  0  0  0  0  0
   42.6770   31.8040   37.1830 N   0  0  0  0  0  0  0  0  0  0  0  0
   41.4820   31.8920   37.7930 C   0  0  0  0  0  0  0  0  0  0  0  0
   41.6350   32.6000   38.9190 N   0  0  0  0  0  0  0  0  0  0  0  0
   46.3520   32.9120   45.0250 C   0  0  0  0  0  0  0  0  0  0  0  0
   47.4470   33.2970   44.2580 C   0  0  0  0  0  0  0  0  0  0  0  0
   47.0040   33.7840   43.0700 C   0  0  0  0  0  0  0  0  0  0  0  0
   45.6550   33.6990   43.1080 N   0  0  0  0  0  0  0  0  0  0  0  0
   45.2860   33.1790   44.2770 N   0  0  0  0  0  0  0  0  0  0  0  0
   47.3750   30.8390   47.8570 C   0  0  0  0  0  0  0  0  0  0  0  0
   46.5170   31.2910   48.8930 C   0  0  0  0  0  0  0  0  0  0  0  0
   45.5920   32.3110   48.5940 C   0  0  0  0  0  0  0  0  0  0  0  0
   45.6130   32.7690   47.3300 N   0  0  0  0  0  0  0  0  0  0  0  0
   46.4190   32.3460   46.3540 C   0  0  0  0  0  0  0  0  0  0  0  0
   47.3240   31.3610   46.6130 N   0  0  0  0  0  0  0  0  0  0  0  0
   44.5788   36.0070   43.0833 H   0  0  0  0  0  0  0  0  0  0  0  0
   42.9323   36.9113   41.4656 H   0  0  0  0  0  0  0  0  0  0  0  0
   42.1957   35.4419   39.5993 H   0  0  0  0  0  0  0  0  0  0  0  0
   44.6219   32.5872   37.7450 H   0  0  0  0  0  0  0  0  0  0  0  0
   42.8838   31.3226   36.2962 H   0  0  0  0  0  0  0  0  0  0  0  0
   40.5396   31.4567   37.4291 H   0  0  0  0  0  0  0  0  0  0  0  0
   48.5007   33.2195   44.5641 H   0  0  0  0  0  0  0  0  0  0  0  0
   47.6188   34.1698   42.2434 H   0  0  0  0  0  0  0  0  0  0  0  0
   48.1013   30.0417   48.0734 H   0  0  0  0  0  0  0  0  0  0  0  0
   46.5725   30.8568   49.9022 H   0  0  0  0  0  0  0  0  0  0  0  0
   44.8960   32.7079   49.3477 H   0  0  0  0  0  0  0  0  0  0  0  0
  1  2  1  0
  2  3  2  0
  3  4  1  0
  3 16  1  0
  5  4  2  0
  6  5  1  0
  7  6  2  0
  7  2  1  0
  8  7  1  0
  9  8  2  0
 10 11  1  0
 10  9  1  0
 11 12  2  0
 12  8  1  0
 13 22  1  0
 14 13  1  0
 15 16  1  0
 15 14  2  0
 16 17  1  0
 17 13  2  0
 18 19  2  0
 20 19  1  0
 21 20  2  0
 22 23  2  0
 22 21  1  0
 23 18  1  0
  4 24  1  0
  5 25  1  0
  6 26  1  0
  9 27  1  0
 10 28  1  0
 11 29  1  0
 14 30  1  0
 15 31  1  0
 18 32  1  0
 19 33  1  0
 20 34  1  0
M  ISO  8  24  14  25  14  26  14  27  14  28   9  29  14  30  14  31  14
M  ISO  3  32  14  33  14  34  14
M  END
>  <minimizedAffinity>  (1) 
-5.16997576

>  <minimizedRMSD>  (1) 
1.03174233

$$$$
