
     RDKit          3D

 38 41  0  0  0  0  0  0  0  0999 V2000
   44.7620   34.3690   43.2730 C   0  0  0  0  0  0  0  0  0  0  0  0
   45.1500   35.5580   42.6450 C   0  0  0  0  0  0  0  0  0  0  0  0
   44.1980   35.9060   41.7390 C   0  0  0  0  0  0  0  0  0  0  0  0
   43.2460   34.9460   41.8130 N   0  0  0  0  0  0  0  0  0  0  0  0
   43.6000   34.0480   42.7280 N   0  0  0  0  0  0  0  0  0  0  0  0
   47.3120   32.3000   44.8830 C   0  0  0  0  0  0  0  0  0  0  0  0
   46.9450   32.3770   46.2420 C   0  0  0  0  0  0  0  0  0  0  0  0
   45.8160   33.1450   46.5970 C   0  0  0  0  0  0  0  0  0  0  0  0
   45.1740   33.7500   45.5820 N   0  0  0  0  0  0  0  0  0  0  0  0
   45.5140   33.6830   44.2960 C   0  0  0  0  0  0  0  0  0  0  0  0
   46.6030   32.9440   43.9460 N   0  0  0  0  0  0  0  0  0  0  0  0
   45.9280   32.3310   48.9160 C   0  0  0  0  0  0  0  0  0  0  0  0
   46.7340   31.4370   48.6310 O   0  0  0  0  0  0  0  0  0  0  0  0
   45.3910   33.2640   47.9570 N   0  0  0  0  0  0  0  0  0  0  0  0
   42.4900   32.7170   40.2550 F   0  0  0  0  0  0  0  0  0  0  0  0
   41.6940   33.7740   40.3230 C   0  0  0  0  0  0  0  0  0  0  0  0
   42.0550   34.8550   41.0760 C   0  0  0  0  0  0  0  0  0  0  0  0
   41.2240   35.9850   41.1610 C   0  0  0  0  0  0  0  0  0  0  0  0
   40.0350   36.0480   40.5020 C   0  0  0  0  0  0  0  0  0  0  0  0
   39.6780   34.9480   39.7430 C   0  0  0  0  0  0  0  0  0  0  0  0
   40.4950   33.8180   39.6500 C   0  0  0  0  0  0  0  0  0  0  0  0
   40.0220   32.7170   38.8220 C   0  0  0  0  0  0  0  0  0  0  0  0
   40.6470   31.9540   37.8690 C   0  0  0  0  0  0  0  0  0  0  0  0
   39.7930   31.0420   37.3680 N   0  0  0  0  0  0  0  0  0  0  0  0
   38.6210   31.2250   38.0050 C   0  0  0  0  0  0  0  0  0  0  0  0
   38.7630   32.2310   38.8760 N   0  0  0  0  0  0  0  0  0  0  0  0
   46.0736   36.1189   42.8507 H   0  0  0  0  0  0  0  0  0  0  0  0
   44.2006   36.7872   41.0806 H   0  0  0  0  0  0  0  0  0  0  0  0
   48.1893   31.7052   44.5889 H   0  0  0  0  0  0  0  0  0  0  0  0
   47.5277   31.8484   47.0108 H   0  0  0  0  0  0  0  0  0  0  0  0
   45.6018   32.4193   49.9628 H   0  0  0  0  0  0  0  0  0  0  0  0
   44.7222   33.9934   48.2426 H   0  0  0  0  0  0  0  0  0  0  0  0
   41.5425   36.8399   41.7755 H   0  0  0  0  0  0  0  0  0  0  0  0
   39.3867   36.9341   40.5699 H   0  0  0  0  0  0  0  0  0  0  0  0
   38.7233   34.9632   39.1968 H   0  0  0  0  0  0  0  0  0  0  0  0
   41.6958   32.0706   37.5585 H   0  0  0  0  0  0  0  0  0  0  0  0
   39.9962   30.3418   36.6404 H   0  0  0  0  0  0  0  0  0  0  0  0
   37.7014   30.6451   37.8376 H   0  0  0  0  0  0  0  0  0  0  0  0
  1 10  1  0
  2  1  1  0
  3  4  1  0
  3  2  2  0
  4  5  1  0
  5  1  2  0
  6  7  2  0
  7  8  1  0
  8 14  1  0
  9  8  2  0
 10  9  1  0
 11 10  2  0
 11  6  1  0
 13 12  2  0
 14 12  1  0
 15 16  1  0
 16 17  2  0
 17 18  1  0
 17  4  1  0
 19 18  2  0
 20 19  1  0
 21 20  2  0
 21 16  1  0
 22 26  1  0
 22 21  1  0
 23 22  2  0
 24 23  1  0
 24 25  1  0
 25 26  2  0
  2 27  1  0
  3 28  1  0
  6 29  1  0
  7 30  1  0
 12 31  1  0
 14 32  1  0
 18 33  1  0
 19 34  1  0
 20 35  1  0
 23 36  1  0
 24 37  1  0
 25 38  1  0
M  ISO  8  27  14  28  14  29  14  30  14  31   6  33  14  34  14  35  14
M  ISO  3  36  14  37   9  38  14
M  END
>  <minimizedAffinity>  (1) 
-6.44621325

>  <minimizedRMSD>  (1) 
2.91283393

$$$$
