
     RDKit          3D

 41 45  0  0  0  0  0  0  0  0999 V2000
   42.5080   32.6560   40.2750 F   0  0  0  0  0  0  0  0  0  0  0  0
   41.7280   33.7220   40.3490 C   0  0  0  0  0  0  0  0  0  0  0  0
   42.1090   34.7980   41.1070 C   0  0  0  0  0  0  0  0  0  0  0  0
   41.2980   35.9370   41.1980 C   0  0  0  0  0  0  0  0  0  0  0  0
   40.1060   36.0180   40.5430 C   0  0  0  0  0  0  0  0  0  0  0  0
   39.7380   34.9300   39.7890 C   0  0  0  0  0  0  0  0  0  0  0  0
   40.5320   33.7950   39.6890 C   0  0  0  0  0  0  0  0  0  0  0  0
   40.0310   32.7030   38.8540 C   0  0  0  0  0  0  0  0  0  0  0  0
   40.6500   31.9440   37.8870 C   0  0  0  0  0  0  0  0  0  0  0  0
   39.7950   31.0410   37.3720 N   0  0  0  0  0  0  0  0  0  0  0  0
   38.6300   31.2290   38.0150 C   0  0  0  0  0  0  0  0  0  0  0  0
   38.7760   32.2270   38.9030 N   0  0  0  0  0  0  0  0  0  0  0  0
   44.8630   34.2250   43.2400 C   0  0  0  0  0  0  0  0  0  0  0  0
   45.2090   35.4520   42.7080 C   0  0  0  0  0  0  0  0  0  0  0  0
   44.2410   35.8480   41.8390 C   0  0  0  0  0  0  0  0  0  0  0  0
   43.3100   34.8680   41.8410 N   0  0  0  0  0  0  0  0  0  0  0  0
   43.6960   33.9110   42.6810 N   0  0  0  0  0  0  0  0  0  0  0  0
   47.4170   32.0510   44.6850 C   0  0  0  0  0  0  0  0  0  0  0  0
   47.0890   32.0380   46.0570 C   0  0  0  0  0  0  0  0  0  0  0  0
   45.9710   32.7940   46.4640 C   0  0  0  0  0  0  0  0  0  0  0  0
   45.3180   33.4610   45.5030 N   0  0  0  0  0  0  0  0  0  0  0  0
   45.6370   33.4670   44.2080 C   0  0  0  0  0  0  0  0  0  0  0  0
   46.7070   32.7490   43.7860 N   0  0  0  0  0  0  0  0  0  0  0  0
   45.5710   32.8280   47.8730 C   0  0  0  0  0  0  0  0  0  0  0  0
   44.8270   31.5350   48.3010 C   0  0  0  0  0  0  0  0  0  0  0  0
   46.1470   31.9590   48.8960 C   0  0  0  0  0  0  0  0  0  0  0  0
   41.6316   36.7859   41.8128 H   0  0  0  0  0  0  0  0  0  0  0  0
   39.4687   36.9118   40.6145 H   0  0  0  0  0  0  0  0  0  0  0  0
   38.7818   34.9589   39.2460 H   0  0  0  0  0  0  0  0  0  0  0  0
   41.6992   32.0595   37.5776 H   0  0  0  0  0  0  0  0  0  0  0  0
   39.9930   30.3481   36.6361 H   0  0  0  0  0  0  0  0  0  0  0  0
   37.7058   30.6580   37.8423 H   0  0  0  0  0  0  0  0  0  0  0  0
   46.1211   36.0178   42.9487 H   0  0  0  0  0  0  0  0  0  0  0  0
   44.2198   36.7784   41.2525 H   0  0  0  0  0  0  0  0  0  0  0  0
   48.2845   31.4689   44.3406 H   0  0  0  0  0  0  0  0  0  0  0  0
   47.6825   31.4604   46.7810 H   0  0  0  0  0  0  0  0  0  0  0  0
   45.4297   33.9188   47.8622 H   0  0  0  0  0  0  0  0  0  0  0  0
   43.9027   31.5934   48.8946 H   0  0  0  0  0  0  0  0  0  0  0  0
   44.4330   30.6404   47.7965 H   0  0  0  0  0  0  0  0  0  0  0  0
   47.0546   31.3812   48.6673 H   0  0  0  0  0  0  0  0  0  0  0  0
   46.4979   32.1260   49.9251 H   0  0  0  0  0  0  0  0  0  0  0  0
  1  2  1  0
  2  3  2  0
  3  4  1  0
  3 16  1  0
  5  4  2  0
  6  5  1  0
  7  6  2  0
  7  2  1  0
  8 12  1  0
  8  7  1  0
  9  8  2  0
 10  9  1  0
 10 11  1  0
 11 12  2  0
 13 22  1  0
 14 13  1  0
 15 16  1  0
 15 14  2  0
 16 17  1  0
 17 13  2  0
 18 19  2  0
 19 20  1  0
 20 24  1  0
 21 20  2  0
 22 21  1  0
 23 22  2  0
 23 18  1  0
 24 25  1  0
 24 26  1  0
 25 26  1  0
  4 27  1  0
  5 28  1  0
  6 29  1  0
  9 30  1  0
 10 31  1  0
 11 32  1  0
 14 33  1  0
 15 34  1  0
 18 35  1  0
 19 36  1  0
 24 37  1  0
 25 38  1  0
 25 39  1  0
 26 40  1  0
 26 41  1  0
M  ISO  8  27  14  28  14  29  14  30  14  31   9  32  14  33  14  34  14
M  ISO  7  35  14  36  14  37  13  38  13  39  13  40  13  41  13
M  END
>  <minimizedAffinity>  (1) 
-6.02163744

>  <minimizedRMSD>  (1) 
2.87090778

$$$$
