
     RDKit          3D

 45 47  0  0  0  0  0  0  0  0999 V2000
   46.3260   31.8060   46.4400 C   0  0  0  0  0  0  0  0  0  0  0  0
   45.8230   33.0790   46.3170 C   0  0  0  0  0  0  0  0  0  0  0  0
   46.1070   33.9130   45.2770 C   0  0  0  0  0  0  0  0  0  0  0  0
   46.9310   33.4750   44.3050 C   0  0  0  0  0  0  0  0  0  0  0  0
   47.4580   32.1990   44.3920 C   0  0  0  0  0  0  0  0  0  0  0  0
   47.1570   31.3540   45.4620 C   0  0  0  0  0  0  0  0  0  0  0  0
   47.2310   34.3630   43.2240 N   0  0  0  0  0  0  0  0  0  0  0  0
   48.5490   34.5820   42.6700 C   0  0  0  0  0  0  0  0  0  0  0  0
   48.4100   35.0010   41.2130 C   0  0  0  0  0  0  0  0  0  0  0  0
   47.2910   34.2800   40.5070 C   0  0  0  0  0  0  0  0  0  0  0  0
   45.9720   34.4200   41.2350 C   0  0  0  0  0  0  0  0  0  0  0  0
   46.2380   35.1650   42.5540 C   0  0  0  0  0  0  0  0  0  0  0  0
   47.1360   29.1740   44.4190 C   0  0  0  0  0  0  0  0  0  0  0  0
   45.9890   29.0230   43.8540 O   0  0  0  0  0  0  0  0  0  0  0  0
   47.8530   30.1340   45.2070 N   0  0  0  0  0  0  0  0  0  0  0  0
   46.1200   30.8220   47.5060 C   0  0  0  0  0  0  0  0  0  0  0  0
   46.7390   31.2660   48.8030 C   0  0  0  0  0  0  0  0  0  0  0  0
   49.7730   29.2610   48.3870 C   0  0  0  0  0  0  0  0  0  0  0  0
   50.7710   30.0830   48.9530 C   0  0  0  0  0  0  0  0  0  0  0  0
   50.3480   31.3100   49.4580 C   0  0  0  0  0  0  0  0  0  0  0  0
   49.0510   31.6620   49.3930 N   0  0  0  0  0  0  0  0  0  0  0  0
   48.1450   30.8250   48.8370 C   0  0  0  0  0  0  0  0  0  0  0  0
   48.4780   29.6570   48.3440 N   0  0  0  0  0  0  0  0  0  0  0  0
   45.1504   33.4472   47.1057 H   0  0  0  0  0  0  0  0  0  0  0  0
   45.6726   34.9226   45.2321 H   0  0  0  0  0  0  0  0  0  0  0  0
   48.1308   31.8412   43.5987 H   0  0  0  0  0  0  0  0  0  0  0  0
   49.0595   35.3758   43.2351 H   0  0  0  0  0  0  0  0  0  0  0  0
   49.1389   33.6559   42.7361 H   0  0  0  0  0  0  0  0  0  0  0  0
   48.2118   36.0823   41.1747 H   0  0  0  0  0  0  0  0  0  0  0  0
   49.3485   34.7422   40.7009 H   0  0  0  0  0  0  0  0  0  0  0  0
   47.1832   34.6977   39.4951 H   0  0  0  0  0  0  0  0  0  0  0  0
   47.5464   33.2106   40.4735 H   0  0  0  0  0  0  0  0  0  0  0  0
   45.2635   34.9926   40.6184 H   0  0  0  0  0  0  0  0  0  0  0  0
   45.5371   33.4296   41.4348 H   0  0  0  0  0  0  0  0  0  0  0  0
   46.6219   36.1772   42.3589 H   0  0  0  0  0  0  0  0  0  0  0  0
   45.3258   35.2921   43.1554 H   0  0  0  0  0  0  0  0  0  0  0  0
   47.7633   28.2880   44.2415 H   0  0  0  0  0  0  0  0  0  0  0  0
   48.8027   29.9559   45.5636 H   0  0  0  0  0  0  0  0  0  0  0  0
   45.0395   30.6814   47.6568 H   0  0  0  0  0  0  0  0  0  0  0  0
   46.6023   29.8815   47.2012 H   0  0  0  0  0  0  0  0  0  0  0  0
   46.6941   32.3626   48.8772 H   0  0  0  0  0  0  0  0  0  0  0  0
   46.1898   30.8253   49.6481 H   0  0  0  0  0  0  0  0  0  0  0  0
   50.0517   28.2807   47.9731 H   0  0  0  0  0  0  0  0  0  0  0  0
   51.8252   29.7715   48.9931 H   0  0  0  0  0  0  0  0  0  0  0  0
   51.0785   31.9953   49.9127 H   0  0  0  0  0  0  0  0  0  0  0  0
  1 16  1  0
  2  1  2  0
  3  2  1  0
  4  5  1  0
  4  3  2  0
  5  6  2  0
  6  1  1  0
  7  4  1  0
  8  7  1  0
  9  8  1  0
 10  9  1  0
 10 11  1  0
 11 12  1  0
 12  7  1  0
 13 15  1  0
 14 13  2  0
 15  6  1  0
 16 17  1  0
 17 22  1  0
 18 19  2  0
 19 20  1  0
 21 20  2  0
 22 21  1  0
 23 18  1  0
 23 22  2  0
  2 24  1  0
  3 25  1  0
  5 26  1  0
  8 27  1  0
  8 28  1  0
  9 29  1  0
  9 30  1  0
 10 31  1  0
 10 32  1  0
 11 33  1  0
 11 34  1  0
 12 35  1  0
 12 36  1  0
 13 37  1  0
 15 38  1  0
 16 39  1  0
 16 40  1  0
 17 41  1  0
 17 42  1  0
 18 43  1  0
 19 44  1  0
 20 45  1  0
M  ISO  8  24  14  25  14  26  14  27  13  28  13  29  13  30  13  31  13
M  ISO  8  32  13  33  13  34  13  35  13  36  13  37   6  39   8  40   8
M  ISO  5  41   8  42   8  43  14  44  14  45  14
M  END
>  <minimizedAffinity>  (1) 
-5.12466955

>  <minimizedRMSD>  (1) 
7.66103172

$$$$
