
     RDKit          3D

 36 38  0  0  0  0  0  0  0  0999 V2000
   45.9060   31.2050   47.1910 C   0  0  0  0  0  0  0  0  0  0  0  0
   45.4790   30.6020   48.3570 C   0  0  0  0  0  0  0  0  0  0  0  0
   45.0130   29.3230   48.4170 C   0  0  0  0  0  0  0  0  0  0  0  0
   44.9610   28.5900   47.2580 C   0  0  0  0  0  0  0  0  0  0  0  0
   45.3820   29.1770   46.0880 C   0  0  0  0  0  0  0  0  0  0  0  0
   45.8540   30.4760   46.0400 C   0  0  0  0  0  0  0  0  0  0  0  0
   44.4430   27.2220   47.4260 C   0  0  0  0  0  0  0  0  0  0  0  0
   43.9740   26.2580   46.6590 N   0  0  0  0  0  0  0  0  0  0  0  0
   43.6690   25.2320   47.4900 C   0  0  0  0  0  0  0  0  0  0  0  0
   43.9540   25.5780   48.7600 N   0  0  0  0  0  0  0  0  0  0  0  0
   44.4390   26.8230   48.7230 N   0  0  0  0  0  0  0  0  0  0  0  0
   47.5600   30.3990   44.3300 C   0  0  0  0  0  0  0  0  0  0  0  0
   48.6400   29.9550   44.8710 O   0  0  0  0  0  0  0  0  0  0  0  0
   46.2090   30.7200   44.6770 N   0  0  0  0  0  0  0  0  0  0  0  0
   46.4180   32.5570   46.9870 C   0  0  0  0  0  0  0  0  0  0  0  0
   45.2950   33.5600   46.9130 C   0  0  0  0  0  0  0  0  0  0  0  0
   46.2230   34.4470   43.4810 C   0  0  0  0  0  0  0  0  0  0  0  0
   45.4510   35.6080   43.2420 C   0  0  0  0  0  0  0  0  0  0  0  0
   44.6330   36.0370   44.2860 C   0  0  0  0  0  0  0  0  0  0  0  0
   44.6080   35.3600   45.4410 N   0  0  0  0  0  0  0  0  0  0  0  0
   45.3710   34.2550   45.6100 C   0  0  0  0  0  0  0  0  0  0  0  0
   46.1570   33.8030   44.6710 N   0  0  0  0  0  0  0  0  0  0  0  0
   45.5170   31.1858   49.2885 H   0  0  0  0  0  0  0  0  0  0  0  0
   44.6859   28.8878   49.3728 H   0  0  0  0  0  0  0  0  0  0  0  0
   45.3419   28.5925   45.1570 H   0  0  0  0  0  0  0  0  0  0  0  0
   43.2521   24.2639   47.1752 H   0  0  0  0  0  0  0  0  0  0  0  0
   43.8233   24.9950   49.5990 H   0  0  0  0  0  0  0  0  0  0  0  0
   47.7289   30.5938   43.2606 H   0  0  0  0  0  0  0  0  0  0  0  0
   45.5396   31.1001   43.9927 H   0  0  0  0  0  0  0  0  0  0  0  0
   47.0796   32.8204   47.8254 H   0  0  0  0  0  0  0  0  0  0  0  0
   46.9694   32.5807   46.0355 H   0  0  0  0  0  0  0  0  0  0  0  0
   44.3286   33.0420   47.0013 H   0  0  0  0  0  0  0  0  0  0  0  0
   45.3847   34.2871   47.7335 H   0  0  0  0  0  0  0  0  0  0  0  0
   46.8849   34.0625   42.6910 H   0  0  0  0  0  0  0  0  0  0  0  0
   45.4939   36.1442   42.2825 H   0  0  0  0  0  0  0  0  0  0  0  0
   44.0072   36.9329   44.1608 H   0  0  0  0  0  0  0  0  0  0  0  0
  1  2  2  0
  2  3  1  0
  4  7  1  0
  4  3  2  0
  5  4  1  0
  6  5  2  0
  6  1  1  0
  7 11  2  0
  8  7  1  0
  8  9  2  0
  9 10  1  0
 11 10  1  0
 12 14  1  0
 12 13  2  0
 14  6  1  0
 15  1  1  0
 16 15  1  0
 17 22  2  0
 18 17  1  0
 18 19  2  0
 19 20  1  0
 20 21  2  0
 21 16  1  0
 22 21  1  0
  2 23  1  0
  3 24  1  0
  5 25  1  0
  9 26  1  0
 10 27  1  0
 12 28  1  0
 14 29  1  0
 15 30  1  0
 15 31  1  0
 16 32  1  0
 16 33  1  0
 17 34  1  0
 18 35  1  0
 19 36  1  0
M  ISO  8  23  14  24  14  25  14  26  14  27   9  28   6  30   8  31   8
M  ISO  5  32   8  33   8  34  14  35  14  36  14
M  END
>  <minimizedAffinity>  (1) 
-5.04368973

>  <minimizedRMSD>  (1) 
2.72322273

$$$$
