
     RDKit          3D

 49 52  0  0  1  0  0  0  0  0999 V2000
   46.7860   32.9450   38.7110 N   0  0  0  0  0  0  0  0  0  0  0  0
   46.0020   33.3130   37.5270 C   0  0  0  0  0  0  0  0  0  0  0  0
   45.1200   32.1810   37.0700 C   0  0  0  0  0  0  0  0  0  0  0  0
   45.8960   31.0380   36.6490 N   0  0  0  0  0  0  0  0  0  0  0  0
   47.2580   31.1820   37.1900 C   0  0  0  0  0  0  0  0  0  0  0  0
   47.1310   31.5210   38.6830 C   0  0  1  0  0  0  0  0  0  0  0  0
   44.8900   32.9280   41.2010 Br  0  0  0  0  0  0  0  0  0  0  0  0
   46.5000   33.9420   40.9580 C   0  0  0  0  0  0  0  0  0  0  0  0
   46.9370   34.7730   41.9420 C   0  0  0  0  0  0  0  0  0  0  0  0
   48.1120   35.5200   41.7750 C   0  0  0  0  0  0  0  0  0  0  0  0
   48.7920   35.3870   40.6090 C   0  0  0  0  0  0  0  0  0  0  0  0
   48.3130   34.5350   39.6400 C   0  0  0  0  0  0  0  0  0  0  0  0
   47.1880   33.8040   39.7710 C   0  0  0  0  0  0  0  0  0  0  0  0
   45.6680   34.0320   45.2950 C   0  0  0  0  0  0  0  0  0  0  0  0
   44.7190   35.0530   45.5290 C   0  0  0  0  0  0  0  0  0  0  0  0
   44.5420   35.9850   44.5020 C   0  0  0  0  0  0  0  0  0  0  0  0
   45.2640   35.8700   43.3680 N   0  0  0  0  0  0  0  0  0  0  0  0
   46.1690   34.8770   43.1740 C   0  0  0  0  0  0  0  0  0  0  0  0
   46.3520   33.9660   44.1600 N   0  0  0  0  0  0  0  0  0  0  0  0
   48.2170   31.1270   39.4580 N   0  0  0  0  0  0  0  0  0  0  0  0
   48.8690   32.0880   40.2710 C   0  0  0  0  0  0  0  0  0  0  0  0
   49.0750   31.5170   41.6730 C   0  0  0  0  0  0  0  0  0  0  0  0
   47.8080   30.7880   42.0550 C   0  0  0  0  0  0  0  0  0  0  0  0
   47.6730   29.5250   41.2260 C   0  0  0  0  0  0  0  0  0  0  0  0
   48.3560   29.7790   39.8730 C   0  0  0  0  0  0  0  0  0  0  0  0
   45.3711   34.1800   37.7724 H   0  0  0  0  0  0  0  0  0  0  0  0
   46.7018   33.5530   36.7130 H   0  0  0  0  0  0  0  0  0  0  0  0
   44.4650   31.8810   37.9013 H   0  0  0  0  0  0  0  0  0  0  0  0
   44.5294   32.5309   36.2105 H   0  0  0  0  0  0  0  0  0  0  0  0
   45.4673   30.1736   37.0094 H   0  0  0  0  0  0  0  0  0  0  0  0
   47.8128   30.2404   37.0650 H   0  0  0  0  0  0  0  0  0  0  0  0
   47.8030   31.9760   36.6584 H   0  0  0  0  0  0  0  0  0  0  0  0
   46.3437   30.9344   39.1791 H   0  0  0  0  0  0  0  0  0  0  0  0
   48.4716   36.1940   42.5664 H   0  0  0  0  0  0  0  0  0  0  0  0
   49.7184   35.9552   40.4393 H   0  0  0  0  0  0  0  0  0  0  0  0
   48.8820   34.4452   38.7029 H   0  0  0  0  0  0  0  0  0  0  0  0
   45.8437   33.2740   46.0725 H   0  0  0  0  0  0  0  0  0  0  0  0
   44.1502   35.1112   46.4687 H   0  0  0  0  0  0  0  0  0  0  0  0
   43.8193   36.8062   44.6177 H   0  0  0  0  0  0  0  0  0  0  0  0
   49.8453   32.3385   39.8305 H   0  0  0  0  0  0  0  0  0  0  0  0
   48.2498   32.9950   40.3330 H   0  0  0  0  0  0  0  0  0  0  0  0
   49.9251   30.8189   41.6734 H   0  0  0  0  0  0  0  0  0  0  0  0
   49.2920   32.3210   42.3916 H   0  0  0  0  0  0  0  0  0  0  0  0
   47.8468   30.5224   43.1217 H   0  0  0  0  0  0  0  0  0  0  0  0
   46.9425   31.4404   41.8671 H   0  0  0  0  0  0  0  0  0  0  0  0
   48.1622   28.6849   41.7408 H   0  0  0  0  0  0  0  0  0  0  0  0
   46.6126   29.2711   41.0806 H   0  0  0  0  0  0  0  0  0  0  0  0
   47.9001   29.1245   39.1156 H   0  0  0  0  0  0  0  0  0  0  0  0
   49.4290   29.5651   39.9862 H   0  0  0  0  0  0  0  0  0  0  0  0
  1 13  1  0
  2  1  1  0
  3  2  1  0
  4  3  1  0
  4  5  1  0
  5  6  1  0
  6  1  1  0
  6 20  1  0
  8  7  1  0
  8  9  2  0
  9 18  1  0
 10  9  1  0
 11 10  2  0
 12 13  2  0
 12 11  1  0
 13  8  1  0
 14 15  2  0
 16 15  1  0
 17 16  2  0
 18 17  1  0
 18 19  2  0
 19 14  1  0
 20 25  1  0
 20 21  1  0
 21 22  1  0
 22 23  1  0
 24 23  1  0
 25 24  1  0
  2 26  1  0
  2 27  1  0
  3 28  1  0
  3 29  1  0
  4 30  1  0
  5 31  1  0
  5 32  1  0
  6 33  1  1
 10 34  1  0
 11 35  1  0
 12 36  1  0
 14 37  1  0
 15 38  1  0
 16 39  1  0
 21 40  1  0
 21 41  1  0
 22 42  1  0
 22 43  1  0
 23 44  1  0
 23 45  1  0
 24 46  1  0
 24 47  1  0
 25 48  1  0
 25 49  1  0
M  ISO  8  26  13  27  13  28  13  29  13  30   5  31  13  32  13  33  13
M  ISO  8  34  14  35  14  36  14  37  14  38  14  39  14  40  13  41  13
M  ISO  8  42  13  43  13  44  13  45  13  46  13  47  13  48  13  49  13
M  END
>  <minimizedAffinity>  (1) 
-5.60956764

>  <minimizedRMSD>  (1) 
0.295503497

$$$$
