
     RDKit          3D

 36 38  0  0  0  0  0  0  0  0999 V2000
   45.9850   31.5750   46.9350 C   0  0  0  0  0  0  0  0  0  0  0  0
   45.5240   31.1280   48.1400 C   0  0  0  0  0  0  0  0  0  0  0  0
   45.0440   29.8740   48.3390 C   0  0  0  0  0  0  0  0  0  0  0  0
   45.0110   28.9920   47.2830 C   0  0  0  0  0  0  0  0  0  0  0  0
   45.4750   29.4450   46.0690 C   0  0  0  0  0  0  0  0  0  0  0  0
   45.9640   30.7240   45.8790 C   0  0  0  0  0  0  0  0  0  0  0  0
   44.4870   27.6250   47.4960 C   0  0  0  0  0  0  0  0  0  0  0  0
   43.7590   26.9510   46.4140 C   0  0  0  0  0  0  0  0  0  0  0  0
   43.3700   25.3100   47.2780 S   0  0  0  0  0  0  0  0  0  0  0  0
   44.2470   25.8730   48.8660 C   0  0  0  0  0  0  0  0  0  0  0  0
   44.6470   26.9690   48.6440 N   0  0  0  0  0  0  0  0  0  0  0  0
   47.6810   30.3200   44.2280 C   0  0  0  0  0  0  0  0  0  0  0  0
   48.7290   29.8780   44.8280 O   0  0  0  0  0  0  0  0  0  0  0  0
   46.3580   30.7980   44.5060 N   0  0  0  0  0  0  0  0  0  0  0  0
   46.5230   32.9010   46.5770 C   0  0  0  0  0  0  0  0  0  0  0  0
   45.4320   33.8520   46.1660 C   0  0  0  0  0  0  0  0  0  0  0  0
   45.2750   35.7430   43.0310 C   0  0  0  0  0  0  0  0  0  0  0  0
   46.3930   35.2410   42.3130 C   0  0  0  0  0  0  0  0  0  0  0  0
   47.1570   34.2640   42.9540 C   0  0  0  0  0  0  0  0  0  0  0  0
   46.8220   33.8470   44.1820 N   0  0  0  0  0  0  0  0  0  0  0  0
   45.7420   34.3660   44.8150 C   0  0  0  0  0  0  0  0  0  0  0  0
   44.9810   35.2870   44.2680 N   0  0  0  0  0  0  0  0  0  0  0  0
   45.5426   31.8205   48.9944 H   0  0  0  0  0  0  0  0  0  0  0  0
   44.6857   29.5664   49.3325 H   0  0  0  0  0  0  0  0  0  0  0  0
   45.4559   28.7577   45.2104 H   0  0  0  0  0  0  0  0  0  0  0  0
   43.5119   27.2970   45.3995 H   0  0  0  0  0  0  0  0  0  0  0  0
   44.3609   25.3016   49.7990 H   0  0  0  0  0  0  0  0  0  0  0  0
   47.8580   30.3370   43.1425 H   0  0  0  0  0  0  0  0  0  0  0  0
   45.7375   31.1672   43.7715 H   0  0  0  0  0  0  0  0  0  0  0  0
   47.0505   33.3184   47.4473 H   0  0  0  0  0  0  0  0  0  0  0  0
   47.2068   32.7748   45.7247 H   0  0  0  0  0  0  0  0  0  0  0  0
   44.4668   33.3247   46.1499 H   0  0  0  0  0  0  0  0  0  0  0  0
   45.3694   34.6855   46.8811 H   0  0  0  0  0  0  0  0  0  0  0  0
   44.6390   36.5147   42.5728 H   0  0  0  0  0  0  0  0  0  0  0  0
   46.6437   35.6030   41.3050 H   0  0  0  0  0  0  0  0  0  0  0  0
   48.0358   33.8358   42.4496 H   0  0  0  0  0  0  0  0  0  0  0  0
  1  2  2  0
  2  3  1  0
  4  7  1  0
  4  3  2  0
  5  4  1  0
  6  5  2  0
  6  1  1  0
  7 11  1  0
  8  9  1  0
  8  7  2  0
  9 10  1  0
 11 10  2  0
 12 14  1  0
 12 13  2  0
 14  6  1  0
 15  1  1  0
 16 15  1  0
 17 22  2  0
 18 19  2  0
 18 17  1  0
 19 20  1  0
 20 21  2  0
 21 16  1  0
 22 21  1  0
  2 23  1  0
  3 24  1  0
  5 25  1  0
  8 26  1  0
 10 27  1  0
 12 28  1  0
 14 29  1  0
 15 30  1  0
 15 31  1  0
 16 32  1  0
 16 33  1  0
 17 34  1  0
 18 35  1  0
 19 36  1  0
M  ISO  8  23  14  24  14  25  14  26  14  27  14  28   6  30   8  31   8
M  ISO  5  32   8  33   8  34  14  35  14  36  14
M  END
>  <minimizedAffinity>  (1) 
-4.73985624

>  <minimizedRMSD>  (1) 
2.44184685

$$$$
