
     RDKit          3D

 31 32  0  0  0  0  0  0  0  0999 V2000
   46.3250   31.7780   47.0910 C   0  0  0  0  0  0  0  0  0  0  0  0
   45.3710   31.9630   48.0590 C   0  0  0  0  0  0  0  0  0  0  0  0
   44.8380   30.9600   48.8070 C   0  0  0  0  0  0  0  0  0  0  0  0
   45.2760   29.6980   48.5850 C   0  0  0  0  0  0  0  0  0  0  0  0
   46.2520   29.4710   47.6050 C   0  0  0  0  0  0  0  0  0  0  0  0
   46.7660   30.5150   46.8670 C   0  0  0  0  0  0  0  0  0  0  0  0
   48.9780   29.5760   46.5980 C   0  0  0  0  0  0  0  0  0  0  0  0
   49.6060   29.7000   47.7140 O   0  0  0  0  0  0  0  0  0  0  0  0
   47.7300   29.9270   45.9900 N   0  0  0  0  0  0  0  0  0  0  0  0
   46.9610   32.7660   46.2170 C   0  0  0  0  0  0  0  0  0  0  0  0
   46.4580   32.6800   44.8030 C   0  0  0  0  0  0  0  0  0  0  0  0
   44.5390   35.8100   44.8900 C   0  0  0  0  0  0  0  0  0  0  0  0
   44.8550   36.3880   43.6320 C   0  0  0  0  0  0  0  0  0  0  0  0
   45.7150   35.6760   42.8130 C   0  0  0  0  0  0  0  0  0  0  0  0
   46.2130   34.4900   43.2180 N   0  0  0  0  0  0  0  0  0  0  0  0
   45.8790   33.9850   44.4260 C   0  0  0  0  0  0  0  0  0  0  0  0
   45.0700   34.6120   45.2480 N   0  0  0  0  0  0  0  0  0  0  0  0
   44.6840   28.7040   49.3930 O   0  0  0  0  0  0  0  0  0  0  0  0
   45.0145   32.9874   48.2419 H   0  0  0  0  0  0  0  0  0  0  0  0
   44.0734   31.1678   49.5701 H   0  0  0  0  0  0  0  0  0  0  0  0
   46.6118   28.4476   47.4229 H   0  0  0  0  0  0  0  0  0  0  0  0
   49.6001   29.0220   45.8796 H   0  0  0  0  0  0  0  0  0  0  0  0
   47.5400   29.7670   44.9904 H   0  0  0  0  0  0  0  0  0  0  0  0
   46.7500   33.7725   46.6075 H   0  0  0  0  0  0  0  0  0  0  0  0
   48.0415   32.5601   46.2044 H   0  0  0  0  0  0  0  0  0  0  0  0
   47.2915   32.4360   44.1279 H   0  0  0  0  0  0  0  0  0  0  0  0
   45.6926   31.8939   44.7248 H   0  0  0  0  0  0  0  0  0  0  0  0
   43.8605   36.3352   45.5783 H   0  0  0  0  0  0  0  0  0  0  0  0
   44.4359   37.3568   43.3224 H   0  0  0  0  0  0  0  0  0  0  0  0
   45.9931   36.0794   41.8281 H   0  0  0  0  0  0  0  0  0  0  0  0
   44.9528   27.7569   49.2893 H   0  0  0  0  0  0  0  0  0  0  0  0
  1  2  2  0
  2  3  1  0
  4  3  2  0
  4 18  1  0
  5  4  1  0
  6  1  1  0
  6  5  2  0
  7  8  2  0
  9  7  1  0
  9  6  1  0
 10  1  1  0
 11 10  1  0
 12 17  2  0
 13 12  1  0
 14 15  1  0
 14 13  2  0
 15 16  2  0
 16 11  1  0
 16 17  1  0
  2 19  1  0
  3 20  1  0
  5 21  1  0
  7 22  1  0
  9 23  1  0
 10 24  1  0
 10 25  1  0
 11 26  1  0
 11 27  1  0
 12 28  1  0
 13 29  1  0
 14 30  1  0
 18 31  1  0
M  ISO  8  19  14  20  14  21  14  22   6  24   8  25   8  26   8  27   8
M  ISO  4  28  14  29  14  30  14  31   3
M  END
>  <minimizedAffinity>  (1) 
-4.56625509

>  <minimizedRMSD>  (1) 
0.497772962

$$$$
