
     RDKit          3D

 43 45  0  0  1  0  0  0  0  0999 V2000
   46.8530   31.3990   46.2730 C   0  0  0  0  0  0  0  0  0  0  0  0
   46.5090   32.6500   45.8200 C   0  0  0  0  0  0  0  0  0  0  0  0
   46.8880   33.1580   44.6100 C   0  0  0  0  0  0  0  0  0  0  0  0
   47.6480   32.3970   43.8010 C   0  0  0  0  0  0  0  0  0  0  0  0
   48.0200   31.1100   44.2260 C   0  0  0  0  0  0  0  0  0  0  0  0
   47.6210   30.6240   45.4520 C   0  0  0  0  0  0  0  0  0  0  0  0
   47.4440   28.3140   44.7620 C   0  0  0  0  0  0  0  0  0  0  0  0
   46.3910   28.1910   44.0320 O   0  0  0  0  0  0  0  0  0  0  0  0
   48.1590   29.2990   45.5250 N   0  0  0  0  0  0  0  0  0  0  0  0
   47.7960   34.5100   42.5020 C   0  0  1  0  0  0  0  0  0  0  0  0
   48.0280   33.0240   42.4870 C   0  0  1  0  0  0  0  0  0  0  0  0
   49.3320   32.7830   42.1530 O   0  0  0  0  0  0  0  0  0  0  0  0
   50.0690   33.9310   42.2070 C   0  0  0  0  0  0  0  0  0  0  0  0
   49.1620   35.0970   42.3870 C   0  0  1  0  0  0  0  0  0  0  0  0
   47.0760   34.8540   41.3670 O   0  0  0  0  0  0  0  0  0  0  0  0
   49.2920   35.9320   41.2640 O   0  0  0  0  0  0  0  0  0  0  0  0
   46.5340   30.7500   47.5430 C   0  0  0  0  0  0  0  0  0  0  0  0
   45.0590   30.4830   47.6750 C   0  0  0  0  0  0  0  0  0  0  0  0
   43.6240   27.5910   45.9540 C   0  0  0  0  0  0  0  0  0  0  0  0
   44.3170   26.5060   46.5300 C   0  0  0  0  0  0  0  0  0  0  0  0
   45.2740   26.8280   47.5060 C   0  0  0  0  0  0  0  0  0  0  0  0
   45.4880   28.1130   47.8460 N   0  0  0  0  0  0  0  0  0  0  0  0
   44.7850   29.1010   47.2490 C   0  0  0  0  0  0  0  0  0  0  0  0
   43.8810   28.8640   46.3340 N   0  0  0  0  0  0  0  0  0  0  0  0
   45.8893   33.2821   46.4730 H   0  0  0  0  0  0  0  0  0  0  0  0
   46.5785   34.1680   44.3032 H   0  0  0  0  0  0  0  0  0  0  0  0
   48.6393   30.4810   43.5697 H   0  0  0  0  0  0  0  0  0  0  0  0
   47.9680   27.3486   44.8209 H   0  0  0  0  0  0  0  0  0  0  0  0
   48.9946   29.0697   46.0819 H   0  0  0  0  0  0  0  0  0  0  0  0
   47.2521   34.8517   43.3950 H   0  0  0  0  0  0  0  0  0  0  0  0
   47.3807   32.5563   41.7305 H   0  0  0  0  0  0  0  0  0  0  0  0
   50.7691   33.8774   43.0537 H   0  0  0  0  0  0  0  0  0  0  0  0
   50.6335   34.0478   41.2701 H   0  0  0  0  0  0  0  0  0  0  0  0
   49.3869   35.7096   43.2726 H   0  0  0  0  0  0  0  0  0  0  0  0
   46.2158   35.2650   41.6339 H   0  0  0  0  0  0  0  0  0  0  0  0
   49.4373   36.8650   41.5615 H   0  0  0  0  0  0  0  0  0  0  0  0
   47.0761   29.7946   47.6015 H   0  0  0  0  0  0  0  0  0  0  0  0
   46.8354   31.4240   48.3584 H   0  0  0  0  0  0  0  0  0  0  0  0
   44.7523   30.6140   48.7232 H   0  0  0  0  0  0  0  0  0  0  0  0
   44.4949   31.1862   47.0447 H   0  0  0  0  0  0  0  0  0  0  0  0
   42.8625   27.3993   45.1837 H   0  0  0  0  0  0  0  0  0  0  0  0
   44.1190   25.4660   46.2315 H   0  0  0  0  0  0  0  0  0  0  0  0
   45.8503   26.0282   47.9940 H   0  0  0  0  0  0  0  0  0  0  0  0
  1 17  1  0
  2  1  2  0
  3  2  1  0
  4  5  1  0
  4  3  2  0
  5  6  2  0
  6  9  1  0
  6  1  1  0
  7  9  1  0
  8  7  2  0
 10 15  1  0
 11 10  1  0
 11  4  1  0
 12 13  1  0
 12 11  1  0
 13 14  1  0
 14 16  1  0
 14 10  1  0
 17 18  1  0
 19 24  2  0
 19 20  1  0
 20 21  2  0
 21 22  1  0
 23 18  1  0
 23 22  2  0
 24 23  1  0
  2 25  1  0
  3 26  1  0
  5 27  1  0
  7 28  1  0
  9 29  1  0
 10 30  1  1
 11 31  1  6
 13 32  1  0
 13 33  1  0
 14 34  1  1
 15 35  1  0
 16 36  1  0
 17 37  1  0
 17 38  1  0
 18 39  1  0
 18 40  1  0
 19 41  1  0
 20 42  1  0
 21 43  1  0
M  ISO  8  25  14  26  14  27  14  28   6  30  13  31  13  32  13  33  13
M  ISO  8  34  13  35   3  36   3  37   8  38   8  39   8  40   8  41  14
M  ISO  2  42  14  43  14
M  END
>  <minimizedAffinity>  (1) 
-4.48854589

>  <minimizedRMSD>  (1) 
7.91498041

$$$$
