
     RDKit          3D

 32 33  0  0  0  0  0  0  0  0999 V2000
   46.3780   30.9760   46.9270 C   0  0  0  0  0  0  0  0  0  0  0  0
   45.0690   30.5670   46.9270 C   0  0  0  0  0  0  0  0  0  0  0  0
   44.6840   29.2870   47.2190 C   0  0  0  0  0  0  0  0  0  0  0  0
   45.6390   28.3760   47.5220 C   0  0  0  0  0  0  0  0  0  0  0  0
   46.9720   28.7660   47.5280 C   0  0  0  0  0  0  0  0  0  0  0  0
   47.3410   30.0640   47.2320 C   0  0  0  0  0  0  0  0  0  0  0  0
   49.2650   30.3370   48.6720 C   0  0  0  0  0  0  0  0  0  0  0  0
   48.8480   30.6130   49.8570 O   0  0  0  0  0  0  0  0  0  0  0  0
   48.7670   30.1080   47.3460 N   0  0  0  0  0  0  0  0  0  0  0  0
   46.9320   32.3030   46.6210 C   0  0  0  0  0  0  0  0  0  0  0  0
   46.9840   32.5590   45.1410 C   0  0  0  0  0  0  0  0  0  0  0  0
   44.6010   35.3340   45.4430 C   0  0  0  0  0  0  0  0  0  0  0  0
   44.7210   35.9660   44.1760 C   0  0  0  0  0  0  0  0  0  0  0  0
   45.6200   35.4100   43.2750 C   0  0  0  0  0  0  0  0  0  0  0  0
   46.3290   34.3200   43.6150 N   0  0  0  0  0  0  0  0  0  0  0  0
   46.1770   33.7560   44.8350 C   0  0  0  0  0  0  0  0  0  0  0  0
   45.3470   34.2340   45.7280 N   0  0  0  0  0  0  0  0  0  0  0  0
   45.1960   26.9930   47.8340 C   0  0  0  0  0  0  0  0  0  0  0  0
   44.4480   26.8420   48.8030 O   0  0  0  0  0  0  0  0  0  0  0  0
   44.2906   31.3040   46.6802 H   0  0  0  0  0  0  0  0  0  0  0  0
   43.6211   29.0039   47.2079 H   0  0  0  0  0  0  0  0  0  0  0  0
   47.7490   28.0270   47.7732 H   0  0  0  0  0  0  0  0  0  0  0  0
   50.3613   30.2472   48.6766 H   0  0  0  0  0  0  0  0  0  0  0  0
   49.3902   29.9843   46.5353 H   0  0  0  0  0  0  0  0  0  0  0  0
   46.3002   33.0699   47.0929 H   0  0  0  0  0  0  0  0  0  0  0  0
   47.9598   32.3423   47.0108 H   0  0  0  0  0  0  0  0  0  0  0  0
   48.0261   32.7271   44.8316 H   0  0  0  0  0  0  0  0  0  0  0  0
   46.5835   31.6903   44.5979 H   0  0  0  0  0  0  0  0  0  0  0  0
   43.9041   35.7351   46.1936 H   0  0  0  0  0  0  0  0  0  0  0  0
   44.1280   36.8564   43.9200 H   0  0  0  0  0  0  0  0  0  0  0  0
   45.7520   35.8627   42.2812 H   0  0  0  0  0  0  0  0  0  0  0  0
   45.5222   26.1371   47.2248 H   0  0  0  0  0  0  0  0  0  0  0  0
  1  6  1  0
  2  1  2  0
  2  3  1  0
  3  4  2  0
  4  5  1  0
  4 18  1  0
  6  9  1  0
  6  5  2  0
  7  8  2  0
  9  7  1  0
 10  1  1  0
 11 10  1  0
 12 17  2  0
 13 12  1  0
 14 15  1  0
 14 13  2  0
 15 16  2  0
 16 11  1  0
 16 17  1  0
 18 19  2  0
  2 20  1  0
  3 21  1  0
  5 22  1  0
  7 23  1  0
  9 24  1  0
 10 25  1  0
 10 26  1  0
 11 27  1  0
 11 28  1  0
 12 29  1  0
 13 30  1  0
 14 31  1  0
 18 32  1  0
M  ISO  8  20  14  21  14  22  14  23   6  25   8  26   8  27   8  28   8
M  ISO  4  29  14  30  14  31  14  32   6
M  END
>  <minimizedAffinity>  (1) 
-4.43343687

>  <minimizedRMSD>  (1) 
1.9398427

$$$$
