
     RDKit          3D

 26 27  0  0  0  0  0  0  0  0999 V2000
   46.5820   32.7320   45.1060 C   0  0  0  0  0  0  0  0  0  0  0  0
   44.5620   35.7860   44.5710 C   0  0  0  0  0  0  0  0  0  0  0  0
   45.0060   36.2170   43.3010 C   0  0  0  0  0  0  0  0  0  0  0  0
   45.9800   35.4450   42.6890 C   0  0  0  0  0  0  0  0  0  0  0  0
   46.4590   34.3290   43.3210 N   0  0  0  0  0  0  0  0  0  0  0  0
   45.9880   33.9670   44.5470 C   0  0  0  0  0  0  0  0  0  0  0  0
   45.0490   34.6880   45.1660 N   0  0  0  0  0  0  0  0  0  0  0  0
   46.6640   32.9610   46.6160 C   0  0  0  0  0  0  0  0  0  0  0  0
   45.8380   32.8090   49.3610 F   0  0  0  0  0  0  0  0  0  0  0  0
   45.6880   31.7050   48.5560 C   0  0  0  0  0  0  0  0  0  0  0  0
   46.0640   31.7350   47.2310 C   0  0  0  0  0  0  0  0  0  0  0  0
   45.8980   30.5940   46.4360 C   0  0  0  0  0  0  0  0  0  0  0  0
   45.3510   29.4770   47.0510 C   0  0  0  0  0  0  0  0  0  0  0  0
   44.9840   29.4710   48.3700 C   0  0  0  0  0  0  0  0  0  0  0  0
   45.1460   30.5960   49.1580 C   0  0  0  0  0  0  0  0  0  0  0  0
   47.5858   32.5656   44.6880 H   0  0  0  0  0  0  0  0  0  0  0  0
   45.9801   31.8444   44.8614 H   0  0  0  0  0  0  0  0  0  0  0  0
   43.7893   36.3722   45.0900 H   0  0  0  0  0  0  0  0  0  0  0  0
   44.5989   37.1199   42.8223 H   0  0  0  0  0  0  0  0  0  0  0  0
   46.3671   35.7276   41.6989 H   0  0  0  0  0  0  0  0  0  0  0  0
   47.7110   33.0785   46.9322 H   0  0  0  0  0  0  0  0  0  0  0  0
   46.1359   33.8759   46.9228 H   0  0  0  0  0  0  0  0  0  0  0  0
   46.1874   30.5839   45.3748 H   0  0  0  0  0  0  0  0  0  0  0  0
   45.2069   28.5625   46.4569 H   0  0  0  0  0  0  0  0  0  0  0  0
   44.5543   28.5586   48.8092 H   0  0  0  0  0  0  0  0  0  0  0  0
   44.8540   30.6022   50.2185 H   0  0  0  0  0  0  0  0  0  0  0  0
  1  8  1  0
  2  7  2  0
  3  2  1  0
  4  3  2  0
  4  5  1  0
  5  6  2  0
  6  1  1  0
  6  7  1  0
  8 11  1  0
 10 15  2  0
 10  9  1  0
 11 10  1  0
 12 13  1  0
 12 11  2  0
 13 14  2  0
 14 15  1  0
  1 16  1  0
  1 17  1  0
  2 18  1  0
  3 19  1  0
  4 20  1  0
  8 21  1  0
  8 22  1  0
 12 23  1  0
 13 24  1  0
 14 25  1  0
 15 26  1  0
M  ISO  8  16   8  17   8  18  14  19  14  20  14  21   8  22   8  23  14
M  ISO  3  24  14  25  14  26  14
M  END
>  <minimizedAffinity>  (1) 
-4.88821316

>  <minimizedRMSD>  (1) 
1.4991554

$$$$
