
     RDKit          3D

 18 18  0  0  0  0  0  0  0  0999 V2000
   45.3160   33.0880   44.0220 C   0  0  0  0  0  0  0  0  0  0  0  0
   45.5990   31.7220   44.0170 C   0  0  0  0  0  0  0  0  0  0  0  0
   46.2270   31.1740   45.1220 C   0  0  0  0  0  0  0  0  0  0  0  0
   46.5360   32.0060   46.1550 N   0  0  0  0  0  0  0  0  0  0  0  0
   46.2550   33.3180   46.1380 C   0  0  0  0  0  0  0  0  0  0  0  0
   45.6400   33.8590   45.0630 N   0  0  0  0  0  0  0  0  0  0  0  0
   45.2040   31.0080   42.8510 N   0  0  0  0  0  0  0  0  0  0  0  0
   44.6850   33.6940   42.9410 O   0  0  0  0  0  0  0  0  0  0  0  0
   43.6340   35.6580   41.4740 O   0  0  0  0  0  0  0  0  0  0  0  0
   44.3670   35.3280   42.7630 P   0  0  0  0  0  0  0  0  0  0  0  0
   45.7810   36.2140   42.9400 O   0  0  0  0  0  0  0  0  0  0  0  0
   43.2860   35.7820   44.0080 O   0  0  0  0  0  0  0  0  0  0  0  0
   46.4686   30.1017   45.1645 H   0  0  0  0  0  0  0  0  0  0  0  0
   46.5243   33.9511   46.9962 H   0  0  0  0  0  0  0  0  0  0  0  0
   45.3829   29.9960   42.7815 H   0  0  0  0  0  0  0  0  0  0  0  0
   44.7392   31.5032   42.0766 H   0  0  0  0  0  0  0  0  0  0  0  0
   45.9756   36.3360   43.9030 H   0  0  0  0  0  0  0  0  0  0  0  0
   43.7039   35.6065   44.8881 H   0  0  0  0  0  0  0  0  0  0  0  0
  1  6  2  0
  2  1  1  0
  2  3  2  0
  3  4  1  0
  5  4  2  0
  6  5  1  0
  7  2  1  0
  8  1  1  0
  9 10  2  0
 10 11  1  0
 10  8  1  0
 10 12  1  0
  3 13  1  0
  5 14  1  0
  7 15  1  0
  7 16  1  0
 11 17  1  0
 12 18  1  0
M  ISO  4  13  14  14  14  17   3  18   3
M  END
>  <minimizedAffinity>  (1) 
-3.47810793

>  <minimizedRMSD>  (1) 
3.58062291

$$$$
