
     RDKit          3D

 13 13  0  0  0  0  0  0  0  0999 V2000
   44.8100   35.6250   44.2410 C   0  0  0  0  0  0  0  0  0  0  0  0
   44.3760   35.2290   42.9570 C   0  0  0  0  0  0  0  0  0  0  0  0
   44.5170   33.8970   42.6080 C   0  0  0  0  0  0  0  0  0  0  0  0
   45.0600   33.0500   43.5100 N   0  0  0  0  0  0  0  0  0  0  0  0
   45.4690   33.4600   44.7390 C   0  0  0  0  0  0  0  0  0  0  0  0
   45.3430   34.7540   45.1050 N   0  0  0  0  0  0  0  0  0  0  0  0
   43.8280   36.2540   42.1360 N   0  0  0  0  0  0  0  0  0  0  0  0
   44.7130   36.9410   44.6900 O   0  0  0  0  0  0  0  0  0  0  0  0
   44.1947   33.5366   41.6200 H   0  0  0  0  0  0  0  0  0  0  0  0
   45.9055   32.7336   45.4403 H   0  0  0  0  0  0  0  0  0  0  0  0
   43.4930   36.0305   41.1880 H   0  0  0  0  0  0  0  0  0  0  0  0
   43.7664   37.2194   42.4898 H   0  0  0  0  0  0  0  0  0  0  0  0
   44.3280   37.6377   44.1014 H   0  0  0  0  0  0  0  0  0  0  0  0
  1  8  1  0
  1  6  2  0
  2  1  1  0
  3  2  2  0
  3  4  1  0
  4  5  2  0
  5  6  1  0
  7  2  1  0
  3  9  1  0
  5 10  1  0
  7 11  1  0
  7 12  1  0
  8 13  1  0
M  ISO  3   9  14  10  14  13   3
M  END
>  <minimizedAffinity>  (1) 
-3.09455633

>  <minimizedRMSD>  (1) 
0.789775014

$$$$
