
     RDKit          3D

 15 15  0  0  0  0  0  0  0  0999 V2000
   44.7150   34.9380   43.7170 C   0  0  0  0  0  0  0  0  0  0  0  0
   44.1630   34.8480   42.4400 C   0  0  0  0  0  0  0  0  0  0  0  0
   44.1930   33.6440   41.7570 C   0  0  0  0  0  0  0  0  0  0  0  0
   44.7740   32.6000   42.3890 N   0  0  0  0  0  0  0  0  0  0  0  0
   45.3020   32.7010   43.6200 C   0  0  0  0  0  0  0  0  0  0  0  0
   45.2830   33.8680   44.3070 N   0  0  0  0  0  0  0  0  0  0  0  0
   43.5940   36.0610   41.9420 N   0  0  0  0  0  0  0  0  0  0  0  0
   44.7000   36.2170   44.4810 C   0  0  0  0  0  0  0  0  0  0  0  0
   43.7648   33.5420   40.7489 H   0  0  0  0  0  0  0  0  0  0  0  0
   45.7610   31.8142   44.0814 H   0  0  0  0  0  0  0  0  0  0  0  0
   43.1647   36.0822   41.0060 H   0  0  0  0  0  0  0  0  0  0  0  0
   43.6133   36.9139   42.5192 H   0  0  0  0  0  0  0  0  0  0  0  0
   44.7025   36.0000   45.5594 H   0  0  0  0  0  0  0  0  0  0  0  0
   45.5913   36.8082   44.2238 H   0  0  0  0  0  0  0  0  0  0  0  0
   43.7951   36.7871   44.2238 H   0  0  0  0  0  0  0  0  0  0  0  0
  1  6  2  0
  1  8  1  0
  2  1  1  0
  3  4  1  0
  3  2  2  0
  4  5  2  0
  5  6  1  0
  7  2  1  0
  3  9  1  0
  5 10  1  0
  7 11  1  0
  7 12  1  0
  8 13  1  0
  8 14  1  0
  8 15  1  0
M  ISO  5   9  14  10  14  13   8  14   8  15   8
M  END
>  <minimizedAffinity>  (1) 
-2.60244679

>  <minimizedRMSD>  (1) 
1.65688777

$$$$
