
     RDKit          3D

 30 32  0  0  0  0  0  0  0  0999 V2000
   44.6420   34.6530   41.8710 C   0  0  0  0  0  0  0  0  0  0  0  0
   44.4040   33.4380   42.2620 O   0  0  0  0  0  0  0  0  0  0  0  0
   45.5030   35.3510   42.7360 N   0  0  0  0  0  0  0  0  0  0  0  0
   43.8060   34.4660   40.7260 C   0  0  0  0  0  0  0  0  0  0  0  0
   44.5540   33.7260   39.8890 N   0  0  0  0  0  0  0  0  0  0  0  0
   44.0730   33.3460   38.6690 C   0  0  0  0  0  0  0  0  0  0  0  0
   42.8400   33.7460   38.3690 N   0  0  0  0  0  0  0  0  0  0  0  0
   42.0610   34.4800   39.1670 C   0  0  0  0  0  0  0  0  0  0  0  0
   40.7720   34.9050   38.8650 C   0  0  0  0  0  0  0  0  0  0  0  0
   40.0450   35.6730   39.7810 C   0  0  0  0  0  0  0  0  0  0  0  0
   40.6380   36.0060   41.0040 C   0  0  0  0  0  0  0  0  0  0  0  0
   41.9120   35.5990   41.3270 C   0  0  0  0  0  0  0  0  0  0  0  0
   42.5570   34.8520   40.3810 C   0  0  0  0  0  0  0  0  0  0  0  0
   45.8480   34.5010   43.8340 C   0  0  0  0  0  0  0  0  0  0  0  0
   45.2490   34.5110   45.1020 C   0  0  0  0  0  0  0  0  0  0  0  0
   45.7360   33.6100   46.0290 C   0  0  0  0  0  0  0  0  0  0  0  0
   46.7350   32.7980   45.6600 N   0  0  0  0  0  0  0  0  0  0  0  0
   47.3050   32.7950   44.4380 C   0  0  0  0  0  0  0  0  0  0  0  0
   46.8610   33.6560   43.5070 N   0  0  0  0  0  0  0  0  0  0  0  0
   44.2070   35.4470   45.2880 N   0  0  0  0  0  0  0  0  0  0  0  0
   45.8321   36.3176   42.6011 H   0  0  0  0  0  0  0  0  0  0  0  0
   44.6723   32.7419   37.9719 H   0  0  0  0  0  0  0  0  0  0  0  0
   40.3205   34.6354   37.8988 H   0  0  0  0  0  0  0  0  0  0  0  0
   39.0248   36.0093   39.5439 H   0  0  0  0  0  0  0  0  0  0  0  0
   40.0699   36.6098   41.7270 H   0  0  0  0  0  0  0  0  0  0  0  0
   42.3824   35.8586   42.2869 H   0  0  0  0  0  0  0  0  0  0  0  0
   45.3143   33.5608   47.0437 H   0  0  0  0  0  0  0  0  0  0  0  0
   48.1228   32.0968   44.2064 H   0  0  0  0  0  0  0  0  0  0  0  0
   43.7244   35.5067   46.1960 H   0  0  0  0  0  0  0  0  0  0  0  0
   43.9300   36.0696   44.5156 H   0  0  0  0  0  0  0  0  0  0  0  0
  1  2  2  0
  1  3  1  0
  3 14  1  0
  4  1  1  0
  5  4  2  0
  6  5  1  0
  7  6  2  0
  7  8  1  0
  8 13  2  0
  9  8  1  0
  9 10  2  0
 10 11  1  0
 11 12  2  0
 13  4  1  0
 13 12  1  0
 14 15  2  0
 15 20  1  0
 15 16  1  0
 17 16  2  0
 18 17  1  0
 19 14  1  0
 19 18  2  0
  3 21  1  0
  6 22  1  0
  9 23  1  0
 10 24  1  0
 11 25  1  0
 12 26  1  0
 16 27  1  0
 18 28  1  0
 20 29  1  0
 20 30  1  0
M  ISO  7  22  14  23  14  24  14  25  14  26  14  27  14  28  14
M  END
>  <minimizedAffinity>  (1) 
-6.17524815

>  <minimizedRMSD>  (1) 
1.81665373

$$$$
