
     RDKit          3D

 26 27  0  0  0  0  0  0  0  0999 V2000
   42.5340   34.3950   40.7910 C   0  0  0  0  0  0  0  0  0  0  0  0
   42.8710   33.4380   41.5600 O   0  0  0  0  0  0  0  0  0  0  0  0
   43.5350   35.4050   40.7770 N   0  0  0  0  0  0  0  0  0  0  0  0
   39.8310   34.3110   41.8070 F   0  0  0  0  0  0  0  0  0  0  0  0
   39.9940   34.3700   40.4710 C   0  0  0  0  0  0  0  0  0  0  0  0
   41.2840   34.4070   40.0490 C   0  0  0  0  0  0  0  0  0  0  0  0
   41.4220   34.4680   38.6600 C   0  0  0  0  0  0  0  0  0  0  0  0
   40.3330   34.4860   37.8320 C   0  0  0  0  0  0  0  0  0  0  0  0
   39.0410   34.4480   38.2960 C   0  0  0  0  0  0  0  0  0  0  0  0
   38.8950   34.3870   39.6630 C   0  0  0  0  0  0  0  0  0  0  0  0
   44.6180   35.0370   41.6500 C   0  0  0  0  0  0  0  0  0  0  0  0
   44.6600   35.2190   43.0270 C   0  0  0  0  0  0  0  0  0  0  0  0
   45.8110   34.7860   43.6750 C   0  0  0  0  0  0  0  0  0  0  0  0
   46.7880   34.2310   42.9400 N   0  0  0  0  0  0  0  0  0  0  0  0
   46.7290   34.0620   41.6070 C   0  0  0  0  0  0  0  0  0  0  0  0
   45.6310   34.4690   40.9470 N   0  0  0  0  0  0  0  0  0  0  0  0
   43.5170   35.8260   43.5930 N   0  0  0  0  0  0  0  0  0  0  0  0
   43.4912   36.2724   40.2233 H   0  0  0  0  0  0  0  0  0  0  0  0
   42.4303   34.5024   38.2217 H   0  0  0  0  0  0  0  0  0  0  0  0
   40.4998   34.5330   36.7457 H   0  0  0  0  0  0  0  0  0  0  0  0
   38.1760   34.4653   37.6167 H   0  0  0  0  0  0  0  0  0  0  0  0
   37.8886   34.3518   40.1057 H   0  0  0  0  0  0  0  0  0  0  0  0
   45.9189   34.8954   44.7642 H   0  0  0  0  0  0  0  0  0  0  0  0
   47.5663   33.5979   41.0653 H   0  0  0  0  0  0  0  0  0  0  0  0
   43.4728   35.9946   44.6081 H   0  0  0  0  0  0  0  0  0  0  0  0
   42.7277   36.1000   42.9906 H   0  0  0  0  0  0  0  0  0  0  0  0
  1  2  2  0
  3  1  1  0
  3 11  1  0
  5  4  1  0
  6  5  2  0
  6  1  1  0
  7  6  1  0
  8  9  1  0
  8  7  2  0
  9 10  2  0
 10  5  1  0
 11 12  2  0
 12 17  1  0
 12 13  1  0
 14 13  2  0
 15 14  1  0
 16 15  2  0
 16 11  1  0
  3 18  1  0
  7 19  1  0
  8 20  1  0
  9 21  1  0
 10 22  1  0
 13 23  1  0
 15 24  1  0
 17 25  1  0
 17 26  1  0
M  ISO  6  19  14  20  14  21  14  22  14  23  14  24  14
M  END
>  <minimizedAffinity>  (1) 
-5.79752636

>  <minimizedRMSD>  (1) 
3.92235613

$$$$
