
     RDKit          3D

 29 31  0  0  0  0  0  0  0  0999 V2000
   42.9670   34.3880   40.8080 C   0  0  0  0  0  0  0  0  0  0  0  0
   43.2160   33.3910   41.5610 O   0  0  0  0  0  0  0  0  0  0  0  0
   43.8830   35.4770   41.0090 N   0  0  0  0  0  0  0  0  0  0  0  0
   41.9370   35.3350   38.8650 C   0  0  0  0  0  0  0  0  0  0  0  0
   41.8820   34.3970   39.8680 C   0  0  0  0  0  0  0  0  0  0  0  0
   40.8620   33.4840   40.0170 C   0  0  0  0  0  0  0  0  0  0  0  0
   39.8550   33.5760   39.0500 C   0  0  0  0  0  0  0  0  0  0  0  0
   38.7210   32.8300   38.9140 N   0  0  0  0  0  0  0  0  0  0  0  0
   38.0250   33.2500   37.8470 C   0  0  0  0  0  0  0  0  0  0  0  0
   38.7240   34.2670   37.3070 N   0  0  0  0  0  0  0  0  0  0  0  0
   39.8410   34.5010   38.0010 C   0  0  0  0  0  0  0  0  0  0  0  0
   40.9130   35.3910   37.9230 C   0  0  0  0  0  0  0  0  0  0  0  0
   44.8240   35.0960   42.0420 C   0  0  0  0  0  0  0  0  0  0  0  0
   44.6040   35.2200   43.4020 C   0  0  0  0  0  0  0  0  0  0  0  0
   45.6210   34.8030   44.2370 C   0  0  0  0  0  0  0  0  0  0  0  0
   46.7390   34.3110   43.6770 N   0  0  0  0  0  0  0  0  0  0  0  0
   46.9270   34.2020   42.3560 C   0  0  0  0  0  0  0  0  0  0  0  0
   45.9500   34.6020   41.5050 N   0  0  0  0  0  0  0  0  0  0  0  0
   43.3520   35.7650   43.7980 N   0  0  0  0  0  0  0  0  0  0  0  0
   43.8722   36.3750   40.5046 H   0  0  0  0  0  0  0  0  0  0  0  0
   42.7829   36.0357   38.8068 H   0  0  0  0  0  0  0  0  0  0  0  0
   40.8406   32.7430   40.8297 H   0  0  0  0  0  0  0  0  0  0  0  0
   38.4411   32.0594   39.5375 H   0  0  0  0  0  0  0  0  0  0  0  0
   37.0697   32.8432   37.4838 H   0  0  0  0  0  0  0  0  0  0  0  0
   40.9492   36.1379   37.1162 H   0  0  0  0  0  0  0  0  0  0  0  0
   45.5191   34.8715   45.3301 H   0  0  0  0  0  0  0  0  0  0  0  0
   47.8685   33.7904   41.9633 H   0  0  0  0  0  0  0  0  0  0  0  0
   43.1337   35.8804   44.7980 H   0  0  0  0  0  0  0  0  0  0  0  0
   42.6633   36.0444   43.0849 H   0  0  0  0  0  0  0  0  0  0  0  0
  1  3  1  0
  1  2  2  0
  3 13  1  0
  4  5  2  0
  5  6  1  0
  5  1  1  0
  7  6  2  0
  8  7  1  0
  9  8  1  0
 10  9  2  0
 10 11  1  0
 11  7  1  0
 12 11  2  0
 12  4  1  0
 13 14  2  0
 14 19  1  0
 14 15  1  0
 16 15  2  0
 17 16  1  0
 18 13  1  0
 18 17  2  0
  3 20  1  0
  4 21  1  0
  6 22  1  0
  8 23  1  0
  9 24  1  0
 12 25  1  0
 15 26  1  0
 17 27  1  0
 19 28  1  0
 19 29  1  0
M  ISO  7  21  14  22  14  23   9  24  14  25  14  26  14  27  14
M  END
>  <minimizedAffinity>  (1) 
-5.7137785

>  <minimizedRMSD>  (1) 
3.76613522

$$$$
