
     RDKit          3D

 30 31  0  0  0  0  0  0  0  0999 V2000
   42.0150   33.9040   41.2670 C   0  0  0  0  0  0  0  0  0  0  0  0
   42.7850   32.9950   41.6780 O   0  0  0  0  0  0  0  0  0  0  0  0
   42.6460   35.2050   41.2800 N   0  0  0  0  0  0  0  0  0  0  0  0
   40.6730   33.7440   40.8280 N   0  0  0  0  0  0  0  0  0  0  0  0
   39.7380   32.9110   41.5960 C   0  0  0  0  0  0  0  0  0  0  0  0
   38.5610   32.5040   40.7290 C   0  0  0  0  0  0  0  0  0  0  0  0
   38.0470   33.7230   40.0880 N   0  0  0  0  0  0  0  0  0  0  0  0
   38.9990   34.0780   39.0560 C   0  0  0  0  0  0  0  0  0  0  0  0
   40.3410   34.4500   39.6060 C   0  0  0  0  0  0  0  0  0  0  0  0
   43.9980   35.0530   41.7890 C   0  0  0  0  0  0  0  0  0  0  0  0
   44.4080   35.3330   43.0770 C   0  0  0  0  0  0  0  0  0  0  0  0
   45.7480   35.1220   43.3730 C   0  0  0  0  0  0  0  0  0  0  0  0
   46.5380   34.6620   42.3820 N   0  0  0  0  0  0  0  0  0  0  0  0
   46.1140   34.3990   41.1360 C   0  0  0  0  0  0  0  0  0  0  0  0
   44.8190   34.5900   40.8110 N   0  0  0  0  0  0  0  0  0  0  0  0
   43.4100   35.8060   43.9570 N   0  0  0  0  0  0  0  0  0  0  0  0
   42.2109   36.0889   40.9795 H   0  0  0  0  0  0  0  0  0  0  0  0
   40.2599   32.0083   41.9464 H   0  0  0  0  0  0  0  0  0  0  0  0
   39.3666   33.4889   42.4551 H   0  0  0  0  0  0  0  0  0  0  0  0
   38.8885   31.7856   39.9631 H   0  0  0  0  0  0  0  0  0  0  0  0
   37.7788   32.0238   41.3353 H   0  0  0  0  0  0  0  0  0  0  0  0
   37.1220   33.5433   39.6721 H   0  0  0  0  0  0  0  0  0  0  0  0
   38.6015   34.9339   38.4909 H   0  0  0  0  0  0  0  0  0  0  0  0
   39.1375   33.1943   38.4157 H   0  0  0  0  0  0  0  0  0  0  0  0
   41.1053   34.2182   38.8496 H   0  0  0  0  0  0  0  0  0  0  0  0
   40.3098   35.5229   39.8465 H   0  0  0  0  0  0  0  0  0  0  0  0
   46.1496   35.3224   44.3773 H   0  0  0  0  0  0  0  0  0  0  0  0
   46.8221   34.0280   40.3804 H   0  0  0  0  0  0  0  0  0  0  0  0
   43.6494   36.0337   44.9326 H   0  0  0  0  0  0  0  0  0  0  0  0
   42.4426   35.9233   43.6233 H   0  0  0  0  0  0  0  0  0  0  0  0
  1  3  1  0
  1  2  2  0
  3 10  1  0
  4  1  1  0
  4  5  1  0
  6  5  1  0
  7  6  1  0
  8  9  1  0
  8  7  1  0
  9  4  1  0
 10 11  2  0
 11 12  1  0
 11 16  1  0
 13 12  2  0
 14 13  1  0
 15 14  2  0
 15 10  1  0
  3 17  1  0
  5 18  1  0
  5 19  1  0
  6 20  1  0
  6 21  1  0
  7 22  1  0
  8 23  1  0
  8 24  1  0
  9 25  1  0
  9 26  1  0
 12 27  1  0
 14 28  1  0
 16 29  1  0
 16 30  1  0
M  ISO  8  18  13  19  13  20  13  21  13  22   5  23  13  24  13  25  13
M  ISO  3  26  13  27  14  28  14
M  END
>  <minimizedAffinity>  (1) 
-5.48970175

>  <minimizedRMSD>  (1) 
4.18662834

$$$$
