
     RDKit          3D

 25 26  0  0  0  0  0  0  0  0999 V2000
   42.8370   34.5580   41.1640 C   0  0  0  0  0  0  0  0  0  0  0  0
   41.8930   35.2980   41.5520 O   0  0  0  0  0  0  0  0  0  0  0  0
   42.4030   33.5030   40.3100 N   0  0  0  0  0  0  0  0  0  0  0  0
   40.9590   33.6010   40.1620 C   0  0  0  0  0  0  0  0  0  0  0  0
   40.0250   33.0730   41.0300 C   0  0  0  0  0  0  0  0  0  0  0  0
   38.6910   33.2680   40.7230 C   0  0  0  0  0  0  0  0  0  0  0  0
   38.3950   33.9540   39.6080 N   0  0  0  0  0  0  0  0  0  0  0  0
   39.3290   34.4620   38.7760 C   0  0  0  0  0  0  0  0  0  0  0  0
   40.6290   34.2880   39.0490 N   0  0  0  0  0  0  0  0  0  0  0  0
   40.5420   32.3720   42.1640 N   0  0  0  0  0  0  0  0  0  0  0  0
   44.2470   34.7230   41.5240 C   0  0  0  0  0  0  0  0  0  0  0  0
   44.5410   35.4290   42.6730 C   0  0  0  0  0  0  0  0  0  0  0  0
   45.8990   35.5530   42.9640 C   0  0  0  0  0  0  0  0  0  0  0  0
   46.8580   34.9920   42.1350 C   0  0  0  0  0  0  0  0  0  0  0  0
   46.5020   34.2860   40.9840 C   0  0  0  0  0  0  0  0  0  0  0  0
   45.1830   34.1890   40.7390 N   0  0  0  0  0  0  0  0  0  0  0  0
   43.0077   32.7931   39.8727 H   0  0  0  0  0  0  0  0  0  0  0  0
   37.8964   32.8729   41.3729 H   0  0  0  0  0  0  0  0  0  0  0  0
   39.0236   35.0170   37.8768 H   0  0  0  0  0  0  0  0  0  0  0  0
   39.8966   31.9544   42.8495 H   0  0  0  0  0  0  0  0  0  0  0  0
   41.5599   32.2846   42.2953 H   0  0  0  0  0  0  0  0  0  0  0  0
   43.7593   35.8631   43.3138 H   0  0  0  0  0  0  0  0  0  0  0  0
   46.2134   36.1032   43.8631 H   0  0  0  0  0  0  0  0  0  0  0  0
   47.9222   35.1054   42.3893 H   0  0  0  0  0  0  0  0  0  0  0  0
   47.2540   33.8368   40.3186 H   0  0  0  0  0  0  0  0  0  0  0  0
  1 11  1  0
  1  2  2  0
  3  1  1  0
  4  3  1  0
  4  5  2  0
  5 10  1  0
  6  5  1  0
  7  6  2  0
  8  9  2  0
  8  7  1  0
  9  4  1  0
 11 12  2  0
 12 13  1  0
 14 13  2  0
 15 14  1  0
 16 15  2  0
 16 11  1  0
  3 17  1  0
  6 18  1  0
  8 19  1  0
 10 20  1  0
 10 21  1  0
 12 22  1  0
 13 23  1  0
 14 24  1  0
 15 25  1  0
M  ISO  6  18  14  19  14  22  14  23  14  24  14  25  14
M  END
>  <minimizedAffinity>  (1) 
-4.8119669

>  <minimizedRMSD>  (1) 
6.40926313

$$$$
