
     RDKit          3D

 29 30  0  0  0  0  0  0  0  0999 V2000
   44.5450   34.1730   40.8870 C   0  0  0  0  0  0  0  0  0  0  0  0
   43.7890   33.3950   41.5460 O   0  0  0  0  0  0  0  0  0  0  0  0
   43.8020   35.0450   40.0270 N   0  0  0  0  0  0  0  0  0  0  0  0
   42.3860   34.7730   40.2010 C   0  0  0  0  0  0  0  0  0  0  0  0
   41.6590   33.8260   39.5090 C   0  0  0  0  0  0  0  0  0  0  0  0
   40.3110   33.7170   39.8210 C   0  0  0  0  0  0  0  0  0  0  0  0
   39.8070   34.5270   40.7640 N   0  0  0  0  0  0  0  0  0  0  0  0
   40.5500   35.4460   41.4240 C   0  0  0  0  0  0  0  0  0  0  0  0
   41.8510   35.5830   41.1530 N   0  0  0  0  0  0  0  0  0  0  0  0
   42.3770   33.0700   38.5590 N   0  0  0  0  0  0  0  0  0  0  0  0
   46.8510   33.5770   40.0640 C   0  0  0  0  0  0  0  0  0  0  0  0
   46.0120   34.2590   40.9200 C   0  0  0  0  0  0  0  0  0  0  0  0
   46.4950   35.1040   41.9060 C   0  0  0  0  0  0  0  0  0  0  0  0
   47.8750   35.2800   42.0480 C   0  0  0  0  0  0  0  0  0  0  0  0
   48.6920   34.5920   41.1890 C   0  0  0  0  0  0  0  0  0  0  0  0
   48.2290   33.7420   40.1940 C   0  0  0  0  0  0  0  0  0  0  0  0
   46.1120   32.5470   38.8690 S   0  0  0  0  0  0  0  0  0  0  0  0
   45.4130   33.3950   37.8520 O   0  0  0  0  0  0  0  0  0  0  0  0
   47.2330   31.7970   38.1870 O   0  0  0  0  0  0  0  0  0  0  0  0
   44.2049   35.7479   39.3911 H   0  0  0  0  0  0  0  0  0  0  0  0
   39.6714   32.9841   39.3074 H   0  0  0  0  0  0  0  0  0  0  0  0
   40.0801   36.0834   42.1875 H   0  0  0  0  0  0  0  0  0  0  0  0
   43.3820   33.2439   38.4156 H   0  0  0  0  0  0  0  0  0  0  0  0
   41.8963   32.3441   38.0087 H   0  0  0  0  0  0  0  0  0  0  0  0
   45.7978   35.6328   42.5725 H   0  0  0  0  0  0  0  0  0  0  0  0
   48.2892   35.9454   42.8198 H   0  0  0  0  0  0  0  0  0  0  0  0
   49.7793   34.7211   41.2944 H   0  0  0  0  0  0  0  0  0  0  0  0
   48.9282   33.2147   39.5284 H   0  0  0  0  0  0  0  0  0  0  0  0
   45.2085   31.6923   39.4435 H   0  0  0  0  0  0  0  0  0  0  0  0
  1 12  1  0
  1  2  2  0
  3  4  1  0
  3  1  1  0
  4  9  2  0
  5  6  2  0
  5  4  1  0
  6  7  1  0
  7  8  2  0
  9  8  1  0
 10  5  1  0
 11 16  2  0
 11 12  1  0
 12 13  2  0
 13 14  1  0
 15 14  2  0
 16 15  1  0
 17 11  1  0
 18 17  2  0
 19 17  2  0
  3 20  1  0
  6 21  1  0
  8 22  1  0
 10 23  1  0
 10 24  1  0
 13 25  1  0
 14 26  1  0
 15 27  1  0
 16 28  1  0
 17 29  1  0
M  ISO  7  21  14  22  14  25  14  26  14  27  14  28  14  29  11
M  END
>  <minimizedAffinity>  (1) 
-4.64996099

>  <minimizedRMSD>  (1) 
6.61324453

$$$$
