
     RDKit          3D

 22 23  0  0  0  0  0  0  0  0999 V2000
   45.2360   34.6850   43.1620 C   0  0  0  0  0  0  0  0  0  0  0  0
   45.1330   34.7040   44.5410 C   0  0  0  0  0  0  0  0  0  0  0  0
   46.0920   33.9620   45.2280 C   0  0  0  0  0  0  0  0  0  0  0  0
   47.0230   33.3000   44.5300 N   0  0  0  0  0  0  0  0  0  0  0  0
   47.0870   33.3090   43.1790 C   0  0  0  0  0  0  0  0  0  0  0  0
   46.1790   34.0140   42.4710 N   0  0  0  0  0  0  0  0  0  0  0  0
   43.3790   34.4520   41.7350 C   0  0  0  0  0  0  0  0  0  0  0  0
   43.5820   33.2790   42.1970 O   0  0  0  0  0  0  0  0  0  0  0  0
   44.3430   35.3870   42.2630 N   0  0  0  0  0  0  0  0  0  0  0  0
   42.3600   34.9630   40.7950 C   0  0  0  0  0  0  0  0  0  0  0  0
   42.4200   34.7980   39.3910 C   0  0  0  0  0  0  0  0  0  0  0  0
   40.9120   35.6350   38.8590 S   0  0  0  0  0  0  0  0  0  0  0  0
   40.4300   36.0810   40.6430 C   0  0  0  0  0  0  0  0  0  0  0  0
   41.3800   35.5940   41.4120 N   0  0  0  0  0  0  0  0  0  0  0  0
   44.0800   35.4620   45.1030 N   0  0  0  0  0  0  0  0  0  0  0  0
   46.0841   33.9209   46.3272 H   0  0  0  0  0  0  0  0  0  0  0  0
   47.8753   32.7445   42.6595 H   0  0  0  0  0  0  0  0  0  0  0  0
   44.3887   36.3909   42.0372 H   0  0  0  0  0  0  0  0  0  0  0  0
   43.1849   34.2924   38.7833 H   0  0  0  0  0  0  0  0  0  0  0  0
   39.5366   36.6348   40.9671 H   0  0  0  0  0  0  0  0  0  0  0  0
   43.9650   35.5047   46.1257 H   0  0  0  0  0  0  0  0  0  0  0  0
   43.4279   35.9715   44.4897 H   0  0  0  0  0  0  0  0  0  0  0  0
  1  2  2  0
  2 15  1  0
  2  3  1  0
  4  3  2  0
  5  4  1  0
  6  1  1  0
  6  5  2  0
  7  8  2  0
  7  9  1  0
  9  1  1  0
 10 14  1  0
 10  7  1  0
 11 10  2  0
 12 11  1  0
 12 13  1  0
 13 14  2  0
  3 16  1  0
  5 17  1  0
  9 18  1  0
 11 19  1  0
 13 20  1  0
 15 21  1  0
 15 22  1  0
M  ISO  4  16  14  17  14  19  14  20  14
M  END
>  <minimizedAffinity>  (1) 
-4.38975286

>  <minimizedRMSD>  (1) 
2.21818089

$$$$
