
     RDKit          3D

 18 18  0  0  0  0  0  0  0  0999 V2000
   45.6440   34.6760   44.3960 C   0  0  0  0  0  0  0  0  0  0  0  0
   45.2780   34.3340   45.6850 C   0  0  0  0  0  0  0  0  0  0  0  0
   45.9420   33.2560   46.2530 C   0  0  0  0  0  0  0  0  0  0  0  0
   46.8800   32.6260   45.5200 N   0  0  0  0  0  0  0  0  0  0  0  0
   47.2120   32.9820   44.2690 C   0  0  0  0  0  0  0  0  0  0  0  0
   46.5870   34.0300   43.6810 N   0  0  0  0  0  0  0  0  0  0  0  0
   44.1740   35.2220   42.6590 C   0  0  0  0  0  0  0  0  0  0  0  0
   44.1130   33.9520   42.7200 O   0  0  0  0  0  0  0  0  0  0  0  0
   45.0710   35.7670   43.6290 N   0  0  0  0  0  0  0  0  0  0  0  0
   43.4590   36.0730   41.7520 N   0  0  0  0  0  0  0  0  0  0  0  0
   44.2730   35.1070   46.3010 N   0  0  0  0  0  0  0  0  0  0  0  0
   45.7083   32.9246   47.2755 H   0  0  0  0  0  0  0  0  0  0  0  0
   47.9882   32.4251   43.7238 H   0  0  0  0  0  0  0  0  0  0  0  0
   45.2766   36.7675   43.7617 H   0  0  0  0  0  0  0  0  0  0  0  0
   43.5876   37.0941   41.7941 H   0  0  0  0  0  0  0  0  0  0  0  0
   42.8171   35.6629   41.0587 H   0  0  0  0  0  0  0  0  0  0  0  0
   43.9697   34.8872   47.2605 H   0  0  0  0  0  0  0  0  0  0  0  0
   43.8419   35.8916   45.7916 H   0  0  0  0  0  0  0  0  0  0  0  0
  1  2  2  0
  2  3  1  0
  2 11  1  0
  4  3  2  0
  5  4  1  0
  6  5  2  0
  6  1  1  0
  7  8  2  0
  7  9  1  0
  9  1  1  0
 10  7  1  0
  3 12  1  0
  5 13  1  0
  9 14  1  0
 10 15  1  0
 10 16  1  0
 11 17  1  0
 11 18  1  0
M  ISO  2  12  14  13  14
M  END
>  <minimizedAffinity>  (1) 
-4.1244421

>  <minimizedRMSD>  (1) 
0.737012446

$$$$
