
     RDKit          3D

 27 28  0  0  0  0  0  0  0  0999 V2000
   42.7820   35.3230   41.2600 C   0  0  0  0  0  0  0  0  0  0  0  0
   43.6350   34.8300   40.4680 O   0  0  0  0  0  0  0  0  0  0  0  0
   43.1940   35.2450   42.6290 N   0  0  0  0  0  0  0  0  0  0  0  0
   44.5000   34.5990   42.6810 C   0  0  0  0  0  0  0  0  0  0  0  0
   44.6830   33.2390   42.7280 C   0  0  0  0  0  0  0  0  0  0  0  0
   46.0100   32.8120   42.7700 C   0  0  0  0  0  0  0  0  0  0  0  0
   46.9880   33.7290   42.7620 N   0  0  0  0  0  0  0  0  0  0  0  0
   46.7510   35.0610   42.7150 C   0  0  0  0  0  0  0  0  0  0  0  0
   45.4830   35.5200   42.6730 N   0  0  0  0  0  0  0  0  0  0  0  0
   43.5450   32.4170   42.7290 N   0  0  0  0  0  0  0  0  0  0  0  0
   41.5490   35.8970   40.9070 O   0  0  0  0  0  0  0  0  0  0  0  0
   39.7310   33.7170   41.8910 Cl  0  0  0  0  0  0  0  0  0  0  0  0
   39.9030   34.2570   40.2430 C   0  0  0  0  0  0  0  0  0  0  0  0
   40.7810   35.2740   39.9260 C   0  0  0  0  0  0  0  0  0  0  0  0
   40.9820   35.7660   38.6510 C   0  0  0  0  0  0  0  0  0  0  0  0
   40.2580   35.2080   37.5980 C   0  0  0  0  0  0  0  0  0  0  0  0
   39.3800   34.1940   37.8960 C   0  0  0  0  0  0  0  0  0  0  0  0
   39.1830   33.7030   39.1830 C   0  0  0  0  0  0  0  0  0  0  0  0
   42.6586   35.5872   43.4396 H   0  0  0  0  0  0  0  0  0  0  0  0
   46.2505   31.7393   42.8091 H   0  0  0  0  0  0  0  0  0  0  0  0
   47.5925   35.7694   42.7111 H   0  0  0  0  0  0  0  0  0  0  0  0
   43.6495   31.3929   42.7637 H   0  0  0  0  0  0  0  0  0  0  0  0
   42.6056   32.8380   42.6951 H   0  0  0  0  0  0  0  0  0  0  0  0
   41.6983   36.5810   38.4701 H   0  0  0  0  0  0  0  0  0  0  0  0
   40.3852   35.5667   36.5659 H   0  0  0  0  0  0  0  0  0  0  0  0
   38.8023   33.7467   37.0737 H   0  0  0  0  0  0  0  0  0  0  0  0
   38.4676   32.8871   39.3632 H   0  0  0  0  0  0  0  0  0  0  0  0
  1  3  1  0
  2  1  2  0
  3  4  1  0
  4  5  2  0
  5 10  1  0
  5  6  1  0
  7  6  2  0
  8  7  1  0
  9  4  1  0
  9  8  2  0
 11  1  1  0
 13 12  1  0
 14 13  2  0
 14 11  1  0
 15 14  1  0
 16 17  1  0
 16 15  2  0
 17 18  2  0
 18 13  1  0
  3 19  1  0
  6 20  1  0
  8 21  1  0
 10 22  1  0
 10 23  1  0
 15 24  1  0
 16 25  1  0
 17 26  1  0
 18 27  1  0
M  ISO  6  20  14  21  14  24  14  25  14  26  14  27  14
M  END
>  <minimizedAffinity>  (1) 
-5.59681797

>  <minimizedRMSD>  (1) 
2.52928281

$$$$
