
     RDKit          3D

 30 31  0  0  0  0  0  0  0  0999 V2000
   45.3170   35.0090   43.7190 C   0  0  0  0  0  0  0  0  0  0  0  0
   45.1790   34.6780   45.0430 C   0  0  0  0  0  0  0  0  0  0  0  0
   46.1370   33.7990   45.5460 C   0  0  0  0  0  0  0  0  0  0  0  0
   47.0950   33.3580   44.7160 N   0  0  0  0  0  0  0  0  0  0  0  0
   47.1900   33.7090   43.4260 C   0  0  0  0  0  0  0  0  0  0  0  0
   46.2760   34.5630   42.8980 N   0  0  0  0  0  0  0  0  0  0  0  0
   43.5940   35.1270   42.1330 C   0  0  0  0  0  0  0  0  0  0  0  0
   43.8480   33.8780   42.1970 O   0  0  0  0  0  0  0  0  0  0  0  0
   44.4220   35.9080   42.9990 N   0  0  0  0  0  0  0  0  0  0  0  0
   42.6210   35.7470   41.3240 O   0  0  0  0  0  0  0  0  0  0  0  0
   41.2570   35.4530   41.5780 C   0  0  0  0  0  0  0  0  0  0  0  0
   40.3530   36.2850   40.6940 C   0  0  0  0  0  0  0  0  0  0  0  0
   39.5290   35.2980   39.9270 C   0  0  0  0  0  0  0  0  0  0  0  0
   40.3970   34.0730   39.7920 C   0  0  0  0  0  0  0  0  0  0  0  0
   41.0460   34.0140   41.1560 C   0  0  0  0  0  0  0  0  0  0  0  0
   44.1040   35.2450   45.7550 N   0  0  0  0  0  0  0  0  0  0  0  0
   46.1084   33.4750   46.5968 H   0  0  0  0  0  0  0  0  0  0  0  0
   48.0014   33.3087   42.8004 H   0  0  0  0  0  0  0  0  0  0  0  0
   44.3915   36.9328   43.0976 H   0  0  0  0  0  0  0  0  0  0  0  0
   41.0284   35.6492   42.6359 H   0  0  0  0  0  0  0  0  0  0  0  0
   39.7074   36.9329   41.3051 H   0  0  0  0  0  0  0  0  0  0  0  0
   40.9274   36.9444   40.0268 H   0  0  0  0  0  0  0  0  0  0  0  0
   38.6064   35.0577   40.4757 H   0  0  0  0  0  0  0  0  0  0  0  0
   39.2233   35.6934   38.9471 H   0  0  0  0  0  0  0  0  0  0  0  0
   39.7954   33.1737   39.5937 H   0  0  0  0  0  0  0  0  0  0  0  0
   41.1110   34.1182   38.9564 H   0  0  0  0  0  0  0  0  0  0  0  0
   40.3879   33.4982   41.8708 H   0  0  0  0  0  0  0  0  0  0  0  0
   41.9948   33.4581   41.1280 H   0  0  0  0  0  0  0  0  0  0  0  0
   43.9695   35.0189   46.7508 H   0  0  0  0  0  0  0  0  0  0  0  0
   43.4524   35.8857   45.2798 H   0  0  0  0  0  0  0  0  0  0  0  0
  1  2  2  0
  2  3  1  0
  2 16  1  0
  4  3  2  0
  5  4  1  0
  6  5  2  0
  6  1  1  0
  7  8  2  0
  7  9  1  0
  9  1  1  0
 10 11  1  0
 10  7  1  0
 12 11  1  0
 13 12  1  0
 14 13  1  0
 14 15  1  0
 15 11  1  0
  3 17  1  0
  5 18  1  0
  9 19  1  0
 11 20  1  0
 12 21  1  0
 12 22  1  0
 13 23  1  0
 13 24  1  0
 14 25  1  0
 14 26  1  0
 15 27  1  0
 15 28  1  0
 16 29  1  0
 16 30  1  0
M  ISO  8  17  14  18  14  20  13  21  13  22  13  23  13  24  13  25  13
M  ISO  3  26  13  27  13  28  13
M  END
>  <minimizedAffinity>  (1) 
-5.2477808

>  <minimizedRMSD>  (1) 
1.69866681

$$$$
