
     RDKit          3D

 20 20  0  0  0  0  0  0  0  0999 V2000
   45.6820   34.6170   44.3210 C   0  0  0  0  0  0  0  0  0  0  0  0
   45.2880   34.3690   45.6110 C   0  0  0  0  0  0  0  0  0  0  0  0
   45.9340   33.3120   46.2480 C   0  0  0  0  0  0  0  0  0  0  0  0
   46.8650   32.6310   45.5820 N   0  0  0  0  0  0  0  0  0  0  0  0
   47.2260   32.9110   44.3050 C   0  0  0  0  0  0  0  0  0  0  0  0
   46.6180   33.9360   43.6470 N   0  0  0  0  0  0  0  0  0  0  0  0
   44.2560   35.0820   42.5200 C   0  0  0  0  0  0  0  0  0  0  0  0
   44.1900   33.8110   42.6350 O   0  0  0  0  0  0  0  0  0  0  0  0
   45.1330   35.6740   43.4780 N   0  0  0  0  0  0  0  0  0  0  0  0
   43.5700   35.8590   41.5760 O   0  0  0  0  0  0  0  0  0  0  0  0
   43.0020   35.2170   40.4450 C   0  0  0  0  0  0  0  0  0  0  0  0
   44.2850   35.1900   46.1590 N   0  0  0  0  0  0  0  0  0  0  0  0
   45.6794   33.0441   47.2841 H   0  0  0  0  0  0  0  0  0  0  0  0
   48.0036   32.3148   43.8051 H   0  0  0  0  0  0  0  0  0  0  0  0
   45.3431   36.6790   43.5605 H   0  0  0  0  0  0  0  0  0  0  0  0
   42.3076   34.4321   40.7792 H   0  0  0  0  0  0  0  0  0  0  0  0
   42.4564   35.9558   39.8396 H   0  0  0  0  0  0  0  0  0  0  0  0
   43.8017   34.7655   39.8396 H   0  0  0  0  0  0  0  0  0  0  0  0
   43.9628   35.0344   47.1249 H   0  0  0  0  0  0  0  0  0  0  0  0
   43.8731   35.9465   45.5942 H   0  0  0  0  0  0  0  0  0  0  0  0
  1  2  2  0
  2 12  1  0
  2  3  1  0
  4  3  2  0
  5  4  1  0
  6  5  2  0
  6  1  1  0
  7  8  2  0
  7  9  1  0
  9  1  1  0
 10  7  1  0
 11 10  1  0
  3 13  1  0
  5 14  1  0
  9 15  1  0
 11 16  1  0
 11 17  1  0
 11 18  1  0
 12 19  1  0
 12 20  1  0
M  ISO  5  13  14  14  14  16   8  17   8  18   8
M  END
>  <minimizedAffinity>  (1) 
-4.01744175

>  <minimizedRMSD>  (1) 
0.306645006

$$$$
