
     RDKit          3D

 40 42  0  0  1  0  0  0  0  0999 V2000
   43.3430   33.9300   38.3340 Cl  0  0  0  0  0  0  0  0  0  0  0  0
   42.1920   34.4560   39.5500 C   0  0  0  0  0  0  0  0  0  0  0  0
   42.5780   35.0490   40.7500 C   0  0  0  0  0  0  0  0  0  0  0  0
   41.6230   35.4280   41.6380 C   0  0  0  0  0  0  0  0  0  0  0  0
   40.2670   35.2700   41.4420 C   0  0  0  0  0  0  0  0  0  0  0  0
   39.8570   34.6800   40.2440 C   0  0  0  0  0  0  0  0  0  0  0  0
   38.1510   34.4380   39.9040 Cl  0  0  0  0  0  0  0  0  0  0  0  0
   40.8410   34.2950   39.3410 C   0  0  0  0  0  0  0  0  0  0  0  0
   40.2440   32.1870   38.3240 C   0  0  1  0  0  0  0  0  0  0  0  0
   40.4200   33.6580   38.0510 C   0  0  1  0  0  0  0  0  0  0  0  0
   39.1710   34.1470   37.6540 O   0  0  0  0  0  0  0  0  0  0  0  0
   38.4490   33.0870   37.1360 C   0  0  0  0  0  0  0  0  0  0  0  0
   38.8050   31.8990   37.9870 C   0  0  1  0  0  0  0  0  0  0  0  0
   41.0870   31.4400   37.4790 O   0  0  0  0  0  0  0  0  0  0  0  0
   38.6930   30.6820   37.2800 O   0  0  0  0  0  0  0  0  0  0  0  0
   43.9460   35.2010   40.9350 O   0  0  0  0  0  0  0  0  0  0  0  0
   44.5390   34.5820   42.0460 C   0  0  0  0  0  0  0  0  0  0  0  0
   44.3490   33.3710   42.4180 O   0  0  0  0  0  0  0  0  0  0  0  0
   45.4420   35.2900   42.8920 N   0  0  0  0  0  0  0  0  0  0  0  0
   45.8750   34.3930   43.9580 C   0  0  0  0  0  0  0  0  0  0  0  0
   45.3450   34.3810   45.2280 C   0  0  0  0  0  0  0  0  0  0  0  0
   45.8780   33.4590   46.1100 C   0  0  0  0  0  0  0  0  0  0  0  0
   46.8700   32.6490   45.6630 N   0  0  0  0  0  0  0  0  0  0  0  0
   47.3530   32.7000   44.4150 C   0  0  0  0  0  0  0  0  0  0  0  0
   46.8480   33.5920   43.5330 N   0  0  0  0  0  0  0  0  0  0  0  0
   44.3120   35.3050   45.5080 N   0  0  0  0  0  0  0  0  0  0  0  0
   41.9537   35.8930   42.5784 H   0  0  0  0  0  0  0  0  0  0  0  0
   39.5378   35.5954   42.1985 H   0  0  0  0  0  0  0  0  0  0  0  0
   40.4922   31.9238   39.3628 H   0  0  0  0  0  0  0  0  0  0  0  0
   41.1688   33.8655   37.2723 H   0  0  0  0  0  0  0  0  0  0  0  0
   37.3699   33.2921   37.1956 H   0  0  0  0  0  0  0  0  0  0  0  0
   38.6860   32.9133   36.0760 H   0  0  0  0  0  0  0  0  0  0  0  0
   38.1441   31.7759   38.8577 H   0  0  0  0  0  0  0  0  0  0  0  0
   41.7038   30.8935   38.0276 H   0  0  0  0  0  0  0  0  0  0  0  0
   38.6240   29.9321   37.9227 H   0  0  0  0  0  0  0  0  0  0  0  0
   45.7385   36.2690   42.7711 H   0  0  0  0  0  0  0  0  0  0  0  0
   45.5085   33.3846   47.1434 H   0  0  0  0  0  0  0  0  0  0  0  0
   48.1591   32.0175   44.1079 H   0  0  0  0  0  0  0  0  0  0  0  0
   43.8854   35.3321   46.4451 H   0  0  0  0  0  0  0  0  0  0  0  0
   43.9862   35.9510   44.7749 H   0  0  0  0  0  0  0  0  0  0  0  0
  1  2  1  0
  2  3  2  0
  3 16  1  0
  3  4  1  0
  5  4  2  0
  6  5  1  0
  7  6  1  0
  8  2  1  0
  8  6  2  0
  9 14  1  0
 10  9  1  0
 10  8  1  0
 11 10  1  0
 12 11  1  0
 12 13  1  0
 13 15  1  0
 13  9  1  0
 16 17  1  0
 17 18  2  0
 17 19  1  0
 19 20  1  0
 20 21  2  0
 21 26  1  0
 21 22  1  0
 23 22  2  0
 24 23  1  0
 25 20  1  0
 25 24  2  0
  4 27  1  0
  5 28  1  0
  9 29  1  1
 10 30  1  6
 12 31  1  0
 12 32  1  0
 13 33  1  1
 14 34  1  0
 15 35  1  0
 19 36  1  0
 22 37  1  0
 24 38  1  0
 26 39  1  0
 26 40  1  0
M  ISO  8  27  14  28  14  29  13  30  13  31  13  32  13  33  13  34   3
M  ISO  3  35   3  37  14  38  14
M  END
>  <minimizedAffinity>  (1) 
-6.53230333

>  <minimizedRMSD>  (1) 
1.13496983

$$$$
