
     RDKit          3D

 40 43  0  0  0  0  0  0  0  0999 V2000
   43.2190   32.3700   39.4880 Cl  0  0  0  0  0  0  0  0  0  0  0  0
   42.1020   33.6270   39.9640 C   0  0  0  0  0  0  0  0  0  0  0  0
   42.5240   34.8040   40.5690 C   0  0  0  0  0  0  0  0  0  0  0  0
   41.5970   35.7520   40.9180 C   0  0  0  0  0  0  0  0  0  0  0  0
   40.2410   35.6130   40.7050 C   0  0  0  0  0  0  0  0  0  0  0  0
   39.7930   34.4470   40.1030 C   0  0  0  0  0  0  0  0  0  0  0  0
   38.0900   34.1740   39.7880 Cl  0  0  0  0  0  0  0  0  0  0  0  0
   40.7320   33.5080   39.7590 C   0  0  0  0  0  0  0  0  0  0  0  0
   40.3240   32.2750   39.1280 N   0  0  0  0  0  0  0  0  0  0  0  0
   40.2430   31.8750   37.8340 C   0  0  0  0  0  0  0  0  0  0  0  0
   39.7950   30.6080   37.8160 N   0  0  0  0  0  0  0  0  0  0  0  0
   39.5900   30.1980   39.0830 C   0  0  0  0  0  0  0  0  0  0  0  0
   39.1470   29.0260   39.6630 C   0  0  0  0  0  0  0  0  0  0  0  0
   39.0400   28.9010   41.0100 N   0  0  0  0  0  0  0  0  0  0  0  0
   39.3630   29.9200   41.8040 C   0  0  0  0  0  0  0  0  0  0  0  0
   39.7930   31.0630   41.2730 N   0  0  0  0  0  0  0  0  0  0  0  0
   39.9270   31.2610   39.9290 C   0  0  0  0  0  0  0  0  0  0  0  0
   38.7930   27.9180   38.8390 N   0  0  0  0  0  0  0  0  0  0  0  0
   43.8870   34.9350   40.7800 O   0  0  0  0  0  0  0  0  0  0  0  0
   44.4290   34.4430   41.9740 C   0  0  0  0  0  0  0  0  0  0  0  0
   44.0800   33.3620   42.5680 O   0  0  0  0  0  0  0  0  0  0  0  0
   45.4690   35.1380   42.6710 N   0  0  0  0  0  0  0  0  0  0  0  0
   45.8190   34.3820   43.8540 C   0  0  0  0  0  0  0  0  0  0  0  0
   45.1900   34.5430   45.0770 C   0  0  0  0  0  0  0  0  0  0  0  0
   45.6540   33.7340   46.1080 C   0  0  0  0  0  0  0  0  0  0  0  0
   46.6510   32.8810   45.8480 N   0  0  0  0  0  0  0  0  0  0  0  0
   47.2350   32.7570   44.6430 C   0  0  0  0  0  0  0  0  0  0  0  0
   46.8100   33.5300   43.6090 N   0  0  0  0  0  0  0  0  0  0  0  0
   44.1510   35.4960   45.1710 N   0  0  0  0  0  0  0  0  0  0  0  0
   41.9549   36.6763   41.3951 H   0  0  0  0  0  0  0  0  0  0  0  0
   39.5366   36.4033   41.0037 H   0  0  0  0  0  0  0  0  0  0  0  0
   40.4993   32.4819   36.9531 H   0  0  0  0  0  0  0  0  0  0  0  0
   39.2749   29.8179   42.8957 H   0  0  0  0  0  0  0  0  0  0  0  0
   38.4621   27.0420   39.2681 H   0  0  0  0  0  0  0  0  0  0  0  0
   38.8681   27.9933   37.8145 H   0  0  0  0  0  0  0  0  0  0  0  0
   45.8968   36.0282   42.3788 H   0  0  0  0  0  0  0  0  0  0  0  0
   45.2119   33.7939   47.1134 H   0  0  0  0  0  0  0  0  0  0  0  0
   48.0513   32.0347   44.4952 H   0  0  0  0  0  0  0  0  0  0  0  0
   43.6633   35.6395   46.0668 H   0  0  0  0  0  0  0  0  0  0  0  0
   43.8813   36.0472   44.3437 H   0  0  0  0  0  0  0  0  0  0  0  0
  1  2  1  0
  2  3  2  0
  3 19  1  0
  3  4  1  0
  5  4  2  0
  6  5  1  0
  7  6  1  0
  8  2  1  0
  8  6  2  0
  9  8  1  0
  9 17  1  0
 10  9  1  0
 11 10  2  0
 11 12  1  0
 12 13  2  0
 12 17  1  0
 13 14  1  0
 14 15  2  0
 16 15  1  0
 17 16  2  0
 18 13  1  0
 19 20  1  0
 20 21  2  0
 20 22  1  0
 22 23  1  0
 23 24  2  0
 24 29  1  0
 24 25  1  0
 26 25  2  0
 27 26  1  0
 28 23  1  0
 28 27  2  0
  4 30  1  0
  5 31  1  0
 10 32  1  0
 15 33  1  0
 18 34  1  0
 18 35  1  0
 22 36  1  0
 25 37  1  0
 27 38  1  0
 29 39  1  0
 29 40  1  0
M  ISO  6  30  14  31  14  32  14  33  14  37  14  38  14
M  END
>  <minimizedAffinity>  (1) 
-6.44130564

>  <minimizedRMSD>  (1) 
1.80152845

$$$$
