
     RDKit          3D

 42 44  0  0  0  0  0  0  0  0999 V2000
   43.3980   32.4010   39.6730 Cl  0  0  0  0  0  0  0  0  0  0  0  0
   42.1990   33.5960   40.1450 C   0  0  0  0  0  0  0  0  0  0  0  0
   42.5430   34.7960   40.7550 C   0  0  0  0  0  0  0  0  0  0  0  0
   41.5640   35.6780   41.0950 C   0  0  0  0  0  0  0  0  0  0  0  0
   40.2150   35.4630   40.8740 C   0  0  0  0  0  0  0  0  0  0  0  0
   39.8520   34.2710   40.2670 C   0  0  0  0  0  0  0  0  0  0  0  0
   38.1680   33.8970   39.9380 Cl  0  0  0  0  0  0  0  0  0  0  0  0
   40.8580   33.3830   39.9250 C   0  0  0  0  0  0  0  0  0  0  0  0
   40.4570   32.1500   39.2950 N   0  0  0  0  0  0  0  0  0  0  0  0
   40.2870   32.1560   37.8720 C   0  0  0  0  0  0  0  0  0  0  0  0
   38.9030   31.7710   37.5090 C   0  0  0  0  0  0  0  0  0  0  0  0
   38.1900   30.8300   38.3800 C   0  0  0  0  0  0  0  0  0  0  0  0
   38.7760   30.4630   39.6800 C   0  0  0  0  0  0  0  0  0  0  0  0
   40.1960   30.8640   39.9300 C   0  0  0  0  0  0  0  0  0  0  0  0
   43.9070   35.0080   40.9760 O   0  0  0  0  0  0  0  0  0  0  0  0
   44.4810   34.4650   42.1380 C   0  0  0  0  0  0  0  0  0  0  0  0
   44.2480   33.2920   42.6100 O   0  0  0  0  0  0  0  0  0  0  0  0
   45.4130   35.2060   42.9230 N   0  0  0  0  0  0  0  0  0  0  0  0
   45.8230   34.3820   44.0460 C   0  0  0  0  0  0  0  0  0  0  0  0
   45.2730   34.4710   45.3100 C   0  0  0  0  0  0  0  0  0  0  0  0
   45.7870   33.6060   46.2650 C   0  0  0  0  0  0  0  0  0  0  0  0
   46.7630   32.7600   45.9010 N   0  0  0  0  0  0  0  0  0  0  0  0
   47.2710   32.7100   44.6520 C   0  0  0  0  0  0  0  0  0  0  0  0
   46.8020   33.5360   43.6820 N   0  0  0  0  0  0  0  0  0  0  0  0
   44.2510   35.4210   45.5120 N   0  0  0  0  0  0  0  0  0  0  0  0
   41.8638   36.6209   41.5756 H   0  0  0  0  0  0  0  0  0  0  0  0
   39.4611   36.2081   41.1682 H   0  0  0  0  0  0  0  0  0  0  0  0
   40.4936   33.1658   37.4878 H   0  0  0  0  0  0  0  0  0  0  0  0
   40.9842   31.4295   37.4291 H   0  0  0  0  0  0  0  0  0  0  0  0
   38.3074   32.6951   37.4718 H   0  0  0  0  0  0  0  0  0  0  0  0
   39.0133   31.2292   36.5580 H   0  0  0  0  0  0  0  0  0  0  0  0
   37.2027   31.2690   38.5860 H   0  0  0  0  0  0  0  0  0  0  0  0
   38.2062   29.8878   37.8126 H   0  0  0  0  0  0  0  0  0  0  0  0
   38.1588   30.9268   40.4635 H   0  0  0  0  0  0  0  0  0  0  0  0
   38.7880   29.3631   39.6842 H   0  0  0  0  0  0  0  0  0  0  0  0
   40.8710   30.1039   39.5098 H   0  0  0  0  0  0  0  0  0  0  0  0
   40.3678   30.9485   41.0132 H   0  0  0  0  0  0  0  0  0  0  0  0
   45.7397   36.1629   42.7267 H   0  0  0  0  0  0  0  0  0  0  0  0
   45.4037   33.6134   47.2960 H   0  0  0  0  0  0  0  0  0  0  0  0
   48.0722   31.9937   44.4176 H   0  0  0  0  0  0  0  0  0  0  0  0
   43.8148   35.5188   46.4400 H   0  0  0  0  0  0  0  0  0  0  0  0
   43.9405   36.0172   44.7316 H   0  0  0  0  0  0  0  0  0  0  0  0
  1  2  1  0
  2  3  2  0
  3 15  1  0
  3  4  1  0
  5  4  2  0
  6  5  1  0
  7  6  1  0
  8  2  1  0
  8  6  2  0
  9  8  1  0
  9 14  1  0
 10  9  1  0
 11 10  1  0
 11 12  1  0
 12 13  1  0
 13 14  1  0
 15 16  1  0
 16 17  2  0
 16 18  1  0
 18 19  1  0
 19 20  2  0
 20 25  1  0
 20 21  1  0
 22 21  2  0
 23 22  1  0
 24 19  1  0
 24 23  2  0
  4 26  1  0
  5 27  1  0
 10 28  1  0
 10 29  1  0
 11 30  1  0
 11 31  1  0
 12 32  1  0
 12 33  1  0
 13 34  1  0
 13 35  1  0
 14 36  1  0
 14 37  1  0
 18 38  1  0
 21 39  1  0
 23 40  1  0
 25 41  1  0
 25 42  1  0
M  ISO  8  26  14  27  14  28  13  29  13  30  13  31  13  32  13  33  13
M  ISO  6  34  13  35  13  36  13  37  13  39  14  40  14
M  END
>  <minimizedAffinity>  (1) 
-6.28102922

>  <minimizedRMSD>  (1) 
1.22080064

$$$$
