
     RDKit          3D

 31 32  0  0  0  0  0  0  0  0999 V2000
   43.7970   35.6020   40.9040 O   0  0  0  0  0  0  0  0  0  0  0  0
   43.8690   33.8100   38.5550 Cl  0  0  0  0  0  0  0  0  0  0  0  0
   42.4510   34.3850   39.3940 C   0  0  0  0  0  0  0  0  0  0  0  0
   42.5220   35.2340   40.5000 C   0  0  0  0  0  0  0  0  0  0  0  0
   41.3660   35.6520   41.1200 C   0  0  0  0  0  0  0  0  0  0  0  0
   40.1060   35.2820   40.7130 C   0  0  0  0  0  0  0  0  0  0  0  0
   40.0060   34.4330   39.6070 C   0  0  0  0  0  0  0  0  0  0  0  0
   38.4460   33.8910   38.9940 Cl  0  0  0  0  0  0  0  0  0  0  0  0
   41.1720   34.0270   39.0030 C   0  0  0  0  0  0  0  0  0  0  0  0
   41.0620   31.7690   38.0950 C   0  0  0  0  0  0  0  0  0  0  0  0
   41.1420   30.9110   39.0380 O   0  0  0  0  0  0  0  0  0  0  0  0
   41.0570   33.1610   37.8770 N   0  0  0  0  0  0  0  0  0  0  0  0
   44.3810   34.9350   41.9900 C   0  0  0  0  0  0  0  0  0  0  0  0
   44.1250   33.7240   42.3320 O   0  0  0  0  0  0  0  0  0  0  0  0
   45.3360   35.5550   42.8340 N   0  0  0  0  0  0  0  0  0  0  0  0
   45.7390   34.6140   43.8600 C   0  0  0  0  0  0  0  0  0  0  0  0
   45.1980   34.5670   45.1220 C   0  0  0  0  0  0  0  0  0  0  0  0
   45.7190   33.5900   45.9650 C   0  0  0  0  0  0  0  0  0  0  0  0
   46.6870   32.7890   45.4920 N   0  0  0  0  0  0  0  0  0  0  0  0
   47.1830   32.8720   44.2520 C   0  0  0  0  0  0  0  0  0  0  0  0
   46.7000   33.8130   43.3960 N   0  0  0  0  0  0  0  0  0  0  0  0
   44.1910   35.4840   45.4510 N   0  0  0  0  0  0  0  0  0  0  0  0
   41.4555   36.3194   41.9898 H   0  0  0  0  0  0  0  0  0  0  0  0
   39.2090   35.6411   41.2387 H   0  0  0  0  0  0  0  0  0  0  0  0
   40.9645   31.2469   37.1318 H   0  0  0  0  0  0  0  0  0  0  0  0
   40.9721   33.5443   36.9248 H   0  0  0  0  0  0  0  0  0  0  0  0
   45.6868   36.5183   42.7344 H   0  0  0  0  0  0  0  0  0  0  0  0
   45.3467   33.4768   46.9939 H   0  0  0  0  0  0  0  0  0  0  0  0
   47.9767   32.1834   43.9265 H   0  0  0  0  0  0  0  0  0  0  0  0
   43.7687   35.4701   46.3903 H   0  0  0  0  0  0  0  0  0  0  0  0
   43.8731   36.1720   44.7535 H   0  0  0  0  0  0  0  0  0  0  0  0
  1 13  1  0
  2  3  1  0
  3  4  2  0
  4  1  1  0
  4  5  1  0
  6  5  2  0
  7  6  1  0
  8  7  1  0
  9  3  1  0
  9  7  2  0
 10 11  2  0
 12 10  1  0
 12  9  1  0
 13 14  2  0
 13 15  1  0
 15 16  1  0
 16 17  2  0
 17 22  1  0
 17 18  1  0
 19 18  2  0
 20 19  1  0
 21 16  1  0
 21 20  2  0
  5 23  1  0
  6 24  1  0
 10 25  1  0
 12 26  1  0
 15 27  1  0
 18 28  1  0
 20 29  1  0
 22 30  1  0
 22 31  1  0
M  ISO  5  23  14  24  14  25   6  28  14  29  14
M  END
>  <minimizedAffinity>  (1) 
-6.03071117

>  <minimizedRMSD>  (1) 
0.5149315

$$$$
