
     RDKit          3D

 29 30  0  0  0  0  0  0  0  0999 V2000
   46.8410   32.5170   46.1420 C   0  0  0  0  0  0  0  0  0  0  0  0
   46.0330   30.5100   47.3160 C   0  0  0  0  0  0  0  0  0  0  0  0
   46.8650   31.0390   46.3510 C   0  0  0  0  0  0  0  0  0  0  0  0
   47.6700   30.1670   45.6390 C   0  0  0  0  0  0  0  0  0  0  0  0
   47.6300   28.7980   45.9010 C   0  0  0  0  0  0  0  0  0  0  0  0
   46.7960   28.2810   46.8650 C   0  0  0  0  0  0  0  0  0  0  0  0
   45.9940   29.1490   47.5730 C   0  0  0  0  0  0  0  0  0  0  0  0
   44.9490   31.4620   48.3110 S   0  0  0  0  0  0  0  0  0  0  0  0
   44.9710   32.9080   47.9720 O   0  0  0  0  0  0  0  0  0  0  0  0
   45.4050   31.2410   49.7400 O   0  0  0  0  0  0  0  0  0  0  0  0
   47.0100   32.7690   44.6470 C   0  0  0  0  0  0  0  0  0  0  0  0
   44.5780   35.5750   44.8120 C   0  0  0  0  0  0  0  0  0  0  0  0
   44.8260   36.2160   43.5710 C   0  0  0  0  0  0  0  0  0  0  0  0
   45.8010   35.6730   42.7380 C   0  0  0  0  0  0  0  0  0  0  0  0
   46.4620   34.5710   43.1410 N   0  0  0  0  0  0  0  0  0  0  0  0
   46.1910   33.9820   44.3490 C   0  0  0  0  0  0  0  0  0  0  0  0
   45.2630   34.4750   45.1730 N   0  0  0  0  0  0  0  0  0  0  0  0
   45.8815   32.9300   46.4868 H   0  0  0  0  0  0  0  0  0  0  0  0
   47.6470   33.0030   46.7114 H   0  0  0  0  0  0  0  0  0  0  0  0
   48.3449   30.5559   44.8623 H   0  0  0  0  0  0  0  0  0  0  0  0
   48.2772   28.1191   45.3263 H   0  0  0  0  0  0  0  0  0  0  0  0
   46.7700   27.1998   47.0659 H   0  0  0  0  0  0  0  0  0  0  0  0
   45.3178   28.7588   48.3479 H   0  0  0  0  0  0  0  0  0  0  0  0
   43.6530   31.0672   48.1077 H   0  0  0  0  0  0  0  0  0  0  0  0
   48.0676   32.9509   44.4054 H   0  0  0  0  0  0  0  0  0  0  0  0
   46.6879   31.9035   44.0494 H   0  0  0  0  0  0  0  0  0  0  0  0
   43.8138   35.9837   45.4895 H   0  0  0  0  0  0  0  0  0  0  0  0
   44.2650   37.1149   43.2756 H   0  0  0  0  0  0  0  0  0  0  0  0
   46.0276   36.1367   41.7666 H   0  0  0  0  0  0  0  0  0  0  0  0
  1  3  1  0
  2  7  2  0
  2  8  1  0
  3  2  1  0
  4  5  1  0
  4  3  2  0
  5  6  2  0
  6  7  1  0
  8 10  2  0
  9  8  2  0
 11  1  1  0
 12 17  2  0
 13 12  1  0
 14 15  1  0
 14 13  2  0
 15 16  2  0
 16 11  1  0
 16 17  1  0
  1 18  1  0
  1 19  1  0
  4 20  1  0
  5 21  1  0
  6 22  1  0
  7 23  1  0
  8 24  1  0
 11 25  1  0
 11 26  1  0
 12 27  1  0
 13 28  1  0
 14 29  1  0
M  ISO  8  18   8  19   8  20  14  21  14  22  14  23  14  24  11  25   8
M  ISO  4  26   8  27  14  28  14  29  14
M  END
>  <minimizedAffinity>  (1) 
-4.47953224

>  <minimizedRMSD>  (1) 
2.45908666

$$$$
