
     RDKit          3D

 33 34  0  0  0  0  0  0  0  0999 V2000
   44.3820   34.8660   42.0260 C   0  0  0  0  0  0  0  0  0  0  0  0
   44.1950   33.6370   42.3520 O   0  0  0  0  0  0  0  0  0  0  0  0
   45.3190   35.5240   42.8760 N   0  0  0  0  0  0  0  0  0  0  0  0
   45.7820   34.5880   43.8780 C   0  0  0  0  0  0  0  0  0  0  0  0
   45.2840   34.5070   45.1440 C   0  0  0  0  0  0  0  0  0  0  0  0
   45.8330   33.5640   45.9850 C   0  0  0  0  0  0  0  0  0  0  0  0
   46.8280   32.7910   45.4820 N   0  0  0  0  0  0  0  0  0  0  0  0
   47.2930   32.9010   44.2270 C   0  0  0  0  0  0  0  0  0  0  0  0
   46.7640   33.8280   43.3760 N   0  0  0  0  0  0  0  0  0  0  0  0
   44.2390   35.3910   45.5090 N   0  0  0  0  0  0  0  0  0  0  0  0
   43.7520   35.5100   40.9640 O   0  0  0  0  0  0  0  0  0  0  0  0
   43.5980   33.7430   38.5960 Cl  0  0  0  0  0  0  0  0  0  0  0  0
   42.2570   34.3510   39.5530 C   0  0  0  0  0  0  0  0  0  0  0  0
   42.4350   35.1800   40.6540 C   0  0  0  0  0  0  0  0  0  0  0  0
   41.3470   35.6140   41.3550 C   0  0  0  0  0  0  0  0  0  0  0  0
   40.0550   35.2830   41.0410 C   0  0  0  0  0  0  0  0  0  0  0  0
   39.8540   34.4550   39.9440 C   0  0  0  0  0  0  0  0  0  0  0  0
   38.2260   33.9690   39.4520 Cl  0  0  0  0  0  0  0  0  0  0  0  0
   40.9660   34.0150   39.2330 C   0  0  0  0  0  0  0  0  0  0  0  0
   40.6930   33.1360   38.0660 C   0  0  0  0  0  0  0  0  0  0  0  0
   40.7210   31.6770   38.3740 C   0  0  0  0  0  0  0  0  0  0  0  0
   45.6178   36.5060   42.7907 H   0  0  0  0  0  0  0  0  0  0  0  0
   45.4798   33.4430   47.0197 H   0  0  0  0  0  0  0  0  0  0  0  0
   48.1035   32.2414   43.8834 H   0  0  0  0  0  0  0  0  0  0  0  0
   43.8415   35.3544   46.4585 H   0  0  0  0  0  0  0  0  0  0  0  0
   43.8766   36.0704   44.8249 H   0  0  0  0  0  0  0  0  0  0  0  0
   41.5175   36.2679   42.2230 H   0  0  0  0  0  0  0  0  0  0  0  0
   39.2090   35.6588   41.6352 H   0  0  0  0  0  0  0  0  0  0  0  0
   41.4523   33.3399   37.2966 H   0  0  0  0  0  0  0  0  0  0  0  0
   39.6709   33.3667   37.7314 H   0  0  0  0  0  0  0  0  0  0  0  0
   40.7238   31.5324   39.4645 H   0  0  0  0  0  0  0  0  0  0  0  0
   39.8320   31.1940   37.9424 H   0  0  0  0  0  0  0  0  0  0  0  0
   41.6279   31.2285   37.9424 H   0  0  0  0  0  0  0  0  0  0  0  0
  1  2  2  0
  1  3  1  0
  3  4  1  0
  4  5  2  0
  5 10  1  0
  5  6  1  0
  7  6  2  0
  8  7  1  0
  9  4  1  0
  9  8  2  0
 11  1  1  0
 12 13  1  0
 13 14  2  0
 14 11  1  0
 14 15  1  0
 16 15  2  0
 17 16  1  0
 18 17  1  0
 19 13  1  0
 19 17  2  0
 20 21  1  0
 20 19  1  0
  3 22  1  0
  6 23  1  0
  8 24  1  0
 10 25  1  0
 10 26  1  0
 15 27  1  0
 16 28  1  0
 20 29  1  0
 20 30  1  0
 21 31  1  0
 21 32  1  0
 21 33  1  0
M  ISO  8  23  14  24  14  27  14  28  14  29   8  30   8  31   8  32   8
M  ISO  1  33   8
M  END
>  <minimizedAffinity>  (1) 
-5.90954256

>  <minimizedRMSD>  (1) 
0.174543574

$$$$
