
     RDKit          3D

 44 47  0  0  0  0  0  0  0  0999 V2000
   43.7670   34.8650   40.6640 O   0  0  0  0  0  0  0  0  0  0  0  0
   42.9710   32.2920   39.4020 Cl  0  0  0  0  0  0  0  0  0  0  0  0
   41.9070   33.5970   39.9070 C   0  0  0  0  0  0  0  0  0  0  0  0
   42.3740   34.7690   40.4920 C   0  0  0  0  0  0  0  0  0  0  0  0
   41.5070   35.7450   40.8620 C   0  0  0  0  0  0  0  0  0  0  0  0
   40.1390   35.6510   40.6940 C   0  0  0  0  0  0  0  0  0  0  0  0
   39.6360   34.4730   40.1030 C   0  0  0  0  0  0  0  0  0  0  0  0
   37.9140   34.2590   39.8450 Cl  0  0  0  0  0  0  0  0  0  0  0  0
   40.5490   33.5020   39.7390 C   0  0  0  0  0  0  0  0  0  0  0  0
   39.8810   31.3740   41.3040 F   0  0  0  0  0  0  0  0  0  0  0  0
   39.7100   31.2140   39.9490 C   0  0  0  0  0  0  0  0  0  0  0  0
   40.0410   32.2750   39.1260 C   0  0  0  0  0  0  0  0  0  0  0  0
   39.8540   32.0770   37.7540 C   0  0  0  0  0  0  0  0  0  0  0  0
   39.3640   30.8620   37.3050 C   0  0  0  0  0  0  0  0  0  0  0  0
   39.0500   29.8300   38.1910 C   0  0  0  0  0  0  0  0  0  0  0  0
   39.2220   29.9930   39.5590 C   0  0  0  0  0  0  0  0  0  0  0  0
   44.3180   34.3330   41.8330 C   0  0  0  0  0  0  0  0  0  0  0  0
   44.0400   33.1950   42.3710 O   0  0  0  0  0  0  0  0  0  0  0  0
   45.2970   35.0550   42.5700 N   0  0  0  0  0  0  0  0  0  0  0  0
   45.6510   34.3010   43.7570 C   0  0  0  0  0  0  0  0  0  0  0  0
   45.1840   34.5150   45.0200 C   0  0  0  0  0  0  0  0  0  0  0  0
   45.6470   33.6830   46.0100 C   0  0  0  0  0  0  0  0  0  0  0  0
   46.5270   32.7150   45.6570 N   0  0  0  0  0  0  0  0  0  0  0  0
   46.9690   32.5290   44.3970 C   0  0  0  0  0  0  0  0  0  0  0  0
   46.5230   33.3390   43.4160 N   0  0  0  0  0  0  0  0  0  0  0  0
   47.9200   31.4410   44.1740 C   0  0  0  0  0  0  0  0  0  0  0  0
   48.7200   31.4940   43.0310 C   0  0  0  0  0  0  0  0  0  0  0  0
   49.5140   30.3400   43.0870 C   0  0  0  0  0  0  0  0  0  0  0  0
   49.1420   29.6670   44.2580 C   0  0  0  0  0  0  0  0  0  0  0  0
   48.2160   30.3500   44.8460 O   0  0  0  0  0  0  0  0  0  0  0  0
   44.2730   35.5660   45.2040 N   0  0  0  0  0  0  0  0  0  0  0  0
   41.9146   36.6585   41.3195 H   0  0  0  0  0  0  0  0  0  0  0  0
   39.4677   36.4635   41.0090 H   0  0  0  0  0  0  0  0  0  0  0  0
   40.0936   32.8780   37.0392 H   0  0  0  0  0  0  0  0  0  0  0  0
   39.2189   30.7066   36.2257 H   0  0  0  0  0  0  0  0  0  0  0  0
   38.6621   28.8774   37.8011 H   0  0  0  0  0  0  0  0  0  0  0  0
   38.9833   29.1976   40.2804 H   0  0  0  0  0  0  0  0  0  0  0  0
   45.6917   35.9681   42.3031 H   0  0  0  0  0  0  0  0  0  0  0  0
   45.3152   33.7984   47.0524 H   0  0  0  0  0  0  0  0  0  0  0  0
   48.7260   32.2729   42.2543 H   0  0  0  0  0  0  0  0  0  0  0  0
   50.2758   30.0261   42.3582 H   0  0  0  0  0  0  0  0  0  0  0  0
   49.5665   28.7176   44.6164 H   0  0  0  0  0  0  0  0  0  0  0  0
   43.8955   35.7620   46.1421 H   0  0  0  0  0  0  0  0  0  0  0  0
   43.9817   36.1416   44.4010 H   0  0  0  0  0  0  0  0  0  0  0  0
  1 17  1  0
  2  3  1  0
  3  4  2  0
  4  1  1  0
  4  5  1  0
  6  5  2  0
  7  6  1  0
  8  7  1  0
  9  3  1  0
  9  7  2  0
 11 10  1  0
 12  9  1  0
 12 11  2  0
 13 12  1  0
 14 13  2  0
 14 15  1  0
 15 16  2  0
 16 11  1  0
 17 18  2  0
 17 19  1  0
 19 20  1  0
 20 21  2  0
 21 31  1  0
 21 22  1  0
 23 22  2  0
 24 23  1  0
 25 20  1  0
 25 24  2  0
 26 24  1  0
 26 30  1  0
 27 28  1  0
 27 26  2  0
 28 29  2  0
 29 30  1  0
  5 32  1  0
  6 33  1  0
 13 34  1  0
 14 35  1  0
 15 36  1  0
 16 37  1  0
 19 38  1  0
 22 39  1  0
 27 40  1  0
 28 41  1  0
 29 42  1  0
 31 43  1  0
 31 44  1  0
M  ISO  8  32  14  33  14  34  14  35  14  36  14  37  14  39  14  40  14
M  ISO  2  41  14  42  14
M  END
>  <minimizedAffinity>  (1) 
-6.3273201

>  <minimizedRMSD>  (1) 
0.505688012

$$$$
