
     RDKit          3D

 40 42  0  0  0  0  0  0  0  0999 V2000
   42.8660   31.7950   39.7340 Cl  0  0  0  0  0  0  0  0  0  0  0  0
   42.0900   33.2840   40.2340 C   0  0  0  0  0  0  0  0  0  0  0  0
   42.7680   34.3310   40.8500 C   0  0  0  0  0  0  0  0  0  0  0  0
   42.1140   35.4670   41.2180 C   0  0  0  0  0  0  0  0  0  0  0  0
   40.7620   35.6600   41.0140 C   0  0  0  0  0  0  0  0  0  0  0  0
   40.0410   34.6160   40.3910 C   0  0  0  0  0  0  0  0  0  0  0  0
   38.3200   34.7690   40.0890 Cl  0  0  0  0  0  0  0  0  0  0  0  0
   40.7400   33.4800   40.0320 C   0  0  0  0  0  0  0  0  0  0  0  0
   39.5620   31.5500   41.5510 F   0  0  0  0  0  0  0  0  0  0  0  0
   39.4180   31.4330   40.1840 C   0  0  0  0  0  0  0  0  0  0  0  0
   40.0050   32.3970   39.3880 C   0  0  0  0  0  0  0  0  0  0  0  0
   39.8340   32.2410   38.0110 C   0  0  0  0  0  0  0  0  0  0  0  0
   39.1090   31.1610   37.5320 C   0  0  0  0  0  0  0  0  0  0  0  0
   38.5420   30.2220   38.4000 C   0  0  0  0  0  0  0  0  0  0  0  0
   38.6900   30.3450   39.7710 C   0  0  0  0  0  0  0  0  0  0  0  0
   44.1440   34.1310   41.0560 O   0  0  0  0  0  0  0  0  0  0  0  0
   44.5560   33.6870   42.3090 C   0  0  0  0  0  0  0  0  0  0  0  0
   44.1670   32.6260   42.9260 O   0  0  0  0  0  0  0  0  0  0  0  0
   45.5140   34.4220   43.0700 N   0  0  0  0  0  0  0  0  0  0  0  0
   45.7140   33.7720   44.3500 C   0  0  0  0  0  0  0  0  0  0  0  0
   45.2200   34.1740   45.5500 C   0  0  0  0  0  0  0  0  0  0  0  0
   45.5290   33.4110   46.6480 C   0  0  0  0  0  0  0  0  0  0  0  0
   46.2990   32.3180   46.4620 N   0  0  0  0  0  0  0  0  0  0  0  0
   46.7750   31.9440   45.2570 C   0  0  0  0  0  0  0  0  0  0  0  0
   46.4830   32.6820   44.1630 N   0  0  0  0  0  0  0  0  0  0  0  0
   47.6220   30.7060   45.1860 C   0  0  0  0  0  0  0  0  0  0  0  0
   46.7930   29.6130   44.9000 F   0  0  0  0  0  0  0  0  0  0  0  0
   48.5640   30.7550   44.2040 F   0  0  0  0  0  0  0  0  0  0  0  0
   48.2130   30.4230   46.3780 F   0  0  0  0  0  0  0  0  0  0  0  0
   44.4310   35.3410   45.5630 N   0  0  0  0  0  0  0  0  0  0  0  0
   42.6904   36.2697   41.7011 H   0  0  0  0  0  0  0  0  0  0  0  0
   40.2650   36.5909   41.3245 H   0  0  0  0  0  0  0  0  0  0  0  0
   40.2711   32.9692   37.3120 H   0  0  0  0  0  0  0  0  0  0  0  0
   38.9768   31.0399   36.4467 H   0  0  0  0  0  0  0  0  0  0  0  0
   37.9719   29.3760   37.9885 H   0  0  0  0  0  0  0  0  0  0  0  0
   38.2556   29.6231   40.4782 H   0  0  0  0  0  0  0  0  0  0  0  0
   45.9894   35.2809   42.7581 H   0  0  0  0  0  0  0  0  0  0  0  0
   45.1607   33.6817   47.6485 H   0  0  0  0  0  0  0  0  0  0  0  0
   44.0346   35.6848   46.4493 H   0  0  0  0  0  0  0  0  0  0  0  0
   44.2506   35.8505   44.6862 H   0  0  0  0  0  0  0  0  0  0  0  0
  1  2  1  0
  2  3  2  0
  3 16  1  0
  3  4  1  0
  5  4  2  0
  6  5  1  0
  7  6  1  0
  8  2  1  0
  8  6  2  0
 10  9  1  0
 11  8  1  0
 11 10  2  0
 12 11  1  0
 13 12  2  0
 13 14  1  0
 14 15  2  0
 15 10  1  0
 16 17  1  0
 17 18  2  0
 17 19  1  0
 19 20  1  0
 20 21  2  0
 21 30  1  0
 21 22  1  0
 23 22  2  0
 24 23  1  0
 25 20  1  0
 25 24  2  0
 26 24  1  0
 26 29  1  0
 27 26  1  0
 28 26  1  0
  4 31  1  0
  5 32  1  0
 12 33  1  0
 13 34  1  0
 14 35  1  0
 15 36  1  0
 19 37  1  0
 22 38  1  0
 30 39  1  0
 30 40  1  0
M  ISO  7  31  14  32  14  33  14  34  14  35  14  36  14  38  14
M  END
>  <minimizedAffinity>  (1) 
-6.1133256

>  <minimizedRMSD>  (1) 
0.839256585

$$$$
