
     RDKit          3D

 39 41  0  0  0  0  0  0  0  0999 V2000
   42.9560   32.1240   39.4980 Cl  0  0  0  0  0  0  0  0  0  0  0  0
   41.9720   33.5090   39.9480 C   0  0  0  0  0  0  0  0  0  0  0  0
   42.5130   34.6550   40.5120 C   0  0  0  0  0  0  0  0  0  0  0  0
   41.7110   35.7070   40.8460 C   0  0  0  0  0  0  0  0  0  0  0  0
   40.3420   35.6970   40.6500 C   0  0  0  0  0  0  0  0  0  0  0  0
   39.7730   34.5390   40.0780 C   0  0  0  0  0  0  0  0  0  0  0  0
   38.0420   34.4430   39.7930 Cl  0  0  0  0  0  0  0  0  0  0  0  0
   40.6130   33.5020   39.7550 C   0  0  0  0  0  0  0  0  0  0  0  0
   39.7280   31.4900   41.3640 F   0  0  0  0  0  0  0  0  0  0  0  0
   39.5920   31.2960   40.0080 C   0  0  0  0  0  0  0  0  0  0  0  0
   40.0350   32.3030   39.1640 C   0  0  0  0  0  0  0  0  0  0  0  0
   39.8810   32.0670   37.7960 C   0  0  0  0  0  0  0  0  0  0  0  0
   39.3130   30.8770   37.3680 C   0  0  0  0  0  0  0  0  0  0  0  0
   38.8890   29.9040   38.2780 C   0  0  0  0  0  0  0  0  0  0  0  0
   39.0240   30.1000   39.6460 C   0  0  0  0  0  0  0  0  0  0  0  0
   43.9050   34.6660   40.7120 O   0  0  0  0  0  0  0  0  0  0  0  0
   44.3910   34.1810   41.9230 C   0  0  0  0  0  0  0  0  0  0  0  0
   43.9520   33.1740   42.5940 O   0  0  0  0  0  0  0  0  0  0  0  0
   45.5000   34.8050   42.5660 N   0  0  0  0  0  0  0  0  0  0  0  0
   45.7670   34.1380   43.8220 C   0  0  0  0  0  0  0  0  0  0  0  0
   45.2120   34.4380   45.0260 C   0  0  0  0  0  0  0  0  0  0  0  0
   45.5910   33.6820   46.1110 C   0  0  0  0  0  0  0  0  0  0  0  0
   46.4870   32.6970   45.9040 N   0  0  0  0  0  0  0  0  0  0  0  0
   47.0190   32.4250   44.6930 C   0  0  0  0  0  0  0  0  0  0  0  0
   46.6610   33.1530   43.6180 N   0  0  0  0  0  0  0  0  0  0  0  0
   47.9560   31.3490   44.6310 N   0  0  0  0  0  0  0  0  0  0  0  0
   44.2810   35.5100   45.0680 N   0  0  0  0  0  0  0  0  0  0  0  0
   42.1729   36.6011   41.2901 H   0  0  0  0  0  0  0  0  0  0  0  0
   39.7196   36.5598   40.9296 H   0  0  0  0  0  0  0  0  0  0  0  0
   40.2080   32.8198   37.0636 H   0  0  0  0  0  0  0  0  0  0  0  0
   39.1934   30.6945   36.2899 H   0  0  0  0  0  0  0  0  0  0  0  0
   38.4424   28.9704   37.9052 H   0  0  0  0  0  0  0  0  0  0  0  0
   38.6998   29.3523   40.3848 H   0  0  0  0  0  0  0  0  0  0  0  0
   46.0292   35.6065   42.1940 H   0  0  0  0  0  0  0  0  0  0  0  0
   45.1774   33.8747   47.1119 H   0  0  0  0  0  0  0  0  0  0  0  0
   48.3930   31.0978   43.7328 H   0  0  0  0  0  0  0  0  0  0  0  0
   48.1948   30.8242   45.4845 H   0  0  0  0  0  0  0  0  0  0  0  0
   43.8364   35.7713   45.9596 H   0  0  0  0  0  0  0  0  0  0  0  0
   44.0505   36.0260   44.2069 H   0  0  0  0  0  0  0  0  0  0  0  0
  1  2  1  0
  2  3  2  0
  3 16  1  0
  3  4  1  0
  5  4  2  0
  6  5  1  0
  7  6  1  0
  8  2  1  0
  8  6  2  0
 10  9  1  0
 11  8  1  0
 11 10  2  0
 12 11  1  0
 13 12  2  0
 13 14  1  0
 14 15  2  0
 15 10  1  0
 16 17  1  0
 17 19  1  0
 17 18  2  0
 19 20  1  0
 20 21  2  0
 21 27  1  0
 21 22  1  0
 23 22  2  0
 24 23  1  0
 25 20  1  0
 25 24  2  0
 26 24  1  0
  4 28  1  0
  5 29  1  0
 12 30  1  0
 13 31  1  0
 14 32  1  0
 15 33  1  0
 19 34  1  0
 22 35  1  0
 26 36  1  0
 26 37  1  0
 27 38  1  0
 27 39  1  0
M  ISO  7  28  14  29  14  30  14  31  14  32  14  33  14  35  14
M  END
>  <minimizedAffinity>  (1) 
-5.99797344

>  <minimizedRMSD>  (1) 
0.211884201

$$$$
