
     RDKit          3D

 43 45  0  0  0  0  0  0  0  0999 V2000
   42.9780   32.1280   39.4780 Cl  0  0  0  0  0  0  0  0  0  0  0  0
   41.9740   33.4740   39.9910 C   0  0  0  0  0  0  0  0  0  0  0  0
   42.4870   34.6170   40.5920 C   0  0  0  0  0  0  0  0  0  0  0  0
   41.6600   35.6300   40.9680 C   0  0  0  0  0  0  0  0  0  0  0  0
   40.2930   35.5930   40.7860 C   0  0  0  0  0  0  0  0  0  0  0  0
   39.7420   34.4470   40.1790 C   0  0  0  0  0  0  0  0  0  0  0  0
   38.0150   34.3120   39.9060 Cl  0  0  0  0  0  0  0  0  0  0  0  0
   40.6100   33.4410   39.8110 C   0  0  0  0  0  0  0  0  0  0  0  0
   39.8400   31.3260   41.3380 F   0  0  0  0  0  0  0  0  0  0  0  0
   39.6740   31.1940   39.9800 C   0  0  0  0  0  0  0  0  0  0  0  0
   40.0530   32.2450   39.1790 C   0  0  0  0  0  0  0  0  0  0  0  0
   39.8710   32.0800   37.8010 C   0  0  0  0  0  0  0  0  0  0  0  0
   39.3290   30.8910   37.3290 C   0  0  0  0  0  0  0  0  0  0  0  0
   38.9660   29.8640   38.1960 C   0  0  0  0  0  0  0  0  0  0  0  0
   39.1340   29.9960   39.5760 C   0  0  0  0  0  0  0  0  0  0  0  0
   43.8810   34.6450   40.7730 O   0  0  0  0  0  0  0  0  0  0  0  0
   44.3880   34.1410   41.9730 C   0  0  0  0  0  0  0  0  0  0  0  0
   44.0640   33.0390   42.5560 O   0  0  0  0  0  0  0  0  0  0  0  0
   45.3820   34.8620   42.7020 N   0  0  0  0  0  0  0  0  0  0  0  0
   45.6820   34.1550   43.9330 C   0  0  0  0  0  0  0  0  0  0  0  0
   45.1990   34.4380   45.1720 C   0  0  0  0  0  0  0  0  0  0  0  0
   45.6170   33.6330   46.2020 C   0  0  0  0  0  0  0  0  0  0  0  0
   46.4700   32.6250   45.9170 N   0  0  0  0  0  0  0  0  0  0  0  0
   46.9290   32.3710   44.6810 C   0  0  0  0  0  0  0  0  0  0  0  0
   46.5330   33.1530   43.6370 N   0  0  0  0  0  0  0  0  0  0  0  0
   44.3180   35.5250   45.2840 N   0  0  0  0  0  0  0  0  0  0  0  0
   47.8720   31.2190   44.5150 C   0  0  0  0  0  0  0  0  0  0  0  0
   47.7080   30.2330   45.6690 C   0  0  0  0  0  0  0  0  0  0  0  0
   42.1022   36.5202   41.4392 H   0  0  0  0  0  0  0  0  0  0  0  0
   39.6544   36.4303   41.1042 H   0  0  0  0  0  0  0  0  0  0  0  0
   40.1532   32.8806   37.1015 H   0  0  0  0  0  0  0  0  0  0  0  0
   39.1835   30.7582   36.2468 H   0  0  0  0  0  0  0  0  0  0  0  0
   38.5407   28.9352   37.7881 H   0  0  0  0  0  0  0  0  0  0  0  0
   38.8557   29.2025   40.2852 H   0  0  0  0  0  0  0  0  0  0  0  0
   45.8177   35.7455   42.4011 H   0  0  0  0  0  0  0  0  0  0  0  0
   45.2672   33.8038   47.2308 H   0  0  0  0  0  0  0  0  0  0  0  0
   43.9261   35.7778   46.2024 H   0  0  0  0  0  0  0  0  0  0  0  0
   44.0635   36.0699   44.4478 H   0  0  0  0  0  0  0  0  0  0  0  0
   47.6562   30.7066   43.5658 H   0  0  0  0  0  0  0  0  0  0  0  0
   48.9046   31.5981   44.5108 H   0  0  0  0  0  0  0  0  0  0  0  0
   47.7972   30.7695   46.6251 H   0  0  0  0  0  0  0  0  0  0  0  0
   46.7183   29.7569   45.6067 H   0  0  0  0  0  0  0  0  0  0  0  0
   48.4903   29.4622   45.6067 H   0  0  0  0  0  0  0  0  0  0  0  0
  1  2  1  0
  2  3  2  0
  3 16  1  0
  3  4  1  0
  5  4  2  0
  6  5  1  0
  7  6  1  0
  8  2  1  0
  8  6  2  0
 10  9  1  0
 11  8  1  0
 11 10  2  0
 12 11  1  0
 13 12  2  0
 13 14  1  0
 14 15  2  0
 15 10  1  0
 16 17  1  0
 17 18  2  0
 17 19  1  0
 19 20  1  0
 20 21  2  0
 21 26  1  0
 21 22  1  0
 23 22  2  0
 24 23  1  0
 25 20  1  0
 25 24  2  0
 27 24  1  0
 27 28  1  0
  4 29  1  0
  5 30  1  0
 12 31  1  0
 13 32  1  0
 14 33  1  0
 15 34  1  0
 19 35  1  0
 22 36  1  0
 26 37  1  0
 26 38  1  0
 27 39  1  0
 27 40  1  0
 28 41  1  0
 28 42  1  0
 28 43  1  0
M  ISO  8  29  14  30  14  31  14  32  14  33  14  34  14  36  14  39   8
M  ISO  4  40   8  41   8  42   8  43   8
M  END
>  <minimizedAffinity>  (1) 
-5.98049974

>  <minimizedRMSD>  (1) 
0.317871958

$$$$
