
     RDKit          3D

 27 28  0  0  0  0  0  0  0  0999 V2000
   44.1030   35.5680   42.8490 C   0  0  0  0  0  0  0  0  0  0  0  0
   43.4060   35.1400   41.7010 C   0  0  0  0  0  0  0  0  0  0  0  0
   44.1260   34.4960   40.7100 C   0  0  0  0  0  0  0  0  0  0  0  0
   45.4710   34.2990   40.8760 N   0  0  0  0  0  0  0  0  0  0  0  0
   46.0950   34.7260   41.9950 C   0  0  0  0  0  0  0  0  0  0  0  0
   45.4170   35.3450   42.9540 N   0  0  0  0  0  0  0  0  0  0  0  0
   47.5380   34.5030   42.1530 C   0  0  0  0  0  0  0  0  0  0  0  0
   48.0230   33.2670   42.4510 C   0  0  0  0  0  0  0  0  0  0  0  0
   49.3770   33.0390   42.6020 C   0  0  0  0  0  0  0  0  0  0  0  0
   50.2750   34.0810   42.4530 C   0  0  0  0  0  0  0  0  0  0  0  0
   49.7430   35.3130   42.1530 C   0  0  0  0  0  0  0  0  0  0  0  0
   48.3870   35.6010   41.9880 C   0  0  0  0  0  0  0  0  0  0  0  0
   41.9810   35.3570   41.5390 C   0  0  0  0  0  0  0  0  0  0  0  0
   41.3290   35.4690   40.4010 C   0  0  0  0  0  0  0  0  0  0  0  0
   39.8540   35.6930   40.3540 C   0  0  0  0  0  0  0  0  0  0  0  0
   43.5661   36.0851   43.6579 H   0  0  0  0  0  0  0  0  0  0  0  0
   43.6224   34.1455   39.7970 H   0  0  0  0  0  0  0  0  0  0  0  0
   47.3203   32.4298   42.5745 H   0  0  0  0  0  0  0  0  0  0  0  0
   49.7413   32.0289   42.8407 H   0  0  0  0  0  0  0  0  0  0  0  0
   51.3587   33.9316   42.5686 H   0  0  0  0  0  0  0  0  0  0  0  0
   50.4499   36.1471   42.0321 H   0  0  0  0  0  0  0  0  0  0  0  0
   48.0172   36.6088   41.7480 H   0  0  0  0  0  0  0  0  0  0  0  0
   41.3850   35.4359   42.4602 H   0  0  0  0  0  0  0  0  0  0  0  0
   41.8878   35.3953   39.4564 H   0  0  0  0  0  0  0  0  0  0  0  0
   39.4594   35.7529   41.3790 H   0  0  0  0  0  0  0  0  0  0  0  0
   39.6427   36.6335   39.8242 H   0  0  0  0  0  0  0  0  0  0  0  0
   39.3730   34.8576   39.8242 H   0  0  0  0  0  0  0  0  0  0  0  0
  1  6  2  0
  2  1  1  0
  3  4  1  0
  3  2  2  0
  4  5  2  0
  5  7  1  0
  5  6  1  0
  7  8  2  0
  8  9  1  0
 10  9  2  0
 11 10  1  0
 12 11  2  0
 12  7  1  0
 13  2  1  0
 14 13  2  0
 15 14  1  0
  1 16  1  0
  3 17  1  0
  8 18  1  0
  9 19  1  0
 10 20  1  0
 11 21  1  0
 12 22  1  0
 13 23  1  0
 14 24  1  0
 15 25  1  0
 15 26  1  0
 15 27  1  0
M  ISO  8  16  14  17  14  18  14  19  14  20  14  21  14  22  14  25   8
M  ISO  2  26   8  27   8
M  END
>  <minimizedAffinity>  (1) 
-5.12128592

>  <minimizedRMSD>  (1) 
4.76388073

$$$$
