
     RDKit          3D

 23 23  0  0  0  0  0  0  0  0999 V2000
   44.2040   35.7040   43.5230 C   0  0  0  0  0  0  0  0  0  0  0  0
   43.7460   34.9420   42.4500 C   0  0  0  0  0  0  0  0  0  0  0  0
   44.2270   33.6520   42.3160 C   0  0  0  0  0  0  0  0  0  0  0  0
   45.1280   33.1710   43.2290 N   0  0  0  0  0  0  0  0  0  0  0  0
   45.5510   33.9440   44.2630 C   0  0  0  0  0  0  0  0  0  0  0  0
   45.0900   35.1950   44.3990 N   0  0  0  0  0  0  0  0  0  0  0  0
   42.7960   35.4600   41.4900 C   0  0  0  0  0  0  0  0  0  0  0  0
   41.4910   35.4590   41.5920 C   0  0  0  0  0  0  0  0  0  0  0  0
   40.5820   36.0160   40.5490 C   0  0  0  0  0  0  0  0  0  0  0  0
   46.4640   33.4880   45.2070 O   0  0  0  0  0  0  0  0  0  0  0  0
   45.7410   31.4470   46.7950 O   0  0  0  0  0  0  0  0  0  0  0  0
   46.0330   32.9330   46.7420 P   0  0  0  0  0  0  0  0  0  0  0  0
   44.7240   33.8260   47.3280 O   0  0  0  0  0  0  0  0  0  0  0  0
   47.3720   33.1950   47.7730 O   0  0  0  0  0  0  0  0  0  0  0  0
   43.8375   36.7326   43.6555 H   0  0  0  0  0  0  0  0  0  0  0  0
   43.8889   33.0177   41.4833 H   0  0  0  0  0  0  0  0  0  0  0  0
   43.2159   35.9029   40.5748 H   0  0  0  0  0  0  0  0  0  0  0  0
   41.0403   35.0237   42.4961 H   0  0  0  0  0  0  0  0  0  0  0  0
   39.7401   36.5319   41.0339 H   0  0  0  0  0  0  0  0  0  0  0  0
   41.1370   36.7293   39.9219 H   0  0  0  0  0  0  0  0  0  0  0  0
   40.1985   35.1977   39.9219 H   0  0  0  0  0  0  0  0  0  0  0  0
   44.7358   33.8180   48.3179 H   0  0  0  0  0  0  0  0  0  0  0  0
   47.0781   33.1375   48.7166 H   0  0  0  0  0  0  0  0  0  0  0  0
  1  6  2  0
  2  1  1  0
  3  2  2  0
  3  4  1  0
  4  5  2  0
  5  6  1  0
  5 10  1  0
  7  8  2  0
  7  2  1  0
  9  8  1  0
 10 12  1  0
 12 11  2  0
 12 13  1  0
 12 14  1  0
  1 15  1  0
  3 16  1  0
  7 17  1  0
  8 18  1  0
  9 19  1  0
  9 20  1  0
  9 21  1  0
 13 22  1  0
 14 23  1  0
M  ISO  7  15  14  16  14  19   8  20   8  21   8  22   3  23   3
M  END
>  <minimizedAffinity>  (1) 
-4.82659149

>  <minimizedRMSD>  (1) 
1.66015875

$$$$
