
     RDKit          3D

 30 31  0  0  0  0  0  0  0  0999 V2000
   44.0550   35.6610   42.9610 C   0  0  0  0  0  0  0  0  0  0  0  0
   43.5340   35.1870   41.7460 C   0  0  0  0  0  0  0  0  0  0  0  0
   44.4150   34.5510   40.8580 C   0  0  0  0  0  0  0  0  0  0  0  0
   45.7230   34.4240   41.2150 N   0  0  0  0  0  0  0  0  0  0  0  0
   46.1840   34.8930   42.3920 C   0  0  0  0  0  0  0  0  0  0  0  0
   45.3410   35.5030   43.2440 N   0  0  0  0  0  0  0  0  0  0  0  0
   47.6160   34.7520   42.7760 C   0  0  0  0  0  0  0  0  0  0  0  0
   48.1170   33.3500   42.6430 C   0  0  0  0  0  0  0  0  0  0  0  0
   49.6090   33.5220   42.5450 C   0  0  0  0  0  0  0  0  0  0  0  0
   49.8930   34.9770   42.2740 C   0  0  0  0  0  0  0  0  0  0  0  0
   48.5300   35.5080   41.8110 C   0  0  0  0  0  0  0  0  0  0  0  0
   42.1270   35.3310   41.3780 C   0  0  0  0  0  0  0  0  0  0  0  0
   41.6570   35.2760   40.1500 C   0  0  0  0  0  0  0  0  0  0  0  0
   40.1840   35.4370   39.8770 C   0  0  0  0  0  0  0  0  0  0  0  0
   43.3937   36.1654   43.6809 H   0  0  0  0  0  0  0  0  0  0  0  0
   44.0564   34.1630   39.8932 H   0  0  0  0  0  0  0  0  0  0  0  0
   47.6463   35.1215   43.8117 H   0  0  0  0  0  0  0  0  0  0  0  0
   47.8468   32.7499   43.5244 H   0  0  0  0  0  0  0  0  0  0  0  0
   47.6877   32.8200   41.7800 H   0  0  0  0  0  0  0  0  0  0  0  0
   50.0826   33.2190   43.4904 H   0  0  0  0  0  0  0  0  0  0  0  0
   50.0135   32.8964   41.7357 H   0  0  0  0  0  0  0  0  0  0  0  0
   50.2299   35.4916   43.1860 H   0  0  0  0  0  0  0  0  0  0  0  0
   50.6951   35.1348   41.5379 H   0  0  0  0  0  0  0  0  0  0  0  0
   48.4499   36.5975   41.9401 H   0  0  0  0  0  0  0  0  0  0  0  0
   48.3088   35.3557   40.7443 H   0  0  0  0  0  0  0  0  0  0  0  0
   41.4047   35.4984   42.1906 H   0  0  0  0  0  0  0  0  0  0  0  0
   42.3491   35.1102   39.3113 H   0  0  0  0  0  0  0  0  0  0  0  0
   39.6387   35.4966   40.8305 H   0  0  0  0  0  0  0  0  0  0  0  0
   40.0165   36.3588   39.3006 H   0  0  0  0  0  0  0  0  0  0  0  0
   39.8213   34.5731   39.3006 H   0  0  0  0  0  0  0  0  0  0  0  0
  1  6  2  0
  2  1  1  0
  3  4  1  0
  3  2  2  0
  4  5  2  0
  5  7  1  0
  5  6  1  0
  8  7  1  0
  9  8  1  0
 10  9  1  0
 11 10  1  0
 11  7  1  0
 12  2  1  0
 13 12  2  0
 14 13  1  0
  1 15  1  0
  3 16  1  0
  7 17  1  0
  8 18  1  0
  8 19  1  0
  9 20  1  0
  9 21  1  0
 10 22  1  0
 10 23  1  0
 11 24  1  0
 11 25  1  0
 12 26  1  0
 13 27  1  0
 14 28  1  0
 14 29  1  0
 14 30  1  0
M  ISO  8  15  14  16  14  17  13  18  13  19  13  20  13  21  13  22  13
M  ISO  6  23  13  24  13  25  13  28   8  29   8  30   8
M  END
>  <minimizedAffinity>  (1) 
-4.80620623

>  <minimizedRMSD>  (1) 
4.57772112

$$$$
