
     RDKit          3D

 29 30  0  0  0  0  0  0  0  0999 V2000
   44.7730   35.0070   45.0940 C   0  0  0  0  0  0  0  0  0  0  0  0
   45.0090   34.4220   43.8510 C   0  0  0  0  0  0  0  0  0  0  0  0
   45.6160   33.1590   43.8210 C   0  0  0  0  0  0  0  0  0  0  0  0
   45.9410   32.5710   45.0190 N   0  0  0  0  0  0  0  0  0  0  0  0
   45.6970   33.1670   46.1950 C   0  0  0  0  0  0  0  0  0  0  0  0
   45.1180   34.3740   46.2120 N   0  0  0  0  0  0  0  0  0  0  0  0
   46.0440   32.5360   47.4150 N   0  0  0  0  0  0  0  0  0  0  0  0
   47.3740   32.3910   47.9880 C   0  0  0  0  0  0  0  0  0  0  0  0
   47.2630   30.9900   48.6060 C   0  0  0  0  0  0  0  0  0  0  0  0
   45.9300   31.0950   49.2850 C   0  0  0  0  0  0  0  0  0  0  0  0
   45.1130   31.9060   48.3340 C   0  0  0  0  0  0  0  0  0  0  0  0
   44.6640   35.0450   42.5760 C   0  0  0  0  0  0  0  0  0  0  0  0
   43.5950   34.7840   41.8570 C   0  0  0  0  0  0  0  0  0  0  0  0
   43.3160   35.4680   40.5590 C   0  0  0  0  0  0  0  0  0  0  0  0
   44.2987   35.9979   45.1508 H   0  0  0  0  0  0  0  0  0  0  0  0
   45.8258   32.6538   42.8666 H   0  0  0  0  0  0  0  0  0  0  0  0
   48.1556   32.4329   47.2151 H   0  0  0  0  0  0  0  0  0  0  0  0
   47.6557   33.1832   48.6973 H   0  0  0  0  0  0  0  0  0  0  0  0
   47.2654   30.2050   47.8354 H   0  0  0  0  0  0  0  0  0  0  0  0
   48.0953   30.7152   49.2706 H   0  0  0  0  0  0  0  0  0  0  0  0
   45.4859   30.0997   49.4340 H   0  0  0  0  0  0  0  0  0  0  0  0
   45.9950   31.5476   50.2855 H   0  0  0  0  0  0  0  0  0  0  0  0
   44.5438   32.6719   48.8812 H   0  0  0  0  0  0  0  0  0  0  0  0
   44.3915   31.2746   47.7948 H   0  0  0  0  0  0  0  0  0  0  0  0
   45.3607   35.7998   42.1823 H   0  0  0  0  0  0  0  0  0  0  0  0
   42.8794   34.0340   42.2250 H   0  0  0  0  0  0  0  0  0  0  0  0
   42.9071   36.4705   40.7533 H   0  0  0  0  0  0  0  0  0  0  0  0
   44.2493   35.5579   39.9838 H   0  0  0  0  0  0  0  0  0  0  0  0
   42.5861   34.8794   39.9838 H   0  0  0  0  0  0  0  0  0  0  0  0
  1  6  2  0
  2  1  1  0
  3  2  2  0
  3  4  1  0
  4  5  2  0
  5  6  1  0
  5  7  1  0
  7  8  1  0
  7 11  1  0
  8  9  1  0
  9 10  1  0
 11 10  1  0
 12  2  1  0
 13 12  2  0
 14 13  1  0
  1 15  1  0
  3 16  1  0
  8 17  1  0
  8 18  1  0
  9 19  1  0
  9 20  1  0
 10 21  1  0
 10 22  1  0
 11 23  1  0
 11 24  1  0
 12 25  1  0
 13 26  1  0
 14 27  1  0
 14 28  1  0
 14 29  1  0
M  ISO  8  15  14  16  14  17  13  18  13  19  13  20  13  21  13  22  13
M  ISO  5  23  13  24  13  27   8  28   8  29   8
M  END
>  <minimizedAffinity>  (1) 
-4.59952784

>  <minimizedRMSD>  (1) 
1.326671

$$$$
