
     RDKit          3D

 24 25  0  0  0  0  0  0  0  0999 V2000
   44.6900   35.1900   44.1420 C   0  0  0  0  0  0  0  0  0  0  0  0
   44.5590   34.4920   42.9450 C   0  0  0  0  0  0  0  0  0  0  0  0
   44.9290   33.1600   42.9160 C   0  0  0  0  0  0  0  0  0  0  0  0
   45.4110   32.5760   44.0670 N   0  0  0  0  0  0  0  0  0  0  0  0
   45.5200   33.2850   45.2000 C   0  0  0  0  0  0  0  0  0  0  0  0
   45.1660   34.5660   45.2290 N   0  0  0  0  0  0  0  0  0  0  0  0
   46.0320   32.7030   46.4570 C   0  0  0  0  0  0  0  0  0  0  0  0
   47.3290   32.1440   46.6200 C   0  0  0  0  0  0  0  0  0  0  0  0
   47.6310   31.6490   47.8550 C   0  0  0  0  0  0  0  0  0  0  0  0
   46.7490   31.6690   48.9250 C   0  0  0  0  0  0  0  0  0  0  0  0
   45.2420   32.5160   48.0870 S   0  0  0  0  0  0  0  0  0  0  0  0
   44.0510   35.1200   41.7320 C   0  0  0  0  0  0  0  0  0  0  0  0
   43.1370   34.6470   40.9220 C   0  0  0  0  0  0  0  0  0  0  0  0
   42.6930   35.3860   39.7010 C   0  0  0  0  0  0  0  0  0  0  0  0
   44.4038   36.2507   44.1960 H   0  0  0  0  0  0  0  0  0  0  0  0
   44.8399   32.5757   41.9883 H   0  0  0  0  0  0  0  0  0  0  0  0
   48.0526   32.1122   45.7921 H   0  0  0  0  0  0  0  0  0  0  0  0
   48.6278   31.2104   48.0104 H   0  0  0  0  0  0  0  0  0  0  0  0
   46.8756   31.3052   49.9553 H   0  0  0  0  0  0  0  0  0  0  0  0
   44.4819   36.0971   41.4682 H   0  0  0  0  0  0  0  0  0  0  0  0
   42.6803   33.6722   41.1481 H   0  0  0  0  0  0  0  0  0  0  0  0
   42.1478   36.2935   39.9997 H   0  0  0  0  0  0  0  0  0  0  0  0
   43.5721   35.6667   39.1024 H   0  0  0  0  0  0  0  0  0  0  0  0
   42.0324   34.7416   39.1024 H   0  0  0  0  0  0  0  0  0  0  0  0
  1  6  2  0
  2  1  1  0
  3  2  2  0
  3  4  1  0
  4  5  2  0
  5  6  1  0
  5  7  1  0
  7  8  2  0
  7 11  1  0
  8  9  1  0
  9 10  2  0
 11 10  1  0
 12  2  1  0
 13 12  2  0
 14 13  1  0
  1 15  1  0
  3 16  1  0
  8 17  1  0
  9 18  1  0
 10 19  1  0
 12 20  1  0
 13 21  1  0
 14 22  1  0
 14 23  1  0
 14 24  1  0
M  ISO  8  15  14  16  14  17  14  18  14  19  14  22   8  23   8  24   8
M  END
>  <minimizedAffinity>  (1) 
-3.81881189

>  <minimizedRMSD>  (1) 
1.1763761

$$$$
