
     RDKit          3D

 19 19  0  0  0  0  0  0  0  0999 V2000
   44.3170   35.7290   44.2250 C   0  0  0  0  0  0  0  0  0  0  0  0
   44.4680   34.9220   43.1010 C   0  0  0  0  0  0  0  0  0  0  0  0
   45.0890   33.6960   43.2610 C   0  0  0  0  0  0  0  0  0  0  0  0
   45.5280   33.3150   44.5000 N   0  0  0  0  0  0  0  0  0  0  0  0
   45.3590   34.1350   45.5740 C   0  0  0  0  0  0  0  0  0  0  0  0
   44.7570   35.3310   45.4320 N   0  0  0  0  0  0  0  0  0  0  0  0
   45.8570   33.6230   46.7960 N   0  0  0  0  0  0  0  0  0  0  0  0
   44.0120   35.3110   41.7820 C   0  0  0  0  0  0  0  0  0  0  0  0
   43.0500   34.7610   41.0850 C   0  0  0  0  0  0  0  0  0  0  0  0
   42.6460   35.2250   39.7280 C   0  0  0  0  0  0  0  0  0  0  0  0
   43.8291   36.7097   44.1243 H   0  0  0  0  0  0  0  0  0  0  0  0
   45.2292   33.0306   42.3964 H   0  0  0  0  0  0  0  0  0  0  0  0
   45.7713   34.1775   47.6598 H   0  0  0  0  0  0  0  0  0  0  0  0
   46.3051   32.6960   46.8215 H   0  0  0  0  0  0  0  0  0  0  0  0
   44.5308   36.1613   41.3153 H   0  0  0  0  0  0  0  0  0  0  0  0
   42.5103   33.9096   41.5253 H   0  0  0  0  0  0  0  0  0  0  0  0
   41.9263   36.0516   39.8223 H   0  0  0  0  0  0  0  0  0  0  0  0
   43.5341   35.5728   39.1799 H   0  0  0  0  0  0  0  0  0  0  0  0
   42.1793   34.3932   39.1799 H   0  0  0  0  0  0  0  0  0  0  0  0
  1  6  2  0
  2  3  2  0
  2  1  1  0
  3  4  1  0
  4  5  2  0
  5  7  1  0
  6  5  1  0
  8  2  1  0
  9  8  2  0
 10  9  1  0
  1 11  1  0
  3 12  1  0
  7 13  1  0
  7 14  1  0
  8 15  1  0
  9 16  1  0
 10 17  1  0
 10 18  1  0
 10 19  1  0
M  ISO  5  11  14  12  14  17   8  18   8  19   8
M  END
>  <minimizedAffinity>  (1) 
-3.70856905

>  <minimizedRMSD>  (1) 
0.0891566053

$$$$
