
     RDKit          3D

 23 23  0  0  0  0  0  0  0  0999 V2000
   41.6340   33.2190   41.2430 C   0  0  0  0  0  0  0  0  0  0  0  0
   42.4470   34.3450   41.1520 C   0  0  0  0  0  0  0  0  0  0  0  0
   42.0010   35.4220   40.3840 C   0  0  0  0  0  0  0  0  0  0  0  0
   40.7920   35.3350   39.7520 N   0  0  0  0  0  0  0  0  0  0  0  0
   40.0280   34.2180   39.8650 C   0  0  0  0  0  0  0  0  0  0  0  0
   40.4520   33.1750   40.6040 N   0  0  0  0  0  0  0  0  0  0  0  0
   43.7310   34.4700   41.8080 C   0  0  0  0  0  0  0  0  0  0  0  0
   44.2750   35.5950   42.2560 C   0  0  0  0  0  0  0  0  0  0  0  0
   45.6280   35.5800   42.9250 C   0  0  0  0  0  0  0  0  0  0  0  0
   38.7170   34.0770   39.2020 C   0  0  0  0  0  0  0  0  0  0  0  0
   38.8090   34.0820   37.7000 C   0  0  0  0  0  0  0  0  0  0  0  0
   41.9615   32.3573   41.8432 H   0  0  0  0  0  0  0  0  0  0  0  0
   42.6150   36.3297   40.2885 H   0  0  0  0  0  0  0  0  0  0  0  0
   44.3107   33.5458   41.9486 H   0  0  0  0  0  0  0  0  0  0  0  0
   43.7352   36.5462   42.1387 H   0  0  0  0  0  0  0  0  0  0  0  0
   45.4970   35.5815   44.0172 H   0  0  0  0  0  0  0  0  0  0  0  0
   46.1765   34.6757   42.6227 H   0  0  0  0  0  0  0  0  0  0  0  0
   46.1964   36.4719   42.6227 H   0  0  0  0  0  0  0  0  0  0  0  0
   38.2640   33.1268   39.5214 H   0  0  0  0  0  0  0  0  0  0  0  0
   38.1073   34.9444   39.4952 H   0  0  0  0  0  0  0  0  0  0  0  0
   39.8650   34.1394   37.3975 H   0  0  0  0  0  0  0  0  0  0  0  0
   38.3633   33.1583   37.3023 H   0  0  0  0  0  0  0  0  0  0  0  0
   38.2659   34.9520   37.3023 H   0  0  0  0  0  0  0  0  0  0  0  0
  2  1  2  0
  2  7  1  0
  3  2  1  0
  4  5  1  0
  4  3  2  0
  5  6  2  0
  6  1  1  0
  7  8  2  0
  8  9  1  0
 10  5  1  0
 11 10  1  0
  1 12  1  0
  3 13  1  0
  7 14  1  0
  8 15  1  0
  9 16  1  0
  9 17  1  0
  9 18  1  0
 10 19  1  0
 10 20  1  0
 11 21  1  0
 11 22  1  0
 11 23  1  0
M  ISO  8  12  14  13  14  16   8  17   8  18   8  19   8  20   8  21   8
M  ISO  2  22   8  23   8
M  END
>  <minimizedAffinity>  (1) 
-3.58152127

>  <minimizedRMSD>  (1) 
6.68332958

$$$$
