
     RDKit          3D

 19 19  0  0  0  0  0  0  0  0999 V2000
   44.3640   35.7540   43.7170 C   0  0  0  0  0  0  0  0  0  0  0  0
   44.1800   34.9440   42.5760 C   0  0  0  0  0  0  0  0  0  0  0  0
   44.6220   33.6120   42.6130 C   0  0  0  0  0  0  0  0  0  0  0  0
   45.2140   33.1670   43.7600 N   0  0  0  0  0  0  0  0  0  0  0  0
   45.3690   33.9730   44.8220 C   0  0  0  0  0  0  0  0  0  0  0  0
   44.9520   35.2350   44.7940 N   0  0  0  0  0  0  0  0  0  0  0  0
   46.0070   33.4550   46.0280 C   0  0  0  0  0  0  0  0  0  0  0  0
   45.3600   33.1210   47.0510 O   0  0  0  0  0  0  0  0  0  0  0  0
   43.5420   35.4480   41.3580 C   0  0  0  0  0  0  0  0  0  0  0  0
   42.8900   34.7100   40.4810 C   0  0  0  0  0  0  0  0  0  0  0  0
   42.2710   35.3440   39.2580 C   0  0  0  0  0  0  0  0  0  0  0  0
   44.0261   36.8008   43.7171 H   0  0  0  0  0  0  0  0  0  0  0  0
   44.4954   32.9479   41.7453 H   0  0  0  0  0  0  0  0  0  0  0  0
   47.1022   33.3527   46.0414 H   0  0  0  0  0  0  0  0  0  0  0  0
   43.6122   36.5276   41.1589 H   0  0  0  0  0  0  0  0  0  0  0  0
   42.7964   33.6258   40.6412 H   0  0  0  0  0  0  0  0  0  0  0  0
   41.5340   36.0988   39.5695 H   0  0  0  0  0  0  0  0  0  0  0  0
   43.0567   35.8249   38.6568 H   0  0  0  0  0  0  0  0  0  0  0  0
   41.7714   34.5700   38.6568 H   0  0  0  0  0  0  0  0  0  0  0  0
  1  6  2  0
  2  3  2  0
  2  1  1  0
  3  4  1  0
  4  5  2  0
  5  7  1  0
  6  5  1  0
  7  8  2  0
  9  2  1  0
 10  9  2  0
 11 10  1  0
  1 12  1  0
  3 13  1  0
  7 14  1  0
  9 15  1  0
 10 16  1  0
 11 17  1  0
 11 18  1  0
 11 19  1  0
M  ISO  6  12  14  13  14  14   6  17   8  18   8  19   8
M  END
>  <minimizedAffinity>  (1) 
-3.53462219

>  <minimizedRMSD>  (1) 
0.723542929

$$$$
