
     RDKit          3D

 27 28  0  0  0  0  0  0  0  0999 V2000
   44.1580   33.5530   40.6800 C   0  0  0  0  0  0  0  0  0  0  0  0
   44.4630   34.7120   41.4280 C   0  0  0  0  0  0  0  0  0  0  0  0
   43.4870   35.7120   41.5660 C   0  0  0  0  0  0  0  0  0  0  0  0
   42.2830   35.5050   40.9620 N   0  0  0  0  0  0  0  0  0  0  0  0
   42.0330   34.3900   40.2600 C   0  0  0  0  0  0  0  0  0  0  0  0
   42.9590   33.4350   40.1250 N   0  0  0  0  0  0  0  0  0  0  0  0
   39.8100   33.6330   41.7310 F   0  0  0  0  0  0  0  0  0  0  0  0
   39.6270   33.8510   40.4050 C   0  0  0  0  0  0  0  0  0  0  0  0
   40.7200   34.2310   39.6370 C   0  0  0  0  0  0  0  0  0  0  0  0
   40.6020   34.4680   38.2840 C   0  0  0  0  0  0  0  0  0  0  0  0
   39.3440   34.3130   37.7060 C   0  0  0  0  0  0  0  0  0  0  0  0
   38.2310   33.9310   38.4600 C   0  0  0  0  0  0  0  0  0  0  0  0
   38.3800   33.6970   39.8290 C   0  0  0  0  0  0  0  0  0  0  0  0
   45.7790   34.8770   42.0590 C   0  0  0  0  0  0  0  0  0  0  0  0
   46.9350   34.6740   41.4330 C   0  0  0  0  0  0  0  0  0  0  0  0
   48.2310   34.8780   42.1860 C   0  0  0  0  0  0  0  0  0  0  0  0
   44.9071   32.7566   40.5591 H   0  0  0  0  0  0  0  0  0  0  0  0
   43.6868   36.6286   42.1404 H   0  0  0  0  0  0  0  0  0  0  0  0
   41.4716   34.7692   37.6814 H   0  0  0  0  0  0  0  0  0  0  0  0
   39.2235   34.4960   36.6280 H   0  0  0  0  0  0  0  0  0  0  0  0
   37.2478   33.8158   37.9803 H   0  0  0  0  0  0  0  0  0  0  0  0
   37.5169   33.3944   40.4402 H   0  0  0  0  0  0  0  0  0  0  0  0
   45.8106   35.1874   43.1138 H   0  0  0  0  0  0  0  0  0  0  0  0
   46.9484   34.3610   40.3786 H   0  0  0  0  0  0  0  0  0  0  0  0
   48.0352   34.8472   43.2680 H   0  0  0  0  0  0  0  0  0  0  0  0
   48.9398   34.0804   41.9188 H   0  0  0  0  0  0  0  0  0  0  0  0
   48.6605   35.8548   41.9188 H   0  0  0  0  0  0  0  0  0  0  0  0
  1  2  2  0
  2  3  1  0
  2 14  1  0
  4  3  2  0
  5  4  1  0
  6  5  2  0
  6  1  1  0
  8  7  1  0
  9  5  1  0
  9  8  2  0
 10  9  1  0
 11 10  2  0
 11 12  1  0
 12 13  2  0
 13  8  1  0
 15 14  2  0
 15 16  1  0
  1 17  1  0
  3 18  1  0
 10 19  1  0
 11 20  1  0
 12 21  1  0
 13 22  1  0
 14 23  1  0
 15 24  1  0
 16 25  1  0
 16 26  1  0
 16 27  1  0
M  ISO  8  17  14  18  14  19  14  20  14  21  14  22  14  25   8  26   8
M  ISO  1  27   8
M  END
>  <minimizedAffinity>  (1) 
-5.30909395

>  <minimizedRMSD>  (1) 
8.23291779

$$$$
