
     RDKit          3D

 17 17  0  0  0  0  0  0  0  0999 V2000
   44.5570   35.6320   44.8540 C   0  0  0  0  0  0  0  0  0  0  0  0
   45.1810   35.6340   43.5720 C   0  0  0  0  0  0  0  0  0  0  0  0
   46.1560   34.6710   43.3400 C   0  0  0  0  0  0  0  0  0  0  0  0
   46.4660   33.7940   44.3150 N   0  0  0  0  0  0  0  0  0  0  0  0
   45.8520   33.8200   45.5260 C   0  0  0  0  0  0  0  0  0  0  0  0
   44.9080   34.7330   45.7840 N   0  0  0  0  0  0  0  0  0  0  0  0
   46.2920   32.7970   46.5040 C   0  0  0  0  0  0  0  0  0  0  0  0
   45.2530   32.8230   47.6260 C   0  0  0  0  0  0  0  0  0  0  0  0
   45.6830   31.7440   49.0000 S   0  0  0  0  0  0  0  0  0  0  0  0
   43.7795   36.3760   45.0821 H   0  0  0  0  0  0  0  0  0  0  0  0
   44.9027   36.3662   42.7997 H   0  0  0  0  0  0  0  0  0  0  0  0
   46.6702   34.6251   42.3687 H   0  0  0  0  0  0  0  0  0  0  0  0
   46.3224   31.8037   46.0324 H   0  0  0  0  0  0  0  0  0  0  0  0
   47.3035   33.0058   46.8825 H   0  0  0  0  0  0  0  0  0  0  0  0
   45.1673   33.8533   48.0018 H   0  0  0  0  0  0  0  0  0  0  0  0
   44.3029   32.4614   47.2058 H   0  0  0  0  0  0  0  0  0  0  0  0
   45.4270   32.3865   50.1826 H   0  0  0  0  0  0  0  0  0  0  0  0
  1  6  2  0
  2  1  1  0
  3  2  2  0
  3  4  1  0
  4  5  2  0
  5  6  1  0
  5  7  1  0
  7  8  1  0
  8  9  1  0
  1 10  1  0
  2 11  1  0
  3 12  1  0
  7 13  1  0
  7 14  1  0
  8 15  1  0
  8 16  1  0
  9 17  1  0
M  ISO  8  10  14  11  14  12  14  13   8  14   8  15   8  16   8  17  11
M  END
>  <minimizedAffinity>  (1) 
-3.34739923

>  <minimizedRMSD>  (1) 
0.0632013083

$$$$
