
     RDKit          3D

 41 44  0  0  0  0  0  0  0  0999 V2000
   44.0890   33.5300   40.5990 C   0  0  0  0  0  0  0  0  0  0  0  0
   44.3840   34.6970   41.3490 C   0  0  0  0  0  0  0  0  0  0  0  0
   43.3990   35.6770   41.5070 C   0  0  0  0  0  0  0  0  0  0  0  0
   42.1870   35.4530   40.9220 N   0  0  0  0  0  0  0  0  0  0  0  0
   41.9400   34.3460   40.2220 C   0  0  0  0  0  0  0  0  0  0  0  0
   42.8780   33.4140   40.0720 N   0  0  0  0  0  0  0  0  0  0  0  0
   39.7450   33.5820   41.7360 F   0  0  0  0  0  0  0  0  0  0  0  0
   39.5430   33.7920   40.4040 C   0  0  0  0  0  0  0  0  0  0  0  0
   40.6260   34.1750   39.6230 C   0  0  0  0  0  0  0  0  0  0  0  0
   40.4840   34.4020   38.2650 C   0  0  0  0  0  0  0  0  0  0  0  0
   39.2160   34.2330   37.7100 C   0  0  0  0  0  0  0  0  0  0  0  0
   38.1240   33.8490   38.4840 C   0  0  0  0  0  0  0  0  0  0  0  0
   38.2910   33.6230   39.8630 C   0  0  0  0  0  0  0  0  0  0  0  0
   45.7030   34.9140   41.9750 C   0  0  0  0  0  0  0  0  0  0  0  0
   46.8430   34.8330   41.2830 C   0  0  0  0  0  0  0  0  0  0  0  0
   48.1620   35.0610   41.9620 C   0  0  0  0  0  0  0  0  0  0  0  0
   49.1470   34.0100   41.7010 C   0  0  0  0  0  0  0  0  0  0  0  0
   50.1920   33.8120   42.5600 N   0  0  0  0  0  0  0  0  0  0  0  0
   51.1190   32.8570   42.3660 C   0  0  0  0  0  0  0  0  0  0  0  0
   51.1050   32.0030   41.3010 N   0  0  0  0  0  0  0  0  0  0  0  0
   50.0900   32.1690   40.4340 C   0  0  0  0  0  0  0  0  0  0  0  0
   50.0550   31.3130   39.3400 C   0  0  0  0  0  0  0  0  0  0  0  0
   49.0370   31.4400   38.4180 C   0  0  0  0  0  0  0  0  0  0  0  0
   48.0960   32.4220   38.6320 C   0  0  0  0  0  0  0  0  0  0  0  0
   48.0990   33.2830   39.6950 C   0  0  0  0  0  0  0  0  0  0  0  0
   49.1350   33.1460   40.6260 C   0  0  0  0  0  0  0  0  0  0  0  0
   44.8442   32.7427   40.4584 H   0  0  0  0  0  0  0  0  0  0  0  0
   43.5942   36.5944   42.0816 H   0  0  0  0  0  0  0  0  0  0  0  0
   41.3410   34.7050   37.6456 H   0  0  0  0  0  0  0  0  0  0  0  0
   39.0747   34.4075   36.6332 H   0  0  0  0  0  0  0  0  0  0  0  0
   37.1349   33.7228   38.0195 H   0  0  0  0  0  0  0  0  0  0  0  0
   37.4412   33.3189   40.4917 H   0  0  0  0  0  0  0  0  0  0  0  0
   45.7490   35.1506   43.0483 H   0  0  0  0  0  0  0  0  0  0  0  0
   46.8147   34.5977   40.2088 H   0  0  0  0  0  0  0  0  0  0  0  0
   48.5735   36.0182   41.6091 H   0  0  0  0  0  0  0  0  0  0  0  0
   47.9705   35.0607   43.0452 H   0  0  0  0  0  0  0  0  0  0  0  0
   51.9297   32.7591   43.1030 H   0  0  0  0  0  0  0  0  0  0  0  0
   50.8300   30.5432   39.2108 H   0  0  0  0  0  0  0  0  0  0  0  0
   48.9789   30.7787   37.5409 H   0  0  0  0  0  0  0  0  0  0  0  0
   47.2844   32.5212   37.8962 H   0  0  0  0  0  0  0  0  0  0  0  0
   47.3200   34.0506   39.8131 H   0  0  0  0  0  0  0  0  0  0  0  0
  1  2  2  0
  2  3  1  0
  2 14  1  0
  4  3  2  0
  5  4  1  0
  6  5  2  0
  6  1  1  0
  8  7  1  0
  9  5  1  0
  9  8  2  0
 10  9  1  0
 11 10  2  0
 11 12  1  0
 12 13  2  0
 13  8  1  0
 15 16  1  0
 15 14  2  0
 17 16  1  0
 17 18  2  0
 19 18  1  0
 20 19  2  0
 21 26  2  0
 21 20  1  0
 22 21  1  0
 23 24  1  0
 23 22  2  0
 24 25  2  0
 25 26  1  0
 26 17  1  0
  1 27  1  0
  3 28  1  0
 10 29  1  0
 11 30  1  0
 12 31  1  0
 13 32  1  0
 14 33  1  0
 15 34  1  0
 16 35  1  0
 16 36  1  0
 19 37  1  0
 22 38  1  0
 23 39  1  0
 24 40  1  0
 25 41  1  0
M  ISO  8  27  14  28  14  29  14  30  14  31  14  32  14  35   8  36   8
M  ISO  5  37  14  38  14  39  14  40  14  41  14
M  END
>  <minimizedAffinity>  (1) 
-6.50713539

>  <minimizedRMSD>  (1) 
0.829190254

$$$$
