
     RDKit          3D

 37 39  0  0  0  0  0  0  0  0999 V2000
   44.0930   33.6330   40.6550 C   0  0  0  0  0  0  0  0  0  0  0  0
   44.3430   34.7820   41.4580 C   0  0  0  0  0  0  0  0  0  0  0  0
   43.3290   35.7240   41.6190 C   0  0  0  0  0  0  0  0  0  0  0  0
   42.1370   35.4980   40.9960 N   0  0  0  0  0  0  0  0  0  0  0  0
   41.9420   34.3970   40.2460 C   0  0  0  0  0  0  0  0  0  0  0  0
   42.9050   33.4790   40.0780 N   0  0  0  0  0  0  0  0  0  0  0  0
   39.7300   33.5850   41.7180 F   0  0  0  0  0  0  0  0  0  0  0  0
   39.5470   33.8080   40.3810 C   0  0  0  0  0  0  0  0  0  0  0  0
   40.6400   34.2180   39.6120 C   0  0  0  0  0  0  0  0  0  0  0  0
   40.5140   34.4540   38.2690 C   0  0  0  0  0  0  0  0  0  0  0  0
   39.2580   34.2750   37.6860 C   0  0  0  0  0  0  0  0  0  0  0  0
   38.1490   33.8630   38.4490 C   0  0  0  0  0  0  0  0  0  0  0  0
   38.3040   33.6290   39.8120 C   0  0  0  0  0  0  0  0  0  0  0  0
   45.6510   34.9290   42.0870 C   0  0  0  0  0  0  0  0  0  0  0  0
   46.8090   34.6790   41.5070 C   0  0  0  0  0  0  0  0  0  0  0  0
   48.0920   34.8640   42.2660 C   0  0  0  0  0  0  0  0  0  0  0  0
   50.8390   34.9220   42.4840 F   0  0  0  0  0  0  0  0  0  0  0  0
   50.2040   33.7270   42.2990 C   0  0  0  0  0  0  0  0  0  0  0  0
   48.8280   33.5770   42.1760 C   0  0  0  0  0  0  0  0  0  0  0  0
   48.3240   32.3040   41.9930 C   0  0  0  0  0  0  0  0  0  0  0  0
   49.1800   31.2270   41.9350 C   0  0  0  0  0  0  0  0  0  0  0  0
   50.5600   31.3900   42.0610 C   0  0  0  0  0  0  0  0  0  0  0  0
   51.0860   32.6570   42.2450 C   0  0  0  0  0  0  0  0  0  0  0  0
   44.8788   32.8765   40.5127 H   0  0  0  0  0  0  0  0  0  0  0  0
   43.4855   36.6244   42.2312 H   0  0  0  0  0  0  0  0  0  0  0  0
   41.3769   34.7752   37.6672 H   0  0  0  0  0  0  0  0  0  0  0  0
   39.1325   34.4596   36.6089 H   0  0  0  0  0  0  0  0  0  0  0  0
   37.1674   33.7271   37.9715 H   0  0  0  0  0  0  0  0  0  0  0  0
   37.4494   33.3067   40.4250 H   0  0  0  0  0  0  0  0  0  0  0  0
   45.6734   35.2768   43.1303 H   0  0  0  0  0  0  0  0  0  0  0  0
   46.8353   34.3335   40.4630 H   0  0  0  0  0  0  0  0  0  0  0  0
   48.6859   35.6731   41.8159 H   0  0  0  0  0  0  0  0  0  0  0  0
   47.8972   35.1370   43.3136 H   0  0  0  0  0  0  0  0  0  0  0  0
   47.2393   32.1507   41.8936 H   0  0  0  0  0  0  0  0  0  0  0  0
   48.7677   30.2181   41.7864 H   0  0  0  0  0  0  0  0  0  0  0  0
   51.2265   30.5161   42.0143 H   0  0  0  0  0  0  0  0  0  0  0  0
   52.1705   32.8111   42.3454 H   0  0  0  0  0  0  0  0  0  0  0  0
  1  2  2  0
  2  3  1  0
  2 14  1  0
  4  3  2  0
  5  4  1  0
  6  5  2  0
  6  1  1  0
  8  7  1  0
  9  5  1  0
  9  8  2  0
 10  9  1  0
 11 10  2  0
 11 12  1  0
 12 13  2  0
 13  8  1  0
 15 14  2  0
 15 16  1  0
 18 17  1  0
 19 16  1  0
 19 18  2  0
 20 19  1  0
 21 20  2  0
 21 22  1  0
 22 23  2  0
 23 18  1  0
  1 24  1  0
  3 25  1  0
 10 26  1  0
 11 27  1  0
 12 28  1  0
 13 29  1  0
 14 30  1  0
 15 31  1  0
 16 32  1  0
 16 33  1  0
 20 34  1  0
 21 35  1  0
 22 36  1  0
 23 37  1  0
M  ISO  8  24  14  25  14  26  14  27  14  28  14  29  14  32   8  33   8
M  ISO  4  34  14  35  14  36  14  37  14
M  END
>  <minimizedAffinity>  (1) 
-6.37832642

>  <minimizedRMSD>  (1) 
0.161853358

$$$$
