
     RDKit          3D

 37 39  0  0  0  0  0  0  0  0999 V2000
   43.9380   33.2600   40.6390 C   0  0  0  0  0  0  0  0  0  0  0  0
   44.3390   34.4310   41.2980 C   0  0  0  0  0  0  0  0  0  0  0  0
   43.4430   35.5260   41.3610 C   0  0  0  0  0  0  0  0  0  0  0  0
   42.2250   35.3770   40.7720 N   0  0  0  0  0  0  0  0  0  0  0  0
   41.8800   34.2430   40.1530 C   0  0  0  0  0  0  0  0  0  0  0  0
   42.7300   33.2280   40.1010 N   0  0  0  0  0  0  0  0  0  0  0  0
   39.6280   33.6070   41.6250 F   0  0  0  0  0  0  0  0  0  0  0  0
   39.4530   33.8190   40.3050 C   0  0  0  0  0  0  0  0  0  0  0  0
   40.5610   34.1400   39.5340 C   0  0  0  0  0  0  0  0  0  0  0  0
   40.4720   34.3740   38.1680 C   0  0  0  0  0  0  0  0  0  0  0  0
   39.2050   34.2720   37.5960 C   0  0  0  0  0  0  0  0  0  0  0  0
   38.0700   33.9510   38.3370 C   0  0  0  0  0  0  0  0  0  0  0  0
   38.2080   33.7250   39.7060 C   0  0  0  0  0  0  0  0  0  0  0  0
   45.6570   34.6170   41.9390 C   0  0  0  0  0  0  0  0  0  0  0  0
   45.9660   34.0010   43.0890 C   0  0  0  0  0  0  0  0  0  0  0  0
   47.3200   34.2080   43.7020 C   0  0  0  0  0  0  0  0  0  0  0  0
   49.9350   34.8220   42.2340 Cl  0  0  0  0  0  0  0  0  0  0  0  0
   49.3220   33.2150   42.5670 C   0  0  0  0  0  0  0  0  0  0  0  0
   48.1300   33.0260   43.2380 C   0  0  0  0  0  0  0  0  0  0  0  0
   47.6440   31.7580   43.5020 C   0  0  0  0  0  0  0  0  0  0  0  0
   48.3340   30.6210   43.1020 C   0  0  0  0  0  0  0  0  0  0  0  0
   49.5230   30.8320   42.4340 C   0  0  0  0  0  0  0  0  0  0  0  0
   50.0440   32.0960   42.1490 C   0  0  0  0  0  0  0  0  0  0  0  0
   51.5740   32.2540   41.2880 Cl  0  0  0  0  0  0  0  0  0  0  0  0
   44.6098   32.3916   40.5713 H   0  0  0  0  0  0  0  0  0  0  0  0
   43.7211   36.4622   41.8672 H   0  0  0  0  0  0  0  0  0  0  0  0
   41.3578   34.6274   37.5670 H   0  0  0  0  0  0  0  0  0  0  0  0
   39.0971   34.4522   36.5162 H   0  0  0  0  0  0  0  0  0  0  0  0
   37.0853   33.8773   37.8523 H   0  0  0  0  0  0  0  0  0  0  0  0
   37.3256   33.4714   40.3118 H   0  0  0  0  0  0  0  0  0  0  0  0
   46.3998   35.2741   41.4631 H   0  0  0  0  0  0  0  0  0  0  0  0
   45.2307   33.3471   43.5807 H   0  0  0  0  0  0  0  0  0  0  0  0
   47.7672   35.1486   43.3480 H   0  0  0  0  0  0  0  0  0  0  0  0
   47.2756   34.2794   44.7988 H   0  0  0  0  0  0  0  0  0  0  0  0
   46.6909   31.6480   44.0401 H   0  0  0  0  0  0  0  0  0  0  0  0
   47.9541   29.6091   43.3062 H   0  0  0  0  0  0  0  0  0  0  0  0
   50.0949   29.9514   42.1062 H   0  0  0  0  0  0  0  0  0  0  0  0
  1  2  2  0
  2  3  1  0
  2 14  1  0
  4  3  2  0
  5  4  1  0
  6  5  2  0
  6  1  1  0
  8  7  1  0
  9  5  1  0
  9  8  2  0
 10  9  1  0
 11 10  2  0
 11 12  1  0
 12 13  2  0
 13  8  1  0
 14 15  2  0
 15 16  1  0
 17 18  1  0
 18 19  2  0
 19 20  1  0
 19 16  1  0
 21 20  2  0
 22 21  1  0
 23 22  2  0
 23 18  1  0
 24 23  1  0
  1 25  1  0
  3 26  1  0
 10 27  1  0
 11 28  1  0
 12 29  1  0
 13 30  1  0
 14 31  1  0
 15 32  1  0
 16 33  1  0
 16 34  1  0
 20 35  1  0
 21 36  1  0
 22 37  1  0
M  ISO  8  25  14  26  14  27  14  28  14  29  14  30  14  33   8  34   8
M  ISO  3  35  14  36  14  37  14
M  END
>  <minimizedAffinity>  (1) 
-6.05794382

>  <minimizedRMSD>  (1) 
3.33576608

$$$$
