
     RDKit          3D

 34 36  0  0  0  0  0  0  0  0999 V2000
   43.9800   33.4820   41.0710 C   0  0  0  0  0  0  0  0  0  0  0  0
   44.3330   34.7320   41.6450 C   0  0  0  0  0  0  0  0  0  0  0  0
   43.4320   35.7940   41.5570 C   0  0  0  0  0  0  0  0  0  0  0  0
   42.2510   35.5640   40.9150 N   0  0  0  0  0  0  0  0  0  0  0  0
   41.9530   34.3700   40.3860 C   0  0  0  0  0  0  0  0  0  0  0  0
   42.8100   33.3350   40.4620 N   0  0  0  0  0  0  0  0  0  0  0  0
   39.6620   33.7180   41.8170 F   0  0  0  0  0  0  0  0  0  0  0  0
   39.5390   33.8620   40.4650 C   0  0  0  0  0  0  0  0  0  0  0  0
   40.6710   34.1890   39.7130 C   0  0  0  0  0  0  0  0  0  0  0  0
   40.6030   34.3450   38.3550 C   0  0  0  0  0  0  0  0  0  0  0  0
   39.3610   34.1660   37.7460 C   0  0  0  0  0  0  0  0  0  0  0  0
   38.2140   33.8370   38.4780 C   0  0  0  0  0  0  0  0  0  0  0  0
   38.3090   33.6830   39.8620 C   0  0  0  0  0  0  0  0  0  0  0  0
   45.6190   34.8910   42.3150 C   0  0  0  0  0  0  0  0  0  0  0  0
   46.6690   34.1070   42.1450 C   0  0  0  0  0  0  0  0  0  0  0  0
   47.9580   34.3460   42.8790 C   0  0  0  0  0  0  0  0  0  0  0  0
   49.0570   34.8320   41.9720 C   0  0  0  0  0  0  0  0  0  0  0  0
   48.7310   35.2720   40.6010 C   0  0  0  0  0  0  0  0  0  0  0  0
   49.2430   36.2660   41.6480 C   0  0  0  0  0  0  0  0  0  0  0  0
   44.6778   32.6338   41.1313 H   0  0  0  0  0  0  0  0  0  0  0  0
   43.6653   36.7785   41.9887 H   0  0  0  0  0  0  0  0  0  0  0  0
   41.4953   34.6022   37.7653 H   0  0  0  0  0  0  0  0  0  0  0  0
   39.2802   34.2872   36.6557 H   0  0  0  0  0  0  0  0  0  0  0  0
   37.2487   33.7014   37.9682 H   0  0  0  0  0  0  0  0  0  0  0  0
   37.4228   33.4245   40.4602 H   0  0  0  0  0  0  0  0  0  0  0  0
   45.7230   35.7307   43.0179 H   0  0  0  0  0  0  0  0  0  0  0  0
   46.5976   33.2583   41.4488 H   0  0  0  0  0  0  0  0  0  0  0  0
   47.7846   35.1017   43.6593 H   0  0  0  0  0  0  0  0  0  0  0  0
   48.2801   33.3864   43.3095 H   0  0  0  0  0  0  0  0  0  0  0  0
   49.7214   34.0729   42.4106 H   0  0  0  0  0  0  0  0  0  0  0  0
   47.6835   35.3111   40.2674 H   0  0  0  0  0  0  0  0  0  0  0  0
   49.0384   34.9729   39.5880 H   0  0  0  0  0  0  0  0  0  0  0  0
   50.2554   36.6876   41.5628 H   0  0  0  0  0  0  0  0  0  0  0  0
   48.8872   37.2188   42.0670 H   0  0  0  0  0  0  0  0  0  0  0  0
  1  2  2  0
  2 14  1  0
  3  2  1  0
  4  3  2  0
  5  6  2  0
  5  4  1  0
  6  1  1  0
  8  7  1  0
  9  5  1  0
  9  8  2  0
 10  9  1  0
 11 10  2  0
 11 12  1  0
 12 13  2  0
 13  8  1  0
 15 14  2  0
 15 16  1  0
 17 16  1  0
 18 19  1  0
 18 17  1  0
 19 17  1  0
  1 20  1  0
  3 21  1  0
 10 22  1  0
 11 23  1  0
 12 24  1  0
 13 25  1  0
 14 26  1  0
 15 27  1  0
 16 28  1  0
 16 29  1  0
 17 30  1  0
 18 31  1  0
 18 32  1  0
 19 33  1  0
 19 34  1  0
M  ISO  8  20  14  21  14  22  14  23  14  24  14  25  14  28   8  29   8
M  ISO  5  30  13  31  13  32  13  33  13  34  13
M  END
>  <minimizedAffinity>  (1) 
-6.01112843

>  <minimizedRMSD>  (1) 
0.593631923

$$$$
