
     RDKit          3D

 42 44  0  0  0  0  0  0  0  0999 V2000
   43.8060   33.3780   41.4210 C   0  0  0  0  0  0  0  0  0  0  0  0
   44.2540   34.6650   41.8200 C   0  0  0  0  0  0  0  0  0  0  0  0
   43.4790   35.7810   41.5120 C   0  0  0  0  0  0  0  0  0  0  0  0
   42.3120   35.5730   40.8320 N   0  0  0  0  0  0  0  0  0  0  0  0
   41.9150   34.3500   40.4680 C   0  0  0  0  0  0  0  0  0  0  0  0
   42.6600   33.2690   40.7640 N   0  0  0  0  0  0  0  0  0  0  0  0
   39.5720   33.6740   41.7930 F   0  0  0  0  0  0  0  0  0  0  0  0
   39.4990   33.8480   40.4410 C   0  0  0  0  0  0  0  0  0  0  0  0
   40.6630   34.1890   39.7460 C   0  0  0  0  0  0  0  0  0  0  0  0
   40.6490   34.3780   38.3830 C   0  0  0  0  0  0  0  0  0  0  0  0
   39.4300   34.2140   37.7320 C   0  0  0  0  0  0  0  0  0  0  0  0
   38.2580   33.8710   38.4110 C   0  0  0  0  0  0  0  0  0  0  0  0
   38.3000   33.6870   39.7880 C   0  0  0  0  0  0  0  0  0  0  0  0
   45.5160   34.8050   42.5480 C   0  0  0  0  0  0  0  0  0  0  0  0
   46.5240   33.9480   42.4960 C   0  0  0  0  0  0  0  0  0  0  0  0
   47.7770   34.1900   43.2920 C   0  0  0  0  0  0  0  0  0  0  0  0
   48.8060   33.2890   42.8240 N   0  0  0  0  0  0  0  0  0  0  0  0
   48.2920   32.4340   41.7920 C   0  0  0  0  0  0  0  0  0  0  0  0
   49.3400   31.3680   41.4720 C   0  0  0  0  0  0  0  0  0  0  0  0
   50.6350   32.0350   41.0650 C   0  0  0  0  0  0  0  0  0  0  0  0
   51.0800   32.9580   42.1700 C   0  0  0  0  0  0  0  0  0  0  0  0
   49.9810   33.9870   42.3860 C   0  0  0  0  0  0  0  0  0  0  0  0
   44.4021   32.4834   41.6540 H   0  0  0  0  0  0  0  0  0  0  0  0
   43.7950   36.7929   41.8055 H   0  0  0  0  0  0  0  0  0  0  0  0
   41.5621   34.6471   37.8318 H   0  0  0  0  0  0  0  0  0  0  0  0
   39.3876   34.3598   36.6425 H   0  0  0  0  0  0  0  0  0  0  0  0
   37.3128   33.7480   37.8620 H   0  0  0  0  0  0  0  0  0  0  0  0
   37.3906   33.4175   40.3451 H   0  0  0  0  0  0  0  0  0  0  0  0
   45.6365   35.6913   43.1883 H   0  0  0  0  0  0  0  0  0  0  0  0
   46.4443   33.0507   41.8648 H   0  0  0  0  0  0  0  0  0  0  0  0
   48.1066   35.2306   43.1559 H   0  0  0  0  0  0  0  0  0  0  0  0
   47.5820   34.0131   44.3600 H   0  0  0  0  0  0  0  0  0  0  0  0
   47.3664   31.9510   42.1383 H   0  0  0  0  0  0  0  0  0  0  0  0
   48.0711   33.0250   40.8909 H   0  0  0  0  0  0  0  0  0  0  0  0
   49.5129   30.7458   42.3625 H   0  0  0  0  0  0  0  0  0  0  0  0
   48.9789   30.7373   40.6463 H   0  0  0  0  0  0  0  0  0  0  0  0
   51.4055   31.2694   40.8913 H   0  0  0  0  0  0  0  0  0  0  0  0
   50.4821   32.6098   40.1397 H   0  0  0  0  0  0  0  0  0  0  0  0
   51.2425   32.3842   43.0943 H   0  0  0  0  0  0  0  0  0  0  0  0
   52.0238   33.4543   41.8999 H   0  0  0  0  0  0  0  0  0  0  0  0
   50.2928   34.7122   43.1521 H   0  0  0  0  0  0  0  0  0  0  0  0
   49.7778   34.5335   41.4532 H   0  0  0  0  0  0  0  0  0  0  0  0
  1  2  2  0
  2 14  1  0
  3  2  1  0
  4  3  2  0
  5  6  2  0
  5  4  1  0
  6  1  1  0
  8  7  1  0
  9  8  2  0
  9  5  1  0
 10  9  1  0
 11 10  2  0
 11 12  1  0
 12 13  2  0
 13  8  1  0
 15 14  2  0
 15 16  1  0
 17 16  1  0
 18 17  1  0
 19 18  1  0
 20 19  1  0
 20 21  1  0
 21 22  1  0
 22 17  1  0
  1 23  1  0
  3 24  1  0
 10 25  1  0
 11 26  1  0
 12 27  1  0
 13 28  1  0
 14 29  1  0
 15 30  1  0
 16 31  1  0
 16 32  1  0
 18 33  1  0
 18 34  1  0
 19 35  1  0
 19 36  1  0
 20 37  1  0
 20 38  1  0
 21 39  1  0
 21 40  1  0
 22 41  1  0
 22 42  1  0
M  ISO  8  23  14  24  14  25  14  26  14  27  14  28  14  31   8  32   8
M  ISO  8  33  13  34  13  35  13  36  13  37  13  38  13  39  13  40  13
M  ISO  2  41  13  42  13
M  END
>  <minimizedAffinity>  (1) 
-5.83750916

>  <minimizedRMSD>  (1) 
2.51748562

$$$$
