
     RDKit          3D

 41 43  0  0  0  0  0  0  0  0999 V2000
   44.2010   33.5400   40.6080 C   0  0  0  0  0  0  0  0  0  0  0  0
   44.5040   34.6710   41.3780 C   0  0  0  0  0  0  0  0  0  0  0  0
   43.5290   35.6760   41.5680 C   0  0  0  0  0  0  0  0  0  0  0  0
   42.3110   35.4910   40.9750 N   0  0  0  0  0  0  0  0  0  0  0  0
   42.0630   34.4000   40.2490 C   0  0  0  0  0  0  0  0  0  0  0  0
   42.9850   33.4610   40.0760 N   0  0  0  0  0  0  0  0  0  0  0  0
   39.8460   33.6290   41.7320 F   0  0  0  0  0  0  0  0  0  0  0  0
   39.6580   33.8670   40.4000 C   0  0  0  0  0  0  0  0  0  0  0  0
   40.7410   34.2510   39.6360 C   0  0  0  0  0  0  0  0  0  0  0  0
   40.6110   34.5070   38.2790 C   0  0  0  0  0  0  0  0  0  0  0  0
   39.3500   34.3610   37.7100 C   0  0  0  0  0  0  0  0  0  0  0  0
   38.2400   33.9700   38.4800 C   0  0  0  0  0  0  0  0  0  0  0  0
   38.4000   33.7200   39.8410 C   0  0  0  0  0  0  0  0  0  0  0  0
   45.8160   34.8760   42.0200 C   0  0  0  0  0  0  0  0  0  0  0  0
   46.8580   34.0980   41.7870 C   0  0  0  0  0  0  0  0  0  0  0  0
   48.1840   34.3210   42.4460 C   0  0  0  0  0  0  0  0  0  0  0  0
   49.2710   33.8730   41.6100 N   0  0  0  0  0  0  0  0  0  0  0  0
   48.9010   32.9200   40.6300 C   0  0  0  0  0  0  0  0  0  0  0  0
   49.9840   32.0210   40.1570 C   0  0  0  0  0  0  0  0  0  0  0  0
   50.9670   31.6530   41.1310 N   0  0  0  0  0  0  0  0  0  0  0  0
   50.6650   32.1400   42.4570 C   0  0  0  0  0  0  0  0  0  0  0  0
   50.4890   33.6540   42.3100 C   0  0  0  0  0  0  0  0  0  0  0  0
   44.9440   32.7445   40.4491 H   0  0  0  0  0  0  0  0  0  0  0  0
   43.7416   36.5721   42.1695 H   0  0  0  0  0  0  0  0  0  0  0  0
   41.4759   34.8151   37.6732 H   0  0  0  0  0  0  0  0  0  0  0  0
   39.2183   34.5554   36.6354 H   0  0  0  0  0  0  0  0  0  0  0  0
   37.2512   33.8622   38.0102 H   0  0  0  0  0  0  0  0  0  0  0  0
   37.5439   33.4119   40.4592 H   0  0  0  0  0  0  0  0  0  0  0  0
   45.9320   35.7135   42.7237 H   0  0  0  0  0  0  0  0  0  0  0  0
   46.7478   33.2581   41.0853 H   0  0  0  0  0  0  0  0  0  0  0  0
   48.3071   35.3954   42.6473 H   0  0  0  0  0  0  0  0  0  0  0  0
   48.2065   33.7426   43.3814 H   0  0  0  0  0  0  0  0  0  0  0  0
   48.1036   32.2924   41.0546 H   0  0  0  0  0  0  0  0  0  0  0  0
   48.5930   33.5031   39.7496 H   0  0  0  0  0  0  0  0  0  0  0  0
   49.5160   31.0972   39.7860 H   0  0  0  0  0  0  0  0  0  0  0  0
   50.5275   32.5913   39.3893 H   0  0  0  0  0  0  0  0  0  0  0  0
   51.0251   30.6252   41.1652 H   0  0  0  0  0  0  0  0  0  0  0  0
   49.7390   31.6806   42.8330 H   0  0  0  0  0  0  0  0  0  0  0  0
   51.4618   31.8907   43.1732 H   0  0  0  0  0  0  0  0  0  0  0  0
   51.3307   34.0773   41.7421 H   0  0  0  0  0  0  0  0  0  0  0  0
   50.4637   34.1403   43.2963 H   0  0  0  0  0  0  0  0  0  0  0  0
  1  2  2  0
  2  3  1  0
  2 14  1  0
  4  3  2  0
  5  4  1  0
  6  5  2  0
  6  1  1  0
  8  7  1  0
  9  5  1  0
  9  8  2  0
 10  9  1  0
 11 10  2  0
 11 12  1  0
 12 13  2  0
 13  8  1  0
 15 14  2  0
 15 16  1  0
 17 22  1  0
 17 16  1  0
 18 17  1  0
 19 18  1  0
 19 20  1  0
 20 21  1  0
 22 21  1  0
  1 23  1  0
  3 24  1  0
 10 25  1  0
 11 26  1  0
 12 27  1  0
 13 28  1  0
 14 29  1  0
 15 30  1  0
 16 31  1  0
 16 32  1  0
 18 33  1  0
 18 34  1  0
 19 35  1  0
 19 36  1  0
 20 37  1  0
 21 38  1  0
 21 39  1  0
 22 40  1  0
 22 41  1  0
M  ISO  8  23  14  24  14  25  14  26  14  27  14  28  14  31   8  32   8
M  ISO  8  33  13  34  13  35  13  36  13  37   5  38  13  39  13  40  13
M  ISO  1  41  13
M  END
>  <minimizedAffinity>  (1) 
-5.75554419

>  <minimizedRMSD>  (1) 
2.2305162

$$$$
