
     RDKit          3D

 54 57  0  0  1  0  0  0  0  0999 V2000
   48.5570   34.0750   42.2130 N   0  0  0  0  0  0  0  0  0  0  0  0
   49.8360   34.4430   42.7730 C   0  0  0  0  0  0  0  0  0  0  0  0
   50.8670   33.5320   42.1900 C   0  0  0  0  0  0  0  0  0  0  0  0
   50.0780   32.3190   41.8120 C   0  0  0  0  0  0  0  0  0  0  0  0
   48.6220   32.7270   41.7720 C   0  0  2  0  0  0  0  0  0  0  0  0
   47.8830   33.1340   39.3750 C   0  0  0  0  0  0  0  0  0  0  0  0
   47.9690   32.3910   40.5150 C   0  0  0  0  0  0  0  0  0  0  0  0
   47.3420   31.1410   40.4110 C   0  0  0  0  0  0  0  0  0  0  0  0
   46.7130   30.7440   39.2500 C   0  0  0  0  0  0  0  0  0  0  0  0
   46.6590   31.5410   38.1290 C   0  0  0  0  0  0  0  0  0  0  0  0
   47.2650   32.7720   38.1990 C   0  0  0  0  0  0  0  0  0  0  0  0
   48.8650   35.5310   39.9070 N   0  0  0  0  0  0  0  0  0  0  0  0
   48.4760   34.4490   39.3440 C   0  0  0  0  0  0  0  0  0  0  0  0
   48.9480   35.0270   38.1090 N   0  0  0  0  0  0  0  0  0  0  0  0
   49.2930   36.2360   39.2540 H   0  0  0  0  0  0  0  0  0  0  0  0
   47.5350   34.2600   43.2200 C   0  0  0  0  0  0  0  0  0  0  0  0
   45.6840   34.8390   41.6960 C   0  0  0  0  0  0  0  0  0  0  0  0
   46.1550   34.0220   42.6580 C   0  0  0  0  0  0  0  0  0  0  0  0
   44.0270   33.5560   40.2630 C   0  0  0  0  0  0  0  0  0  0  0  0
   44.3470   34.6500   41.1160 C   0  0  0  0  0  0  0  0  0  0  0  0
   43.3410   35.5760   41.4110 C   0  0  0  0  0  0  0  0  0  0  0  0
   42.1070   35.3900   40.8710 N   0  0  0  0  0  0  0  0  0  0  0  0
   41.8450   34.3420   40.0700 C   0  0  0  0  0  0  0  0  0  0  0  0
   42.8030   33.4460   39.7790 N   0  0  0  0  0  0  0  0  0  0  0  0
   39.7120   33.5310   41.6520 F   0  0  0  0  0  0  0  0  0  0  0  0
   39.4550   33.7720   40.3390 C   0  0  0  0  0  0  0  0  0  0  0  0
   40.5070   34.1820   39.5140 C   0  0  0  0  0  0  0  0  0  0  0  0
   40.3290   34.4460   38.1750 C   0  0  0  0  0  0  0  0  0  0  0  0
   39.0420   34.2860   37.6650 C   0  0  0  0  0  0  0  0  0  0  0  0
   37.9680   33.8760   38.4700 C   0  0  0  0  0  0  0  0  0  0  0  0
   38.1840   33.6210   39.8110 C   0  0  0  0  0  0  0  0  0  0  0  0
   50.0706   35.4867   42.5169 H   0  0  0  0  0  0  0  0  0  0  0  0
   49.8170   34.3516   43.8690 H   0  0  0  0  0  0  0  0  0  0  0  0
   51.3399   33.9858   41.3066 H   0  0  0  0  0  0  0  0  0  0  0  0
   51.6900   33.3113   42.8856 H   0  0  0  0  0  0  0  0  0  0  0  0
   50.3950   31.9563   40.8231 H   0  0  0  0  0  0  0  0  0  0  0  0
   50.2365   31.5082   42.5383 H   0  0  0  0  0  0  0  0  0  0  0  0
   48.0054   32.1359   42.4651 H   0  0  0  0  0  0  0  0  0  0  0  0
   47.3522   30.4613   41.2758 H   0  0  0  0  0  0  0  0  0  0  0  0
   46.2364   29.7531   39.2184 H   0  0  0  0  0  0  0  0  0  0  0  0
   46.1506   31.2055   37.2131 H   0  0  0  0  0  0  0  0  0  0  0  0
   47.2567   33.4530   37.3352 H   0  0  0  0  0  0  0  0  0  0  0  0
   49.3684   35.9673   38.1080 H   0  0  0  0  0  0  0  0  0  0  0  0
   48.8646   34.4993   37.2284 H   0  0  0  0  0  0  0  0  0  0  0  0
   47.7124   33.5526   44.0434 H   0  0  0  0  0  0  0  0  0  0  0  0
   47.5873   35.2988   43.5779 H   0  0  0  0  0  0  0  0  0  0  0  0
   46.3141   35.6659   41.3366 H   0  0  0  0  0  0  0  0  0  0  0  0
   45.5397   33.1896   43.0301 H   0  0  0  0  0  0  0  0  0  0  0  0
   44.7929   32.8084   40.0091 H   0  0  0  0  0  0  0  0  0  0  0  0
   43.5438   36.4363   42.0658 H   0  0  0  0  0  0  0  0  0  0  0  0
   41.1646   34.7686   37.5365 H   0  0  0  0  0  0  0  0  0  0  0  0
   38.8624   34.4873   36.5986 H   0  0  0  0  0  0  0  0  0  0  0  0
   36.9634   33.7587   38.0375 H   0  0  0  0  0  0  0  0  0  0  0  0
   37.3516   33.3002   40.4546 H   0  0  0  0  0  0  0  0  0  0  0  0
  1  2  1  0
  1 16  1  0
  3  2  1  0
  4  3  1  0
  5  4  1  0
  5  1  1  0
  6  7  2  0
  7  5  1  0
  8  7  1  0
  9  8  2  0
 10 11  2  0
 10  9  1  0
 11  6  1  0
 13  6  1  0
 13 12  2  0
 14 13  1  0
 15 12  1  0
 17 18  2  0
 18 16  1  0
 19 20  2  0
 20 21  1  0
 20 17  1  0
 22 21  2  0
 23 22  1  0
 24 23  2  0
 24 19  1  0
 26 25  1  0
 27 23  1  0
 27 26  2  0
 28 27  1  0
 29 28  2  0
 29 30  1  0
 30 31  2  0
 31 26  1  0
  2 32  1  0
  2 33  1  0
  3 34  1  0
  3 35  1  0
  4 36  1  0
  4 37  1  0
  5 38  1  1
  8 39  1  0
  9 40  1  0
 10 41  1  0
 11 42  1  0
 14 43  1  0
 14 44  1  0
 16 45  1  0
 16 46  1  0
 17 47  1  0
 18 48  1  0
 19 49  1  0
 21 50  1  0
 28 51  1  0
 29 52  1  0
 30 53  1  0
 31 54  1  0
M  ISO  8  32  13  33  13  34  13  35  13  36  13  37  13  38  13  39  14
M  ISO  8  40  14  41  14  42  14  45   8  46   8  49  14  50  14  51  14
M  ISO  3  52  14  53  14  54  14
M  END
>  <minimizedAffinity>  (1) 
-6.85043955

>  <minimizedRMSD>  (1) 
1.19567561

$$$$
