
     RDKit          3D

 46 48  0  0  1  0  0  0  0  0999 V2000
   48.0850   34.8930   42.2510 C   0  0  0  0  0  0  0  0  0  0  0  0
   49.2190   34.3710   41.5290 N   0  0  0  0  0  0  0  0  0  0  0  0
   50.1370   33.7480   42.4280 C   0  0  0  0  0  0  0  0  0  0  0  0
   50.7270   32.5400   41.7460 C   0  0  0  0  0  0  0  0  0  0  0  0
   49.6960   32.1950   40.7250 C   0  0  0  0  0  0  0  0  0  0  0  0
   48.8240   33.4250   40.5420 C   0  0  2  0  0  0  0  0  0  0  0  0
   46.9510   32.7600   38.4910 N   0  0  0  0  0  0  0  0  0  0  0  0
   47.8060   33.6990   38.2600 C   0  0  0  0  0  0  0  0  0  0  0  0
   48.8640   33.9070   39.1790 N   0  0  0  0  0  0  0  0  0  0  0  0
   47.6810   34.5110   37.0950 N   0  0  0  0  0  0  0  0  0  0  0  0
   46.1620   32.5990   37.8130 H   0  0  0  0  0  0  0  0  0  0  0  0
   45.6300   35.0510   42.1060 C   0  0  0  0  0  0  0  0  0  0  0  0
   46.7770   34.6220   41.5620 C   0  0  0  0  0  0  0  0  0  0  0  0
   44.0690   33.6500   40.6630 C   0  0  0  0  0  0  0  0  0  0  0  0
   44.3280   34.8000   41.4550 C   0  0  0  0  0  0  0  0  0  0  0  0
   43.3110   35.7460   41.6320 C   0  0  0  0  0  0  0  0  0  0  0  0
   42.1070   35.5210   41.0340 N   0  0  0  0  0  0  0  0  0  0  0  0
   41.8990   34.4280   40.2970 C   0  0  0  0  0  0  0  0  0  0  0  0
   42.8740   33.5140   40.1220 N   0  0  0  0  0  0  0  0  0  0  0  0
   39.6870   33.6540   41.7840 F   0  0  0  0  0  0  0  0  0  0  0  0
   39.5060   33.8330   40.4530 C   0  0  0  0  0  0  0  0  0  0  0  0
   40.5950   34.2220   39.6720 C   0  0  0  0  0  0  0  0  0  0  0  0
   40.4860   34.4240   38.3120 C   0  0  0  0  0  0  0  0  0  0  0  0
   39.2390   34.2240   37.7280 C   0  0  0  0  0  0  0  0  0  0  0  0
   38.1230   33.8330   38.4850 C   0  0  0  0  0  0  0  0  0  0  0  0
   38.2700   33.6400   39.8490 C   0  0  0  0  0  0  0  0  0  0  0  0
   48.0594   34.4283   43.2477 H   0  0  0  0  0  0  0  0  0  0  0  0
   48.2062   35.9847   42.3110 H   0  0  0  0  0  0  0  0  0  0  0  0
   50.9381   34.4549   42.6896 H   0  0  0  0  0  0  0  0  0  0  0  0
   49.6169   33.4452   43.3488 H   0  0  0  0  0  0  0  0  0  0  0  0
   51.6883   32.7845   41.2704 H   0  0  0  0  0  0  0  0  0  0  0  0
   50.9447   31.7139   42.4389 H   0  0  0  0  0  0  0  0  0  0  0  0
   50.1803   31.9302   39.7735 H   0  0  0  0  0  0  0  0  0  0  0  0
   49.0953   31.3324   41.0493 H   0  0  0  0  0  0  0  0  0  0  0  0
   47.7591   33.1971   40.6974 H   0  0  0  0  0  0  0  0  0  0  0  0
   49.6972   34.4235   38.8630 H   0  0  0  0  0  0  0  0  0  0  0  0
   48.3647   35.2596   36.9132 H   0  0  0  0  0  0  0  0  0  0  0  0
   46.9070   34.3491   36.4350 H   0  0  0  0  0  0  0  0  0  0  0  0
   45.6586   35.6019   43.0577 H   0  0  0  0  0  0  0  0  0  0  0  0
   46.7613   34.0709   40.6101 H   0  0  0  0  0  0  0  0  0  0  0  0
   44.8478   32.8896   40.5043 H   0  0  0  0  0  0  0  0  0  0  0  0
   43.4795   36.6481   42.2384 H   0  0  0  0  0  0  0  0  0  0  0  0
   41.3539   34.7322   37.7105 H   0  0  0  0  0  0  0  0  0  0  0  0
   39.1245   34.3762   36.6446 H   0  0  0  0  0  0  0  0  0  0  0  0
   37.1462   33.6821   38.0021 H   0  0  0  0  0  0  0  0  0  0  0  0
   37.4053   33.3330   40.4556 H   0  0  0  0  0  0  0  0  0  0  0  0
  2  1  1  0
  2  3  1  0
  4  3  1  0
  5  4  1  0
  6  5  1  0
  6  2  1  0
  8  7  2  0
  8  9  1  0
  9  6  1  0
 10  8  1  0
 11  7  1  0
 13 12  2  0
 13  1  1  0
 14 15  2  0
 15 16  1  0
 15 12  1  0
 17 16  2  0
 18 17  1  0
 19 18  2  0
 19 14  1  0
 21 20  1  0
 22 18  1  0
 22 21  2  0
 23 22  1  0
 24 23  2  0
 24 25  1  0
 25 26  2  0
 26 21  1  0
  1 27  1  0
  1 28  1  0
  3 29  1  0
  3 30  1  0
  4 31  1  0
  4 32  1  0
  5 33  1  0
  5 34  1  0
  6 35  1  1
  9 36  1  0
 10 37  1  0
 10 38  1  0
 12 39  1  0
 13 40  1  0
 14 41  1  0
 16 42  1  0
 23 43  1  0
 24 44  1  0
 25 45  1  0
 26 46  1  0
M  ISO  8  27   8  28   8  29  13  30  13  31  13  32  13  33  13  34  13
M  ISO  7  35  13  41  14  42  14  43  14  44  14  45  14  46  14
M  END
>  <minimizedAffinity>  (1) 
-6.78969431

>  <minimizedRMSD>  (1) 
0.430619687

$$$$
