
     RDKit          3D

 40 42  0  0  1  0  0  0  0  0999 V2000
   44.1040   33.5410   40.7320 C   0  0  0  0  0  0  0  0  0  0  0  0
   44.4110   34.7250   41.4690 C   0  0  0  0  0  0  0  0  0  0  0  0
   43.4310   35.7250   41.5740 C   0  0  0  0  0  0  0  0  0  0  0  0
   42.2370   35.5080   40.9670 N   0  0  0  0  0  0  0  0  0  0  0  0
   41.9810   34.3900   40.2870 C   0  0  0  0  0  0  0  0  0  0  0  0
   42.9110   33.4370   40.1840 N   0  0  0  0  0  0  0  0  0  0  0  0
   39.7500   33.6310   41.7310 F   0  0  0  0  0  0  0  0  0  0  0  0
   39.5760   33.8380   40.4120 C   0  0  0  0  0  0  0  0  0  0  0  0
   40.6750   34.2200   39.6570 C   0  0  0  0  0  0  0  0  0  0  0  0
   40.5830   34.4530   38.2890 C   0  0  0  0  0  0  0  0  0  0  0  0
   39.3340   34.2880   37.6950 C   0  0  0  0  0  0  0  0  0  0  0  0
   38.2050   33.9000   38.4440 C   0  0  0  0  0  0  0  0  0  0  0  0
   38.3410   33.6780   39.8020 C   0  0  0  0  0  0  0  0  0  0  0  0
   45.7170   34.9400   42.1200 C   0  0  0  0  0  0  0  0  0  0  0  0
   46.8700   34.6610   41.4890 C   0  0  0  0  0  0  0  0  0  0  0  0
   48.1670   34.9050   42.2140 C   0  0  0  0  0  0  0  0  0  0  0  0
   49.2830   34.2890   41.5430 N   0  0  0  0  0  0  0  0  0  0  0  0
   50.3410   34.0150   42.4650 C   0  0  0  0  0  0  0  0  0  0  0  0
   50.9910   32.7270   42.0490 C   0  0  0  0  0  0  0  0  0  0  0  0
   49.8900   32.0150   41.3390 C   0  0  0  0  0  0  0  0  0  0  0  0
   48.9080   33.0640   40.8830 C   0  0  2  0  0  0  0  0  0  0  0  0
   49.1410   33.2420   39.5160 O   0  0  0  0  0  0  0  0  0  0  0  0
   44.8457   32.7357   40.6247 H   0  0  0  0  0  0  0  0  0  0  0  0
   43.6248   36.6540   42.1302 H   0  0  0  0  0  0  0  0  0  0  0  0
   41.4613   34.7554   37.6998 H   0  0  0  0  0  0  0  0  0  0  0  0
   39.2262   34.4649   36.6147 H   0  0  0  0  0  0  0  0  0  0  0  0
   37.2279   33.7753   37.9544 H   0  0  0  0  0  0  0  0  0  0  0  0
   37.4686   33.3741   40.3991 H   0  0  0  0  0  0  0  0  0  0  0  0
   45.7477   35.3377   43.1451 H   0  0  0  0  0  0  0  0  0  0  0  0
   46.8665   34.2625   40.4637 H   0  0  0  0  0  0  0  0  0  0  0  0
   48.3424   35.9893   42.2733 H   0  0  0  0  0  0  0  0  0  0  0  0
   48.0852   34.4604   43.2168 H   0  0  0  0  0  0  0  0  0  0  0  0
   51.0784   34.8309   42.4414 H   0  0  0  0  0  0  0  0  0  0  0  0
   49.9467   33.9331   43.4886 H   0  0  0  0  0  0  0  0  0  0  0  0
   51.8417   32.9117   41.3765 H   0  0  0  0  0  0  0  0  0  0  0  0
   51.4054   32.1561   42.8930 H   0  0  0  0  0  0  0  0  0  0  0  0
   50.2904   31.4700   40.4715 H   0  0  0  0  0  0  0  0  0  0  0  0
   49.4038   31.2842   42.0020 H   0  0  0  0  0  0  0  0  0  0  0  0
   47.8633   32.7913   41.0935 H   0  0  0  0  0  0  0  0  0  0  0  0
   49.9212   33.8380   39.3891 H   0  0  0  0  0  0  0  0  0  0  0  0
  1  2  2  0
  2  3  1  0
  2 14  1  0
  4  3  2  0
  5  4  1  0
  6  5  2  0
  6  1  1  0
  8  7  1  0
  9  5  1  0
  9  8  2  0
 10  9  1  0
 11 10  2  0
 11 12  1  0
 12 13  2  0
 13  8  1  0
 15 14  2  0
 15 16  1  0
 17 16  1  0
 17 18  1  0
 19 18  1  0
 20 19  1  0
 21 20  1  0
 21 17  1  0
 22 21  1  0
  1 23  1  0
  3 24  1  0
 10 25  1  0
 11 26  1  0
 12 27  1  0
 13 28  1  0
 14 29  1  0
 15 30  1  0
 16 31  1  0
 16 32  1  0
 18 33  1  0
 18 34  1  0
 19 35  1  0
 19 36  1  0
 20 37  1  0
 20 38  1  0
 21 39  1  6
 22 40  1  0
M  ISO  8  23  14  24  14  25  14  26  14  27  14  28  14  31   8  32   8
M  ISO  8  33  13  34  13  35  13  36  13  37  13  38  13  39  13  40   3
M  END
>  <minimizedAffinity>  (1) 
-6.28499603

>  <minimizedRMSD>  (1) 
0.057988476

$$$$
