
     RDKit          3D

 43 45  0  0  1  0  0  0  0  0999 V2000
   45.6460   35.0420   42.1580 C   0  0  0  0  0  0  0  0  0  0  0  0
   46.8120   34.6760   41.5910 C   0  0  0  0  0  0  0  0  0  0  0  0
   44.1030   33.6640   40.6780 C   0  0  0  0  0  0  0  0  0  0  0  0
   44.3550   34.8140   41.4890 C   0  0  0  0  0  0  0  0  0  0  0  0
   43.3320   35.7500   41.6550 C   0  0  0  0  0  0  0  0  0  0  0  0
   42.1360   35.5290   41.0390 N   0  0  0  0  0  0  0  0  0  0  0  0
   41.9320   34.4520   40.2930 C   0  0  0  0  0  0  0  0  0  0  0  0
   42.9100   33.5340   40.1190 N   0  0  0  0  0  0  0  0  0  0  0  0
   39.7220   33.6210   41.7560 F   0  0  0  0  0  0  0  0  0  0  0  0
   39.5440   33.8270   40.4180 C   0  0  0  0  0  0  0  0  0  0  0  0
   40.6370   34.2460   39.6520 C   0  0  0  0  0  0  0  0  0  0  0  0
   40.5360   34.4740   38.2980 C   0  0  0  0  0  0  0  0  0  0  0  0
   39.2870   34.2680   37.7190 C   0  0  0  0  0  0  0  0  0  0  0  0
   38.1650   33.8450   38.4720 C   0  0  0  0  0  0  0  0  0  0  0  0
   38.3090   33.6270   39.8300 C   0  0  0  0  0  0  0  0  0  0  0  0
   48.1000   34.9220   42.3050 C   0  0  0  0  0  0  0  0  0  0  0  0
   49.2350   34.3780   41.6170 N   0  0  0  0  0  0  0  0  0  0  0  0
   50.2430   33.9570   42.5210 C   0  0  0  0  0  0  0  0  0  0  0  0
   50.9190   32.7470   41.9540 C   0  0  0  0  0  0  0  0  0  0  0  0
   49.8660   32.1780   41.0470 C   0  0  0  0  0  0  0  0  0  0  0  0
   48.9040   33.3250   40.7350 C   0  0  2  0  0  0  0  0  0  0  0  0
   48.0660   33.5320   38.2170 C   0  0  0  0  0  0  0  0  0  0  0  0
   46.9840   33.0170   38.5920 O   0  0  0  0  0  0  0  0  0  0  0  0
   48.9520   33.6470   39.3230 N   0  0  0  0  0  0  0  0  0  0  0  0
   45.6592   35.5238   43.1468 H   0  0  0  0  0  0  0  0  0  0  0  0
   46.8151   34.1956   40.6014 H   0  0  0  0  0  0  0  0  0  0  0  0
   44.8829   32.9041   40.5219 H   0  0  0  0  0  0  0  0  0  0  0  0
   43.4881   36.6480   42.2707 H   0  0  0  0  0  0  0  0  0  0  0  0
   41.4004   34.8030   37.7026 H   0  0  0  0  0  0  0  0  0  0  0  0
   39.1675   34.4398   36.6391 H   0  0  0  0  0  0  0  0  0  0  0  0
   37.1915   33.6918   37.9832 H   0  0  0  0  0  0  0  0  0  0  0  0
   37.4511   33.2984   40.4350 H   0  0  0  0  0  0  0  0  0  0  0  0
   48.2409   36.0079   42.4097 H   0  0  0  0  0  0  0  0  0  0  0  0
   48.0358   34.4202   43.2818 H   0  0  0  0  0  0  0  0  0  0  0  0
   50.9791   34.7631   42.6568 H   0  0  0  0  0  0  0  0  0  0  0  0
   49.7955   33.7148   43.4962 H   0  0  0  0  0  0  0  0  0  0  0  0
   51.8215   33.0243   41.3896 H   0  0  0  0  0  0  0  0  0  0  0  0
   51.2643   32.0388   42.7217 H   0  0  0  0  0  0  0  0  0  0  0  0
   50.3240   31.8021   40.1202 H   0  0  0  0  0  0  0  0  0  0  0  0
   49.3427   31.3346   41.5212 H   0  0  0  0  0  0  0  0  0  0  0  0
   47.8482   33.0689   40.9071 H   0  0  0  0  0  0  0  0  0  0  0  0
   48.2940   33.8467   37.1880 H   0  0  0  0  0  0  0  0  0  0  0  0
   49.8543   34.0637   39.0528 H   0  0  0  0  0  0  0  0  0  0  0  0
  2  1  2  0
  2 16  1  0
  3  4  2  0
  4  5  1  0
  4  1  1  0
  6  5  2  0
  7  6  1  0
  8  7  2  0
  8  3  1  0
 10  9  1  0
 11  7  1  0
 11 10  2  0
 12 11  1  0
 13 12  2  0
 13 14  1  0
 14 15  2  0
 15 10  1  0
 17 16  1  0
 17 18  1  0
 19 18  1  0
 20 19  1  0
 21 20  1  0
 21 17  1  0
 22 23  2  0
 22 24  1  0
 24 21  1  0
  1 25  1  0
  2 26  1  0
  3 27  1  0
  5 28  1  0
 12 29  1  0
 13 30  1  0
 14 31  1  0
 15 32  1  0
 16 33  1  0
 16 34  1  0
 18 35  1  0
 18 36  1  0
 19 37  1  0
 19 38  1  0
 20 39  1  0
 20 40  1  0
 21 41  1  1
 22 42  1  0
 24 43  1  0
M  ISO  8  27  14  28  14  29  14  30  14  31  14  32  14  33   8  34   8
M  ISO  8  35  13  36  13  37  13  38  13  39  13  40  13  41  13  42   6
M  END
>  <minimizedAffinity>  (1) 
-6.27500153

>  <minimizedRMSD>  (1) 
0.129892021

$$$$
