
     RDKit          3D

 42 44  0  0  1  0  0  0  0  0999 V2000
   45.6210   34.9320   42.1160 C   0  0  0  0  0  0  0  0  0  0  0  0
   46.7690   34.7140   41.4930 C   0  0  0  0  0  0  0  0  0  0  0  0
   44.0340   33.5270   40.6690 C   0  0  0  0  0  0  0  0  0  0  0  0
   44.3210   34.6860   41.4420 C   0  0  0  0  0  0  0  0  0  0  0  0
   43.3260   35.6750   41.5930 C   0  0  0  0  0  0  0  0  0  0  0  0
   42.1290   35.4780   40.9900 N   0  0  0  0  0  0  0  0  0  0  0  0
   41.8910   34.3740   40.2690 C   0  0  0  0  0  0  0  0  0  0  0  0
   42.8380   33.4350   40.1250 N   0  0  0  0  0  0  0  0  0  0  0  0
   39.6680   33.5770   41.6970 F   0  0  0  0  0  0  0  0  0  0  0  0
   39.4930   33.7990   40.3800 C   0  0  0  0  0  0  0  0  0  0  0  0
   40.5890   34.1990   39.6340 C   0  0  0  0  0  0  0  0  0  0  0  0
   40.4970   34.4490   38.2670 C   0  0  0  0  0  0  0  0  0  0  0  0
   39.2510   34.2800   37.6700 C   0  0  0  0  0  0  0  0  0  0  0  0
   38.1260   33.8740   38.4100 C   0  0  0  0  0  0  0  0  0  0  0  0
   38.2590   33.6340   39.7790 C   0  0  0  0  0  0  0  0  0  0  0  0
   48.0680   34.9690   42.1930 C   0  0  0  0  0  0  0  0  0  0  0  0
   49.1610   34.2400   41.6180 N   0  0  0  0  0  0  0  0  0  0  0  0
   50.3080   34.2680   42.4530 C   0  0  0  0  0  0  0  0  0  0  0  0
   51.0210   32.9410   42.2890 C   0  0  0  0  0  0  0  0  0  0  0  0
   49.9010   32.0210   41.9360 C   0  0  0  0  0  0  0  0  0  0  0  0
   48.8280   32.9110   41.2640 C   0  0  2  0  0  0  0  0  0  0  0  0
   48.8700   32.6460   39.7740 C   0  0  0  0  0  0  0  0  0  0  0  0
   47.8550   31.7560   39.4820 F   0  0  0  0  0  0  0  0  0  0  0  0
   50.0470   32.0020   39.4150 F   0  0  0  0  0  0  0  0  0  0  0  0
   48.6670   33.7730   39.0220 F   0  0  0  0  0  0  0  0  0  0  0  0
   45.6306   35.3021   43.1518 H   0  0  0  0  0  0  0  0  0  0  0  0
   46.7684   34.3441   40.4571 H   0  0  0  0  0  0  0  0  0  0  0  0
   44.7848   32.7351   40.5303 H   0  0  0  0  0  0  0  0  0  0  0  0
   43.5173   36.5823   42.1849 H   0  0  0  0  0  0  0  0  0  0  0  0
   41.3732   34.7670   37.6830 H   0  0  0  0  0  0  0  0  0  0  0  0
   39.1434   34.4688   36.5917 H   0  0  0  0  0  0  0  0  0  0  0  0
   37.1517   33.7469   37.9155 H   0  0  0  0  0  0  0  0  0  0  0  0
   37.3899   33.3165   40.3739 H   0  0  0  0  0  0  0  0  0  0  0  0
   48.2934   36.0441   42.1352 H   0  0  0  0  0  0  0  0  0  0  0  0
   47.9555   34.6313   43.2338 H   0  0  0  0  0  0  0  0  0  0  0  0
   50.9723   35.0914   42.1517 H   0  0  0  0  0  0  0  0  0  0  0  0
   50.0202   34.4269   43.5027 H   0  0  0  0  0  0  0  0  0  0  0  0
   51.7681   32.9870   41.4830 H   0  0  0  0  0  0  0  0  0  0  0  0
   51.5830   32.6292   43.1817 H   0  0  0  0  0  0  0  0  0  0  0  0
   50.2474   31.2442   41.2385 H   0  0  0  0  0  0  0  0  0  0  0  0
   49.5043   31.5037   42.8220 H   0  0  0  0  0  0  0  0  0  0  0  0
   47.7965   32.7071   41.5873 H   0  0  0  0  0  0  0  0  0  0  0  0
  2  1  2  0
  2 16  1  0
  3  4  2  0
  4  5  1  0
  4  1  1  0
  6  5  2  0
  7  6  1  0
  8  7  2  0
  8  3  1  0
 10  9  1  0
 11  7  1  0
 11 10  2  0
 12 11  1  0
 13 12  2  0
 13 14  1  0
 14 15  2  0
 15 10  1  0
 17 16  1  0
 17 18  1  0
 19 18  1  0
 20 19  1  0
 21 17  1  0
 21 20  1  0
 22 21  1  0
 23 22  1  0
 24 22  1  0
 25 22  1  0
  1 26  1  0
  2 27  1  0
  3 28  1  0
  5 29  1  0
 12 30  1  0
 13 31  1  0
 14 32  1  0
 15 33  1  0
 16 34  1  0
 16 35  1  0
 18 36  1  0
 18 37  1  0
 19 38  1  0
 19 39  1  0
 20 40  1  0
 20 41  1  0
 21 42  1  1
M  ISO  8  28  14  29  14  30  14  31  14  32  14  33  14  34   8  35   8
M  ISO  7  36  13  37  13  38  13  39  13  40  13  41  13  42  13
M  END
>  <minimizedAffinity>  (1) 
-6.21407509

>  <minimizedRMSD>  (1) 
0.518832088

$$$$
