
     RDKit          3D

 26 27  0  0  0  0  0  0  0  0999 V2000
   46.4420   32.6750   45.0340 C   0  0  0  0  0  0  0  0  0  0  0  0
   44.5640   35.8580   44.5920 C   0  0  0  0  0  0  0  0  0  0  0  0
   45.0160   36.2910   43.3240 C   0  0  0  0  0  0  0  0  0  0  0  0
   45.9420   35.4710   42.6830 C   0  0  0  0  0  0  0  0  0  0  0  0
   46.3650   34.3320   43.2680 N   0  0  0  0  0  0  0  0  0  0  0  0
   45.8910   33.9630   44.5000 C   0  0  0  0  0  0  0  0  0  0  0  0
   45.0040   34.7180   45.1470 N   0  0  0  0  0  0  0  0  0  0  0  0
   46.8180   32.9790   46.4720 C   0  0  0  0  0  0  0  0  0  0  0  0
   46.1860   32.0620   47.4380 C   0  0  0  0  0  0  0  0  0  0  0  0
   45.8850   32.3040   48.7570 C   0  0  0  0  0  0  0  0  0  0  0  0
   45.2860   31.3190   49.5300 C   0  0  0  0  0  0  0  0  0  0  0  0
   44.9830   30.0840   48.9860 C   0  0  0  0  0  0  0  0  0  0  0  0
   45.2850   29.8400   47.6600 C   0  0  0  0  0  0  0  0  0  0  0  0
   45.8880   30.8300   46.8850 C   0  0  0  0  0  0  0  0  0  0  0  0
   47.3273   32.3649   44.4596 H   0  0  0  0  0  0  0  0  0  0  0  0
   45.7164   31.8516   44.9605 H   0  0  0  0  0  0  0  0  0  0  0  0
   43.8324   36.4718   45.1379 H   0  0  0  0  0  0  0  0  0  0  0  0
   44.6558   37.2251   42.8683 H   0  0  0  0  0  0  0  0  0  0  0  0
   46.3305   35.7544   41.6937 H   0  0  0  0  0  0  0  0  0  0  0  0
   47.9102   32.8972   46.5737 H   0  0  0  0  0  0  0  0  0  0  0  0
   46.4599   33.9941   46.6986 H   0  0  0  0  0  0  0  0  0  0  0  0
   46.1198   33.2823   49.2019 H   0  0  0  0  0  0  0  0  0  0  0  0
   45.0501   31.5225   50.5850 H   0  0  0  0  0  0  0  0  0  0  0  0
   44.5076   29.3059   49.6012 H   0  0  0  0  0  0  0  0  0  0  0  0
   45.0491   28.8623   47.2146 H   0  0  0  0  0  0  0  0  0  0  0  0
   46.1275   30.6303   45.8301 H   0  0  0  0  0  0  0  0  0  0  0  0
  1  8  1  0
  2  7  2  0
  3  2  1  0
  4  5  1  0
  4  3  2  0
  5  6  2  0
  6  1  1  0
  6  7  1  0
  8  9  1  0
  9 10  2  0
 10 11  1  0
 12 11  2  0
 13 12  1  0
 14  9  1  0
 14 13  2  0
  1 15  1  0
  1 16  1  0
  2 17  1  0
  3 18  1  0
  4 19  1  0
  8 20  1  0
  8 21  1  0
 10 22  1  0
 11 23  1  0
 12 24  1  0
 13 25  1  0
 14 26  1  0
M  ISO  8  15   8  16   8  17  14  18  14  19  14  20   8  21   8  22  14
M  ISO  4  23  14  24  14  25  14  26  14
M  END
>  <minimizedAffinity>  (1) 
-4.820086

>  <minimizedRMSD>  (1) 
1.35599887

$$$$
