
     RDKit          3D

 15 15  0  0  0  0  0  0  0  0999 V2000
   44.3700   35.7730   44.4490 C   0  0  0  0  0  0  0  0  0  0  0  0
   44.6870   35.0720   43.2910 C   0  0  0  0  0  0  0  0  0  0  0  0
   45.3410   33.8530   43.3880 C   0  0  0  0  0  0  0  0  0  0  0  0
   45.6270   33.4240   44.6320 N   0  0  0  0  0  0  0  0  0  0  0  0
   45.3180   34.1020   45.7470 C   0  0  0  0  0  0  0  0  0  0  0  0
   44.6750   35.3070   45.6830 N   0  0  0  0  0  0  0  0  0  0  0  0
   44.2830   35.7240   42.0300 C   0  0  0  0  0  0  0  0  0  0  0  0
   45.6450   33.1760   42.1890 N   0  0  0  0  0  0  0  0  0  0  0  0
   43.8534   36.7400   44.3595 H   0  0  0  0  0  0  0  0  0  0  0  0
   45.5859   33.6824   46.7279 H   0  0  0  0  0  0  0  0  0  0  0  0
   43.7159   36.6392   42.2557 H   0  0  0  0  0  0  0  0  0  0  0  0
   45.1794   35.9824   41.4473 H   0  0  0  0  0  0  0  0  0  0  0  0
   43.6525   35.0363   41.4473 H   0  0  0  0  0  0  0  0  0  0  0  0
   46.1302   32.2679   42.2191 H   0  0  0  0  0  0  0  0  0  0  0  0
   45.3819   33.5896   41.2831 H   0  0  0  0  0  0  0  0  0  0  0  0
  1  6  2  0
  2  3  2  0
  2  1  1  0
  3  4  1  0
  4  5  2  0
  6  5  1  0
  7  2  1  0
  8  3  1  0
  1  9  1  0
  5 10  1  0
  7 11  1  0
  7 12  1  0
  7 13  1  0
  8 14  1  0
  8 15  1  0
M  ISO  5   9  14  10  14  11   8  12   8  13   8
M  END
>  <minimizedAffinity>  (1) 
-2.89467883

>  <minimizedRMSD>  (1) 
0.0465187207

$$$$
