
     RDKit          3D

 31 33  0  0  0  0  0  0  0  0999 V2000
   44.7820   34.9250   44.9130 C   0  0  0  0  0  0  0  0  0  0  0  0
   45.3850   35.0600   43.6530 C   0  0  0  0  0  0  0  0  0  0  0  0
   46.5330   34.2990   43.4250 C   0  0  0  0  0  0  0  0  0  0  0  0
   47.0100   33.4830   44.4030 N   0  0  0  0  0  0  0  0  0  0  0  0
   46.3820   33.3970   45.5990 C   0  0  0  0  0  0  0  0  0  0  0  0
   45.2750   34.1040   45.8740 N   0  0  0  0  0  0  0  0  0  0  0  0
   47.1820   34.4300   42.1330 C   0  0  0  0  0  0  0  0  0  0  0  0
   48.1440   35.3530   41.7380 C   0  0  0  0  0  0  0  0  0  0  0  0
   48.6540   35.3370   40.4620 C   0  0  0  0  0  0  0  0  0  0  0  0
   48.1960   34.3880   39.5690 C   0  0  0  0  0  0  0  0  0  0  0  0
   47.2450   33.4660   39.9370 C   0  0  0  0  0  0  0  0  0  0  0  0
   46.7390   33.4940   41.2310 C   0  0  0  0  0  0  0  0  0  0  0  0
   44.7740   35.9780   42.7070 C   0  0  0  0  0  0  0  0  0  0  0  0
   43.5420   35.5740   42.0460 C   0  0  0  0  0  0  0  0  0  0  0  0
   43.8410   35.1330   40.7490 C   0  0  0  0  0  0  0  0  0  0  0  0
   42.8770   34.6640   39.8560 C   0  0  0  0  0  0  0  0  0  0  0  0
   41.5930   34.6400   40.2840 N   0  0  0  0  0  0  0  0  0  0  0  0
   41.2780   35.0610   41.5300 C   0  0  0  0  0  0  0  0  0  0  0  0
   42.2330   35.4960   42.3350 N   0  0  0  0  0  0  0  0  0  0  0  0
   43.8744   35.5074   45.1299 H   0  0  0  0  0  0  0  0  0  0  0  0
   46.7916   32.7270   46.3692 H   0  0  0  0  0  0  0  0  0  0  0  0
   48.5014   36.1057   42.4561 H   0  0  0  0  0  0  0  0  0  0  0  0
   49.4158   36.0692   40.1563 H   0  0  0  0  0  0  0  0  0  0  0  0
   48.5992   34.3697   38.5457 H   0  0  0  0  0  0  0  0  0  0  0  0
   46.8890   32.7153   39.2161 H   0  0  0  0  0  0  0  0  0  0  0  0
   45.9776   32.7606   41.5352 H   0  0  0  0  0  0  0  0  0  0  0  0
   44.5606   36.9103   43.2504 H   0  0  0  0  0  0  0  0  0  0  0  0
   45.5070   36.0512   41.8901 H   0  0  0  0  0  0  0  0  0  0  0  0
   44.8899   35.1581   40.4184 H   0  0  0  0  0  0  0  0  0  0  0  0
   43.1494   34.3273   38.8449 H   0  0  0  0  0  0  0  0  0  0  0  0
   40.2328   35.0417   41.8722 H   0  0  0  0  0  0  0  0  0  0  0  0
  1  6  2  0
  2  1  1  0
  3  2  2  0
  3  4  1  0
  4  5  2  0
  5  6  1  0
  7  3  1  0
  8  7  2  0
  9  8  1  0
 10 11  1  0
 10  9  2  0
 11 12  2  0
 12  7  1  0
 13  2  1  0
 14 19  1  0
 14 13  1  0
 15 14  2  0
 16 17  2  0
 16 15  1  0
 17 18  1  0
 18 19  2  0
  1 20  1  0
  5 21  1  0
  8 22  1  0
  9 23  1  0
 10 24  1  0
 11 25  1  0
 12 26  1  0
 13 27  1  0
 13 28  1  0
 15 29  1  0
 16 30  1  0
 18 31  1  0
M  ISO  8  20  14  21  14  22  14  23  14  24  14  25  14  26  14  27   8
M  ISO  4  28   8  29  14  30  14  31  14
M  END
>  <minimizedAffinity>  (1) 
-5.51653767

>  <minimizedRMSD>  (1) 
0.887918472

$$$$
