
     RDKit          3D

 31 32  0  0  0  0  0  0  0  0999 V2000
   44.9380   34.9460   45.1700 C   0  0  0  0  0  0  0  0  0  0  0  0
   45.5430   35.1850   43.9350 C   0  0  0  0  0  0  0  0  0  0  0  0
   46.5850   34.3510   43.5390 C   0  0  0  0  0  0  0  0  0  0  0  0
   46.9510   33.3390   44.4040 N   0  0  0  0  0  0  0  0  0  0  0  0
   46.3330   33.1510   45.5870 C   0  0  0  0  0  0  0  0  0  0  0  0
   45.3220   33.9510   45.9820 N   0  0  0  0  0  0  0  0  0  0  0  0
   47.2360   34.5600   42.2690 C   0  0  0  0  0  0  0  0  0  0  0  0
   48.2810   35.3850   41.9730 C   0  0  0  0  0  0  0  0  0  0  0  0
   48.7570   35.4470   40.6800 C   0  0  0  0  0  0  0  0  0  0  0  0
   48.1740   34.6720   39.6770 C   0  0  0  0  0  0  0  0  0  0  0  0
   47.1250   33.8410   39.9690 C   0  0  0  0  0  0  0  0  0  0  0  0
   46.6580   33.7900   41.2740 C   0  0  0  0  0  0  0  0  0  0  0  0
   45.0740   36.3220   43.1060 C   0  0  0  0  0  0  0  0  0  0  0  0
   44.8560   37.3980   44.0390 N   0  0  0  0  0  0  0  0  0  0  0  0
   45.3960   38.6590   43.6800 C   0  0  0  0  0  0  0  0  0  0  0  0
   45.3630   39.7200   44.7270 C   0  0  0  0  0  0  0  0  0  0  0  0
   44.1134   35.6001   45.4896 H   0  0  0  0  0  0  0  0  0  0  0  0
   46.6594   32.3299   46.2422 H   0  0  0  0  0  0  0  0  0  0  0  0
   48.7419   35.9979   42.7616 H   0  0  0  0  0  0  0  0  0  0  0  0
   49.6003   36.1107   40.4384 H   0  0  0  0  0  0  0  0  0  0  0  0
   48.5582   34.7285   38.6478 H   0  0  0  0  0  0  0  0  0  0  0  0
   46.6618   33.2258   39.1835 H   0  0  0  0  0  0  0  0  0  0  0  0
   45.8156   33.1277   41.5223 H   0  0  0  0  0  0  0  0  0  0  0  0
   45.8376   36.6013   42.3651 H   0  0  0  0  0  0  0  0  0  0  0  0
   44.1634   36.0738   42.5411 H   0  0  0  0  0  0  0  0  0  0  0  0
   43.8389   37.5131   44.1534 H   0  0  0  0  0  0  0  0  0  0  0  0
   46.4470   38.5034   43.3950 H   0  0  0  0  0  0  0  0  0  0  0  0
   44.7525   39.0307   42.8690 H   0  0  0  0  0  0  0  0  0  0  0  0
   45.3775   39.2530   45.7228 H   0  0  0  0  0  0  0  0  0  0  0  0
   46.2413   40.3728   44.6153 H   0  0  0  0  0  0  0  0  0  0  0  0
   44.4459   40.3170   44.6153 H   0  0  0  0  0  0  0  0  0  0  0  0
  1  6  2  0
  2  1  1  0
  3  2  2  0
  3  4  1  0
  4  5  2  0
  5  6  1  0
  7  3  1  0
  8  7  2  0
  9  8  1  0
 10 11  1  0
 10  9  2  0
 11 12  2  0
 12  7  1  0
 13  2  1  0
 13 14  1  0
 15 14  1  0
 15 16  1  0
  1 17  1  0
  5 18  1  0
  8 19  1  0
  9 20  1  0
 10 21  1  0
 11 22  1  0
 12 23  1  0
 13 24  1  0
 13 25  1  0
 14 26  1  0
 15 27  1  0
 15 28  1  0
 16 29  1  0
 16 30  1  0
 16 31  1  0
M  ISO  8  17  14  18  14  19  14  20  14  21  14  22  14  23  14  24   8
M  ISO  7  25   8  26   5  27   8  28   8  29   8  30   8  31   8
M  END
>  <minimizedAffinity>  (1) 
-5.17480373

>  <minimizedRMSD>  (1) 
0.484727889

$$$$
