
     RDKit          3D

 36 37  0  0  0  0  0  0  0  0999 V2000
   64.6520   57.1500   28.5190 C   0  0  0  0  0  0  0  0  0  0  0  0
   65.2140   57.2040   27.3770 O   0  0  0  0  0  0  0  0  0  0  0  0
   63.4390   56.3930   28.5280 N   0  0  0  0  0  0  0  0  0  0  0  0
   65.1970   57.7850   29.6540 N   0  0  0  0  0  0  0  0  0  0  0  0
   64.7520   58.9930   30.3020 C   0  0  0  0  0  0  0  0  0  0  0  0
   64.2650   58.6170   31.6750 C   0  0  0  0  0  0  0  0  0  0  0  0
   65.3370   57.9350   32.4570 C   0  0  0  0  0  0  0  0  0  0  0  0
   66.0460   56.8310   31.7250 C   0  0  0  0  0  0  0  0  0  0  0  0
   66.3440   57.1990   30.2870 C   0  0  0  0  0  0  0  0  0  0  0  0
   62.8100   55.7740   27.4060 C   0  0  0  0  0  0  0  0  0  0  0  0
   60.4060   57.0650   24.9190 C   0  0  0  0  0  0  0  0  0  0  0  0
   60.1580   58.3360   25.3930 C   0  0  0  0  0  0  0  0  0  0  0  0
   60.7820   58.7840   26.5430 C   0  0  0  0  0  0  0  0  0  0  0  0
   61.6390   57.8870   27.1500 N   0  0  0  0  0  0  0  0  0  0  0  0
   61.8650   56.6760   26.6830 C   0  0  0  0  0  0  0  0  0  0  0  0
   61.2440   56.2820   25.5710 N   0  0  0  0  0  0  0  0  0  0  0  0
   59.7440   56.6800   23.7580 N   0  0  0  0  0  0  0  0  0  0  0  0
   60.5340   60.1040   27.0510 C   0  0  0  0  0  0  0  0  0  0  0  0
   60.1830   61.0150   26.2890 O   0  0  0  0  0  0  0  0  0  0  0  0
   62.9704   56.2829   29.4386 H   0  0  0  0  0  0  0  0  0  0  0  0
   65.5862   59.7056   30.3815 H   0  0  0  0  0  0  0  0  0  0  0  0
   63.9474   59.4695   29.7227 H   0  0  0  0  0  0  0  0  0  0  0  0
   63.9555   59.5279   32.2083 H   0  0  0  0  0  0  0  0  0  0  0  0
   63.4168   57.9249   31.5675 H   0  0  0  0  0  0  0  0  0  0  0  0
   66.0838   58.6898   32.7442 H   0  0  0  0  0  0  0  0  0  0  0  0
   64.8403   57.4657   33.3190 H   0  0  0  0  0  0  0  0  0  0  0  0
   66.9941   56.6163   32.2397 H   0  0  0  0  0  0  0  0  0  0  0  0
   65.3861   55.9509   31.7191 H   0  0  0  0  0  0  0  0  0  0  0  0
   66.6333   56.2915   29.7367 H   0  0  0  0  0  0  0  0  0  0  0  0
   67.1616   57.9348   30.2775 H   0  0  0  0  0  0  0  0  0  0  0  0
   63.5915   55.4517   26.7022 H   0  0  0  0  0  0  0  0  0  0  0  0
   62.2212   54.9279   27.7900 H   0  0  0  0  0  0  0  0  0  0  0  0
   59.4616   58.9957   24.8546 H   0  0  0  0  0  0  0  0  0  0  0  0
   59.8970   55.7401   23.3655 H   0  0  0  0  0  0  0  0  0  0  0  0
   59.1008   57.3348   23.2907 H   0  0  0  0  0  0  0  0  0  0  0  0
   60.6567   60.3075   28.1250 H   0  0  0  0  0  0  0  0  0  0  0  0
  1  3  1  0
  1  4  1  0
  2  1  2  0
  4  9  1  0
  4  5  1  0
  5  6  1  0
  6  7  1  0
  8  7  1  0
  9  8  1  0
 10  3  1  0
 11 12  2  0
 11 16  1  0
 12 13  1  0
 13 18  1  0
 13 14  2  0
 15 14  1  0
 15 10  1  0
 16 15  2  0
 17 11  1  0
 19 18  2  0
  3 20  1  0
  5 21  1  0
  5 22  1  0
  6 23  1  0
  6 24  1  0
  7 25  1  0
  7 26  1  0
  8 27  1  0
  8 28  1  0
  9 29  1  0
  9 30  1  0
 10 31  1  0
 10 32  1  0
 12 33  1  0
 17 34  1  0
 17 35  1  0
 18 36  1  0
M  ISO  8  21  13  22  13  23  13  24  13  25  13  26  13  27  13  28  13
M  ISO  6  29  13  30  13  31   8  32   8  33  14  36   6
M  END
>  <minimizedAffinity>  (1) 
-5.70916176

>  <minimizedRMSD>  (1) 
0.246622697

$$$$
