
     RDKit          3D

 24 26  0  0  0  0  0  0  0  0999 V2000
   35.1420   29.7160   48.9300 C   0  0  0  0  0  0  0  0  0  0  0  0
   34.8650   29.1630   50.1360 N   0  0  0  0  0  0  0  0  0  0  0  0
   35.6340   29.2910   51.2210 C   0  0  0  0  0  0  0  0  0  0  0  0
   36.7760   29.9960   51.2060 N   0  0  0  0  0  0  0  0  0  0  0  0
   37.1350   30.5800   50.0530 C   0  0  0  0  0  0  0  0  0  0  0  0
   38.3020   31.2880   50.0760 C   0  0  0  0  0  0  0  0  0  0  0  0
   38.7340   31.9170   48.9270 C   0  0  0  0  0  0  0  0  0  0  0  0
   37.9400   31.7930   47.7830 C   0  0  0  0  0  0  0  0  0  0  0  0
   36.7780   31.0640   47.8370 C   0  0  0  0  0  0  0  0  0  0  0  0
   36.3210   30.4310   48.9500 C   0  0  0  0  0  0  0  0  0  0  0  0
   33.5480   27.9120   46.2690 C   0  0  0  0  0  0  0  0  0  0  0  0
   32.7970   28.8210   45.5230 C   0  0  0  0  0  0  0  0  0  0  0  0
   32.8400   30.1360   45.9620 C   0  0  0  0  0  0  0  0  0  0  0  0
   33.5820   30.4130   47.0390 N   0  0  0  0  0  0  0  0  0  0  0  0
   34.3030   29.5720   47.7620 C   0  0  0  0  0  0  0  0  0  0  0  0
   34.2430   28.3210   47.3200 N   0  0  0  0  0  0  0  0  0  0  0  0
   35.3214   28.8032   52.1561 H   0  0  0  0  0  0  0  0  0  0  0  0
   38.8921   31.3562   51.0018 H   0  0  0  0  0  0  0  0  0  0  0  0
   39.6695   32.4954   48.9113 H   0  0  0  0  0  0  0  0  0  0  0  0
   38.2450   32.2775   46.8437 H   0  0  0  0  0  0  0  0  0  0  0  0
   36.1769   30.9869   46.9190 H   0  0  0  0  0  0  0  0  0  0  0  0
   33.5631   26.8500   45.9829 H   0  0  0  0  0  0  0  0  0  0  0  0
   32.2096   28.5150   44.6447 H   0  0  0  0  0  0  0  0  0  0  0  0
   32.2808   30.9266   45.4401 H   0  0  0  0  0  0  0  0  0  0  0  0
  1 10  1  0
  1  2  2  0
  2  3  1  0
  4  3  2  0
  5  6  2  0
  5  4  1  0
  7  6  1  0
  8  9  1  0
  8  7  2  0
  9 10  2  0
 10  5  1  0
 11 16  2  0
 12 13  2  0
 12 11  1  0
 13 14  1  0
 14 15  2  0
 15  1  1  0
 16 15  1  0
  3 17  1  0
  6 18  1  0
  7 19  1  0
  8 20  1  0
  9 21  1  0
 11 22  1  0
 12 23  1  0
 13 24  1  0
M  ISO  8  17  14  18  14  19  14  20  14  21  14  22  14  23  14  24  14
M  END
>  <minimizedAffinity>  (1) 
-5.14678431

>  <minimizedRMSD>  (1) 
5.50386858

$$$$
