
     RDKit          3D

 31 33  0  0  0  0  0  0  0  0999 V2000
   37.2610   31.4550   48.5640 C   0  0  0  0  0  0  0  0  0  0  0  0
   37.7340   32.4040   49.5070 C   0  0  0  0  0  0  0  0  0  0  0  0
   38.7170   33.2970   49.0680 C   0  0  0  0  0  0  0  0  0  0  0  0
   39.1560   33.1970   47.7630 N   0  0  0  0  0  0  0  0  0  0  0  0
   38.6710   32.2860   46.9310 C   0  0  0  0  0  0  0  0  0  0  0  0
   37.7120   31.3940   47.3160 N   0  0  0  0  0  0  0  0  0  0  0  0
   39.1550   32.2080   45.5600 C   0  0  0  0  0  0  0  0  0  0  0  0
   40.3640   31.6040   45.2090 C   0  0  0  0  0  0  0  0  0  0  0  0
   40.4990   31.7170   43.8170 C   0  0  0  0  0  0  0  0  0  0  0  0
   39.3600   32.3830   43.4200 C   0  0  0  0  0  0  0  0  0  0  0  0
   38.6140   32.6470   44.4570 O   0  0  0  0  0  0  0  0  0  0  0  0
   39.1130   32.7030   42.0190 C   0  0  0  0  0  0  0  0  0  0  0  0
   39.3560   31.8250   40.9580 C   0  0  0  0  0  0  0  0  0  0  0  0
   38.9740   32.5620   39.8330 C   0  0  0  0  0  0  0  0  0  0  0  0
   38.5330   33.8070   40.2520 C   0  0  0  0  0  0  0  0  0  0  0  0
   38.6430   33.8270   41.5630 O   0  0  0  0  0  0  0  0  0  0  0  0
   36.2330   30.5270   49.0350 C   0  0  0  0  0  0  0  0  0  0  0  0
   35.0230   30.7280   48.7340 O   0  0  0  0  0  0  0  0  0  0  0  0
   36.6000   29.4320   49.8120 O   0  0  0  0  0  0  0  0  0  0  0  0
   36.5680   29.4630   51.2150 C   0  0  0  0  0  0  0  0  0  0  0  0
   37.7020   29.7530   52.0020 N   0  0  0  0  0  0  0  0  0  0  0  0
   35.4270   29.2070   51.6830 O   0  0  0  0  0  0  0  0  0  0  0  0
   37.3456   32.4359   50.5356 H   0  0  0  0  0  0  0  0  0  0  0  0
   39.1296   34.0593   49.7452 H   0  0  0  0  0  0  0  0  0  0  0  0
   41.0784   31.1277   45.8966 H   0  0  0  0  0  0  0  0  0  0  0  0
   41.3252   31.3563   43.1867 H   0  0  0  0  0  0  0  0  0  0  0  0
   39.7527   30.7999   40.9988 H   0  0  0  0  0  0  0  0  0  0  0  0
   39.0164   32.2124   38.7909 H   0  0  0  0  0  0  0  0  0  0  0  0
   38.1625   34.6214   39.6121 H   0  0  0  0  0  0  0  0  0  0  0  0
   37.6270   29.7635   53.0292 H   0  0  0  0  0  0  0  0  0  0  0  0
   38.6051   29.9543   51.5495 H   0  0  0  0  0  0  0  0  0  0  0  0
  1 17  1  0
  1  2  2  0
  3  2  1  0
  4  3  2  0
  5  6  2  0
  5  4  1  0
  6  1  1  0
  7  5  1  0
  8  7  2  0
  9  8  1  0
 10  9  2  0
 10 11  1  0
 11  7  1  0
 12 10  1  0
 13 12  2  0
 14 15  2  0
 14 13  1  0
 15 16  1  0
 16 12  1  0
 17 19  1  0
 18 17  2  0
 19 20  1  0
 20 22  2  0
 20 21  1  0
  2 23  1  0
  3 24  1  0
  8 25  1  0
  9 26  1  0
 13 27  1  0
 14 28  1  0
 15 29  1  0
 21 30  1  0
 21 31  1  0
M  ISO  7  23  14  24  14  25  14  26  14  27  14  28  14  29  14
M  END
>  <minimizedAffinity>  (1) 
-5.80557823

>  <minimizedRMSD>  (1) 
0.835925937

$$$$
