
     RDKit          3D

 31 33  0  0  0  0  0  0  0  0999 V2000
   37.2550   31.4300   48.5340 C   0  0  0  0  0  0  0  0  0  0  0  0
   37.7120   32.4080   49.4500 C   0  0  0  0  0  0  0  0  0  0  0  0
   38.6950   33.2850   48.9970 C   0  0  0  0  0  0  0  0  0  0  0  0
   39.1560   33.1490   47.7050 N   0  0  0  0  0  0  0  0  0  0  0  0
   38.6890   32.2070   46.8830 C   0  0  0  0  0  0  0  0  0  0  0  0
   37.7190   31.3200   47.2860 N   0  0  0  0  0  0  0  0  0  0  0  0
   39.1980   32.0960   45.5290 C   0  0  0  0  0  0  0  0  0  0  0  0
   40.3860   31.4500   45.2180 C   0  0  0  0  0  0  0  0  0  0  0  0
   40.5690   31.5290   43.8400 C   0  0  0  0  0  0  0  0  0  0  0  0
   39.4510   32.2370   43.3900 C   0  0  0  0  0  0  0  0  0  0  0  0
   38.6950   32.5370   44.4090 O   0  0  0  0  0  0  0  0  0  0  0  0
   39.2030   32.5670   42.0090 N   0  0  0  0  0  0  0  0  0  0  0  0
   38.7270   33.7110   41.5710 N   0  0  0  0  0  0  0  0  0  0  0  0
   38.6010   33.7310   40.2390 C   0  0  0  0  0  0  0  0  0  0  0  0
   39.0350   32.4930   39.8020 C   0  0  0  0  0  0  0  0  0  0  0  0
   39.4080   31.7810   40.9480 C   0  0  0  0  0  0  0  0  0  0  0  0
   36.2290   30.5160   49.0140 C   0  0  0  0  0  0  0  0  0  0  0  0
   35.0150   30.7130   48.7110 O   0  0  0  0  0  0  0  0  0  0  0  0
   36.6050   29.4320   49.8040 O   0  0  0  0  0  0  0  0  0  0  0  0
   36.5670   29.4690   51.2000 C   0  0  0  0  0  0  0  0  0  0  0  0
   37.6950   29.7700   51.9890 N   0  0  0  0  0  0  0  0  0  0  0  0
   35.4350   29.2100   51.6760 O   0  0  0  0  0  0  0  0  0  0  0  0
   37.3096   32.4724   50.4717 H   0  0  0  0  0  0  0  0  0  0  0  0
   39.0949   34.0694   49.6563 H   0  0  0  0  0  0  0  0  0  0  0  0
   41.0636   30.9617   45.9338 H   0  0  0  0  0  0  0  0  0  0  0  0
   41.4011   31.1271   43.2433 H   0  0  0  0  0  0  0  0  0  0  0  0
   38.2291   34.5606   39.6198 H   0  0  0  0  0  0  0  0  0  0  0  0
   39.0785   32.1385   38.7616 H   0  0  0  0  0  0  0  0  0  0  0  0
   39.8012   30.7539   40.9711 H   0  0  0  0  0  0  0  0  0  0  0  0
   37.6161   29.7848   53.0159 H   0  0  0  0  0  0  0  0  0  0  0  0
   38.5984   29.9752   51.5389 H   0  0  0  0  0  0  0  0  0  0  0  0
  1 17  1  0
  1  2  2  0
  3  2  1  0
  4  3  2  0
  5  6  2  0
  5  4  1  0
  6  1  1  0
  7  5  1  0
  8  7  2  0
  9  8  1  0
 10  9  2  0
 10 11  1  0
 11  7  1  0
 12 10  1  0
 13 12  1  0
 14 13  2  0
 15 14  1  0
 15 16  2  0
 16 12  1  0
 17 19  1  0
 18 17  2  0
 19 20  1  0
 20 22  2  0
 20 21  1  0
  2 23  1  0
  3 24  1  0
  8 25  1  0
  9 26  1  0
 14 27  1  0
 15 28  1  0
 16 29  1  0
 21 30  1  0
 21 31  1  0
M  ISO  7  23  14  24  14  25  14  26  14  27  14  28  14  29  14
M  END
>  <minimizedAffinity>  (1) 
-5.76068354

>  <minimizedRMSD>  (1) 
0.848560393

$$$$
