
     RDKit          3D

 37 39  0  0  0  0  0  0  0  0999 V2000
   39.2260   32.0060   45.5700 C   0  0  0  0  0  0  0  0  0  0  0  0
   40.4320   31.3600   45.3080 C   0  0  0  0  0  0  0  0  0  0  0  0
   40.6490   31.4030   43.9370 C   0  0  0  0  0  0  0  0  0  0  0  0
   39.5370   32.0850   43.4380 C   0  0  0  0  0  0  0  0  0  0  0  0
   38.7330   32.4170   44.4380 O   0  0  0  0  0  0  0  0  0  0  0  0
   37.2310   31.4090   48.5550 C   0  0  0  0  0  0  0  0  0  0  0  0
   37.6750   32.4120   49.4500 C   0  0  0  0  0  0  0  0  0  0  0  0
   38.6610   33.2830   49.0050 C   0  0  0  0  0  0  0  0  0  0  0  0
   39.1360   33.1080   47.7270 N   0  0  0  0  0  0  0  0  0  0  0  0
   38.6870   32.1470   46.9180 C   0  0  0  0  0  0  0  0  0  0  0  0
   37.7160   31.2720   47.3250 N   0  0  0  0  0  0  0  0  0  0  0  0
   36.1910   30.5050   49.0480 C   0  0  0  0  0  0  0  0  0  0  0  0
   34.9720   30.7270   48.7450 O   0  0  0  0  0  0  0  0  0  0  0  0
   36.5500   29.4220   49.8340 O   0  0  0  0  0  0  0  0  0  0  0  0
   36.5390   29.4610   51.2210 C   0  0  0  0  0  0  0  0  0  0  0  0
   37.6870   29.7580   51.9850 N   0  0  0  0  0  0  0  0  0  0  0  0
   35.4170   29.2090   51.7270 O   0  0  0  0  0  0  0  0  0  0  0  0
   39.0280   32.8060   39.2800 C   0  0  0  0  0  0  0  0  0  0  0  0
   38.5720   33.7270   40.2000 C   0  0  0  0  0  0  0  0  0  0  0  0
   38.7220   33.5230   41.5620 C   0  0  0  0  0  0  0  0  0  0  0  0
   39.3470   32.3620   42.0040 C   0  0  0  0  0  0  0  0  0  0  0  0
   39.8010   31.4450   41.0770 C   0  0  0  0  0  0  0  0  0  0  0  0
   39.6480   31.6560   39.7220 C   0  0  0  0  0  0  0  0  0  0  0  0
   38.7200   33.2960   37.6290 S   0  0  0  0  0  0  0  0  0  0  0  0
   37.5430   32.5280   37.1170 O   0  0  0  0  0  0  0  0  0  0  0  0
   38.3240   34.7490   37.6600 O   0  0  0  0  0  0  0  0  0  0  0  0
   41.0947   30.8979   46.0545 H   0  0  0  0  0  0  0  0  0  0  0  0
   41.5007   30.9940   43.3737 H   0  0  0  0  0  0  0  0  0  0  0  0
   37.2538   32.4985   50.4625 H   0  0  0  0  0  0  0  0  0  0  0  0
   39.0479   34.0841   49.6520 H   0  0  0  0  0  0  0  0  0  0  0  0
   37.6309   29.7755   53.0133 H   0  0  0  0  0  0  0  0  0  0  0  0
   38.5813   29.9574   51.5145 H   0  0  0  0  0  0  0  0  0  0  0  0
   38.0784   34.6435   39.8444 H   0  0  0  0  0  0  0  0  0  0  0  0
   38.3526   34.2676   42.2825 H   0  0  0  0  0  0  0  0  0  0  0  0
   40.2953   30.5265   41.4262 H   0  0  0  0  0  0  0  0  0  0  0  0
   40.0176   30.9129   39.0000 H   0  0  0  0  0  0  0  0  0  0  0  0
   39.8222   33.0802   36.8444 H   0  0  0  0  0  0  0  0  0  0  0  0
  1 10  1  0
  2  1  2  0
  3  2  1  0
  4  3  2  0
  4  5  1  0
  5  1  1  0
  6 12  1  0
  6  7  2  0
  8  7  1  0
  9  8  2  0
 10 11  2  0
 10  9  1  0
 11  6  1  0
 12 14  1  0
 13 12  2  0
 14 15  1  0
 15 17  2  0
 15 16  1  0
 18 23  2  0
 18 19  1  0
 19 20  2  0
 20 21  1  0
 21  4  1  0
 22 21  2  0
 23 22  1  0
 24 26  2  0
 24 18  1  0
 25 24  2  0
  2 27  1  0
  3 28  1  0
  7 29  1  0
  8 30  1  0
 16 31  1  0
 16 32  1  0
 19 33  1  0
 20 34  1  0
 22 35  1  0
 23 36  1  0
 24 37  1  0
M  ISO  8  27  14  28  14  29  14  30  14  33  14  34  14  35  14  36  14
M  ISO  1  37  11
M  END
>  <minimizedAffinity>  (1) 
-5.742033

>  <minimizedRMSD>  (1) 
1.44091189

$$$$
