
     RDKit          3D

 33 34  0  0  0  0  0  0  0  0999 V2000
   37.1640   31.4480   48.6580 C   0  0  0  0  0  0  0  0  0  0  0  0
   37.5610   32.4270   49.5860 C   0  0  0  0  0  0  0  0  0  0  0  0
   38.5440   33.3300   49.1970 C   0  0  0  0  0  0  0  0  0  0  0  0
   39.0670   33.2050   47.9210 N   0  0  0  0  0  0  0  0  0  0  0  0
   38.6570   32.2620   47.0810 C   0  0  0  0  0  0  0  0  0  0  0  0
   37.6940   31.3650   47.4410 N   0  0  0  0  0  0  0  0  0  0  0  0
   39.2270   32.1560   45.7430 C   0  0  0  0  0  0  0  0  0  0  0  0
   40.4170   31.5110   45.4710 C   0  0  0  0  0  0  0  0  0  0  0  0
   40.6610   31.5980   44.1060 C   0  0  0  0  0  0  0  0  0  0  0  0
   39.5810   32.3080   43.6210 C   0  0  0  0  0  0  0  0  0  0  0  0
   38.7640   32.6160   44.6120 O   0  0  0  0  0  0  0  0  0  0  0  0
   39.3450   32.6840   42.2010 C   0  0  0  0  0  0  0  0  0  0  0  0
   39.7880   31.6030   41.2590 C   0  0  0  0  0  0  0  0  0  0  0  0
   37.8700   33.0050   42.0840 C   0  0  0  0  0  0  0  0  0  0  0  0
   36.1330   30.5110   49.0850 C   0  0  0  0  0  0  0  0  0  0  0  0
   34.9160   30.7130   48.7620 O   0  0  0  0  0  0  0  0  0  0  0  0
   36.4860   29.3940   49.8460 O   0  0  0  0  0  0  0  0  0  0  0  0
   36.5130   29.4310   51.2470 C   0  0  0  0  0  0  0  0  0  0  0  0
   37.6800   29.6940   51.9840 N   0  0  0  0  0  0  0  0  0  0  0  0
   35.4030   29.2090   51.7690 O   0  0  0  0  0  0  0  0  0  0  0  0
   37.1085   32.4768   50.5874 H   0  0  0  0  0  0  0  0  0  0  0  0
   38.8946   34.1176   49.8802 H   0  0  0  0  0  0  0  0  0  0  0  0
   41.0623   31.0129   46.2095 H   0  0  0  0  0  0  0  0  0  0  0  0
   41.5157   31.1950   43.5429 H   0  0  0  0  0  0  0  0  0  0  0  0
   39.9443   33.5605   41.9137 H   0  0  0  0  0  0  0  0  0  0  0  0
   40.1431   30.7365   41.8362 H   0  0  0  0  0  0  0  0  0  0  0  0
   38.9417   31.2995   40.6252 H   0  0  0  0  0  0  0  0  0  0  0  0
   40.6039   31.9806   40.6252 H   0  0  0  0  0  0  0  0  0  0  0  0
   37.4345   33.0998   43.0897 H   0  0  0  0  0  0  0  0  0  0  0  0
   37.7429   33.9518   41.5387 H   0  0  0  0  0  0  0  0  0  0  0  0
   37.3610   32.1966   41.5387 H   0  0  0  0  0  0  0  0  0  0  0  0
   37.6464   29.7099   53.0133 H   0  0  0  0  0  0  0  0  0  0  0  0
   38.5691   29.8709   51.4949 H   0  0  0  0  0  0  0  0  0  0  0  0
  1 15  1  0
  1  2  2  0
  3  2  1  0
  4  3  2  0
  5  6  2  0
  5  4  1  0
  6  1  1  0
  7  5  1  0
  8  7  2  0
  9  8  1  0
 10  9  2  0
 10 11  1  0
 11  7  1  0
 12 10  1  0
 13 12  1  0
 14 12  1  0
 15 17  1  0
 16 15  2  0
 17 18  1  0
 18 20  2  0
 18 19  1  0
  2 21  1  0
  3 22  1  0
  8 23  1  0
  9 24  1  0
 12 25  1  0
 13 26  1  0
 13 27  1  0
 13 28  1  0
 14 29  1  0
 14 30  1  0
 14 31  1  0
 19 32  1  0
 19 33  1  0
M  ISO  8  21  14  22  14  23  14  24  14  25   8  26   8  27   8  28   8
M  ISO  3  29   8  30   8  31   8
M  END
>  <minimizedAffinity>  (1) 
-5.56634235

>  <minimizedRMSD>  (1) 
0.506484628

$$$$
