
     RDKit          3D

 30 31  0  0  0  0  0  0  0  0999 V2000
   37.2640   31.4460   48.5790 C   0  0  0  0  0  0  0  0  0  0  0  0
   37.7310   32.3750   49.5520 C   0  0  0  0  0  0  0  0  0  0  0  0
   38.7120   33.2840   49.1550 C   0  0  0  0  0  0  0  0  0  0  0  0
   39.1610   33.2220   47.8540 N   0  0  0  0  0  0  0  0  0  0  0  0
   38.6910   32.3340   46.9870 C   0  0  0  0  0  0  0  0  0  0  0  0
   37.7380   31.4390   47.3440 N   0  0  0  0  0  0  0  0  0  0  0  0
   39.1930   32.2960   45.6040 C   0  0  0  0  0  0  0  0  0  0  0  0
   40.2830   31.5330   45.2250 C   0  0  0  0  0  0  0  0  0  0  0  0
   40.4550   31.7540   43.8470 C   0  0  0  0  0  0  0  0  0  0  0  0
   39.4510   32.6350   43.5010 C   0  0  0  0  0  0  0  0  0  0  0  0
   38.7330   32.9260   44.5660 O   0  0  0  0  0  0  0  0  0  0  0  0
   39.1740   33.2010   42.1570 C   0  0  0  0  0  0  0  0  0  0  0  0
   37.7410   33.1070   41.7740 C   0  0  0  0  0  0  0  0  0  0  0  0
   36.2430   30.5100   49.0200 C   0  0  0  0  0  0  0  0  0  0  0  0
   35.0390   30.6940   48.6890 O   0  0  0  0  0  0  0  0  0  0  0  0
   36.6150   29.4190   49.8070 O   0  0  0  0  0  0  0  0  0  0  0  0
   36.5550   29.4470   51.1920 C   0  0  0  0  0  0  0  0  0  0  0  0
   37.6960   29.7240   51.9950 N   0  0  0  0  0  0  0  0  0  0  0  0
   35.4240   29.2110   51.6650 O   0  0  0  0  0  0  0  0  0  0  0  0
   37.3334   32.3758   50.5776 H   0  0  0  0  0  0  0  0  0  0  0  0
   39.1146   34.0272   49.8590 H   0  0  0  0  0  0  0  0  0  0  0  0
   40.8923   30.8842   45.8714 H   0  0  0  0  0  0  0  0  0  0  0  0
   41.2220   31.3196   43.1889 H   0  0  0  0  0  0  0  0  0  0  0  0
   39.4691   34.2607   42.1548 H   0  0  0  0  0  0  0  0  0  0  0  0
   39.7501   32.6141   41.4265 H   0  0  0  0  0  0  0  0  0  0  0  0
   37.1208   33.0663   42.6816 H   0  0  0  0  0  0  0  0  0  0  0  0
   37.4620   33.9888   41.1785 H   0  0  0  0  0  0  0  0  0  0  0  0
   37.5796   32.1963   41.1785 H   0  0  0  0  0  0  0  0  0  0  0  0
   37.6126   29.7361   53.0215 H   0  0  0  0  0  0  0  0  0  0  0  0
   38.6055   29.9124   51.5499 H   0  0  0  0  0  0  0  0  0  0  0  0
  1 14  1  0
  1  2  2  0
  3  2  1  0
  4  3  2  0
  5  6  2  0
  5  4  1  0
  6  1  1  0
  7  5  1  0
  8  7  2  0
  9  8  1  0
 10  9  2  0
 10 11  1  0
 11  7  1  0
 12 10  1  0
 13 12  1  0
 14 16  1  0
 15 14  2  0
 16 17  1  0
 17 19  2  0
 17 18  1  0
  2 20  1  0
  3 21  1  0
  8 22  1  0
  9 23  1  0
 12 24  1  0
 12 25  1  0
 13 26  1  0
 13 27  1  0
 13 28  1  0
 18 29  1  0
 18 30  1  0
M  ISO  8  20  14  21  14  22  14  23  14  24   8  25   8  26   8  27   8
M  ISO  1  28   8
M  END
>  <minimizedAffinity>  (1) 
-5.46392584

>  <minimizedRMSD>  (1) 
0.525177836

$$$$
