
     RDKit          3D

 31 33  0  0  0  0  0  0  0  0999 V2000
   37.2490   31.4240   48.5320 C   0  0  0  0  0  0  0  0  0  0  0  0
   37.7120   32.4060   49.4530 C   0  0  0  0  0  0  0  0  0  0  0  0
   38.6950   33.2840   49.0020 C   0  0  0  0  0  0  0  0  0  0  0  0
   39.1470   33.1430   47.7070 N   0  0  0  0  0  0  0  0  0  0  0  0
   38.6760   32.1980   46.8830 C   0  0  0  0  0  0  0  0  0  0  0  0
   37.7180   31.3240   47.2870 N   0  0  0  0  0  0  0  0  0  0  0  0
   39.1890   32.0960   45.5300 C   0  0  0  0  0  0  0  0  0  0  0  0
   40.3750   31.4330   45.2190 C   0  0  0  0  0  0  0  0  0  0  0  0
   40.5680   31.5270   43.8440 C   0  0  0  0  0  0  0  0  0  0  0  0
   39.4660   32.2540   43.3940 C   0  0  0  0  0  0  0  0  0  0  0  0
   38.7000   32.5570   44.4170 O   0  0  0  0  0  0  0  0  0  0  0  0
   39.1990   32.6240   42.0070 C   0  0  0  0  0  0  0  0  0  0  0  0
   39.3320   31.7670   40.9340 C   0  0  0  0  0  0  0  0  0  0  0  0
   38.9760   32.5530   39.8540 C   0  0  0  0  0  0  0  0  0  0  0  0
   38.6470   33.8080   40.2520 N   0  0  0  0  0  0  0  0  0  0  0  0
   38.7900   33.8250   41.5640 N   0  0  0  0  0  0  0  0  0  0  0  0
   36.2260   30.5140   49.0140 C   0  0  0  0  0  0  0  0  0  0  0  0
   35.0160   30.7130   48.7140 O   0  0  0  0  0  0  0  0  0  0  0  0
   36.5930   29.4230   49.8070 O   0  0  0  0  0  0  0  0  0  0  0  0
   36.5610   29.4660   51.2010 C   0  0  0  0  0  0  0  0  0  0  0  0
   37.6920   29.7680   51.9840 N   0  0  0  0  0  0  0  0  0  0  0  0
   35.4350   29.2110   51.6800 O   0  0  0  0  0  0  0  0  0  0  0  0
   37.3112   32.4687   50.4755 H   0  0  0  0  0  0  0  0  0  0  0  0
   39.0990   34.0673   49.6601 H   0  0  0  0  0  0  0  0  0  0  0  0
   41.0401   30.9257   45.9333 H   0  0  0  0  0  0  0  0  0  0  0  0
   41.3991   31.1210   43.2486 H   0  0  0  0  0  0  0  0  0  0  0  0
   39.6456   30.7127   40.9371 H   0  0  0  0  0  0  0  0  0  0  0  0
   38.9613   32.2069   38.8100 H   0  0  0  0  0  0  0  0  0  0  0  0
   38.3465   34.5892   39.6517 H   0  0  0  0  0  0  0  0  0  0  0  0
   37.6171   29.7873   53.0111 H   0  0  0  0  0  0  0  0  0  0  0  0
   38.5941   29.9696   51.5296 H   0  0  0  0  0  0  0  0  0  0  0  0
  1 17  1  0
  1  2  2  0
  3  2  1  0
  4  3  2  0
  5  6  2  0
  5  4  1  0
  6  1  1  0
  7  5  1  0
  8  7  2  0
  9  8  1  0
 10  9  2  0
 10 11  1  0
 11  7  1  0
 12 10  1  0
 13 12  1  0
 14 15  1  0
 14 13  2  0
 15 16  1  0
 16 12  2  0
 17 19  1  0
 18 17  2  0
 19 20  1  0
 20 22  2  0
 20 21  1  0
  2 23  1  0
  3 24  1  0
  8 25  1  0
  9 26  1  0
 13 27  1  0
 14 28  1  0
 15 29  1  0
 21 30  1  0
 21 31  1  0
M  ISO  7  23  14  24  14  25  14  26  14  27  14  28  14  29   9
M  END
>  <minimizedAffinity>  (1) 
-5.77465773

>  <minimizedRMSD>  (1) 
0.937486053

$$$$
