
     RDKit          3D

 36 39  0  0  0  0  0  0  0  0999 V2000
   39.3240   31.8590   45.7250 C   0  0  0  0  0  0  0  0  0  0  0  0
   40.5850   31.2860   45.5550 C   0  0  0  0  0  0  0  0  0  0  0  0
   40.8760   31.2610   44.1950 C   0  0  0  0  0  0  0  0  0  0  0  0
   39.7600   31.8290   43.6020 C   0  0  0  0  0  0  0  0  0  0  0  0
   38.8960   32.1560   44.5420 O   0  0  0  0  0  0  0  0  0  0  0  0
   39.5470   32.0450   42.1740 C   0  0  0  0  0  0  0  0  0  0  0  0
   40.0420   31.2090   41.1860 C   0  0  0  0  0  0  0  0  0  0  0  0
   39.6070   31.7880   40.0190 C   0  0  0  0  0  0  0  0  0  0  0  0
   38.8850   32.9160   40.2860 N   0  0  0  0  0  0  0  0  0  0  0  0
   38.8690   33.0410   41.5910 N   0  0  0  0  0  0  0  0  0  0  0  0
   38.2720   33.7830   39.3380 C   0  0  0  0  0  0  0  0  0  0  0  0
   37.1160   34.4700   39.2850 N   0  0  0  0  0  0  0  0  0  0  0  0
   37.0580   35.1250   38.1470 O   0  0  0  0  0  0  0  0  0  0  0  0
   38.1530   34.8920   37.4330 C   0  0  0  0  0  0  0  0  0  0  0  0
   38.8970   34.0600   38.1790 N   0  0  0  0  0  0  0  0  0  0  0  0
   37.1670   31.3770   48.5990 C   0  0  0  0  0  0  0  0  0  0  0  0
   37.5390   32.4210   49.4780 C   0  0  0  0  0  0  0  0  0  0  0  0
   38.5400   33.2740   49.0460 C   0  0  0  0  0  0  0  0  0  0  0  0
   39.1000   33.0550   47.8090 N   0  0  0  0  0  0  0  0  0  0  0  0
   38.7030   32.0440   47.0140 C   0  0  0  0  0  0  0  0  0  0  0  0
   37.7200   31.1740   47.3950 N   0  0  0  0  0  0  0  0  0  0  0  0
   36.1100   30.4800   49.0620 C   0  0  0  0  0  0  0  0  0  0  0  0
   34.9000   30.7190   48.7490 O   0  0  0  0  0  0  0  0  0  0  0  0
   36.4270   29.3720   49.8420 O   0  0  0  0  0  0  0  0  0  0  0  0
   36.4870   29.4330   51.2390 C   0  0  0  0  0  0  0  0  0  0  0  0
   37.6720   29.7170   51.9510 N   0  0  0  0  0  0  0  0  0  0  0  0
   35.3950   29.2120   51.7840 O   0  0  0  0  0  0  0  0  0  0  0  0
   41.2379   30.9169   46.3597 H   0  0  0  0  0  0  0  0  0  0  0  0
   41.7828   30.8786   43.7037 H   0  0  0  0  0  0  0  0  0  0  0  0
   40.6427   30.2956   41.3078 H   0  0  0  0  0  0  0  0  0  0  0  0
   39.8114   31.3980   39.0110 H   0  0  0  0  0  0  0  0  0  0  0  0
   38.3987   35.2956   36.4397 H   0  0  0  0  0  0  0  0  0  0  0  0
   37.0560   32.5489   50.4580 H   0  0  0  0  0  0  0  0  0  0  0  0
   38.8798   34.1080   49.6776 H   0  0  0  0  0  0  0  0  0  0  0  0
   37.6591   29.7494   52.9804 H   0  0  0  0  0  0  0  0  0  0  0  0
   38.5498   29.8918   51.4412 H   0  0  0  0  0  0  0  0  0  0  0  0
  1 20  1  0
  2  1  2  0
  3  2  1  0
  4  3  2  0
  4  5  1  0
  5  1  1  0
  6  4  1  0
  7  6  1  0
  8  9  1  0
  8  7  2  0
  9 10  1  0
 10  6  2  0
 11  9  1  0
 12 11  2  0
 13 12  1  0
 14 13  1  0
 14 15  2  0
 15 11  1  0
 16 22  1  0
 16 17  2  0
 18 17  1  0
 19 18  2  0
 20 21  2  0
 20 19  1  0
 21 16  1  0
 22 24  1  0
 23 22  2  0
 24 25  1  0
 25 27  2  0
 25 26  1  0
  2 28  1  0
  3 29  1  0
  7 30  1  0
  8 31  1  0
 14 32  1  0
 17 33  1  0
 18 34  1  0
 26 35  1  0
 26 36  1  0
M  ISO  7  28  14  29  14  30  14  31  14  32  14  33  14  34  14
M  END
>  <minimizedAffinity>  (1) 
-6.23080301

>  <minimizedRMSD>  (1) 
0.711948276

$$$$
