
     RDKit          3D

 38 41  0  0  0  0  0  0  0  0999 V2000
   39.3310   31.8690   45.7240 C   0  0  0  0  0  0  0  0  0  0  0  0
   40.5960   31.3080   45.5650 C   0  0  0  0  0  0  0  0  0  0  0  0
   40.8800   31.2770   44.2050 C   0  0  0  0  0  0  0  0  0  0  0  0
   39.7540   31.8300   43.6050 C   0  0  0  0  0  0  0  0  0  0  0  0
   38.8860   32.1550   44.5370 O   0  0  0  0  0  0  0  0  0  0  0  0
   37.1610   31.3620   48.6010 C   0  0  0  0  0  0  0  0  0  0  0  0
   37.5400   32.4220   49.4870 C   0  0  0  0  0  0  0  0  0  0  0  0
   38.5410   33.2850   49.0560 C   0  0  0  0  0  0  0  0  0  0  0  0
   39.0940   33.0560   47.8120 N   0  0  0  0  0  0  0  0  0  0  0  0
   38.7120   32.0560   47.0200 C   0  0  0  0  0  0  0  0  0  0  0  0
   37.7330   31.1920   47.4080 N   0  0  0  0  0  0  0  0  0  0  0  0
   36.1170   30.4770   49.0690 C   0  0  0  0  0  0  0  0  0  0  0  0
   34.9140   30.7200   48.7630 O   0  0  0  0  0  0  0  0  0  0  0  0
   36.4430   29.3680   49.8500 O   0  0  0  0  0  0  0  0  0  0  0  0
   36.4870   29.4310   51.2400 C   0  0  0  0  0  0  0  0  0  0  0  0
   37.6750   29.7160   51.9510 N   0  0  0  0  0  0  0  0  0  0  0  0
   35.3810   29.2110   51.7900 O   0  0  0  0  0  0  0  0  0  0  0  0
   39.5480   32.0250   42.1780 C   0  0  0  0  0  0  0  0  0  0  0  0
   40.0420   31.1810   41.2060 C   0  0  0  0  0  0  0  0  0  0  0  0
   39.6010   31.7590   40.0200 C   0  0  0  0  0  0  0  0  0  0  0  0
   38.8920   32.8730   40.2800 N   0  0  0  0  0  0  0  0  0  0  0  0
   38.8720   33.0160   41.5830 N   0  0  0  0  0  0  0  0  0  0  0  0
   38.2820   33.7300   39.3210 C   0  0  0  0  0  0  0  0  0  0  0  0
   37.0010   34.2350   39.3980 C   0  0  0  0  0  0  0  0  0  0  0  0
   36.8190   34.9920   38.3000 N   0  0  0  0  0  0  0  0  0  0  0  0
   37.9260   34.9640   37.5740 C   0  0  0  0  0  0  0  0  0  0  0  0
   38.8380   34.1930   38.1860 N   0  0  0  0  0  0  0  0  0  0  0  0
   41.2533   30.9527   46.3723 H   0  0  0  0  0  0  0  0  0  0  0  0
   41.7895   30.9003   43.7143 H   0  0  0  0  0  0  0  0  0  0  0  0
   37.0587   32.5479   50.4681 H   0  0  0  0  0  0  0  0  0  0  0  0
   38.8807   34.1214   49.6845 H   0  0  0  0  0  0  0  0  0  0  0  0
   37.6629   29.7530   52.9803 H   0  0  0  0  0  0  0  0  0  0  0  0
   38.5528   29.8867   51.4398 H   0  0  0  0  0  0  0  0  0  0  0  0
   40.6418   30.2683   41.3371 H   0  0  0  0  0  0  0  0  0  0  0  0
   39.8028   31.3624   39.0140 H   0  0  0  0  0  0  0  0  0  0  0  0
   36.2704   34.0544   40.2003 H   0  0  0  0  0  0  0  0  0  0  0  0
   38.0746   35.4900   36.6194 H   0  0  0  0  0  0  0  0  0  0  0  0
   39.7902   33.9921   37.8486 H   0  0  0  0  0  0  0  0  0  0  0  0
  1 10  1  0
  2  1  2  0
  3  2  1  0
  4  3  2  0
  4  5  1  0
  5  1  1  0
  6 12  1  0
  6  7  2  0
  8  7  1  0
  9  8  2  0
 10 11  2  0
 10  9  1  0
 11  6  1  0
 12 14  1  0
 13 12  2  0
 14 15  1  0
 15 17  2  0
 15 16  1  0
 18  4  1  0
 19 18  1  0
 20 21  1  0
 20 19  2  0
 21 22  1  0
 22 18  2  0
 23 24  2  0
 23 21  1  0
 25 24  1  0
 26 27  1  0
 26 25  2  0
 27 23  1  0
  2 28  1  0
  3 29  1  0
  7 30  1  0
  8 31  1  0
 16 32  1  0
 16 33  1  0
 19 34  1  0
 20 35  1  0
 24 36  1  0
 26 37  1  0
 27 38  1  0
M  ISO  8  28  14  29  14  30  14  31  14  34  14  35  14  36  14  37  14
M  ISO  1  38   9
M  END
>  <minimizedAffinity>  (1) 
-5.96717596

>  <minimizedRMSD>  (1) 
0.74088645

$$$$
