
     RDKit          3D

 38 41  0  0  0  0  0  0  0  0999 V2000
   39.3350   31.8600   45.7420 C   0  0  0  0  0  0  0  0  0  0  0  0
   40.6120   31.3020   45.5940 C   0  0  0  0  0  0  0  0  0  0  0  0
   40.8920   31.2700   44.2280 C   0  0  0  0  0  0  0  0  0  0  0  0
   39.7550   31.8170   43.6240 C   0  0  0  0  0  0  0  0  0  0  0  0
   38.8910   32.1380   44.5480 O   0  0  0  0  0  0  0  0  0  0  0  0
   37.1390   31.3620   48.6050 C   0  0  0  0  0  0  0  0  0  0  0  0
   37.5150   32.4200   49.4930 C   0  0  0  0  0  0  0  0  0  0  0  0
   38.5270   33.2810   49.0660 C   0  0  0  0  0  0  0  0  0  0  0  0
   39.0910   33.0550   47.8280 N   0  0  0  0  0  0  0  0  0  0  0  0
   38.7060   32.0520   47.0370 C   0  0  0  0  0  0  0  0  0  0  0  0
   37.7250   31.1990   47.4230 N   0  0  0  0  0  0  0  0  0  0  0  0
   36.0860   30.4740   49.0600 C   0  0  0  0  0  0  0  0  0  0  0  0
   34.8900   30.7100   48.7450 O   0  0  0  0  0  0  0  0  0  0  0  0
   36.4150   29.3640   49.8450 O   0  0  0  0  0  0  0  0  0  0  0  0
   36.4770   29.4260   51.2370 C   0  0  0  0  0  0  0  0  0  0  0  0
   37.6680   29.7020   51.9390 N   0  0  0  0  0  0  0  0  0  0  0  0
   35.3830   29.2140   51.7940 O   0  0  0  0  0  0  0  0  0  0  0  0
   39.5680   31.9970   42.1850 C   0  0  0  0  0  0  0  0  0  0  0  0
   40.0240   31.1380   41.2200 C   0  0  0  0  0  0  0  0  0  0  0  0
   39.6140   31.7170   40.0390 C   0  0  0  0  0  0  0  0  0  0  0  0
   38.9410   32.8770   40.2850 N   0  0  0  0  0  0  0  0  0  0  0  0
   38.9230   33.0310   41.6050 N   0  0  0  0  0  0  0  0  0  0  0  0
   38.3960   33.7020   39.3080 C   0  0  0  0  0  0  0  0  0  0  0  0
   37.2120   34.3180   39.1460 C   0  0  0  0  0  0  0  0  0  0  0  0
   36.9420   35.0940   38.0500 C   0  0  0  0  0  0  0  0  0  0  0  0
   38.0030   35.1930   37.1110 C   0  0  0  0  0  0  0  0  0  0  0  0
   39.3340   34.1490   37.8780 S   0  0  0  0  0  0  0  0  0  0  0  0
   41.2704   30.9543   46.4037 H   0  0  0  0  0  0  0  0  0  0  0  0
   41.8028   30.8980   43.7359 H   0  0  0  0  0  0  0  0  0  0  0  0
   37.0270   32.5489   50.4704 H   0  0  0  0  0  0  0  0  0  0  0  0
   38.8648   34.1153   49.6983 H   0  0  0  0  0  0  0  0  0  0  0  0
   37.6627   29.7371   52.9684 H   0  0  0  0  0  0  0  0  0  0  0  0
   38.5434   29.8686   51.4225 H   0  0  0  0  0  0  0  0  0  0  0  0
   40.5869   30.2029   41.3565 H   0  0  0  0  0  0  0  0  0  0  0  0
   39.8031   31.3017   39.0381 H   0  0  0  0  0  0  0  0  0  0  0  0
   36.4368   34.1951   39.9167 H   0  0  0  0  0  0  0  0  0  0  0  0
   35.9767   35.6019   37.9079 H   0  0  0  0  0  0  0  0  0  0  0  0
   38.0298   35.7505   36.1631 H   0  0  0  0  0  0  0  0  0  0  0  0
  1 10  1  0
  2  1  2  0
  3  2  1  0
  4  3  2  0
  4  5  1  0
  5  1  1  0
  6 12  1  0
  6  7  2  0
  8  7  1  0
  9  8  2  0
 10 11  2  0
 10  9  1  0
 11  6  1  0
 12 14  1  0
 13 12  2  0
 14 15  1  0
 15 17  2  0
 15 16  1  0
 18  4  1  0
 19 18  1  0
 20 21  1  0
 20 19  2  0
 21 22  1  0
 22 18  2  0
 23 21  1  0
 24 23  2  0
 25 24  1  0
 26 27  1  0
 26 25  2  0
 27 23  1  0
  2 28  1  0
  3 29  1  0
  7 30  1  0
  8 31  1  0
 16 32  1  0
 16 33  1  0
 19 34  1  0
 20 35  1  0
 24 36  1  0
 25 37  1  0
 26 38  1  0
M  ISO  8  28  14  29  14  30  14  31  14  34  14  35  14  36  14  37  14
M  ISO  1  38  14
M  END
>  <minimizedAffinity>  (1) 
-5.9642849

>  <minimizedRMSD>  (1) 
0.752388954

$$$$
