
     RDKit          3D

 43 46  0  0  1  0  0  0  0  0999 V2000
   39.3070   31.8630   45.7150 C   0  0  0  0  0  0  0  0  0  0  0  0
   40.5670   31.2770   45.5500 C   0  0  0  0  0  0  0  0  0  0  0  0
   40.8390   31.2590   44.1890 C   0  0  0  0  0  0  0  0  0  0  0  0
   39.7070   31.8440   43.5990 C   0  0  0  0  0  0  0  0  0  0  0  0
   38.8570   32.1720   44.5320 O   0  0  0  0  0  0  0  0  0  0  0  0
   37.1590   31.3760   48.6050 C   0  0  0  0  0  0  0  0  0  0  0  0
   37.5450   32.4230   49.4890 C   0  0  0  0  0  0  0  0  0  0  0  0
   38.5480   33.2740   49.0520 C   0  0  0  0  0  0  0  0  0  0  0  0
   39.0970   33.0540   47.8110 N   0  0  0  0  0  0  0  0  0  0  0  0
   38.6920   32.0500   47.0200 C   0  0  0  0  0  0  0  0  0  0  0  0
   37.7140   31.1930   47.4060 N   0  0  0  0  0  0  0  0  0  0  0  0
   36.1040   30.4830   49.0680 C   0  0  0  0  0  0  0  0  0  0  0  0
   34.9100   30.7130   48.7600 O   0  0  0  0  0  0  0  0  0  0  0  0
   36.4480   29.3720   49.8560 O   0  0  0  0  0  0  0  0  0  0  0  0
   36.4910   29.4310   51.2420 C   0  0  0  0  0  0  0  0  0  0  0  0
   37.6790   29.7160   51.9580 N   0  0  0  0  0  0  0  0  0  0  0  0
   35.3860   29.2100   51.7910 O   0  0  0  0  0  0  0  0  0  0  0  0
   39.5260   32.0460   42.1670 C   0  0  0  0  0  0  0  0  0  0  0  0
   39.9390   31.1820   41.1800 C   0  0  0  0  0  0  0  0  0  0  0  0
   39.5440   31.8100   40.0250 C   0  0  0  0  0  0  0  0  0  0  0  0
   38.9290   32.9840   40.2760 N   0  0  0  0  0  0  0  0  0  0  0  0
   38.9260   33.1130   41.5870 N   0  0  0  0  0  0  0  0  0  0  0  0
   38.4410   33.4380   37.9970 N   0  0  0  0  0  0  0  0  0  0  0  0
   37.7070   34.5100   37.3070 C   0  0  0  0  0  0  0  0  0  0  0  0
   36.5830   34.9210   38.2370 C   0  0  0  0  0  0  0  0  0  0  0  0
   36.8720   34.1220   39.5060 C   0  0  0  0  0  0  0  0  0  0  0  0
   38.3720   33.9390   39.3670 C   0  0  1  0  0  0  0  0  0  0  0  0
   41.2207   30.9004   46.3505 H   0  0  0  0  0  0  0  0  0  0  0  0
   41.7382   30.8735   43.6862 H   0  0  0  0  0  0  0  0  0  0  0  0
   37.0696   32.5506   50.4727 H   0  0  0  0  0  0  0  0  0  0  0  0
   38.8962   34.1051   49.6828 H   0  0  0  0  0  0  0  0  0  0  0  0
   37.6644   29.7497   52.9873 H   0  0  0  0  0  0  0  0  0  0  0  0
   38.5577   29.8896   51.4495 H   0  0  0  0  0  0  0  0  0  0  0  0
   40.4603   30.2196   41.2896 H   0  0  0  0  0  0  0  0  0  0  0  0
   39.7092   31.4045   39.0159 H   0  0  0  0  0  0  0  0  0  0  0  0
   39.4129   33.3625   37.6643 H   0  0  0  0  0  0  0  0  0  0  0  0
   38.3727   35.3640   37.1131 H   0  0  0  0  0  0  0  0  0  0  0  0
   37.3187   34.1685   36.3361 H   0  0  0  0  0  0  0  0  0  0  0  0
   36.6113   36.0024   38.4365 H   0  0  0  0  0  0  0  0  0  0  0  0
   35.5841   34.7239   37.8207 H   0  0  0  0  0  0  0  0  0  0  0  0
   36.6122   34.6880   40.4127 H   0  0  0  0  0  0  0  0  0  0  0  0
   36.2989   33.1884   39.6060 H   0  0  0  0  0  0  0  0  0  0  0  0
   38.9405   34.8552   39.5847 H   0  0  0  0  0  0  0  0  0  0  0  0
  1 10  1  0
  2  1  2  0
  3  2  1  0
  4  3  2  0
  4  5  1  0
  5  1  1  0
  6 12  1  0
  6  7  2  0
  8  7  1  0
  9  8  2  0
 10 11  2  0
 10  9  1  0
 11  6  1  0
 12 14  1  0
 13 12  2  0
 14 15  1  0
 15 17  2  0
 15 16  1  0
 18  4  1  0
 19 18  1  0
 20 21  1  0
 20 19  2  0
 21 22  1  0
 22 18  2  0
 23 27  1  0
 24 23  1  0
 24 25  1  0
 25 26  1  0
 27 26  1  0
 27 21  1  0
  2 28  1  0
  3 29  1  0
  7 30  1  0
  8 31  1  0
 16 32  1  0
 16 33  1  0
 19 34  1  0
 20 35  1  0
 23 36  1  0
 24 37  1  0
 24 38  1  0
 25 39  1  0
 25 40  1  0
 26 41  1  0
 26 42  1  0
 27 43  1  6
M  ISO  8  28  14  29  14  30  14  31  14  34  14  35  14  36   5  37  13
M  ISO  6  38  13  39  13  40  13  41  13  42  13  43  13
M  END
>  <minimizedAffinity>  (1) 
-5.88730192

>  <minimizedRMSD>  (1) 
0.712261081

$$$$
