
     RDKit          3D

 44 47  0  0  0  0  0  0  0  0999 V2000
   39.3150   31.8680   45.7320 C   0  0  0  0  0  0  0  0  0  0  0  0
   40.5780   31.2810   45.5620 C   0  0  0  0  0  0  0  0  0  0  0  0
   40.8530   31.2540   44.2040 C   0  0  0  0  0  0  0  0  0  0  0  0
   39.7250   31.8360   43.6060 C   0  0  0  0  0  0  0  0  0  0  0  0
   38.8690   32.1720   44.5380 O   0  0  0  0  0  0  0  0  0  0  0  0
   37.1560   31.3780   48.6030 C   0  0  0  0  0  0  0  0  0  0  0  0
   37.5380   32.4240   49.4910 C   0  0  0  0  0  0  0  0  0  0  0  0
   38.5440   33.2760   49.0570 C   0  0  0  0  0  0  0  0  0  0  0  0
   39.1050   33.0610   47.8150 N   0  0  0  0  0  0  0  0  0  0  0  0
   38.7040   32.0600   47.0260 C   0  0  0  0  0  0  0  0  0  0  0  0
   37.7160   31.1990   47.4130 N   0  0  0  0  0  0  0  0  0  0  0  0
   36.0990   30.4910   49.0680 C   0  0  0  0  0  0  0  0  0  0  0  0
   34.8990   30.7210   48.7590 O   0  0  0  0  0  0  0  0  0  0  0  0
   36.4420   29.3810   49.8620 O   0  0  0  0  0  0  0  0  0  0  0  0
   36.4910   29.4340   51.2490 C   0  0  0  0  0  0  0  0  0  0  0  0
   37.6770   29.7180   51.9580 N   0  0  0  0  0  0  0  0  0  0  0  0
   35.3930   29.2080   51.7920 O   0  0  0  0  0  0  0  0  0  0  0  0
   39.5440   32.0320   42.1710 C   0  0  0  0  0  0  0  0  0  0  0  0
   39.9880   31.1650   41.1960 C   0  0  0  0  0  0  0  0  0  0  0  0
   39.5830   31.7780   40.0260 C   0  0  0  0  0  0  0  0  0  0  0  0
   38.9330   32.9520   40.2850 N   0  0  0  0  0  0  0  0  0  0  0  0
   38.9210   33.0880   41.6030 N   0  0  0  0  0  0  0  0  0  0  0  0
   38.3660   33.8740   39.3180 C   0  0  0  0  0  0  0  0  0  0  0  0
   38.2900   33.2820   37.9410 C   0  0  0  0  0  0  0  0  0  0  0  0
   37.2720   34.1380   37.2430 C   0  0  0  0  0  0  0  0  0  0  0  0
   36.4310   34.7700   38.3280 C   0  0  0  0  0  0  0  0  0  0  0  0
   36.9450   34.2020   39.6350 C   0  0  0  0  0  0  0  0  0  0  0  0
   41.2330   30.9087   46.3635 H   0  0  0  0  0  0  0  0  0  0  0  0
   41.7533   30.8639   43.7067 H   0  0  0  0  0  0  0  0  0  0  0  0
   37.0590   32.5504   50.4731 H   0  0  0  0  0  0  0  0  0  0  0  0
   38.8874   34.1067   49.6911 H   0  0  0  0  0  0  0  0  0  0  0  0
   37.6671   29.7471   52.9875 H   0  0  0  0  0  0  0  0  0  0  0  0
   38.5529   29.8963   51.4461 H   0  0  0  0  0  0  0  0  0  0  0  0
   40.5318   30.2168   41.3192 H   0  0  0  0  0  0  0  0  0  0  0  0
   39.7604   31.3742   39.0183 H   0  0  0  0  0  0  0  0  0  0  0  0
   39.0288   34.7509   39.3601 H   0  0  0  0  0  0  0  0  0  0  0  0
   39.2648   33.3395   37.4346 H   0  0  0  0  0  0  0  0  0  0  0  0
   38.0183   32.2161   37.9489 H   0  0  0  0  0  0  0  0  0  0  0  0
   37.7727   34.9159   36.6479 H   0  0  0  0  0  0  0  0  0  0  0  0
   36.6540   33.5424   36.5551 H   0  0  0  0  0  0  0  0  0  0  0  0
   36.5472   35.8638   38.3140 H   0  0  0  0  0  0  0  0  0  0  0  0
   35.3615   34.5551   38.1869 H   0  0  0  0  0  0  0  0  0  0  0  0
   36.3849   33.2999   39.9223 H   0  0  0  0  0  0  0  0  0  0  0  0
   36.8370   34.8945   40.4828 H   0  0  0  0  0  0  0  0  0  0  0  0
  1 10  1  0
  2  1  2  0
  3  2  1  0
  4  3  2  0
  4  5  1  0
  5  1  1  0
  6 12  1  0
  6  7  2  0
  8  7  1  0
  9  8  2  0
 10 11  2  0
 10  9  1  0
 11  6  1  0
 12 14  1  0
 13 12  2  0
 14 15  1  0
 15 17  2  0
 15 16  1  0
 18  4  1  0
 19 18  1  0
 20 21  1  0
 20 19  2  0
 21 22  1  0
 22 18  2  0
 23 27  1  0
 23 21  1  0
 24 23  1  0
 25 24  1  0
 25 26  1  0
 26 27  1  0
  2 28  1  0
  3 29  1  0
  7 30  1  0
  8 31  1  0
 16 32  1  0
 16 33  1  0
 19 34  1  0
 20 35  1  0
 23 36  1  0
 24 37  1  0
 24 38  1  0
 25 39  1  0
 25 40  1  0
 26 41  1  0
 26 42  1  0
 27 43  1  0
 27 44  1  0
M  ISO  8  28  14  29  14  30  14  31  14  34  14  35  14  36  13  37  13
M  ISO  7  38  13  39  13  40  13  41  13  42  13  43  13  44  13
M  END
>  <minimizedAffinity>  (1) 
-5.87566471

>  <minimizedRMSD>  (1) 
0.756704211

$$$$
