
     RDKit          3D

 34 36  0  0  0  0  0  0  0  0999 V2000
   37.1830   31.3790   48.5820 C   0  0  0  0  0  0  0  0  0  0  0  0
   37.5630   32.4290   49.4690 C   0  0  0  0  0  0  0  0  0  0  0  0
   38.5750   33.2880   49.0190 C   0  0  0  0  0  0  0  0  0  0  0  0
   39.1100   33.0520   47.7760 N   0  0  0  0  0  0  0  0  0  0  0  0
   38.7140   32.0550   46.9900 C   0  0  0  0  0  0  0  0  0  0  0  0
   37.7420   31.2080   47.3900 N   0  0  0  0  0  0  0  0  0  0  0  0
   39.3210   31.8670   45.6930 C   0  0  0  0  0  0  0  0  0  0  0  0
   40.5770   31.2890   45.5210 C   0  0  0  0  0  0  0  0  0  0  0  0
   40.8610   31.2590   44.1610 C   0  0  0  0  0  0  0  0  0  0  0  0
   39.7330   31.8330   43.5720 C   0  0  0  0  0  0  0  0  0  0  0  0
   38.8740   32.1660   44.5110 O   0  0  0  0  0  0  0  0  0  0  0  0
   39.5280   32.0380   42.1420 C   0  0  0  0  0  0  0  0  0  0  0  0
   39.9920   31.1950   41.1610 C   0  0  0  0  0  0  0  0  0  0  0  0
   39.5700   31.7740   39.9900 C   0  0  0  0  0  0  0  0  0  0  0  0
   38.8820   32.9160   40.2520 N   0  0  0  0  0  0  0  0  0  0  0  0
   38.8730   33.0480   41.5560 N   0  0  0  0  0  0  0  0  0  0  0  0
   38.2400   33.8790   39.3850 C   0  0  0  0  0  0  0  0  0  0  0  0
   36.1320   30.4880   49.0510 C   0  0  0  0  0  0  0  0  0  0  0  0
   34.9340   30.7110   48.7480 O   0  0  0  0  0  0  0  0  0  0  0  0
   36.4640   29.3810   49.8420 O   0  0  0  0  0  0  0  0  0  0  0  0
   36.5070   29.4420   51.2380 C   0  0  0  0  0  0  0  0  0  0  0  0
   37.6750   29.7320   51.9530 N   0  0  0  0  0  0  0  0  0  0  0  0
   35.4050   29.2130   51.7710 O   0  0  0  0  0  0  0  0  0  0  0  0
   37.0878   32.5577   50.4527 H   0  0  0  0  0  0  0  0  0  0  0  0
   38.9291   34.1235   49.6407 H   0  0  0  0  0  0  0  0  0  0  0  0
   41.2317   30.9197   46.3241 H   0  0  0  0  0  0  0  0  0  0  0  0
   41.7636   30.8732   43.6646 H   0  0  0  0  0  0  0  0  0  0  0  0
   40.5700   30.2674   41.2856 H   0  0  0  0  0  0  0  0  0  0  0  0
   39.7613   31.3714   38.9844 H   0  0  0  0  0  0  0  0  0  0  0  0
   37.7323   34.6405   39.9952 H   0  0  0  0  0  0  0  0  0  0  0  0
   38.9970   34.3627   38.7502 H   0  0  0  0  0  0  0  0  0  0  0  0
   37.5024   33.3663   38.7502 H   0  0  0  0  0  0  0  0  0  0  0  0
   37.6539   29.7651   52.9823 H   0  0  0  0  0  0  0  0  0  0  0  0
   38.5555   29.9123   51.4498 H   0  0  0  0  0  0  0  0  0  0  0  0
  1 18  1  0
  1  2  2  0
  3  2  1  0
  4  3  2  0
  5  6  2  0
  5  4  1  0
  6  1  1  0
  7  5  1  0
  8  7  2  0
  9  8  1  0
 10  9  2  0
 10 11  1  0
 11  7  1  0
 12 10  1  0
 13 12  1  0
 14 15  1  0
 14 13  2  0
 15 16  1  0
 16 12  2  0
 17 15  1  0
 18 20  1  0
 19 18  2  0
 20 21  1  0
 21 23  2  0
 21 22  1  0
  2 24  1  0
  3 25  1  0
  8 26  1  0
  9 27  1  0
 13 28  1  0
 14 29  1  0
 17 30  1  0
 17 31  1  0
 17 32  1  0
 22 33  1  0
 22 34  1  0
M  ISO  8  24  14  25  14  26  14  27  14  28  14  29  14  30   8  31   8
M  ISO  1  32   8
M  END
>  <minimizedAffinity>  (1) 
-5.81339693

>  <minimizedRMSD>  (1) 
0.513260365

$$$$
