
     RDKit          3D

 43 45  0  0  0  0  0  0  0  0999 V2000
   39.3980   31.7700   45.7060 C   0  0  0  0  0  0  0  0  0  0  0  0
   40.6920   31.2560   45.5800 C   0  0  0  0  0  0  0  0  0  0  0  0
   40.9840   31.1730   44.2240 C   0  0  0  0  0  0  0  0  0  0  0  0
   39.8280   31.6520   43.5900 C   0  0  0  0  0  0  0  0  0  0  0  0
   38.9380   31.9850   44.5020 O   0  0  0  0  0  0  0  0  0  0  0  0
   37.1860   31.3400   48.5600 C   0  0  0  0  0  0  0  0  0  0  0  0
   37.5450   32.4160   49.4130 C   0  0  0  0  0  0  0  0  0  0  0  0
   38.5540   33.2710   48.9730 C   0  0  0  0  0  0  0  0  0  0  0  0
   39.1310   33.0200   47.7530 N   0  0  0  0  0  0  0  0  0  0  0  0
   38.7610   31.9930   46.9820 C   0  0  0  0  0  0  0  0  0  0  0  0
   37.7740   31.1340   47.3820 N   0  0  0  0  0  0  0  0  0  0  0  0
   36.1360   30.4560   49.0250 C   0  0  0  0  0  0  0  0  0  0  0  0
   34.9360   30.6830   48.6980 O   0  0  0  0  0  0  0  0  0  0  0  0
   36.4760   29.3580   49.8350 O   0  0  0  0  0  0  0  0  0  0  0  0
   36.5060   29.4420   51.2260 C   0  0  0  0  0  0  0  0  0  0  0  0
   37.6750   29.7440   51.9460 N   0  0  0  0  0  0  0  0  0  0  0  0
   35.3880   29.2210   51.7610 O   0  0  0  0  0  0  0  0  0  0  0  0
   39.6450   31.7610   42.1460 C   0  0  0  0  0  0  0  0  0  0  0  0
   40.2900   30.9950   41.2100 C   0  0  0  0  0  0  0  0  0  0  0  0
   39.8000   31.4570   40.0070 C   0  0  0  0  0  0  0  0  0  0  0  0
   38.9030   32.4570   40.2170 N   0  0  0  0  0  0  0  0  0  0  0  0
   38.8210   32.6290   41.5260 N   0  0  0  0  0  0  0  0  0  0  0  0
   38.1360   33.2380   39.2570 C   0  0  0  0  0  0  0  0  0  0  0  0
   39.1370   33.9700   38.3880 C   0  0  0  0  0  0  0  0  0  0  0  0
   37.3290   32.3060   38.3460 C   0  0  0  0  0  0  0  0  0  0  0  0
   37.1610   34.1520   39.9180 C   0  0  0  0  0  0  0  0  0  0  0  0
   41.3592   30.9688   46.4060 H   0  0  0  0  0  0  0  0  0  0  0  0
   41.9113   30.8133   43.7543 H   0  0  0  0  0  0  0  0  0  0  0  0
   37.0472   32.5690   50.3819 H   0  0  0  0  0  0  0  0  0  0  0  0
   38.8792   34.1239   49.5868 H   0  0  0  0  0  0  0  0  0  0  0  0
   37.6477   29.7950   52.9744 H   0  0  0  0  0  0  0  0  0  0  0  0
   38.5588   29.9143   51.4452 H   0  0  0  0  0  0  0  0  0  0  0  0
   41.0276   30.1967   41.3794 H   0  0  0  0  0  0  0  0  0  0  0  0
   40.0927   31.0719   39.0191 H   0  0  0  0  0  0  0  0  0  0  0  0
   39.8598   34.4986   39.0269 H   0  0  0  0  0  0  0  0  0  0  0  0
   39.6693   33.2466   37.7529 H   0  0  0  0  0  0  0  0  0  0  0  0
   38.6090   34.6966   37.7529 H   0  0  0  0  0  0  0  0  0  0  0  0
   36.7325   31.6171   38.9622 H   0  0  0  0  0  0  0  0  0  0  0  0
   36.6587   32.9040   37.7111 H   0  0  0  0  0  0  0  0  0  0  0  0
   38.0167   31.7281   37.7111 H   0  0  0  0  0  0  0  0  0  0  0  0
   37.2567   34.0623   41.0102 H   0  0  0  0  0  0  0  0  0  0  0  0
   37.3678   35.1893   39.6158 H   0  0  0  0  0  0  0  0  0  0  0  0
   36.1392   33.8788   39.6158 H   0  0  0  0  0  0  0  0  0  0  0  0
  1 10  1  0
  2  1  2  0
  3  2  1  0
  4  3  2  0
  4  5  1  0
  5  1  1  0
  6 12  1  0
  6  7  2  0
  8  7  1  0
  9  8  2  0
 10 11  2  0
 10  9  1  0
 11  6  1  0
 12 14  1  0
 13 12  2  0
 14 15  1  0
 15 17  2  0
 15 16  1  0
 18  4  1  0
 19 18  1  0
 20 21  1  0
 20 19  2  0
 21 22  1  0
 22 18  2  0
 23 26  1  0
 23 21  1  0
 24 23  1  0
 25 23  1  0
  2 27  1  0
  3 28  1  0
  7 29  1  0
  8 30  1  0
 16 31  1  0
 16 32  1  0
 19 33  1  0
 20 34  1  0
 24 35  1  0
 24 36  1  0
 24 37  1  0
 25 38  1  0
 25 39  1  0
 25 40  1  0
 26 41  1  0
 26 42  1  0
 26 43  1  0
M  ISO  8  27  14  28  14  29  14  30  14  33  14  34  14  35   8  36   8
M  ISO  7  37   8  38   8  39   8  40   8  41   8  42   8  43   8
M  END
>  <minimizedAffinity>  (1) 
-5.71737051

>  <minimizedRMSD>  (1) 
0.966009259

$$$$
