
     RDKit          3D

 28 29  0  0  0  0  0  0  0  0999 V2000
   37.4790   30.5620   50.8780 C   0  0  0  0  0  0  0  0  0  0  0  0
   38.3270   31.2870   50.0170 C   0  0  0  0  0  0  0  0  0  0  0  0
   37.9600   31.3960   48.6610 C   0  0  0  0  0  0  0  0  0  0  0  0
   36.8010   30.7870   48.2830 N   0  0  0  0  0  0  0  0  0  0  0  0
   36.0180   30.1040   49.1330 C   0  0  0  0  0  0  0  0  0  0  0  0
   36.3520   29.9920   50.4160 N   0  0  0  0  0  0  0  0  0  0  0  0
   34.8260   29.5100   48.6070 N   0  0  0  0  0  0  0  0  0  0  0  0
   34.5170   29.6670   47.2010 C   0  0  0  0  0  0  0  0  0  0  0  0
   33.9070   28.4550   46.5720 C   0  0  0  0  0  0  0  0  0  0  0  0
   33.7070   27.3190   47.5560 C   0  0  0  0  0  0  0  0  0  0  0  0
   32.9910   27.8940   48.7640 C   0  0  0  0  0  0  0  0  0  0  0  0
   33.9600   28.7630   49.5150 C   0  0  0  0  0  0  0  0  0  0  0  0
   38.7790   32.1390   47.6560 C   0  0  0  0  0  0  0  0  0  0  0  0
   38.0090   32.6210   46.6120 F   0  0  0  0  0  0  0  0  0  0  0  0
   39.3730   33.2470   48.2490 F   0  0  0  0  0  0  0  0  0  0  0  0
   39.7170   31.2950   47.1140 F   0  0  0  0  0  0  0  0  0  0  0  0
   37.7422   30.4611   51.9413 H   0  0  0  0  0  0  0  0  0  0  0  0
   39.2491   31.7545   50.3928 H   0  0  0  0  0  0  0  0  0  0  0  0
   33.8117   30.5043   47.0935 H   0  0  0  0  0  0  0  0  0  0  0  0
   35.4712   29.8470   46.6842 H   0  0  0  0  0  0  0  0  0  0  0  0
   32.9289   28.7319   46.1516 H   0  0  0  0  0  0  0  0  0  0  0  0
   34.6003   28.1012   45.7947 H   0  0  0  0  0  0  0  0  0  0  0  0
   33.0970   26.5265   47.0980 H   0  0  0  0  0  0  0  0  0  0  0  0
   34.6724   26.8790   47.8466 H   0  0  0  0  0  0  0  0  0  0  0  0
   32.1299   28.4944   48.4354 H   0  0  0  0  0  0  0  0  0  0  0  0
   32.6275   27.0827   49.4118 H   0  0  0  0  0  0  0  0  0  0  0  0
   34.5834   28.1273   50.1609 H   0  0  0  0  0  0  0  0  0  0  0  0
   33.3838   29.4844   50.1130 H   0  0  0  0  0  0  0  0  0  0  0  0
  2  1  2  0
  3  2  1  0
  4  3  2  0
  4  5  1  0
  5  6  2  0
  6  1  1  0
  7  5  1  0
  7 12  1  0
  8  7  1  0
  9  8  1  0
  9 10  1  0
 10 11  1  0
 11 12  1  0
 13 15  1  0
 13  3  1  0
 14 13  1  0
 16 13  1  0
  1 17  1  0
  2 18  1  0
  8 19  1  0
  8 20  1  0
  9 21  1  0
  9 22  1  0
 10 23  1  0
 10 24  1  0
 11 25  1  0
 11 26  1  0
 12 27  1  0
 12 28  1  0
M  ISO  8  17  14  18  14  19  13  20  13  21  13  22  13  23  13  24  13
M  ISO  4  25  13  26  13  27  13  28  13
M  END
>  <minimizedAffinity>  (1) 
-5.66627884

>  <minimizedRMSD>  (1) 
1.20335782

$$$$
