
     RDKit          3D

 22 23  0  0  0  0  0  0  0  0999 V2000
   37.3630   29.4920   51.0710 C   0  0  0  0  0  0  0  0  0  0  0  0
   37.9200   30.7610   50.8200 C   0  0  0  0  0  0  0  0  0  0  0  0
   37.4780   31.4580   49.6870 C   0  0  0  0  0  0  0  0  0  0  0  0
   36.5360   30.8720   48.8920 N   0  0  0  0  0  0  0  0  0  0  0  0
   36.0270   29.6550   49.1680 C   0  0  0  0  0  0  0  0  0  0  0  0
   36.4400   28.9710   50.2510 N   0  0  0  0  0  0  0  0  0  0  0  0
   35.0150   29.0570   48.2890 C   0  0  0  0  0  0  0  0  0  0  0  0
   34.3520   27.9200   48.7030 C   0  0  0  0  0  0  0  0  0  0  0  0
   33.3890   27.3010   47.9340 C   0  0  0  0  0  0  0  0  0  0  0  0
   33.1110   27.8770   46.7070 C   0  0  0  0  0  0  0  0  0  0  0  0
   33.7960   29.0160   46.3240 C   0  0  0  0  0  0  0  0  0  0  0  0
   34.7360   29.6010   47.1010 N   0  0  0  0  0  0  0  0  0  0  0  0
   38.0050   32.8030   49.3350 C   0  0  0  0  0  0  0  0  0  0  0  0
   38.1940   32.9640   47.9740 F   0  0  0  0  0  0  0  0  0  0  0  0
   37.1220   33.8070   49.7180 F   0  0  0  0  0  0  0  0  0  0  0  0
   39.2520   32.9820   49.9310 F   0  0  0  0  0  0  0  0  0  0  0  0
   37.6901   28.9207   51.9523 H   0  0  0  0  0  0  0  0  0  0  0  0
   38.6776   31.1913   51.4915 H   0  0  0  0  0  0  0  0  0  0  0  0
   34.6012   27.4906   49.6846 H   0  0  0  0  0  0  0  0  0  0  0  0
   32.8683   26.3954   48.2786 H   0  0  0  0  0  0  0  0  0  0  0  0
   32.3537   27.4340   46.0435 H   0  0  0  0  0  0  0  0  0  0  0  0
   33.5666   29.4650   45.3463 H   0  0  0  0  0  0  0  0  0  0  0  0
  2  1  2  0
  3  2  1  0
  4  5  1  0
  4  3  2  0
  5  6  2  0
  6  1  1  0
  7  8  2  0
  7  5  1  0
  9  8  1  0
 10  9  2  0
 11 10  1  0
 11 12  2  0
 12  7  1  0
 13  3  1  0
 13 15  1  0
 13 16  1  0
 14 13  1  0
  1 17  1  0
  2 18  1  0
  8 19  1  0
  9 20  1  0
 10 21  1  0
 11 22  1  0
M  ISO  6  17  14  18  14  19  14  20  14  21  14  22  14
M  END
>  <minimizedAffinity>  (1) 
-5.43815899

>  <minimizedRMSD>  (1) 
1.83649004

$$$$
