
     RDKit          3D

 21 22  0  0  0  0  0  0  0  0999 V2000
   36.9760   29.4770   51.1830 C   0  0  0  0  0  0  0  0  0  0  0  0
   37.6820   30.6810   50.8920 C   0  0  0  0  0  0  0  0  0  0  0  0
   37.2510   31.4230   49.7820 C   0  0  0  0  0  0  0  0  0  0  0  0
   36.2000   30.9650   49.0530 N   0  0  0  0  0  0  0  0  0  0  0  0
   35.5630   29.8190   49.3670 C   0  0  0  0  0  0  0  0  0  0  0  0
   35.9400   29.0860   50.4120 N   0  0  0  0  0  0  0  0  0  0  0  0
   34.4450   29.4490   48.4890 C   0  0  0  0  0  0  0  0  0  0  0  0
   33.6580   28.3450   48.7300 C   0  0  0  0  0  0  0  0  0  0  0  0
   32.6230   28.0670   47.8520 C   0  0  0  0  0  0  0  0  0  0  0  0
   32.3900   28.8500   46.7910 N   0  0  0  0  0  0  0  0  0  0  0  0
   33.1640   29.9450   46.5450 C   0  0  0  0  0  0  0  0  0  0  0  0
   34.1710   30.1910   47.4250 N   0  0  0  0  0  0  0  0  0  0  0  0
   37.9230   32.7060   49.3860 C   0  0  0  0  0  0  0  0  0  0  0  0
   38.0640   32.8060   48.0010 F   0  0  0  0  0  0  0  0  0  0  0  0
   37.1300   33.8020   49.7420 F   0  0  0  0  0  0  0  0  0  0  0  0
   39.1770   32.7590   49.9360 F   0  0  0  0  0  0  0  0  0  0  0  0
   37.2784   28.8617   52.0432 H   0  0  0  0  0  0  0  0  0  0  0  0
   38.5281   31.0138   51.5111 H   0  0  0  0  0  0  0  0  0  0  0  0
   33.8468   27.6986   49.5998 H   0  0  0  0  0  0  0  0  0  0  0  0
   31.9831   27.1900   48.0291 H   0  0  0  0  0  0  0  0  0  0  0  0
   32.9829   30.5970   45.6778 H   0  0  0  0  0  0  0  0  0  0  0  0
  2  1  2  0
  3  2  1  0
  4  5  1  0
  4  3  2  0
  5  6  2  0
  6  1  1  0
  7  8  2  0
  7  5  1  0
  9  8  1  0
 10  9  2  0
 11 10  1  0
 11 12  2  0
 12  7  1  0
 13 15  1  0
 13  3  1  0
 13 16  1  0
 14 13  1  0
  1 17  1  0
  2 18  1  0
  8 19  1  0
  9 20  1  0
 11 21  1  0
M  ISO  5  17  14  18  14  19  14  20  14  21  14
M  END
>  <minimizedAffinity>  (1) 
-5.32849169

>  <minimizedRMSD>  (1) 
2.1487658

$$$$
