
     RDKit          3D

 20 21  0  0  0  0  0  0  0  0999 V2000
   37.4510   30.4790   50.8540 C   0  0  0  0  0  0  0  0  0  0  0  0
   38.2950   31.2500   50.0140 C   0  0  0  0  0  0  0  0  0  0  0  0
   37.9440   31.3110   48.6440 C   0  0  0  0  0  0  0  0  0  0  0  0
   36.8360   30.6390   48.2280 N   0  0  0  0  0  0  0  0  0  0  0  0
   36.0730   29.9220   49.0750 C   0  0  0  0  0  0  0  0  0  0  0  0
   36.3780   29.8450   50.3690 N   0  0  0  0  0  0  0  0  0  0  0  0
   34.9270   29.2410   48.5770 N   0  0  0  0  0  0  0  0  0  0  0  0
   34.0740   29.5530   47.6170 N   0  0  0  0  0  0  0  0  0  0  0  0
   33.1260   28.6040   47.4830 C   0  0  0  0  0  0  0  0  0  0  0  0
   33.3790   27.6040   48.4200 C   0  0  0  0  0  0  0  0  0  0  0  0
   34.5070   28.0580   49.0650 C   0  0  0  0  0  0  0  0  0  0  0  0
   38.7570   32.0920   47.6640 C   0  0  0  0  0  0  0  0  0  0  0  0
   37.9860   32.5960   46.6260 F   0  0  0  0  0  0  0  0  0  0  0  0
   39.3390   33.2040   48.2710 F   0  0  0  0  0  0  0  0  0  0  0  0
   39.7100   31.2720   47.1070 F   0  0  0  0  0  0  0  0  0  0  0  0
   37.6839   30.4010   51.9262 H   0  0  0  0  0  0  0  0  0  0  0  0
   39.1782   31.7743   50.4076 H   0  0  0  0  0  0  0  0  0  0  0  0
   32.2971   28.6168   46.7600 H   0  0  0  0  0  0  0  0  0  0  0  0
   32.8145   26.6772   48.6003 H   0  0  0  0  0  0  0  0  0  0  0  0
   35.0067   27.5181   49.8828 H   0  0  0  0  0  0  0  0  0  0  0  0
  2  1  2  0
  3  2  1  0
  4  3  2  0
  4  5  1  0
  5  6  2  0
  6  1  1  0
  7 11  1  0
  7  5  1  0
  8  7  1  0
  9  8  2  0
  9 10  1  0
 10 11  2  0
 12 14  1  0
 12  3  1  0
 13 12  1  0
 15 12  1  0
  1 16  1  0
  2 17  1  0
  9 18  1  0
 10 19  1  0
 11 20  1  0
M  ISO  5  16  14  17  14  18  14  19  14  20  14
M  END
>  <minimizedAffinity>  (1) 
-5.31727934

>  <minimizedRMSD>  (1) 
0.930349231

$$$$
