
     RDKit          3D

 19 20  0  0  0  0  0  0  0  0999 V2000
   38.1760   33.1580   49.5260 C   0  0  0  0  0  0  0  0  0  0  0  0
   39.0430   33.1560   48.4060 C   0  0  0  0  0  0  0  0  0  0  0  0
   38.7970   32.2120   47.3850 C   0  0  0  0  0  0  0  0  0  0  0  0
   37.7510   31.3720   47.5370 N   0  0  0  0  0  0  0  0  0  0  0  0
   36.9480   31.4080   48.6200 C   0  0  0  0  0  0  0  0  0  0  0  0
   37.1620   32.2910   49.5980 N   0  0  0  0  0  0  0  0  0  0  0  0
   35.9010   30.4440   48.5990 N   0  0  0  0  0  0  0  0  0  0  0  0
   34.6500   30.2700   48.1370 C   0  0  0  0  0  0  0  0  0  0  0  0
   34.2220   29.0370   48.5040 N   0  0  0  0  0  0  0  0  0  0  0  0
   35.2290   28.4400   49.2050 C   0  0  0  0  0  0  0  0  0  0  0  0
   36.2530   29.3290   49.2480 N   0  0  0  0  0  0  0  0  0  0  0  0
   39.6640   32.1460   46.1760 C   0  0  0  0  0  0  0  0  0  0  0  0
   38.9220   32.1520   45.0020 F   0  0  0  0  0  0  0  0  0  0  0  0
   40.5190   33.2370   46.0930 F   0  0  0  0  0  0  0  0  0  0  0  0
   40.3610   30.9410   46.1850 F   0  0  0  0  0  0  0  0  0  0  0  0
   38.3385   33.8779   50.3417 H   0  0  0  0  0  0  0  0  0  0  0  0
   39.8800   33.8661   48.3339 H   0  0  0  0  0  0  0  0  0  0  0  0
   34.0711   31.0049   47.5584 H   0  0  0  0  0  0  0  0  0  0  0  0
   35.2136   27.4337   49.6489 H   0  0  0  0  0  0  0  0  0  0  0  0
  1  6  2  0
  2  1  1  0
  3  4  1  0
  3  2  2  0
  4  5  2  0
  5  6  1  0
  7  5  1  0
  7 11  1  0
  8  9  2  0
  8  7  1  0
  9 10  1  0
 10 11  2  0
 12 15  1  0
 12  3  1  0
 13 12  1  0
 14 12  1  0
  1 16  1  0
  2 17  1  0
  8 18  1  0
 10 19  1  0
M  ISO  4  16  14  17  14  18  14  19  14
M  END
>  <minimizedAffinity>  (1) 
-5.27304363

>  <minimizedRMSD>  (1) 
2.40819097

$$$$
