
     RDKit          3D

 20 21  0  0  0  0  0  0  0  0999 V2000
   37.5090   30.5160   50.9170 C   0  0  0  0  0  0  0  0  0  0  0  0
   38.3260   31.2570   50.0410 C   0  0  0  0  0  0  0  0  0  0  0  0
   37.9460   31.3490   48.6940 C   0  0  0  0  0  0  0  0  0  0  0  0
   36.8110   30.7110   48.3300 N   0  0  0  0  0  0  0  0  0  0  0  0
   36.0420   30.0060   49.1870 C   0  0  0  0  0  0  0  0  0  0  0  0
   36.3860   29.9070   50.4700 N   0  0  0  0  0  0  0  0  0  0  0  0
   34.8910   29.4130   48.5990 N   0  0  0  0  0  0  0  0  0  0  0  0
   34.4450   28.3110   49.2680 C   0  0  0  0  0  0  0  0  0  0  0  0
   33.3280   27.8150   48.6160 C   0  0  0  0  0  0  0  0  0  0  0  0
   33.1250   28.6420   47.5540 N   0  0  0  0  0  0  0  0  0  0  0  0
   34.0800   29.6100   47.5520 C   0  0  0  0  0  0  0  0  0  0  0  0
   38.7400   32.1080   47.6850 C   0  0  0  0  0  0  0  0  0  0  0  0
   37.9420   32.5810   46.6540 F   0  0  0  0  0  0  0  0  0  0  0  0
   39.3210   33.2320   48.2690 F   0  0  0  0  0  0  0  0  0  0  0  0
   39.6840   31.2700   47.1240 F   0  0  0  0  0  0  0  0  0  0  0  0
   37.7872   30.4312   51.9779 H   0  0  0  0  0  0  0  0  0  0  0  0
   39.2392   31.7512   50.4042 H   0  0  0  0  0  0  0  0  0  0  0  0
   34.8979   27.8861   50.1759 H   0  0  0  0  0  0  0  0  0  0  0  0
   32.7297   26.9360   48.8977 H   0  0  0  0  0  0  0  0  0  0  0  0
   34.1711   30.4200   46.8133 H   0  0  0  0  0  0  0  0  0  0  0  0
  2  1  2  0
  3  2  1  0
  4  3  2  0
  4  5  1  0
  5  6  2  0
  6  1  1  0
  7  5  1  0
  7  8  1  0
  9  8  2  0
 10  9  1  0
 11 10  2  0
 11  7  1  0
 12 14  1  0
 12  3  1  0
 13 12  1  0
 15 12  1  0
  1 16  1  0
  2 17  1  0
  8 18  1  0
  9 19  1  0
 11 20  1  0
M  ISO  5  16  14  17  14  18  14  19  14  20  14
M  END
>  <minimizedAffinity>  (1) 
-5.24331141

>  <minimizedRMSD>  (1) 
1.00602257

$$$$
