
     RDKit          3D

 16 16  0  0  0  0  0  0  0  0999 V2000
   37.5250   30.2750   51.3340 C   0  0  0  0  0  0  0  0  0  0  0  0
   38.2460   30.9120   50.3060 C   0  0  0  0  0  0  0  0  0  0  0  0
   37.6730   30.9230   49.0220 C   0  0  0  0  0  0  0  0  0  0  0  0
   36.4670   30.3270   48.8430 N   0  0  0  0  0  0  0  0  0  0  0  0
   35.8020   29.7250   49.8550 C   0  0  0  0  0  0  0  0  0  0  0  0
   36.3250   29.6980   51.0880 N   0  0  0  0  0  0  0  0  0  0  0  0
   38.3650   31.5750   47.8610 C   0  0  0  0  0  0  0  0  0  0  0  0
   37.4880   32.2100   47.0120 F   0  0  0  0  0  0  0  0  0  0  0  0
   39.2670   32.5290   48.2850 F   0  0  0  0  0  0  0  0  0  0  0  0
   38.9820   30.5830   47.1020 F   0  0  0  0  0  0  0  0  0  0  0  0
   34.4810   29.0960   49.5550 C   0  0  0  0  0  0  0  0  0  0  0  0
   34.6120   27.7190   49.4780 F   0  0  0  0  0  0  0  0  0  0  0  0
   33.5470   29.4470   50.5330 F   0  0  0  0  0  0  0  0  0  0  0  0
   34.0070   29.6010   48.3420 F   0  0  0  0  0  0  0  0  0  0  0  0
   37.9424   30.2457   52.3513 H   0  0  0  0  0  0  0  0  0  0  0  0
   39.2208   31.3833   50.5000 H   0  0  0  0  0  0  0  0  0  0  0  0
  2  1  2  0
  3  2  1  0
  4  3  2  0
  4  5  1  0
  5  6  2  0
  6  1  1  0
  7  9  1  0
  7  3  1  0
  8  7  1  0
 10  7  1  0
 11  5  1  0
 11 13  1  0
 12 11  1  0
 14 11  1  0
  1 15  1  0
  2 16  1  0
M  ISO  2  15  14  16  14
M  END
>  <minimizedAffinity>  (1) 
-5.0594182

>  <minimizedRMSD>  (1) 
1.03220534

$$$$
