
     RDKit          3D

 25 25  0  0  0  0  0  0  0  0999 V2000
   37.6110   30.3290   51.2100 C   0  0  0  0  0  0  0  0  0  0  0  0
   38.3920   31.0840   50.3070 C   0  0  0  0  0  0  0  0  0  0  0  0
   37.8830   31.2740   49.0060 C   0  0  0  0  0  0  0  0  0  0  0  0
   36.6760   30.7210   48.7000 N   0  0  0  0  0  0  0  0  0  0  0  0
   35.9690   30.0090   49.5990 C   0  0  0  0  0  0  0  0  0  0  0  0
   36.4250   29.8120   50.8370 N   0  0  0  0  0  0  0  0  0  0  0  0
   38.6160   32.0500   47.9700 C   0  0  0  0  0  0  0  0  0  0  0  0
   37.7910   32.5710   47.0000 F   0  0  0  0  0  0  0  0  0  0  0  0
   39.2670   33.1430   48.5370 F   0  0  0  0  0  0  0  0  0  0  0  0
   39.5130   31.2080   47.3200 F   0  0  0  0  0  0  0  0  0  0  0  0
   34.6590   29.4390   49.1860 C   0  0  0  0  0  0  0  0  0  0  0  0
   34.7390   27.9400   48.9870 C   0  0  0  0  0  0  0  0  0  0  0  0
   34.1620   30.1160   47.9110 C   0  0  0  0  0  0  0  0  0  0  0  0
   33.6330   29.6640   50.2870 C   0  0  0  0  0  0  0  0  0  0  0  0
   37.9773   30.1609   52.2335 H   0  0  0  0  0  0  0  0  0  0  0  0
   39.3614   31.5080   50.6077 H   0  0  0  0  0  0  0  0  0  0  0  0
   34.7656   27.4409   49.9669 H   0  0  0  0  0  0  0  0  0  0  0  0
   33.8579   27.5972   48.4248 H   0  0  0  0  0  0  0  0  0  0  0  0
   35.6516   27.6929   48.4248 H   0  0  0  0  0  0  0  0  0  0  0  0
   33.5301   30.9767   48.1753 H   0  0  0  0  0  0  0  0  0  0  0  0
   35.0229   30.4610   47.3195 H   0  0  0  0  0  0  0  0  0  0  0  0
   33.5749   29.3980   47.3195 H   0  0  0  0  0  0  0  0  0  0  0  0
   34.1187   29.5575   51.2682 H   0  0  0  0  0  0  0  0  0  0  0  0
   33.2117   30.6759   50.1944 H   0  0  0  0  0  0  0  0  0  0  0  0
   32.8269   28.9213   50.1944 H   0  0  0  0  0  0  0  0  0  0  0  0
  2  1  2  0
  3  2  1  0
  4  3  2  0
  4  5  1  0
  5  6  2  0
  6  1  1  0
  7  9  1  0
  7  3  1  0
  8  7  1  0
 10  7  1  0
 11  5  1  0
 11 14  1  0
 12 11  1  0
 13 11  1  0
  1 15  1  0
  2 16  1  0
 12 17  1  0
 12 18  1  0
 12 19  1  0
 13 20  1  0
 13 21  1  0
 13 22  1  0
 14 23  1  0
 14 24  1  0
 14 25  1  0
M  ISO  8  15  14  16  14  17   8  18   8  19   8  20   8  21   8  22   8
M  ISO  3  23   8  24   8  25   8
M  END
>  <minimizedAffinity>  (1) 
-4.9714427

>  <minimizedRMSD>  (1) 
0.999248624

$$$$
