
     RDKit          3D

 19 20  0  0  0  0  0  0  0  0999 V2000
   37.4710   30.5060   50.9100 C   0  0  0  0  0  0  0  0  0  0  0  0
   38.3090   31.2490   50.0500 C   0  0  0  0  0  0  0  0  0  0  0  0
   37.9270   31.3540   48.6920 C   0  0  0  0  0  0  0  0  0  0  0  0
   36.7900   30.7400   48.3020 N   0  0  0  0  0  0  0  0  0  0  0  0
   36.0180   30.0370   49.1650 C   0  0  0  0  0  0  0  0  0  0  0  0
   36.3510   29.9190   50.4520 N   0  0  0  0  0  0  0  0  0  0  0  0
   34.8240   29.4540   48.5100 C   0  0  0  0  0  0  0  0  0  0  0  0
   34.3840   29.7670   47.2420 C   0  0  0  0  0  0  0  0  0  0  0  0
   32.8950   28.7130   47.0610 S   0  0  0  0  0  0  0  0  0  0  0  0
   33.1540   28.0080   48.8220 C   0  0  0  0  0  0  0  0  0  0  0  0
   34.2120   28.5800   49.2950 N   0  0  0  0  0  0  0  0  0  0  0  0
   38.7440   32.1160   47.7090 C   0  0  0  0  0  0  0  0  0  0  0  0
   37.9720   32.6060   46.6590 F   0  0  0  0  0  0  0  0  0  0  0  0
   39.3170   33.2410   48.2920 F   0  0  0  0  0  0  0  0  0  0  0  0
   39.6820   31.2770   47.1440 F   0  0  0  0  0  0  0  0  0  0  0  0
   37.7387   30.4056   51.9722 H   0  0  0  0  0  0  0  0  0  0  0  0
   39.2259   31.7289   50.4227 H   0  0  0  0  0  0  0  0  0  0  0  0
   34.8180   30.4732   46.5189 H   0  0  0  0  0  0  0  0  0  0  0  0
   32.5257   27.2624   49.3313 H   0  0  0  0  0  0  0  0  0  0  0  0
  2  1  2  0
  3  2  1  0
  4  3  2  0
  4  5  1  0
  5  6  2  0
  6  1  1  0
  7  5  1  0
  7 11  1  0
  8  7  2  0
  9  8  1  0
  9 10  1  0
 10 11  2  0
 12 14  1  0
 12  3  1  0
 13 12  1  0
 15 12  1  0
  1 16  1  0
  2 17  1  0
  8 18  1  0
 10 19  1  0
M  ISO  4  16  14  17  14  18  14  19  14
M  END
>  <minimizedAffinity>  (1) 
-4.94857407

>  <minimizedRMSD>  (1) 
1.03118336

$$$$
