
     RDKit          3D

 18 19  0  0  0  0  0  0  0  0999 V2000
   37.5050   30.4820   50.9490 C   0  0  0  0  0  0  0  0  0  0  0  0
   38.3090   31.2070   50.0380 C   0  0  0  0  0  0  0  0  0  0  0  0
   37.8860   31.2540   48.6950 C   0  0  0  0  0  0  0  0  0  0  0  0
   36.7440   30.6070   48.3520 N   0  0  0  0  0  0  0  0  0  0  0  0
   36.0070   29.9230   49.2680 C   0  0  0  0  0  0  0  0  0  0  0  0
   36.3850   29.8640   50.5430 N   0  0  0  0  0  0  0  0  0  0  0  0
   34.8120   29.2920   48.7180 C   0  0  0  0  0  0  0  0  0  0  0  0
   33.9970   29.5350   47.6720 N   0  0  0  0  0  0  0  0  0  0  0  0
   33.0540   28.6520   47.6200 O   0  0  0  0  0  0  0  0  0  0  0  0
   33.2010   27.8050   48.6070 C   0  0  0  0  0  0  0  0  0  0  0  0
   34.2930   28.1800   49.3110 N   0  0  0  0  0  0  0  0  0  0  0  0
   38.6620   31.9940   47.6450 C   0  0  0  0  0  0  0  0  0  0  0  0
   37.8410   32.4790   46.6460 F   0  0  0  0  0  0  0  0  0  0  0  0
   39.2990   33.1040   48.2000 F   0  0  0  0  0  0  0  0  0  0  0  0
   39.5710   31.1420   47.0640 F   0  0  0  0  0  0  0  0  0  0  0  0
   37.8025   30.4240   52.0064 H   0  0  0  0  0  0  0  0  0  0  0  0
   39.2285   31.7142   50.3656 H   0  0  0  0  0  0  0  0  0  0  0  0
   32.5529   26.9432   48.8247 H   0  0  0  0  0  0  0  0  0  0  0  0
  2  1  2  0
  3  2  1  0
  4  3  2  0
  4  5  1  0
  5  6  2  0
  6  1  1  0
  7  5  1  0
  7 11  1  0
  8  7  2  0
  9  8  1  0
  9 10  1  0
 10 11  2  0
 12 14  1  0
 12  3  1  0
 13 12  1  0
 15 12  1  0
  1 16  1  0
  2 17  1  0
 10 18  1  0
M  ISO  3  16  14  17  14  18  14
M  END
>  <minimizedAffinity>  (1) 
-4.94508648

>  <minimizedRMSD>  (1) 
1.08973849

$$$$
