
     RDKit          3D

 20 21  0  0  0  0  0  0  0  0999 V2000
   37.5010   30.2740   51.1530 C   0  0  0  0  0  0  0  0  0  0  0  0
   38.2490   31.1260   50.2860 C   0  0  0  0  0  0  0  0  0  0  0  0
   37.9290   31.0580   48.9070 C   0  0  0  0  0  0  0  0  0  0  0  0
   36.9590   30.2100   48.5020 N   0  0  0  0  0  0  0  0  0  0  0  0
   36.2810   29.4250   49.3650 C   0  0  0  0  0  0  0  0  0  0  0  0
   36.5420   29.4510   50.6690 N   0  0  0  0  0  0  0  0  0  0  0  0
   38.6590   31.9130   47.9170 C   0  0  0  0  0  0  0  0  0  0  0  0
   37.7780   32.4790   46.9910 F   0  0  0  0  0  0  0  0  0  0  0  0
   39.2700   32.9880   48.5320 F   0  0  0  0  0  0  0  0  0  0  0  0
   39.5430   31.1330   47.2140 F   0  0  0  0  0  0  0  0  0  0  0  0
   35.2400   28.5360   48.8180 C   0  0  0  0  0  0  0  0  0  0  0  0
   34.0740   29.3210   48.2010 C   0  0  0  0  0  0  0  0  0  0  0  0
   33.8870   28.4260   49.3650 C   0  0  0  0  0  0  0  0  0  0  0  0
   37.7076   30.2866   52.2333 H   0  0  0  0  0  0  0  0  0  0  0  0
   39.0313   31.7988   50.6673 H   0  0  0  0  0  0  0  0  0  0  0  0
   35.9729   27.7571   48.5610 H   0  0  0  0  0  0  0  0  0  0  0  0
   34.0125   30.4124   48.3241 H   0  0  0  0  0  0  0  0  0  0  0  0
   33.6293   29.4164   47.1994 H   0  0  0  0  0  0  0  0  0  0  0  0
   33.3275   27.4869   49.2422 H   0  0  0  0  0  0  0  0  0  0  0  0
   33.4590   28.5633   50.3690 H   0  0  0  0  0  0  0  0  0  0  0  0
  2  1  2  0
  3  2  1  0
  4  3  2  0
  4  5  1  0
  5  6  2  0
  6  1  1  0
  7  9  1  0
  7  3  1  0
  8  7  1  0
 10  7  1  0
 11  5  1  0
 11 13  1  0
 12 11  1  0
 12 13  1  0
  1 14  1  0
  2 15  1  0
 11 16  1  0
 12 17  1  0
 12 18  1  0
 13 19  1  0
 13 20  1  0
M  ISO  7  14  14  15  14  16  13  17  13  18  13  19  13  20  13
M  END
>  <minimizedAffinity>  (1) 
-4.88468885

>  <minimizedRMSD>  (1) 
0.778315961

$$$$
