
     RDKit          3D

 19 19  0  0  0  0  0  0  0  0999 V2000
   37.4420   30.2380   51.3750 C   0  0  0  0  0  0  0  0  0  0  0  0
   38.1050   30.9080   50.3290 C   0  0  0  0  0  0  0  0  0  0  0  0
   37.6610   30.6950   49.0130 C   0  0  0  0  0  0  0  0  0  0  0  0
   36.6050   29.8470   48.8250 N   0  0  0  0  0  0  0  0  0  0  0  0
   35.9960   29.2250   49.8530 C   0  0  0  0  0  0  0  0  0  0  0  0
   36.4070   29.4150   51.1110 N   0  0  0  0  0  0  0  0  0  0  0  0
   38.3010   31.3610   47.8420 C   0  0  0  0  0  0  0  0  0  0  0  0
   37.3890   32.0530   47.0720 F   0  0  0  0  0  0  0  0  0  0  0  0
   39.2450   32.2790   48.2450 F   0  0  0  0  0  0  0  0  0  0  0  0
   38.8640   30.3860   47.0230 F   0  0  0  0  0  0  0  0  0  0  0  0
   34.8510   28.3260   49.4660 C   0  0  0  0  0  0  0  0  0  0  0  0
   34.4320   28.5470   48.0520 C   0  0  0  0  0  0  0  0  0  0  0  0
   37.7705   30.3869   52.4142 H   0  0  0  0  0  0  0  0  0  0  0  0
   38.9496   31.5814   50.5369 H   0  0  0  0  0  0  0  0  0  0  0  0
   35.1638   27.2782   49.5859 H   0  0  0  0  0  0  0  0  0  0  0  0
   33.9961   28.5583   50.1181 H   0  0  0  0  0  0  0  0  0  0  0  0
   33.4592   29.0601   48.0338 H   0  0  0  0  0  0  0  0  0  0  0  0
   35.1829   29.1664   47.5396 H   0  0  0  0  0  0  0  0  0  0  0  0
   34.3449   27.5775   47.5396 H   0  0  0  0  0  0  0  0  0  0  0  0
  2  1  2  0
  3  2  1  0
  4  3  2  0
  4  5  1  0
  5  6  2  0
  6  1  1  0
  7  9  1  0
  7  3  1  0
  8  7  1  0
 10  7  1  0
 11  5  1  0
 12 11  1  0
  1 13  1  0
  2 14  1  0
 11 15  1  0
 11 16  1  0
 12 17  1  0
 12 18  1  0
 12 19  1  0
M  ISO  7  13  14  14  14  15   8  16   8  17   8  18   8  19   8
M  END
>  <minimizedAffinity>  (1) 
-4.62183142

>  <minimizedRMSD>  (1) 
0.65847075

$$$$
