
     RDKit          3D

 16 16  0  0  0  0  0  0  0  0999 V2000
   37.4510   30.2380   51.2790 C   0  0  0  0  0  0  0  0  0  0  0  0
   38.1450   30.9530   50.2710 C   0  0  0  0  0  0  0  0  0  0  0  0
   37.7290   30.7740   48.9390 C   0  0  0  0  0  0  0  0  0  0  0  0
   36.6930   29.9320   48.6990 N   0  0  0  0  0  0  0  0  0  0  0  0
   36.0530   29.2650   49.6830 C   0  0  0  0  0  0  0  0  0  0  0  0
   36.4310   29.4190   50.9580 N   0  0  0  0  0  0  0  0  0  0  0  0
   38.3940   31.4830   47.8020 C   0  0  0  0  0  0  0  0  0  0  0  0
   37.4900   32.1600   46.9960 F   0  0  0  0  0  0  0  0  0  0  0  0
   39.2650   32.4520   48.2570 F   0  0  0  0  0  0  0  0  0  0  0  0
   39.0360   30.5550   46.9880 F   0  0  0  0  0  0  0  0  0  0  0  0
   34.9160   28.3490   49.3600 C   0  0  0  0  0  0  0  0  0  0  0  0
   37.7478   30.3529   52.3320 H   0  0  0  0  0  0  0  0  0  0  0  0
   38.9796   31.6243   50.5214 H   0  0  0  0  0  0  0  0  0  0  0  0
   34.4628   27.9839   50.2934 H   0  0  0  0  0  0  0  0  0  0  0  0
   34.1610   28.8941   48.7745 H   0  0  0  0  0  0  0  0  0  0  0  0
   35.2879   27.4953   48.7745 H   0  0  0  0  0  0  0  0  0  0  0  0
  2  1  2  0
  3  2  1  0
  4  3  2  0
  4  5  1  0
  5  6  2  0
  6  1  1  0
  7  9  1  0
  7  3  1  0
  8  7  1  0
 10  7  1  0
 11  5  1  0
  1 12  1  0
  2 13  1  0
 11 14  1  0
 11 15  1  0
 11 16  1  0
M  ISO  5  12  14  13  14  14   8  15   8  16   8
M  END
>  <minimizedAffinity>  (1) 
-4.52909136

>  <minimizedRMSD>  (1) 
0.508649707

$$$$
