
     RDKit          3D

 15 15  0  0  0  0  0  0  0  0999 V2000
   37.3520   30.1950   51.3170 C   0  0  0  0  0  0  0  0  0  0  0  0
   38.0590   30.9000   50.3080 C   0  0  0  0  0  0  0  0  0  0  0  0
   37.6450   30.7070   48.9710 C   0  0  0  0  0  0  0  0  0  0  0  0
   36.6000   29.8630   48.7260 N   0  0  0  0  0  0  0  0  0  0  0  0
   35.9710   29.2250   49.7370 C   0  0  0  0  0  0  0  0  0  0  0  0
   36.3360   29.3840   51.0050 N   0  0  0  0  0  0  0  0  0  0  0  0
   38.3260   31.4010   47.8480 C   0  0  0  0  0  0  0  0  0  0  0  0
   37.4430   32.1030   47.0470 F   0  0  0  0  0  0  0  0  0  0  0  0
   39.2360   32.3450   48.3060 F   0  0  0  0  0  0  0  0  0  0  0  0
   38.9280   30.4690   47.0280 F   0  0  0  0  0  0  0  0  0  0  0  0
   34.8610   28.3360   49.4120 C   0  0  0  0  0  0  0  0  0  0  0  0
   33.6580   28.7200   49.5690 O   0  0  0  0  0  0  0  0  0  0  0  0
   37.6442   30.3177   52.3704 H   0  0  0  0  0  0  0  0  0  0  0  0
   38.8955   31.5696   50.5570 H   0  0  0  0  0  0  0  0  0  0  0  0
   35.0655   27.3256   49.0282 H   0  0  0  0  0  0  0  0  0  0  0  0
  2  1  2  0
  3  2  1  0
  4  3  2  0
  4  5  1  0
  5  6  2  0
  6  1  1  0
  7  9  1  0
  7  3  1  0
  8  7  1  0
 10  7  1  0
 11 12  2  0
 11  5  1  0
  1 13  1  0
  2 14  1  0
 11 15  1  0
M  ISO  3  13  14  14  14  15   6
M  END
>  <minimizedAffinity>  (1) 
-4.4124217

>  <minimizedRMSD>  (1) 
0.654924691

$$$$
