
     RDKit          3D

 14 14  0  0  0  0  0  0  0  0999 V2000
   37.3810   30.2040   51.3420 C   0  0  0  0  0  0  0  0  0  0  0  0
   38.0780   30.8830   50.3230 C   0  0  0  0  0  0  0  0  0  0  0  0
   37.6530   30.7160   48.9970 C   0  0  0  0  0  0  0  0  0  0  0  0
   36.5780   29.9010   48.7660 N   0  0  0  0  0  0  0  0  0  0  0  0
   35.9290   29.2630   49.7750 C   0  0  0  0  0  0  0  0  0  0  0  0
   36.3400   29.4210   51.0520 N   0  0  0  0  0  0  0  0  0  0  0  0
   38.3220   31.3880   47.8600 C   0  0  0  0  0  0  0  0  0  0  0  0
   37.4230   32.0900   47.0660 F   0  0  0  0  0  0  0  0  0  0  0  0
   39.2360   32.3400   48.3120 F   0  0  0  0  0  0  0  0  0  0  0  0
   38.9030   30.4480   47.0390 F   0  0  0  0  0  0  0  0  0  0  0  0
   34.5470   28.2410   49.2430 S   0  0  0  0  0  0  0  0  0  0  0  0
   37.6986   30.3207   52.3887 H   0  0  0  0  0  0  0  0  0  0  0  0
   38.9356   31.5291   50.5620 H   0  0  0  0  0  0  0  0  0  0  0  0
   33.8892   27.7545   50.3419 H   0  0  0  0  0  0  0  0  0  0  0  0
  2  1  2  0
  3  2  1  0
  4  3  2  0
  4  5  1  0
  5  6  2  0
  6  1  1  0
  7  9  1  0
  7  3  1  0
  8  7  1  0
 10  7  1  0
 11  5  1  0
  1 12  1  0
  2 13  1  0
 11 14  1  0
M  ISO  3  12  14  13  14  14  11
M  END
>  <minimizedAffinity>  (1) 
-4.35130072

>  <minimizedRMSD>  (1) 
0.638616204

$$$$
