
     RDKit          3D

 14 14  0  0  0  0  0  0  0  0999 V2000
   37.5190   30.3100   51.1240 C   0  0  0  0  0  0  0  0  0  0  0  0
   38.2080   31.0760   50.1520 C   0  0  0  0  0  0  0  0  0  0  0  0
   37.8640   30.9160   48.8060 C   0  0  0  0  0  0  0  0  0  0  0  0
   36.8830   30.0290   48.5160 N   0  0  0  0  0  0  0  0  0  0  0  0
   36.2350   29.3060   49.4540 C   0  0  0  0  0  0  0  0  0  0  0  0
   36.5500   29.4470   50.7430 N   0  0  0  0  0  0  0  0  0  0  0  0
   38.5440   31.6850   47.7250 C   0  0  0  0  0  0  0  0  0  0  0  0
   37.6340   32.2480   46.8390 F   0  0  0  0  0  0  0  0  0  0  0  0
   39.2760   32.7360   48.2520 F   0  0  0  0  0  0  0  0  0  0  0  0
   39.3330   30.8110   46.9880 F   0  0  0  0  0  0  0  0  0  0  0  0
   35.2720   28.4660   48.9100 O   0  0  0  0  0  0  0  0  0  0  0  0
   37.7722   30.4171   52.1891 H   0  0  0  0  0  0  0  0  0  0  0  0
   38.9972   31.7820   50.4497 H   0  0  0  0  0  0  0  0  0  0  0  0
   34.7306   27.8852   49.5014 H   0  0  0  0  0  0  0  0  0  0  0  0
  2  1  2  0
  3  2  1  0
  4  3  2  0
  4  5  1  0
  5  6  2  0
  6  1  1  0
  7  9  1  0
  7  3  1  0
  8  7  1  0
 10  7  1  0
 11  5  1  0
  1 12  1  0
  2 13  1  0
 11 14  1  0
M  ISO  3  12  14  13  14  14   3
M  END
>  <minimizedAffinity>  (1) 
-4.31247377

>  <minimizedRMSD>  (1) 
0.280641317

$$$$
