
     RDKit          3D

 34 36  0  0  0  0  0  0  0  0999 V2000
   32.5020   28.3070   47.7470 C   0  0  0  0  0  0  0  0  0  0  0  0
   33.1890   29.1300   46.8570 C   0  0  0  0  0  0  0  0  0  0  0  0
   34.3450   29.7260   47.3110 C   0  0  0  0  0  0  0  0  0  0  0  0
   34.8810   29.5830   48.5630 C   0  0  0  0  0  0  0  0  0  0  0  0
   34.1430   28.7480   49.4000 C   0  0  0  0  0  0  0  0  0  0  0  0
   32.9780   28.1140   49.0210 C   0  0  0  0  0  0  0  0  0  0  0  0
   37.6090   30.6430   50.7150 C   0  0  0  0  0  0  0  0  0  0  0  0
   38.4440   31.3700   49.8210 C   0  0  0  0  0  0  0  0  0  0  0  0
   38.0300   31.4770   48.4820 C   0  0  0  0  0  0  0  0  0  0  0  0
   36.8650   30.8890   48.0980 N   0  0  0  0  0  0  0  0  0  0  0  0
   36.1000   30.2020   48.9980 C   0  0  0  0  0  0  0  0  0  0  0  0
   36.4710   30.0860   50.2770 N   0  0  0  0  0  0  0  0  0  0  0  0
   38.8340   32.2140   47.4740 C   0  0  0  0  0  0  0  0  0  0  0  0
   38.0850   32.6580   46.4110 F   0  0  0  0  0  0  0  0  0  0  0  0
   39.4110   33.3510   48.0280 F   0  0  0  0  0  0  0  0  0  0  0  0
   39.8100   31.3800   46.9430 F   0  0  0  0  0  0  0  0  0  0  0  0
   31.0110   27.5250   47.3030 S   0  0  0  0  0  0  0  0  0  0  0  0
   30.3690   28.2270   46.1970 O   0  0  0  0  0  0  0  0  0  0  0  0
   30.0940   27.5380   48.5330 O   0  0  0  0  0  0  0  0  0  0  0  0
   31.3140   25.8130   47.0260 C   0  0  0  0  0  0  0  0  0  0  0  0
   32.2820   25.0180   47.5940 C   0  0  0  0  0  0  0  0  0  0  0  0
   32.3210   23.6830   47.2130 C   0  0  0  0  0  0  0  0  0  0  0  0
   31.4440   23.1960   46.3220 N   0  0  0  0  0  0  0  0  0  0  0  0
   30.4990   23.9920   45.7730 C   0  0  0  0  0  0  0  0  0  0  0  0
   30.4270   25.3080   46.1200 N   0  0  0  0  0  0  0  0  0  0  0  0
   32.8231   29.2971   45.8332 H   0  0  0  0  0  0  0  0  0  0  0  0
   34.8854   30.3742   46.6054 H   0  0  0  0  0  0  0  0  0  0  0  0
   34.5114   28.5849   50.4236 H   0  0  0  0  0  0  0  0  0  0  0  0
   32.4393   27.4649   49.7270 H   0  0  0  0  0  0  0  0  0  0  0  0
   37.8988   30.5375   51.7709 H   0  0  0  0  0  0  0  0  0  0  0  0
   39.3808   31.8321   50.1658 H   0  0  0  0  0  0  0  0  0  0  0  0
   32.9986   25.4244   48.3229 H   0  0  0  0  0  0  0  0  0  0  0  0
   33.0806   23.0164   47.6473 H   0  0  0  0  0  0  0  0  0  0  0  0
   29.7868   23.5766   45.0448 H   0  0  0  0  0  0  0  0  0  0  0  0
  1  6  2  0
  2  3  2  0
  2  1  1  0
  3  4  1  0
  4 11  1  0
  4  5  2  0
  6  5  1  0
  8  7  2  0
  9  8  1  0
 10  9  2  0
 10 11  1  0
 11 12  2  0
 12  7  1  0
 13 15  1  0
 13  9  1  0
 14 13  1  0
 16 13  1  0
 17  1  1  0
 17 19  2  0
 18 17  2  0
 20 17  1  0
 20 21  2  0
 22 21  1  0
 23 22  2  0
 24 25  2  0
 24 23  1  0
 25 20  1  0
  2 26  1  0
  3 27  1  0
  5 28  1  0
  6 29  1  0
  7 30  1  0
  8 31  1  0
 21 32  1  0
 22 33  1  0
 24 34  1  0
M  ISO  8  26  14  27  14  28  14  29  14  30  14  31  14  32  14  33  14
M  ISO  1  34  14
M  END
>  <minimizedAffinity>  (1) 
-6.1240921

>  <minimizedRMSD>  (1) 
1.57463717

$$$$
