
     RDKit          3D

 34 36  0  0  0  0  0  0  0  0999 V2000
   32.5150   28.2820   47.7350 C   0  0  0  0  0  0  0  0  0  0  0  0
   33.2190   29.0750   46.8410 C   0  0  0  0  0  0  0  0  0  0  0  0
   34.3770   29.6730   47.2930 C   0  0  0  0  0  0  0  0  0  0  0  0
   34.8940   29.5500   48.5550 C   0  0  0  0  0  0  0  0  0  0  0  0
   34.1360   28.7430   49.3980 C   0  0  0  0  0  0  0  0  0  0  0  0
   32.9690   28.1110   49.0170 C   0  0  0  0  0  0  0  0  0  0  0  0
   37.6000   30.6340   50.7220 C   0  0  0  0  0  0  0  0  0  0  0  0
   38.4410   31.3620   49.8260 C   0  0  0  0  0  0  0  0  0  0  0  0
   38.0380   31.4610   48.4810 C   0  0  0  0  0  0  0  0  0  0  0  0
   36.8720   30.8590   48.0970 N   0  0  0  0  0  0  0  0  0  0  0  0
   36.1100   30.1790   48.9850 C   0  0  0  0  0  0  0  0  0  0  0  0
   36.4680   30.0670   50.2800 N   0  0  0  0  0  0  0  0  0  0  0  0
   38.8370   32.1940   47.4680 C   0  0  0  0  0  0  0  0  0  0  0  0
   38.0810   32.6520   46.4180 F   0  0  0  0  0  0  0  0  0  0  0  0
   39.4010   33.3470   48.0430 F   0  0  0  0  0  0  0  0  0  0  0  0
   39.8030   31.3720   46.9390 F   0  0  0  0  0  0  0  0  0  0  0  0
   31.0170   27.5070   47.2870 S   0  0  0  0  0  0  0  0  0  0  0  0
   30.3760   28.2070   46.1790 O   0  0  0  0  0  0  0  0  0  0  0  0
   30.1020   27.5240   48.5200 O   0  0  0  0  0  0  0  0  0  0  0  0
   31.3170   25.8020   46.9980 C   0  0  0  0  0  0  0  0  0  0  0  0
   32.3310   25.0660   47.5780 C   0  0  0  0  0  0  0  0  0  0  0  0
   32.4960   23.7270   47.2930 C   0  0  0  0  0  0  0  0  0  0  0  0
   31.6310   23.1350   46.4220 N   0  0  0  0  0  0  0  0  0  0  0  0
   30.6560   23.8410   45.8640 C   0  0  0  0  0  0  0  0  0  0  0  0
   30.4840   25.1640   46.1380 N   0  0  0  0  0  0  0  0  0  0  0  0
   32.8668   29.2217   45.8093 H   0  0  0  0  0  0  0  0  0  0  0  0
   34.9314   30.3011   46.5801 H   0  0  0  0  0  0  0  0  0  0  0  0
   34.4878   28.5999   50.4304 H   0  0  0  0  0  0  0  0  0  0  0  0
   32.4141   27.4822   49.7288 H   0  0  0  0  0  0  0  0  0  0  0  0
   37.8825   30.5379   51.7807 H   0  0  0  0  0  0  0  0  0  0  0  0
   39.3731   31.8300   50.1756 H   0  0  0  0  0  0  0  0  0  0  0  0
   33.0202   25.5571   48.2807 H   0  0  0  0  0  0  0  0  0  0  0  0
   33.3081   23.1493   47.7585 H   0  0  0  0  0  0  0  0  0  0  0  0
   29.9691   23.3452   45.1623 H   0  0  0  0  0  0  0  0  0  0  0  0
  1  6  2  0
  2  3  2  0
  2  1  1  0
  3  4  1  0
  4 11  1  0
  4  5  2  0
  6  5  1  0
  8  7  2  0
  9  8  1  0
 10  9  2  0
 10 11  1  0
 11 12  2  0
 12  7  1  0
 13 15  1  0
 13  9  1  0
 14 13  1  0
 16 13  1  0
 17  1  1  0
 17 19  2  0
 18 17  2  0
 20 17  1  0
 20 21  2  0
 22 21  1  0
 23 22  2  0
 24 25  2  0
 24 23  1  0
 25 20  1  0
  2 26  1  0
  3 27  1  0
  5 28  1  0
  6 29  1  0
  7 30  1  0
  8 31  1  0
 21 32  1  0
 22 33  1  0
 24 34  1  0
M  ISO  8  26  14  27  14  28  14  29  14  30  14  31  14  32  14  33  14
M  ISO  1  34  14
M  END
>  <minimizedAffinity>  (1) 
-6.11389351

>  <minimizedRMSD>  (1) 
1.72555888

$$$$
