
     RDKit          3D

 41 43  0  0  0  0  0  0  0  0999 V2000
   32.5790   28.3100   47.7050 C   0  0  0  0  0  0  0  0  0  0  0  0
   33.1690   29.2370   46.8690 C   0  0  0  0  0  0  0  0  0  0  0  0
   34.3320   29.8520   47.2900 C   0  0  0  0  0  0  0  0  0  0  0  0
   34.9530   29.6150   48.4880 C   0  0  0  0  0  0  0  0  0  0  0  0
   34.3100   28.6750   49.2820 C   0  0  0  0  0  0  0  0  0  0  0  0
   33.1480   28.0230   48.9220 C   0  0  0  0  0  0  0  0  0  0  0  0
   37.6340   30.8140   50.6300 C   0  0  0  0  0  0  0  0  0  0  0  0
   38.4730   31.5060   49.7200 C   0  0  0  0  0  0  0  0  0  0  0  0
   38.0820   31.5430   48.3570 C   0  0  0  0  0  0  0  0  0  0  0  0
   36.9310   30.9160   47.9970 N   0  0  0  0  0  0  0  0  0  0  0  0
   36.1600   30.2650   48.9070 C   0  0  0  0  0  0  0  0  0  0  0  0
   36.5110   30.2180   50.2040 N   0  0  0  0  0  0  0  0  0  0  0  0
   38.8880   32.2390   47.3300 C   0  0  0  0  0  0  0  0  0  0  0  0
   38.1230   32.6720   46.2590 F   0  0  0  0  0  0  0  0  0  0  0  0
   39.4680   33.3950   47.8600 F   0  0  0  0  0  0  0  0  0  0  0  0
   39.8460   31.4060   46.8220 F   0  0  0  0  0  0  0  0  0  0  0  0
   31.0920   27.5110   47.2970 S   0  0  0  0  0  0  0  0  0  0  0  0
   30.0800   28.4660   46.8550 O   0  0  0  0  0  0  0  0  0  0  0  0
   30.5990   26.7750   48.5540 O   0  0  0  0  0  0  0  0  0  0  0  0
   31.8890   23.3890   46.7640 N   0  0  0  0  0  0  0  0  0  0  0  0
   32.6310   24.4930   47.3240 C   0  0  0  0  0  0  0  0  0  0  0  0
   32.6740   25.5730   46.2940 C   0  0  0  0  0  0  0  0  0  0  0  0
   31.2950   26.2170   46.1010 C   0  0  0  0  0  0  0  0  0  0  0  0
   30.2970   25.1130   46.2170 C   0  0  0  0  0  0  0  0  0  0  0  0
   30.9910   23.8330   45.7270 C   0  0  0  0  0  0  0  0  0  0  0  0
   32.7243   29.4796   45.8926 H   0  0  0  0  0  0  0  0  0  0  0  0
   34.7936   30.5863   46.6134 H   0  0  0  0  0  0  0  0  0  0  0  0
   34.7544   28.4348   50.2591 H   0  0  0  0  0  0  0  0  0  0  0  0
   32.6862   27.2873   49.5969 H   0  0  0  0  0  0  0  0  0  0  0  0
   37.9068   30.7657   51.6945 H   0  0  0  0  0  0  0  0  0  0  0  0
   39.3964   31.9978   50.0598 H   0  0  0  0  0  0  0  0  0  0  0  0
   32.5509   22.7078   46.3655 H   0  0  0  0  0  0  0  0  0  0  0  0
   32.1304   24.8598   48.2322 H   0  0  0  0  0  0  0  0  0  0  0  0
   33.6487   24.1771   47.5970 H   0  0  0  0  0  0  0  0  0  0  0  0
   33.3881   26.3456   46.6150 H   0  0  0  0  0  0  0  0  0  0  0  0
   32.9851   25.1274   45.3376 H   0  0  0  0  0  0  0  0  0  0  0  0
   31.1655   26.6974   45.1199 H   0  0  0  0  0  0  0  0  0  0  0  0
   29.9823   24.9957   47.2645 H   0  0  0  0  0  0  0  0  0  0  0  0
   29.3992   25.3285   45.6191 H   0  0  0  0  0  0  0  0  0  0  0  0
   30.2401   23.0550   45.5250 H   0  0  0  0  0  0  0  0  0  0  0  0
   31.5468   24.0308   44.7986 H   0  0  0  0  0  0  0  0  0  0  0  0
  1  6  2  0
  2  3  2  0
  2  1  1  0
  3  4  1  0
  4 11  1  0
  4  5  2  0
  6  5  1  0
  8  7  2  0
  9  8  1  0
 10  9  2  0
 10 11  1  0
 11 12  2  0
 12  7  1  0
 13 15  1  0
 13  9  1  0
 14 13  1  0
 16 13  1  0
 17  1  1  0
 17 19  2  0
 18 17  2  0
 20 21  1  0
 22 21  1  0
 23 24  1  0
 23 22  1  0
 23 17  1  0
 25 24  1  0
 25 20  1  0
  2 26  1  0
  3 27  1  0
  5 28  1  0
  6 29  1  0
  7 30  1  0
  8 31  1  0
 20 32  1  0
 21 33  1  0
 21 34  1  0
 22 35  1  0
 22 36  1  0
 23 37  1  0
 24 38  1  0
 24 39  1  0
 25 40  1  0
 25 41  1  0
M  ISO  8  26  14  27  14  28  14  29  14  30  14  31  14  32   5  33  13
M  ISO  8  34  13  35  13  36  13  37  13  38  13  39  13  40  13  41  13
M  END
>  <minimizedAffinity>  (1) 
-6.04991436

>  <minimizedRMSD>  (1) 
0.846831441

$$$$
