
     RDKit          3D

 33 35  0  0  0  0  0  0  0  0999 V2000
   32.5550   28.2950   47.7570 C   0  0  0  0  0  0  0  0  0  0  0  0
   33.1980   29.1450   46.8630 C   0  0  0  0  0  0  0  0  0  0  0  0
   34.3560   29.7550   47.2900 C   0  0  0  0  0  0  0  0  0  0  0  0
   34.9300   29.5940   48.5240 C   0  0  0  0  0  0  0  0  0  0  0  0
   34.2420   28.7400   49.3590 C   0  0  0  0  0  0  0  0  0  0  0  0
   33.0740   28.0880   49.0110 C   0  0  0  0  0  0  0  0  0  0  0  0
   37.6350   30.7980   50.6420 C   0  0  0  0  0  0  0  0  0  0  0  0
   38.4620   31.4940   49.7220 C   0  0  0  0  0  0  0  0  0  0  0  0
   38.0570   31.5310   48.3690 C   0  0  0  0  0  0  0  0  0  0  0  0
   36.9030   30.9050   48.0090 N   0  0  0  0  0  0  0  0  0  0  0  0
   36.1430   30.2490   48.9330 C   0  0  0  0  0  0  0  0  0  0  0  0
   36.5080   30.2000   50.2260 N   0  0  0  0  0  0  0  0  0  0  0  0
   38.8490   32.2330   47.3210 C   0  0  0  0  0  0  0  0  0  0  0  0
   38.0940   32.6460   46.2560 F   0  0  0  0  0  0  0  0  0  0  0  0
   39.4500   33.3730   47.8450 F   0  0  0  0  0  0  0  0  0  0  0  0
   39.8110   31.3680   46.8170 F   0  0  0  0  0  0  0  0  0  0  0  0
   31.0520   27.5070   47.3500 S   0  0  0  0  0  0  0  0  0  0  0  0
   30.3970   28.1780   46.2300 O   0  0  0  0  0  0  0  0  0  0  0  0
   30.1540   27.5650   48.5930 O   0  0  0  0  0  0  0  0  0  0  0  0
   31.2980   25.8090   46.9920 C   0  0  0  0  0  0  0  0  0  0  0  0
   32.2220   24.9440   47.5250 C   0  0  0  0  0  0  0  0  0  0  0  0
   32.0940   23.6820   46.9800 C   0  0  0  0  0  0  0  0  0  0  0  0
   31.0380   23.8520   46.0900 C   0  0  0  0  0  0  0  0  0  0  0  0
   30.6060   25.0960   46.1280 O   0  0  0  0  0  0  0  0  0  0  0  0
   32.7969   29.3228   45.8543 H   0  0  0  0  0  0  0  0  0  0  0  0
   34.8625   30.4274   46.5820 H   0  0  0  0  0  0  0  0  0  0  0  0
   34.6483   28.5663   50.3663 H   0  0  0  0  0  0  0  0  0  0  0  0
   32.5711   27.4176   49.7235 H   0  0  0  0  0  0  0  0  0  0  0  0
   37.9199   30.7485   51.7033 H   0  0  0  0  0  0  0  0  0  0  0  0
   39.3878   31.9883   50.0516 H   0  0  0  0  0  0  0  0  0  0  0  0
   32.9664   25.2204   48.2862 H   0  0  0  0  0  0  0  0  0  0  0  0
   32.6774   22.7745   47.1944 H   0  0  0  0  0  0  0  0  0  0  0  0
   30.6235   23.0614   45.4472 H   0  0  0  0  0  0  0  0  0  0  0  0
  1  6  2  0
  2  3  2  0
  2  1  1  0
  3  4  1  0
  4 11  1  0
  4  5  2  0
  6  5  1  0
  8  7  2  0
  9  8  1  0
 10  9  2  0
 10 11  1  0
 11 12  2  0
 12  7  1  0
 13 15  1  0
 13  9  1  0
 14 13  1  0
 16 13  1  0
 17  1  1  0
 17 19  2  0
 18 17  2  0
 20 17  1  0
 20 21  2  0
 22 21  1  0
 23 24  1  0
 23 22  2  0
 24 20  1  0
  2 25  1  0
  3 26  1  0
  5 27  1  0
  6 28  1  0
  7 29  1  0
  8 30  1  0
 21 31  1  0
 22 32  1  0
 23 33  1  0
M  ISO  8  25  14  26  14  27  14  28  14  29  14  30  14  31  14  32  14
M  ISO  1  33  14
M  END
>  <minimizedAffinity>  (1) 
-6.00951767

>  <minimizedRMSD>  (1) 
1.53780532

$$$$
