
     RDKit          3D

 33 35  0  0  0  0  0  0  0  0999 V2000
   32.5380   28.3050   47.7410 C   0  0  0  0  0  0  0  0  0  0  0  0
   33.1680   29.1770   46.8660 C   0  0  0  0  0  0  0  0  0  0  0  0
   34.3340   29.7850   47.2860 C   0  0  0  0  0  0  0  0  0  0  0  0
   34.9210   29.5950   48.5100 C   0  0  0  0  0  0  0  0  0  0  0  0
   34.2400   28.7150   49.3350 C   0  0  0  0  0  0  0  0  0  0  0  0
   33.0700   28.0680   48.9830 C   0  0  0  0  0  0  0  0  0  0  0  0
   37.6200   30.7800   50.6410 C   0  0  0  0  0  0  0  0  0  0  0  0
   38.4550   31.4750   49.7240 C   0  0  0  0  0  0  0  0  0  0  0  0
   38.0570   31.5160   48.3700 C   0  0  0  0  0  0  0  0  0  0  0  0
   36.9010   30.8960   48.0020 N   0  0  0  0  0  0  0  0  0  0  0  0
   36.1330   30.2410   48.9230 C   0  0  0  0  0  0  0  0  0  0  0  0
   36.4930   30.1890   50.2170 N   0  0  0  0  0  0  0  0  0  0  0  0
   38.8560   32.2150   47.3270 C   0  0  0  0  0  0  0  0  0  0  0  0
   38.0890   32.6440   46.2630 F   0  0  0  0  0  0  0  0  0  0  0  0
   39.4400   33.3700   47.8530 F   0  0  0  0  0  0  0  0  0  0  0  0
   39.8130   31.3780   46.8200 F   0  0  0  0  0  0  0  0  0  0  0  0
   31.0410   27.5160   47.3340 S   0  0  0  0  0  0  0  0  0  0  0  0
   30.3940   28.1670   46.2020 O   0  0  0  0  0  0  0  0  0  0  0  0
   30.1370   27.5690   48.5720 O   0  0  0  0  0  0  0  0  0  0  0  0
   31.3010   25.8070   46.9880 C   0  0  0  0  0  0  0  0  0  0  0  0
   32.1960   24.8770   47.4900 C   0  0  0  0  0  0  0  0  0  0  0  0
   31.9630   23.7040   46.8740 N   0  0  0  0  0  0  0  0  0  0  0  0
   30.9570   23.8280   45.9950 C   0  0  0  0  0  0  0  0  0  0  0  0
   30.5620   25.1240   46.0760 N   0  0  0  0  0  0  0  0  0  0  0  0
   32.7515   29.3780   45.8680 H   0  0  0  0  0  0  0  0  0  0  0  0
   34.8293   30.4737   46.5858 H   0  0  0  0  0  0  0  0  0  0  0  0
   34.6567   28.5184   50.3339 H   0  0  0  0  0  0  0  0  0  0  0  0
   32.5765   27.3783   49.6835 H   0  0  0  0  0  0  0  0  0  0  0  0
   37.8996   30.7266   51.7035 H   0  0  0  0  0  0  0  0  0  0  0  0
   39.3813   31.9650   50.0586 H   0  0  0  0  0  0  0  0  0  0  0  0
   32.9620   25.0644   48.2569 H   0  0  0  0  0  0  0  0  0  0  0  0
   30.5401   23.0443   45.3454 H   0  0  0  0  0  0  0  0  0  0  0  0
   29.8005   25.5361   45.5181 H   0  0  0  0  0  0  0  0  0  0  0  0
  1  6  2  0
  2  3  2  0
  2  1  1  0
  3  4  1  0
  4 11  1  0
  4  5  2  0
  6  5  1  0
  8  7  2  0
  9  8  1  0
 10  9  2  0
 10 11  1  0
 11 12  2  0
 12  7  1  0
 13 15  1  0
 13  9  1  0
 14 13  1  0
 16 13  1  0
 17  1  1  0
 17 19  2  0
 18 17  2  0
 20 17  1  0
 20 21  2  0
 22 21  1  0
 23 24  1  0
 23 22  2  0
 24 20  1  0
  2 25  1  0
  3 26  1  0
  5 27  1  0
  6 28  1  0
  7 29  1  0
  8 30  1  0
 21 31  1  0
 23 32  1  0
 24 33  1  0
M  ISO  8  25  14  26  14  27  14  28  14  29  14  30  14  31  14  32  14
M  ISO  1  33   9
M  END
>  <minimizedAffinity>  (1) 
-5.98505783

>  <minimizedRMSD>  (1) 
1.47864521

$$$$
