
     RDKit          3D

 31 33  0  0  0  0  0  0  0  0999 V2000
   32.5950   28.3200   47.7070 C   0  0  0  0  0  0  0  0  0  0  0  0
   33.1440   29.2960   46.8950 C   0  0  0  0  0  0  0  0  0  0  0  0
   34.3090   29.9010   47.3180 C   0  0  0  0  0  0  0  0  0  0  0  0
   34.9760   29.6070   48.4970 C   0  0  0  0  0  0  0  0  0  0  0  0
   34.3680   28.6300   49.2480 C   0  0  0  0  0  0  0  0  0  0  0  0
   33.2010   27.9780   48.8900 C   0  0  0  0  0  0  0  0  0  0  0  0
   37.6520   30.8290   50.6180 C   0  0  0  0  0  0  0  0  0  0  0  0
   38.4890   31.5300   49.6960 C   0  0  0  0  0  0  0  0  0  0  0  0
   38.0940   31.5570   48.3400 C   0  0  0  0  0  0  0  0  0  0  0  0
   36.9440   30.9200   47.9800 N   0  0  0  0  0  0  0  0  0  0  0  0
   36.1830   30.2710   48.8850 C   0  0  0  0  0  0  0  0  0  0  0  0
   36.5350   30.2260   50.1930 N   0  0  0  0  0  0  0  0  0  0  0  0
   38.8910   32.2550   47.3050 C   0  0  0  0  0  0  0  0  0  0  0  0
   38.1390   32.6740   46.2400 F   0  0  0  0  0  0  0  0  0  0  0  0
   39.4920   33.3940   47.8230 F   0  0  0  0  0  0  0  0  0  0  0  0
   39.8550   31.3940   46.7960 F   0  0  0  0  0  0  0  0  0  0  0  0
   31.1050   27.5170   47.3100 S   0  0  0  0  0  0  0  0  0  0  0  0
   30.2130   28.3880   46.5520 O   0  0  0  0  0  0  0  0  0  0  0  0
   30.4390   27.0740   48.6160 O   0  0  0  0  0  0  0  0  0  0  0  0
   31.5140   26.0800   46.3830 C   0  0  0  0  0  0  0  0  0  0  0  0
   32.6060   25.7670   45.6990 N   0  0  0  0  0  0  0  0  0  0  0  0
   32.4140   24.5860   45.1930 O   0  0  0  0  0  0  0  0  0  0  0  0
   31.2550   24.1130   45.5120 C   0  0  0  0  0  0  0  0  0  0  0  0
   30.6390   25.0400   46.2780 N   0  0  0  0  0  0  0  0  0  0  0  0
   32.6679   29.5798   45.9448 H   0  0  0  0  0  0  0  0  0  0  0  0
   34.7423   30.6768   46.6696 H   0  0  0  0  0  0  0  0  0  0  0  0
   34.8416   28.3466   50.1995 H   0  0  0  0  0  0  0  0  0  0  0  0
   32.7685   27.2026   49.5394 H   0  0  0  0  0  0  0  0  0  0  0  0
   37.9269   30.7847   51.6822 H   0  0  0  0  0  0  0  0  0  0  0  0
   39.4092   32.0313   50.0307 H   0  0  0  0  0  0  0  0  0  0  0  0
   30.8454   23.1363   45.2150 H   0  0  0  0  0  0  0  0  0  0  0  0
  1  6  2  0
  2  3  2  0
  2  1  1  0
  3  4  1  0
  4 11  1  0
  4  5  2  0
  6  5  1  0
  8  7  2  0
  9  8  1  0
 10  9  2  0
 10 11  1  0
 11 12  2  0
 12  7  1  0
 13 15  1  0
 13  9  1  0
 14 13  1  0
 16 13  1  0
 17  1  1  0
 17 19  2  0
 18 17  2  0
 20 17  1  0
 21 20  2  0
 22 23  1  0
 22 21  1  0
 23 24  2  0
 24 20  1  0
  2 25  1  0
  3 26  1  0
  5 27  1  0
  6 28  1  0
  7 29  1  0
  8 30  1  0
 23 31  1  0
M  ISO  7  25  14  26  14  27  14  28  14  29  14  30  14  31  14
M  END
>  <minimizedAffinity>  (1) 
-5.82499027

>  <minimizedRMSD>  (1) 
0.983261347

$$$$
