
     RDKit          3D

 33 35  0  0  0  0  0  0  0  0999 V2000
   32.8470   28.2570   47.9160 C   0  0  0  0  0  0  0  0  0  0  0  0
   33.4450   29.0380   46.9300 C   0  0  0  0  0  0  0  0  0  0  0  0
   34.5780   29.7430   47.2780 C   0  0  0  0  0  0  0  0  0  0  0  0
   35.1610   29.7370   48.5160 C   0  0  0  0  0  0  0  0  0  0  0  0
   34.5160   28.9410   49.4520 C   0  0  0  0  0  0  0  0  0  0  0  0
   33.3790   28.2060   49.1810 C   0  0  0  0  0  0  0  0  0  0  0  0
   37.8070   31.2920   50.4730 C   0  0  0  0  0  0  0  0  0  0  0  0
   38.6320   31.8790   49.4710 C   0  0  0  0  0  0  0  0  0  0  0  0
   38.2390   31.7200   48.1270 C   0  0  0  0  0  0  0  0  0  0  0  0
   37.1040   31.0210   47.8420 N   0  0  0  0  0  0  0  0  0  0  0  0
   36.3530   30.4790   48.8420 C   0  0  0  0  0  0  0  0  0  0  0  0
   36.7050   30.6170   50.1240 N   0  0  0  0  0  0  0  0  0  0  0  0
   39.0300   32.2930   47.0160 C   0  0  0  0  0  0  0  0  0  0  0  0
   38.2530   32.6640   45.9360 F   0  0  0  0  0  0  0  0  0  0  0  0
   39.6950   33.4480   47.4090 F   0  0  0  0  0  0  0  0  0  0  0  0
   39.9320   31.3520   46.5340 F   0  0  0  0  0  0  0  0  0  0  0  0
   31.3820   27.3560   47.6010 S   0  0  0  0  0  0  0  0  0  0  0  0
   30.4630   28.1350   46.7750 O   0  0  0  0  0  0  0  0  0  0  0  0
   30.7360   27.0530   48.9590 O   0  0  0  0  0  0  0  0  0  0  0  0
   31.7460   25.7940   46.9410 C   0  0  0  0  0  0  0  0  0  0  0  0
   31.0140   24.8660   46.3020 C   0  0  0  0  0  0  0  0  0  0  0  0
   31.5910   23.6960   45.8880 C   0  0  0  0  0  0  0  0  0  0  0  0
   32.9520   23.5440   46.1680 C   0  0  0  0  0  0  0  0  0  0  0  0
   33.3870   25.1610   47.0620 S   0  0  0  0  0  0  0  0  0  0  0  0
   33.0296   29.0905   45.9128 H   0  0  0  0  0  0  0  0  0  0  0  0
   35.0505   30.3590   46.4987 H   0  0  0  0  0  0  0  0  0  0  0  0
   34.9346   28.8928   50.4681 H   0  0  0  0  0  0  0  0  0  0  0  0
   32.9086   27.5917   49.9629 H   0  0  0  0  0  0  0  0  0  0  0  0
   38.0758   31.3935   51.5348 H   0  0  0  0  0  0  0  0  0  0  0  0
   39.5426   32.4361   49.7366 H   0  0  0  0  0  0  0  0  0  0  0  0
   29.9461   25.0474   46.1107 H   0  0  0  0  0  0  0  0  0  0  0  0
   31.0157   22.9185   45.3641 H   0  0  0  0  0  0  0  0  0  0  0  0
   33.6097   22.6954   45.9289 H   0  0  0  0  0  0  0  0  0  0  0  0
  1  6  2  0
  2  3  2  0
  2  1  1  0
  3  4  1  0
  4 11  1  0
  4  5  2  0
  6  5  1  0
  8  7  2  0
  9  8  1  0
 10  9  2  0
 10 11  1  0
 11 12  2  0
 12  7  1  0
 13 15  1  0
 13  9  1  0
 14 13  1  0
 16 13  1  0
 17  1  1  0
 17 19  2  0
 18 17  2  0
 20 24  1  0
 20 17  1  0
 21 20  2  0
 22 23  2  0
 22 21  1  0
 23 24  1  0
  2 25  1  0
  3 26  1  0
  5 27  1  0
  6 28  1  0
  7 29  1  0
  8 30  1  0
 21 31  1  0
 22 32  1  0
 23 33  1  0
M  ISO  8  25  14  26  14  27  14  28  14  29  14  30  14  31  14  32  14
M  ISO  1  33  14
M  END
>  <minimizedAffinity>  (1) 
-5.81431007

>  <minimizedRMSD>  (1) 
1.37935114

$$$$
