
     RDKit          3D

 33 35  0  0  0  0  0  0  0  0999 V2000
   32.7940   28.2410   47.7740 C   0  0  0  0  0  0  0  0  0  0  0  0
   33.4030   29.0630   46.8390 C   0  0  0  0  0  0  0  0  0  0  0  0
   34.5290   29.7460   47.2370 C   0  0  0  0  0  0  0  0  0  0  0  0
   35.1060   29.6880   48.4760 C   0  0  0  0  0  0  0  0  0  0  0  0
   34.4400   28.8440   49.3640 C   0  0  0  0  0  0  0  0  0  0  0  0
   33.3050   28.1240   49.0420 C   0  0  0  0  0  0  0  0  0  0  0  0
   37.7470   31.1100   50.5260 C   0  0  0  0  0  0  0  0  0  0  0  0
   38.5810   31.7400   49.5560 C   0  0  0  0  0  0  0  0  0  0  0  0
   38.1980   31.6570   48.2020 C   0  0  0  0  0  0  0  0  0  0  0  0
   37.0570   30.9840   47.8820 N   0  0  0  0  0  0  0  0  0  0  0  0
   36.2960   30.3980   48.8530 C   0  0  0  0  0  0  0  0  0  0  0  0
   36.6350   30.4620   50.1460 N   0  0  0  0  0  0  0  0  0  0  0  0
   38.9990   32.2800   47.1180 C   0  0  0  0  0  0  0  0  0  0  0  0
   38.2340   32.6780   46.0560 F   0  0  0  0  0  0  0  0  0  0  0  0
   39.6160   33.4550   47.5870 F   0  0  0  0  0  0  0  0  0  0  0  0
   39.9310   31.3870   46.6420 F   0  0  0  0  0  0  0  0  0  0  0  0
   31.3420   27.3530   47.4150 S   0  0  0  0  0  0  0  0  0  0  0  0
   30.4940   28.0800   46.4800 O   0  0  0  0  0  0  0  0  0  0  0  0
   30.5980   27.0970   48.7260 O   0  0  0  0  0  0  0  0  0  0  0  0
   31.8380   25.7860   46.7270 C   0  0  0  0  0  0  0  0  0  0  0  0
   32.3000   24.6760   47.5580 C   0  0  0  0  0  0  0  0  0  0  0  0
   33.2970   25.4640   46.7470 C   0  0  0  0  0  0  0  0  0  0  0  0
   33.0022   29.1652   45.8197 H   0  0  0  0  0  0  0  0  0  0  0  0
   35.0086   30.3975   46.4917 H   0  0  0  0  0  0  0  0  0  0  0  0
   34.8425   28.7452   50.3829 H   0  0  0  0  0  0  0  0  0  0  0  0
   32.8225   27.4722   49.7852 H   0  0  0  0  0  0  0  0  0  0  0  0
   38.0166   31.1554   51.5915 H   0  0  0  0  0  0  0  0  0  0  0  0
   39.4949   32.2742   49.8551 H   0  0  0  0  0  0  0  0  0  0  0  0
   31.0442   25.8608   45.9692 H   0  0  0  0  0  0  0  0  0  0  0  0
   32.2882   24.7689   48.6540 H   0  0  0  0  0  0  0  0  0  0  0  0
   32.0393   23.6108   47.6439 H   0  0  0  0  0  0  0  0  0  0  0  0
   33.7774   25.0117   45.8669 H   0  0  0  0  0  0  0  0  0  0  0  0
   34.2232   26.0180   46.9595 H   0  0  0  0  0  0  0  0  0  0  0  0
  1  6  2  0
  2  3  2  0
  2  1  1  0
  3  4  1  0
  4 11  1  0
  4  5  2  0
  6  5  1  0
  8  7  2  0
  9  8  1  0
 10  9  2  0
 10 11  1  0
 11 12  2  0
 12  7  1  0
 13 15  1  0
 13  9  1  0
 14 13  1  0
 16 13  1  0
 17  1  1  0
 17 19  2  0
 18 17  2  0
 20 22  1  0
 20 17  1  0
 20 21  1  0
 22 21  1  0
  2 23  1  0
  3 24  1  0
  5 25  1  0
  6 26  1  0
  7 27  1  0
  8 28  1  0
 20 29  1  0
 21 30  1  0
 21 31  1  0
 22 32  1  0
 22 33  1  0
M  ISO  8  23  14  24  14  25  14  26  14  27  14  28  14  29  13  30  13
M  ISO  3  31  13  32  13  33  13
M  END
>  <minimizedAffinity>  (1) 
-5.77848911

>  <minimizedRMSD>  (1) 
0.99279809

$$$$
