
     RDKit          3D

 22 23  0  0  0  0  0  0  0  0999 V2000
   38.2190   32.4640   48.6120 C   0  0  0  0  0  0  0  0  0  0  0  0
   38.2610   33.6350   49.1210 O   0  0  0  0  0  0  0  0  0  0  0  0
   38.9090   32.1270   47.3630 C   0  0  0  0  0  0  0  0  0  0  0  0
   39.7240   33.0830   46.7660 C   0  0  0  0  0  0  0  0  0  0  0  0
   40.3500   32.6770   45.5520 C   0  0  0  0  0  0  0  0  0  0  0  0
   40.1310   31.4370   45.0600 N   0  0  0  0  0  0  0  0  0  0  0  0
   39.3320   30.5580   45.6830 C   0  0  0  0  0  0  0  0  0  0  0  0
   38.7130   30.8890   46.8370 N   0  0  0  0  0  0  0  0  0  0  0  0
   37.4330   31.4390   49.3320 C   0  0  0  0  0  0  0  0  0  0  0  0
   36.1340   30.9990   49.0490 C   0  0  0  0  0  0  0  0  0  0  0  0
   35.5510   30.0430   49.8510 C   0  0  0  0  0  0  0  0  0  0  0  0
   36.2320   29.4990   50.9480 C   0  0  0  0  0  0  0  0  0  0  0  0
   37.5050   29.8970   51.2680 C   0  0  0  0  0  0  0  0  0  0  0  0
   38.0540   30.8600   50.4340 C   0  0  0  0  0  0  0  0  0  0  0  0
   39.8747   34.0823   47.2005 H   0  0  0  0  0  0  0  0  0  0  0  0
   41.0116   33.3727   45.0151 H   0  0  0  0  0  0  0  0  0  0  0  0
   39.1794   29.5583   45.2501 H   0  0  0  0  0  0  0  0  0  0  0  0
   35.5831   31.4140   48.1921 H   0  0  0  0  0  0  0  0  0  0  0  0
   34.5305   29.6998   49.6258 H   0  0  0  0  0  0  0  0  0  0  0  0
   35.7351   28.7365   51.5658 H   0  0  0  0  0  0  0  0  0  0  0  0
   38.0527   29.4813   52.1266 H   0  0  0  0  0  0  0  0  0  0  0  0
   39.0752   31.1971   50.6655 H   0  0  0  0  0  0  0  0  0  0  0  0
  1  2  2  0
  1  9  1  0
  3  1  1  0
  4  3  2  0
  5  4  1  0
  6  5  2  0
  6  7  1  0
  7  8  2  0
  8  3  1  0
  9 14  1  0
 10  9  2  0
 10 11  1  0
 11 12  2  0
 12 13  1  0
 14 13  2  0
  4 15  1  0
  5 16  1  0
  7 17  1  0
 10 18  1  0
 11 19  1  0
 12 20  1  0
 13 21  1  0
 14 22  1  0
M  ISO  8  15  14  16  14  17  14  18  14  19  14  20  14  21  14  22  14
M  END
>  <minimizedAffinity>  (1) 
-5.72578144

>  <minimizedRMSD>  (1) 
3.64599657

$$$$
