
     RDKit          3D

 22 23  0  0  0  0  0  0  0  0999 V2000
   37.4900   30.8260   46.6660 C   0  0  0  0  0  0  0  0  0  0  0  0
   36.4300   30.4720   46.0950 O   0  0  0  0  0  0  0  0  0  0  0  0
   38.6570   31.3500   46.0020 C   0  0  0  0  0  0  0  0  0  0  0  0
   38.4750   32.5740   45.3630 C   0  0  0  0  0  0  0  0  0  0  0  0
   39.5510   33.1880   44.6760 C   0  0  0  0  0  0  0  0  0  0  0  0
   40.7340   32.5220   44.6840 N   0  0  0  0  0  0  0  0  0  0  0  0
   40.8680   31.3340   45.3190 C   0  0  0  0  0  0  0  0  0  0  0  0
   39.8470   30.7380   45.9780 N   0  0  0  0  0  0  0  0  0  0  0  0
   37.4230   30.6500   48.1230 C   0  0  0  0  0  0  0  0  0  0  0  0
   36.5280   29.7570   48.7070 C   0  0  0  0  0  0  0  0  0  0  0  0
   36.5000   29.6270   50.0950 C   0  0  0  0  0  0  0  0  0  0  0  0
   37.3680   30.3960   50.8450 C   0  0  0  0  0  0  0  0  0  0  0  0
   38.2770   31.3000   50.2950 C   0  0  0  0  0  0  0  0  0  0  0  0
   38.2910   31.4170   48.9000 C   0  0  0  0  0  0  0  0  0  0  0  0
   37.4916   33.0660   45.3919 H   0  0  0  0  0  0  0  0  0  0  0  0
   39.4341   34.1539   44.1629 H   0  0  0  0  0  0  0  0  0  0  0  0
   41.8468   30.8325   45.2986 H   0  0  0  0  0  0  0  0  0  0  0  0
   35.8498   29.1601   48.0795 H   0  0  0  0  0  0  0  0  0  0  0  0
   35.8030   28.9285   50.5811 H   0  0  0  0  0  0  0  0  0  0  0  0
   37.3410   30.2895   51.9395 H   0  0  0  0  0  0  0  0  0  0  0  0
   38.9521   31.8939   50.9286 H   0  0  0  0  0  0  0  0  0  0  0  0
   38.9886   32.1159   48.4153 H   0  0  0  0  0  0  0  0  0  0  0  0
  1  9  1  0
  2  1  2  0
  3  1  1  0
  4  3  2  0
  5  6  2  0
  5  4  1  0
  6  7  1  0
  7  8  2  0
  8  3  1  0
  9 10  2  0
  9 14  1  0
 10 11  1  0
 11 12  2  0
 13 12  1  0
 14 13  2  0
  4 15  1  0
  5 16  1  0
  7 17  1  0
 10 18  1  0
 11 19  1  0
 12 20  1  0
 13 21  1  0
 14 22  1  0
M  ISO  8  15  14  16  14  17  14  18  14  19  14  20  14  21  14  22  14
M  END
>  <minimizedAffinity>  (1) 
-5.41977549

>  <minimizedRMSD>  (1) 
4.49509096

$$$$
