
     RDKit          3D

 21 22  0  0  0  0  0  0  0  0999 V2000
   38.5390   31.4440   45.9000 C   0  0  0  0  0  0  0  0  0  0  0  0
   39.6950   30.6690   45.8570 C   0  0  0  0  0  0  0  0  0  0  0  0
   40.7910   31.2570   45.2150 C   0  0  0  0  0  0  0  0  0  0  0  0
   40.6720   32.4970   44.6920 N   0  0  0  0  0  0  0  0  0  0  0  0
   39.5380   33.1990   44.7620 C   0  0  0  0  0  0  0  0  0  0  0  0
   38.4520   32.6720   45.3720 N   0  0  0  0  0  0  0  0  0  0  0  0
   37.3940   30.8490   46.5630 C   0  0  0  0  0  0  0  0  0  0  0  0
   36.3310   30.4650   46.0140 O   0  0  0  0  0  0  0  0  0  0  0  0
   37.4600   30.6670   48.0250 C   0  0  0  0  0  0  0  0  0  0  0  0
   38.2270   31.5280   48.7670 C   0  0  0  0  0  0  0  0  0  0  0  0
   38.2840   31.3470   50.1480 C   0  0  0  0  0  0  0  0  0  0  0  0
   37.5860   30.3270   50.7650 C   0  0  0  0  0  0  0  0  0  0  0  0
   36.8140   29.4700   49.9750 C   0  0  0  0  0  0  0  0  0  0  0  0
   36.7840   29.6750   48.6440 N   0  0  0  0  0  0  0  0  0  0  0  0
   39.7436   29.6624   46.2979 H   0  0  0  0  0  0  0  0  0  0  0  0
   41.7437   30.7127   45.1367 H   0  0  0  0  0  0  0  0  0  0  0  0
   39.4872   34.2064   44.3233 H   0  0  0  0  0  0  0  0  0  0  0  0
   38.7849   32.3433   48.2833 H   0  0  0  0  0  0  0  0  0  0  0  0
   38.8957   32.0286   50.7573 H   0  0  0  0  0  0  0  0  0  0  0  0
   37.6366   30.1919   51.8555 H   0  0  0  0  0  0  0  0  0  0  0  0
   36.2438   28.6467   50.4301 H   0  0  0  0  0  0  0  0  0  0  0  0
  1  7  1  0
  2  1  2  0
  3  2  1  0
  4  5  1  0
  4  3  2  0
  5  6  2  0
  6  1  1  0
  7  9  1  0
  8  7  2  0
  9 14  1  0
  9 10  2  0
 10 11  1  0
 11 12  2  0
 13 12  1  0
 14 13  2  0
  2 15  1  0
  3 16  1  0
  5 17  1  0
 10 18  1  0
 11 19  1  0
 12 20  1  0
 13 21  1  0
M  ISO  7  15  14  16  14  17  14  18  14  19  14  20  14  21  14
M  END
>  <minimizedAffinity>  (1) 
-5.06519985

>  <minimizedRMSD>  (1) 
4.3868041

$$$$
