
     RDKit          3D

 17 18  0  0  0  0  0  0  0  0999 V2000
   39.1790   32.2790   47.2260 C   0  0  0  0  0  0  0  0  0  0  0  0
   39.9090   33.1600   46.4150 C   0  0  0  0  0  0  0  0  0  0  0  0
   40.3070   32.6970   45.1480 C   0  0  0  0  0  0  0  0  0  0  0  0
   39.9620   31.4360   44.7960 N   0  0  0  0  0  0  0  0  0  0  0  0
   39.2650   30.6280   45.6010 C   0  0  0  0  0  0  0  0  0  0  0  0
   38.8680   31.0290   46.8100 N   0  0  0  0  0  0  0  0  0  0  0  0
   38.7630   32.7460   48.5370 C   0  0  0  0  0  0  0  0  0  0  0  0
   39.0310   33.8810   48.9910 O   0  0  0  0  0  0  0  0  0  0  0  0
   37.9860   31.8420   49.3810 C   0  0  0  0  0  0  0  0  0  0  0  0
   36.6410   31.6430   49.3430 N   0  0  0  0  0  0  0  0  0  0  0  0
   36.3230   30.7550   50.2560 O   0  0  0  0  0  0  0  0  0  0  0  0
   37.3860   30.3570   50.8930 C   0  0  0  0  0  0  0  0  0  0  0  0
   38.4470   31.0240   50.3630 N   0  0  0  0  0  0  0  0  0  0  0  0
   40.1608   34.1748   46.7569 H   0  0  0  0  0  0  0  0  0  0  0  0
   40.8809   33.3396   44.4641 H   0  0  0  0  0  0  0  0  0  0  0  0
   39.0139   29.6128   45.2601 H   0  0  0  0  0  0  0  0  0  0  0  0
   37.4203   29.6190   51.7079 H   0  0  0  0  0  0  0  0  0  0  0  0
  1  7  1  0
  2  1  2  0
  3  2  1  0
  4  3  2  0
  4  5  1  0
  5  6  2  0
  6  1  1  0
  7  8  2  0
  7  9  1  0
  9 13  1  0
 10  9  2  0
 10 11  1  0
 11 12  1  0
 13 12  2  0
  2 14  1  0
  3 15  1  0
  5 16  1  0
 12 17  1  0
M  ISO  4  14  14  15  14  16  14  17  14
M  END
>  <minimizedAffinity>  (1) 
-4.54535389

>  <minimizedRMSD>  (1) 
3.93929315

$$$$
