
     RDKit          3D

 19 20  0  0  0  0  0  0  0  0999 V2000
   37.8800   31.0160   49.2310 C   0  0  0  0  0  0  0  0  0  0  0  0
   38.2960   32.3180   49.5550 C   0  0  0  0  0  0  0  0  0  0  0  0
   38.9010   33.0860   48.5430 C   0  0  0  0  0  0  0  0  0  0  0  0
   39.0400   32.5140   47.3220 N   0  0  0  0  0  0  0  0  0  0  0  0
   38.6290   31.2700   47.0550 C   0  0  0  0  0  0  0  0  0  0  0  0
   38.0500   30.5120   47.9940 N   0  0  0  0  0  0  0  0  0  0  0  0
   37.2610   30.2460   50.2880 C   0  0  0  0  0  0  0  0  0  0  0  0
   37.5920   30.2690   51.5010 O   0  0  0  0  0  0  0  0  0  0  0  0
   36.1210   29.3330   49.9220 C   0  0  0  0  0  0  0  0  0  0  0  0
   35.0070   29.1790   50.9020 C   0  0  0  0  0  0  0  0  0  0  0  0
   34.8230   30.0480   49.6830 C   0  0  0  0  0  0  0  0  0  0  0  0
   38.1534   32.7241   50.5673 H   0  0  0  0  0  0  0  0  0  0  0  0
   39.2481   34.1119   48.7355 H   0  0  0  0  0  0  0  0  0  0  0  0
   38.7695   30.8613   46.0434 H   0  0  0  0  0  0  0  0  0  0  0  0
   36.7492   28.6128   49.3773 H   0  0  0  0  0  0  0  0  0  0  0  0
   34.4720   28.2211   50.9803 H   0  0  0  0  0  0  0  0  0  0  0  0
   34.8993   29.3279   51.9865 H   0  0  0  0  0  0  0  0  0  0  0  0
   34.7681   31.1416   49.7884 H   0  0  0  0  0  0  0  0  0  0  0  0
   34.0964   30.0932   48.8584 H   0  0  0  0  0  0  0  0  0  0  0  0
  1  2  2  0
  1  7  1  0
  3  2  1  0
  4  3  2  0
  5  4  1  0
  5  6  2  0
  6  1  1  0
  7  8  2  0
  9  7  1  0
  9 10  1  0
 11  9  1  0
 11 10  1  0
  2 12  1  0
  3 13  1  0
  5 14  1  0
  9 15  1  0
 10 16  1  0
 10 17  1  0
 11 18  1  0
 11 19  1  0
M  ISO  8  12  14  13  14  14  14  15  13  16  13  17  13  18  13  19  13
M  END
>  <minimizedAffinity>  (1) 
-4.45132065

>  <minimizedRMSD>  (1) 
1.31264257

$$$$
