
     RDKit          3D

 33 35  0  0  0  0  0  0  0  0999 V2000
   35.6620   29.9800   48.6600 C   0  0  0  0  0  0  0  0  0  0  0  0
   35.7980   28.8760   49.5000 C   0  0  0  0  0  0  0  0  0  0  0  0
   34.6730   28.0870   49.3810 C   0  0  0  0  0  0  0  0  0  0  0  0
   33.8880   28.7190   48.4830 N   0  0  0  0  0  0  0  0  0  0  0  0
   34.4630   29.8090   48.0700 N   0  0  0  0  0  0  0  0  0  0  0  0
   30.0610   27.7190   47.0710 C   0  0  0  0  0  0  0  0  0  0  0  0
   30.9030   28.4400   46.2880 C   0  0  0  0  0  0  0  0  0  0  0  0
   32.1730   28.8000   46.6950 C   0  0  0  0  0  0  0  0  0  0  0  0
   32.6110   28.4200   47.9370 C   0  0  0  0  0  0  0  0  0  0  0  0
   31.7470   27.6900   48.7230 C   0  0  0  0  0  0  0  0  0  0  0  0
   30.4860   27.3310   48.3210 C   0  0  0  0  0  0  0  0  0  0  0  0
   28.4370   27.2780   46.5830 S   0  0  0  0  0  0  0  0  0  0  0  0
   28.3560   25.7790   46.4780 O   0  0  0  0  0  0  0  0  0  0  0  0
   27.4940   27.7840   47.6130 O   0  0  0  0  0  0  0  0  0  0  0  0
   28.1810   27.9270   44.9620 C   0  0  0  0  0  0  0  0  0  0  0  0
   37.9550   32.7960   49.3840 C   0  0  0  0  0  0  0  0  0  0  0  0
   38.7140   32.8040   48.2030 C   0  0  0  0  0  0  0  0  0  0  0  0
   38.4310   31.8660   47.2040 C   0  0  0  0  0  0  0  0  0  0  0  0
   37.4250   30.9850   47.4320 N   0  0  0  0  0  0  0  0  0  0  0  0
   36.7060   30.9930   48.5750 C   0  0  0  0  0  0  0  0  0  0  0  0
   36.9550   31.8880   49.5610 N   0  0  0  0  0  0  0  0  0  0  0  0
   36.6604   28.6683   50.1505 H   0  0  0  0  0  0  0  0  0  0  0  0
   34.4608   27.1439   49.9059 H   0  0  0  0  0  0  0  0  0  0  0  0
   30.5606   28.7500   45.2897 H   0  0  0  0  0  0  0  0  0  0  0  0
   32.8254   29.3849   46.0300 H   0  0  0  0  0  0  0  0  0  0  0  0
   32.0852   27.3796   49.7226 H   0  0  0  0  0  0  0  0  0  0  0  0
   29.8295   26.7465   48.9823 H   0  0  0  0  0  0  0  0  0  0  0  0
   27.7783   28.9480   45.0352 H   0  0  0  0  0  0  0  0  0  0  0  0
   29.1381   27.9483   44.4202 H   0  0  0  0  0  0  0  0  0  0  0  0
   27.4671   27.2892   44.4202 H   0  0  0  0  0  0  0  0  0  0  0  0
   38.1699   33.5303   50.1744 H   0  0  0  0  0  0  0  0  0  0  0  0
   39.5211   33.5385   48.0647 H   0  0  0  0  0  0  0  0  0  0  0  0
   39.0047   31.8438   46.2657 H   0  0  0  0  0  0  0  0  0  0  0  0
  1  2  1  0
  3  2  2  0
  4  3  1  0
  5  4  1  0
  5  1  2  0
  6 11  2  0
  7  8  2  0
  7  6  1  0
  8  9  1  0
  9  4  1  0
  9 10  2  0
 11 10  1  0
 12  6  1  0
 12 14  2  0
 13 12  2  0
 15 12  1  0
 16 21  2  0
 17 16  1  0
 18 19  1  0
 18 17  2  0
 19 20  2  0
 20  1  1  0
 20 21  1  0
  2 22  1  0
  3 23  1  0
  7 24  1  0
  8 25  1  0
 10 26  1  0
 11 27  1  0
 15 28  1  0
 15 29  1  0
 15 30  1  0
 16 31  1  0
 17 32  1  0
 18 33  1  0
M  ISO  8  22  14  23  14  24  14  25  14  26  14  27  14  28   8  29   8
M  ISO  4  30   8  31  14  32  14  33  14
M  END
>  <minimizedAffinity>  (1) 
-5.33788967

>  <minimizedRMSD>  (1) 
0.169685885

$$$$
