
     RDKit          3D

 24 25  0  0  0  0  0  0  0  0999 V2000
   38.5440   32.0980   48.0650 C   0  0  0  0  0  0  0  0  0  0  0  0
   38.4370   32.6720   49.3310 C   0  0  0  0  0  0  0  0  0  0  0  0
   39.1270   33.8770   49.5970 C   0  0  0  0  0  0  0  0  0  0  0  0
   39.8700   34.4090   48.5740 N   0  0  0  0  0  0  0  0  0  0  0  0
   39.9380   33.8120   47.3700 C   0  0  0  0  0  0  0  0  0  0  0  0
   39.2930   32.6760   47.1000 N   0  0  0  0  0  0  0  0  0  0  0  0
   37.8170   30.8760   47.8610 C   0  0  0  0  0  0  0  0  0  0  0  0
   37.8990   30.1300   46.8420 O   0  0  0  0  0  0  0  0  0  0  0  0
   36.8820   30.3010   48.7660 N   0  0  0  0  0  0  0  0  0  0  0  0
   37.2510   29.3640   49.7960 C   0  0  0  0  0  0  0  0  0  0  0  0
   36.1450   29.5190   50.8250 C   0  0  0  0  0  0  0  0  0  0  0  0
   34.9330   29.9310   50.0270 C   0  0  0  0  0  0  0  0  0  0  0  0
   35.4790   30.5620   48.7890 C   0  0  0  0  0  0  0  0  0  0  0  0
   37.8253   32.1948   50.1108 H   0  0  0  0  0  0  0  0  0  0  0  0
   39.0705   34.3662   50.5806 H   0  0  0  0  0  0  0  0  0  0  0  0
   40.5468   34.2771   46.5807 H   0  0  0  0  0  0  0  0  0  0  0  0
   37.2810   28.3374   49.4019 H   0  0  0  0  0  0  0  0  0  0  0  0
   38.2524   29.5530   50.2100 H   0  0  0  0  0  0  0  0  0  0  0  0
   35.9621   28.5666   51.3440 H   0  0  0  0  0  0  0  0  0  0  0  0
   36.4005   30.2541   51.6024 H   0  0  0  0  0  0  0  0  0  0  0  0
   34.3198   29.0532   49.7750 H   0  0  0  0  0  0  0  0  0  0  0  0
   34.2839   30.6190   50.5886 H   0  0  0  0  0  0  0  0  0  0  0  0
   35.2977   31.6468   48.8074 H   0  0  0  0  0  0  0  0  0  0  0  0
   34.9906   30.1511   47.8931 H   0  0  0  0  0  0  0  0  0  0  0  0
  1  2  2  0
  2  3  1  0
  4  3  2  0
  5  4  1  0
  6  5  2  0
  6  1  1  0
  7  1  1  0
  7  9  1  0
  8  7  2  0
  9 13  1  0
  9 10  1  0
 10 11  1  0
 12 11  1  0
 13 12  1  0
  2 14  1  0
  3 15  1  0
  5 16  1  0
 10 17  1  0
 10 18  1  0
 11 19  1  0
 11 20  1  0
 12 21  1  0
 12 22  1  0
 13 23  1  0
 13 24  1  0
M  ISO  8  14  14  15  14  16  14  17  13  18  13  19  13  20  13  21  13
M  ISO  3  22  13  23  13  24  13
M  END
>  <minimizedAffinity>  (1) 
-4.33449316

>  <minimizedRMSD>  (1) 
3.54241657

$$$$
