
     RDKit          3D

 18 19  0  0  0  0  0  0  0  0999 V2000
   38.2940   32.9000   48.7030 C   0  0  0  0  0  0  0  0  0  0  0  0
   39.1680   33.9430   49.0050 C   0  0  0  0  0  0  0  0  0  0  0  0
   40.1280   34.2540   48.0310 C   0  0  0  0  0  0  0  0  0  0  0  0
   40.1700   33.5530   46.8710 N   0  0  0  0  0  0  0  0  0  0  0  0
   39.3050   32.5530   46.6240 C   0  0  0  0  0  0  0  0  0  0  0  0
   38.3710   32.2230   47.5260 N   0  0  0  0  0  0  0  0  0  0  0  0
   37.2790   32.5310   49.6660 C   0  0  0  0  0  0  0  0  0  0  0  0
   36.6530   33.3870   50.3640 O   0  0  0  0  0  0  0  0  0  0  0  0
   36.9430   31.1030   49.8670 C   0  0  0  0  0  0  0  0  0  0  0  0
   35.7080   30.6970   49.3680 C   0  0  0  0  0  0  0  0  0  0  0  0
   35.6640   28.8800   49.8100 S   0  0  0  0  0  0  0  0  0  0  0  0
   37.3780   29.0370   50.6080 C   0  0  0  0  0  0  0  0  0  0  0  0
   37.6280   30.1380   50.4480 N   0  0  0  0  0  0  0  0  0  0  0  0
   39.1080   34.4926   49.9560 H   0  0  0  0  0  0  0  0  0  0  0  0
   40.8473   35.0671   48.2082 H   0  0  0  0  0  0  0  0  0  0  0  0
   39.3650   32.0018   45.6739 H   0  0  0  0  0  0  0  0  0  0  0  0
   34.9479   31.2955   48.8445 H   0  0  0  0  0  0  0  0  0  0  0  0
   37.9802   28.2601   51.1017 H   0  0  0  0  0  0  0  0  0  0  0  0
  1  2  2  0
  1  7  1  0
  3  2  1  0
  4  3  2  0
  5  4  1  0
  5  6  2  0
  6  1  1  0
  7  9  1  0
  7  8  2  0
  9 13  1  0
 10 11  1  0
 10  9  2  0
 11 12  1  0
 13 12  2  0
  2 14  1  0
  3 15  1  0
  5 16  1  0
 10 17  1  0
 12 18  1  0
M  ISO  5  14  14  15  14  16  14  17  14  18  14
M  END
>  <minimizedAffinity>  (1) 
-3.8845911

>  <minimizedRMSD>  (1) 
2.94035935

$$$$
