
     RDKit          3D

 13 13  0  0  0  0  0  0  0  0999 V2000
   37.9370   30.7800   49.4450 C   0  0  0  0  0  0  0  0  0  0  0  0
   38.3790   32.0850   49.6580 C   0  0  0  0  0  0  0  0  0  0  0  0
   38.6040   32.8750   48.4980 C   0  0  0  0  0  0  0  0  0  0  0  0
   38.3790   32.3180   47.2870 N   0  0  0  0  0  0  0  0  0  0  0  0
   37.9480   31.0390   47.1450 C   0  0  0  0  0  0  0  0  0  0  0  0
   37.7280   30.2720   48.2210 N   0  0  0  0  0  0  0  0  0  0  0  0
   37.7130   29.9910   50.6370 C   0  0  0  0  0  0  0  0  0  0  0  0
   37.1480   30.3950   51.6990 O   0  0  0  0  0  0  0  0  0  0  0  0
   38.0920   28.6490   50.7930 O   0  0  0  0  0  0  0  0  0  0  0  0
   38.5448   32.4823   50.6703 H   0  0  0  0  0  0  0  0  0  0  0  0
   38.9529   33.9147   48.5836 H   0  0  0  0  0  0  0  0  0  0  0  0
   37.7780   30.6290   46.1385 H   0  0  0  0  0  0  0  0  0  0  0  0
   37.9028   28.1767   51.6423 H   0  0  0  0  0  0  0  0  0  0  0  0
  1  2  2  0
  1  7  1  0
  3  2  1  0
  4  3  2  0
  5  4  1  0
  5  6  2  0
  6  1  1  0
  7  9  1  0
  7  8  2  0
  2 10  1  0
  3 11  1  0
  5 12  1  0
  9 13  1  0
M  ISO  4  10  14  11  14  12  14  13   3
M  END
>  <minimizedAffinity>  (1) 
-3.65864253

>  <minimizedRMSD>  (1) 
0.610161662

$$$$
