
     RDKit          3D

 14 14  0  0  0  0  0  0  0  0999 V2000
   37.8700   30.8760   49.2430 C   0  0  0  0  0  0  0  0  0  0  0  0
   38.3030   32.1530   49.5970 C   0  0  0  0  0  0  0  0  0  0  0  0
   38.8570   32.9470   48.5610 C   0  0  0  0  0  0  0  0  0  0  0  0
   38.9290   32.4220   47.3000 N   0  0  0  0  0  0  0  0  0  0  0  0
   38.4900   31.1790   47.0300 C   0  0  0  0  0  0  0  0  0  0  0  0
   37.9630   30.4020   47.9770 N   0  0  0  0  0  0  0  0  0  0  0  0
   37.3080   30.0820   50.3100 C   0  0  0  0  0  0  0  0  0  0  0  0
   37.4890   30.2980   51.5480 O   0  0  0  0  0  0  0  0  0  0  0  0
   36.4870   28.9640   49.9080 N   0  0  0  0  0  0  0  0  0  0  0  0
   38.2191   32.5260   50.6284 H   0  0  0  0  0  0  0  0  0  0  0  0
   39.2214   33.9642   48.7672 H   0  0  0  0  0  0  0  0  0  0  0  0
   38.5678   30.7942   46.0024 H   0  0  0  0  0  0  0  0  0  0  0  0
   36.0567   28.3583   50.6213 H   0  0  0  0  0  0  0  0  0  0  0  0
   36.3318   28.7723   48.9080 H   0  0  0  0  0  0  0  0  0  0  0  0
  1  2  2  0
  1  7  1  0
  3  2  1  0
  4  3  2  0
  5  4  1  0
  5  6  2  0
  6  1  1  0
  7  8  2  0
  9  7  1  0
  2 10  1  0
  3 11  1  0
  5 12  1  0
  9 13  1  0
  9 14  1  0
M  ISO  3  10  14  11  14  12  14
M  END
>  <minimizedAffinity>  (1) 
-3.61465812

>  <minimizedRMSD>  (1) 
0.892042041

$$$$
