
     RDKit          3D

 35 38  0  0  1  0  0  0  0  0999 V2000
   38.6070   32.1500   47.9650 C   0  0  1  0  0  0  0  0  0  0  0  0
   37.9290   31.2460   48.8890 C   0  0  0  0  0  0  0  0  0  0  0  0
   38.4230   31.0980   50.1180 N   0  0  0  0  0  0  0  0  0  0  0  0
   37.8670   30.2730   51.0410 C   0  0  0  0  0  0  0  0  0  0  0  0
   36.7780   29.5490   50.7860 N   0  0  0  0  0  0  0  0  0  0  0  0
   36.1930   29.6280   49.5650 C   0  0  0  0  0  0  0  0  0  0  0  0
   35.0780   28.8920   49.2670 C   0  0  0  0  0  0  0  0  0  0  0  0
   34.4870   28.9600   48.0410 C   0  0  0  0  0  0  0  0  0  0  0  0
   35.0710   29.8060   47.1260 C   0  0  0  0  0  0  0  0  0  0  0  0
   36.1890   30.5290   47.4590 C   0  0  0  0  0  0  0  0  0  0  0  0
   36.8030   30.4780   48.6810 C   0  0  0  0  0  0  0  0  0  0  0  0
   39.1080   32.0020   46.6280 C   0  0  0  0  0  0  0  0  0  0  0  0
   39.8310   33.1410   46.2340 C   0  0  0  0  0  0  0  0  0  0  0  0
   40.5350   33.1230   44.9880 C   0  0  0  0  0  0  0  0  0  0  0  0
   40.4480   31.9830   44.2670 N   0  0  0  0  0  0  0  0  0  0  0  0
   39.7350   30.9020   44.6830 C   0  0  0  0  0  0  0  0  0  0  0  0
   39.0810   30.9100   45.8330 N   0  0  0  0  0  0  0  0  0  0  0  0
   39.7120   29.7220   43.8140 C   0  0  0  0  0  0  0  0  0  0  0  0
   40.4920   29.6120   42.6670 C   0  0  0  0  0  0  0  0  0  0  0  0
   40.2470   28.3760   42.0580 C   0  0  0  0  0  0  0  0  0  0  0  0
   39.3080   27.8080   42.9020 C   0  0  0  0  0  0  0  0  0  0  0  0
   39.0180   28.6020   43.9050 O   0  0  0  0  0  0  0  0  0  0  0  0
   38.2650   33.3500   48.4300 O   0  0  0  0  0  0  0  0  0  0  0  0
   39.5912   31.6775   47.8307 H   0  0  0  0  0  0  0  0  0  0  0  0
   38.3320   30.1994   52.0352 H   0  0  0  0  0  0  0  0  0  0  0  0
   34.6494   28.2307   50.0345 H   0  0  0  0  0  0  0  0  0  0  0  0
   33.5913   28.3704   47.7959 H   0  0  0  0  0  0  0  0  0  0  0  0
   34.6381   29.9035   46.1195 H   0  0  0  0  0  0  0  0  0  0  0  0
   36.6194   31.1923   46.6943 H   0  0  0  0  0  0  0  0  0  0  0  0
   39.8555   34.0347   46.8749 H   0  0  0  0  0  0  0  0  0  0  0  0
   41.1149   33.9891   44.6365 H   0  0  0  0  0  0  0  0  0  0  0  0
   41.1912   30.3763   42.2971 H   0  0  0  0  0  0  0  0  0  0  0  0
   40.6890   27.9606   41.1403 H   0  0  0  0  0  0  0  0  0  0  0  0
   38.8608   26.8145   42.7503 H   0  0  0  0  0  0  0  0  0  0  0  0
   38.2696   33.3339   49.4199 H   0  0  0  0  0  0  0  0  0  0  0  0
  1 23  1  0
  1  2  1  0
  2  3  2  0
  3  4  1  0
  5  4  2  0
  6  5  1  0
  7  6  2  0
  8  7  1  0
  9 10  1  0
  9  8  2  0
 10 11  2  0
 11  2  1  0
 11  6  1  0
 12  1  1  0
 13 12  2  0
 14 13  1  0
 15 16  1  0
 15 14  2  0
 16 17  2  0
 17 12  1  0
 18 22  1  0
 18 16  1  0
 19 18  2  0
 20 19  1  0
 20 21  2  0
 21 22  1  0
  1 24  1  1
  4 25  1  0
  7 26  1  0
  8 27  1  0
  9 28  1  0
 10 29  1  0
 13 30  1  0
 14 31  1  0
 19 32  1  0
 20 33  1  0
 21 34  1  0
 23 35  1  0
M  ISO  8  24   8  25  14  26  14  27  14  28  14  29  14  30  14  31  14
M  ISO  4  32  14  33  14  34  14  35   3
M  END
>  <minimizedAffinity>  (1) 
-7.09643936

>  <minimizedRMSD>  (1) 
0.753893495

$$$$
