
     RDKit          3D

 29 31  0  0  1  0  0  0  0  0999 V2000
   37.6850   31.1450   49.2370 C   0  0  0  0  0  0  0  0  0  0  0  0
   38.1640   30.9990   50.4680 N   0  0  0  0  0  0  0  0  0  0  0  0
   37.5770   30.2130   51.4050 C   0  0  0  0  0  0  0  0  0  0  0  0
   36.4640   29.5250   51.1560 N   0  0  0  0  0  0  0  0  0  0  0  0
   35.8860   29.6020   49.9300 C   0  0  0  0  0  0  0  0  0  0  0  0
   34.7520   28.9020   49.6540 C   0  0  0  0  0  0  0  0  0  0  0  0
   34.1660   28.9680   48.4260 C   0  0  0  0  0  0  0  0  0  0  0  0
   34.7840   29.7790   47.4830 C   0  0  0  0  0  0  0  0  0  0  0  0
   35.9240   30.4640   47.8080 C   0  0  0  0  0  0  0  0  0  0  0  0
   36.5330   30.4130   49.0370 C   0  0  0  0  0  0  0  0  0  0  0  0
   38.3940   32.0110   48.2980 C   0  0  1  0  0  0  0  0  0  0  0  0
   38.9200   31.8140   46.9780 C   0  0  0  0  0  0  0  0  0  0  0  0
   39.6160   32.9540   46.5430 C   0  0  0  0  0  0  0  0  0  0  0  0
   40.3470   32.8950   45.3000 C   0  0  0  0  0  0  0  0  0  0  0  0
   40.2990   31.7140   44.6370 N   0  0  0  0  0  0  0  0  0  0  0  0
   39.6070   30.6420   45.1010 C   0  0  0  0  0  0  0  0  0  0  0  0
   38.9300   30.6790   46.2410 N   0  0  0  0  0  0  0  0  0  0  0  0
   39.6640   29.5130   44.2930 O   0  0  0  0  0  0  0  0  0  0  0  0
   38.0550   33.2300   48.7170 O   0  0  0  0  0  0  0  0  0  0  0  0
   38.0350   30.1415   52.4026 H   0  0  0  0  0  0  0  0  0  0  0  0
   34.3012   28.2725   50.4354 H   0  0  0  0  0  0  0  0  0  0  0  0
   33.2490   28.4069   48.1929 H   0  0  0  0  0  0  0  0  0  0  0  0
   34.3569   29.8711   46.4735 H   0  0  0  0  0  0  0  0  0  0  0  0
   36.3819   31.0967   47.0334 H   0  0  0  0  0  0  0  0  0  0  0  0
   39.3761   31.5252   48.2007 H   0  0  0  0  0  0  0  0  0  0  0  0
   39.6040   33.8775   47.1406 H   0  0  0  0  0  0  0  0  0  0  0  0
   40.9098   33.7575   44.9136 H   0  0  0  0  0  0  0  0  0  0  0  0
   39.1860   28.6883   44.5603 H   0  0  0  0  0  0  0  0  0  0  0  0
   38.0497   33.2491   49.7068 H   0  0  0  0  0  0  0  0  0  0  0  0
  1  2  2  0
  2  3  1  0
  4  3  2  0
  5  4  1  0
  6  5  2  0
  7  6  1  0
  8  9  1  0
  8  7  2  0
  9 10  2  0
 10  1  1  0
 10  5  1  0
 11 19  1  0
 11  1  1  0
 12 11  1  0
 13 12  2  0
 14 13  1  0
 15 16  1  0
 15 14  2  0
 16 17  2  0
 17 12  1  0
 18 16  1  0
  3 20  1  0
  6 21  1  0
  7 22  1  0
  8 23  1  0
  9 24  1  0
 11 25  1  1
 13 26  1  0
 14 27  1  0
 18 28  1  0
 19 29  1  0
M  ISO  8  20  14  21  14  22  14  23  14  24  14  25   8  26  14  27  14
M  ISO  2  28   3  29   3
M  END
>  <minimizedAffinity>  (1) 
-7.00492287

>  <minimizedRMSD>  (1) 
0.175902918

$$$$
