
     RDKit          3D

 31 33  0  0  1  0  0  0  0  0999 V2000
   38.4940   32.0350   48.0270 C   0  0  1  0  0  0  0  0  0  0  0  0
   37.8050   31.1820   48.9930 C   0  0  0  0  0  0  0  0  0  0  0  0
   38.3220   31.0440   50.2140 N   0  0  0  0  0  0  0  0  0  0  0  0
   37.7550   30.2690   51.1740 C   0  0  0  0  0  0  0  0  0  0  0  0
   36.6320   29.5820   50.9630 N   0  0  0  0  0  0  0  0  0  0  0  0
   36.0230   29.6550   49.7490 C   0  0  0  0  0  0  0  0  0  0  0  0
   34.8670   28.9650   49.5000 C   0  0  0  0  0  0  0  0  0  0  0  0
   34.2420   29.0300   48.2940 C   0  0  0  0  0  0  0  0  0  0  0  0
   34.8380   29.8280   47.3430 C   0  0  0  0  0  0  0  0  0  0  0  0
   35.9980   30.5070   47.6270 C   0  0  0  0  0  0  0  0  0  0  0  0
   36.6430   30.4530   48.8320 C   0  0  0  0  0  0  0  0  0  0  0  0
   38.9750   31.8190   46.6910 C   0  0  0  0  0  0  0  0  0  0  0  0
   39.8880   32.8190   46.3220 C   0  0  0  0  0  0  0  0  0  0  0  0
   40.6000   32.7040   45.0780 C   0  0  0  0  0  0  0  0  0  0  0  0
   40.3210   31.6030   44.3400 N   0  0  0  0  0  0  0  0  0  0  0  0
   39.4250   30.6590   44.7340 C   0  0  0  0  0  0  0  0  0  0  0  0
   38.7690   30.7610   45.8760 N   0  0  0  0  0  0  0  0  0  0  0  0
   39.2390   29.5350   43.8210 C   0  0  0  0  0  0  0  0  0  0  0  0
   38.0750   29.0710   43.6430 O   0  0  0  0  0  0  0  0  0  0  0  0
   40.2920   28.9480   43.1320 O   0  0  0  0  0  0  0  0  0  0  0  0
   38.1900   33.2560   48.4490 O   0  0  0  0  0  0  0  0  0  0  0  0
   39.4677   31.5400   47.8970 H   0  0  0  0  0  0  0  0  0  0  0  0
   38.2389   30.2058   52.1598 H   0  0  0  0  0  0  0  0  0  0  0  0
   34.4327   28.3421   50.2958 H   0  0  0  0  0  0  0  0  0  0  0  0
   33.3134   28.4768   48.0898 H   0  0  0  0  0  0  0  0  0  0  0  0
   34.3811   29.9226   46.3469 H   0  0  0  0  0  0  0  0  0  0  0  0
   36.4356   31.1334   46.8357 H   0  0  0  0  0  0  0  0  0  0  0  0
   40.0577   33.6843   46.9796 H   0  0  0  0  0  0  0  0  0  0  0  0
   41.3251   33.4619   44.7468 H   0  0  0  0  0  0  0  0  0  0  0  0
   40.1215   28.1870   42.5221 H   0  0  0  0  0  0  0  0  0  0  0  0
   38.1861   33.2716   49.4389 H   0  0  0  0  0  0  0  0  0  0  0  0
  1 21  1  0
  1  2  1  0
  2  3  2  0
  3  4  1  0
  5  4  2  0
  6  5  1  0
  7  6  2  0
  8  7  1  0
  9 10  1  0
  9  8  2  0
 10 11  2  0
 11  2  1  0
 11  6  1  0
 12  1  1  0
 13 12  2  0
 14 13  1  0
 15 16  1  0
 15 14  2  0
 16 17  2  0
 17 12  1  0
 18 16  1  0
 19 18  2  0
 20 18  1  0
  1 22  1  1
  4 23  1  0
  7 24  1  0
  8 25  1  0
  9 26  1  0
 10 27  1  0
 13 28  1  0
 14 29  1  0
 20 30  1  0
 21 31  1  0
M  ISO  8  22   8  23  14  24  14  25  14  26  14  27  14  28  14  29  14
M  ISO  2  30   3  31   3
M  END
>  <minimizedAffinity>  (1) 
-6.94971848

>  <minimizedRMSD>  (1) 
0.60915041

$$$$
