
     RDKit          3D

 21 23  0  0  0  0  0  0  0  0999 V2000
   40.4760   31.4990   45.6000 C   0  0  0  0  0  0  0  0  0  0  0  0
   40.2340   32.4030   44.5530 C   0  0  0  0  0  0  0  0  0  0  0  0
   38.9130   32.8020   44.3140 C   0  0  0  0  0  0  0  0  0  0  0  0
   37.9320   32.2960   45.1040 N   0  0  0  0  0  0  0  0  0  0  0  0
   38.1960   31.4250   46.1060 C   0  0  0  0  0  0  0  0  0  0  0  0
   39.4600   31.0320   46.3480 N   0  0  0  0  0  0  0  0  0  0  0  0
   37.1870   30.8790   46.9490 N   0  0  0  0  0  0  0  0  0  0  0  0
   35.9940   30.4370   46.5140 C   0  0  0  0  0  0  0  0  0  0  0  0
   35.2720   29.9850   47.5550 N   0  0  0  0  0  0  0  0  0  0  0  0
   36.0320   30.1480   48.6520 C   0  0  0  0  0  0  0  0  0  0  0  0
   35.7350   29.8340   49.9710 C   0  0  0  0  0  0  0  0  0  0  0  0
   36.6980   30.1090   50.8930 N   0  0  0  0  0  0  0  0  0  0  0  0
   37.8840   30.6620   50.5190 C   0  0  0  0  0  0  0  0  0  0  0  0
   38.1630   30.9650   49.2180 N   0  0  0  0  0  0  0  0  0  0  0  0
   37.2470   30.7140   48.2800 C   0  0  0  0  0  0  0  0  0  0  0  0
   41.5044   31.1701   45.8102 H   0  0  0  0  0  0  0  0  0  0  0  0
   41.0601   32.7876   43.9369 H   0  0  0  0  0  0  0  0  0  0  0  0
   38.6760   33.5088   43.5051 H   0  0  0  0  0  0  0  0  0  0  0  0
   35.6593   30.4440   45.4662 H   0  0  0  0  0  0  0  0  0  0  0  0
   34.7716   29.3863   50.2564 H   0  0  0  0  0  0  0  0  0  0  0  0
   38.6410   30.8712   51.2892 H   0  0  0  0  0  0  0  0  0  0  0  0
  1  6  2  0
  2  1  1  0
  3  2  2  0
  3  4  1  0
  4  5  2  0
  5  6  1  0
  5  7  1  0
  7 15  1  0
  8  7  1  0
  8  9  2  0
  9 10  1  0
 10 11  2  0
 11 12  1  0
 13 12  2  0
 14 13  1  0
 15 10  1  0
 15 14  2  0
  1 16  1  0
  2 17  1  0
  3 18  1  0
  8 19  1  0
 11 20  1  0
 13 21  1  0
M  ISO  6  16  14  17  14  18  14  19  14  20  14  21  14
M  END
>  <minimizedAffinity>  (1) 
-5.11363697

>  <minimizedRMSD>  (1) 
5.36002159

$$$$
