
     RDKit          3D

 33 36  0  0  1  0  0  0  0  0999 V2000
   38.6070   32.2070   48.0170 C   0  0  1  0  0  0  0  0  0  0  0  0
   37.9390   31.2660   48.9150 C   0  0  0  0  0  0  0  0  0  0  0  0
   38.4270   31.1000   50.1450 N   0  0  0  0  0  0  0  0  0  0  0  0
   37.8820   30.2390   51.0430 C   0  0  0  0  0  0  0  0  0  0  0  0
   36.8140   29.4940   50.7580 N   0  0  0  0  0  0  0  0  0  0  0  0
   36.2380   29.5920   49.5300 C   0  0  0  0  0  0  0  0  0  0  0  0
   35.1350   28.8470   49.2150 C   0  0  0  0  0  0  0  0  0  0  0  0
   34.5420   28.9460   47.9930 C   0  0  0  0  0  0  0  0  0  0  0  0
   35.1100   29.8280   47.1050 C   0  0  0  0  0  0  0  0  0  0  0  0
   36.2210   30.5590   47.4570 C   0  0  0  0  0  0  0  0  0  0  0  0
   36.8330   30.4760   48.6750 C   0  0  0  0  0  0  0  0  0  0  0  0
   39.1140   32.0930   46.6760 C   0  0  0  0  0  0  0  0  0  0  0  0
   39.7960   33.2590   46.2990 C   0  0  0  0  0  0  0  0  0  0  0  0
   40.4950   33.3030   45.0440 C   0  0  0  0  0  0  0  0  0  0  0  0
   40.4320   32.1690   44.3020 N   0  0  0  0  0  0  0  0  0  0  0  0
   39.7580   31.0570   44.7010 C   0  0  0  0  0  0  0  0  0  0  0  0
   39.1180   31.0220   45.8530 N   0  0  0  0  0  0  0  0  0  0  0  0
   39.7120   29.8550   43.8690 C   0  0  0  0  0  0  0  0  0  0  0  0
   40.5340   29.6220   42.8030 N   0  0  0  0  0  0  0  0  0  0  0  0
   40.2770   28.4870   42.2510 O   0  0  0  0  0  0  0  0  0  0  0  0
   39.2900   27.9300   42.9200 C   0  0  0  0  0  0  0  0  0  0  0  0
   38.9120   28.7510   43.9330 N   0  0  0  0  0  0  0  0  0  0  0  0
   38.2420   33.3850   48.5070 O   0  0  0  0  0  0  0  0  0  0  0  0
   39.6083   31.7718   47.8825 H   0  0  0  0  0  0  0  0  0  0  0  0
   38.3379   30.1535   52.0404 H   0  0  0  0  0  0  0  0  0  0  0  0
   34.7193   28.1552   49.9624 H   0  0  0  0  0  0  0  0  0  0  0  0
   33.6548   28.3511   47.7304 H   0  0  0  0  0  0  0  0  0  0  0  0
   34.6721   29.9505   46.1034 H   0  0  0  0  0  0  0  0  0  0  0  0
   36.6414   31.2516   46.7130 H   0  0  0  0  0  0  0  0  0  0  0  0
   39.7959   34.1370   46.9617 H   0  0  0  0  0  0  0  0  0  0  0  0
   41.0436   34.1953   44.7080 H   0  0  0  0  0  0  0  0  0  0  0  0
   38.8412   26.9516   42.6936 H   0  0  0  0  0  0  0  0  0  0  0  0
   38.2532   33.3487   49.4963 H   0  0  0  0  0  0  0  0  0  0  0  0
  1 23  1  0
  1  2  1  0
  2  3  2  0
  3  4  1  0
  5  4  2  0
  6  5  1  0
  7  6  2  0
  8  7  1  0
  9 10  1  0
  9  8  2  0
 10 11  2  0
 11  2  1  0
 11  6  1  0
 12  1  1  0
 13 12  2  0
 14 13  1  0
 15 16  1  0
 15 14  2  0
 16 17  2  0
 17 12  1  0
 18 22  1  0
 18 16  1  0
 19 18  2  0
 20 19  1  0
 20 21  1  0
 21 22  2  0
  1 24  1  1
  4 25  1  0
  7 26  1  0
  8 27  1  0
  9 28  1  0
 10 29  1  0
 13 30  1  0
 14 31  1  0
 21 32  1  0
 23 33  1  0
M  ISO  8  24   8  25  14  26  14  27  14  28  14  29  14  30  14  31  14
M  ISO  2  32  14  33   3
M  END
>  <minimizedAffinity>  (1) 
-6.92621613

>  <minimizedRMSD>  (1) 
0.692048132

$$$$
