
     RDKit          3D

 37 39  0  0  1  0  0  0  0  0999 V2000
   37.7650   31.1610   49.0550 C   0  0  0  0  0  0  0  0  0  0  0  0
   38.2740   31.0240   50.2770 N   0  0  0  0  0  0  0  0  0  0  0  0
   37.7010   30.2570   51.2370 C   0  0  0  0  0  0  0  0  0  0  0  0
   36.5760   29.5780   51.0250 N   0  0  0  0  0  0  0  0  0  0  0  0
   35.9790   29.6480   49.8280 C   0  0  0  0  0  0  0  0  0  0  0  0
   34.8170   28.9540   49.5480 C   0  0  0  0  0  0  0  0  0  0  0  0
   34.2090   29.0100   48.3310 C   0  0  0  0  0  0  0  0  0  0  0  0
   34.8140   29.7980   47.3870 C   0  0  0  0  0  0  0  0  0  0  0  0
   35.9680   30.4810   47.6790 C   0  0  0  0  0  0  0  0  0  0  0  0
   36.6000   30.4440   48.8860 C   0  0  0  0  0  0  0  0  0  0  0  0
   38.4670   32.0040   48.0900 C   0  0  1  0  0  0  0  0  0  0  0  0
   38.9570   31.7840   46.7600 C   0  0  0  0  0  0  0  0  0  0  0  0
   39.8620   32.7920   46.3860 C   0  0  0  0  0  0  0  0  0  0  0  0
   40.5760   32.6750   45.1380 C   0  0  0  0  0  0  0  0  0  0  0  0
   40.3020   31.5670   44.4070 N   0  0  0  0  0  0  0  0  0  0  0  0
   39.4140   30.6180   44.8090 C   0  0  0  0  0  0  0  0  0  0  0  0
   38.7610   30.7230   45.9500 N   0  0  0  0  0  0  0  0  0  0  0  0
   39.1740   29.4300   43.9370 C   0  0  0  0  0  0  0  0  0  0  0  0
   40.0800   29.4550   42.7180 C   0  0  0  0  0  0  0  0  0  0  0  0
   37.7160   29.3280   43.5370 C   0  0  0  0  0  0  0  0  0  0  0  0
   38.1710   33.2330   48.5100 O   0  0  0  0  0  0  0  0  0  0  0  0
   38.1820   30.1937   52.2242 H   0  0  0  0  0  0  0  0  0  0  0  0
   34.3670   28.3338   50.3372 H   0  0  0  0  0  0  0  0  0  0  0  0
   33.2842   28.4540   48.1175 H   0  0  0  0  0  0  0  0  0  0  0  0
   34.3698   29.8840   46.3843 H   0  0  0  0  0  0  0  0  0  0  0  0
   36.4127   31.0998   46.8857 H   0  0  0  0  0  0  0  0  0  0  0  0
   39.4312   31.4906   47.9604 H   0  0  0  0  0  0  0  0  0  0  0  0
   40.0244   33.6622   47.0389 H   0  0  0  0  0  0  0  0  0  0  0  0
   41.2960   33.4355   44.8015 H   0  0  0  0  0  0  0  0  0  0  0  0
   39.4216   28.5304   44.5197 H   0  0  0  0  0  0  0  0  0  0  0  0
   41.1306   29.4840   43.0426 H   0  0  0  0  0  0  0  0  0  0  0  0
   39.9075   28.5518   42.1144 H   0  0  0  0  0  0  0  0  0  0  0  0
   39.8580   30.3474   42.1144 H   0  0  0  0  0  0  0  0  0  0  0  0
   37.0901   29.2842   44.4405 H   0  0  0  0  0  0  0  0  0  0  0  0
   37.4371   30.2088   42.9401 H   0  0  0  0  0  0  0  0  0  0  0  0
   37.5624   28.4169   42.9401 H   0  0  0  0  0  0  0  0  0  0  0  0
   38.1666   33.2513   49.4998 H   0  0  0  0  0  0  0  0  0  0  0  0
  1  2  2  0
  2  3  1  0
  4  3  2  0
  5  4  1  0
  6  5  2  0
  7  6  1  0
  8  9  1  0
  8  7  2  0
  9 10  2  0
 10  1  1  0
 10  5  1  0
 11 21  1  0
 11  1  1  0
 12 11  1  0
 13 12  2  0
 14 13  1  0
 15 16  1  0
 15 14  2  0
 16 17  2  0
 17 12  1  0
 18 16  1  0
 19 18  1  0
 20 18  1  0
  3 22  1  0
  6 23  1  0
  7 24  1  0
  8 25  1  0
  9 26  1  0
 11 27  1  1
 13 28  1  0
 14 29  1  0
 18 30  1  0
 19 31  1  0
 19 32  1  0
 19 33  1  0
 20 34  1  0
 20 35  1  0
 20 36  1  0
 21 37  1  0
M  ISO  8  22  14  23  14  24  14  25  14  26  14  27   8  28  14  29  14
M  ISO  8  30   8  31   8  32   8  33   8  34   8  35   8  36   8  37   3
M  END
>  <minimizedAffinity>  (1) 
-6.88371468

>  <minimizedRMSD>  (1) 
0.603520572

$$$$
