
     RDKit          3D

 31 33  0  0  1  0  0  0  0  0999 V2000
   37.6430   31.0490   49.3360 C   0  0  0  0  0  0  0  0  0  0  0  0
   38.1290   30.8740   50.5630 N   0  0  0  0  0  0  0  0  0  0  0  0
   37.5320   30.0740   51.4850 C   0  0  0  0  0  0  0  0  0  0  0  0
   36.4100   29.4040   51.2240 N   0  0  0  0  0  0  0  0  0  0  0  0
   35.8280   29.5130   50.0050 C   0  0  0  0  0  0  0  0  0  0  0  0
   34.6830   28.8380   49.7180 C   0  0  0  0  0  0  0  0  0  0  0  0
   34.0900   28.9380   48.4980 C   0  0  0  0  0  0  0  0  0  0  0  0
   34.7150   29.7620   47.5680 C   0  0  0  0  0  0  0  0  0  0  0  0
   35.8690   30.4250   47.9010 C   0  0  0  0  0  0  0  0  0  0  0  0
   36.4800   30.3350   49.1250 C   0  0  0  0  0  0  0  0  0  0  0  0
   38.3600   31.9290   48.4140 C   0  0  1  0  0  0  0  0  0  0  0  0
   38.8410   31.7600   47.0720 C   0  0  0  0  0  0  0  0  0  0  0  0
   39.6680   32.8330   46.7000 C   0  0  0  0  0  0  0  0  0  0  0  0
   40.3720   32.7810   45.4550 C   0  0  0  0  0  0  0  0  0  0  0  0
   40.1790   31.6680   44.7130 N   0  0  0  0  0  0  0  0  0  0  0  0
   39.3670   30.6500   45.1050 C   0  0  0  0  0  0  0  0  0  0  0  0
   38.7140   30.6920   46.2540 N   0  0  0  0  0  0  0  0  0  0  0  0
   39.1820   29.4430   44.2490 C   0  0  0  0  0  0  0  0  0  0  0  0
   38.0760   33.1380   48.8880 O   0  0  0  0  0  0  0  0  0  0  0  0
   37.9902   29.9762   52.4802 H   0  0  0  0  0  0  0  0  0  0  0  0
   34.2271   28.1982   50.4880 H   0  0  0  0  0  0  0  0  0  0  0  0
   33.1636   28.3950   48.2591 H   0  0  0  0  0  0  0  0  0  0  0  0
   34.2832   29.8823   46.5635 H   0  0  0  0  0  0  0  0  0  0  0  0
   36.3327   31.0685   47.1389 H   0  0  0  0  0  0  0  0  0  0  0  0
   39.3302   31.4292   48.2766 H   0  0  0  0  0  0  0  0  0  0  0  0
   39.7736   33.7063   47.3605 H   0  0  0  0  0  0  0  0  0  0  0  0
   41.0301   33.5972   45.1223 H   0  0  0  0  0  0  0  0  0  0  0  0
   39.0463   28.5578   44.8877 H   0  0  0  0  0  0  0  0  0  0  0  0
   38.2938   29.5765   43.6139 H   0  0  0  0  0  0  0  0  0  0  0  0
   40.0694   29.3044   43.6139 H   0  0  0  0  0  0  0  0  0  0  0  0
   38.0816   33.1141   49.8777 H   0  0  0  0  0  0  0  0  0  0  0  0
  1  2  2  0
  2  3  1  0
  4  3  2  0
  5  4  1  0
  6  5  2  0
  7  6  1  0
  8  9  1  0
  8  7  2  0
  9 10  2  0
 10  1  1  0
 10  5  1  0
 11 19  1  0
 11  1  1  0
 12 11  1  0
 13 12  2  0
 14 13  1  0
 15 16  1  0
 15 14  2  0
 16 17  2  0
 17 12  1  0
 18 16  1  0
  3 20  1  0
  6 21  1  0
  7 22  1  0
  8 23  1  0
  9 24  1  0
 11 25  1  1
 13 26  1  0
 14 27  1  0
 18 28  1  0
 18 29  1  0
 18 30  1  0
 19 31  1  0
M  ISO  8  20  14  21  14  22  14  23  14  24  14  25   8  26  14  27  14
M  ISO  4  28   8  29   8  30   8  31   3
M  END
>  <minimizedAffinity>  (1) 
-6.75564432

>  <minimizedRMSD>  (1) 
0.206854373

$$$$
