
     RDKit          3D

 40 42  0  0  1  0  0  0  0  0999 V2000
   38.4400   31.2900   47.6390 C   0  0  1  0  0  0  0  0  0  0  0  0
   37.6000   30.4210   48.4950 C   0  0  0  0  0  0  0  0  0  0  0  0
   38.0740   29.9900   49.6640 N   0  0  0  0  0  0  0  0  0  0  0  0
   37.3630   29.2020   50.4940 C   0  0  0  0  0  0  0  0  0  0  0  0
   36.1360   28.7910   50.2150 N   0  0  0  0  0  0  0  0  0  0  0  0
   35.5460   29.1590   49.0640 C   0  0  0  0  0  0  0  0  0  0  0  0
   34.2870   28.7390   48.7450 C   0  0  0  0  0  0  0  0  0  0  0  0
   33.6940   29.0940   47.5890 C   0  0  0  0  0  0  0  0  0  0  0  0
   34.4320   29.9090   46.7370 C   0  0  0  0  0  0  0  0  0  0  0  0
   35.6980   30.3170   47.0850 C   0  0  0  0  0  0  0  0  0  0  0  0
   36.3120   29.9630   48.2520 C   0  0  0  0  0  0  0  0  0  0  0  0
   38.9610   31.0880   46.3200 C   0  0  0  0  0  0  0  0  0  0  0  0
   39.9390   32.0770   46.0580 C   0  0  0  0  0  0  0  0  0  0  0  0
   40.6980   32.0080   44.8460 C   0  0  0  0  0  0  0  0  0  0  0  0
   40.4170   30.9920   44.0370 N   0  0  0  0  0  0  0  0  0  0  0  0
   39.4640   30.0590   44.3200 C   0  0  0  0  0  0  0  0  0  0  0  0
   38.7590   30.1130   45.4340 N   0  0  0  0  0  0  0  0  0  0  0  0
   39.1390   28.9600   43.3620 C   0  0  0  0  0  0  0  0  0  0  0  0
   38.1550   32.4990   48.1180 O   0  0  0  0  0  0  0  0  0  0  0  0
   38.4740   32.9650   49.3250 C   0  0  0  0  0  0  0  0  0  0  0  0
   39.3600   34.1700   49.2120 C   0  0  0  0  0  0  0  0  0  0  0  0
   37.2150   33.5150   50.0690 C   0  0  0  0  0  0  0  0  0  0  0  0
   39.4491   30.8541   47.5979 H   0  0  0  0  0  0  0  0  0  0  0  0
   37.8213   28.8870   51.4431 H   0  0  0  0  0  0  0  0  0  0  0  0
   33.7426   28.0939   49.4503 H   0  0  0  0  0  0  0  0  0  0  0  0
   32.6789   28.7570   47.3320 H   0  0  0  0  0  0  0  0  0  0  0  0
   33.9995   30.2295   45.7777 H   0  0  0  0  0  0  0  0  0  0  0  0
   36.2464   30.9642   46.3847 H   0  0  0  0  0  0  0  0  0  0  0  0
   40.1141   32.8900   46.7779 H   0  0  0  0  0  0  0  0  0  0  0  0
   41.4689   32.7527   44.5989 H   0  0  0  0  0  0  0  0  0  0  0  0
   38.8706   28.0524   43.9225 H   0  0  0  0  0  0  0  0  0  0  0  0
   38.2923   29.2638   42.7290 H   0  0  0  0  0  0  0  0  0  0  0  0
   40.0148   28.7544   42.7290 H   0  0  0  0  0  0  0  0  0  0  0  0
   38.9484   32.1240   49.8520 H   0  0  0  0  0  0  0  0  0  0  0  0
   39.6229   34.5275   50.2185 H   0  0  0  0  0  0  0  0  0  0  0  0
   40.2770   33.9011   48.6673 H   0  0  0  0  0  0  0  0  0  0  0  0
   38.8298   34.9651   48.6673 H   0  0  0  0  0  0  0  0  0  0  0  0
   37.3721   33.4464   51.1556 H   0  0  0  0  0  0  0  0  0  0  0  0
   37.0528   34.5660   49.7876 H   0  0  0  0  0  0  0  0  0  0  0  0
   36.3337   32.9199   49.7876 H   0  0  0  0  0  0  0  0  0  0  0  0
  1 19  1  0
  1  2  1  0
  2  3  2  0
  3  4  1  0
  5  4  2  0
  6  5  1  0
  7  6  2  0
  8  7  1  0
  9 10  1  0
  9  8  2  0
 10 11  2  0
 11  2  1  0
 11  6  1  0
 12  1  1  0
 13 12  2  0
 14 13  1  0
 15 16  1  0
 15 14  2  0
 16 17  2  0
 17 12  1  0
 18 16  1  0
 19 20  1  0
 20 22  1  0
 21 20  1  0
  1 23  1  1
  4 24  1  0
  7 25  1  0
  8 26  1  0
  9 27  1  0
 10 28  1  0
 13 29  1  0
 14 30  1  0
 18 31  1  0
 18 32  1  0
 18 33  1  0
 20 34  1  0
 21 35  1  0
 21 36  1  0
 21 37  1  0
 22 38  1  0
 22 39  1  0
 22 40  1  0
M  ISO  8  23   8  24  14  25  14  26  14  27  14  28  14  29  14  30  14
M  ISO  8  31   8  32   8  33   8  34   8  35   8  36   8  37   8  38   8
M  ISO  2  39   8  40   8
M  END
>  <minimizedAffinity>  (1) 
-6.26789188

>  <minimizedRMSD>  (1) 
1.06197011

$$$$
