
     RDKit          3D

 45 48  0  0  1  0  0  0  0  0999 V2000
   38.6980   31.7880   48.1490 C   0  0  1  0  0  0  0  0  0  0  0  0
   37.8770   31.0490   49.0920 C   0  0  0  0  0  0  0  0  0  0  0  0
   38.3020   30.8850   50.3400 N   0  0  0  0  0  0  0  0  0  0  0  0
   37.5960   30.2010   51.2590 C   0  0  0  0  0  0  0  0  0  0  0  0
   36.4240   29.6340   50.9980 N   0  0  0  0  0  0  0  0  0  0  0  0
   35.8760   29.7250   49.7710 C   0  0  0  0  0  0  0  0  0  0  0  0
   34.6880   29.1510   49.4830 C   0  0  0  0  0  0  0  0  0  0  0  0
   34.1430   29.2440   48.2400 C   0  0  0  0  0  0  0  0  0  0  0  0
   34.8710   29.9570   47.3000 C   0  0  0  0  0  0  0  0  0  0  0  0
   36.0770   30.5250   47.6390 C   0  0  0  0  0  0  0  0  0  0  0  0
   36.6330   30.4390   48.8630 C   0  0  0  0  0  0  0  0  0  0  0  0
   39.0670   31.5580   46.7840 C   0  0  0  0  0  0  0  0  0  0  0  0
   39.8900   32.6150   46.3140 C   0  0  0  0  0  0  0  0  0  0  0  0
   40.4550   32.5340   44.9980 C   0  0  0  0  0  0  0  0  0  0  0  0
   40.1520   31.4410   44.3050 N   0  0  0  0  0  0  0  0  0  0  0  0
   39.3550   30.4480   44.7890 C   0  0  0  0  0  0  0  0  0  0  0  0
   38.8360   30.5180   45.9940 N   0  0  0  0  0  0  0  0  0  0  0  0
   38.9960   29.2720   43.9500 C   0  0  0  0  0  0  0  0  0  0  0  0
   37.7380   29.6890   43.2310 C   0  0  0  0  0  0  0  0  0  0  0  0
   37.6720   30.2820   41.9870 C   0  0  0  0  0  0  0  0  0  0  0  0
   36.4520   30.6100   41.4500 C   0  0  0  0  0  0  0  0  0  0  0  0
   35.2600   30.3770   42.0950 C   0  0  0  0  0  0  0  0  0  0  0  0
   35.3040   29.7920   43.3260 C   0  0  0  0  0  0  0  0  0  0  0  0
   36.5180   29.4570   43.8780 C   0  0  0  0  0  0  0  0  0  0  0  0
   38.4250   33.0880   48.5350 O   0  0  0  0  0  0  0  0  0  0  0  0
   39.2470   34.0250   49.1200 C   0  0  0  0  0  0  0  0  0  0  0  0
   39.7340   35.1890   48.3860 N   0  0  0  0  0  0  0  0  0  0  0  0
   39.6150   33.9190   50.3170 O   0  0  0  0  0  0  0  0  0  0  0  0
   39.6669   31.2693   48.1960 H   0  0  0  0  0  0  0  0  0  0  0  0
   38.0092   30.1072   52.2741 H   0  0  0  0  0  0  0  0  0  0  0  0
   34.1511   28.5981   50.2679 H   0  0  0  0  0  0  0  0  0  0  0  0
   33.1771   28.7787   47.9941 H   0  0  0  0  0  0  0  0  0  0  0  0
   34.4820   30.0691   46.2772 H   0  0  0  0  0  0  0  0  0  0  0  0
   36.6208   31.0837   46.8630 H   0  0  0  0  0  0  0  0  0  0  0  0
   40.0924   33.4874   46.9527 H   0  0  0  0  0  0  0  0  0  0  0  0
   41.0985   33.3265   44.5882 H   0  0  0  0  0  0  0  0  0  0  0  0
   39.7981   29.0480   43.2314 H   0  0  0  0  0  0  0  0  0  0  0  0
   38.8523   28.3603   44.5485 H   0  0  0  0  0  0  0  0  0  0  0  0
   38.5951   30.4915   41.4267 H   0  0  0  0  0  0  0  0  0  0  0  0
   36.4266   31.0816   40.4566 H   0  0  0  0  0  0  0  0  0  0  0  0
   34.3011   30.6538   41.6324 H   0  0  0  0  0  0  0  0  0  0  0  0
   34.3726   29.5890   43.8749 H   0  0  0  0  0  0  0  0  0  0  0  0
   36.5314   28.9859   44.8719 H   0  0  0  0  0  0  0  0  0  0  0  0
   40.3478   35.8721   48.8523 H   0  0  0  0  0  0  0  0  0  0  0  0
   39.4638   35.3272   47.4017 H   0  0  0  0  0  0  0  0  0  0  0  0
  1 25  1  0
  1  2  1  0
  2  3  2  0
  3  4  1  0
  5  4  2  0
  6  5  1  0
  7  6  2  0
  8  7  1  0
  9 10  1  0
  9  8  2  0
 10 11  2  0
 11  2  1  0
 11  6  1  0
 12  1  1  0
 13 12  2  0
 14 13  1  0
 15 16  1  0
 15 14  2  0
 16 17  2  0
 17 12  1  0
 18 16  1  0
 19 24  1  0
 19 18  1  0
 20 19  2  0
 21 20  1  0
 21 22  2  0
 22 23  1  0
 23 24  2  0
 25 26  1  0
 26 28  2  0
 27 26  1  0
  1 29  1  1
  4 30  1  0
  7 31  1  0
  8 32  1  0
  9 33  1  0
 10 34  1  0
 13 35  1  0
 14 36  1  0
 18 37  1  0
 18 38  1  0
 20 39  1  0
 21 40  1  0
 22 41  1  0
 23 42  1  0
 24 43  1  0
 27 44  1  0
 27 45  1  0
M  ISO  8  29   8  30  14  31  14  32  14  33  14  34  14  35  14  36  14
M  ISO  7  37   8  38   8  39  14  40  14  41  14  42  14  43  14
M  END
>  <minimizedAffinity>  (1) 
-6.96800041

>  <minimizedRMSD>  (1) 
0.256870717

$$$$
