
     RDKit          3D

 41 44  0  0  1  0  0  0  0  0999 V2000
   38.7050   31.7890   48.1430 C   0  0  1  0  0  0  0  0  0  0  0  0
   37.8870   31.0480   49.0890 C   0  0  0  0  0  0  0  0  0  0  0  0
   38.3180   30.8770   50.3340 N   0  0  0  0  0  0  0  0  0  0  0  0
   37.6180   30.1900   51.2520 C   0  0  0  0  0  0  0  0  0  0  0  0
   36.4460   29.6270   51.0020 N   0  0  0  0  0  0  0  0  0  0  0  0
   35.8890   29.7240   49.7770 C   0  0  0  0  0  0  0  0  0  0  0  0
   34.6920   29.1540   49.4820 C   0  0  0  0  0  0  0  0  0  0  0  0
   34.1450   29.2540   48.2580 C   0  0  0  0  0  0  0  0  0  0  0  0
   34.8670   29.9720   47.3120 C   0  0  0  0  0  0  0  0  0  0  0  0
   36.0770   30.5350   47.6470 C   0  0  0  0  0  0  0  0  0  0  0  0
   36.6410   30.4390   48.8670 C   0  0  0  0  0  0  0  0  0  0  0  0
   39.0680   31.5610   46.7770 C   0  0  0  0  0  0  0  0  0  0  0  0
   39.8830   32.6240   46.3060 C   0  0  0  0  0  0  0  0  0  0  0  0
   40.4430   32.5430   44.9890 C   0  0  0  0  0  0  0  0  0  0  0  0
   40.1480   31.4550   44.2940 N   0  0  0  0  0  0  0  0  0  0  0  0
   39.3570   30.4520   44.7790 C   0  0  0  0  0  0  0  0  0  0  0  0
   38.8390   30.5150   45.9880 N   0  0  0  0  0  0  0  0  0  0  0  0
   38.9960   29.2660   43.9500 C   0  0  0  0  0  0  0  0  0  0  0  0
   37.6960   29.6170   43.3590 N   0  0  0  0  0  0  0  0  0  0  0  0
   37.4670   30.2940   42.2090 C   0  0  0  0  0  0  0  0  0  0  0  0
   36.1630   30.4170   42.0050 N   0  0  0  0  0  0  0  0  0  0  0  0
   35.5390   29.8230   43.0190 C   0  0  0  0  0  0  0  0  0  0  0  0
   36.4920   29.3460   43.8250 N   0  0  0  0  0  0  0  0  0  0  0  0
   38.4230   33.0890   48.5300 O   0  0  0  0  0  0  0  0  0  0  0  0
   39.2440   34.0260   49.1220 C   0  0  0  0  0  0  0  0  0  0  0  0
   39.7300   35.1950   48.3910 N   0  0  0  0  0  0  0  0  0  0  0  0
   39.6090   33.9170   50.3180 O   0  0  0  0  0  0  0  0  0  0  0  0
   39.6780   31.2778   48.1886 H   0  0  0  0  0  0  0  0  0  0  0  0
   38.0400   30.0901   52.2629 H   0  0  0  0  0  0  0  0  0  0  0  0
   34.1565   28.5964   50.2645 H   0  0  0  0  0  0  0  0  0  0  0  0
   33.1763   28.7916   48.0177 H   0  0  0  0  0  0  0  0  0  0  0  0
   34.4701   30.0905   46.2930 H   0  0  0  0  0  0  0  0  0  0  0  0
   36.6170   31.0979   46.8714 H   0  0  0  0  0  0  0  0  0  0  0  0
   40.0820   33.4982   46.9434 H   0  0  0  0  0  0  0  0  0  0  0  0
   41.0815   33.3393   44.5789 H   0  0  0  0  0  0  0  0  0  0  0  0
   39.7476   29.0961   43.1650 H   0  0  0  0  0  0  0  0  0  0  0  0
   38.9524   28.3387   44.5401 H   0  0  0  0  0  0  0  0  0  0  0  0
   38.2490   30.6849   41.5414 H   0  0  0  0  0  0  0  0  0  0  0  0
   34.4519   29.7408   43.1651 H   0  0  0  0  0  0  0  0  0  0  0  0
   40.3421   35.8778   48.8600 H   0  0  0  0  0  0  0  0  0  0  0  0
   39.4603   35.3358   47.4069 H   0  0  0  0  0  0  0  0  0  0  0  0
  1 24  1  0
  1  2  1  0
  2  3  2  0
  3  4  1  0
  5  4  2  0
  6  5  1  0
  7  6  2  0
  8  7  1  0
  9 10  1  0
  9  8  2  0
 10 11  2  0
 11  2  1  0
 11  6  1  0
 12  1  1  0
 13 12  2  0
 14 13  1  0
 15 16  1  0
 15 14  2  0
 16 17  2  0
 17 12  1  0
 18 16  1  0
 19 23  1  0
 19 18  1  0
 20 19  1  0
 21 20  2  0
 21 22  1  0
 22 23  2  0
 24 25  1  0
 25 27  2  0
 26 25  1  0
  1 28  1  1
  4 29  1  0
  7 30  1  0
  8 31  1  0
  9 32  1  0
 10 33  1  0
 13 34  1  0
 14 35  1  0
 18 36  1  0
 18 37  1  0
 20 38  1  0
 22 39  1  0
 26 40  1  0
 26 41  1  0
M  ISO  8  28   8  29  14  30  14  31  14  32  14  33  14  34  14  35  14
M  ISO  4  36   8  37   8  38  14  39  14
M  END
>  <minimizedAffinity>  (1) 
-6.79413319

>  <minimizedRMSD>  (1) 
0.208407491

$$$$
