
     RDKit          3D

 42 44  0  0  1  0  0  0  0  0999 V2000
   38.7160   31.7670   48.1560 C   0  0  1  0  0  0  0  0  0  0  0  0
   37.8950   31.0320   49.1070 C   0  0  0  0  0  0  0  0  0  0  0  0
   38.3280   30.8600   50.3480 N   0  0  0  0  0  0  0  0  0  0  0  0
   37.6260   30.1790   51.2740 C   0  0  0  0  0  0  0  0  0  0  0  0
   36.4480   29.6260   51.0230 N   0  0  0  0  0  0  0  0  0  0  0  0
   35.8900   29.7270   49.8040 C   0  0  0  0  0  0  0  0  0  0  0  0
   34.6880   29.1660   49.5130 C   0  0  0  0  0  0  0  0  0  0  0  0
   34.1340   29.2730   48.2690 C   0  0  0  0  0  0  0  0  0  0  0  0
   34.8620   29.9810   47.3350 C   0  0  0  0  0  0  0  0  0  0  0  0
   36.0770   30.5340   47.6690 C   0  0  0  0  0  0  0  0  0  0  0  0
   36.6430   30.4350   48.8830 C   0  0  0  0  0  0  0  0  0  0  0  0
   39.0830   31.5330   46.7920 C   0  0  0  0  0  0  0  0  0  0  0  0
   39.9820   32.5360   46.3510 C   0  0  0  0  0  0  0  0  0  0  0  0
   40.5650   32.4250   45.0450 C   0  0  0  0  0  0  0  0  0  0  0  0
   40.2100   31.3670   44.3330 N   0  0  0  0  0  0  0  0  0  0  0  0
   39.3340   30.4150   44.7900 C   0  0  0  0  0  0  0  0  0  0  0  0
   38.7990   30.5180   45.9890 N   0  0  0  0  0  0  0  0  0  0  0  0
   38.9570   29.2310   43.9680 C   0  0  0  0  0  0  0  0  0  0  0  0
   37.6030   29.3360   43.4820 N   0  0  0  0  0  0  0  0  0  0  0  0
   36.9880   30.4460   42.8590 C   0  0  0  0  0  0  0  0  0  0  0  0
   37.7840   31.0010   41.9830 N   0  0  0  0  0  0  0  0  0  0  0  0
   35.6560   30.8310   43.2110 N   0  0  0  0  0  0  0  0  0  0  0  0
   37.4780   31.8330   41.4360 H   0  0  0  0  0  0  0  0  0  0  0  0
   38.4330   33.0670   48.5330 O   0  0  0  0  0  0  0  0  0  0  0  0
   39.2450   34.0160   49.1150 C   0  0  0  0  0  0  0  0  0  0  0  0
   39.7380   35.1710   48.3720 N   0  0  0  0  0  0  0  0  0  0  0  0
   39.5960   33.9280   50.3190 O   0  0  0  0  0  0  0  0  0  0  0  0
   39.6868   31.2522   48.2066 H   0  0  0  0  0  0  0  0  0  0  0  0
   38.0495   30.0772   52.2841 H   0  0  0  0  0  0  0  0  0  0  0  0
   34.1486   28.6133   50.2963 H   0  0  0  0  0  0  0  0  0  0  0  0
   33.1617   28.8200   48.0255 H   0  0  0  0  0  0  0  0  0  0  0  0
   34.4681   30.1044   46.3154 H   0  0  0  0  0  0  0  0  0  0  0  0
   36.6193   31.0928   46.8921 H   0  0  0  0  0  0  0  0  0  0  0  0
   40.2293   33.3880   47.0013 H   0  0  0  0  0  0  0  0  0  0  0  0
   41.2678   33.1770   44.6569 H   0  0  0  0  0  0  0  0  0  0  0  0
   39.6407   29.1594   43.1093 H   0  0  0  0  0  0  0  0  0  0  0  0
   39.0287   28.3340   44.6006 H   0  0  0  0  0  0  0  0  0  0  0  0
   37.0125   28.5009   43.6036 H   0  0  0  0  0  0  0  0  0  0  0  0
   35.2158   31.6411   42.7519 H   0  0  0  0  0  0  0  0  0  0  0  0
   35.1372   30.2981   43.9235 H   0  0  0  0  0  0  0  0  0  0  0  0
   40.3435   35.8623   48.8371 H   0  0  0  0  0  0  0  0  0  0  0  0
   39.4805   35.2950   47.3825 H   0  0  0  0  0  0  0  0  0  0  0  0
  1 24  1  0
  1  2  1  0
  2  3  2  0
  3  4  1  0
  5  4  2  0
  6  5  1  0
  7  6  2  0
  8  7  1  0
  9 10  1  0
  9  8  2  0
 10 11  2  0
 11  2  1  0
 11  6  1  0
 12  1  1  0
 13 12  2  0
 14 13  1  0
 15 16  1  0
 15 14  2  0
 16 17  2  0
 17 12  1  0
 18 16  1  0
 19 18  1  0
 20 22  1  0
 20 19  1  0
 21 20  2  0
 23 21  1  0
 24 25  1  0
 25 27  2  0
 26 25  1  0
  1 28  1  1
  4 29  1  0
  7 30  1  0
  8 31  1  0
  9 32  1  0
 10 33  1  0
 13 34  1  0
 14 35  1  0
 18 36  1  0
 18 37  1  0
 19 38  1  0
 22 39  1  0
 22 40  1  0
 26 41  1  0
 26 42  1  0
M  ISO  8  28   8  29  14  30  14  31  14  32  14  33  14  34  14  35  14
M  ISO  2  36   8  37   8
M  END
>  <minimizedAffinity>  (1) 
-6.73221684

>  <minimizedRMSD>  (1) 
0.320461214

$$$$
