
     RDKit          3D

 37 40  0  0  0  0  0  0  0  0999 V2000
   37.9360   31.4370   49.9980 C   0  0  0  0  0  0  0  0  0  0  0  0
   38.8220   32.5050   49.7220 C   0  0  0  0  0  0  0  0  0  0  0  0
   38.9090   32.9460   48.4030 C   0  0  0  0  0  0  0  0  0  0  0  0
   38.1340   32.3200   47.4650 N   0  0  0  0  0  0  0  0  0  0  0  0
   37.3090   31.3150   47.7570 C   0  0  0  0  0  0  0  0  0  0  0  0
   37.2060   30.8730   49.0180 N   0  0  0  0  0  0  0  0  0  0  0  0
   36.5380   30.7170   46.7260 N   0  0  0  0  0  0  0  0  0  0  0  0
   37.0150   30.5600   45.4870 C   0  0  0  0  0  0  0  0  0  0  0  0
   36.2940   29.9830   44.4630 C   0  0  0  0  0  0  0  0  0  0  0  0
   35.0350   29.5800   44.8180 C   0  0  0  0  0  0  0  0  0  0  0  0
   34.2810   29.0370   43.9540 O   0  0  0  0  0  0  0  0  0  0  0  0
   34.4900   29.7050   46.0380 N   0  0  0  0  0  0  0  0  0  0  0  0
   35.2730   30.2880   46.9920 C   0  0  0  0  0  0  0  0  0  0  0  0
   34.7940   30.4190   48.1410 O   0  0  0  0  0  0  0  0  0  0  0  0
   33.1710   29.2680   46.3540 C   0  0  0  0  0  0  0  0  0  0  0  0
   31.9330   29.9180   46.2910 C   0  0  0  0  0  0  0  0  0  0  0  0
   30.9910   29.0460   46.7090 N   0  0  0  0  0  0  0  0  0  0  0  0
   31.5670   27.8740   47.0350 C   0  0  0  0  0  0  0  0  0  0  0  0
   31.0040   26.6850   47.5120 C   0  0  0  0  0  0  0  0  0  0  0  0
   31.8000   25.5840   47.7870 C   0  0  0  0  0  0  0  0  0  0  0  0
   33.1770   25.7060   47.5700 C   0  0  0  0  0  0  0  0  0  0  0  0
   33.7400   26.8750   47.0990 C   0  0  0  0  0  0  0  0  0  0  0  0
   32.9350   27.9740   46.8270 C   0  0  0  0  0  0  0  0  0  0  0  0
   36.7840   29.7920   43.0830 C   0  0  0  0  0  0  0  0  0  0  0  0
   37.8425   31.0624   51.0280 H   0  0  0  0  0  0  0  0  0  0  0  0
   39.4202   32.9701   50.5194 H   0  0  0  0  0  0  0  0  0  0  0  0
   39.5800   33.7719   48.1244 H   0  0  0  0  0  0  0  0  0  0  0  0
   38.0359   30.9093   45.2733 H   0  0  0  0  0  0  0  0  0  0  0  0
   31.7590   30.9527   45.9605 H   0  0  0  0  0  0  0  0  0  0  0  0
   29.9827   29.2474   46.7694 H   0  0  0  0  0  0  0  0  0  0  0  0
   29.9172   26.6234   47.6706 H   0  0  0  0  0  0  0  0  0  0  0  0
   31.3642   24.6466   48.1629 H   0  0  0  0  0  0  0  0  0  0  0  0
   33.8294   24.8458   47.7808 H   0  0  0  0  0  0  0  0  0  0  0  0
   34.8266   26.9364   46.9390 H   0  0  0  0  0  0  0  0  0  0  0  0
   37.8086   29.3926   43.1097 H   0  0  0  0  0  0  0  0  0  0  0  0
   36.1280   29.0837   42.5557 H   0  0  0  0  0  0  0  0  0  0  0  0
   36.7804   30.7574   42.5557 H   0  0  0  0  0  0  0  0  0  0  0  0
  2  1  2  0
  3  2  1  0
  4  5  1  0
  4  3  2  0
  5  6  2  0
  6  1  1  0
  7 13  1  0
  7  5  1  0
  8  7  1  0
  9 10  1  0
  9  8  2  0
 10 12  1  0
 11 10  2  0
 12 15  1  0
 12 13  1  0
 13 14  2  0
 15 23  1  0
 16 15  2  0
 16 17  1  0
 17 18  1  0
 18 19  2  0
 19 20  1  0
 21 20  2  0
 22 21  1  0
 23 18  1  0
 23 22  2  0
 24  9  1  0
  1 25  1  0
  2 26  1  0
  3 27  1  0
  8 28  1  0
 16 29  1  0
 17 30  1  0
 19 31  1  0
 20 32  1  0
 21 33  1  0
 22 34  1  0
 24 35  1  0
 24 36  1  0
 24 37  1  0
M  ISO  8  25  14  26  14  27  14  28  14  29  14  30   9  31  14  32  14
M  ISO  5  33  14  34  14  35   8  36   8  37   8
M  END
>  <minimizedAffinity>  (1) 
-5.76829243

>  <minimizedRMSD>  (1) 
3.66774821

$$$$
