
     RDKit          3D

 36 38  0  0  1  0  0  0  0  0999 V2000
   38.6920   31.7850   48.1410 C   0  0  1  0  0  0  0  0  0  0  0  0
   37.8820   31.0440   49.0960 C   0  0  0  0  0  0  0  0  0  0  0  0
   38.3230   30.8710   50.3340 N   0  0  0  0  0  0  0  0  0  0  0  0
   37.6330   30.1810   51.2600 C   0  0  0  0  0  0  0  0  0  0  0  0
   36.4590   29.6180   51.0160 N   0  0  0  0  0  0  0  0  0  0  0  0
   35.8940   29.7180   49.8020 C   0  0  0  0  0  0  0  0  0  0  0  0
   34.6900   29.1470   49.5060 C   0  0  0  0  0  0  0  0  0  0  0  0
   34.1320   29.2500   48.2830 C   0  0  0  0  0  0  0  0  0  0  0  0
   34.8480   29.9680   47.3470 C   0  0  0  0  0  0  0  0  0  0  0  0
   36.0600   30.5350   47.6660 C   0  0  0  0  0  0  0  0  0  0  0  0
   36.6350   30.4370   48.8830 C   0  0  0  0  0  0  0  0  0  0  0  0
   39.0460   31.5540   46.7730 C   0  0  0  0  0  0  0  0  0  0  0  0
   39.8400   32.6260   46.2880 C   0  0  0  0  0  0  0  0  0  0  0  0
   40.3940   32.5500   44.9670 C   0  0  0  0  0  0  0  0  0  0  0  0
   40.1100   31.4480   44.2810 N   0  0  0  0  0  0  0  0  0  0  0  0
   39.3390   30.4380   44.7810 C   0  0  0  0  0  0  0  0  0  0  0  0
   38.8280   30.5010   45.9920 N   0  0  0  0  0  0  0  0  0  0  0  0
   39.0040   29.2240   43.9710 C   0  0  0  0  0  0  0  0  0  0  0  0
   37.6400   29.3590   43.6580 O   0  0  0  0  0  0  0  0  0  0  0  0
   38.4160   33.0830   48.5310 O   0  0  0  0  0  0  0  0  0  0  0  0
   39.2390   34.0180   49.1200 C   0  0  0  0  0  0  0  0  0  0  0  0
   39.7320   35.1810   48.3860 N   0  0  0  0  0  0  0  0  0  0  0  0
   39.6030   33.9130   50.3170 O   0  0  0  0  0  0  0  0  0  0  0  0
   39.6650   31.2730   48.1738 H   0  0  0  0  0  0  0  0  0  0  0  0
   38.0639   30.0795   52.2670 H   0  0  0  0  0  0  0  0  0  0  0  0
   34.1590   28.5858   50.2890 H   0  0  0  0  0  0  0  0  0  0  0  0
   33.1623   28.7885   48.0451 H   0  0  0  0  0  0  0  0  0  0  0  0
   34.4437   30.0887   46.3311 H   0  0  0  0  0  0  0  0  0  0  0  0
   36.5903   31.1000   46.8853 H   0  0  0  0  0  0  0  0  0  0  0  0
   40.0287   33.5068   46.9193 H   0  0  0  0  0  0  0  0  0  0  0  0
   41.0158   33.3547   44.5476 H   0  0  0  0  0  0  0  0  0  0  0  0
   39.6097   29.1925   43.0534 H   0  0  0  0  0  0  0  0  0  0  0  0
   39.2116   28.2926   44.5182 H   0  0  0  0  0  0  0  0  0  0  0  0
   37.1131   29.4112   44.4945 H   0  0  0  0  0  0  0  0  0  0  0  0
   40.3461   35.8629   48.8538 H   0  0  0  0  0  0  0  0  0  0  0  0
   39.4655   35.3190   47.4007 H   0  0  0  0  0  0  0  0  0  0  0  0
  1 20  1  0
  1  2  1  0
  2  3  2  0
  3  4  1  0
  5  4  2  0
  6  5  1  0
  7  6  2  0
  8  7  1  0
  9 10  1  0
  9  8  2  0
 10 11  2  0
 11  2  1  0
 11  6  1  0
 12  1  1  0
 13 12  2  0
 14 13  1  0
 15 16  1  0
 15 14  2  0
 16 17  2  0
 17 12  1  0
 18 16  1  0
 19 18  1  0
 20 21  1  0
 21 23  2  0
 22 21  1  0
  1 24  1  1
  4 25  1  0
  7 26  1  0
  8 27  1  0
  9 28  1  0
 10 29  1  0
 13 30  1  0
 14 31  1  0
 18 32  1  0
 18 33  1  0
 19 34  1  0
 22 35  1  0
 22 36  1  0
M  ISO  8  24   8  25  14  26  14  27  14  28  14  29  14  30  14  31  14
M  ISO  3  32   8  33   8  34   3
M  END
>  <minimizedAffinity>  (1) 
-6.72919989

>  <minimizedRMSD>  (1) 
0.147061914

$$$$
