
     RDKit          3D

 26 28  0  0  0  0  0  0  0  0999 V2000
   35.5160   29.5350   49.1970 C   0  0  0  0  0  0  0  0  0  0  0  0
   35.4750   29.1430   50.5400 C   0  0  0  0  0  0  0  0  0  0  0  0
   36.3670   29.5460   51.4960 C   0  0  0  0  0  0  0  0  0  0  0  0
   37.3890   30.3930   51.1570 C   0  0  0  0  0  0  0  0  0  0  0  0
   37.4920   30.8190   49.8600 C   0  0  0  0  0  0  0  0  0  0  0  0
   38.5370   31.6690   49.5820 C   0  0  0  0  0  0  0  0  0  0  0  0
   38.7070   32.1380   48.3050 C   0  0  0  0  0  0  0  0  0  0  0  0
   37.7990   31.7280   47.3330 C   0  0  0  0  0  0  0  0  0  0  0  0
   36.7790   30.8770   47.6860 C   0  0  0  0  0  0  0  0  0  0  0  0
   36.5680   30.3830   48.9390 C   0  0  0  0  0  0  0  0  0  0  0  0
   33.6040   27.1100   47.3660 C   0  0  0  0  0  0  0  0  0  0  0  0
   32.8210   27.7970   46.4400 C   0  0  0  0  0  0  0  0  0  0  0  0
   32.9600   29.1780   46.4490 C   0  0  0  0  0  0  0  0  0  0  0  0
   33.8120   29.7300   47.3200 N   0  0  0  0  0  0  0  0  0  0  0  0
   34.5610   29.0950   48.2020 C   0  0  0  0  0  0  0  0  0  0  0  0
   34.4110   27.7760   48.1770 N   0  0  0  0  0  0  0  0  0  0  0  0
   34.6680   28.4623   50.8490 H   0  0  0  0  0  0  0  0  0  0  0  0
   36.2640   29.1915   52.5322 H   0  0  0  0  0  0  0  0  0  0  0  0
   38.1146   30.7252   51.9141 H   0  0  0  0  0  0  0  0  0  0  0  0
   39.2321   31.9706   50.3794 H   0  0  0  0  0  0  0  0  0  0  0  0
   39.5355   32.8174   48.0562 H   0  0  0  0  0  0  0  0  0  0  0  0
   37.8965   32.0805   46.2956 H   0  0  0  0  0  0  0  0  0  0  0  0
   36.0780   30.5705   46.8956 H   0  0  0  0  0  0  0  0  0  0  0  0
   33.5513   26.0127   47.4230 H   0  0  0  0  0  0  0  0  0  0  0  0
   32.1391   27.2798   45.7489 H   0  0  0  0  0  0  0  0  0  0  0  0
   32.3818   29.8052   45.7546 H   0  0  0  0  0  0  0  0  0  0  0  0
  1  2  2  0
  2  3  1  0
  4  3  2  0
  5  4  1  0
  6  5  2  0
  7  6  1  0
  8  9  1  0
  8  7  2  0
  9 10  2  0
 10  1  1  0
 10  5  1  0
 11 16  2  0
 12 13  2  0
 12 11  1  0
 13 14  1  0
 14 15  2  0
 15  1  1  0
 16 15  1  0
  2 17  1  0
  3 18  1  0
  4 19  1  0
  6 20  1  0
  7 21  1  0
  8 22  1  0
  9 23  1  0
 11 24  1  0
 12 25  1  0
 13 26  1  0
M  ISO  8  17  14  18  14  19  14  20  14  21  14  22  14  23  14  24  14
M  ISO  2  25  14  26  14
M  END
>  <minimizedAffinity>  (1) 
-6.21768618

>  <minimizedRMSD>  (1) 
5.58127594

$$$$
