
     RDKit          3D

 40 44  0  0  0  0  0  0  0  0999 V2000
   33.5970   26.8500   47.6740 C   0  0  0  0  0  0  0  0  0  0  0  0
   32.6890   27.4690   46.8170 C   0  0  0  0  0  0  0  0  0  0  0  0
   32.7480   28.8440   46.7750 C   0  0  0  0  0  0  0  0  0  0  0  0
   33.6500   29.4840   47.5410 N   0  0  0  0  0  0  0  0  0  0  0  0
   34.5150   28.9080   48.3560 C   0  0  0  0  0  0  0  0  0  0  0  0
   34.4430   27.5840   48.3820 N   0  0  0  0  0  0  0  0  0  0  0  0
   35.5290   29.4470   49.2310 C   0  0  0  0  0  0  0  0  0  0  0  0
   35.5830   29.1620   50.6090 C   0  0  0  0  0  0  0  0  0  0  0  0
   36.5280   29.6530   51.4700 C   0  0  0  0  0  0  0  0  0  0  0  0
   37.5070   30.4810   50.9990 C   0  0  0  0  0  0  0  0  0  0  0  0
   37.5210   30.8010   49.6790 C   0  0  0  0  0  0  0  0  0  0  0  0
   38.5240   31.6380   49.2440 C   0  0  0  0  0  0  0  0  0  0  0  0
   38.5960   32.0020   47.9230 C   0  0  0  0  0  0  0  0  0  0  0  0
   37.6370   31.5020   47.0540 C   0  0  0  0  0  0  0  0  0  0  0  0
   36.6590   30.6690   47.5510 C   0  0  0  0  0  0  0  0  0  0  0  0
   36.5490   30.2830   48.8490 C   0  0  0  0  0  0  0  0  0  0  0  0
   31.8520   29.6180   45.9200 C   0  0  0  0  0  0  0  0  0  0  0  0
   32.2610   30.3880   44.8440 C   0  0  0  0  0  0  0  0  0  0  0  0
   31.1700   30.9520   44.2940 N   0  0  0  0  0  0  0  0  0  0  0  0
   30.0850   30.5470   45.0100 C   0  0  0  0  0  0  0  0  0  0  0  0
   28.7390   30.8480   44.8500 C   0  0  0  0  0  0  0  0  0  0  0  0
   27.8020   30.3110   45.7110 C   0  0  0  0  0  0  0  0  0  0  0  0
   28.1890   29.4630   46.7530 C   0  0  0  0  0  0  0  0  0  0  0  0
   29.5460   29.1700   46.9010 C   0  0  0  0  0  0  0  0  0  0  0  0
   30.4810   29.7040   46.0430 C   0  0  0  0  0  0  0  0  0  0  0  0
   33.6114   25.7537   47.7626 H   0  0  0  0  0  0  0  0  0  0  0  0
   31.9708   26.8956   46.2125 H   0  0  0  0  0  0  0  0  0  0  0  0
   34.8108   28.4973   51.0235 H   0  0  0  0  0  0  0  0  0  0  0  0
   36.4988   29.3819   52.5357 H   0  0  0  0  0  0  0  0  0  0  0  0
   38.2728   30.8828   51.6788 H   0  0  0  0  0  0  0  0  0  0  0  0
   39.2703   32.0163   49.9581 H   0  0  0  0  0  0  0  0  0  0  0  0
   39.3914   32.6712   47.5632 H   0  0  0  0  0  0  0  0  0  0  0  0
   37.6573   31.7663   45.9864 H   0  0  0  0  0  0  0  0  0  0  0  0
   35.9094   30.2869   46.8425 H   0  0  0  0  0  0  0  0  0  0  0  0
   33.2976   30.5163   44.4989 H   0  0  0  0  0  0  0  0  0  0  0  0
   31.1579   31.5787   43.4767 H   0  0  0  0  0  0  0  0  0  0  0  0
   28.4184   31.5152   44.0363 H   0  0  0  0  0  0  0  0  0  0  0  0
   26.7377   30.5536   45.5752 H   0  0  0  0  0  0  0  0  0  0  0  0
   27.4425   29.0370   47.4395 H   0  0  0  0  0  0  0  0  0  0  0  0
   29.8723   28.5040   47.7134 H   0  0  0  0  0  0  0  0  0  0  0  0
  1  6  2  0
  2  1  1  0
  3  2  2  0
  3  4  1  0
  4  5  2  0
  5  6  1  0
  5  7  1  0
  7  8  2  0
  8  9  1  0
 10  9  2  0
 11 10  1  0
 12 11  2  0
 13 12  1  0
 14 15  1  0
 14 13  2  0
 15 16  2  0
 16  7  1  0
 16 11  1  0
 17 25  1  0
 17  3  1  0
 18 17  2  0
 19 18  1  0
 19 20  1  0
 20 25  2  0
 21 20  1  0
 21 22  2  0
 22 23  1  0
 23 24  2  0
 25 24  1  0
  1 26  1  0
  2 27  1  0
  8 28  1  0
  9 29  1  0
 10 30  1  0
 12 31  1  0
 13 32  1  0
 14 33  1  0
 15 34  1  0
 18 35  1  0
 19 36  1  0
 21 37  1  0
 22 38  1  0
 23 39  1  0
 24 40  1  0
M  ISO  8  26  14  27  14  28  14  29  14  30  14  31  14  32  14  33  14
M  ISO  7  34  14  35  14  36   9  37  14  38  14  39  14  40  14
M  END
>  <minimizedAffinity>  (1) 
-7.28853178

>  <minimizedRMSD>  (1) 
0.587980449

$$$$
