
     RDKit          3D

 29 30  0  0  0  0  0  0  0  0999 V2000
   40.5400   32.0630   45.6750 C   0  0  0  0  0  0  0  0  0  0  0  0
   40.1640   32.7020   44.4620 C   0  0  0  0  0  0  0  0  0  0  0  0
   38.8010   32.8010   44.1910 C   0  0  0  0  0  0  0  0  0  0  0  0
   37.9080   32.2860   45.0920 N   0  0  0  0  0  0  0  0  0  0  0  0
   38.2950   31.6900   46.2230 C   0  0  0  0  0  0  0  0  0  0  0  0
   39.5910   31.5880   46.4970 N   0  0  0  0  0  0  0  0  0  0  0  0
   37.3190   31.1720   47.1260 N   0  0  0  0  0  0  0  0  0  0  0  0
   36.1890   30.6120   46.6800 C   0  0  0  0  0  0  0  0  0  0  0  0
   35.2280   30.1040   47.5270 C   0  0  0  0  0  0  0  0  0  0  0  0
   35.5260   30.2170   48.8540 C   0  0  0  0  0  0  0  0  0  0  0  0
   34.7010   29.7750   49.7050 O   0  0  0  0  0  0  0  0  0  0  0  0
   36.6360   30.7630   49.3650 N   0  0  0  0  0  0  0  0  0  0  0  0
   37.5420   31.2460   48.4590 C   0  0  0  0  0  0  0  0  0  0  0  0
   38.5960   31.7670   48.9050 O   0  0  0  0  0  0  0  0  0  0  0  0
   33.9670   29.4780   47.0780 C   0  0  0  0  0  0  0  0  0  0  0  0
   36.9010   30.8570   50.7930 C   0  0  0  0  0  0  0  0  0  0  0  0
   37.4610   29.5850   51.3570 C   0  0  0  0  0  0  0  0  0  0  0  0
   41.6028   31.9584   45.9385 H   0  0  0  0  0  0  0  0  0  0  0  0
   40.9173   33.1013   43.7669 H   0  0  0  0  0  0  0  0  0  0  0  0
   38.4481   33.2850   43.2684 H   0  0  0  0  0  0  0  0  0  0  0  0
   36.0203   30.5548   45.5945 H   0  0  0  0  0  0  0  0  0  0  0  0
   33.3719   29.1826   47.9546 H   0  0  0  0  0  0  0  0  0  0  0  0
   33.3959   30.1972   46.4726 H   0  0  0  0  0  0  0  0  0  0  0  0
   34.1946   28.5883   46.4726 H   0  0  0  0  0  0  0  0  0  0  0  0
   37.6240   31.6679   50.9652 H   0  0  0  0  0  0  0  0  0  0  0  0
   35.9444   31.0548   51.2987 H   0  0  0  0  0  0  0  0  0  0  0  0
   37.4408   29.6310   52.4559 H   0  0  0  0  0  0  0  0  0  0  0  0
   36.8545   28.7337   51.0144 H   0  0  0  0  0  0  0  0  0  0  0  0
   38.4985   29.4575   51.0144 H   0  0  0  0  0  0  0  0  0  0  0  0
  1  6  2  0
  2  1  1  0
  3  2  2  0
  3  4  1  0
  4  5  2  0
  5  6  1  0
  5  7  1  0
  7 13  1  0
  8  7  1  0
  8  9  2  0
  9 10  1  0
 10 12  1  0
 10 11  2  0
 12 16  1  0
 13 14  2  0
 13 12  1  0
 15  9  1  0
 16 17  1  0
  1 18  1  0
  2 19  1  0
  3 20  1  0
  8 21  1  0
 15 22  1  0
 15 23  1  0
 15 24  1  0
 16 25  1  0
 16 26  1  0
 17 27  1  0
 17 28  1  0
 17 29  1  0
M  ISO  8  18  14  19  14  20  14  21  14  22   8  23   8  24   8  25   8
M  ISO  4  26   8  27   8  28   8  29   8
M  END
>  <minimizedAffinity>  (1) 
-5.60560131

>  <minimizedRMSD>  (1) 
4.45866871

$$$$
