
     RDKit          3D

 39 42  0  0  0  0  0  0  0  0999 V2000
   33.5970   26.9680   47.8540 C   0  0  0  0  0  0  0  0  0  0  0  0
   32.7400   27.6070   46.9470 C   0  0  0  0  0  0  0  0  0  0  0  0
   32.8550   28.9770   46.8650 C   0  0  0  0  0  0  0  0  0  0  0  0
   33.7600   29.5710   47.6470 N   0  0  0  0  0  0  0  0  0  0  0  0
   34.5740   29.0060   48.5020 C   0  0  0  0  0  0  0  0  0  0  0  0
   34.4520   27.6850   48.5700 N   0  0  0  0  0  0  0  0  0  0  0  0
   35.5920   29.5100   49.4040 C   0  0  0  0  0  0  0  0  0  0  0  0
   35.6580   29.1830   50.7690 C   0  0  0  0  0  0  0  0  0  0  0  0
   36.6080   29.6460   51.6330 C   0  0  0  0  0  0  0  0  0  0  0  0
   37.5800   30.4860   51.1830 C   0  0  0  0  0  0  0  0  0  0  0  0
   37.5900   30.8580   49.8540 C   0  0  0  0  0  0  0  0  0  0  0  0
   38.5900   31.7030   49.4540 C   0  0  0  0  0  0  0  0  0  0  0  0
   38.6540   32.1040   48.1560 C   0  0  0  0  0  0  0  0  0  0  0  0
   37.6890   31.6320   47.2860 C   0  0  0  0  0  0  0  0  0  0  0  0
   36.7140   30.7910   47.7370 C   0  0  0  0  0  0  0  0  0  0  0  0
   36.6130   30.3660   49.0230 C   0  0  0  0  0  0  0  0  0  0  0  0
   30.4930   31.3990   44.2440 C   0  0  0  0  0  0  0  0  0  0  0  0
   30.1770   30.0890   44.4590 C   0  0  0  0  0  0  0  0  0  0  0  0
   30.9330   29.3030   45.3030 C   0  0  0  0  0  0  0  0  0  0  0  0
   32.0410   29.7650   45.9790 C   0  0  0  0  0  0  0  0  0  0  0  0
   32.3330   31.0920   45.7400 C   0  0  0  0  0  0  0  0  0  0  0  0
   31.5830   31.8850   44.9000 C   0  0  0  0  0  0  0  0  0  0  0  0
   29.5850   32.4450   43.1960 S   0  0  0  0  0  0  0  0  0  0  0  0
   28.1430   32.4400   43.6690 O   0  0  0  0  0  0  0  0  0  0  0  0
   30.1080   33.8440   43.1590 O   0  0  0  0  0  0  0  0  0  0  0  0
   33.5602   25.8749   47.9713 H   0  0  0  0  0  0  0  0  0  0  0  0
   32.0173   27.0464   46.3360 H   0  0  0  0  0  0  0  0  0  0  0  0
   34.8895   28.5057   51.1698 H   0  0  0  0  0  0  0  0  0  0  0  0
   36.5881   29.3412   52.6897 H   0  0  0  0  0  0  0  0  0  0  0  0
   38.3497   30.8645   51.8717 H   0  0  0  0  0  0  0  0  0  0  0  0
   39.3382   32.0560   50.1790 H   0  0  0  0  0  0  0  0  0  0  0  0
   39.4480   32.7820   47.8097 H   0  0  0  0  0  0  0  0  0  0  0  0
   37.7073   31.9349   46.2287 H   0  0  0  0  0  0  0  0  0  0  0  0
   35.9640   30.4355   47.0151 H   0  0  0  0  0  0  0  0  0  0  0  0
   29.3046   29.6527   43.9505 H   0  0  0  0  0  0  0  0  0  0  0  0
   30.6361   28.2532   45.4437 H   0  0  0  0  0  0  0  0  0  0  0  0
   33.2042   31.5368   46.2431 H   0  0  0  0  0  0  0  0  0  0  0  0
   31.8715   32.9366   44.7555 H   0  0  0  0  0  0  0  0  0  0  0  0
   29.6962   31.9693   41.9161 H   0  0  0  0  0  0  0  0  0  0  0  0
  1  6  2  0
  2  1  1  0
  3  2  2  0
  3  4  1  0
  4  5  2  0
  5  6  1  0
  5  7  1  0
  7  8  2  0
  8  9  1  0
 10  9  2  0
 11 10  1  0
 12 11  2  0
 13 12  1  0
 14 15  1  0
 14 13  2  0
 15 16  2  0
 16  7  1  0
 16 11  1  0
 17 18  2  0
 17 22  1  0
 18 19  1  0
 19 20  2  0
 20  3  1  0
 21 20  1  0
 22 21  2  0
 23 24  2  0
 23 17  1  0
 25 23  2  0
  1 26  1  0
  2 27  1  0
  8 28  1  0
  9 29  1  0
 10 30  1  0
 12 31  1  0
 13 32  1  0
 14 33  1  0
 15 34  1  0
 18 35  1  0
 19 36  1  0
 21 37  1  0
 22 38  1  0
 23 39  1  0
M  ISO  8  26  14  27  14  28  14  29  14  30  14  31  14  32  14  33  14
M  ISO  6  34  14  35  14  36  14  37  14  38  14  39  11
M  END
>  <minimizedAffinity>  (1) 
-6.92672873

>  <minimizedRMSD>  (1) 
0.575799882

$$$$
