
     RDKit          3D

 28 30  0  0  0  0  0  0  0  0999 V2000
   36.4910   29.0770   49.9540 C   0  0  0  0  0  0  0  0  0  0  0  0
   36.9120   29.8040   51.0790 C   0  0  0  0  0  0  0  0  0  0  0  0
   37.7140   30.9360   50.8510 C   0  0  0  0  0  0  0  0  0  0  0  0
   38.0390   31.2670   49.5540 N   0  0  0  0  0  0  0  0  0  0  0  0
   37.6080   30.5320   48.5130 C   0  0  0  0  0  0  0  0  0  0  0  0
   36.8440   29.4510   48.7020 N   0  0  0  0  0  0  0  0  0  0  0  0
   37.9820   30.9310   47.1960 N   0  0  0  0  0  0  0  0  0  0  0  0
   39.1750   31.4580   46.9260 C   0  0  0  0  0  0  0  0  0  0  0  0
   39.5680   31.8530   45.6650 C   0  0  0  0  0  0  0  0  0  0  0  0
   38.6170   31.6560   44.7000 C   0  0  0  0  0  0  0  0  0  0  0  0
   38.8650   31.9810   43.5030 O   0  0  0  0  0  0  0  0  0  0  0  0
   37.4020   31.1330   44.8980 N   0  0  0  0  0  0  0  0  0  0  0  0
   37.0940   30.7690   46.1770 C   0  0  0  0  0  0  0  0  0  0  0  0
   35.9650   30.2760   46.3920 O   0  0  0  0  0  0  0  0  0  0  0  0
   36.4380   30.9430   43.8670 C   0  0  0  0  0  0  0  0  0  0  0  0
   36.5590   30.6910   42.5660 N   0  0  0  0  0  0  0  0  0  0  0  0
   35.4120   30.5880   41.9770 O   0  0  0  0  0  0  0  0  0  0  0  0
   34.5000   30.7770   42.9040 C   0  0  0  0  0  0  0  0  0  0  0  0
   35.1120   30.9970   44.0780 N   0  0  0  0  0  0  0  0  0  0  0  0
   40.8780   32.4390   45.3350 C   0  0  0  0  0  0  0  0  0  0  0  0
   35.8616   28.1856   50.0929 H   0  0  0  0  0  0  0  0  0  0  0  0
   36.6261   29.5004   52.0969 H   0  0  0  0  0  0  0  0  0  0  0  0
   38.0751   31.5457   51.6923 H   0  0  0  0  0  0  0  0  0  0  0  0
   39.8863   31.5852   47.7553 H   0  0  0  0  0  0  0  0  0  0  0  0
   33.4119   30.7580   42.7438 H   0  0  0  0  0  0  0  0  0  0  0  0
   41.4163   32.6798   46.2635 H   0  0  0  0  0  0  0  0  0  0  0  0
   41.4649   31.7176   44.7475 H   0  0  0  0  0  0  0  0  0  0  0  0
   40.7314   33.3573   44.7475 H   0  0  0  0  0  0  0  0  0  0  0  0
  1  2  2  0
  3  2  1  0
  4  3  2  0
  5  6  2  0
  5  4  1  0
  6  1  1  0
  7  5  1  0
  8  7  1  0
  9  8  2  0
 10 12  1  0
 10  9  1  0
 11 10  2  0
 12 13  1  0
 13 14  2  0
 13  7  1  0
 15 19  1  0
 15 12  1  0
 16 15  2  0
 17 16  1  0
 17 18  1  0
 18 19  2  0
 20  9  1  0
  1 21  1  0
  2 22  1  0
  3 23  1  0
  8 24  1  0
 18 25  1  0
 20 26  1  0
 20 27  1  0
 20 28  1  0
M  ISO  8  21  14  22  14  23  14  24  14  25  14  26   8  27   8  28   8
M  END
>  <minimizedAffinity>  (1) 
-5.53382206

>  <minimizedRMSD>  (1) 
6.73792267

$$$$
