
     RDKit          3D

 33 36  0  0  0  0  0  0  0  0999 V2000
   35.5690   29.4610   49.3140 C   0  0  0  0  0  0  0  0  0  0  0  0
   35.6770   29.1980   50.6810 C   0  0  0  0  0  0  0  0  0  0  0  0
   36.6540   29.6930   51.4940 C   0  0  0  0  0  0  0  0  0  0  0  0
   37.6190   30.5090   50.9800 C   0  0  0  0  0  0  0  0  0  0  0  0
   37.5870   30.8150   49.6560 C   0  0  0  0  0  0  0  0  0  0  0  0
   38.5770   31.6380   49.1810 C   0  0  0  0  0  0  0  0  0  0  0  0
   38.6080   31.9910   47.8520 C   0  0  0  0  0  0  0  0  0  0  0  0
   37.6150   31.4880   47.0270 C   0  0  0  0  0  0  0  0  0  0  0  0
   36.6520   30.6700   47.5530 C   0  0  0  0  0  0  0  0  0  0  0  0
   36.5820   30.2940   48.8670 C   0  0  0  0  0  0  0  0  0  0  0  0
   33.6160   26.8560   47.8140 C   0  0  0  0  0  0  0  0  0  0  0  0
   32.6740   27.4550   46.9760 C   0  0  0  0  0  0  0  0  0  0  0  0
   32.7190   28.8380   46.9270 C   0  0  0  0  0  0  0  0  0  0  0  0
   33.6300   29.4640   47.6640 N   0  0  0  0  0  0  0  0  0  0  0  0
   34.5250   28.9290   48.4590 C   0  0  0  0  0  0  0  0  0  0  0  0
   34.4700   27.6030   48.4950 N   0  0  0  0  0  0  0  0  0  0  0  0
   31.8750   29.6880   46.1560 N   0  0  0  0  0  0  0  0  0  0  0  0
   32.5020   30.8100   45.7000 C   0  0  0  0  0  0  0  0  0  0  0  0
   31.5520   31.5310   44.9700 C   0  0  0  0  0  0  0  0  0  0  0  0
   30.4060   30.8430   45.0050 N   0  0  0  0  0  0  0  0  0  0  0  0
   30.6000   29.7230   45.7260 C   0  0  0  0  0  0  0  0  0  0  0  0
   34.9186   28.5437   51.1356 H   0  0  0  0  0  0  0  0  0  0  0  0
   36.6638   29.4345   52.5631 H   0  0  0  0  0  0  0  0  0  0  0  0
   38.4111   30.9133   51.6274 H   0  0  0  0  0  0  0  0  0  0  0  0
   39.3494   32.0172   49.8663 H   0  0  0  0  0  0  0  0  0  0  0  0
   39.3949   32.6506   47.4573 H   0  0  0  0  0  0  0  0  0  0  0  0
   37.6007   31.7442   45.9573 H   0  0  0  0  0  0  0  0  0  0  0  0
   35.8788   30.2873   46.8706 H   0  0  0  0  0  0  0  0  0  0  0  0
   33.6485   25.7605   47.9085 H   0  0  0  0  0  0  0  0  0  0  0  0
   31.9466   26.8691   46.3950 H   0  0  0  0  0  0  0  0  0  0  0  0
   33.5509   31.0927   45.8728 H   0  0  0  0  0  0  0  0  0  0  0  0
   31.7176   32.4910   44.4591 H   0  0  0  0  0  0  0  0  0  0  0  0
   29.8372   28.9575   45.9313 H   0  0  0  0  0  0  0  0  0  0  0  0
  1  2  2  0
  2  3  1  0
  4  3  2  0
  5  4  1  0
  6  5  2  0
  7  6  1  0
  8  9  1  0
  8  7  2  0
  9 10  2  0
 10  1  1  0
 10  5  1  0
 11 16  2  0
 12 11  1  0
 13 12  2  0
 13 14  1  0
 14 15  2  0
 15 16  1  0
 15  1  1  0
 17 13  1  0
 18 17  1  0
 19 20  1  0
 19 18  2  0
 20 21  2  0
 21 17  1  0
  2 22  1  0
  3 23  1  0
  4 24  1  0
  6 25  1  0
  7 26  1  0
  8 27  1  0
  9 28  1  0
 11 29  1  0
 12 30  1  0
 18 31  1  0
 19 32  1  0
 21 33  1  0
M  ISO  8  22  14  23  14  24  14  25  14  26  14  27  14  28  14  29  14
M  ISO  4  30  14  31  14  32  14  33  14
M  END
>  <minimizedAffinity>  (1) 
-6.71529627

>  <minimizedRMSD>  (1) 
0.619273901

$$$$
