
     RDKit          3D

 33 36  0  0  0  0  0  0  0  0999 V2000
   35.5640   29.4830   49.2840 C   0  0  0  0  0  0  0  0  0  0  0  0
   35.6400   29.1880   50.6510 C   0  0  0  0  0  0  0  0  0  0  0  0
   36.6190   29.6650   51.4840 C   0  0  0  0  0  0  0  0  0  0  0  0
   37.5970   30.4810   50.9950 C   0  0  0  0  0  0  0  0  0  0  0  0
   37.5820   30.8100   49.6630 C   0  0  0  0  0  0  0  0  0  0  0  0
   38.5860   31.6280   49.2260 C   0  0  0  0  0  0  0  0  0  0  0  0
   38.6380   31.9960   47.9160 C   0  0  0  0  0  0  0  0  0  0  0  0
   37.6510   31.5190   47.0570 C   0  0  0  0  0  0  0  0  0  0  0  0
   36.6710   30.7020   47.5560 C   0  0  0  0  0  0  0  0  0  0  0  0
   36.5880   30.3150   48.8570 C   0  0  0  0  0  0  0  0  0  0  0  0
   33.6160   26.9020   47.7130 C   0  0  0  0  0  0  0  0  0  0  0  0
   32.6780   27.5240   46.8860 C   0  0  0  0  0  0  0  0  0  0  0  0
   32.7240   28.9150   46.8720 C   0  0  0  0  0  0  0  0  0  0  0  0
   33.6360   29.5260   47.6300 N   0  0  0  0  0  0  0  0  0  0  0  0
   34.5260   28.9700   48.4130 C   0  0  0  0  0  0  0  0  0  0  0  0
   34.4610   27.6440   48.4080 N   0  0  0  0  0  0  0  0  0  0  0  0
   31.8440   29.7430   46.0870 C   0  0  0  0  0  0  0  0  0  0  0  0
   32.2360   30.9220   45.4870 C   0  0  0  0  0  0  0  0  0  0  0  0
   31.1650   31.4930   44.7990 C   0  0  0  0  0  0  0  0  0  0  0  0
   30.1550   30.6120   45.0230 N   0  0  0  0  0  0  0  0  0  0  0  0
   30.5610   29.6120   45.7640 N   0  0  0  0  0  0  0  0  0  0  0  0
   34.8677   28.5342   51.0824 H   0  0  0  0  0  0  0  0  0  0  0  0
   36.6159   29.3892   52.5489 H   0  0  0  0  0  0  0  0  0  0  0  0
   38.3846   30.8688   51.6577 H   0  0  0  0  0  0  0  0  0  0  0  0
   39.3500   31.9881   49.9307 H   0  0  0  0  0  0  0  0  0  0  0  0
   39.4388   32.6530   47.5458 H   0  0  0  0  0  0  0  0  0  0  0  0
   37.6582   31.7946   45.9921 H   0  0  0  0  0  0  0  0  0  0  0  0
   35.9022   30.3357   46.8598 H   0  0  0  0  0  0  0  0  0  0  0  0
   33.6513   25.8050   47.7854 H   0  0  0  0  0  0  0  0  0  0  0  0
   31.9528   26.9538   46.2869 H   0  0  0  0  0  0  0  0  0  0  0  0
   33.2477   31.3502   45.5431 H   0  0  0  0  0  0  0  0  0  0  0  0
   31.1435   32.4268   44.2180 H   0  0  0  0  0  0  0  0  0  0  0  0
   29.1975   30.7170   44.6583 H   0  0  0  0  0  0  0  0  0  0  0  0
  1  2  2  0
  2  3  1  0
  4  3  2  0
  5  4  1  0
  6  5  2  0
  7  6  1  0
  8  9  1  0
  8  7  2  0
  9 10  2  0
 10  1  1  0
 10  5  1  0
 11 16  2  0
 12 11  1  0
 13 12  2  0
 13 14  1  0
 14 15  2  0
 15  1  1  0
 16 15  1  0
 17 13  1  0
 18 17  1  0
 19 20  1  0
 19 18  2  0
 20 21  1  0
 21 17  2  0
  2 22  1  0
  3 23  1  0
  4 24  1  0
  6 25  1  0
  7 26  1  0
  8 27  1  0
  9 28  1  0
 11 29  1  0
 12 30  1  0
 18 31  1  0
 19 32  1  0
 20 33  1  0
M  ISO  8  22  14  23  14  24  14  25  14  26  14  27  14  28  14  29  14
M  ISO  4  30  14  31  14  32  14  33   9
M  END
>  <minimizedAffinity>  (1) 
-6.66619778

>  <minimizedRMSD>  (1) 
0.800148964

$$$$
