
     RDKit          3D

 33 36  0  0  0  0  0  0  0  0999 V2000
   35.6040   29.5740   49.3300 C   0  0  0  0  0  0  0  0  0  0  0  0
   35.6200   29.1880   50.6850 C   0  0  0  0  0  0  0  0  0  0  0  0
   36.5510   29.6040   51.5980 C   0  0  0  0  0  0  0  0  0  0  0  0
   37.5490   30.4540   51.2070 C   0  0  0  0  0  0  0  0  0  0  0  0
   37.5950   30.8680   49.9140 C   0  0  0  0  0  0  0  0  0  0  0  0
   38.6230   31.7270   49.5650 C   0  0  0  0  0  0  0  0  0  0  0  0
   38.7300   32.1840   48.2760 C   0  0  0  0  0  0  0  0  0  0  0  0
   37.7810   31.7580   47.3500 C   0  0  0  0  0  0  0  0  0  0  0  0
   36.7860   30.9060   47.7590 C   0  0  0  0  0  0  0  0  0  0  0  0
   36.6370   30.4260   49.0190 C   0  0  0  0  0  0  0  0  0  0  0  0
   33.6020   27.1180   47.6460 C   0  0  0  0  0  0  0  0  0  0  0  0
   32.7910   27.8020   46.7260 C   0  0  0  0  0  0  0  0  0  0  0  0
   32.9510   29.1700   46.6960 C   0  0  0  0  0  0  0  0  0  0  0  0
   33.8380   29.7190   47.5180 N   0  0  0  0  0  0  0  0  0  0  0  0
   34.6130   29.1220   48.3890 C   0  0  0  0  0  0  0  0  0  0  0  0
   34.4410   27.8050   48.4000 N   0  0  0  0  0  0  0  0  0  0  0  0
   32.1780   30.0120   45.7910 C   0  0  0  0  0  0  0  0  0  0  0  0
   32.6740   30.8300   44.8110 C   0  0  0  0  0  0  0  0  0  0  0  0
   31.5280   31.3900   44.2610 C   0  0  0  0  0  0  0  0  0  0  0  0
   30.4150   30.9030   44.9100 C   0  0  0  0  0  0  0  0  0  0  0  0
   30.8710   30.0710   45.8290 O   0  0  0  0  0  0  0  0  0  0  0  0
   34.8304   28.5057   51.0328 H   0  0  0  0  0  0  0  0  0  0  0  0
   36.4970   29.2568   52.6404 H   0  0  0  0  0  0  0  0  0  0  0  0
   38.3038   30.7975   51.9296 H   0  0  0  0  0  0  0  0  0  0  0  0
   39.3552   32.0436   50.3225 H   0  0  0  0  0  0  0  0  0  0  0  0
   39.5412   32.8666   47.9825 H   0  0  0  0  0  0  0  0  0  0  0  0
   37.8283   32.0997   46.3055 H   0  0  0  0  0  0  0  0  0  0  0  0
   36.0510   30.5870   47.0054 H   0  0  0  0  0  0  0  0  0  0  0  0
   33.5393   26.0236   47.7376 H   0  0  0  0  0  0  0  0  0  0  0  0
   32.0758   27.2804   46.0730 H   0  0  0  0  0  0  0  0  0  0  0  0
   33.7232   31.0016   44.5285 H   0  0  0  0  0  0  0  0  0  0  0  0
   31.5118   32.1132   43.4323 H   0  0  0  0  0  0  0  0  0  0  0  0
   29.3639   31.1548   44.7053 H   0  0  0  0  0  0  0  0  0  0  0  0
  1  2  2  0
  2  3  1  0
  4  3  2  0
  5  4  1  0
  6  5  2  0
  7  6  1  0
  8  9  1  0
  8  7  2  0
  9 10  2  0
 10  1  1  0
 10  5  1  0
 11 16  2  0
 12 11  1  0
 13 12  2  0
 13 14  1  0
 14 15  2  0
 15 16  1  0
 15  1  1  0
 17 21  1  0
 17 13  1  0
 18 17  2  0
 19 18  1  0
 19 20  2  0
 20 21  1  0
  2 22  1  0
  3 23  1  0
  4 24  1  0
  6 25  1  0
  7 26  1  0
  8 27  1  0
  9 28  1  0
 11 29  1  0
 12 30  1  0
 18 31  1  0
 19 32  1  0
 20 33  1  0
M  ISO  8  22  14  23  14  24  14  25  14  26  14  27  14  28  14  29  14
M  ISO  4  30  14  31  14  32  14  33  14
M  END
>  <minimizedAffinity>  (1) 
-6.65007401

>  <minimizedRMSD>  (1) 
0.273782551

$$$$
