
     RDKit          3D

 38 40  0  0  0  0  0  0  0  0999 V2000
   35.5520   29.4400   49.2360 C   0  0  0  0  0  0  0  0  0  0  0  0
   35.6210   29.1680   50.6100 C   0  0  0  0  0  0  0  0  0  0  0  0
   36.5660   29.6700   51.4600 C   0  0  0  0  0  0  0  0  0  0  0  0
   37.5400   30.5100   50.9600 C   0  0  0  0  0  0  0  0  0  0  0  0
   37.5350   30.8180   49.6360 C   0  0  0  0  0  0  0  0  0  0  0  0
   38.5210   31.6550   49.1890 C   0  0  0  0  0  0  0  0  0  0  0  0
   38.5840   32.0100   47.8730 C   0  0  0  0  0  0  0  0  0  0  0  0
   37.6170   31.4940   47.0190 C   0  0  0  0  0  0  0  0  0  0  0  0
   36.6510   30.6590   47.5230 C   0  0  0  0  0  0  0  0  0  0  0  0
   36.5600   30.2860   48.8230 C   0  0  0  0  0  0  0  0  0  0  0  0
   33.5820   26.8090   47.7790 C   0  0  0  0  0  0  0  0  0  0  0  0
   32.6980   27.3990   46.8830 C   0  0  0  0  0  0  0  0  0  0  0  0
   32.7830   28.7760   46.7730 C   0  0  0  0  0  0  0  0  0  0  0  0
   33.6870   29.4320   47.5180 N   0  0  0  0  0  0  0  0  0  0  0  0
   34.5340   28.8890   48.3730 C   0  0  0  0  0  0  0  0  0  0  0  0
   34.4200   27.5780   48.4480 N   0  0  0  0  0  0  0  0  0  0  0  0
   31.9140   29.5370   45.8670 C   0  0  0  0  0  0  0  0  0  0  0  0
   32.0910   29.0410   44.4460 C   0  0  0  0  0  0  0  0  0  0  0  0
   32.3110   31.0000   45.8640 C   0  0  0  0  0  0  0  0  0  0  0  0
   30.4470   29.4320   46.2340 C   0  0  0  0  0  0  0  0  0  0  0  0
   34.8572   28.5005   51.0355 H   0  0  0  0  0  0  0  0  0  0  0  0
   36.5505   29.4080   52.5282 H   0  0  0  0  0  0  0  0  0  0  0  0
   38.3114   30.9255   51.6250 H   0  0  0  0  0  0  0  0  0  0  0  0
   39.2684   32.0445   49.8959 H   0  0  0  0  0  0  0  0  0  0  0  0
   39.3725   32.6810   47.5013 H   0  0  0  0  0  0  0  0  0  0  0  0
   37.6255   31.7520   45.9497 H   0  0  0  0  0  0  0  0  0  0  0  0
   35.8988   30.2654   46.8236 H   0  0  0  0  0  0  0  0  0  0  0  0
   33.5829   25.7191   47.9279 H   0  0  0  0  0  0  0  0  0  0  0  0
   31.9767   26.8089   46.2985 H   0  0  0  0  0  0  0  0  0  0  0  0
   32.4607   28.0051   44.4626 H   0  0  0  0  0  0  0  0  0  0  0  0
   31.1245   29.0771   43.9220 H   0  0  0  0  0  0  0  0  0  0  0  0
   32.8163   29.6808   43.9220 H   0  0  0  0  0  0  0  0  0  0  0  0
   32.4076   31.3558   46.9004 H   0  0  0  0  0  0  0  0  0  0  0  0
   33.2736   31.1177   45.3447 H   0  0  0  0  0  0  0  0  0  0  0  0
   31.5400   31.5881   45.3447 H   0  0  0  0  0  0  0  0  0  0  0  0
   30.3426   29.4245   47.3290 H   0  0  0  0  0  0  0  0  0  0  0  0
   29.9028   30.2935   45.8197 H   0  0  0  0  0  0  0  0  0  0  0  0
   30.0310   28.5018   45.8197 H   0  0  0  0  0  0  0  0  0  0  0  0
  1  2  2  0
  2  3  1  0
  4  3  2  0
  5  4  1  0
  6  5  2  0
  7  6  1  0
  8  9  1  0
  8  7  2  0
  9 10  2  0
 10  1  1  0
 10  5  1  0
 11 16  2  0
 12 11  1  0
 13 12  2  0
 13 14  1  0
 14 15  2  0
 15 16  1  0
 15  1  1  0
 17 20  1  0
 17 13  1  0
 18 17  1  0
 19 17  1  0
  2 21  1  0
  3 22  1  0
  4 23  1  0
  6 24  1  0
  7 25  1  0
  8 26  1  0
  9 27  1  0
 11 28  1  0
 12 29  1  0
 18 30  1  0
 18 31  1  0
 18 32  1  0
 19 33  1  0
 19 34  1  0
 19 35  1  0
 20 36  1  0
 20 37  1  0
 20 38  1  0
M  ISO  8  21  14  22  14  23  14  24  14  25  14  26  14  27  14  28  14
M  ISO  8  29  14  30   8  31   8  32   8  33   8  34   8  35   8  36   8
M  ISO  2  37   8  38   8
M  END
>  <minimizedAffinity>  (1) 
-6.5989213

>  <minimizedRMSD>  (1) 
0.565298736

$$$$
