
     RDKit          3D

 33 36  0  0  0  0  0  0  0  0999 V2000
   35.6890   29.5300   49.3400 C   0  0  0  0  0  0  0  0  0  0  0  0
   35.7100   29.1700   50.6870 C   0  0  0  0  0  0  0  0  0  0  0  0
   36.6130   29.6340   51.6010 C   0  0  0  0  0  0  0  0  0  0  0  0
   37.5780   30.5130   51.2160 C   0  0  0  0  0  0  0  0  0  0  0  0
   37.6210   30.9110   49.9160 C   0  0  0  0  0  0  0  0  0  0  0  0
   38.6110   31.8000   49.5660 C   0  0  0  0  0  0  0  0  0  0  0  0
   38.7220   32.2510   48.2760 C   0  0  0  0  0  0  0  0  0  0  0  0
   37.7950   31.7710   47.3470 C   0  0  0  0  0  0  0  0  0  0  0  0
   36.8280   30.8850   47.7490 C   0  0  0  0  0  0  0  0  0  0  0  0
   36.6890   30.4200   49.0160 C   0  0  0  0  0  0  0  0  0  0  0  0
   33.5610   27.0260   47.8760 C   0  0  0  0  0  0  0  0  0  0  0  0
   32.8900   27.6200   46.8010 C   0  0  0  0  0  0  0  0  0  0  0  0
   33.1910   28.9450   46.5780 C   0  0  0  0  0  0  0  0  0  0  0  0
   34.0730   29.5570   47.3730 N   0  0  0  0  0  0  0  0  0  0  0  0
   34.7180   29.0210   48.3920 C   0  0  0  0  0  0  0  0  0  0  0  0
   34.4150   27.7350   48.5950 N   0  0  0  0  0  0  0  0  0  0  0  0
   32.5760   29.7190   45.4890 C   0  0  0  0  0  0  0  0  0  0  0  0
   32.1220   31.1430   45.7470 C   0  0  0  0  0  0  0  0  0  0  0  0
   31.1310   30.0510   45.6640 C   0  0  0  0  0  0  0  0  0  0  0  0
   34.9450   28.4620   51.0386 H   0  0  0  0  0  0  0  0  0  0  0  0
   36.5602   29.2975   52.6470 H   0  0  0  0  0  0  0  0  0  0  0  0
   38.3100   30.8947   51.9430 H   0  0  0  0  0  0  0  0  0  0  0  0
   39.3207   32.1525   50.3289 H   0  0  0  0  0  0  0  0  0  0  0  0
   39.5090   32.9620   47.9841 H   0  0  0  0  0  0  0  0  0  0  0  0
   37.8405   32.1019   46.2989 H   0  0  0  0  0  0  0  0  0  0  0  0
   36.1156   30.5265   46.9914 H   0  0  0  0  0  0  0  0  0  0  0  0
   33.3781   25.9698   48.1228 H   0  0  0  0  0  0  0  0  0  0  0  0
   32.1721   27.0668   46.1776 H   0  0  0  0  0  0  0  0  0  0  0  0
   33.2085   29.2460   44.7234 H   0  0  0  0  0  0  0  0  0  0  0  0
   32.3340   31.6217   46.7144 H   0  0  0  0  0  0  0  0  0  0  0  0
   32.2610   32.1089   45.2394 H   0  0  0  0  0  0  0  0  0  0  0  0
   30.4499   29.9961   44.8020 H   0  0  0  0  0  0  0  0  0  0  0  0
   30.3322   29.6850   46.3258 H   0  0  0  0  0  0  0  0  0  0  0  0
  1  2  2  0
  2  3  1  0
  4  3  2  0
  5  4  1  0
  6  5  2  0
  7  6  1  0
  8  9  1  0
  8  7  2  0
  9 10  2  0
 10  1  1  0
 10  5  1  0
 11 16  2  0
 12 11  1  0
 13 12  2  0
 13 14  1  0
 14 15  2  0
 15 16  1  0
 15  1  1  0
 17 19  1  0
 17 18  1  0
 17 13  1  0
 19 18  1  0
  2 20  1  0
  3 21  1  0
  4 22  1  0
  6 23  1  0
  7 24  1  0
  8 25  1  0
  9 26  1  0
 11 27  1  0
 12 28  1  0
 17 29  1  0
 18 30  1  0
 18 31  1  0
 19 32  1  0
 19 33  1  0
M  ISO  8  20  14  21  14  22  14  23  14  24  14  25  14  26  14  27  14
M  ISO  6  28  14  29  13  30  13  31  13  32  13  33  13
M  END
>  <minimizedAffinity>  (1) 
-6.51250887

>  <minimizedRMSD>  (1) 
0.339713156

$$$$
