
     RDKit          3D

 32 34  0  0  0  0  0  0  0  0999 V2000
   35.5470   29.4440   49.2670 C   0  0  0  0  0  0  0  0  0  0  0  0
   35.6400   29.1800   50.6440 C   0  0  0  0  0  0  0  0  0  0  0  0
   36.6160   29.6890   51.4690 C   0  0  0  0  0  0  0  0  0  0  0  0
   37.5770   30.5090   50.9600 C   0  0  0  0  0  0  0  0  0  0  0  0
   37.5490   30.8050   49.6350 C   0  0  0  0  0  0  0  0  0  0  0  0
   38.5400   31.6370   49.1630 C   0  0  0  0  0  0  0  0  0  0  0  0
   38.5800   31.9830   47.8420 C   0  0  0  0  0  0  0  0  0  0  0  0
   37.6020   31.4750   47.0060 C   0  0  0  0  0  0  0  0  0  0  0  0
   36.6350   30.6490   47.5270 C   0  0  0  0  0  0  0  0  0  0  0  0
   36.5560   30.2770   48.8370 C   0  0  0  0  0  0  0  0  0  0  0  0
   33.6000   26.8170   47.8020 C   0  0  0  0  0  0  0  0  0  0  0  0
   32.6760   27.3930   46.9480 C   0  0  0  0  0  0  0  0  0  0  0  0
   32.7280   28.7680   46.8740 C   0  0  0  0  0  0  0  0  0  0  0  0
   33.6360   29.4290   47.6070 N   0  0  0  0  0  0  0  0  0  0  0  0
   34.5180   28.9010   48.4190 C   0  0  0  0  0  0  0  0  0  0  0  0
   34.4420   27.5790   48.4680 N   0  0  0  0  0  0  0  0  0  0  0  0
   31.8110   29.5570   46.0090 C   0  0  0  0  0  0  0  0  0  0  0  0
   32.2780   30.9810   45.8240 C   0  0  0  0  0  0  0  0  0  0  0  0
   34.8812   28.5219   51.0925 H   0  0  0  0  0  0  0  0  0  0  0  0
   36.6203   29.4339   52.5390 H   0  0  0  0  0  0  0  0  0  0  0  0
   38.3613   30.9238   51.6102 H   0  0  0  0  0  0  0  0  0  0  0  0
   39.3034   32.0250   49.8534 H   0  0  0  0  0  0  0  0  0  0  0  0
   39.3672   32.6464   47.4544 H   0  0  0  0  0  0  0  0  0  0  0  0
   37.5983   31.7294   45.9358 H   0  0  0  0  0  0  0  0  0  0  0  0
   35.8702   30.2602   46.8386 H   0  0  0  0  0  0  0  0  0  0  0  0
   33.6309   25.7242   47.9242 H   0  0  0  0  0  0  0  0  0  0  0  0
   31.9534   26.7973   46.3709 H   0  0  0  0  0  0  0  0  0  0  0  0
   31.7522   29.0735   45.0227 H   0  0  0  0  0  0  0  0  0  0  0  0
   30.8281   29.5875   46.5019 H   0  0  0  0  0  0  0  0  0  0  0  0
   32.4310   31.4475   46.8084 H   0  0  0  0  0  0  0  0  0  0  0  0
   33.2250   30.9865   45.2644 H   0  0  0  0  0  0  0  0  0  0  0  0
   31.5182   31.5463   45.2644 H   0  0  0  0  0  0  0  0  0  0  0  0
  1  2  2  0
  2  3  1  0
  4  3  2  0
  5  4  1  0
  6  5  2  0
  7  6  1  0
  8  9  1  0
  8  7  2  0
  9 10  2  0
 10  1  1  0
 10  5  1  0
 11 16  2  0
 12 11  1  0
 13 12  2  0
 13 14  1  0
 14 15  2  0
 15 16  1  0
 15  1  1  0
 17 13  1  0
 18 17  1  0
  2 19  1  0
  3 20  1  0
  4 21  1  0
  6 22  1  0
  7 23  1  0
  8 24  1  0
  9 25  1  0
 11 26  1  0
 12 27  1  0
 17 28  1  0
 17 29  1  0
 18 30  1  0
 18 31  1  0
 18 32  1  0
M  ISO  8  19  14  20  14  21  14  22  14  23  14  24  14  25  14  26  14
M  ISO  6  27  14  28   8  29   8  30   8  31   8  32   8
M  END
>  <minimizedAffinity>  (1) 
-6.33194923

>  <minimizedRMSD>  (1) 
0.439137876

$$$$
