
     RDKit          3D

 13 13  0  0  0  0  0  0  0  0999 V2000
   37.3350   30.2860   49.9800 C   0  0  0  0  0  0  0  0  0  0  0  0
   38.2930   31.3060   50.0490 C   0  0  0  0  0  0  0  0  0  0  0  0
   38.5150   32.0800   48.9040 C   0  0  0  0  0  0  0  0  0  0  0  0
   37.7860   31.7960   47.7910 N   0  0  0  0  0  0  0  0  0  0  0  0
   36.8640   30.7970   47.7630 C   0  0  0  0  0  0  0  0  0  0  0  0
   36.6490   30.0560   48.8550 N   0  0  0  0  0  0  0  0  0  0  0  0
   37.0890   29.4490   51.2050 C   0  0  0  0  0  0  0  0  0  0  0  0
   35.7380   29.1880   51.3310 F   0  0  0  0  0  0  0  0  0  0  0  0
   37.8680   28.3350   51.1270 F   0  0  0  0  0  0  0  0  0  0  0  0
   37.4610   30.2190   52.3060 F   0  0  0  0  0  0  0  0  0  0  0  0
   38.8545   31.4932   50.9762 H   0  0  0  0  0  0  0  0  0  0  0  0
   39.2561   32.8929   48.9041 H   0  0  0  0  0  0  0  0  0  0  0  0
   36.2953   30.5986   46.8425 H   0  0  0  0  0  0  0  0  0  0  0  0
  1  2  2  0
  1  7  1  0
  3  2  1  0
  4  3  2  0
  5  4  1  0
  5  6  2  0
  6  1  1  0
  7  8  1  0
  7 10  1  0
  9  7  1  0
  2 11  1  0
  3 12  1  0
  5 13  1  0
M  ISO  3  11  14  12  14  13  14
M  END
>  <minimizedAffinity>  (1) 
-4.34025049

>  <minimizedRMSD>  (1) 
2.22742486

$$$$
