
     RDKit          3D

 27 29  0  0  0  0  0  0  0  0999 V2000
   37.5470   30.8850   49.0170 C   0  0  0  0  0  0  0  0  0  0  0  0
   37.6360   32.0560   49.7580 C   0  0  0  0  0  0  0  0  0  0  0  0
   38.3760   33.1220   49.2530 C   0  0  0  0  0  0  0  0  0  0  0  0
   38.9820   32.9610   48.0440 N   0  0  0  0  0  0  0  0  0  0  0  0
   38.8800   31.8090   47.3400 C   0  0  0  0  0  0  0  0  0  0  0  0
   38.1680   30.7810   47.8250 N   0  0  0  0  0  0  0  0  0  0  0  0
   39.5050   31.6180   46.0760 N   0  0  0  0  0  0  0  0  0  0  0  0
   40.7410   31.1660   45.7470 C   0  0  0  0  0  0  0  0  0  0  0  0
   40.8530   31.1710   44.3910 N   0  0  0  0  0  0  0  0  0  0  0  0
   39.6920   31.6240   43.8690 C   0  0  0  0  0  0  0  0  0  0  0  0
   39.2630   31.8280   42.5760 C   0  0  0  0  0  0  0  0  0  0  0  0
   39.9980   31.5880   41.5900 O   0  0  0  0  0  0  0  0  0  0  0  0
   38.0290   32.3000   42.3310 N   0  0  0  0  0  0  0  0  0  0  0  0
   37.2130   32.5700   43.3730 C   0  0  0  0  0  0  0  0  0  0  0  0
   35.8740   33.0740   43.2840 N   0  0  0  0  0  0  0  0  0  0  0  0
   37.6200   32.3750   44.6210 N   0  0  0  0  0  0  0  0  0  0  0  0
   38.8600   31.9000   44.9280 C   0  0  0  0  0  0  0  0  0  0  0  0
   36.7510   29.7300   49.5530 C   0  0  0  0  0  0  0  0  0  0  0  0
   36.1280   29.0600   48.5100 F   0  0  0  0  0  0  0  0  0  0  0  0
   37.5910   28.9490   50.2890 F   0  0  0  0  0  0  0  0  0  0  0  0
   35.7530   30.2710   50.3590 F   0  0  0  0  0  0  0  0  0  0  0  0
   37.1289   32.1404   50.7305 H   0  0  0  0  0  0  0  0  0  0  0  0
   38.4682   34.0644   49.8129 H   0  0  0  0  0  0  0  0  0  0  0  0
   41.5202   30.8493   46.4559 H   0  0  0  0  0  0  0  0  0  0  0  0
   37.7103   32.4535   41.3637 H   0  0  0  0  0  0  0  0  0  0  0  0
   35.3312   33.2480   44.1419 H   0  0  0  0  0  0  0  0  0  0  0  0
   35.4547   33.2621   42.3622 H   0  0  0  0  0  0  0  0  0  0  0  0
  1 18  1  0
  1  2  2  0
  3  2  1  0
  4  3  2  0
  5  6  2  0
  5  4  1  0
  6  1  1  0
  7  5  1  0
  8  7  1  0
  9  8  2  0
 10  9  1  0
 10 17  2  0
 11 10  1  0
 12 11  2  0
 13 11  1  0
 13 14  1  0
 14 16  2  0
 15 14  1  0
 16 17  1  0
 17  7  1  0
 18 20  1  0
 18 21  1  0
 19 18  1  0
  2 22  1  0
  3 23  1  0
  8 24  1  0
 13 25  1  0
 15 26  1  0
 15 27  1  0
M  ISO  4  22  14  23  14  24  14  25   9
M  END
>  <minimizedAffinity>  (1) 
-7.26266479

>  <minimizedRMSD>  (1) 
4.22693968

$$$$
