
     RDKit          3D

 29 31  0  0  0  0  0  0  0  0999 V2000
   37.3110   30.5390   49.5670 C   0  0  0  0  0  0  0  0  0  0  0  0
   37.1440   31.7390   50.2400 C   0  0  0  0  0  0  0  0  0  0  0  0
   37.6040   32.9010   49.5930 C   0  0  0  0  0  0  0  0  0  0  0  0
   38.1730   32.7840   48.3780 N   0  0  0  0  0  0  0  0  0  0  0  0
   38.3260   31.6080   47.7430 C   0  0  0  0  0  0  0  0  0  0  0  0
   37.8820   30.5390   48.3790 N   0  0  0  0  0  0  0  0  0  0  0  0
   38.9070   31.2950   46.4420 C   0  0  0  0  0  0  0  0  0  0  0  0
   40.2570   31.4680   46.1420 C   0  0  0  0  0  0  0  0  0  0  0  0
   40.8230   31.1820   44.9340 C   0  0  0  0  0  0  0  0  0  0  0  0
   40.0560   30.6890   43.9170 C   0  0  0  0  0  0  0  0  0  0  0  0
   38.7140   30.4890   44.1350 C   0  0  0  0  0  0  0  0  0  0  0  0
   37.9670   29.9900   43.0900 C   0  0  0  0  0  0  0  0  0  0  0  0
   36.6200   29.7670   43.2470 C   0  0  0  0  0  0  0  0  0  0  0  0
   36.0630   30.0630   44.4800 C   0  0  0  0  0  0  0  0  0  0  0  0
   36.8590   30.5610   45.4860 C   0  0  0  0  0  0  0  0  0  0  0  0
   38.2020   30.7960   45.3710 C   0  0  0  0  0  0  0  0  0  0  0  0
   36.8280   29.2720   50.2100 C   0  0  0  0  0  0  0  0  0  0  0  0
   36.0400   28.5630   49.3080 F   0  0  0  0  0  0  0  0  0  0  0  0
   37.9000   28.5820   50.6520 F   0  0  0  0  0  0  0  0  0  0  0  0
   36.0000   29.6530   51.2710 F   0  0  0  0  0  0  0  0  0  0  0  0
   36.6738   31.7812   51.2336 H   0  0  0  0  0  0  0  0  0  0  0  0
   37.5007   33.8864   50.0708 H   0  0  0  0  0  0  0  0  0  0  0  0
   40.9112   31.8622   46.9336 H   0  0  0  0  0  0  0  0  0  0  0  0
   41.8991   31.3488   44.7788 H   0  0  0  0  0  0  0  0  0  0  0  0
   40.5049   30.4560   42.9401 H   0  0  0  0  0  0  0  0  0  0  0  0
   38.4505   29.7694   42.1269 H   0  0  0  0  0  0  0  0  0  0  0  0
   36.0076   29.3686   42.4247 H   0  0  0  0  0  0  0  0  0  0  0  0
   34.9891   29.9007   44.6544 H   0  0  0  0  0  0  0  0  0  0  0  0
   36.3817   30.7861   46.4511 H   0  0  0  0  0  0  0  0  0  0  0  0
  1 17  1  0
  1  2  2  0
  3  2  1  0
  4  3  2  0
  5  4  1  0
  5  6  2  0
  6  1  1  0
  7  5  1  0
  8  7  2  0
  9  8  1  0
 10 11  1  0
 10  9  2  0
 11 16  2  0
 12 13  2  0
 12 11  1  0
 13 14  1  0
 14 15  2  0
 16 15  1  0
 16  7  1  0
 17 19  1  0
 17 20  1  0
 18 17  1  0
  2 21  1  0
  3 22  1  0
  8 23  1  0
  9 24  1  0
 10 25  1  0
 12 26  1  0
 13 27  1  0
 14 28  1  0
 15 29  1  0
M  ISO  8  21  14  22  14  23  14  24  14  25  14  26  14  27  14  28  14
M  ISO  1  29  14
M  END
>  <minimizedAffinity>  (1) 
-6.45975924

>  <minimizedRMSD>  (1) 
3.57306623

$$$$
