
     RDKit          3D

 24 26  0  0  0  0  0  0  0  0999 V2000
   37.4720   30.3030   49.6310 C   0  0  0  0  0  0  0  0  0  0  0  0
   38.1470   31.3320   50.2860 C   0  0  0  0  0  0  0  0  0  0  0  0
   38.6680   32.3740   49.5200 C   0  0  0  0  0  0  0  0  0  0  0  0
   38.4860   32.3220   48.1720 N   0  0  0  0  0  0  0  0  0  0  0  0
   37.8260   31.3080   47.5710 C   0  0  0  0  0  0  0  0  0  0  0  0
   37.3230   30.3050   48.2980 N   0  0  0  0  0  0  0  0  0  0  0  0
   37.7190   31.3970   46.1560 N   0  0  0  0  0  0  0  0  0  0  0  0
   36.7870   30.6910   45.4670 C   0  0  0  0  0  0  0  0  0  0  0  0
   36.9040   30.9590   44.1520 N   0  0  0  0  0  0  0  0  0  0  0  0
   37.8970   31.8300   43.9630 C   0  0  0  0  0  0  0  0  0  0  0  0
   38.5090   32.4850   42.9120 C   0  0  0  0  0  0  0  0  0  0  0  0
   39.5280   33.3210   43.1670 N   0  0  0  0  0  0  0  0  0  0  0  0
   39.9920   33.5580   44.4060 C   0  0  0  0  0  0  0  0  0  0  0  0
   39.4300   32.9430   45.4740 N   0  0  0  0  0  0  0  0  0  0  0  0
   38.3970   32.0950   45.2240 C   0  0  0  0  0  0  0  0  0  0  0  0
   36.9030   29.1730   50.4410 C   0  0  0  0  0  0  0  0  0  0  0  0
   35.9650   28.4750   49.7040 F   0  0  0  0  0  0  0  0  0  0  0  0
   37.9390   28.4100   50.9090 F   0  0  0  0  0  0  0  0  0  0  0  0
   36.2300   29.7510   51.5260 F   0  0  0  0  0  0  0  0  0  0  0  0
   38.2656   31.3221   51.3795 H   0  0  0  0  0  0  0  0  0  0  0  0
   39.2078   33.2098   49.9891 H   0  0  0  0  0  0  0  0  0  0  0  0
   36.0505   30.0064   45.9130 H   0  0  0  0  0  0  0  0  0  0  0  0
   38.1658   32.3237   41.8794 H   0  0  0  0  0  0  0  0  0  0  0  0
   40.8311   34.2539   44.5532 H   0  0  0  0  0  0  0  0  0  0  0  0
  1  2  2  0
  1 16  1  0
  3  2  1  0
  4  3  2  0
  5  4  1  0
  5  6  2  0
  6  1  1  0
  7  5  1  0
  8  7  1  0
  9  8  2  0
 10  9  1  0
 10 15  2  0
 11 12  2  0
 11 10  1  0
 12 13  1  0
 13 14  2  0
 15 14  1  0
 15  7  1  0
 16 18  1  0
 16 19  1  0
 17 16  1  0
  2 20  1  0
  3 21  1  0
  8 22  1  0
 11 23  1  0
 13 24  1  0
M  ISO  5  20  14  21  14  22  14  23  14  24  14
M  END
>  <minimizedAffinity>  (1) 
-6.37876129

>  <minimizedRMSD>  (1) 
1.96580398

$$$$
