
     RDKit          3D

 25 26  0  0  0  0  0  0  0  0999 V2000
   37.2210   30.6500   49.3030 C   0  0  0  0  0  0  0  0  0  0  0  0
   37.1680   31.8160   50.0880 C   0  0  0  0  0  0  0  0  0  0  0  0
   37.7450   32.9770   49.5610 C   0  0  0  0  0  0  0  0  0  0  0  0
   38.3210   32.9070   48.3270 N   0  0  0  0  0  0  0  0  0  0  0  0
   38.3470   31.7610   47.6130 C   0  0  0  0  0  0  0  0  0  0  0  0
   37.8030   30.6540   48.1010 N   0  0  0  0  0  0  0  0  0  0  0  0
   38.9780   31.8210   46.3390 N   0  0  0  0  0  0  0  0  0  0  0  0
   40.1270   31.0260   45.9480 C   0  0  0  0  0  0  0  0  0  0  0  0
   40.8680   31.8530   44.9000 C   0  0  0  0  0  0  0  0  0  0  0  0
   40.0710   33.1440   44.8160 C   0  0  0  0  0  0  0  0  0  0  0  0
   38.6740   32.6270   45.1710 C   0  0  0  0  0  0  0  0  0  0  0  0
   36.6000   29.3940   49.8630 C   0  0  0  0  0  0  0  0  0  0  0  0
   35.9780   28.6950   48.8400 F   0  0  0  0  0  0  0  0  0  0  0  0
   37.5660   28.6860   50.4950 F   0  0  0  0  0  0  0  0  0  0  0  0
   35.6070   29.7950   50.7530 F   0  0  0  0  0  0  0  0  0  0  0  0
   36.6908   31.8153   51.0791 H   0  0  0  0  0  0  0  0  0  0  0  0
   37.7342   33.9203   50.1268 H   0  0  0  0  0  0  0  0  0  0  0  0
   40.7758   30.8376   46.8161 H   0  0  0  0  0  0  0  0  0  0  0  0
   39.8248   30.0458   45.5506 H   0  0  0  0  0  0  0  0  0  0  0  0
   41.9017   32.0522   45.2190 H   0  0  0  0  0  0  0  0  0  0  0  0
   40.9418   31.3383   43.9306 H   0  0  0  0  0  0  0  0  0  0  0  0
   40.4259   33.8894   45.5429 H   0  0  0  0  0  0  0  0  0  0  0  0
   40.1374   33.6639   43.8489 H   0  0  0  0  0  0  0  0  0  0  0  0
   37.9861   33.4503   45.4138 H   0  0  0  0  0  0  0  0  0  0  0  0
   38.1666   32.0845   44.3597 H   0  0  0  0  0  0  0  0  0  0  0  0
  1 12  1  0
  1  2  2  0
  3  2  1  0
  4  3  2  0
  5  6  2  0
  5  4  1  0
  6  1  1  0
  7  5  1  0
  8  7  1  0
  9  8  1  0
 10  9  1  0
 10 11  1  0
 11  7  1  0
 12 14  1  0
 12 15  1  0
 13 12  1  0
  2 16  1  0
  3 17  1  0
  8 18  1  0
  8 19  1  0
  9 20  1  0
  9 21  1  0
 10 22  1  0
 10 23  1  0
 11 24  1  0
 11 25  1  0
M  ISO  8  16  14  17  14  18  13  19  13  20  13  21  13  22  13  23  13
M  ISO  2  24  13  25  13
M  END
>  <minimizedAffinity>  (1) 
-5.91856813

>  <minimizedRMSD>  (1) 
2.78854227

$$$$
