
     RDKit          3D

 20 21  0  0  0  0  0  0  0  0999 V2000
   37.3540   30.2650   50.0320 C   0  0  0  0  0  0  0  0  0  0  0  0
   38.2830   31.3090   50.0930 C   0  0  0  0  0  0  0  0  0  0  0  0
   38.4920   32.0700   48.9280 C   0  0  0  0  0  0  0  0  0  0  0  0
   37.7770   31.7470   47.8120 N   0  0  0  0  0  0  0  0  0  0  0  0
   36.8920   30.7280   47.8070 C   0  0  0  0  0  0  0  0  0  0  0  0
   36.6780   29.9930   48.9000 N   0  0  0  0  0  0  0  0  0  0  0  0
   36.1580   30.4100   46.6260 N   0  0  0  0  0  0  0  0  0  0  0  0
   34.8850   29.9580   46.7840 C   0  0  0  0  0  0  0  0  0  0  0  0
   34.3510   29.7100   45.5170 C   0  0  0  0  0  0  0  0  0  0  0  0
   35.3200   30.0220   44.6350 N   0  0  0  0  0  0  0  0  0  0  0  0
   36.4030   30.4420   45.2950 C   0  0  0  0  0  0  0  0  0  0  0  0
   37.1220   29.4420   51.2740 C   0  0  0  0  0  0  0  0  0  0  0  0
   35.7770   29.1900   51.4150 F   0  0  0  0  0  0  0  0  0  0  0  0
   37.8960   28.3150   51.1730 F   0  0  0  0  0  0  0  0  0  0  0  0
   37.5220   30.2130   52.3510 F   0  0  0  0  0  0  0  0  0  0  0  0
   38.8319   31.5278   51.0208 H   0  0  0  0  0  0  0  0  0  0  0  0
   39.2116   32.9019   48.9175 H   0  0  0  0  0  0  0  0  0  0  0  0
   34.3659   29.8129   47.7429 H   0  0  0  0  0  0  0  0  0  0  0  0
   33.3428   29.3355   45.2863 H   0  0  0  0  0  0  0  0  0  0  0  0
   37.3464   30.7636   44.8296 H   0  0  0  0  0  0  0  0  0  0  0  0
  1  2  2  0
  1 12  1  0
  3  2  1  0
  4  3  2  0
  5  4  1  0
  5  6  2  0
  6  1  1  0
  7  8  1  0
  7  5  1  0
  9  8  2  0
 10 11  2  0
 10  9  1  0
 11  7  1  0
 12 13  1  0
 12 15  1  0
 14 12  1  0
  2 16  1  0
  3 17  1  0
  8 18  1  0
  9 19  1  0
 11 20  1  0
M  ISO  5  16  14  17  14  18  14  19  14  20  14
M  END
>  <minimizedAffinity>  (1) 
-5.35380459

>  <minimizedRMSD>  (1) 
0.09974318

$$$$
