
     RDKit          3D

 16 16  0  0  0  0  0  0  0  0999 V2000
   37.5010   30.6160   49.1400 C   0  0  0  0  0  0  0  0  0  0  0  0
   37.6640   31.8540   49.7800 C   0  0  0  0  0  0  0  0  0  0  0  0
   38.3880   32.8590   49.1390 C   0  0  0  0  0  0  0  0  0  0  0  0
   38.8950   32.5730   47.9200 N   0  0  0  0  0  0  0  0  0  0  0  0
   38.7240   31.3700   47.3230 C   0  0  0  0  0  0  0  0  0  0  0  0
   38.0320   30.4010   47.9310 N   0  0  0  0  0  0  0  0  0  0  0  0
   36.7180   29.5400   49.8460 C   0  0  0  0  0  0  0  0  0  0  0  0
   36.0550   28.7750   48.9190 F   0  0  0  0  0  0  0  0  0  0  0  0
   37.6020   28.8390   50.6250 F   0  0  0  0  0  0  0  0  0  0  0  0
   35.7700   30.1650   50.6330 F   0  0  0  0  0  0  0  0  0  0  0  0
   39.3380   31.1800   45.9700 C   0  0  0  0  0  0  0  0  0  0  0  0
   38.8770   32.1870   45.1420 F   0  0  0  0  0  0  0  0  0  0  0  0
   40.7230   31.2110   46.0810 F   0  0  0  0  0  0  0  0  0  0  0  0
   38.9700   29.9840   45.4090 F   0  0  0  0  0  0  0  0  0  0  0  0
   37.2266   32.0295   50.7739 H   0  0  0  0  0  0  0  0  0  0  0  0
   38.5398   33.8431   49.6064 H   0  0  0  0  0  0  0  0  0  0  0  0
  1  2  2  0
  1  7  1  0
  3  2  1  0
  4  3  2  0
  5  4  1  0
  5  6  2  0
  6  1  1  0
  7  9  1  0
  7 10  1  0
  8  7  1  0
 11 13  1  0
 11  5  1  0
 12 11  1  0
 14 11  1  0
  2 15  1  0
  3 16  1  0
M  ISO  2  15  14  16  14
M  END
>  <minimizedAffinity>  (1) 
-5.1215663

>  <minimizedRMSD>  (1) 
2.39324164

$$$$
