
     RDKit          3D

 20 21  0  0  0  0  0  0  0  0999 V2000
   37.2540   30.5710   49.4340 C   0  0  0  0  0  0  0  0  0  0  0  0
   37.0310   31.7750   50.1170 C   0  0  0  0  0  0  0  0  0  0  0  0
   37.5990   32.9450   49.5950 C   0  0  0  0  0  0  0  0  0  0  0  0
   38.3290   32.8470   48.4640 N   0  0  0  0  0  0  0  0  0  0  0  0
   38.5240   31.6600   47.8300 C   0  0  0  0  0  0  0  0  0  0  0  0
   37.9860   30.5500   48.3220 N   0  0  0  0  0  0  0  0  0  0  0  0
   36.6430   29.3230   49.9990 C   0  0  0  0  0  0  0  0  0  0  0  0
   35.9860   28.6370   48.9840 F   0  0  0  0  0  0  0  0  0  0  0  0
   37.6210   28.5960   50.6030 F   0  0  0  0  0  0  0  0  0  0  0  0
   35.6800   29.7090   50.9150 F   0  0  0  0  0  0  0  0  0  0  0  0
   39.3420   31.6010   46.5780 C   0  0  0  0  0  0  0  0  0  0  0  0
   39.8800   32.8570   45.9850 C   0  0  0  0  0  0  0  0  0  0  0  0
   38.7200   32.2280   45.3110 C   0  0  0  0  0  0  0  0  0  0  0  0
   36.4275   31.8005   51.0363 H   0  0  0  0  0  0  0  0  0  0  0  0
   37.4541   33.9152   50.0927 H   0  0  0  0  0  0  0  0  0  0  0  0
   39.7829   30.6348   46.8644 H   0  0  0  0  0  0  0  0  0  0  0  0
   39.7464   33.8096   46.5186 H   0  0  0  0  0  0  0  0  0  0  0  0
   40.8778   33.1738   45.6472 H   0  0  0  0  0  0  0  0  0  0  0  0
   37.7288   32.7026   45.3584 H   0  0  0  0  0  0  0  0  0  0  0  0
   38.4999   31.8799   44.2910 H   0  0  0  0  0  0  0  0  0  0  0  0
  1  7  1  0
  1  2  2  0
  3  2  1  0
  4  3  2  0
  5  6  2  0
  5  4  1  0
  6  1  1  0
  7  9  1  0
  7 10  1  0
  8  7  1  0
 11  5  1  0
 12 11  1  0
 13 12  1  0
 13 11  1  0
  2 14  1  0
  3 15  1  0
 11 16  1  0
 12 17  1  0
 12 18  1  0
 13 19  1  0
 13 20  1  0
M  ISO  7  14  14  15  14  16  13  17  13  18  13  19  13  20  13
M  END
>  <minimizedAffinity>  (1) 
-5.0386548

>  <minimizedRMSD>  (1) 
2.2048564

$$$$
