
     RDKit          3D

 19 20  0  0  0  0  0  0  0  0999 V2000
   37.3990   30.2830   50.0150 C   0  0  0  0  0  0  0  0  0  0  0  0
   38.2950   31.3570   50.1320 C   0  0  0  0  0  0  0  0  0  0  0  0
   38.5490   32.1470   49.0040 C   0  0  0  0  0  0  0  0  0  0  0  0
   37.9050   31.8180   47.8590 N   0  0  0  0  0  0  0  0  0  0  0  0
   37.0430   30.7740   47.7730 C   0  0  0  0  0  0  0  0  0  0  0  0
   36.8080   30.0280   48.8510 N   0  0  0  0  0  0  0  0  0  0  0  0
   36.3970   30.5070   46.4750 C   0  0  0  0  0  0  0  0  0  0  0  0
   37.0200   30.7930   45.2880 C   0  0  0  0  0  0  0  0  0  0  0  0
   35.7500   30.2530   44.0300 S   0  0  0  0  0  0  0  0  0  0  0  0
   34.5840   29.7260   45.4380 C   0  0  0  0  0  0  0  0  0  0  0  0
   35.1760   29.9740   46.3610 N   0  0  0  0  0  0  0  0  0  0  0  0
   37.1250   29.4360   51.2180 C   0  0  0  0  0  0  0  0  0  0  0  0
   35.7770   29.1940   51.3310 F   0  0  0  0  0  0  0  0  0  0  0  0
   37.8980   28.3070   51.1280 F   0  0  0  0  0  0  0  0  0  0  0  0
   37.5170   30.1790   52.3390 F   0  0  0  0  0  0  0  0  0  0  0  0
   38.7881   31.5739   51.0911 H   0  0  0  0  0  0  0  0  0  0  0  0
   39.2429   32.9995   49.0462 H   0  0  0  0  0  0  0  0  0  0  0  0
   38.0154   31.2297   45.1193 H   0  0  0  0  0  0  0  0  0  0  0  0
   33.5781   29.2867   45.3665 H   0  0  0  0  0  0  0  0  0  0  0  0
  1  2  2  0
  1 12  1  0
  3  2  1  0
  4  3  2  0
  5  4  1  0
  5  6  2  0
  6  1  1  0
  7  5  1  0
  8  7  2  0
  9  8  1  0
  9 10  1  0
 10 11  2  0
 11  7  1  0
 12 13  1  0
 12 15  1  0
 14 12  1  0
  2 16  1  0
  3 17  1  0
  8 18  1  0
 10 19  1  0
M  ISO  4  16  14  17  14  18  14  19  14
M  END
>  <minimizedAffinity>  (1) 
-5.02423859

>  <minimizedRMSD>  (1) 
0.245743752

$$$$
