
     RDKit          3D

 18 19  0  0  0  0  0  0  0  0999 V2000
   37.3640   30.2620   50.0420 C   0  0  0  0  0  0  0  0  0  0  0  0
   38.2830   31.3280   50.1130 C   0  0  0  0  0  0  0  0  0  0  0  0
   38.4960   32.0890   48.9630 C   0  0  0  0  0  0  0  0  0  0  0  0
   37.8060   31.7600   47.8430 N   0  0  0  0  0  0  0  0  0  0  0  0
   36.9300   30.7280   47.8120 C   0  0  0  0  0  0  0  0  0  0  0  0
   36.7150   29.9880   48.9090 N   0  0  0  0  0  0  0  0  0  0  0  0
   36.2280   30.4430   46.5650 C   0  0  0  0  0  0  0  0  0  0  0  0
   34.9450   29.9900   46.6390 N   0  0  0  0  0  0  0  0  0  0  0  0
   34.5370   29.8090   45.4060 O   0  0  0  0  0  0  0  0  0  0  0  0
   35.5070   30.1270   44.5790 C   0  0  0  0  0  0  0  0  0  0  0  0
   36.5920   30.5330   45.2650 N   0  0  0  0  0  0  0  0  0  0  0  0
   37.1320   29.4430   51.2720 C   0  0  0  0  0  0  0  0  0  0  0  0
   35.7740   29.1930   51.4100 F   0  0  0  0  0  0  0  0  0  0  0  0
   37.8970   28.3180   51.1920 F   0  0  0  0  0  0  0  0  0  0  0  0
   37.5180   30.2050   52.3620 F   0  0  0  0  0  0  0  0  0  0  0  0
   38.8169   31.5536   51.0479 H   0  0  0  0  0  0  0  0  0  0  0  0
   39.2032   32.9315   48.9649 H   0  0  0  0  0  0  0  0  0  0  0  0
   35.4420   30.0697   43.4824 H   0  0  0  0  0  0  0  0  0  0  0  0
  1  2  2  0
  1 12  1  0
  3  2  1  0
  4  3  2  0
  5  4  1  0
  5  6  2  0
  6  1  1  0
  7  8  2  0
  7  5  1  0
  9  8  1  0
 10 11  2  0
 10  9  1  0
 11  7  1  0
 12 13  1  0
 12 15  1  0
 14 12  1  0
  2 16  1  0
  3 17  1  0
 10 18  1  0
M  ISO  3  16  14  17  14  18  14
M  END
>  <minimizedAffinity>  (1) 
-5.00571156

>  <minimizedRMSD>  (1) 
0.137855202

$$$$
