
     RDKit          3D

 15 15  0  0  0  0  0  0  0  0999 V2000
   37.3150   30.3080   49.9940 C   0  0  0  0  0  0  0  0  0  0  0  0
   38.3110   31.2910   50.0550 C   0  0  0  0  0  0  0  0  0  0  0  0
   38.5280   32.0800   48.9130 C   0  0  0  0  0  0  0  0  0  0  0  0
   37.7680   31.8510   47.8210 N   0  0  0  0  0  0  0  0  0  0  0  0
   36.8060   30.8830   47.8010 C   0  0  0  0  0  0  0  0  0  0  0  0
   36.5920   30.1300   48.8790 N   0  0  0  0  0  0  0  0  0  0  0  0
   35.9950   30.6270   46.6580 N   0  0  0  0  0  0  0  0  0  0  0  0
   37.0670   29.4580   51.1970 C   0  0  0  0  0  0  0  0  0  0  0  0
   35.7270   29.1980   51.3260 F   0  0  0  0  0  0  0  0  0  0  0  0
   37.8500   28.3560   51.1110 F   0  0  0  0  0  0  0  0  0  0  0  0
   37.4450   30.2150   52.3140 F   0  0  0  0  0  0  0  0  0  0  0  0
   38.9049   31.4406   50.9688 H   0  0  0  0  0  0  0  0  0  0  0  0
   39.2984   32.8652   48.9087 H   0  0  0  0  0  0  0  0  0  0  0  0
   35.2807   29.8855   46.6889 H   0  0  0  0  0  0  0  0  0  0  0  0
   36.1229   31.1834   45.8007 H   0  0  0  0  0  0  0  0  0  0  0  0
  1  2  2  0
  1  8  1  0
  3  2  1  0
  4  3  2  0
  5  4  1  0
  5  6  2  0
  6  1  1  0
  7  5  1  0
  8  9  1  0
  8 11  1  0
 10  8  1  0
  2 12  1  0
  3 13  1  0
  7 14  1  0
  7 15  1  0
M  ISO  2  12  14  13  14
M  END
>  <minimizedAffinity>  (1) 
-4.80220366

>  <minimizedRMSD>  (1) 
0.0811346322

$$$$
