
     RDKit          3D

 14 14  0  0  0  0  0  0  0  0999 V2000
   37.3050   30.3470   50.0050 C   0  0  0  0  0  0  0  0  0  0  0  0
   38.3270   31.3060   50.0730 C   0  0  0  0  0  0  0  0  0  0  0  0
   38.5500   32.1060   48.9370 C   0  0  0  0  0  0  0  0  0  0  0  0
   37.7730   31.9070   47.8520 N   0  0  0  0  0  0  0  0  0  0  0  0
   36.7950   30.9640   47.8320 C   0  0  0  0  0  0  0  0  0  0  0  0
   36.5600   30.1920   48.8930 N   0  0  0  0  0  0  0  0  0  0  0  0
   37.0610   29.4810   51.2120 C   0  0  0  0  0  0  0  0  0  0  0  0
   35.7240   29.2040   51.3200 F   0  0  0  0  0  0  0  0  0  0  0  0
   37.8440   28.3620   51.0840 F   0  0  0  0  0  0  0  0  0  0  0  0
   37.4380   30.2160   52.3190 F   0  0  0  0  0  0  0  0  0  0  0  0
   35.9700   30.7180   46.7450 O   0  0  0  0  0  0  0  0  0  0  0  0
   38.9330   31.4282   50.9829 H   0  0  0  0  0  0  0  0  0  0  0  0
   39.3376   32.8739   48.9336 H   0  0  0  0  0  0  0  0  0  0  0  0
   35.2763   30.0138   46.7995 H   0  0  0  0  0  0  0  0  0  0  0  0
  1  2  2  0
  1  7  1  0
  3  2  1  0
  4  3  2  0
  5  4  1  0
  5  6  2  0
  6  1  1  0
  7  8  1  0
  7 10  1  0
  9  7  1  0
 11  5  1  0
  2 12  1  0
  3 13  1  0
 11 14  1  0
M  ISO  3  12  14  13  14  14   3
M  END
>  <minimizedAffinity>  (1) 
-4.78351116

>  <minimizedRMSD>  (1) 
0.134034678

$$$$
