
     RDKit          3D

 16 16  0  0  0  0  0  0  0  0999 V2000
   37.3340   30.2540   50.0030 C   0  0  0  0  0  0  0  0  0  0  0  0
   38.2740   31.2870   50.0330 C   0  0  0  0  0  0  0  0  0  0  0  0
   38.4920   32.0290   48.8770 C   0  0  0  0  0  0  0  0  0  0  0  0
   37.7620   31.7000   47.7660 N   0  0  0  0  0  0  0  0  0  0  0  0
   36.8590   30.6900   47.7770 C   0  0  0  0  0  0  0  0  0  0  0  0
   36.6490   29.9790   48.8820 N   0  0  0  0  0  0  0  0  0  0  0  0
   37.0930   29.4480   51.2490 C   0  0  0  0  0  0  0  0  0  0  0  0
   35.7550   29.1790   51.3970 F   0  0  0  0  0  0  0  0  0  0  0  0
   37.8760   28.3280   51.1730 F   0  0  0  0  0  0  0  0  0  0  0  0
   37.5030   30.2330   52.3280 F   0  0  0  0  0  0  0  0  0  0  0  0
   36.1090   30.3990   46.5270 C   0  0  0  0  0  0  0  0  0  0  0  0
   38.8319   31.5096   50.9545 H   0  0  0  0  0  0  0  0  0  0  0  0
   39.2239   32.8499   48.8559 H   0  0  0  0  0  0  0  0  0  0  0  0
   35.1110   30.0118   46.7799 H   0  0  0  0  0  0  0  0  0  0  0  0
   36.0056   31.3223   45.9380 H   0  0  0  0  0  0  0  0  0  0  0  0
   36.6554   29.6476   45.9380 H   0  0  0  0  0  0  0  0  0  0  0  0
  1  2  2  0
  1  7  1  0
  3  2  1  0
  4  5  1  0
  4  3  2  0
  5  6  2  0
  6  1  1  0
  7  8  1  0
  7 10  1  0
  9  7  1  0
 11  5  1  0
  2 12  1  0
  3 13  1  0
 11 14  1  0
 11 15  1  0
 11 16  1  0
M  ISO  5  12  14  13  14  14   8  15   8  16   8
M  END
>  <minimizedAffinity>  (1) 
-4.60004711

>  <minimizedRMSD>  (1) 
0.0786562413

$$$$
