
     RDKit          3D

 14 14  0  0  0  0  0  0  0  0999 V2000
   37.3180   30.2330   49.9870 C   0  0  0  0  0  0  0  0  0  0  0  0
   38.2810   31.2560   50.0100 C   0  0  0  0  0  0  0  0  0  0  0  0
   38.4680   32.0020   48.8360 C   0  0  0  0  0  0  0  0  0  0  0  0
   37.7110   31.6920   47.7480 N   0  0  0  0  0  0  0  0  0  0  0  0
   36.7970   30.7000   47.7700 C   0  0  0  0  0  0  0  0  0  0  0  0
   36.6100   29.9820   48.8860 N   0  0  0  0  0  0  0  0  0  0  0  0
   37.1070   29.4330   51.2300 C   0  0  0  0  0  0  0  0  0  0  0  0
   35.7510   29.1840   51.3940 F   0  0  0  0  0  0  0  0  0  0  0  0
   37.8800   28.3270   51.1830 F   0  0  0  0  0  0  0  0  0  0  0  0
   37.4750   30.2540   52.3070 F   0  0  0  0  0  0  0  0  0  0  0  0
   35.7990   30.2860   46.3470 S   0  0  0  0  0  0  0  0  0  0  0  0
   38.8679   31.4649   50.9166 H   0  0  0  0  0  0  0  0  0  0  0  0
   39.2069   32.8159   48.7961 H   0  0  0  0  0  0  0  0  0  0  0  0
   34.5937   29.7860   46.7644 H   0  0  0  0  0  0  0  0  0  0  0  0
  1  2  2  0
  1  7  1  0
  3  2  1  0
  4  5  1  0
  4  3  2  0
  5  6  2  0
  6  1  1  0
  7  8  1  0
  7 10  1  0
  9  7  1  0
 11  5  1  0
  2 12  1  0
  3 13  1  0
 11 14  1  0
M  ISO  3  12  14  13  14  14  11
M  END
>  <minimizedAffinity>  (1) 
-4.40609694

>  <minimizedRMSD>  (1) 
0.0958508328

$$$$
