
     RDKit          3D

 23 24  0  0  0  0  0  0  0  0999 V2000
   37.4080   30.2850   50.0460 C   0  0  0  0  0  0  0  0  0  0  0  0
   38.2940   31.3560   50.1800 C   0  0  0  0  0  0  0  0  0  0  0  0
   38.5430   32.1550   49.0560 C   0  0  0  0  0  0  0  0  0  0  0  0
   37.9100   31.8440   47.9040 N   0  0  0  0  0  0  0  0  0  0  0  0
   37.0510   30.7900   47.8120 C   0  0  0  0  0  0  0  0  0  0  0  0
   36.8170   30.0340   48.8820 N   0  0  0  0  0  0  0  0  0  0  0  0
   36.3960   30.5020   46.5410 C   0  0  0  0  0  0  0  0  0  0  0  0
   35.1180   29.9520   46.5360 C   0  0  0  0  0  0  0  0  0  0  0  0
   34.4210   29.6460   45.3850 C   0  0  0  0  0  0  0  0  0  0  0  0
   35.0030   29.8910   44.1700 C   0  0  0  0  0  0  0  0  0  0  0  0
   36.2790   30.4400   44.1480 C   0  0  0  0  0  0  0  0  0  0  0  0
   36.9810   30.7480   45.3170 C   0  0  0  0  0  0  0  0  0  0  0  0
   37.1450   29.4310   51.2580 C   0  0  0  0  0  0  0  0  0  0  0  0
   35.7860   29.1840   51.3530 F   0  0  0  0  0  0  0  0  0  0  0  0
   37.8930   28.2990   51.1460 F   0  0  0  0  0  0  0  0  0  0  0  0
   37.5200   30.1690   52.3780 F   0  0  0  0  0  0  0  0  0  0  0  0
   38.7835   31.5669   51.1423 H   0  0  0  0  0  0  0  0  0  0  0  0
   39.2332   33.0098   49.1102 H   0  0  0  0  0  0  0  0  0  0  0  0
   34.6361   29.7497   47.5039 H   0  0  0  0  0  0  0  0  0  0  0  0
   33.4121   29.2114   45.4427 H   0  0  0  0  0  0  0  0  0  0  0  0
   34.4732   29.6588   43.2343 H   0  0  0  0  0  0  0  0  0  0  0  0
   36.7539   30.6395   43.1760 H   0  0  0  0  0  0  0  0  0  0  0  0
   37.9901   31.1823   45.2609 H   0  0  0  0  0  0  0  0  0  0  0  0
  1  2  2  0
  1 13  1  0
  3  2  1  0
  4  3  2  0
  5  4  1  0
  5  6  2  0
  6  1  1  0
  7  5  1  0
  8  7  2  0
  9  8  1  0
 10  9  2  0
 11 10  1  0
 11 12  2  0
 12  7  1  0
 13 14  1  0
 13 16  1  0
 15 13  1  0
  2 17  1  0
  3 18  1  0
  8 19  1  0
  9 20  1  0
 10 21  1  0
 11 22  1  0
 12 23  1  0
M  ISO  7  17  14  18  14  19  14  20  14  21  14  22  14  23  14
M  END
>  <minimizedAffinity>  (1) 
-5.42930126

>  <minimizedRMSD>  (1) 
0.657602608

$$$$
