
     RDKit          3D

 38 40  0  0  0  0  0  0  0  0999 V2000
   37.5360   30.2330   50.3020 C   0  0  0  0  0  0  0  0  0  0  0  0
   38.4340   31.3340   50.2540 C   0  0  0  0  0  0  0  0  0  0  0  0
   38.4620   32.0900   49.0750 C   0  0  0  0  0  0  0  0  0  0  0  0
   37.6320   31.7330   48.0450 N   0  0  0  0  0  0  0  0  0  0  0  0
   36.8030   30.6880   48.1340 C   0  0  0  0  0  0  0  0  0  0  0  0
   36.7440   29.9350   49.2490 N   0  0  0  0  0  0  0  0  0  0  0  0
   35.9510   30.3430   47.0400 N   0  0  0  0  0  0  0  0  0  0  0  0
   36.3850   30.4890   45.7670 C   0  0  0  0  0  0  0  0  0  0  0  0
   35.6020   30.1700   44.6740 C   0  0  0  0  0  0  0  0  0  0  0  0
   34.3440   29.6900   44.9980 C   0  0  0  0  0  0  0  0  0  0  0  0
   33.5620   29.3740   44.0630 O   0  0  0  0  0  0  0  0  0  0  0  0
   33.8640   29.5270   46.2530 N   0  0  0  0  0  0  0  0  0  0  0  0
   34.7130   29.8700   47.2500 C   0  0  0  0  0  0  0  0  0  0  0  0
   34.2920   29.7270   48.4130 O   0  0  0  0  0  0  0  0  0  0  0  0
   30.2290   28.2070   47.2360 N   0  0  0  0  0  0  0  0  0  0  0  0
   30.1460   29.4040   46.4490 C   0  0  0  0  0  0  0  0  0  0  0  0
   31.4540   29.6970   45.7070 C   0  0  0  0  0  0  0  0  0  0  0  0
   32.5380   29.0200   46.4950 C   0  0  0  0  0  0  0  0  0  0  0  0
   32.3900   27.5400   46.2390 C   0  0  0  0  0  0  0  0  0  0  0  0
   30.9980   27.1450   46.6350 C   0  0  0  0  0  0  0  0  0  0  0  0
   36.0120   30.3050   43.2690 C   0  0  0  0  0  0  0  0  0  0  0  0
   37.4853   29.6144   51.2102 H   0  0  0  0  0  0  0  0  0  0  0  0
   39.0809   31.5823   51.1083 H   0  0  0  0  0  0  0  0  0  0  0  0
   39.1370   32.9531   48.9781 H   0  0  0  0  0  0  0  0  0  0  0  0
   37.4001   30.8765   45.5954 H   0  0  0  0  0  0  0  0  0  0  0  0
   30.6624   28.4459   48.1393 H   0  0  0  0  0  0  0  0  0  0  0  0
   29.3380   29.2885   45.7116 H   0  0  0  0  0  0  0  0  0  0  0  0
   29.9471   30.2445   47.1302 H   0  0  0  0  0  0  0  0  0  0  0  0
   31.4133   29.2905   44.6857 H   0  0  0  0  0  0  0  0  0  0  0  0
   31.6345   30.7787   45.6208 H   0  0  0  0  0  0  0  0  0  0  0  0
   32.4130   29.2405   47.5654 H   0  0  0  0  0  0  0  0  0  0  0  0
   32.5506   27.3266   45.1719 H   0  0  0  0  0  0  0  0  0  0  0  0
   33.1314   26.9726   46.8207 H   0  0  0  0  0  0  0  0  0  0  0  0
   30.4675   26.8024   45.7343 H   0  0  0  0  0  0  0  0  0  0  0  0
   31.0981   26.3579   47.3969 H   0  0  0  0  0  0  0  0  0  0  0  0
   37.0559   30.6487   43.2231 H   0  0  0  0  0  0  0  0  0  0  0  0
   35.9244   29.3306   42.7662 H   0  0  0  0  0  0  0  0  0  0  0  0
   35.3626   31.0367   42.7662 H   0  0  0  0  0  0  0  0  0  0  0  0
  2  1  2  0
  3  2  1  0
  4  5  1  0
  4  3  2  0
  5  6  2  0
  6  1  1  0
  7 13  1  0
  7  5  1  0
  8  7  1  0
  9 10  1  0
  9  8  2  0
 10 12  1  0
 11 10  2  0
 12 18  1  0
 12 13  1  0
 13 14  2  0
 16 15  1  0
 17 16  1  0
 17 18  1  0
 19 18  1  0
 19 20  1  0
 20 15  1  0
 21  9  1  0
  1 22  1  0
  2 23  1  0
  3 24  1  0
  8 25  1  0
 15 26  1  0
 16 27  1  0
 16 28  1  0
 17 29  1  0
 17 30  1  0
 18 31  1  0
 19 32  1  0
 19 33  1  0
 20 34  1  0
 20 35  1  0
 21 36  1  0
 21 37  1  0
 21 38  1  0
M  ISO  8  22  14  23  14  24  14  25  14  26   5  27  13  28  13  29  13
M  ISO  8  30  13  31  13  32  13  33  13  34  13  35  13  36   8  37   8
M  ISO  1  38   8
M  END
>  <minimizedAffinity>  (1) 
-4.98097849

>  <minimizedRMSD>  (1) 
3.36160278

$$$$
