
     RDKit          3D

 39 41  0  0  0  0  0  0  0  0999 V2000
   36.3040   30.4630   46.4060 C   0  0  0  0  0  0  0  0  0  0  0  0
   35.0020   29.9440   46.3870 C   0  0  0  0  0  0  0  0  0  0  0  0
   34.3660   29.5570   45.2250 C   0  0  0  0  0  0  0  0  0  0  0  0
   35.0330   29.6850   44.0180 C   0  0  0  0  0  0  0  0  0  0  0  0
   36.3150   30.1950   44.0290 C   0  0  0  0  0  0  0  0  0  0  0  0
   36.9500   30.5820   45.2080 C   0  0  0  0  0  0  0  0  0  0  0  0
   37.3400   30.3860   49.9000 C   0  0  0  0  0  0  0  0  0  0  0  0
   38.0030   31.6080   50.0560 C   0  0  0  0  0  0  0  0  0  0  0  0
   38.0960   32.4580   48.9500 C   0  0  0  0  0  0  0  0  0  0  0  0
   37.5340   32.0390   47.8000 N   0  0  0  0  0  0  0  0  0  0  0  0
   36.8970   30.8550   47.6660 C   0  0  0  0  0  0  0  0  0  0  0  0
   36.8160   30.0480   48.7350 N   0  0  0  0  0  0  0  0  0  0  0  0
   37.2420   29.4770   51.1030 C   0  0  0  0  0  0  0  0  0  0  0  0
   35.9060   29.1990   51.3500 F   0  0  0  0  0  0  0  0  0  0  0  0
   37.9790   28.3750   50.8590 F   0  0  0  0  0  0  0  0  0  0  0  0
   37.7270   30.1770   52.2000 F   0  0  0  0  0  0  0  0  0  0  0  0
   38.3230   31.0970   45.0200 C   0  0  0  0  0  0  0  0  0  0  0  0
   38.3500   32.6290   45.1250 C   0  0  0  0  0  0  0  0  0  0  0  0
   39.7060   33.0610   44.6490 C   0  0  0  0  0  0  0  0  0  0  0  0
   40.8280   32.4470   45.4130 C   0  0  0  0  0  0  0  0  0  0  0  0
   40.6690   30.9600   45.6210 C   0  0  0  0  0  0  0  0  0  0  0  0
   39.2580   30.6260   46.1180 C   0  0  0  0  0  0  0  0  0  0  0  0
   34.4634   29.8406   47.3405 H   0  0  0  0  0  0  0  0  0  0  0  0
   33.3436   29.1525   45.2570 H   0  0  0  0  0  0  0  0  0  0  0  0
   34.5527   29.3875   43.0742 H   0  0  0  0  0  0  0  0  0  0  0  0
   36.8538   30.2997   43.0757 H   0  0  0  0  0  0  0  0  0  0  0  0
   38.4401   31.8928   51.0244 H   0  0  0  0  0  0  0  0  0  0  0  0
   38.6074   33.4296   49.0163 H   0  0  0  0  0  0  0  0  0  0  0  0
   38.6400   30.7328   44.0316 H   0  0  0  0  0  0  0  0  0  0  0  0
   37.5661   33.0680   44.4904 H   0  0  0  0  0  0  0  0  0  0  0  0
   38.1641   32.9619   46.1568 H   0  0  0  0  0  0  0  0  0  0  0  0
   39.8098   32.7786   43.5909 H   0  0  0  0  0  0  0  0  0  0  0  0
   39.7699   34.1489   44.7989 H   0  0  0  0  0  0  0  0  0  0  0  0
   41.7632   32.6239   44.8616 H   0  0  0  0  0  0  0  0  0  0  0  0
   40.8373   32.9149   46.4085 H   0  0  0  0  0  0  0  0  0  0  0  0
   40.8472   30.4417   44.6673 H   0  0  0  0  0  0  0  0  0  0  0  0
   41.3959   30.6309   46.3782 H   0  0  0  0  0  0  0  0  0  0  0  0
   39.0455   31.1559   47.0582 H   0  0  0  0  0  0  0  0  0  0  0  0
   39.1399   29.5518   46.3235 H   0  0  0  0  0  0  0  0  0  0  0  0
  1 11  1  0
  2  1  2  0
  3  2  1  0
  4  5  1  0
  4  3  2  0
  5  6  2  0
  6  1  1  0
  7  8  2  0
  7 13  1  0
  9  8  1  0
 10  9  2  0
 11 10  1  0
 11 12  2  0
 12  7  1  0
 13 14  1  0
 13 16  1  0
 15 13  1  0
 17 18  1  0
 17  6  1  0
 17 22  1  0
 19 18  1  0
 19 20  1  0
 20 21  1  0
 21 22  1  0
  2 23  1  0
  3 24  1  0
  4 25  1  0
  5 26  1  0
  8 27  1  0
  9 28  1  0
 17 29  1  0
 18 30  1  0
 18 31  1  0
 19 32  1  0
 19 33  1  0
 20 34  1  0
 20 35  1  0
 21 36  1  0
 21 37  1  0
 22 38  1  0
 22 39  1  0
M  ISO  8  23  14  24  14  25  14  26  14  27  14  28  14  29  13  30  13
M  ISO  8  31  13  32  13  33  13  34  13  35  13  36  13  37  13  38  13
M  ISO  1  39  13
M  END
>  <minimizedAffinity>  (1) 
-6.9117136

>  <minimizedRMSD>  (1) 
0.24110502

$$$$
