
     RDKit          3D

 30 31  0  0  0  0  0  0  0  0999 V2000
   36.4220   30.5410   46.5420 C   0  0  0  0  0  0  0  0  0  0  0  0
   35.1350   29.9850   46.5260 C   0  0  0  0  0  0  0  0  0  0  0  0
   34.4240   29.6840   45.3940 C   0  0  0  0  0  0  0  0  0  0  0  0
   35.0210   29.9480   44.1750 C   0  0  0  0  0  0  0  0  0  0  0  0
   36.2960   30.4980   44.1620 C   0  0  0  0  0  0  0  0  0  0  0  0
   37.0070   30.7980   45.3240 C   0  0  0  0  0  0  0  0  0  0  0  0
   37.4350   30.2920   50.0430 C   0  0  0  0  0  0  0  0  0  0  0  0
   38.2580   31.4110   50.1990 C   0  0  0  0  0  0  0  0  0  0  0  0
   38.4600   32.2390   49.1010 C   0  0  0  0  0  0  0  0  0  0  0  0
   37.8540   31.9210   47.9490 N   0  0  0  0  0  0  0  0  0  0  0  0
   37.0540   30.8270   47.8110 C   0  0  0  0  0  0  0  0  0  0  0  0
   36.8660   30.0360   48.8750 N   0  0  0  0  0  0  0  0  0  0  0  0
   37.2170   29.4070   51.2400 C   0  0  0  0  0  0  0  0  0  0  0  0
   35.8500   29.1720   51.3870 F   0  0  0  0  0  0  0  0  0  0  0  0
   37.9250   28.2720   51.0610 F   0  0  0  0  0  0  0  0  0  0  0  0
   37.6450   30.0970   52.3630 F   0  0  0  0  0  0  0  0  0  0  0  0
   38.3190   31.3230   45.2200 N   0  0  0  0  0  0  0  0  0  0  0  0
   39.4980   30.5220   45.1790 C   0  0  0  0  0  0  0  0  0  0  0  0
   39.4330   29.4480   44.4220 N   0  0  0  0  0  0  0  0  0  0  0  0
   40.7310   30.7640   45.8620 N   0  0  0  0  0  0  0  0  0  0  0  0
   40.2410   28.7990   44.3240 H   0  0  0  0  0  0  0  0  0  0  0  0
   34.6601   29.7745   47.4956 H   0  0  0  0  0  0  0  0  0  0  0  0
   33.4156   29.2485   45.4528 H   0  0  0  0  0  0  0  0  0  0  0  0
   34.4962   29.7267   43.2340 H   0  0  0  0  0  0  0  0  0  0  0  0
   36.7672   30.7068   43.1902 H   0  0  0  0  0  0  0  0  0  0  0  0
   38.7337   31.6308   51.1662 H   0  0  0  0  0  0  0  0  0  0  0  0
   39.0997   33.1307   49.1757 H   0  0  0  0  0  0  0  0  0  0  0  0
   38.4278   32.3461   45.1710 H   0  0  0  0  0  0  0  0  0  0  0  0
   41.5175   30.1080   45.7529 H   0  0  0  0  0  0  0  0  0  0  0  0
   40.8325   31.5943   46.4630 H   0  0  0  0  0  0  0  0  0  0  0  0
  1 11  1  0
  2  1  2  0
  3  2  1  0
  4  3  2  0
  5  4  1  0
  5  6  2  0
  6  1  1  0
  7  8  2  0
  7 13  1  0
  9  8  1  0
 10  9  2  0
 11 10  1  0
 11 12  2  0
 12  7  1  0
 13 14  1  0
 13 16  1  0
 15 13  1  0
 17  6  1  0
 18 17  1  0
 18 20  1  0
 19 18  2  0
 21 19  1  0
  2 22  1  0
  3 23  1  0
  4 24  1  0
  5 25  1  0
  8 26  1  0
  9 27  1  0
 17 28  1  0
 20 29  1  0
 20 30  1  0
M  ISO  6  22  14  23  14  24  14  25  14  26  14  27  14
M  END
>  <minimizedAffinity>  (1) 
-6.66205931

>  <minimizedRMSD>  (1) 
0.432833195

$$$$
