
     RDKit          3D

 30 32  0  0  0  0  0  0  0  0999 V2000
   36.3910   30.5080   46.5010 C   0  0  0  0  0  0  0  0  0  0  0  0
   35.1040   30.0100   46.4620 C   0  0  0  0  0  0  0  0  0  0  0  0
   34.4450   29.6600   45.3070 C   0  0  0  0  0  0  0  0  0  0  0  0
   35.0760   29.8020   44.1070 C   0  0  0  0  0  0  0  0  0  0  0  0
   36.3780   30.3020   44.1060 C   0  0  0  0  0  0  0  0  0  0  0  0
   37.0260   30.6520   45.2990 C   0  0  0  0  0  0  0  0  0  0  0  0
   37.4030   30.3470   50.0090 C   0  0  0  0  0  0  0  0  0  0  0  0
   38.1760   31.4900   50.1660 C   0  0  0  0  0  0  0  0  0  0  0  0
   38.3500   32.3270   49.0520 C   0  0  0  0  0  0  0  0  0  0  0  0
   37.7560   31.9720   47.8900 N   0  0  0  0  0  0  0  0  0  0  0  0
   37.0110   30.8490   47.7770 C   0  0  0  0  0  0  0  0  0  0  0  0
   36.8440   30.0510   48.8380 N   0  0  0  0  0  0  0  0  0  0  0  0
   37.2100   29.4410   51.2050 C   0  0  0  0  0  0  0  0  0  0  0  0
   35.8720   29.1910   51.3880 F   0  0  0  0  0  0  0  0  0  0  0  0
   37.9450   28.3120   50.9830 F   0  0  0  0  0  0  0  0  0  0  0  0
   37.6830   30.1360   52.3240 F   0  0  0  0  0  0  0  0  0  0  0  0
   38.3910   31.1820   45.2620 C   0  0  0  0  0  0  0  0  0  0  0  0
   39.5540   30.4760   45.6300 C   0  0  0  0  0  0  0  0  0  0  0  0
   40.7640   31.0890   45.5470 C   0  0  0  0  0  0  0  0  0  0  0  0
   40.7860   32.4750   45.0690 C   0  0  0  0  0  0  0  0  0  0  0  0
   38.9330   32.7680   44.7710 S   0  0  0  0  0  0  0  0  0  0  0  0
   34.5714   29.8851   47.4163 H   0  0  0  0  0  0  0  0  0  0  0  0
   33.4178   29.2689   45.3510 H   0  0  0  0  0  0  0  0  0  0  0  0
   34.5731   29.5302   43.1672 H   0  0  0  0  0  0  0  0  0  0  0  0
   36.9074   30.4243   43.1495 H   0  0  0  0  0  0  0  0  0  0  0  0
   38.6382   31.7325   51.1343 H   0  0  0  0  0  0  0  0  0  0  0  0
   38.9521   33.2449   49.1224 H   0  0  0  0  0  0  0  0  0  0  0  0
   39.4828   29.4362   45.9819 H   0  0  0  0  0  0  0  0  0  0  0  0
   41.6903   30.5661   45.8273 H   0  0  0  0  0  0  0  0  0  0  0  0
   41.6380   33.1554   44.9235 H   0  0  0  0  0  0  0  0  0  0  0  0
  1 11  1  0
  2  1  2  0
  3  2  1  0
  4  3  2  0
  5  4  1  0
  5  6  2  0
  6  1  1  0
  7  8  2  0
  7 13  1  0
  9  8  1  0
 10  9  2  0
 11 10  1  0
 11 12  2  0
 12  7  1  0
 13 14  1  0
 13 16  1  0
 15 13  1  0
 17  6  1  0
 17 18  2  0
 19 18  1  0
 20 19  2  0
 21 20  1  0
 21 17  1  0
  2 22  1  0
  3 23  1  0
  4 24  1  0
  5 25  1  0
  8 26  1  0
  9 27  1  0
 18 28  1  0
 19 29  1  0
 20 30  1  0
M  ISO  8  22  14  23  14  24  14  25  14  26  14  27  14  28  14  29  14
M  ISO  1  30  14
M  END
>  <minimizedAffinity>  (1) 
-6.65823269

>  <minimizedRMSD>  (1) 
0.188352481

$$$$
