
     RDKit          3D

 30 32  0  0  0  0  0  0  0  0999 V2000
   36.5170   30.6330   46.5540 C   0  0  0  0  0  0  0  0  0  0  0  0
   35.2570   30.0700   46.4700 C   0  0  0  0  0  0  0  0  0  0  0  0
   34.6400   29.7530   45.2670 C   0  0  0  0  0  0  0  0  0  0  0  0
   35.2860   29.9980   44.0950 C   0  0  0  0  0  0  0  0  0  0  0  0
   36.5460   30.5590   44.1580 C   0  0  0  0  0  0  0  0  0  0  0  0
   37.1600   30.8750   45.3630 C   0  0  0  0  0  0  0  0  0  0  0  0
   37.4330   30.3560   50.0710 C   0  0  0  0  0  0  0  0  0  0  0  0
   38.1860   31.5230   50.2870 C   0  0  0  0  0  0  0  0  0  0  0  0
   38.3740   32.4010   49.2130 C   0  0  0  0  0  0  0  0  0  0  0  0
   37.8190   32.0780   48.0250 N   0  0  0  0  0  0  0  0  0  0  0  0
   37.0940   30.9340   47.8530 C   0  0  0  0  0  0  0  0  0  0  0  0
   36.9180   30.1000   48.8800 N   0  0  0  0  0  0  0  0  0  0  0  0
   37.2400   29.4250   51.2300 C   0  0  0  0  0  0  0  0  0  0  0  0
   35.8850   29.1730   51.3950 F   0  0  0  0  0  0  0  0  0  0  0  0
   37.9760   28.3000   50.9870 F   0  0  0  0  0  0  0  0  0  0  0  0
   37.6760   30.0750   52.3800 F   0  0  0  0  0  0  0  0  0  0  0  0
   38.4910   31.4690   45.4540 C   0  0  0  0  0  0  0  0  0  0  0  0
   39.5370   30.5480   45.4950 C   0  0  0  0  0  0  0  0  0  0  0  0
   40.7230   31.2830   45.5810 C   0  0  0  0  0  0  0  0  0  0  0  0
   40.3000   32.6160   45.5850 C   0  0  0  0  0  0  0  0  0  0  0  0
   39.0010   32.6770   45.5100 O   0  0  0  0  0  0  0  0  0  0  0  0
   34.7152   29.8624   47.4045 H   0  0  0  0  0  0  0  0  0  0  0  0
   33.6348   29.3064   45.2617 H   0  0  0  0  0  0  0  0  0  0  0  0
   34.8195   29.7569   43.1284 H   0  0  0  0  0  0  0  0  0  0  0  0
   37.0830   30.7630   43.2199 H   0  0  0  0  0  0  0  0  0  0  0  0
   38.6169   31.7410   51.2754 H   0  0  0  0  0  0  0  0  0  0  0  0
   38.9564   33.3264   49.3332 H   0  0  0  0  0  0  0  0  0  0  0  0
   39.4463   29.4521   45.4653 H   0  0  0  0  0  0  0  0  0  0  0  0
   41.7530   30.9005   45.6335 H   0  0  0  0  0  0  0  0  0  0  0  0
   40.9683   33.4878   45.6431 H   0  0  0  0  0  0  0  0  0  0  0  0
  1 11  1  0
  2  1  2  0
  3  2  1  0
  4  5  1  0
  4  3  2  0
  5  6  2  0
  6 17  1  0
  6  1  1  0
  7  8  2  0
  7 13  1  0
  9  8  1  0
 10  9  2  0
 11 10  1  0
 11 12  2  0
 12  7  1  0
 13 14  1  0
 13 16  1  0
 15 13  1  0
 17 18  2  0
 17 21  1  0
 18 19  1  0
 19 20  2  0
 21 20  1  0
  2 22  1  0
  3 23  1  0
  4 24  1  0
  5 25  1  0
  8 26  1  0
  9 27  1  0
 18 28  1  0
 19 29  1  0
 20 30  1  0
M  ISO  8  22  14  23  14  24  14  25  14  26  14  27  14  28  14  29  14
M  ISO  1  30  14
M  END
>  <minimizedAffinity>  (1) 
-6.65325499

>  <minimizedRMSD>  (1) 
0.277374029

$$$$
