
     RDKit          3D

 36 38  0  0  0  0  0  0  0  0999 V2000
   36.0630   30.4680   46.6470 C   0  0  0  0  0  0  0  0  0  0  0  0
   34.7400   30.0780   46.7140 C   0  0  0  0  0  0  0  0  0  0  0  0
   33.9860   29.7640   45.6140 C   0  0  0  0  0  0  0  0  0  0  0  0
   34.5490   29.8320   44.3560 C   0  0  0  0  0  0  0  0  0  0  0  0
   35.8690   30.2200   44.2620 C   0  0  0  0  0  0  0  0  0  0  0  0
   36.6160   30.5340   45.3980 C   0  0  0  0  0  0  0  0  0  0  0  0
   37.3790   30.2680   50.0440 C   0  0  0  0  0  0  0  0  0  0  0  0
   38.2110   31.3780   50.1270 C   0  0  0  0  0  0  0  0  0  0  0  0
   38.3260   32.2090   48.9980 C   0  0  0  0  0  0  0  0  0  0  0  0
   37.6170   31.8680   47.9080 N   0  0  0  0  0  0  0  0  0  0  0  0
   36.8120   30.7860   47.8460 C   0  0  0  0  0  0  0  0  0  0  0  0
   36.7140   30.0060   48.9290 N   0  0  0  0  0  0  0  0  0  0  0  0
   37.2500   29.3770   51.2570 C   0  0  0  0  0  0  0  0  0  0  0  0
   35.9160   29.1170   51.4890 F   0  0  0  0  0  0  0  0  0  0  0  0
   37.9900   28.2650   51.0520 F   0  0  0  0  0  0  0  0  0  0  0  0
   37.7300   30.1030   52.3480 F   0  0  0  0  0  0  0  0  0  0  0  0
   37.9460   30.9310   45.1030 N   0  0  0  0  0  0  0  0  0  0  0  0
   39.2710   30.3450   45.0710 C   0  0  0  0  0  0  0  0  0  0  0  0
   40.0870   31.1670   46.0770 C   0  0  0  0  0  0  0  0  0  0  0  0
   40.0610   32.5050   45.8060 O   0  0  0  0  0  0  0  0  0  0  0  0
   39.3090   32.8610   44.7010 C   0  0  0  0  0  0  0  0  0  0  0  0
   37.8950   32.3290   44.7270 C   0  0  0  0  0  0  0  0  0  0  0  0
   34.2656   30.0161   47.7045 H   0  0  0  0  0  0  0  0  0  0  0  0
   32.9359   29.4589   45.7332 H   0  0  0  0  0  0  0  0  0  0  0  0
   33.9642   29.5849   43.4577 H   0  0  0  0  0  0  0  0  0  0  0  0
   36.3427   30.2833   43.2712 H   0  0  0  0  0  0  0  0  0  0  0  0
   38.7648   31.6008   51.0509 H   0  0  0  0  0  0  0  0  0  0  0  0
   38.9695   33.1011   49.0066 H   0  0  0  0  0  0  0  0  0  0  0  0
   39.2347   29.2879   45.3732 H   0  0  0  0  0  0  0  0  0  0  0  0
   39.7107   30.3670   44.0629 H   0  0  0  0  0  0  0  0  0  0  0  0
   39.6737   31.0033   47.0832 H   0  0  0  0  0  0  0  0  0  0  0  0
   41.1331   30.8337   46.0087 H   0  0  0  0  0  0  0  0  0  0  0  0
   39.8091   32.4723   43.8016 H   0  0  0  0  0  0  0  0  0  0  0  0
   39.2378   33.9587   44.7027 H   0  0  0  0  0  0  0  0  0  0  0  0
   37.2989   32.8909   45.4611 H   0  0  0  0  0  0  0  0  0  0  0  0
   37.4282   32.4402   43.7372 H   0  0  0  0  0  0  0  0  0  0  0  0
  1  2  2  0
  1 11  1  0
  3  2  1  0
  4  3  2  0
  5  4  1  0
  5  6  2  0
  6  1  1  0
  7  8  2  0
  7 13  1  0
  9  8  1  0
 10  9  2  0
 11 10  1  0
 11 12  2  0
 12  7  1  0
 13 14  1  0
 13 16  1  0
 15 13  1  0
 17  6  1  0
 18 17  1  0
 18 19  1  0
 20 19  1  0
 21 22  1  0
 21 20  1  0
 22 17  1  0
  2 23  1  0
  3 24  1  0
  4 25  1  0
  5 26  1  0
  8 27  1  0
  9 28  1  0
 18 29  1  0
 18 30  1  0
 19 31  1  0
 19 32  1  0
 21 33  1  0
 21 34  1  0
 22 35  1  0
 22 36  1  0
M  ISO  8  23  14  24  14  25  14  26  14  27  14  28  14  29  13  30  13
M  ISO  6  31  13  32  13  33  13  34  13  35  13  36  13
M  END
>  <minimizedAffinity>  (1) 
-6.63785267

>  <minimizedRMSD>  (1) 
0.645250022

$$$$
