
     RDKit          3D

 30 32  0  0  0  0  0  0  0  0999 V2000
   36.6960   30.6490   46.4630 C   0  0  0  0  0  0  0  0  0  0  0  0
   35.4070   30.1480   46.3270 C   0  0  0  0  0  0  0  0  0  0  0  0
   34.8440   29.8320   45.1170 C   0  0  0  0  0  0  0  0  0  0  0  0
   35.5720   30.0090   43.9590 C   0  0  0  0  0  0  0  0  0  0  0  0
   36.8550   30.5050   44.0660 C   0  0  0  0  0  0  0  0  0  0  0  0
   37.4030   30.8180   45.3050 C   0  0  0  0  0  0  0  0  0  0  0  0
   37.4860   30.4000   50.0120 C   0  0  0  0  0  0  0  0  0  0  0  0
   38.2150   31.5720   50.2600 C   0  0  0  0  0  0  0  0  0  0  0  0
   38.4300   32.4490   49.1830 C   0  0  0  0  0  0  0  0  0  0  0  0
   37.9230   32.1150   47.9760 N   0  0  0  0  0  0  0  0  0  0  0  0
   37.2200   30.9600   47.7860 C   0  0  0  0  0  0  0  0  0  0  0  0
   37.0120   30.1270   48.7990 N   0  0  0  0  0  0  0  0  0  0  0  0
   37.2580   29.4600   51.1720 C   0  0  0  0  0  0  0  0  0  0  0  0
   35.8970   29.2400   51.3100 F   0  0  0  0  0  0  0  0  0  0  0  0
   37.9810   28.3220   50.9450 F   0  0  0  0  0  0  0  0  0  0  0  0
   37.6860   30.1070   52.3260 F   0  0  0  0  0  0  0  0  0  0  0  0
   38.7320   31.3270   45.3640 N   0  0  0  0  0  0  0  0  0  0  0  0
   39.9790   30.9670   45.7250 C   0  0  0  0  0  0  0  0  0  0  0  0
   40.8300   32.0510   45.4860 C   0  0  0  0  0  0  0  0  0  0  0  0
   40.0760   33.0500   44.9840 N   0  0  0  0  0  0  0  0  0  0  0  0
   38.7850   32.6120   44.9050 C   0  0  0  0  0  0  0  0  0  0  0  0
   34.8073   29.9971   47.2367 H   0  0  0  0  0  0  0  0  0  0  0  0
   33.8175   29.4395   45.0703 H   0  0  0  0  0  0  0  0  0  0  0  0
   35.1416   29.7616   42.9774 H   0  0  0  0  0  0  0  0  0  0  0  0
   37.4544   30.6553   43.1560 H   0  0  0  0  0  0  0  0  0  0  0  0
   38.6053   31.7973   51.2634 H   0  0  0  0  0  0  0  0  0  0  0  0
   38.9959   33.3824   49.3191 H   0  0  0  0  0  0  0  0  0  0  0  0
   40.2761   29.9909   46.1360 H   0  0  0  0  0  0  0  0  0  0  0  0
   41.9135   32.0827   45.6729 H   0  0  0  0  0  0  0  0  0  0  0  0
   37.9305   33.1967   44.5336 H   0  0  0  0  0  0  0  0  0  0  0  0
  1 11  1  0
  2  1  2  0
  3  2  1  0
  4  5  1  0
  4  3  2  0
  5  6  2  0
  6 17  1  0
  6  1  1  0
  7  8  2  0
  7 13  1  0
  9  8  1  0
 10  9  2  0
 11 10  1  0
 11 12  2  0
 12  7  1  0
 13 14  1  0
 13 16  1  0
 15 13  1  0
 17 18  1  0
 19 18  2  0
 20 19  1  0
 21 20  2  0
 21 17  1  0
  2 22  1  0
  3 23  1  0
  4 24  1  0
  5 25  1  0
  8 26  1  0
  9 27  1  0
 18 28  1  0
 19 29  1  0
 21 30  1  0
M  ISO  8  22  14  23  14  24  14  25  14  26  14  27  14  28  14  29  14
M  ISO  1  30  14
M  END
>  <minimizedAffinity>  (1) 
-6.46683025

>  <minimizedRMSD>  (1) 
0.598059177

$$$$
