
     RDKit          3D

 29 31  0  0  0  0  0  0  0  0999 V2000
   36.6470   30.6750   46.4880 C   0  0  0  0  0  0  0  0  0  0  0  0
   35.3890   30.1150   46.3670 C   0  0  0  0  0  0  0  0  0  0  0  0
   34.8010   29.7930   45.1700 C   0  0  0  0  0  0  0  0  0  0  0  0
   35.4990   30.0370   44.0060 C   0  0  0  0  0  0  0  0  0  0  0  0
   36.7720   30.6010   44.0920 C   0  0  0  0  0  0  0  0  0  0  0  0
   37.3310   30.9140   45.3260 C   0  0  0  0  0  0  0  0  0  0  0  0
   37.4540   30.4010   50.0400 C   0  0  0  0  0  0  0  0  0  0  0  0
   38.1900   31.5630   50.2890 C   0  0  0  0  0  0  0  0  0  0  0  0
   38.4090   32.4420   49.2250 C   0  0  0  0  0  0  0  0  0  0  0  0
   37.8980   32.1260   48.0130 N   0  0  0  0  0  0  0  0  0  0  0  0
   37.1820   30.9810   47.8080 C   0  0  0  0  0  0  0  0  0  0  0  0
   36.9730   30.1380   48.8270 N   0  0  0  0  0  0  0  0  0  0  0  0
   37.2240   29.4590   51.1940 C   0  0  0  0  0  0  0  0  0  0  0  0
   35.8750   29.2090   51.3210 F   0  0  0  0  0  0  0  0  0  0  0  0
   37.9500   28.3210   50.9520 F   0  0  0  0  0  0  0  0  0  0  0  0
   37.6660   30.0930   52.3500 F   0  0  0  0  0  0  0  0  0  0  0  0
   38.6310   31.4880   45.3910 N   0  0  0  0  0  0  0  0  0  0  0  0
   39.6680   30.6240   45.4910 C   0  0  0  0  0  0  0  0  0  0  0  0
   40.8610   31.2860   45.5460 N   0  0  0  0  0  0  0  0  0  0  0  0
   40.5080   32.6030   45.4750 C   0  0  0  0  0  0  0  0  0  0  0  0
   39.1550   32.7160   45.3810 N   0  0  0  0  0  0  0  0  0  0  0  0
   34.8235   29.9148   47.2890 H   0  0  0  0  0  0  0  0  0  0  0  0
   33.7947   29.3498   45.1394 H   0  0  0  0  0  0  0  0  0  0  0  0
   35.0601   29.7914   43.0277 H   0  0  0  0  0  0  0  0  0  0  0  0
   37.3408   30.8006   43.1719 H   0  0  0  0  0  0  0  0  0  0  0  0
   38.5850   31.7790   51.2926 H   0  0  0  0  0  0  0  0  0  0  0  0
   38.9833   33.3690   49.3696 H   0  0  0  0  0  0  0  0  0  0  0  0
   39.5632   29.5295   45.5237 H   0  0  0  0  0  0  0  0  0  0  0  0
   41.2127   33.4475   45.4913 H   0  0  0  0  0  0  0  0  0  0  0  0
  1 11  1  0
  2  1  2  0
  3  2  1  0
  4  5  1  0
  4  3  2  0
  5  6  2  0
  6 17  1  0
  6  1  1  0
  7  8  2  0
  7 13  1  0
  9  8  1  0
 10  9  2  0
 11 10  1  0
 11 12  2  0
 12  7  1  0
 13 14  1  0
 13 16  1  0
 15 13  1  0
 17 18  1  0
 18 19  2  0
 20 19  1  0
 21 17  1  0
 21 20  2  0
  2 22  1  0
  3 23  1  0
  4 24  1  0
  5 25  1  0
  8 26  1  0
  9 27  1  0
 18 28  1  0
 20 29  1  0
M  ISO  8  22  14  23  14  24  14  25  14  26  14  27  14  28  14  29  14
M  END
>  <minimizedAffinity>  (1) 
-6.4458065

>  <minimizedRMSD>  (1) 
0.401271015

$$$$
