
     RDKit          3D

 31 33  0  0  0  0  0  0  0  0999 V2000
   37.4410   30.2950   50.2170 C   0  0  0  0  0  0  0  0  0  0  0  0
   38.3890   31.3310   50.2270 C   0  0  0  0  0  0  0  0  0  0  0  0
   38.5600   32.0650   49.0400 C   0  0  0  0  0  0  0  0  0  0  0  0
   37.8000   31.7340   47.9460 N   0  0  0  0  0  0  0  0  0  0  0  0
   36.9000   30.7290   47.9820 C   0  0  0  0  0  0  0  0  0  0  0  0
   36.7360   30.0320   49.1040 N   0  0  0  0  0  0  0  0  0  0  0  0
   36.1400   30.4270   46.8210 N   0  0  0  0  0  0  0  0  0  0  0  0
   36.6710   30.5390   45.5890 C   0  0  0  0  0  0  0  0  0  0  0  0
   35.9490   30.2500   44.4520 C   0  0  0  0  0  0  0  0  0  0  0  0
   34.6620   29.8450   44.6640 C   0  0  0  0  0  0  0  0  0  0  0  0
   33.9420   29.5640   43.6740 O   0  0  0  0  0  0  0  0  0  0  0  0
   34.0740   29.7150   45.8750 N   0  0  0  0  0  0  0  0  0  0  0  0
   34.8580   30.0200   46.9500 C   0  0  0  0  0  0  0  0  0  0  0  0
   34.3390   29.9080   48.0840 O   0  0  0  0  0  0  0  0  0  0  0  0
   32.7370   29.2900   45.9980 C   0  0  0  0  0  0  0  0  0  0  0  0
   31.5660   30.0330   45.9690 C   0  0  0  0  0  0  0  0  0  0  0  0
   30.3450   29.4310   46.1080 C   0  0  0  0  0  0  0  0  0  0  0  0
   30.2660   28.0840   46.2780 N   0  0  0  0  0  0  0  0  0  0  0  0
   31.4090   27.3760   46.3050 C   0  0  0  0  0  0  0  0  0  0  0  0
   32.6400   27.9400   46.1700 N   0  0  0  0  0  0  0  0  0  0  0  0
   36.4960   30.3590   43.0760 C   0  0  0  0  0  0  0  0  0  0  0  0
   37.2749   29.6961   51.1246 H   0  0  0  0  0  0  0  0  0  0  0  0
   38.9755   31.5596   51.1291 H   0  0  0  0  0  0  0  0  0  0  0  0
   39.2882   32.8879   48.9891 H   0  0  0  0  0  0  0  0  0  0  0  0
   37.7145   30.8718   45.4870 H   0  0  0  0  0  0  0  0  0  0  0  0
   31.6197   31.1231   45.8321 H   0  0  0  0  0  0  0  0  0  0  0  0
   29.4272   30.0367   46.0822 H   0  0  0  0  0  0  0  0  0  0  0  0
   31.3457   26.2865   46.4431 H   0  0  0  0  0  0  0  0  0  0  0  0
   37.5737   30.5737   43.1258 H   0  0  0  0  0  0  0  0  0  0  0  0
   36.3353   29.4112   42.5414 H   0  0  0  0  0  0  0  0  0  0  0  0
   35.9843   31.1728   42.5414 H   0  0  0  0  0  0  0  0  0  0  0  0
  1  2  2  0
  3  2  1  0
  4  5  1  0
  4  3  2  0
  5  6  2  0
  6  1  1  0
  7 13  1  0
  7  5  1  0
  8  7  1  0
  9 10  1  0
  9  8  2  0
 10 12  1  0
 11 10  2  0
 12 15  1  0
 12 13  1  0
 13 14  2  0
 15 20  1  0
 16 15  2  0
 16 17  1  0
 17 18  2  0
 18 19  1  0
 20 19  2  0
 21  9  1  0
  1 22  1  0
  2 23  1  0
  3 24  1  0
  8 25  1  0
 16 26  1  0
 17 27  1  0
 19 28  1  0
 21 29  1  0
 21 30  1  0
 21 31  1  0
M  ISO  8  22  14  23  14  24  14  25  14  26  14  27  14  28  14  29   8
M  ISO  2  30   8  31   8
M  END
>  <minimizedAffinity>  (1) 
-4.91749525

>  <minimizedRMSD>  (1) 
3.75382447

$$$$
