
     RDKit          3D

 30 32  0  0  0  0  0  0  0  0999 V2000
   37.5120   30.7700   46.3270 C   0  0  0  0  0  0  0  0  0  0  0  0
   36.3010   30.3700   45.7540 C   0  0  0  0  0  0  0  0  0  0  0  0
   36.1510   29.9950   44.4370 C   0  0  0  0  0  0  0  0  0  0  0  0
   37.2600   30.0130   43.6180 C   0  0  0  0  0  0  0  0  0  0  0  0
   38.4870   30.4080   44.1570 C   0  0  0  0  0  0  0  0  0  0  0  0
   38.6000   30.7810   45.4980 C   0  0  0  0  0  0  0  0  0  0  0  0
   37.3470   30.6160   49.9710 C   0  0  0  0  0  0  0  0  0  0  0  0
   37.6390   31.9240   50.3460 C   0  0  0  0  0  0  0  0  0  0  0  0
   37.8940   32.8670   49.3400 C   0  0  0  0  0  0  0  0  0  0  0  0
   37.8400   32.4380   48.0550 N   0  0  0  0  0  0  0  0  0  0  0  0
   37.5510   31.1450   47.7250 C   0  0  0  0  0  0  0  0  0  0  0  0
   37.3110   30.2670   48.6830 N   0  0  0  0  0  0  0  0  0  0  0  0
   37.0750   29.6140   51.0540 C   0  0  0  0  0  0  0  0  0  0  0  0
   35.7050   29.3710   51.1140 F   0  0  0  0  0  0  0  0  0  0  0  0
   37.7980   28.5040   50.7980 F   0  0  0  0  0  0  0  0  0  0  0  0
   37.4380   30.1900   52.2600 F   0  0  0  0  0  0  0  0  0  0  0  0
   39.9200   31.2000   46.0430 C   0  0  0  0  0  0  0  0  0  0  0  0
   41.0890   31.4110   45.1210 C   0  0  0  0  0  0  0  0  0  0  0  0
   40.4370   32.6070   45.6700 C   0  0  0  0  0  0  0  0  0  0  0  0
   35.4090   30.3537   46.3974 H   0  0  0  0  0  0  0  0  0  0  0  0
   35.1690   29.6882   44.0477 H   0  0  0  0  0  0  0  0  0  0  0  0
   37.1803   29.7219   42.5602 H   0  0  0  0  0  0  0  0  0  0  0  0
   39.3793   30.4255   43.5140 H   0  0  0  0  0  0  0  0  0  0  0  0
   37.6691   32.2116   51.4073 H   0  0  0  0  0  0  0  0  0  0  0  0
   38.1286   33.9137   49.5838 H   0  0  0  0  0  0  0  0  0  0  0  0
   39.7504   30.6204   46.9624 H   0  0  0  0  0  0  0  0  0  0  0  0
   40.9848   31.1791   44.0508 H   0  0  0  0  0  0  0  0  0  0  0  0
   42.1266   31.0458   45.1099 H   0  0  0  0  0  0  0  0  0  0  0  0
   40.9551   33.2204   46.4219 H   0  0  0  0  0  0  0  0  0  0  0  0
   39.9861   33.5143   45.2417 H   0  0  0  0  0  0  0  0  0  0  0  0
  1 11  1  0
  2  1  2  0
  3  2  1  0
  4  5  1  0
  4  3  2  0
  5  6  2  0
  6 17  1  0
  6  1  1  0
  7  8  2  0
  7 13  1  0
  9  8  1  0
 10  9  2  0
 11 10  1  0
 11 12  2  0
 12  7  1  0
 13 14  1  0
 13 16  1  0
 15 13  1  0
 18 19  1  0
 18 17  1  0
 19 17  1  0
  2 20  1  0
  3 21  1  0
  4 22  1  0
  5 23  1  0
  8 24  1  0
  9 25  1  0
 17 26  1  0
 18 27  1  0
 18 28  1  0
 19 29  1  0
 19 30  1  0
M  ISO  8  20  14  21  14  22  14  23  14  24  14  25  14  26  13  27  13
M  ISO  3  28  13  29  13  30  13
M  END
>  <minimizedAffinity>  (1) 
-6.14281273

>  <minimizedRMSD>  (1) 
1.39377904

$$$$
