
     RDKit          3D

 29 30  0  0  0  0  0  0  0  0999 V2000
   37.9040   30.8210   46.1550 C   0  0  0  0  0  0  0  0  0  0  0  0
   36.6820   30.5000   45.5680 C   0  0  0  0  0  0  0  0  0  0  0  0
   36.5180   30.1390   44.2510 C   0  0  0  0  0  0  0  0  0  0  0  0
   37.6230   30.0860   43.4470 C   0  0  0  0  0  0  0  0  0  0  0  0
   38.8440   30.3980   44.0020 C   0  0  0  0  0  0  0  0  0  0  0  0
   39.0080   30.7680   45.3520 C   0  0  0  0  0  0  0  0  0  0  0  0
   37.6050   30.6790   49.8020 C   0  0  0  0  0  0  0  0  0  0  0  0
   38.0030   31.9530   50.1940 C   0  0  0  0  0  0  0  0  0  0  0  0
   38.3840   32.8630   49.1870 C   0  0  0  0  0  0  0  0  0  0  0  0
   38.3390   32.4490   47.9100 N   0  0  0  0  0  0  0  0  0  0  0  0
   37.9450   31.2000   47.5560 C   0  0  0  0  0  0  0  0  0  0  0  0
   37.5870   30.3440   48.5120 N   0  0  0  0  0  0  0  0  0  0  0  0
   37.2000   29.7110   50.8680 C   0  0  0  0  0  0  0  0  0  0  0  0
   35.8350   29.5490   50.8520 F   0  0  0  0  0  0  0  0  0  0  0  0
   37.8740   28.5380   50.6470 F   0  0  0  0  0  0  0  0  0  0  0  0
   37.5630   30.2670   52.0990 F   0  0  0  0  0  0  0  0  0  0  0  0
   40.3680   31.0720   45.8220 C   0  0  0  0  0  0  0  0  0  0  0  0
   40.8920   32.3810   45.2570 C   0  0  0  0  0  0  0  0  0  0  0  0
   35.7845   30.5380   46.2029 H   0  0  0  0  0  0  0  0  0  0  0  0
   35.5209   29.8984   43.8535 H   0  0  0  0  0  0  0  0  0  0  0  0
   37.5389   29.8023   42.3875 H   0  0  0  0  0  0  0  0  0  0  0  0
   39.7359   30.3564   43.3596 H   0  0  0  0  0  0  0  0  0  0  0  0
   38.0199   32.2410   51.2555 H   0  0  0  0  0  0  0  0  0  0  0  0
   38.7089   33.8831   49.4398 H   0  0  0  0  0  0  0  0  0  0  0  0
   40.3564   31.1396   46.9199 H   0  0  0  0  0  0  0  0  0  0  0  0
   41.0322   30.2658   45.4771 H   0  0  0  0  0  0  0  0  0  0  0  0
   41.1618   33.0551   46.0833 H   0  0  0  0  0  0  0  0  0  0  0  0
   41.7806   32.1841   44.6393 H   0  0  0  0  0  0  0  0  0  0  0  0
   40.1130   32.8517   44.6393 H   0  0  0  0  0  0  0  0  0  0  0  0
  1 11  1  0
  2  1  2  0
  3  2  1  0
  4  5  1  0
  4  3  2  0
  5  6  2  0
  6 17  1  0
  6  1  1  0
  7  8  2  0
  7 13  1  0
  9  8  1  0
 10  9  2  0
 11 10  1  0
 11 12  2  0
 12  7  1  0
 13 16  1  0
 14 13  1  0
 15 13  1  0
 18 17  1  0
  2 19  1  0
  3 20  1  0
  4 21  1  0
  5 22  1  0
  8 23  1  0
  9 24  1  0
 17 25  1  0
 17 26  1  0
 18 27  1  0
 18 28  1  0
 18 29  1  0
M  ISO  8  19  14  20  14  21  14  22  14  23  14  24  14  25   8  26   8
M  ISO  3  27   8  28   8  29   8
M  END
>  <minimizedAffinity>  (1) 
-6.00808191

>  <minimizedRMSD>  (1) 
1.61927688

$$$$
