
     RDKit          3D

 34 36  0  0  0  0  0  0  0  0999 V2000
   35.9060   30.2420   46.6530 C   0  0  0  0  0  0  0  0  0  0  0  0
   34.6430   29.6390   46.6670 C   0  0  0  0  0  0  0  0  0  0  0  0
   33.9990   29.1930   45.5320 C   0  0  0  0  0  0  0  0  0  0  0  0
   34.6160   29.3410   44.3070 C   0  0  0  0  0  0  0  0  0  0  0  0
   35.8620   29.9350   44.2810 C   0  0  0  0  0  0  0  0  0  0  0  0
   36.5100   30.3850   45.4310 C   0  0  0  0  0  0  0  0  0  0  0  0
   37.7950   30.9910   45.3610 N   0  0  0  0  0  0  0  0  0  0  0  0
   38.8280   30.3590   45.9770 C   0  0  0  0  0  0  0  0  0  0  0  0
   40.0840   30.9720   45.8960 C   0  0  0  0  0  0  0  0  0  0  0  0
   40.2790   32.1800   45.2160 C   0  0  0  0  0  0  0  0  0  0  0  0
   41.5760   32.7630   45.1640 N   0  0  0  0  0  0  0  0  0  0  0  0
   39.1990   32.7330   44.6360 N   0  0  0  0  0  0  0  0  0  0  0  0
   37.9740   32.1540   44.7040 C   0  0  0  0  0  0  0  0  0  0  0  0
   37.0020   32.7470   44.1260 O   0  0  0  0  0  0  0  0  0  0  0  0
   37.0080   30.2910   50.1310 C   0  0  0  0  0  0  0  0  0  0  0  0
   37.6130   31.5410   50.2450 C   0  0  0  0  0  0  0  0  0  0  0  0
   37.6370   32.3630   49.1200 C   0  0  0  0  0  0  0  0  0  0  0  0
   37.0760   31.9090   47.9780 N   0  0  0  0  0  0  0  0  0  0  0  0
   36.4940   30.6760   47.9090 C   0  0  0  0  0  0  0  0  0  0  0  0
   36.4670   29.8830   48.9880 N   0  0  0  0  0  0  0  0  0  0  0  0
   36.9850   29.4050   51.3560 C   0  0  0  0  0  0  0  0  0  0  0  0
   35.6660   29.0370   51.6170 F   0  0  0  0  0  0  0  0  0  0  0  0
   37.8050   28.3530   51.1330 F   0  0  0  0  0  0  0  0  0  0  0  0
   37.4050   30.1780   52.4340 F   0  0  0  0  0  0  0  0  0  0  0  0
   34.1367   29.5141   47.6356 H   0  0  0  0  0  0  0  0  0  0  0  0
   33.0059   28.7252   45.6025 H   0  0  0  0  0  0  0  0  0  0  0  0
   34.1312   28.9971   43.3814 H   0  0  0  0  0  0  0  0  0  0  0  0
   36.3656   30.0587   43.3109 H   0  0  0  0  0  0  0  0  0  0  0  0
   38.6842   29.4100   46.5143 H   0  0  0  0  0  0  0  0  0  0  0  0
   40.9447   30.4893   46.3820 H   0  0  0  0  0  0  0  0  0  0  0  0
   41.7215   33.6518   44.6642 H   0  0  0  0  0  0  0  0  0  0  0  0
   42.3694   32.2962   45.6262 H   0  0  0  0  0  0  0  0  0  0  0  0
   38.0588   31.8694   51.1955 H   0  0  0  0  0  0  0  0  0  0  0  0
   38.1022   33.3590   49.1609 H   0  0  0  0  0  0  0  0  0  0  0  0
  1  2  2  0
  1 19  1  0
  3  2  1  0
  4  3  2  0
  5  4  1  0
  5  6  2  0
  6  1  1  0
  7  6  1  0
  7  8  1  0
  9  8  2  0
 10  9  1  0
 11 10  1  0
 12 13  1  0
 12 10  2  0
 13  7  1  0
 14 13  2  0
 15 16  2  0
 15 21  1  0
 17 16  1  0
 18 17  2  0
 19 18  1  0
 19 20  2  0
 20 15  1  0
 21 22  1  0
 21 24  1  0
 23 21  1  0
  2 25  1  0
  3 26  1  0
  4 27  1  0
  5 28  1  0
  8 29  1  0
  9 30  1  0
 11 31  1  0
 11 32  1  0
 16 33  1  0
 17 34  1  0
M  ISO  8  25  14  26  14  27  14  28  14  29  14  30  14  33  14  34  14
M  END
>  <minimizedAffinity>  (1) 
-5.97025776

>  <minimizedRMSD>  (1) 
0.602353334

$$$$
