
     RDKit          3D

 32 33  0  0  0  0  0  0  0  0999 V2000
   36.3540   30.4910   46.6410 C   0  0  0  0  0  0  0  0  0  0  0  0
   35.0550   30.0180   46.6190 C   0  0  0  0  0  0  0  0  0  0  0  0
   34.3470   29.7000   45.4850 C   0  0  0  0  0  0  0  0  0  0  0  0
   34.9690   29.8620   44.2700 C   0  0  0  0  0  0  0  0  0  0  0  0
   36.2860   30.3400   44.2310 C   0  0  0  0  0  0  0  0  0  0  0  0
   36.9420   30.6410   45.4160 C   0  0  0  0  0  0  0  0  0  0  0  0
   37.4100   30.2680   50.1230 C   0  0  0  0  0  0  0  0  0  0  0  0
   38.2420   31.3790   50.2650 C   0  0  0  0  0  0  0  0  0  0  0  0
   38.4420   32.2120   49.1490 C   0  0  0  0  0  0  0  0  0  0  0  0
   37.8120   31.8860   48.0020 N   0  0  0  0  0  0  0  0  0  0  0  0
   37.0090   30.7980   47.8930 C   0  0  0  0  0  0  0  0  0  0  0  0
   36.8210   30.0060   48.9580 N   0  0  0  0  0  0  0  0  0  0  0  0
   37.2020   29.3900   51.3190 C   0  0  0  0  0  0  0  0  0  0  0  0
   35.8380   29.1520   51.4780 F   0  0  0  0  0  0  0  0  0  0  0  0
   37.9250   28.2620   51.1520 F   0  0  0  0  0  0  0  0  0  0  0  0
   37.6210   30.1080   52.4460 F   0  0  0  0  0  0  0  0  0  0  0  0
   38.3440   31.1400   45.3000 C   0  0  0  0  0  0  0  0  0  0  0  0
   38.3700   32.3980   44.4570 C   0  0  0  0  0  0  0  0  0  0  0  0
   39.2070   30.1080   44.5950 C   0  0  0  0  0  0  0  0  0  0  0  0
   34.5479   29.8857   47.5862 H   0  0  0  0  0  0  0  0  0  0  0  0
   33.3140   29.3272   45.5477 H   0  0  0  0  0  0  0  0  0  0  0  0
   34.4385   29.6189   43.3376 H   0  0  0  0  0  0  0  0  0  0  0  0
   36.7967   30.4758   43.2663 H   0  0  0  0  0  0  0  0  0  0  0  0
   38.7298   31.5983   51.2262 H   0  0  0  0  0  0  0  0  0  0  0  0
   39.0900   33.0988   49.2099 H   0  0  0  0  0  0  0  0  0  0  0  0
   38.7242   31.3368   46.3133 H   0  0  0  0  0  0  0  0  0  0  0  0
   38.3882   33.2797   45.1145 H   0  0  0  0  0  0  0  0  0  0  0  0
   39.2683   32.3954   43.8221 H   0  0  0  0  0  0  0  0  0  0  0  0
   37.4724   32.4326   43.8221 H   0  0  0  0  0  0  0  0  0  0  0  0
   39.7242   29.4896   45.3434 H   0  0  0  0  0  0  0  0  0  0  0  0
   38.5719   29.4673   43.9655 H   0  0  0  0  0  0  0  0  0  0  0  0
   39.9499   30.6197   43.9655 H   0  0  0  0  0  0  0  0  0  0  0  0
  1 11  1  0
  2  1  2  0
  3  2  1  0
  4  3  2  0
  5  4  1  0
  5  6  2  0
  6  1  1  0
  7  8  2  0
  7 13  1  0
  9  8  1  0
 10  9  2  0
 11 10  1  0
 11 12  2  0
 12  7  1  0
 13 14  1  0
 13 16  1  0
 15 13  1  0
 17  6  1  0
 18 17  1  0
 19 17  1  0
  2 20  1  0
  3 21  1  0
  4 22  1  0
  5 23  1  0
  8 24  1  0
  9 25  1  0
 17 26  1  0
 18 27  1  0
 18 28  1  0
 18 29  1  0
 19 30  1  0
 19 31  1  0
 19 32  1  0
M  ISO  8  20  14  21  14  22  14  23  14  24  14  25  14  26   8  27   8
M  ISO  5  28   8  29   8  30   8  31   8  32   8
M  END
>  <minimizedAffinity>  (1) 
-5.94626045

>  <minimizedRMSD>  (1) 
0.636460423

$$$$
