
     RDKit          3D

 32 33  0  0  0  0  0  0  0  0999 V2000
   37.7970   30.2430   49.3670 C   0  0  0  0  0  0  0  0  0  0  0  0
   38.2240   31.3510   50.1460 C   0  0  0  0  0  0  0  0  0  0  0  0
   38.5190   32.5410   49.4720 C   0  0  0  0  0  0  0  0  0  0  0  0
   38.3810   32.5670   48.1100 N   0  0  0  0  0  0  0  0  0  0  0  0
   37.9750   31.4990   47.4090 C   0  0  0  0  0  0  0  0  0  0  0  0
   37.6850   30.3450   48.0260 N   0  0  0  0  0  0  0  0  0  0  0  0
   37.8550   31.6050   45.9940 N   0  0  0  0  0  0  0  0  0  0  0  0
   38.6830   32.3430   45.2580 C   0  0  0  0  0  0  0  0  0  0  0  0
   38.5970   32.4680   43.8890 C   0  0  0  0  0  0  0  0  0  0  0  0
   37.5680   31.7540   43.3290 C   0  0  0  0  0  0  0  0  0  0  0  0
   37.3970   31.7970   42.0850 O   0  0  0  0  0  0  0  0  0  0  0  0
   36.6850   30.9810   44.0070 N   0  0  0  0  0  0  0  0  0  0  0  0
   36.8590   30.9270   45.3580 C   0  0  0  0  0  0  0  0  0  0  0  0
   36.0590   30.2210   46.0020 O   0  0  0  0  0  0  0  0  0  0  0  0
   39.5030   33.2810   43.0560 C   0  0  0  0  0  0  0  0  0  0  0  0
   35.6180   30.2510   43.3590 C   0  0  0  0  0  0  0  0  0  0  0  0
   35.7000   28.7620   43.5580 C   0  0  0  0  0  0  0  0  0  0  0  0
   34.2680   30.8090   43.7720 C   0  0  0  0  0  0  0  0  0  0  0  0
   37.5549   29.2911   49.8622 H   0  0  0  0  0  0  0  0  0  0  0  0
   38.3193   31.2763   51.2393 H   0  0  0  0  0  0  0  0  0  0  0  0
   38.8533   33.4329   50.0222 H   0  0  0  0  0  0  0  0  0  0  0  0
   39.4865   32.8873   45.7757 H   0  0  0  0  0  0  0  0  0  0  0  0
   40.1641   33.8743   43.7048 H   0  0  0  0  0  0  0  0  0  0  0  0
   40.1101   32.6191   42.4210 H   0  0  0  0  0  0  0  0  0  0  0  0
   38.9104   33.9560   42.4210 H   0  0  0  0  0  0  0  0  0  0  0  0
   35.7412   30.4001   42.2761 H   0  0  0  0  0  0  0  0  0  0  0  0
   35.7124   28.5361   44.6345 H   0  0  0  0  0  0  0  0  0  0  0  0
   34.8270   28.2812   43.0925 H   0  0  0  0  0  0  0  0  0  0  0  0
   36.6205   28.3800   43.0925 H   0  0  0  0  0  0  0  0  0  0  0  0
   34.2027   30.8360   44.8697 H   0  0  0  0  0  0  0  0  0  0  0  0
   34.1546   31.8277   43.3728 H   0  0  0  0  0  0  0  0  0  0  0  0
   33.4685   30.1676   43.3728 H   0  0  0  0  0  0  0  0  0  0  0  0
  1  2  2  0
  3  2  1  0
  4  3  2  0
  5  6  2  0
  5  4  1  0
  6  1  1  0
  7  5  1  0
  8  7  1  0
  9  8  2  0
 10  9  1  0
 10 12  1  0
 11 10  2  0
 12 13  1  0
 13  7  1  0
 13 14  2  0
 15  9  1  0
 16 17  1  0
 16 18  1  0
 16 12  1  0
  1 19  1  0
  2 20  1  0
  3 21  1  0
  8 22  1  0
 15 23  1  0
 15 24  1  0
 15 25  1  0
 16 26  1  0
 17 27  1  0
 17 28  1  0
 17 29  1  0
 18 30  1  0
 18 31  1  0
 18 32  1  0
M  ISO  8  19  14  20  14  21  14  22  14  23   8  24   8  25   8  26   8
M  ISO  6  27   8  28   8  29   8  30   8  31   8  32   8
M  END
>  <minimizedAffinity>  (1) 
-4.78328848

>  <minimizedRMSD>  (1) 
5.98547173

$$$$
