
     RDKit          3D

 36 39  0  0  0  0  0  0  0  0999 V2000
   35.4930   30.0640   45.9610 C   0  0  0  0  0  0  0  0  0  0  0  0
   34.4070   29.5290   46.6380 C   0  0  0  0  0  0  0  0  0  0  0  0
   33.3340   28.9290   46.0260 C   0  0  0  0  0  0  0  0  0  0  0  0
   33.3100   28.8370   44.6550 C   0  0  0  0  0  0  0  0  0  0  0  0
   34.3850   29.3630   43.9350 C   0  0  0  0  0  0  0  0  0  0  0  0
   35.4490   29.9630   44.5980 C   0  0  0  0  0  0  0  0  0  0  0  0
   36.5230   30.4850   43.8240 N   0  0  0  0  0  0  0  0  0  0  0  0
   36.5530   31.7700   43.3630 C   0  0  0  0  0  0  0  0  0  0  0  0
   37.6900   31.9740   42.6640 N   0  0  0  0  0  0  0  0  0  0  0  0
   38.4090   30.8370   42.6590 C   0  0  0  0  0  0  0  0  0  0  0  0
   39.6170   30.3720   42.1530 C   0  0  0  0  0  0  0  0  0  0  0  0
   40.0360   29.1100   42.3550 N   0  0  0  0  0  0  0  0  0  0  0  0
   39.2750   28.2360   43.0780 C   0  0  0  0  0  0  0  0  0  0  0  0
   38.1080   28.6670   43.5740 N   0  0  0  0  0  0  0  0  0  0  0  0
   37.6720   29.9240   43.3820 C   0  0  0  0  0  0  0  0  0  0  0  0
   40.3940   31.3060   41.3990 N   0  0  0  0  0  0  0  0  0  0  0  0
   37.7470   30.9820   48.6830 C   0  0  0  0  0  0  0  0  0  0  0  0
   38.6390   31.8550   48.0600 C   0  0  0  0  0  0  0  0  0  0  0  0
   38.4640   32.1290   46.6940 C   0  0  0  0  0  0  0  0  0  0  0  0
   37.4350   31.5300   46.0530 N   0  0  0  0  0  0  0  0  0  0  0  0
   36.5810   30.6810   46.6950 C   0  0  0  0  0  0  0  0  0  0  0  0
   36.7530   30.4250   47.9940 N   0  0  0  0  0  0  0  0  0  0  0  0
   37.9420   30.6950   50.1450 C   0  0  0  0  0  0  0  0  0  0  0  0
   36.8340   31.1620   50.8490 F   0  0  0  0  0  0  0  0  0  0  0  0
   38.1440   29.3650   50.2890 F   0  0  0  0  0  0  0  0  0  0  0  0
   39.0450   31.4390   50.5710 F   0  0  0  0  0  0  0  0  0  0  0  0
   34.4051   29.5892   47.7363 H   0  0  0  0  0  0  0  0  0  0  0  0
   32.5041   28.5270   46.6257 H   0  0  0  0  0  0  0  0  0  0  0  0
   32.4645   28.3606   44.1372 H   0  0  0  0  0  0  0  0  0  0  0  0
   34.3896   29.3020   42.8367 H   0  0  0  0  0  0  0  0  0  0  0  0
   35.7705   32.5237   43.5349 H   0  0  0  0  0  0  0  0  0  0  0  0
   39.6125   27.2031   43.2487 H   0  0  0  0  0  0  0  0  0  0  0  0
   40.0506   32.2669   41.2588 H   0  0  0  0  0  0  0  0  0  0  0  0
   41.2971   31.0179   40.9961 H   0  0  0  0  0  0  0  0  0  0  0  0
   39.4607   32.3182   48.6259 H   0  0  0  0  0  0  0  0  0  0  0  0
   39.1436   32.8105   46.1613 H   0  0  0  0  0  0  0  0  0  0  0  0
  1  2  2  0
  1 21  1  0
  3  2  1  0
  4  3  2  0
  5  6  2  0
  5  4  1  0
  6  1  1  0
  7  6  1  0
  8  7  1  0
  9  8  2  0
 10  9  1  0
 10 15  2  0
 11 12  2  0
 11 10  1  0
 12 13  1  0
 13 14  2  0
 15 14  1  0
 15  7  1  0
 16 11  1  0
 17 23  1  0
 18 17  2  0
 19 18  1  0
 20 19  2  0
 20 21  1  0
 21 22  2  0
 22 17  1  0
 23 25  1  0
 23 26  1  0
 23 24  1  0
  2 27  1  0
  3 28  1  0
  4 29  1  0
  5 30  1  0
  8 31  1  0
 13 32  1  0
 16 33  1  0
 16 34  1  0
 18 35  1  0
 19 36  1  0
M  ISO  8  27  14  28  14  29  14  30  14  31  14  32  14  35  14  36  14
M  END
>  <minimizedAffinity>  (1) 
-5.91792393

>  <minimizedRMSD>  (1) 
2.55895758

$$$$
