
     RDKit          3D

 24 25  0  0  0  0  0  0  0  0999 V2000
   37.6250   30.5710   49.8180 C   0  0  0  0  0  0  0  0  0  0  0  0
   38.1810   31.8020   50.1650 C   0  0  0  0  0  0  0  0  0  0  0  0
   38.5220   32.6850   49.1380 C   0  0  0  0  0  0  0  0  0  0  0  0
   38.2940   32.2980   47.8630 N   0  0  0  0  0  0  0  0  0  0  0  0
   37.7450   31.0760   47.5680 C   0  0  0  0  0  0  0  0  0  0  0  0
   37.4240   30.2430   48.5410 N   0  0  0  0  0  0  0  0  0  0  0  0
   37.5280   30.7260   46.1660 C   0  0  0  0  0  0  0  0  0  0  0  0
   36.2330   30.4030   45.7520 C   0  0  0  0  0  0  0  0  0  0  0  0
   35.9450   30.0590   44.4370 C   0  0  0  0  0  0  0  0  0  0  0  0
   36.9460   30.0290   43.4990 C   0  0  0  0  0  0  0  0  0  0  0  0
   38.2210   30.3490   43.9150 C   0  0  0  0  0  0  0  0  0  0  0  0
   38.5240   30.6940   45.2270 C   0  0  0  0  0  0  0  0  0  0  0  0
   40.2070   31.1060   45.7270 S   0  0  0  0  0  0  0  0  0  0  0  0
   37.2550   29.6110   50.9270 C   0  0  0  0  0  0  0  0  0  0  0  0
   35.8800   29.4490   50.9480 F   0  0  0  0  0  0  0  0  0  0  0  0
   37.9270   28.4550   50.7320 F   0  0  0  0  0  0  0  0  0  0  0  0
   37.6310   30.2270   52.1280 F   0  0  0  0  0  0  0  0  0  0  0  0
   38.3465   32.0702   51.2189 H   0  0  0  0  0  0  0  0  0  0  0  0
   38.9636   33.6676   49.3604 H   0  0  0  0  0  0  0  0  0  0  0  0
   35.4170   30.4216   46.4894 H   0  0  0  0  0  0  0  0  0  0  0  0
   34.9133   29.8104   44.1475 H   0  0  0  0  0  0  0  0  0  0  0  0
   36.7388   29.7594   42.4529 H   0  0  0  0  0  0  0  0  0  0  0  0
   39.0350   30.3304   43.1754 H   0  0  0  0  0  0  0  0  0  0  0  0
   40.2853   31.1252   47.0946 H   0  0  0  0  0  0  0  0  0  0  0  0
  1  2  2  0
  1 14  1  0
  3  2  1  0
  4  3  2  0
  5  4  1  0
  5  6  2  0
  6  1  1  0
  7  5  1  0
  8  7  2  0
  9  8  1  0
 10 11  1  0
 10  9  2  0
 11 12  2  0
 12 13  1  0
 12  7  1  0
 14 15  1  0
 14 17  1  0
 16 14  1  0
  2 18  1  0
  3 19  1  0
  8 20  1  0
  9 21  1  0
 10 22  1  0
 11 23  1  0
 13 24  1  0
M  ISO  7  18  14  19  14  20  14  21  14  22  14  23  14  24  11
M  END
>  <minimizedAffinity>  (1) 
-5.55825043

>  <minimizedRMSD>  (1) 
1.16222572

$$$$
