
     RDKit          3D

 25 26  0  0  0  0  0  0  0  0999 V2000
   36.4980   30.4750   46.5340 C   0  0  0  0  0  0  0  0  0  0  0  0
   35.1620   30.1330   46.4670 C   0  0  0  0  0  0  0  0  0  0  0  0
   34.5020   29.8240   45.2940 C   0  0  0  0  0  0  0  0  0  0  0  0
   35.2100   29.8550   44.1110 C   0  0  0  0  0  0  0  0  0  0  0  0
   36.5670   30.1990   44.1460 C   0  0  0  0  0  0  0  0  0  0  0  0
   37.1850   30.5010   45.3520 C   0  0  0  0  0  0  0  0  0  0  0  0
   37.4290   30.2870   50.0590 C   0  0  0  0  0  0  0  0  0  0  0  0
   38.2480   31.4120   50.2220 C   0  0  0  0  0  0  0  0  0  0  0  0
   38.4820   32.2390   49.1140 C   0  0  0  0  0  0  0  0  0  0  0  0
   37.8960   31.8950   47.9440 N   0  0  0  0  0  0  0  0  0  0  0  0
   37.1030   30.7870   47.8260 C   0  0  0  0  0  0  0  0  0  0  0  0
   36.8870   30.0130   48.8750 N   0  0  0  0  0  0  0  0  0  0  0  0
   37.1870   29.4070   51.2580 C   0  0  0  0  0  0  0  0  0  0  0  0
   35.8370   29.1870   51.3900 F   0  0  0  0  0  0  0  0  0  0  0  0
   37.9250   28.2680   51.0770 F   0  0  0  0  0  0  0  0  0  0  0  0
   37.6290   30.0980   52.3780 F   0  0  0  0  0  0  0  0  0  0  0  0
   38.5670   30.8460   45.3470 N   0  0  0  0  0  0  0  0  0  0  0  0
   34.5884   30.1050   47.4052 H   0  0  0  0  0  0  0  0  0  0  0  0
   33.4345   29.5588   45.3031 H   0  0  0  0  0  0  0  0  0  0  0  0
   34.7178   29.6139   43.1573 H   0  0  0  0  0  0  0  0  0  0  0  0
   37.1471   30.2301   43.2119 H   0  0  0  0  0  0  0  0  0  0  0  0
   38.6982   31.6418   51.1990 H   0  0  0  0  0  0  0  0  0  0  0  0
   39.1177   33.1332   49.1930 H   0  0  0  0  0  0  0  0  0  0  0  0
   39.0442   31.0734   46.2310 H   0  0  0  0  0  0  0  0  0  0  0  0
   39.0891   30.8680   44.4594 H   0  0  0  0  0  0  0  0  0  0  0  0
  1 11  1  0
  2  1  2  0
  3  2  1  0
  4  5  1  0
  4  3  2  0
  5  6  2  0
  6  1  1  0
  7  8  2  0
  7 13  1  0
  9  8  1  0
 10  9  2  0
 11 10  1  0
 11 12  2  0
 12  7  1  0
 13 14  1  0
 13 16  1  0
 15 13  1  0
 17  6  1  0
  2 18  1  0
  3 19  1  0
  4 20  1  0
  5 21  1  0
  8 22  1  0
  9 23  1  0
 17 24  1  0
 17 25  1  0
M  ISO  6  18  14  19  14  20  14  21  14  22  14  23  14
M  END
>  <minimizedAffinity>  (1) 
-5.48635101

>  <minimizedRMSD>  (1) 
0.205771506

$$$$
