
     RDKit          3D

 19 19  0  0  0  0  0  0  0  0999 V2000
   37.3870   31.0080   49.3300 C   0  0  0  0  0  0  0  0  0  0  0  0
   37.8150   32.3180   49.6040 C   0  0  0  0  0  0  0  0  0  0  0  0
   38.6020   32.9650   48.6330 C   0  0  0  0  0  0  0  0  0  0  0  0
   38.9030   32.2860   47.4900 N   0  0  0  0  0  0  0  0  0  0  0  0
   38.4720   31.0270   47.2630 C   0  0  0  0  0  0  0  0  0  0  0  0
   37.7130   30.3840   48.1840 N   0  0  0  0  0  0  0  0  0  0  0  0
   36.5500   30.3150   50.3580 C   0  0  0  0  0  0  0  0  0  0  0  0
   37.3550   30.0800   51.6320 C   0  0  0  0  0  0  0  0  0  0  0  0
   36.0000   29.0170   49.8480 C   0  0  0  0  0  0  0  0  0  0  0  0
   37.5444   32.8203   50.5445 H   0  0  0  0  0  0  0  0  0  0  0  0
   38.9645   33.9913   48.7922 H   0  0  0  0  0  0  0  0  0  0  0  0
   38.7385   30.5194   46.3242 H   0  0  0  0  0  0  0  0  0  0  0  0
   35.6983   30.9730   50.5851 H   0  0  0  0  0  0  0  0  0  0  0  0
   36.7170   30.2663   52.5085 H   0  0  0  0  0  0  0  0  0  0  0  0
   37.7126   29.0400   51.6532 H   0  0  0  0  0  0  0  0  0  0  0  0
   38.2160   30.7643   51.6532 H   0  0  0  0  0  0  0  0  0  0  0  0
   35.7278   28.3747   50.6985 H   0  0  0  0  0  0  0  0  0  0  0  0
   35.1073   29.2124   49.2356 H   0  0  0  0  0  0  0  0  0  0  0  0
   36.7613   28.5115   49.2356 H   0  0  0  0  0  0  0  0  0  0  0  0
  1  2  2  0
  1  7  1  0
  3  2  1  0
  4  3  2  0
  5  4  1  0
  5  6  2  0
  6  1  1  0
  7  8  1  0
  9  7  1  0
  2 10  1  0
  3 11  1  0
  5 12  1  0
  7 13  1  0
  8 14  1  0
  8 15  1  0
  8 16  1  0
  9 17  1  0
  9 18  1  0
  9 19  1  0
M  ISO  8  10  14  11  14  12  14  13   8  14   8  15   8  16   8  17   8
M  ISO  2  18   8  19   8
M  END
>  <minimizedAffinity>  (1) 
-4.15377235

>  <minimizedRMSD>  (1) 
3.12332821

$$$$
