
     RDKit          3D

 35 36  0  0  0  0  0  0  0  0999 V2000
   37.7200   30.5000   50.1640 C   0  0  0  0  0  0  0  0  0  0  0  0
   38.5590   31.6250   50.1420 C   0  0  0  0  0  0  0  0  0  0  0  0
   38.5980   32.3510   48.9520 C   0  0  0  0  0  0  0  0  0  0  0  0
   37.8350   31.9450   47.8840 N   0  0  0  0  0  0  0  0  0  0  0  0
   37.0440   30.8550   47.9580 C   0  0  0  0  0  0  0  0  0  0  0  0
   36.9810   30.1280   49.0930 N   0  0  0  0  0  0  0  0  0  0  0  0
   36.2730   30.4600   46.8400 N   0  0  0  0  0  0  0  0  0  0  0  0
   36.7480   30.6040   45.5820 C   0  0  0  0  0  0  0  0  0  0  0  0
   36.0340   30.2280   44.4670 C   0  0  0  0  0  0  0  0  0  0  0  0
   34.7860   29.6910   44.7460 C   0  0  0  0  0  0  0  0  0  0  0  0
   34.0630   29.3210   43.7880 O   0  0  0  0  0  0  0  0  0  0  0  0
   34.2620   29.5250   45.9830 N   0  0  0  0  0  0  0  0  0  0  0  0
   35.0510   29.9300   47.0040 C   0  0  0  0  0  0  0  0  0  0  0  0
   34.5850   29.7860   48.1490 O   0  0  0  0  0  0  0  0  0  0  0  0
   36.4960   30.3590   43.0800 C   0  0  0  0  0  0  0  0  0  0  0  0
   32.9390   28.9480   46.1550 C   0  0  0  0  0  0  0  0  0  0  0  0
   32.6040   27.9180   45.0970 C   0  0  0  0  0  0  0  0  0  0  0  0
   31.8860   30.0500   45.9770 C   0  0  0  0  0  0  0  0  0  0  0  0
   32.7460   28.3200   47.4940 C   0  0  0  0  0  0  0  0  0  0  0  0
   37.6611   29.8997   51.0839 H   0  0  0  0  0  0  0  0  0  0  0  0
   39.1552   31.9189   51.0185 H   0  0  0  0  0  0  0  0  0  0  0  0
   39.2358   33.2434   48.8689 H   0  0  0  0  0  0  0  0  0  0  0  0
   37.7482   31.0405   45.4439 H   0  0  0  0  0  0  0  0  0  0  0  0
   37.5543   30.6591   43.0728 H   0  0  0  0  0  0  0  0  0  0  0  0
   36.3850   29.3940   42.5639 H   0  0  0  0  0  0  0  0  0  0  0  0
   35.8950   31.1221   42.5639 H   0  0  0  0  0  0  0  0  0  0  0  0
   32.2987   26.9794   45.5827 H   0  0  0  0  0  0  0  0  0  0  0  0
   31.7808   28.2909   44.4698 H   0  0  0  0  0  0  0  0  0  0  0  0
   33.4890   27.7353   44.4698 H   0  0  0  0  0  0  0  0  0  0  0  0
   31.5513   30.4003   46.9646 H   0  0  0  0  0  0  0  0  0  0  0  0
   32.3253   30.8903   45.4194 H   0  0  0  0  0  0  0  0  0  0  0  0
   31.0266   29.6493   45.4194 H   0  0  0  0  0  0  0  0  0  0  0  0
   32.9721   29.0556   48.2800 H   0  0  0  0  0  0  0  0  0  0  0  0
   31.7033   27.9845   47.5948 H   0  0  0  0  0  0  0  0  0  0  0  0
   33.4203   27.4568   47.5948 H   0  0  0  0  0  0  0  0  0  0  0  0
  2  1  2  0
  3  2  1  0
  4  5  1  0
  4  3  2  0
  5  6  2  0
  6  1  1  0
  7 13  1  0
  7  5  1  0
  8  7  1  0
  9 10  1  0
  9  8  2  0
 10 12  1  0
 11 10  2  0
 12 16  1  0
 12 13  1  0
 13 14  2  0
 15  9  1  0
 16 19  1  0
 17 16  1  0
 18 16  1  0
  1 20  1  0
  2 21  1  0
  3 22  1  0
  8 23  1  0
 15 24  1  0
 15 25  1  0
 15 26  1  0
 17 27  1  0
 17 28  1  0
 17 29  1  0
 18 30  1  0
 18 31  1  0
 18 32  1  0
 19 33  1  0
 19 34  1  0
 19 35  1  0
M  ISO  8  20  14  21  14  22  14  23  14  24   8  25   8  26   8  27   8
M  ISO  8  28   8  29   8  30   8  31   8  32   8  33   8  34   8  35   8
M  END
>  <minimizedAffinity>  (1) 
-4.64903593

>  <minimizedRMSD>  (1) 
3.39606929

$$$$
