
     RDKit          3D

 30 31  0  0  1  0  0  0  0  0999 V2000
   36.4490   30.2380   50.1450 C   0  0  2  0  0  0  0  0  0  0  0  0
   37.3270   31.2090   49.4490 C   0  0  0  0  0  0  0  0  0  0  0  0
   37.3500   32.5310   49.8810 C   0  0  0  0  0  0  0  0  0  0  0  0
   38.2040   33.4100   49.1640 C   0  0  0  0  0  0  0  0  0  0  0  0
   38.9320   32.9280   48.1240 N   0  0  0  0  0  0  0  0  0  0  0  0
   38.8760   31.6230   47.7350 C   0  0  0  0  0  0  0  0  0  0  0  0
   38.0620   30.8020   48.4250 N   0  0  0  0  0  0  0  0  0  0  0  0
   37.0970   29.8470   51.5030 C   0  0  0  0  0  0  0  0  0  0  0  0
   36.1290   29.0200   49.4000 C   0  0  0  0  0  0  0  0  0  0  0  0
   35.0100   28.9110   48.5620 N   0  0  0  0  0  0  0  0  0  0  0  0
   34.0750   28.1380   49.1910 C   0  0  0  0  0  0  0  0  0  0  0  0
   32.8170   27.8520   48.6880 C   0  0  0  0  0  0  0  0  0  0  0  0
   32.4320   28.3600   47.4640 C   0  0  0  0  0  0  0  0  0  0  0  0
   31.1910   28.1670   46.8090 N   0  0  0  0  0  0  0  0  0  0  0  0
   33.3540   29.1260   46.8350 N   0  0  0  0  0  0  0  0  0  0  0  0
   34.5440   29.3530   47.3870 C   0  0  0  0  0  0  0  0  0  0  0  0
   35.3450   30.0640   46.7400 O   0  0  0  0  0  0  0  0  0  0  0  0
   35.4888   30.7592   50.2727 H   0  0  0  0  0  0  0  0  0  0  0  0
   36.7412   32.8758   50.7298 H   0  0  0  0  0  0  0  0  0  0  0  0
   38.2751   34.4703   49.4480 H   0  0  0  0  0  0  0  0  0  0  0  0
   39.4738   31.2541   46.8885 H   0  0  0  0  0  0  0  0  0  0  0  0
   36.4742   30.2228   52.3282 H   0  0  0  0  0  0  0  0  0  0  0  0
   37.1736   28.7518   51.5709 H   0  0  0  0  0  0  0  0  0  0  0  0
   38.1017   30.2898   51.5709 H   0  0  0  0  0  0  0  0  0  0  0  0
   37.0040   28.8133   48.7662 H   0  0  0  0  0  0  0  0  0  0  0  0
   35.8648   28.3271   50.2125 H   0  0  0  0  0  0  0  0  0  0  0  0
   34.3414   27.7114   50.1693 H   0  0  0  0  0  0  0  0  0  0  0  0
   32.1248   27.2201   49.2638 H   0  0  0  0  0  0  0  0  0  0  0  0
   31.0203   28.6012   45.8907 H   0  0  0  0  0  0  0  0  0  0  0  0
   30.4593   27.5925   47.2510 H   0  0  0  0  0  0  0  0  0  0  0  0
  1  8  1  0
  2  3  2  0
  2  1  1  0
  4  3  1  0
  5  4  2  0
  6  5  1  0
  6  7  2  0
  7  2  1  0
  9  1  1  0
 10 11  1  0
 10  9  1  0
 12 11  2  0
 13 12  1  0
 14 13  1  0
 15 16  1  0
 15 13  2  0
 16 10  1  0
 17 16  2  0
  1 18  1  1
  3 19  1  0
  4 20  1  0
  6 21  1  0
  8 22  1  0
  8 23  1  0
  8 24  1  0
  9 25  1  0
  9 26  1  0
 11 27  1  0
 12 28  1  0
 14 29  1  0
 14 30  1  0
M  ISO  8  18   8  19  14  20  14  21  14  22   8  23   8  24   8  25   8
M  ISO  3  26   8  27  14  28  14
M  END
>  <minimizedAffinity>  (1) 
-5.30353737

>  <minimizedRMSD>  (1) 
0.97374177

$$$$
