
     RDKit          3D

 31 32  0  0  1  0  0  0  0  0999 V2000
   36.8700   30.4150   50.2280 C   0  0  2  0  0  0  0  0  0  0  0  0
   37.7110   31.1420   49.2120 C   0  0  0  0  0  0  0  0  0  0  0  0
   38.1400   32.4320   49.5210 C   0  0  0  0  0  0  0  0  0  0  0  0
   38.8910   33.1010   48.5540 C   0  0  0  0  0  0  0  0  0  0  0  0
   39.1630   32.4690   47.3810 N   0  0  0  0  0  0  0  0  0  0  0  0
   38.7270   31.2030   47.1100 C   0  0  0  0  0  0  0  0  0  0  0  0
   38.0030   30.5630   48.0480 N   0  0  0  0  0  0  0  0  0  0  0  0
   37.7310   30.1560   51.4920 C   0  0  0  0  0  0  0  0  0  0  0  0
   36.3430   29.1260   49.7210 C   0  0  0  0  0  0  0  0  0  0  0  0
   34.9590   28.8730   50.0230 N   0  0  0  0  0  0  0  0  0  0  0  0
   34.4070   27.9380   49.0420 C   0  0  0  0  0  0  0  0  0  0  0  0
   34.5150   28.6660   47.7440 C   0  0  0  0  0  0  0  0  0  0  0  0
   34.3330   30.1070   48.1350 C   0  0  0  0  0  0  0  0  0  0  0  0
   34.2160   30.0940   49.6600 C   0  0  0  0  0  0  0  0  0  0  0  0
   36.0018   31.0496   50.4592 H   0  0  0  0  0  0  0  0  0  0  0  0
   37.8969   32.9020   50.4854 H   0  0  0  0  0  0  0  0  0  0  0  0
   39.2568   34.1221   48.7373 H   0  0  0  0  0  0  0  0  0  0  0  0
   38.9612   30.7189   46.1504 H   0  0  0  0  0  0  0  0  0  0  0  0
   37.1252   30.3382   52.3919 H   0  0  0  0  0  0  0  0  0  0  0  0
   38.0804   29.1130   51.4902 H   0  0  0  0  0  0  0  0  0  0  0  0
   38.5979   30.8331   51.4902 H   0  0  0  0  0  0  0  0  0  0  0  0
   36.9420   28.3155   50.1619 H   0  0  0  0  0  0  0  0  0  0  0  0
   36.4140   29.1753   48.6244 H   0  0  0  0  0  0  0  0  0  0  0  0
   34.9925   27.0071   49.0174 H   0  0  0  0  0  0  0  0  0  0  0  0
   33.3734   27.6427   49.2755 H   0  0  0  0  0  0  0  0  0  0  0  0
   33.7274   28.3452   47.0463 H   0  0  0  0  0  0  0  0  0  0  0  0
   35.4669   28.4792   47.2253 H   0  0  0  0  0  0  0  0  0  0  0  0
   35.2003   30.7054   47.8193 H   0  0  0  0  0  0  0  0  0  0  0  0
   33.4492   30.5553   47.6575 H   0  0  0  0  0  0  0  0  0  0  0  0
   34.6791   30.9883   50.1025 H   0  0  0  0  0  0  0  0  0  0  0  0
   33.1772   30.1008   50.0216 H   0  0  0  0  0  0  0  0  0  0  0  0
  1  8  1  0
  2  3  2  0
  2  1  1  0
  4  3  1  0
  5  4  2  0
  6  5  1  0
  6  7  2  0
  7  2  1  0
  9 10  1  0
  9  1  1  0
 11 10  1  0
 12 13  1  0
 12 11  1  0
 13 14  1  0
 14 10  1  0
  1 15  1  1
  3 16  1  0
  4 17  1  0
  6 18  1  0
  8 19  1  0
  8 20  1  0
  8 21  1  0
  9 22  1  0
  9 23  1  0
 11 24  1  0
 11 25  1  0
 12 26  1  0
 12 27  1  0
 13 28  1  0
 13 29  1  0
 14 30  1  0
 14 31  1  0
M  ISO  8  15   8  16  14  17  14  18  14  19   8  20   8  21   8  22   8
M  ISO  8  23   8  24  13  25  13  26  13  27  13  28  13  29  13  30  13
M  ISO  1  31  13
M  END
>  <minimizedAffinity>  (1) 
-4.79846907

>  <minimizedRMSD>  (1) 
1.85661757

$$$$
