
     RDKit          3D

 26 27  0  0  1  0  0  0  0  0999 V2000
   36.6310   30.2880   50.1990 C   0  0  2  0  0  0  0  0  0  0  0  0
   37.4890   31.1970   49.3650 C   0  0  0  0  0  0  0  0  0  0  0  0
   37.6140   32.5300   49.7800 C   0  0  0  0  0  0  0  0  0  0  0  0
   38.4100   33.3580   48.9670 C   0  0  0  0  0  0  0  0  0  0  0  0
   39.0050   32.8370   47.8430 N   0  0  0  0  0  0  0  0  0  0  0  0
   38.8460   31.5340   47.4900 C   0  0  0  0  0  0  0  0  0  0  0  0
   38.0840   30.7010   48.2520 N   0  0  0  0  0  0  0  0  0  0  0  0
   37.2760   30.1420   51.5930 C   0  0  0  0  0  0  0  0  0  0  0  0
   36.4460   28.9520   49.5770 C   0  0  0  0  0  0  0  0  0  0  0  0
   35.2200   28.8810   48.8180 N   0  0  0  0  0  0  0  0  0  0  0  0
   34.7950   29.4120   47.6960 N   0  0  0  0  0  0  0  0  0  0  0  0
   33.5410   29.0350   47.3930 C   0  0  0  0  0  0  0  0  0  0  0  0
   33.0980   28.1990   48.3760 C   0  0  0  0  0  0  0  0  0  0  0  0
   34.1720   28.1260   49.2490 C   0  0  0  0  0  0  0  0  0  0  0  0
   35.6307   30.7384   50.2804 H   0  0  0  0  0  0  0  0  0  0  0  0
   37.1192   32.9065   50.6874 H   0  0  0  0  0  0  0  0  0  0  0  0
   38.5552   34.4163   49.2296 H   0  0  0  0  0  0  0  0  0  0  0  0
   39.3359   31.1498   46.5831 H   0  0  0  0  0  0  0  0  0  0  0  0
   36.5154   30.3142   52.3688 H   0  0  0  0  0  0  0  0  0  0  0  0
   37.6879   29.1279   51.7020 H   0  0  0  0  0  0  0  0  0  0  0  0
   38.0845   30.8799   51.7020 H   0  0  0  0  0  0  0  0  0  0  0  0
   37.2934   28.7514   48.9049 H   0  0  0  0  0  0  0  0  0  0  0  0
   36.3948   28.2036   50.3815 H   0  0  0  0  0  0  0  0  0  0  0  0
   32.9704   29.3467   46.5057 H   0  0  0  0  0  0  0  0  0  0  0  0
   32.1205   27.7011   48.4566 H   0  0  0  0  0  0  0  0  0  0  0  0
   34.1771   27.5320   50.1748 H   0  0  0  0  0  0  0  0  0  0  0  0
  1  8  1  0
  2  3  2  0
  2  1  1  0
  4  3  1  0
  5  4  2  0
  6  5  1  0
  6  7  2  0
  7  2  1  0
  9  1  1  0
 10 14  1  0
 10  9  1  0
 11 10  1  0
 12 11  2  0
 12 13  1  0
 13 14  2  0
  1 15  1  1
  3 16  1  0
  4 17  1  0
  6 18  1  0
  8 19  1  0
  8 20  1  0
  8 21  1  0
  9 22  1  0
  9 23  1  0
 12 24  1  0
 13 25  1  0
 14 26  1  0
M  ISO  8  15   8  16  14  17  14  18  14  19   8  20   8  21   8  22   8
M  ISO  4  23   8  24  14  25  14  26  14
M  END
>  <minimizedAffinity>  (1) 
-4.75914526

>  <minimizedRMSD>  (1) 
0.768130243

$$$$
