
     RDKit          3D

 26 27  0  0  1  0  0  0  0  0999 V2000
   36.5510   30.2840   50.1850 C   0  0  2  0  0  0  0  0  0  0  0  0
   37.4190   31.1490   49.3340 C   0  0  0  0  0  0  0  0  0  0  0  0
   37.6150   32.4770   49.7110 C   0  0  0  0  0  0  0  0  0  0  0  0
   38.4270   33.2580   48.8830 C   0  0  0  0  0  0  0  0  0  0  0  0
   38.9730   32.6940   47.7700 N   0  0  0  0  0  0  0  0  0  0  0  0
   38.7600   31.3920   47.4300 C   0  0  0  0  0  0  0  0  0  0  0  0
   37.9740   30.6350   48.2340 N   0  0  0  0  0  0  0  0  0  0  0  0
   37.2460   30.0610   51.5490 C   0  0  0  0  0  0  0  0  0  0  0  0
   36.2150   28.9800   49.5900 C   0  0  0  0  0  0  0  0  0  0  0  0
   34.9980   28.8700   48.8020 C   0  0  0  0  0  0  0  0  0  0  0  0
   34.4330   29.3420   47.6420 C   0  0  0  0  0  0  0  0  0  0  0  0
   33.2030   28.7980   47.4510 N   0  0  0  0  0  0  0  0  0  0  0  0
   32.9570   27.9680   48.4850 C   0  0  0  0  0  0  0  0  0  0  0  0
   34.0370   28.0220   49.2820 N   0  0  0  0  0  0  0  0  0  0  0  0
   35.5964   30.8192   50.2954 H   0  0  0  0  0  0  0  0  0  0  0  0
   37.1518   32.8914   50.6186 H   0  0  0  0  0  0  0  0  0  0  0  0
   38.6220   34.3127   49.1270 H   0  0  0  0  0  0  0  0  0  0  0  0
   39.2153   30.9651   46.5242 H   0  0  0  0  0  0  0  0  0  0  0  0
   36.5400   30.2875   52.3616 H   0  0  0  0  0  0  0  0  0  0  0  0
   37.5717   29.0133   51.6276 H   0  0  0  0  0  0  0  0  0  0  0  0
   38.1205   30.7237   51.6276 H   0  0  0  0  0  0  0  0  0  0  0  0
   37.0524   28.6962   48.9356 H   0  0  0  0  0  0  0  0  0  0  0  0
   36.0347   28.3270   50.4566 H   0  0  0  0  0  0  0  0  0  0  0  0
   34.9111   30.0617   46.9613 H   0  0  0  0  0  0  0  0  0  0  0  0
   32.0506   27.3655   48.6444 H   0  0  0  0  0  0  0  0  0  0  0  0
   34.1313   27.4855   50.1562 H   0  0  0  0  0  0  0  0  0  0  0  0
  1  8  1  0
  2  3  2  0
  2  1  1  0
  4  3  1  0
  5  4  2  0
  6  5  1  0
  6  7  2  0
  7  2  1  0
  9  1  1  0
 10 14  1  0
 10  9  1  0
 11 10  2  0
 12 11  1  0
 12 13  2  0
 13 14  1  0
  1 15  1  1
  3 16  1  0
  4 17  1  0
  6 18  1  0
  8 19  1  0
  8 20  1  0
  8 21  1  0
  9 22  1  0
  9 23  1  0
 11 24  1  0
 13 25  1  0
 14 26  1  0
M  ISO  8  15   8  16  14  17  14  18  14  19   8  20   8  21   8  22   8
M  ISO  4  23   8  24  14  25  14  26   9
M  END
>  <minimizedAffinity>  (1) 
-4.89394188

>  <minimizedRMSD>  (1) 
0.829355359

$$$$
