
     RDKit          3D

 33 35  0  0  1  0  0  0  0  0999 V2000
   37.4780   31.4520   48.9780 C   0  0  2  0  0  0  0  0  0  0  0  0
   38.4630   32.4580   48.5030 C   0  0  0  0  0  0  0  0  0  0  0  0
   38.8010   33.5180   49.3360 C   0  0  0  0  0  0  0  0  0  0  0  0
   39.7220   34.4480   48.8320 C   0  0  0  0  0  0  0  0  0  0  0  0
   40.2290   34.2690   47.5710 N   0  0  0  0  0  0  0  0  0  0  0  0
   39.8680   33.2080   46.7810 C   0  0  0  0  0  0  0  0  0  0  0  0
   38.9790   32.3090   47.2680 N   0  0  0  0  0  0  0  0  0  0  0  0
   37.9150   30.9660   50.3940 C   0  0  0  0  0  0  0  0  0  0  0  0
   37.3460   30.2960   48.0900 C   0  0  0  0  0  0  0  0  0  0  0  0
   36.2330   30.2340   47.1830 C   0  0  0  0  0  0  0  0  0  0  0  0
   36.0080   30.3740   45.8320 C   0  0  0  0  0  0  0  0  0  0  0  0
   34.7040   30.1970   45.5360 N   0  0  0  0  0  0  0  0  0  0  0  0
   34.0670   29.9410   46.6910 C   0  0  0  0  0  0  0  0  0  0  0  0
   34.9750   29.9630   47.6650 N   0  0  0  0  0  0  0  0  0  0  0  0
   34.5590   29.7120   49.0570 C   0  0  0  0  0  0  0  0  0  0  0  0
   35.0980   28.4830   49.7460 C   0  0  0  0  0  0  0  0  0  0  0  0
   33.6950   28.4540   49.2800 C   0  0  0  0  0  0  0  0  0  0  0  0
   36.4934   31.9419   48.9993 H   0  0  0  0  0  0  0  0  0  0  0  0
   38.3673   33.6224   50.3415 H   0  0  0  0  0  0  0  0  0  0  0  0
   40.0334   35.3097   49.4406 H   0  0  0  0  0  0  0  0  0  0  0  0
   40.2914   33.0892   45.7727 H   0  0  0  0  0  0  0  0  0  0  0  0
   37.3881   31.5519   51.1615 H   0  0  0  0  0  0  0  0  0  0  0  0
   37.6647   29.9011   50.5096 H   0  0  0  0  0  0  0  0  0  0  0  0
   39.0004   31.1022   50.5096 H   0  0  0  0  0  0  0  0  0  0  0  0
   38.2606   30.2525   47.4804 H   0  0  0  0  0  0  0  0  0  0  0  0
   37.1711   29.4555   48.7777 H   0  0  0  0  0  0  0  0  0  0  0  0
   36.7891   30.6005   45.0913 H   0  0  0  0  0  0  0  0  0  0  0  0
   32.9906   29.7482   46.8104 H   0  0  0  0  0  0  0  0  0  0  0  0
   34.5009   30.7814   49.3081 H   0  0  0  0  0  0  0  0  0  0  0  0
   35.8522   27.8624   49.2399 H   0  0  0  0  0  0  0  0  0  0  0  0
   35.5861   28.3014   50.7149 H   0  0  0  0  0  0  0  0  0  0  0  0
   32.8722   28.4737   50.0098 H   0  0  0  0  0  0  0  0  0  0  0  0
   33.1035   27.7908   48.6317 H   0  0  0  0  0  0  0  0  0  0  0  0
  1  8  1  0
  2  1  1  0
  2  3  2  0
  4  3  1  0
  5  4  2  0
  6  7  2  0
  6  5  1  0
  7  2  1  0
  9  1  1  0
 10 14  1  0
 10  9  1  0
 11 10  2  0
 12 11  1  0
 12 13  2  0
 13 14  1  0
 14 15  1  0
 15 17  1  0
 15 16  1  0
 17 16  1  0
  1 18  1  1
  3 19  1  0
  4 20  1  0
  6 21  1  0
  8 22  1  0
  8 23  1  0
  8 24  1  0
  9 25  1  0
  9 26  1  0
 11 27  1  0
 13 28  1  0
 15 29  1  0
 16 30  1  0
 16 31  1  0
 17 32  1  0
 17 33  1  0
M  ISO  8  18   8  19  14  20  14  21  14  22   8  23   8  24   8  25   8
M  ISO  8  26   8  27  14  28  14  29  13  30  13  31  13  32  13  33  13
M  END
>  <minimizedAffinity>  (1) 
-4.91832256

>  <minimizedRMSD>  (1) 
2.33842468

$$$$
