
     RDKit          3D

 43 46  0  0  1  0  0  0  0  0999 V2000
   34.6680   29.3860   47.8680 C   0  0  0  0  0  0  0  0  0  0  0  0
   34.6990   30.1460   46.7320 C   0  0  0  0  0  0  0  0  0  0  0  0
   33.5480   30.0560   46.0200 N   0  0  0  0  0  0  0  0  0  0  0  0
   32.7410   29.2320   46.6830 C   0  0  0  0  0  0  0  0  0  0  0  0
   33.4200   28.8280   47.8020 N   0  0  0  0  0  0  0  0  0  0  0  0
   35.5260   29.0840   48.9610 C   0  0  0  0  0  0  0  0  0  0  0  0
   35.9140   30.1310   49.8950 C   0  0  2  0  0  0  0  0  0  0  0  0
   36.9820   31.0380   49.3470 C   0  0  0  0  0  0  0  0  0  0  0  0
   37.0550   32.3320   49.8420 C   0  0  0  0  0  0  0  0  0  0  0  0
   38.0570   33.1470   49.2760 C   0  0  0  0  0  0  0  0  0  0  0  0
   38.8660   32.6480   48.3160 N   0  0  0  0  0  0  0  0  0  0  0  0
   38.7620   31.3640   47.8540 C   0  0  0  0  0  0  0  0  0  0  0  0
   37.8060   30.5540   48.3810 N   0  0  0  0  0  0  0  0  0  0  0  0
   36.5130   29.4280   51.1730 C   0  0  0  0  0  0  0  0  0  0  0  0
   32.8030   27.8890   48.7540 C   0  0  0  0  0  0  0  0  0  0  0  0
   31.5380   27.3430   48.2890 C   0  0  0  0  0  0  0  0  0  0  0  0
   31.2750   26.5280   47.1760 C   0  0  0  0  0  0  0  0  0  0  0  0
   29.9470   26.2530   47.0940 N   0  0  0  0  0  0  0  0  0  0  0  0
   29.3090   26.8410   48.0950 C   0  0  0  0  0  0  0  0  0  0  0  0
   27.9570   26.7960   48.3610 C   0  0  0  0  0  0  0  0  0  0  0  0
   27.5510   27.5090   49.4980 C   0  0  0  0  0  0  0  0  0  0  0  0
   28.4410   28.1980   50.2810 C   0  0  0  0  0  0  0  0  0  0  0  0
   29.7720   28.1730   49.9200 C   0  0  0  0  0  0  0  0  0  0  0  0
   30.2670   27.5020   48.8210 C   0  0  0  0  0  0  0  0  0  0  0  0
   35.5597   30.7607   46.4297 H   0  0  0  0  0  0  0  0  0  0  0  0
   31.7241   28.9327   46.3892 H   0  0  0  0  0  0  0  0  0  0  0  0
   35.0249   28.3024   49.5510 H   0  0  0  0  0  0  0  0  0  0  0  0
   36.4746   28.8193   48.4710 H   0  0  0  0  0  0  0  0  0  0  0  0
   35.0226   30.7398   50.1065 H   0  0  0  0  0  0  0  0  0  0  0  0
   36.3752   32.6985   50.6253 H   0  0  0  0  0  0  0  0  0  0  0  0
   38.1796   34.1862   49.6152 H   0  0  0  0  0  0  0  0  0  0  0  0
   39.4397   30.9942   47.0705 H   0  0  0  0  0  0  0  0  0  0  0  0
   36.1071   29.9043   52.0776 H   0  0  0  0  0  0  0  0  0  0  0  0
   36.2412   28.3621   51.1665 H   0  0  0  0  0  0  0  0  0  0  0  0
   37.6085   29.5271   51.1665 H   0  0  0  0  0  0  0  0  0  0  0  0
   33.5009   27.0559   48.9240 H   0  0  0  0  0  0  0  0  0  0  0  0
   32.5945   28.4515   49.6760 H   0  0  0  0  0  0  0  0  0  0  0  0
   32.0364   26.1638   46.4705 H   0  0  0  0  0  0  0  0  0  0  0  0
   29.5041   25.6757   46.3650 H   0  0  0  0  0  0  0  0  0  0  0  0
   27.2488   26.2415   47.7278 H   0  0  0  0  0  0  0  0  0  0  0  0
   26.4853   27.5158   49.7703 H   0  0  0  0  0  0  0  0  0  0  0  0
   28.1042   28.7531   51.1689 H   0  0  0  0  0  0  0  0  0  0  0  0
   30.4857   28.7243   50.5498 H   0  0  0  0  0  0  0  0  0  0  0  0
  1  6  1  0
  2  1  2  0
  3  4  2  0
  3  2  1  0
  4  5  1  0
  5  1  1  0
  5 15  1  0
  6  7  1  0
  7 14  1  0
  8  9  2  0
  8  7  1  0
 10  9  1  0
 11 10  2  0
 12 11  1  0
 12 13  2  0
 13  8  1  0
 16 15  1  0
 16 24  1  0
 17 16  2  0
 18 17  1  0
 18 19  1  0
 19 20  2  0
 19 24  1  0
 20 21  1  0
 21 22  2  0
 23 22  1  0
 24 23  2  0
  2 25  1  0
  4 26  1  0
  6 27  1  0
  6 28  1  0
  7 29  1  1
  9 30  1  0
 10 31  1  0
 12 32  1  0
 14 33  1  0
 14 34  1  0
 14 35  1  0
 15 36  1  0
 15 37  1  0
 17 38  1  0
 18 39  1  0
 20 40  1  0
 21 41  1  0
 22 42  1  0
 23 43  1  0
M  ISO  8  25  14  26  14  27   8  28   8  29   8  30  14  31  14  32  14
M  ISO  8  33   8  34   8  35   8  36   8  37   8  38  14  39   9  40  14
M  ISO  3  41  14  42  14  43  14
M  END
>  <minimizedAffinity>  (1) 
-6.30438137

>  <minimizedRMSD>  (1) 
2.71750236

$$$$
