
     RDKit          3D

 39 41  0  0  1  0  0  0  0  0999 V2000
   34.7430   28.9550   48.8180 C   0  0  0  0  0  0  0  0  0  0  0  0
   33.8470   29.2940   47.7710 C   0  0  0  0  0  0  0  0  0  0  0  0
   33.7150   30.2540   46.8030 C   0  0  0  0  0  0  0  0  0  0  0  0
   32.6140   30.0570   46.0320 N   0  0  0  0  0  0  0  0  0  0  0  0
   32.0100   28.9650   46.4890 C   0  0  0  0  0  0  0  0  0  0  0  0
   32.7530   28.4960   47.5440 N   0  0  0  0  0  0  0  0  0  0  0  0
   32.3080   27.2880   48.2480 C   0  0  0  0  0  0  0  0  0  0  0  0
   30.8410   27.2610   48.4640 C   0  0  0  0  0  0  0  0  0  0  0  0
   30.4550   27.8760   49.6620 C   0  0  0  0  0  0  0  0  0  0  0  0
   29.1430   27.9730   50.0720 C   0  0  0  0  0  0  0  0  0  0  0  0
   28.1690   27.4470   49.2780 C   0  0  0  0  0  0  0  0  0  0  0  0
   28.5250   26.8420   48.1020 C   0  0  0  0  0  0  0  0  0  0  0  0
   29.8350   26.7400   47.6820 C   0  0  0  0  0  0  0  0  0  0  0  0
   35.1800   29.9820   49.7520 C   0  0  2  0  0  0  0  0  0  0  0  0
   36.4240   30.6970   49.2670 C   0  0  0  0  0  0  0  0  0  0  0  0
   36.7930   31.8620   49.9290 C   0  0  0  0  0  0  0  0  0  0  0  0
   37.9410   32.5030   49.4260 C   0  0  0  0  0  0  0  0  0  0  0  0
   38.6020   31.9800   48.3690 N   0  0  0  0  0  0  0  0  0  0  0  0
   38.2020   30.8230   47.7420 C   0  0  0  0  0  0  0  0  0  0  0  0
   37.0970   30.1820   48.2070 N   0  0  0  0  0  0  0  0  0  0  0  0
   35.5630   29.2670   51.1010 C   0  0  0  0  0  0  0  0  0  0  0  0
   35.6485   28.5482   48.3441 H   0  0  0  0  0  0  0  0  0  0  0  0
   34.1559   28.2693   49.4465 H   0  0  0  0  0  0  0  0  0  0  0  0
   34.4190   31.0880   46.6658 H   0  0  0  0  0  0  0  0  0  0  0  0
   31.0850   28.5190   46.0946 H   0  0  0  0  0  0  0  0  0  0  0  0
   32.5925   26.4082   47.6522 H   0  0  0  0  0  0  0  0  0  0  0  0
   32.7903   27.2821   49.2366 H   0  0  0  0  0  0  0  0  0  0  0  0
   31.2375   28.3023   50.3070 H   0  0  0  0  0  0  0  0  0  0  0  0
   28.8872   28.4655   51.0217 H   0  0  0  0  0  0  0  0  0  0  0  0
   27.1121   27.5073   49.5770 H   0  0  0  0  0  0  0  0  0  0  0  0
   27.7332   26.4198   47.4658 H   0  0  0  0  0  0  0  0  0  0  0  0
   30.0741   26.2458   46.7288 H   0  0  0  0  0  0  0  0  0  0  0  0
   34.3665   30.7140   49.8637 H   0  0  0  0  0  0  0  0  0  0  0  0
   36.2274   32.2558   50.7863 H   0  0  0  0  0  0  0  0  0  0  0  0
   38.3009   33.4312   49.8939 H   0  0  0  0  0  0  0  0  0  0  0  0
   38.7635   30.4254   46.8837 H   0  0  0  0  0  0  0  0  0  0  0  0
   35.2325   29.8839   51.9496 H   0  0  0  0  0  0  0  0  0  0  0  0
   35.0703   28.2846   51.1480 H   0  0  0  0  0  0  0  0  0  0  0  0
   36.6538   29.1328   51.1480 H   0  0  0  0  0  0  0  0  0  0  0  0
  1 14  1  0
  2  1  1  0
  3  2  2  0
  4  5  2  0
  4  3  1  0
  5  6  1  0
  6  2  1  0
  6  7  1  0
  7  8  1  0
  8  9  2  0
  9 10  1  0
 11 10  2  0
 12 11  1  0
 13 12  2  0
 13  8  1  0
 14 21  1  0
 15 14  1  0
 15 16  2  0
 17 16  1  0
 18 17  2  0
 19 20  2  0
 19 18  1  0
 20 15  1  0
  1 22  1  0
  1 23  1  0
  3 24  1  0
  5 25  1  0
  7 26  1  0
  7 27  1  0
  9 28  1  0
 10 29  1  0
 11 30  1  0
 12 31  1  0
 13 32  1  0
 14 33  1  1
 16 34  1  0
 17 35  1  0
 19 36  1  0
 21 37  1  0
 21 38  1  0
 21 39  1  0
M  ISO  8  22   8  23   8  24  14  25  14  26   8  27   8  28  14  29  14
M  ISO  8  30  14  31  14  32  14  33   8  34  14  35  14  36  14  37   8
M  ISO  2  38   8  39   8
M  END
>  <minimizedAffinity>  (1) 
-5.58957815

>  <minimizedRMSD>  (1) 
2.39584827

$$$$
