
     RDKit          3D

 43 45  0  0  1  0  0  0  0  0999 V2000
   35.7880   29.2390   48.8290 C   0  0  0  0  0  0  0  0  0  0  0  0
   34.9290   29.4960   47.7270 C   0  0  0  0  0  0  0  0  0  0  0  0
   34.9810   30.1240   46.5170 C   0  0  0  0  0  0  0  0  0  0  0  0
   33.8010   30.0470   45.8400 N   0  0  0  0  0  0  0  0  0  0  0  0
   32.9580   29.3610   46.6080 C   0  0  0  0  0  0  0  0  0  0  0  0
   33.6460   29.0350   47.7410 N   0  0  0  0  0  0  0  0  0  0  0  0
   32.9690   28.2530   48.8010 C   0  0  0  0  0  0  0  0  0  0  0  0
   32.8040   26.8810   48.4470 N   0  0  0  0  0  0  0  0  0  0  0  0
   31.4240   26.6770   48.0550 C   0  0  0  0  0  0  0  0  0  0  0  0
   31.3240   25.5500   47.0230 C   0  0  0  0  0  0  0  0  0  0  0  0
   32.2290   24.5250   47.4970 N   0  0  0  0  0  0  0  0  0  0  0  0
   33.5790   24.9760   47.1750 C   0  0  0  0  0  0  0  0  0  0  0  0
   33.7470   26.4430   47.4440 C   0  0  0  0  0  0  0  0  0  0  0  0
   36.1070   30.3040   49.7680 C   0  0  2  0  0  0  0  0  0  0  0  0
   37.1590   31.2500   49.2330 C   0  0  0  0  0  0  0  0  0  0  0  0
   37.2060   32.5280   49.7950 C   0  0  0  0  0  0  0  0  0  0  0  0
   38.1870   33.3840   49.2500 C   0  0  0  0  0  0  0  0  0  0  0  0
   38.9880   32.9510   48.2620 N   0  0  0  0  0  0  0  0  0  0  0  0
   38.9060   31.6750   47.7350 C   0  0  0  0  0  0  0  0  0  0  0  0
   37.9720   30.8190   48.2350 N   0  0  0  0  0  0  0  0  0  0  0  0
   36.7160   29.6230   51.0550 C   0  0  0  0  0  0  0  0  0  0  0  0
   36.7431   28.8873   48.4116 H   0  0  0  0  0  0  0  0  0  0  0  0
   35.2102   28.5292   49.4392 H   0  0  0  0  0  0  0  0  0  0  0  0
   35.8753   30.6352   46.1311 H   0  0  0  0  0  0  0  0  0  0  0  0
   31.9133   29.1069   46.3757 H   0  0  0  0  0  0  0  0  0  0  0  0
   33.5705   28.3102   49.7202 H   0  0  0  0  0  0  0  0  0  0  0  0
   31.9672   28.6836   48.9456 H   0  0  0  0  0  0  0  0  0  0  0  0
   30.8308   26.4101   48.9420 H   0  0  0  0  0  0  0  0  0  0  0  0
   31.0386   27.6054   47.6084 H   0  0  0  0  0  0  0  0  0  0  0  0
   31.6316   25.9076   46.0293 H   0  0  0  0  0  0  0  0  0  0  0  0
   30.2948   25.1758   46.9190 H   0  0  0  0  0  0  0  0  0  0  0  0
   32.1280   24.4055   48.5150 H   0  0  0  0  0  0  0  0  0  0  0  0
   33.7760   24.7829   46.1102 H   0  0  0  0  0  0  0  0  0  0  0  0
   34.2880   24.4249   47.8103 H   0  0  0  0  0  0  0  0  0  0  0  0
   34.7702   26.6314   47.8013 H   0  0  0  0  0  0  0  0  0  0  0  0
   33.5637   27.0003   46.5135 H   0  0  0  0  0  0  0  0  0  0  0  0
   35.1886   30.8770   49.9635 H   0  0  0  0  0  0  0  0  0  0  0  0
   36.5288   32.8438   50.6023 H   0  0  0  0  0  0  0  0  0  0  0  0
   38.2961   34.4085   49.6352 H   0  0  0  0  0  0  0  0  0  0  0  0
   39.5821   31.3575   46.9275 H   0  0  0  0  0  0  0  0  0  0  0  0
   36.2937   30.0952   51.9543 H   0  0  0  0  0  0  0  0  0  0  0  0
   36.4699   28.5509   51.0538 H   0  0  0  0  0  0  0  0  0  0  0  0
   37.8088   29.7483   51.0538 H   0  0  0  0  0  0  0  0  0  0  0  0
  1 14  1  0
  2  6  1  0
  2  1  1  0
  3  2  2  0
  4  3  1  0
  4  5  2  0
  5  6  1  0
  6  7  1  0
  8  7  1  0
  9  8  1  0
 10 11  1  0
 10  9  1  0
 12 13  1  0
 12 11  1  0
 13  8  1  0
 14 21  1  0
 15 14  1  0
 15 16  2  0
 17 16  1  0
 18 17  2  0
 19 20  2  0
 19 18  1  0
 20 15  1  0
  1 22  1  0
  1 23  1  0
  3 24  1  0
  5 25  1  0
  7 26  1  0
  7 27  1  0
  9 28  1  0
  9 29  1  0
 10 30  1  0
 10 31  1  0
 11 32  1  0
 12 33  1  0
 12 34  1  0
 13 35  1  0
 13 36  1  0
 14 37  1  1
 16 38  1  0
 17 39  1  0
 19 40  1  0
 21 41  1  0
 21 42  1  0
 21 43  1  0
M  ISO  8  22   8  23   8  24  14  25  14  26   8  27   8  28  13  29  13
M  ISO  8  30  13  31  13  32   5  33  13  34  13  35  13  36  13  37   8
M  ISO  6  38  14  39  14  40  14  41   8  42   8  43   8
M  END
>  <minimizedAffinity>  (1) 
-4.9902153

>  <minimizedRMSD>  (1) 
0.60117054

$$$$
