
     RDKit          3D

 36 38  0  0  1  0  0  0  0  0999 V2000
   35.7620   29.2410   48.8300 C   0  0  0  0  0  0  0  0  0  0  0  0
   34.8580   29.5130   47.7690 C   0  0  0  0  0  0  0  0  0  0  0  0
   34.8330   30.2080   46.5910 C   0  0  0  0  0  0  0  0  0  0  0  0
   33.6450   30.1020   45.9540 N   0  0  0  0  0  0  0  0  0  0  0  0
   32.8600   29.3270   46.7080 C   0  0  0  0  0  0  0  0  0  0  0  0
   33.6140   28.9830   47.8010 N   0  0  0  0  0  0  0  0  0  0  0  0
   33.0070   28.0930   48.8220 C   0  0  0  0  0  0  0  0  0  0  0  0
   32.6810   26.8190   48.1300 C   0  0  0  0  0  0  0  0  0  0  0  0
   33.6700   26.0240   47.5480 C   0  0  0  0  0  0  0  0  0  0  0  0
   33.0020   24.9270   47.0000 C   0  0  0  0  0  0  0  0  0  0  0  0
   31.6880   25.0690   47.2470 N   0  0  0  0  0  0  0  0  0  0  0  0
   31.5190   26.1800   47.9070 N   0  0  0  0  0  0  0  0  0  0  0  0
   36.1200   30.2900   49.7710 C   0  0  2  0  0  0  0  0  0  0  0  0
   37.1660   31.2330   49.2190 C   0  0  0  0  0  0  0  0  0  0  0  0
   37.2290   32.5040   49.7800 C   0  0  0  0  0  0  0  0  0  0  0  0
   38.1970   33.3620   49.2260 C   0  0  0  0  0  0  0  0  0  0  0  0
   38.9870   32.9170   48.2090 N   0  0  0  0  0  0  0  0  0  0  0  0
   38.8880   31.6500   47.6880 C   0  0  0  0  0  0  0  0  0  0  0  0
   37.9590   30.8010   48.2070 N   0  0  0  0  0  0  0  0  0  0  0  0
   36.7590   29.5870   51.0330 C   0  0  0  0  0  0  0  0  0  0  0  0
   36.6989   28.8968   48.3677 H   0  0  0  0  0  0  0  0  0  0  0  0
   35.2094   28.5223   49.4530 H   0  0  0  0  0  0  0  0  0  0  0  0
   35.6842   30.7882   46.2051 H   0  0  0  0  0  0  0  0  0  0  0  0
   31.8232   29.0268   46.4960 H   0  0  0  0  0  0  0  0  0  0  0  0
   33.7203   27.9100   49.6392 H   0  0  0  0  0  0  0  0  0  0  0  0
   32.1077   28.5480   49.2627 H   0  0  0  0  0  0  0  0  0  0  0  0
   34.7520   26.2210   47.5257 H   0  0  0  0  0  0  0  0  0  0  0  0
   33.4700   24.0910   46.4595 H   0  0  0  0  0  0  0  0  0  0  0  0
   30.9449   24.4142   46.9641 H   0  0  0  0  0  0  0  0  0  0  0  0
   35.2132   30.8695   49.9985 H   0  0  0  0  0  0  0  0  0  0  0  0
   36.5672   32.8173   50.6009 H   0  0  0  0  0  0  0  0  0  0  0  0
   38.3151   34.3854   49.6115 H   0  0  0  0  0  0  0  0  0  0  0  0
   39.5463   31.3277   46.8677 H   0  0  0  0  0  0  0  0  0  0  0  0
   36.3500   30.0369   51.9497 H   0  0  0  0  0  0  0  0  0  0  0  0
   36.5214   28.5131   51.0141 H   0  0  0  0  0  0  0  0  0  0  0  0
   37.8506   29.7214   51.0141 H   0  0  0  0  0  0  0  0  0  0  0  0
  1 13  1  0
  2  6  1  0
  2  1  1  0
  3  2  2  0
  4  3  1  0
  4  5  2  0
  5  6  1  0
  6  7  1  0
  8  7  1  0
  9  8  1  0
 10 11  1  0
 10  9  2  0
 11 12  1  0
 12  8  2  0
 13 20  1  0
 14 13  1  0
 14 15  2  0
 16 15  1  0
 17 16  2  0
 18 19  2  0
 18 17  1  0
 19 14  1  0
  1 21  1  0
  1 22  1  0
  3 23  1  0
  5 24  1  0
  7 25  1  0
  7 26  1  0
  9 27  1  0
 10 28  1  0
 11 29  1  0
 13 30  1  1
 15 31  1  0
 16 32  1  0
 18 33  1  0
 20 34  1  0
 20 35  1  0
 20 36  1  0
M  ISO  8  21   8  22   8  23  14  24  14  25   8  26   8  27  14  28  14
M  ISO  8  29   9  30   8  31  14  32  14  33  14  34   8  35   8  36   8
M  END
>  <minimizedAffinity>  (1) 
-4.98863125

>  <minimizedRMSD>  (1) 
0.81932795

$$$$
