
     RDKit          3D

 36 38  0  0  1  0  0  0  0  0999 V2000
   35.7260   29.2560   48.8180 C   0  0  0  0  0  0  0  0  0  0  0  0
   34.8150   29.5300   47.7650 C   0  0  0  0  0  0  0  0  0  0  0  0
   34.7790   30.2710   46.6190 C   0  0  0  0  0  0  0  0  0  0  0  0
   33.5970   30.1500   45.9580 N   0  0  0  0  0  0  0  0  0  0  0  0
   32.8280   29.3120   46.6770 C   0  0  0  0  0  0  0  0  0  0  0  0
   33.5760   28.9460   47.7630 N   0  0  0  0  0  0  0  0  0  0  0  0
   32.9960   28.0140   48.7430 C   0  0  0  0  0  0  0  0  0  0  0  0
   32.7190   26.7200   48.1550 N   0  0  0  0  0  0  0  0  0  0  0  0
   33.7640   26.0520   47.6570 N   0  0  0  0  0  0  0  0  0  0  0  0
   33.3850   24.8800   47.1410 C   0  0  0  0  0  0  0  0  0  0  0  0
   32.0270   24.7600   47.3020 C   0  0  0  0  0  0  0  0  0  0  0  0
   31.6590   25.9270   47.9350 C   0  0  0  0  0  0  0  0  0  0  0  0
   36.0770   30.3000   49.7670 C   0  0  2  0  0  0  0  0  0  0  0  0
   37.1350   31.2310   49.2190 C   0  0  0  0  0  0  0  0  0  0  0  0
   37.2110   32.5060   49.7830 C   0  0  0  0  0  0  0  0  0  0  0  0
   38.1990   33.3520   49.2230 C   0  0  0  0  0  0  0  0  0  0  0  0
   38.9850   32.8890   48.2100 N   0  0  0  0  0  0  0  0  0  0  0  0
   38.8680   31.6330   47.6970 C   0  0  0  0  0  0  0  0  0  0  0  0
   37.9290   30.7910   48.2090 N   0  0  0  0  0  0  0  0  0  0  0  0
   36.7000   29.5960   51.0350 C   0  0  0  0  0  0  0  0  0  0  0  0
   36.6642   28.9258   48.3481 H   0  0  0  0  0  0  0  0  0  0  0  0
   35.1846   28.5247   49.4362 H   0  0  0  0  0  0  0  0  0  0  0  0
   35.6135   30.8965   46.2692 H   0  0  0  0  0  0  0  0  0  0  0  0
   31.8044   28.9867   46.4397 H   0  0  0  0  0  0  0  0  0  0  0  0
   33.7054   27.8834   49.5734 H   0  0  0  0  0  0  0  0  0  0  0  0
   32.0457   28.4389   49.0984 H   0  0  0  0  0  0  0  0  0  0  0  0
   34.0466   24.1389   46.6686 H   0  0  0  0  0  0  0  0  0  0  0  0
   31.3810   23.9240   46.9959 H   0  0  0  0  0  0  0  0  0  0  0  0
   30.6274   26.1770   48.2234 H   0  0  0  0  0  0  0  0  0  0  0  0
   35.1713   30.8823   49.9919 H   0  0  0  0  0  0  0  0  0  0  0  0
   36.5519   32.8296   50.6021 H   0  0  0  0  0  0  0  0  0  0  0  0
   38.3313   34.3758   49.6029 H   0  0  0  0  0  0  0  0  0  0  0  0
   39.5246   31.3028   46.8785 H   0  0  0  0  0  0  0  0  0  0  0  0
   36.2926   30.0564   51.9472 H   0  0  0  0  0  0  0  0  0  0  0  0
   36.4482   28.5253   51.0207 H   0  0  0  0  0  0  0  0  0  0  0  0
   37.7934   29.7157   51.0207 H   0  0  0  0  0  0  0  0  0  0  0  0
  1 13  1  0
  2  1  1  0
  3  2  2  0
  4  3  1  0
  4  5  2  0
  5  6  1  0
  6  2  1  0
  6  7  1  0
  8  7  1  0
  9  8  1  0
 10 11  1  0
 10  9  2  0
 11 12  2  0
 12  8  1  0
 13 20  1  0
 14 13  1  0
 14 15  2  0
 16 15  1  0
 17 16  2  0
 18 19  2  0
 18 17  1  0
 19 14  1  0
  1 21  1  0
  1 22  1  0
  3 23  1  0
  5 24  1  0
  7 25  1  0
  7 26  1  0
 10 27  1  0
 11 28  1  0
 12 29  1  0
 13 30  1  1
 15 31  1  0
 16 32  1  0
 18 33  1  0
 20 34  1  0
 20 35  1  0
 20 36  1  0
M  ISO  8  21   8  22   8  23  14  24  14  25   8  26   8  27  14  28  14
M  ISO  8  29  14  30   8  31  14  32  14  33  14  34   8  35   8  36   8
M  END
>  <minimizedAffinity>  (1) 
-4.93787098

>  <minimizedRMSD>  (1) 
0.796529353

$$$$
