
     RDKit          3D

 41 43  0  0  1  0  0  0  0  0999 V2000
   35.8160   29.2390   48.8530 C   0  0  0  0  0  0  0  0  0  0  0  0
   34.9510   29.4940   47.7560 C   0  0  0  0  0  0  0  0  0  0  0  0
   34.9960   30.1190   46.5350 C   0  0  0  0  0  0  0  0  0  0  0  0
   33.8110   30.0400   45.8740 N   0  0  0  0  0  0  0  0  0  0  0  0
   32.9740   29.3580   46.6600 C   0  0  0  0  0  0  0  0  0  0  0  0
   33.6640   29.0360   47.7820 N   0  0  0  0  0  0  0  0  0  0  0  0
   32.9910   28.2610   48.8440 C   0  0  0  0  0  0  0  0  0  0  0  0
   32.8840   26.9030   48.4160 N   0  0  0  0  0  0  0  0  0  0  0  0
   33.8260   26.4700   47.4400 C   0  0  0  0  0  0  0  0  0  0  0  0
   33.1540   25.3190   46.6770 C   0  0  0  0  0  0  0  0  0  0  0  0
   31.8540   25.1380   47.4060 C   0  0  0  0  0  0  0  0  0  0  0  0
   31.5890   26.5350   47.9390 C   0  0  0  0  0  0  0  0  0  0  0  0
   36.1400   30.3070   49.7840 C   0  0  2  0  0  0  0  0  0  0  0  0
   37.1810   31.2610   49.2430 C   0  0  0  0  0  0  0  0  0  0  0  0
   37.2260   32.5400   49.7980 C   0  0  0  0  0  0  0  0  0  0  0  0
   38.1980   33.3960   49.2380 C   0  0  0  0  0  0  0  0  0  0  0  0
   38.9970   32.9540   48.2420 N   0  0  0  0  0  0  0  0  0  0  0  0
   38.9160   31.6820   47.7280 C   0  0  0  0  0  0  0  0  0  0  0  0
   37.9900   30.8280   48.2420 N   0  0  0  0  0  0  0  0  0  0  0  0
   36.7530   29.6440   51.0750 C   0  0  0  0  0  0  0  0  0  0  0  0
   36.7683   28.8849   48.4314 H   0  0  0  0  0  0  0  0  0  0  0  0
   35.2426   28.5306   49.4690 H   0  0  0  0  0  0  0  0  0  0  0  0
   35.8879   30.6253   46.1373 H   0  0  0  0  0  0  0  0  0  0  0  0
   31.9262   29.1059   46.4396 H   0  0  0  0  0  0  0  0  0  0  0  0
   33.5808   28.3124   49.7711 H   0  0  0  0  0  0  0  0  0  0  0  0
   31.9903   28.6754   49.0361 H   0  0  0  0  0  0  0  0  0  0  0  0
   34.0681   27.2935   46.7521 H   0  0  0  0  0  0  0  0  0  0  0  0
   34.7672   26.1453   47.9077 H   0  0  0  0  0  0  0  0  0  0  0  0
   33.7638   24.4048   46.7249 H   0  0  0  0  0  0  0  0  0  0  0  0
   33.0223   25.5302   45.6055 H   0  0  0  0  0  0  0  0  0  0  0  0
   31.0553   24.8134   46.7228 H   0  0  0  0  0  0  0  0  0  0  0  0
   31.8900   24.3659   48.1886 H   0  0  0  0  0  0  0  0  0  0  0  0
   31.2461   27.2116   47.1424 H   0  0  0  0  0  0  0  0  0  0  0  0
   30.7976   26.5836   48.7014 H   0  0  0  0  0  0  0  0  0  0  0  0
   35.2172   30.8736   49.9772 H   0  0  0  0  0  0  0  0  0  0  0  0
   36.5551   32.8570   50.6100 H   0  0  0  0  0  0  0  0  0  0  0  0
   38.3054   34.4246   49.6128 H   0  0  0  0  0  0  0  0  0  0  0  0
   39.5864   31.3608   46.9172 H   0  0  0  0  0  0  0  0  0  0  0  0
   36.3187   30.1137   51.9699 H   0  0  0  0  0  0  0  0  0  0  0  0
   36.5247   28.5680   51.0783 H   0  0  0  0  0  0  0  0  0  0  0  0
   37.8436   29.7874   51.0783 H   0  0  0  0  0  0  0  0  0  0  0  0
  1 13  1  0
  2  6  1  0
  2  1  1  0
  3  2  2  0
  4  3  1  0
  4  5  2  0
  5  6  1  0
  6  7  1  0
  8  7  1  0
  9  8  1  0
 10 11  1  0
 10  9  1  0
 11 12  1  0
 12  8  1  0
 13 20  1  0
 14 13  1  0
 14 15  2  0
 16 15  1  0
 17 16  2  0
 18 19  2  0
 18 17  1  0
 19 14  1  0
  1 21  1  0
  1 22  1  0
  3 23  1  0
  5 24  1  0
  7 25  1  0
  7 26  1  0
  9 27  1  0
  9 28  1  0
 10 29  1  0
 10 30  1  0
 11 31  1  0
 11 32  1  0
 12 33  1  0
 12 34  1  0
 13 35  1  1
 15 36  1  0
 16 37  1  0
 18 38  1  0
 20 39  1  0
 20 40  1  0
 20 41  1  0
M  ISO  8  21   8  22   8  23  14  24  14  25   8  26   8  27  13  28  13
M  ISO  8  29  13  30  13  31  13  32  13  33  13  34  13  35   8  36  14
M  ISO  5  37  14  38  14  39   8  40   8  41   8
M  END
>  <minimizedAffinity>  (1) 
-4.92471933

>  <minimizedRMSD>  (1) 
0.508248389

$$$$
