
     RDKit          3D

 36 38  0  0  1  0  0  0  0  0999 V2000
   35.6560   29.1600   48.8630 C   0  0  0  0  0  0  0  0  0  0  0  0
   34.7850   29.4590   47.7830 C   0  0  0  0  0  0  0  0  0  0  0  0
   34.7940   30.1910   46.6350 C   0  0  0  0  0  0  0  0  0  0  0  0
   33.6250   30.1010   45.9460 N   0  0  0  0  0  0  0  0  0  0  0  0
   32.8160   29.2900   46.6530 C   0  0  0  0  0  0  0  0  0  0  0  0
   33.5420   28.9180   47.7570 N   0  0  0  0  0  0  0  0  0  0  0  0
   32.9030   27.9950   48.7210 C   0  0  0  0  0  0  0  0  0  0  0  0
   32.8730   26.6690   48.0530 C   0  0  0  0  0  0  0  0  0  0  0  0
   31.6410   26.0090   47.9540 C   0  0  0  0  0  0  0  0  0  0  0  0
   31.7940   24.8100   47.3200 N   0  0  0  0  0  0  0  0  0  0  0  0
   33.1220   24.7360   47.0280 C   0  0  0  0  0  0  0  0  0  0  0  0
   33.7480   25.8380   47.4660 N   0  0  0  0  0  0  0  0  0  0  0  0
   36.0160   30.1960   49.8160 C   0  0  2  0  0  0  0  0  0  0  0  0
   37.0640   31.1490   49.2920 C   0  0  0  0  0  0  0  0  0  0  0  0
   37.1040   32.4250   49.8340 C   0  0  0  0  0  0  0  0  0  0  0  0
   38.0880   33.2780   49.2840 C   0  0  0  0  0  0  0  0  0  0  0  0
   38.9040   32.8250   48.3020 N   0  0  0  0  0  0  0  0  0  0  0  0
   38.8300   31.5530   47.7940 C   0  0  0  0  0  0  0  0  0  0  0  0
   37.8920   30.7160   48.3070 N   0  0  0  0  0  0  0  0  0  0  0  0
   36.6320   29.4840   51.0810 C   0  0  0  0  0  0  0  0  0  0  0  0
   36.5950   28.7949   48.4215 H   0  0  0  0  0  0  0  0  0  0  0  0
   35.0722   28.4517   49.4691 H   0  0  0  0  0  0  0  0  0  0  0  0
   35.6538   30.7903   46.3010 H   0  0  0  0  0  0  0  0  0  0  0  0
   31.7889   28.9887   46.3993 H   0  0  0  0  0  0  0  0  0  0  0  0
   33.4912   27.9431   49.6491 H   0  0  0  0  0  0  0  0  0  0  0  0
   31.8928   28.3326   48.9959 H   0  0  0  0  0  0  0  0  0  0  0  0
   30.6860   26.4015   48.3334 H   0  0  0  0  0  0  0  0  0  0  0  0
   33.6090   23.8968   46.5097 H   0  0  0  0  0  0  0  0  0  0  0  0
   34.7567   26.0206   47.3661 H   0  0  0  0  0  0  0  0  0  0  0  0
   35.1069   30.7757   50.0340 H   0  0  0  0  0  0  0  0  0  0  0  0
   36.4207   32.7493   50.6327 H   0  0  0  0  0  0  0  0  0  0  0  0
   38.1911   34.3091   49.6532 H   0  0  0  0  0  0  0  0  0  0  0  0
   39.5098   31.2212   46.9954 H   0  0  0  0  0  0  0  0  0  0  0  0
   36.2309   29.9476   51.9943 H   0  0  0  0  0  0  0  0  0  0  0  0
   36.3682   28.4162   51.0655 H   0  0  0  0  0  0  0  0  0  0  0  0
   37.7266   29.5915   51.0655 H   0  0  0  0  0  0  0  0  0  0  0  0
  1 13  1  0
  2  1  1  0
  3  2  2  0
  4  3  1  0
  4  5  2  0
  5  6  1  0
  6  2  1  0
  6  7  1  0
  8  7  1  0
  9  8  2  0
 10  9  1  0
 11 10  2  0
 11 12  1  0
 12  8  1  0
 13 20  1  0
 14 13  1  0
 14 15  2  0
 16 15  1  0
 17 16  2  0
 18 17  1  0
 18 19  2  0
 19 14  1  0
  1 21  1  0
  1 22  1  0
  3 23  1  0
  5 24  1  0
  7 25  1  0
  7 26  1  0
  9 27  1  0
 11 28  1  0
 12 29  1  0
 13 30  1  1
 15 31  1  0
 16 32  1  0
 18 33  1  0
 20 34  1  0
 20 35  1  0
 20 36  1  0
M  ISO  8  21   8  22   8  23  14  24  14  25   8  26   8  27  14  28  14
M  ISO  8  29   9  30   8  31  14  32  14  33  14  34   8  35   8  36   8
M  END
>  <minimizedAffinity>  (1) 
-4.88100481

>  <minimizedRMSD>  (1) 
0.578719139

$$$$
