
     RDKit          3D

 36 38  0  0  1  0  0  0  0  0999 V2000
   35.6940   29.2200   48.8420 C   0  0  0  0  0  0  0  0  0  0  0  0
   34.7950   29.5520   47.7970 C   0  0  0  0  0  0  0  0  0  0  0  0
   34.7480   30.3670   46.7030 C   0  0  0  0  0  0  0  0  0  0  0  0
   33.5780   30.2620   46.0210 N   0  0  0  0  0  0  0  0  0  0  0  0
   32.8330   29.3580   46.6780 C   0  0  0  0  0  0  0  0  0  0  0  0
   33.5730   28.9370   47.7430 N   0  0  0  0  0  0  0  0  0  0  0  0
   33.0050   27.9320   48.6360 C   0  0  0  0  0  0  0  0  0  0  0  0
   32.9500   26.6750   47.9850 C   0  0  0  0  0  0  0  0  0  0  0  0
   33.8110   25.7130   47.4220 C   0  0  0  0  0  0  0  0  0  0  0  0
   33.2680   24.5870   46.8730 C   0  0  0  0  0  0  0  0  0  0  0  0
   31.8470   24.4160   46.8840 C   0  0  0  0  0  0  0  0  0  0  0  0
   31.2720   26.0000   47.7510 S   0  0  0  0  0  0  0  0  0  0  0  0
   36.0840   30.2280   49.8150 C   0  0  2  0  0  0  0  0  0  0  0  0
   37.1160   31.1890   49.2770 C   0  0  0  0  0  0  0  0  0  0  0  0
   37.1580   32.4650   49.8170 C   0  0  0  0  0  0  0  0  0  0  0  0
   38.1270   33.3270   49.2570 C   0  0  0  0  0  0  0  0  0  0  0  0
   38.9250   32.8900   48.2690 N   0  0  0  0  0  0  0  0  0  0  0  0
   38.8570   31.6200   47.7580 C   0  0  0  0  0  0  0  0  0  0  0  0
   37.9350   30.7680   48.2770 N   0  0  0  0  0  0  0  0  0  0  0  0
   36.7450   29.4800   51.0340 C   0  0  0  0  0  0  0  0  0  0  0  0
   36.6192   28.8657   48.3640 H   0  0  0  0  0  0  0  0  0  0  0  0
   35.1252   28.4956   49.4434 H   0  0  0  0  0  0  0  0  0  0  0  0
   35.5688   31.0364   46.4059 H   0  0  0  0  0  0  0  0  0  0  0  0
   31.8208   29.0220   46.4087 H   0  0  0  0  0  0  0  0  0  0  0  0
   33.6329   27.8484   49.5353 H   0  0  0  0  0  0  0  0  0  0  0  0
   31.9858   28.2359   48.9169 H   0  0  0  0  0  0  0  0  0  0  0  0
   34.9003   25.8660   47.4246 H   0  0  0  0  0  0  0  0  0  0  0  0
   33.9163   23.8187   46.4266 H   0  0  0  0  0  0  0  0  0  0  0  0
   31.2456   23.5827   46.4916 H   0  0  0  0  0  0  0  0  0  0  0  0
   35.1845   30.8001   50.0862 H   0  0  0  0  0  0  0  0  0  0  0  0
   36.4837   32.7841   50.6254 H   0  0  0  0  0  0  0  0  0  0  0  0
   38.2280   34.3568   49.6303 H   0  0  0  0  0  0  0  0  0  0  0  0
   39.5307   31.2994   46.9497 H   0  0  0  0  0  0  0  0  0  0  0  0
   36.3675   29.9072   51.9747 H   0  0  0  0  0  0  0  0  0  0  0  0
   36.4915   28.4106   50.9892 H   0  0  0  0  0  0  0  0  0  0  0  0
   37.8375   29.6000   50.9892 H   0  0  0  0  0  0  0  0  0  0  0  0
  1 13  1  0
  2  1  1  0
  3  2  2  0
  4  5  2  0
  4  3  1  0
  5  6  1  0
  6  2  1  0
  6  7  1  0
  8  7  1  0
  9  8  2  0
 10 11  2  0
 10  9  1  0
 11 12  1  0
 12  8  1  0
 13 20  1  0
 14 13  1  0
 14 15  2  0
 16 15  1  0
 17 16  2  0
 18 17  1  0
 18 19  2  0
 19 14  1  0
  1 21  1  0
  1 22  1  0
  3 23  1  0
  5 24  1  0
  7 25  1  0
  7 26  1  0
  9 27  1  0
 10 28  1  0
 11 29  1  0
 13 30  1  1
 15 31  1  0
 16 32  1  0
 18 33  1  0
 20 34  1  0
 20 35  1  0
 20 36  1  0
M  ISO  8  21   8  22   8  23  14  24  14  25   8  26   8  27  14  28  14
M  ISO  8  29  14  30   8  31  14  32  14  33  14  34   8  35   8  36   8
M  END
>  <minimizedAffinity>  (1) 
-4.87545776

>  <minimizedRMSD>  (1) 
0.751280904

$$$$
