
     RDKit          3D

 30 31  0  0  1  0  0  0  0  0999 V2000
   35.5470   30.0960   49.7130 C   0  0  2  0  0  0  0  0  0  0  0  0
   36.7000   30.9170   49.2050 C   0  0  0  0  0  0  0  0  0  0  0  0
   36.9830   32.1120   49.8500 C   0  0  0  0  0  0  0  0  0  0  0  0
   38.0520   32.8610   49.3260 C   0  0  0  0  0  0  0  0  0  0  0  0
   38.7300   32.3840   48.2440 N   0  0  0  0  0  0  0  0  0  0  0  0
   38.4250   31.1980   47.6300 C   0  0  0  0  0  0  0  0  0  0  0  0
   37.3940   30.4670   48.1290 N   0  0  0  0  0  0  0  0  0  0  0  0
   36.0430   29.3600   51.0160 C   0  0  0  0  0  0  0  0  0  0  0  0
   35.1230   29.0760   48.7680 C   0  0  0  0  0  0  0  0  0  0  0  0
   34.1390   29.3820   47.7930 C   0  0  0  0  0  0  0  0  0  0  0  0
   33.9000   30.3500   46.8590 C   0  0  0  0  0  0  0  0  0  0  0  0
   32.7580   30.1180   46.1660 N   0  0  0  0  0  0  0  0  0  0  0  0
   32.2330   28.9940   46.6380 C   0  0  0  0  0  0  0  0  0  0  0  0
   33.0630   28.5380   47.6260 N   0  0  0  0  0  0  0  0  0  0  0  0
   32.7470   27.2990   48.3410 C   0  0  0  0  0  0  0  0  0  0  0  0
   30.9720   27.0870   48.5390 S   0  0  0  0  0  0  0  0  0  0  0  0
   34.6941   30.7684   49.8873 H   0  0  0  0  0  0  0  0  0  0  0  0
   36.4048   32.4541   50.7210 H   0  0  0  0  0  0  0  0  0  0  0  0
   38.3373   33.8197   49.7837 H   0  0  0  0  0  0  0  0  0  0  0  0
   38.9978   30.8478   46.7587 H   0  0  0  0  0  0  0  0  0  0  0  0
   35.6793   29.8996   51.9029 H   0  0  0  0  0  0  0  0  0  0  0  0
   35.6531   28.3315   51.0271 H   0  0  0  0  0  0  0  0  0  0  0  0
   37.1427   29.3354   51.0271 H   0  0  0  0  0  0  0  0  0  0  0  0
   36.0223   28.7540   48.2224 H   0  0  0  0  0  0  0  0  0  0  0  0
   34.6264   28.3295   49.4052 H   0  0  0  0  0  0  0  0  0  0  0  0
   34.5569   31.2158   46.6892 H   0  0  0  0  0  0  0  0  0  0  0  0
   31.3021   28.5168   46.2977 H   0  0  0  0  0  0  0  0  0  0  0  0
   33.1477   26.4464   47.7731 H   0  0  0  0  0  0  0  0  0  0  0  0
   33.2021   27.3518   49.3411 H   0  0  0  0  0  0  0  0  0  0  0  0
   30.6625   27.0500   49.8731 H   0  0  0  0  0  0  0  0  0  0  0  0
  1  8  1  0
  2  1  1  0
  2  3  2  0
  4  3  1  0
  5  4  2  0
  6  7  2  0
  6  5  1  0
  7  2  1  0
  9  1  1  0
 10  9  1  0
 11 10  2  0
 12 13  2  0
 12 11  1  0
 13 14  1  0
 14 10  1  0
 14 15  1  0
 15 16  1  0
  1 17  1  1
  3 18  1  0
  4 19  1  0
  6 20  1  0
  8 21  1  0
  8 22  1  0
  8 23  1  0
  9 24  1  0
  9 25  1  0
 11 26  1  0
 13 27  1  0
 15 28  1  0
 15 29  1  0
 16 30  1  0
M  ISO  8  17   8  18  14  19  14  20  14  21   8  22   8  23   8  24   8
M  ISO  6  25   8  26  14  27  14  28   8  29   8  30  11
M  END
>  <minimizedAffinity>  (1) 
-4.61045837

>  <minimizedRMSD>  (1) 
1.02570426

$$$$
