
     RDKit          3D

 20 21  0  0  0  0  0  0  0  0999 V2000
   38.0240   33.1190   49.4820 C   0  0  0  0  0  0  0  0  0  0  0  0
   38.9720   33.1900   48.4520 C   0  0  0  0  0  0  0  0  0  0  0  0
   38.9420   32.2140   47.4530 C   0  0  0  0  0  0  0  0  0  0  0  0
   37.9800   31.2340   47.5380 N   0  0  0  0  0  0  0  0  0  0  0  0
   37.0880   31.2040   48.5460 C   0  0  0  0  0  0  0  0  0  0  0  0
   37.0980   32.1310   49.5170 N   0  0  0  0  0  0  0  0  0  0  0  0
   36.0860   30.1570   48.6070 C   0  0  0  0  0  0  0  0  0  0  0  0
   35.9450   29.3560   49.7380 C   0  0  0  0  0  0  0  0  0  0  0  0
   34.9660   28.3720   49.7300 C   0  0  0  0  0  0  0  0  0  0  0  0
   34.1340   28.1560   48.6520 C   0  0  0  0  0  0  0  0  0  0  0  0
   34.2450   28.9280   47.5170 C   0  0  0  0  0  0  0  0  0  0  0  0
   35.2280   29.8970   47.5590 C   0  0  0  0  0  0  0  0  0  0  0  0
   38.0322   33.8796   50.2766 H   0  0  0  0  0  0  0  0  0  0  0  0
   39.7215   33.9948   48.4308 H   0  0  0  0  0  0  0  0  0  0  0  0
   39.6650   32.2285   46.6241 H   0  0  0  0  0  0  0  0  0  0  0  0
   36.5930   29.4997   50.6152 H   0  0  0  0  0  0  0  0  0  0  0  0
   34.8490   27.7379   50.6212 H   0  0  0  0  0  0  0  0  0  0  0  0
   33.3755   27.3607   48.6989 H   0  0  0  0  0  0  0  0  0  0  0  0
   33.5971   28.7832   46.6399 H   0  0  0  0  0  0  0  0  0  0  0  0
   35.3381   30.5267   46.6638 H   0  0  0  0  0  0  0  0  0  0  0  0
  1  6  2  0
  2  1  1  0
  3  4  1  0
  3  2  2  0
  4  5  2  0
  5  7  1  0
  5  6  1  0
  7  8  2  0
  9  8  1  0
 10  9  2  0
 11 12  2  0
 11 10  1  0
 12  7  1  0
  1 13  1  0
  2 14  1  0
  3 15  1  0
  8 16  1  0
  9 17  1  0
 10 18  1  0
 11 19  1  0
 12 20  1  0
M  ISO  8  13  14  14  14  15  14  16  14  17  14  18  14  19  14  20  14
M  END
>  <minimizedAffinity>  (1) 
-4.97635174

>  <minimizedRMSD>  (1) 
2.90272546

$$$$
