
     RDKit          3D

 45 47  0  0  1  0  0  0  0  0999 V2000
   37.4750   31.3990   47.4350 C   0  0  1  0  0  0  0  0  0  0  0  0
   38.4100   32.4770   47.8880 C   0  0  0  0  0  0  0  0  0  0  0  0
   38.2410   33.0100   49.1500 C   0  0  0  0  0  0  0  0  0  0  0  0
   39.1340   34.0400   49.5210 C   0  0  0  0  0  0  0  0  0  0  0  0
   40.0820   34.4340   48.6360 N   0  0  0  0  0  0  0  0  0  0  0  0
   40.2300   33.8820   47.3750 C   0  0  0  0  0  0  0  0  0  0  0  0
   39.3730   32.8900   47.0130 N   0  0  0  0  0  0  0  0  0  0  0  0
   37.8340   30.8050   46.1700 C   0  0  0  0  0  0  0  0  0  0  0  0
   37.3470   31.3500   44.9580 C   0  0  0  0  0  0  0  0  0  0  0  0
   37.6710   32.3650   44.1050 C   0  0  0  0  0  0  0  0  0  0  0  0
   36.8210   32.4240   43.0510 N   0  0  0  0  0  0  0  0  0  0  0  0
   35.9210   31.4540   43.1870 C   0  0  0  0  0  0  0  0  0  0  0  0
   36.2510   30.8030   44.3530 N   0  0  0  0  0  0  0  0  0  0  0  0
   35.4460   29.6570   44.7940 C   0  0  0  0  0  0  0  0  0  0  0  0
   34.0410   30.0110   44.9330 N   0  0  0  0  0  0  0  0  0  0  0  0
   37.5110   30.2590   48.5280 C   0  0  0  0  0  0  0  0  0  0  0  0
   36.2920   29.4870   48.3750 N   0  0  0  0  0  0  0  0  0  0  0  0
   36.1600   28.7360   49.6310 C   0  0  0  0  0  0  0  0  0  0  0  0
   35.4150   29.5100   50.6830 C   0  0  0  0  0  0  0  0  0  0  0  0
   34.0070   29.6700   50.3300 N   0  0  0  0  0  0  0  0  0  0  0  0
   33.9550   29.5760   48.8820 C   0  0  0  0  0  0  0  0  0  0  0  0
   35.1250   30.3520   48.3270 C   0  0  0  0  0  0  0  0  0  0  0  0
   36.4832   31.8564   47.3047 H   0  0  0  0  0  0  0  0  0  0  0  0
   37.4538   32.6522   49.8299 H   0  0  0  0  0  0  0  0  0  0  0  0
   39.0612   34.5140   50.5110 H   0  0  0  0  0  0  0  0  0  0  0  0
   41.0145   34.2340   46.6889 H   0  0  0  0  0  0  0  0  0  0  0  0
   38.9320   30.8318   46.1092 H   0  0  0  0  0  0  0  0  0  0  0  0
   37.3475   29.8193   46.2119 H   0  0  0  0  0  0  0  0  0  0  0  0
   38.5179   33.0508   44.2546 H   0  0  0  0  0  0  0  0  0  0  0  0
   35.0870   31.2211   42.5087 H   0  0  0  0  0  0  0  0  0  0  0  0
   35.5390   28.8492   44.0532 H   0  0  0  0  0  0  0  0  0  0  0  0
   35.8181   29.3331   45.7772 H   0  0  0  0  0  0  0  0  0  0  0  0
   33.7995   30.0718   45.9324 H   0  0  0  0  0  0  0  0  0  0  0  0
   33.8701   30.9213   44.4825 H   0  0  0  0  0  0  0  0  0  0  0  0
   38.3886   29.6143   48.3728 H   0  0  0  0  0  0  0  0  0  0  0  0
   37.5811   30.6863   49.5392 H   0  0  0  0  0  0  0  0  0  0  0  0
   35.6169   27.8010   49.4287 H   0  0  0  0  0  0  0  0  0  0  0  0
   37.1725   28.5380   50.0127 H   0  0  0  0  0  0  0  0  0  0  0  0
   35.4851   28.9721   51.6399 H   0  0  0  0  0  0  0  0  0  0  0  0
   35.8675   30.5094   50.7628 H   0  0  0  0  0  0  0  0  0  0  0  0
   33.4415   28.9238   50.7594 H   0  0  0  0  0  0  0  0  0  0  0  0
   34.0240   28.5227   48.5727 H   0  0  0  0  0  0  0  0  0  0  0  0
   33.0073   29.9870   48.5040 H   0  0  0  0  0  0  0  0  0  0  0  0
   35.3002   31.2516   48.9353 H   0  0  0  0  0  0  0  0  0  0  0  0
   34.9220   30.6679   47.2931 H   0  0  0  0  0  0  0  0  0  0  0  0
  1  2  1  0
  1 16  1  0
  2  3  2  0
  3  4  1  0
  5  4  2  0
  6  5  1  0
  7  6  2  0
  7  2  1  0
  8  1  1  0
  9  8  1  0
 10  9  2  0
 11 12  2  0
 11 10  1  0
 12 13  1  0
 13 14  1  0
 13  9  1  0
 14 15  1  0
 17 16  1  0
 17 18  1  0
 18 19  1  0
 20 19  1  0
 21 20  1  0
 22 17  1  0
 22 21  1  0
  1 23  1  6
  3 24  1  0
  4 25  1  0
  6 26  1  0
  8 27  1  0
  8 28  1  0
 10 29  1  0
 12 30  1  0
 14 31  1  0
 14 32  1  0
 15 33  1  0
 15 34  1  0
 16 35  1  0
 16 36  1  0
 18 37  1  0
 18 38  1  0
 19 39  1  0
 19 40  1  0
 20 41  1  0
 21 42  1  0
 21 43  1  0
 22 44  1  0
 22 45  1  0
M  ISO  8  23   8  24  14  25  14  26  14  27   8  28   8  29  14  30  14
M  ISO  8  31   8  32   8  33   5  34   5  35   8  36   8  37  13  38  13
M  ISO  7  39  13  40  13  41   5  42  13  43  13  44  13  45  13
M  END
>  <minimizedAffinity>  (1) 
-4.59111881

>  <minimizedRMSD>  (1) 
3.53865743

$$$$
