
     RDKit          3D

 38 40  0  0  1  0  0  0  0  0999 V2000
   37.5270   31.5820   46.8070 C   0  0  1  0  0  0  0  0  0  0  0  0
   38.6940   31.4150   45.8730 C   0  0  0  0  0  0  0  0  0  0  0  0
   39.7940   32.2310   46.0320 C   0  0  0  0  0  0  0  0  0  0  0  0
   40.8470   32.0390   45.1070 C   0  0  0  0  0  0  0  0  0  0  0  0
   40.7270   31.1030   44.1530 N   0  0  0  0  0  0  0  0  0  0  0  0
   39.6190   30.2970   44.0100 C   0  0  0  0  0  0  0  0  0  0  0  0
   38.6000   30.4680   44.8900 N   0  0  0  0  0  0  0  0  0  0  0  0
   36.8510   30.3410   47.1030 C   0  0  0  0  0  0  0  0  0  0  0  0
   35.6040   30.0470   46.5040 C   0  0  0  0  0  0  0  0  0  0  0  0
   34.9710   30.2780   45.3220 C   0  0  0  0  0  0  0  0  0  0  0  0
   33.7270   29.7290   45.2960 N   0  0  0  0  0  0  0  0  0  0  0  0
   33.5230   29.1300   46.4560 C   0  0  0  0  0  0  0  0  0  0  0  0
   34.6620   29.3220   47.1890 N   0  0  0  0  0  0  0  0  0  0  0  0
   34.7710   28.7660   48.5630 C   0  0  0  0  0  0  0  0  0  0  0  0
   33.6110   29.0720   49.3430 N   0  0  0  0  0  0  0  0  0  0  0  0
   38.0990   32.1560   48.1580 C   0  0  0  0  0  0  0  0  0  0  0  0
   37.6710   31.3710   49.2740 N   0  0  0  0  0  0  0  0  0  0  0  0
   36.6090   31.5740   50.0290 N   0  0  0  0  0  0  0  0  0  0  0  0
   36.4660   30.6810   50.9930 C   0  0  0  0  0  0  0  0  0  0  0  0
   37.5330   29.8050   50.8630 C   0  0  0  0  0  0  0  0  0  0  0  0
   38.2600   30.2640   49.7860 C   0  0  0  0  0  0  0  0  0  0  0  0
   36.7937   32.2447   46.3243 H   0  0  0  0  0  0  0  0  0  0  0  0
   39.8495   32.9859   46.8301 H   0  0  0  0  0  0  0  0  0  0  0  0
   41.7578   32.6527   45.1694 H   0  0  0  0  0  0  0  0  0  0  0  0
   39.5622   29.5423   43.2117 H   0  0  0  0  0  0  0  0  0  0  0  0
   37.5379   29.5309   46.8169 H   0  0  0  0  0  0  0  0  0  0  0  0
   36.5980   30.4427   48.1687 H   0  0  0  0  0  0  0  0  0  0  0  0
   35.4127   30.8416   44.4870 H   0  0  0  0  0  0  0  0  0  0  0  0
   32.6194   28.5865   46.7692 H   0  0  0  0  0  0  0  0  0  0  0  0
   34.8816   27.6734   48.4994 H   0  0  0  0  0  0  0  0  0  0  0  0
   35.6463   29.2189   49.0516 H   0  0  0  0  0  0  0  0  0  0  0  0
   33.8445   29.0104   50.3443 H   0  0  0  0  0  0  0  0  0  0  0  0
   33.2913   30.0261   49.1231 H   0  0  0  0  0  0  0  0  0  0  0  0
   39.1981   32.1489   48.1144 H   0  0  0  0  0  0  0  0  0  0  0  0
   37.7234   33.1817   48.2882 H   0  0  0  0  0  0  0  0  0  0  0  0
   35.6641   30.6409   51.7450 H   0  0  0  0  0  0  0  0  0  0  0  0
   37.7531   28.9274   51.4886 H   0  0  0  0  0  0  0  0  0  0  0  0
   39.1802   29.8010   49.4002 H   0  0  0  0  0  0  0  0  0  0  0  0
  1  8  1  0
  1 16  1  0
  2  3  2  0
  2  1  1  0
  4  3  1  0
  5  4  2  0
  6  5  1  0
  6  7  2  0
  7  2  1  0
  9  8  1  0
  9 13  1  0
 10  9  2  0
 11 10  1  0
 11 12  2  0
 12 13  1  0
 13 14  1  0
 14 15  1  0
 16 17  1  0
 17 21  1  0
 17 18  1  0
 18 19  2  0
 20 19  1  0
 21 20  2  0
  1 22  1  6
  3 23  1  0
  4 24  1  0
  6 25  1  0
  8 26  1  0
  8 27  1  0
 10 28  1  0
 12 29  1  0
 14 30  1  0
 14 31  1  0
 15 32  1  0
 15 33  1  0
 16 34  1  0
 16 35  1  0
 19 36  1  0
 20 37  1  0
 21 38  1  0
M  ISO  8  22   8  23  14  24  14  25  14  26   8  27   8  28  14  29  14
M  ISO  8  30   8  31   8  32   5  33   5  34   8  35   8  36  14  37  14
M  ISO  1  38  14
M  END
>  <minimizedAffinity>  (1) 
-4.5303278

>  <minimizedRMSD>  (1) 
3.21795344

$$$$
