
     RDKit          3D

 32 33  0  0  1  0  0  0  0  0999 V2000
   36.3850   29.9590   48.5130 C   0  0  0  0  0  0  0  0  0  0  0  0
   35.3400   29.7920   47.5760 C   0  0  0  0  0  0  0  0  0  0  0  0
   35.1270   30.0780   46.2670 C   0  0  0  0  0  0  0  0  0  0  0  0
   33.8870   29.6710   45.8600 N   0  0  0  0  0  0  0  0  0  0  0  0
   33.2710   29.1140   46.8940 C   0  0  0  0  0  0  0  0  0  0  0  0
   34.1680   29.1930   47.9390 N   0  0  0  0  0  0  0  0  0  0  0  0
   33.8060   28.6530   49.2810 C   0  0  0  0  0  0  0  0  0  0  0  0
   32.3820   28.4800   49.3980 N   0  0  0  0  0  0  0  0  0  0  0  0
   36.5320   31.2010   49.2330 C   0  0  2  0  0  0  0  0  0  0  0  0
   37.6780   32.0440   48.7190 C   0  0  0  0  0  0  0  0  0  0  0  0
   38.1220   33.0890   49.5020 C   0  0  0  0  0  0  0  0  0  0  0  0
   39.1820   33.8580   48.9550 C   0  0  0  0  0  0  0  0  0  0  0  0
   39.6810   33.5340   47.7390 N   0  0  0  0  0  0  0  0  0  0  0  0
   39.2180   32.4860   46.9830 C   0  0  0  0  0  0  0  0  0  0  0  0
   38.2060   31.7440   47.4930 N   0  0  0  0  0  0  0  0  0  0  0  0
   36.8850   30.8430   50.7330 C   0  0  0  0  0  0  0  0  0  0  0  0
   37.3790   29.1380   50.8810 S   0  0  0  0  0  0  0  0  0  0  0  0
   37.3263   29.7979   47.9672 H   0  0  0  0  0  0  0  0  0  0  0  0
   36.1228   29.2431   49.3059 H   0  0  0  0  0  0  0  0  0  0  0  0
   35.8602   30.5751   45.6149 H   0  0  0  0  0  0  0  0  0  0  0  0
   32.2599   28.6811   46.9141 H   0  0  0  0  0  0  0  0  0  0  0  0
   34.2998   27.6804   49.4230 H   0  0  0  0  0  0  0  0  0  0  0  0
   34.1374   29.3679   50.0485 H   0  0  0  0  0  0  0  0  0  0  0  0
   32.1207   28.4483   50.3938 H   0  0  0  0  0  0  0  0  0  0  0  0
   31.9017   29.2688   48.9420 H   0  0  0  0  0  0  0  0  0  0  0  0
   35.5952   31.7656   49.1163 H   0  0  0  0  0  0  0  0  0  0  0  0
   37.6833   33.3118   50.4858 H   0  0  0  0  0  0  0  0  0  0  0  0
   39.5948   34.7104   49.5146 H   0  0  0  0  0  0  0  0  0  0  0  0
   39.6529   32.2571   45.9989 H   0  0  0  0  0  0  0  0  0  0  0  0
   37.7093   31.4874   51.0725 H   0  0  0  0  0  0  0  0  0  0  0  0
   35.9904   31.0045   51.3524 H   0  0  0  0  0  0  0  0  0  0  0  0
   37.4758   28.8040   52.2061 H   0  0  0  0  0  0  0  0  0  0  0  0
  1  9  1  0
  2  6  1  0
  2  1  1  0
  3  2  2  0
  4  3  1  0
  4  5  2  0
  5  6  1  0
  6  7  1  0
  7  8  1  0
  9 16  1  0
 10  9  1  0
 10 11  2  0
 12 11  1  0
 13 12  2  0
 14 15  2  0
 14 13  1  0
 15 10  1  0
 16 17  1  0
  1 18  1  0
  1 19  1  0
  3 20  1  0
  5 21  1  0
  7 22  1  0
  7 23  1  0
  8 24  1  0
  8 25  1  0
  9 26  1  1
 11 27  1  0
 12 28  1  0
 14 29  1  0
 16 30  1  0
 16 31  1  0
 17 32  1  0
M  ISO  8  18   8  19   8  20  14  21  14  22   8  23   8  24   5  25   5
M  ISO  7  26   8  27  14  28  14  29  14  30   8  31   8  32  11
M  END
>  <minimizedAffinity>  (1) 
-4.51790476

>  <minimizedRMSD>  (1) 
0.934490621

$$$$
