
     RDKit          3D

 27 29  0  0  0  0  0  0  0  0999 V2000
   38.4600   32.2690   48.5330 C   0  0  0  0  0  0  0  0  0  0  0  0
   38.7490   33.4230   49.2180 C   0  0  0  0  0  0  0  0  0  0  0  0
   39.6280   34.3810   48.7000 C   0  0  0  0  0  0  0  0  0  0  0  0
   40.2170   34.1560   47.4670 C   0  0  0  0  0  0  0  0  0  0  0  0
   39.9200   32.9890   46.7820 C   0  0  0  0  0  0  0  0  0  0  0  0
   40.4670   32.6890   45.5480 C   0  0  0  0  0  0  0  0  0  0  0  0
   40.1240   31.5000   44.9190 C   0  0  0  0  0  0  0  0  0  0  0  0
   39.2430   30.5750   45.4720 C   0  0  0  0  0  0  0  0  0  0  0  0
   38.7070   30.8910   46.7070 C   0  0  0  0  0  0  0  0  0  0  0  0
   39.0580   32.0670   47.3070 C   0  0  0  0  0  0  0  0  0  0  0  0
   36.2070   31.1170   48.9790 C   0  0  0  0  0  0  0  0  0  0  0  0
   37.5310   31.4350   49.2690 C   0  0  0  0  0  0  0  0  0  0  0  0
   38.0430   30.8560   50.4650 C   0  0  0  0  0  0  0  0  0  0  0  0
   37.2420   30.0600   51.2240 N   0  0  0  0  0  0  0  0  0  0  0  0
   35.9780   29.7970   50.8850 C   0  0  0  0  0  0  0  0  0  0  0  0
   35.4710   30.3220   49.7750 N   0  0  0  0  0  0  0  0  0  0  0  0
   35.2170   28.9770   51.7020 O   0  0  0  0  0  0  0  0  0  0  0  0
   38.2788   33.5988   50.1968 H   0  0  0  0  0  0  0  0  0  0  0  0
   39.8478   35.2994   49.2641 H   0  0  0  0  0  0  0  0  0  0  0  0
   40.9109   34.8936   47.0375 H   0  0  0  0  0  0  0  0  0  0  0  0
   41.1687   33.3873   45.0684 H   0  0  0  0  0  0  0  0  0  0  0  0
   40.5692   31.2785   43.9378 H   0  0  0  0  0  0  0  0  0  0  0  0
   38.9861   29.6399   44.9528 H   0  0  0  0  0  0  0  0  0  0  0  0
   38.0054   30.2027   47.2010 H   0  0  0  0  0  0  0  0  0  0  0  0
   35.7480   31.5298   48.0686 H   0  0  0  0  0  0  0  0  0  0  0  0
   39.0806   31.0512   50.7736 H   0  0  0  0  0  0  0  0  0  0  0  0
   34.2782   28.7736   51.4627 H   0  0  0  0  0  0  0  0  0  0  0  0
  1  2  2  0
  1 12  1  0
  3  2  1  0
  4  3  2  0
  5 10  2  0
  5  4  1  0
  6  5  1  0
  7  8  1  0
  7  6  2  0
  8  9  2  0
  9 10  1  0
 10  1  1  0
 11 12  2  0
 11 16  1  0
 12 13  1  0
 13 14  2  0
 15 14  1  0
 15 17  1  0
 16 15  2  0
  2 18  1  0
  3 19  1  0
  4 20  1  0
  6 21  1  0
  7 22  1  0
  8 23  1  0
  9 24  1  0
 11 25  1  0
 13 26  1  0
 17 27  1  0
M  ISO  8  18  14  19  14  20  14  21  14  22  14  23  14  24  14  25  14
M  ISO  2  26  14  27   3
M  END
>  <minimizedAffinity>  (1) 
-6.63904095

>  <minimizedRMSD>  (1) 
0.280765682

$$$$
