
     RDKit          3D

 28 30  0  0  0  0  0  0  0  0999 V2000
   38.4760   32.2760   48.5010 C   0  0  0  0  0  0  0  0  0  0  0  0
   38.7580   33.4270   49.1940 C   0  0  0  0  0  0  0  0  0  0  0  0
   39.6380   34.3890   48.6820 C   0  0  0  0  0  0  0  0  0  0  0  0
   40.2350   34.1730   47.4510 C   0  0  0  0  0  0  0  0  0  0  0  0
   39.9420   33.0060   46.7600 C   0  0  0  0  0  0  0  0  0  0  0  0
   40.4910   32.7020   45.5210 C   0  0  0  0  0  0  0  0  0  0  0  0
   40.1530   31.5150   44.8870 C   0  0  0  0  0  0  0  0  0  0  0  0
   39.2790   30.6080   45.4460 C   0  0  0  0  0  0  0  0  0  0  0  0
   38.7340   30.9050   46.6710 C   0  0  0  0  0  0  0  0  0  0  0  0
   39.0760   32.0770   47.2840 C   0  0  0  0  0  0  0  0  0  0  0  0
   36.2220   31.1200   48.9270 C   0  0  0  0  0  0  0  0  0  0  0  0
   37.5430   31.4370   49.2300 C   0  0  0  0  0  0  0  0  0  0  0  0
   38.0520   30.8580   50.4290 C   0  0  0  0  0  0  0  0  0  0  0  0
   37.2420   30.0600   51.1780 N   0  0  0  0  0  0  0  0  0  0  0  0
   35.9790   29.7950   50.8320 C   0  0  0  0  0  0  0  0  0  0  0  0
   35.4810   30.3220   49.7180 N   0  0  0  0  0  0  0  0  0  0  0  0
   35.0990   28.9660   51.5850 N   0  0  0  0  0  0  0  0  0  0  0  0
   38.2831   33.5973   50.1715 H   0  0  0  0  0  0  0  0  0  0  0  0
   39.8525   35.3056   49.2511 H   0  0  0  0  0  0  0  0  0  0  0  0
   40.9295   34.9140   47.0284 H   0  0  0  0  0  0  0  0  0  0  0  0
   41.1928   33.4013   45.0430 H   0  0  0  0  0  0  0  0  0  0  0  0
   40.5972   31.2906   43.9060 H   0  0  0  0  0  0  0  0  0  0  0  0
   39.0251   29.6727   44.9257 H   0  0  0  0  0  0  0  0  0  0  0  0
   38.0315   30.2086   47.1522 H   0  0  0  0  0  0  0  0  0  0  0  0
   35.7700   31.5341   48.0136 H   0  0  0  0  0  0  0  0  0  0  0  0
   39.0872   31.0536   50.7455 H   0  0  0  0  0  0  0  0  0  0  0  0
   34.1359   28.8055   51.2570 H   0  0  0  0  0  0  0  0  0  0  0  0
   35.4257   28.5270   52.4576 H   0  0  0  0  0  0  0  0  0  0  0  0
  1  2  2  0
  1 12  1  0
  3  2  1  0
  4  3  2  0
  5 10  2  0
  5  4  1  0
  6  5  1  0
  7  8  1  0
  7  6  2  0
  8  9  2  0
  9 10  1  0
 10  1  1  0
 11 12  2  0
 11 16  1  0
 12 13  1  0
 13 14  2  0
 15 14  1  0
 15 17  1  0
 16 15  2  0
  2 18  1  0
  3 19  1  0
  4 20  1  0
  6 21  1  0
  7 22  1  0
  8 23  1  0
  9 24  1  0
 11 25  1  0
 13 26  1  0
 17 27  1  0
 17 28  1  0
M  ISO  8  18  14  19  14  20  14  21  14  22  14  23  14  24  14  25  14
M  ISO  1  26  14
M  END
>  <minimizedAffinity>  (1) 
-6.48442698

>  <minimizedRMSD>  (1) 
0.294328213

$$$$
