
     RDKit          3D

 29 31  0  0  0  0  0  0  0  0999 V2000
   38.5260   32.2380   48.2810 C   0  0  0  0  0  0  0  0  0  0  0  0
   38.7810   33.3800   48.9990 C   0  0  0  0  0  0  0  0  0  0  0  0
   39.6840   34.3450   48.5360 C   0  0  0  0  0  0  0  0  0  0  0  0
   40.3320   34.1410   47.3310 C   0  0  0  0  0  0  0  0  0  0  0  0
   40.0690   32.9860   46.6140 C   0  0  0  0  0  0  0  0  0  0  0  0
   40.6700   32.6960   45.3970 C   0  0  0  0  0  0  0  0  0  0  0  0
   40.3540   31.5170   44.7360 C   0  0  0  0  0  0  0  0  0  0  0  0
   39.4550   30.6040   45.2440 C   0  0  0  0  0  0  0  0  0  0  0  0
   38.8590   30.8900   46.4500 C   0  0  0  0  0  0  0  0  0  0  0  0
   39.1800   32.0580   47.0910 C   0  0  0  0  0  0  0  0  0  0  0  0
   36.3000   30.9830   48.5300 C   0  0  0  0  0  0  0  0  0  0  0  0
   37.5590   31.3960   48.9610 C   0  0  0  0  0  0  0  0  0  0  0  0
   37.9530   30.9280   50.2490 C   0  0  0  0  0  0  0  0  0  0  0  0
   37.0960   30.1350   50.9530 N   0  0  0  0  0  0  0  0  0  0  0  0
   35.9000   29.7760   50.4820 C   0  0  0  0  0  0  0  0  0  0  0  0
   35.5150   30.2010   49.2830 N   0  0  0  0  0  0  0  0  0  0  0  0
   34.9840   28.9100   51.2700 C   0  0  0  0  0  0  0  0  0  0  0  0
   38.2655   33.5403   49.9574 H   0  0  0  0  0  0  0  0  0  0  0  0
   39.8758   35.2548   49.1238 H   0  0  0  0  0  0  0  0  0  0  0  0
   41.0457   34.8853   46.9481 H   0  0  0  0  0  0  0  0  0  0  0  0
   41.3942   33.3980   44.9579 H   0  0  0  0  0  0  0  0  0  0  0  0
   40.8386   31.3036   43.7718 H   0  0  0  0  0  0  0  0  0  0  0  0
   39.2216   29.6758   44.7019 H   0  0  0  0  0  0  0  0  0  0  0  0
   38.1348   30.1911   46.8939 H   0  0  0  0  0  0  0  0  0  0  0  0
   35.9402   31.3085   47.5428 H   0  0  0  0  0  0  0  0  0  0  0  0
   38.9325   31.2023   50.6678 H   0  0  0  0  0  0  0  0  0  0  0  0
   35.1575   29.0741   52.3438 H   0  0  0  0  0  0  0  0  0  0  0  0
   33.9413   29.1602   51.0247 H   0  0  0  0  0  0  0  0  0  0  0  0
   35.1754   27.8549   51.0247 H   0  0  0  0  0  0  0  0  0  0  0  0
  1 12  1  0
  1  2  2  0
  3  2  1  0
  4  3  2  0
  5 10  2  0
  5  4  1  0
  6  5  1  0
  7  8  1  0
  7  6  2  0
  8  9  2  0
  9 10  1  0
 10  1  1  0
 11 12  2  0
 11 16  1  0
 12 13  1  0
 13 14  2  0
 15 14  1  0
 15 17  1  0
 16 15  2  0
  2 18  1  0
  3 19  1  0
  4 20  1  0
  6 21  1  0
  7 22  1  0
  8 23  1  0
  9 24  1  0
 11 25  1  0
 13 26  1  0
 17 27  1  0
 17 28  1  0
 17 29  1  0
M  ISO  8  18  14  19  14  20  14  21  14  22  14  23  14  24  14  25  14
M  ISO  4  26  14  27   8  28   8  29   8
M  END
>  <minimizedAffinity>  (1) 
-6.42925787

>  <minimizedRMSD>  (1) 
0.480977416

$$$$
