
     RDKit          3D

 33 36  0  0  0  0  0  0  0  0999 V2000
   38.1280   31.9560   48.0210 C   0  0  0  0  0  0  0  0  0  0  0  0
   38.1960   32.7970   49.1050 C   0  0  0  0  0  0  0  0  0  0  0  0
   39.1030   33.8590   49.1490 C   0  0  0  0  0  0  0  0  0  0  0  0
   39.9530   34.0670   48.0740 C   0  0  0  0  0  0  0  0  0  0  0  0
   39.8720   33.2120   46.9900 C   0  0  0  0  0  0  0  0  0  0  0  0
   40.6880   33.3450   45.8650 C   0  0  0  0  0  0  0  0  0  0  0  0
   40.5560   32.4520   44.8120 C   0  0  0  0  0  0  0  0  0  0  0  0
   39.6410   31.4240   44.8280 C   0  0  0  0  0  0  0  0  0  0  0  0
   38.8340   31.2890   45.9380 C   0  0  0  0  0  0  0  0  0  0  0  0
   38.9780   32.1790   46.9680 C   0  0  0  0  0  0  0  0  0  0  0  0
   35.9630   30.6900   47.4630 C   0  0  0  0  0  0  0  0  0  0  0  0
   37.1140   30.9340   48.2070 C   0  0  0  0  0  0  0  0  0  0  0  0
   37.3230   30.0580   49.3110 C   0  0  0  0  0  0  0  0  0  0  0  0
   36.4210   29.0710   49.5670 N   0  0  0  0  0  0  0  0  0  0  0  0
   35.3350   28.8920   48.8100 C   0  0  0  0  0  0  0  0  0  0  0  0
   35.1110   29.6980   47.7670 N   0  0  0  0  0  0  0  0  0  0  0  0
   34.3920   27.7920   49.1480 C   0  0  0  0  0  0  0  0  0  0  0  0
   32.9380   27.9650   48.8310 C   0  0  0  0  0  0  0  0  0  0  0  0
   33.7880   26.9660   48.0640 C   0  0  0  0  0  0  0  0  0  0  0  0
   37.5212   32.6307   49.9576 H   0  0  0  0  0  0  0  0  0  0  0  0
   39.1420   34.5219   50.0260 H   0  0  0  0  0  0  0  0  0  0  0  0
   40.6770   34.8951   48.0829 H   0  0  0  0  0  0  0  0  0  0  0  0
   41.4318   34.1538   45.8140 H   0  0  0  0  0  0  0  0  0  0  0  0
   41.2060   32.5696   43.9324 H   0  0  0  0  0  0  0  0  0  0  0  0
   39.5558   30.7296   43.9792 H   0  0  0  0  0  0  0  0  0  0  0  0
   38.0890   30.4817   45.9946 H   0  0  0  0  0  0  0  0  0  0  0  0
   35.7442   31.3317   46.5968 H   0  0  0  0  0  0  0  0  0  0  0  0
   38.2082   30.1785   49.9529 H   0  0  0  0  0  0  0  0  0  0  0  0
   34.9690   27.5581   50.0548 H   0  0  0  0  0  0  0  0  0  0  0  0
   32.1729   27.6113   49.5377 H   0  0  0  0  0  0  0  0  0  0  0  0
   32.2916   28.8129   48.5604 H   0  0  0  0  0  0  0  0  0  0  0  0
   33.6381   25.8865   48.2126 H   0  0  0  0  0  0  0  0  0  0  0  0
   34.0136   26.7873   47.0023 H   0  0  0  0  0  0  0  0  0  0  0  0
  1 12  1  0
  1  2  2  0
  2  3  1  0
  4  3  2  0
  5  4  1  0
  6  5  2  0
  7  8  2  0
  7  6  1  0
  8  9  1  0
  9 10  2  0
 10  5  1  0
 10  1  1  0
 11 16  2  0
 11 12  1  0
 12 13  2  0
 13 14  1  0
 15 17  1  0
 15 14  2  0
 16 15  1  0
 18 17  1  0
 19 18  1  0
 19 17  1  0
  2 20  1  0
  3 21  1  0
  4 22  1  0
  6 23  1  0
  7 24  1  0
  8 25  1  0
  9 26  1  0
 11 27  1  0
 13 28  1  0
 17 29  1  0
 18 30  1  0
 18 31  1  0
 19 32  1  0
 19 33  1  0
M  ISO  8  20  14  21  14  22  14  23  14  24  14  25  14  26  14  27  14
M  ISO  6  28  14  29  13  30  13  31  13  32  13  33  13
M  END
>  <minimizedAffinity>  (1) 
-6.66597843

>  <minimizedRMSD>  (1) 
1.84437215

$$$$
