
     RDKit          3D

 49 53  0  0  1  0  0  0  0  0999 V2000
   35.4650   30.4040   47.3110 C   0  0  0  0  0  0  0  0  0  0  0  0
   36.5640   30.5950   48.1270 C   0  0  0  0  0  0  0  0  0  0  0  0
   36.6860   29.6540   49.1980 C   0  0  0  0  0  0  0  0  0  0  0  0
   35.7540   28.6670   49.3470 N   0  0  0  0  0  0  0  0  0  0  0  0
   34.7140   28.5540   48.5070 C   0  0  0  0  0  0  0  0  0  0  0  0
   34.5750   29.4180   47.4990 N   0  0  0  0  0  0  0  0  0  0  0  0
   37.6120   31.5980   48.0700 C   0  0  0  0  0  0  0  0  0  0  0  0
   37.5800   32.4260   49.1510 C   0  0  0  0  0  0  0  0  0  0  0  0
   38.5010   33.4660   49.2990 C   0  0  0  0  0  0  0  0  0  0  0  0
   39.4670   33.6590   48.3260 C   0  0  0  0  0  0  0  0  0  0  0  0
   39.4880   32.8150   47.2420 C   0  0  0  0  0  0  0  0  0  0  0  0
   40.4220   32.9210   46.1980 C   0  0  0  0  0  0  0  0  0  0  0  0
   40.3850   32.0340   45.1350 C   0  0  0  0  0  0  0  0  0  0  0  0
   39.4560   31.0360   45.0500 C   0  0  0  0  0  0  0  0  0  0  0  0
   38.5270   30.9220   46.0730 C   0  0  0  0  0  0  0  0  0  0  0  0
   38.5730   31.7980   47.1130 C   0  0  0  0  0  0  0  0  0  0  0  0
   33.7330   27.4560   48.7290 C   0  0  1  0  0  0  0  0  0  0  0  0
   32.2810   27.7800   48.7500 C   0  0  0  0  0  0  0  0  0  0  0  0
   32.8700   27.0010   47.5870 C   0  0  2  0  0  0  0  0  0  0  0  0
   32.6500   25.5370   47.4440 C   0  0  0  0  0  0  0  0  0  0  0  0
   33.9300   24.7460   47.3220 C   0  0  0  0  0  0  0  0  0  0  0  0
   33.5960   23.3970   46.7370 C   0  0  0  0  0  0  0  0  0  0  0  0
   32.1540   23.0080   47.0170 C   0  0  0  0  0  0  0  0  0  0  0  0
   31.2770   23.8870   46.1390 C   0  0  0  0  0  0  0  0  0  0  0  0
   31.8130   25.2920   46.2010 C   0  0  0  0  0  0  0  0  0  0  0  0
   35.3129   31.0932   46.4673 H   0  0  0  0  0  0  0  0  0  0  0  0
   37.5295   29.7255   49.9005 H   0  0  0  0  0  0  0  0  0  0  0  0
   36.8126   32.2726   49.9240 H   0  0  0  0  0  0  0  0  0  0  0  0
   38.4592   34.1245   50.1791 H   0  0  0  0  0  0  0  0  0  0  0  0
   40.2027   34.4715   48.4190 H   0  0  0  0  0  0  0  0  0  0  0  0
   41.1860   33.7119   46.2249 H   0  0  0  0  0  0  0  0  0  0  0  0
   41.1292   32.1366   44.3315 H   0  0  0  0  0  0  0  0  0  0  0  0
   39.4453   30.3435   44.1954 H   0  0  0  0  0  0  0  0  0  0  0  0
   37.7617   30.1324   46.0441 H   0  0  0  0  0  0  0  0  0  0  0  0
   34.4228   26.9515   49.4216 H   0  0  0  0  0  0  0  0  0  0  0  0
   31.6156   27.2779   49.4677 H   0  0  0  0  0  0  0  0  0  0  0  0
   31.6910   28.7031   48.8491 H   0  0  0  0  0  0  0  0  0  0  0  0
   32.8404   27.1296   46.4949 H   0  0  0  0  0  0  0  0  0  0  0  0
   32.1435   25.1964   48.3591 H   0  0  0  0  0  0  0  0  0  0  0  0
   34.6330   25.2747   46.6614 H   0  0  0  0  0  0  0  0  0  0  0  0
   34.3985   24.6263   48.3100 H   0  0  0  0  0  0  0  0  0  0  0  0
   34.2620   22.6413   47.1790 H   0  0  0  0  0  0  0  0  0  0  0  0
   33.7325   23.4511   45.6468 H   0  0  0  0  0  0  0  0  0  0  0  0
   31.9940   21.9481   46.7698 H   0  0  0  0  0  0  0  0  0  0  0  0
   31.9095   23.1476   48.0804 H   0  0  0  0  0  0  0  0  0  0  0  0
   30.2408   23.8666   46.5076 H   0  0  0  0  0  0  0  0  0  0  0  0
   31.2870   23.5206   45.1019 H   0  0  0  0  0  0  0  0  0  0  0  0
   32.4375   25.4715   45.3134 H   0  0  0  0  0  0  0  0  0  0  0  0
   30.9538   25.9780   46.2342 H   0  0  0  0  0  0  0  0  0  0  0  0
  1  6  2  0
  1  2  1  0
  2  3  2  0
  3  4  1  0
  5 17  1  0
  5  4  2  0
  6  5  1  0
  7  2  1  0
  7  8  2  0
  8  9  1  0
 10  9  2  0
 11 10  1  0
 12 11  2  0
 13 12  1  0
 14 13  2  0
 14 15  1  0
 15 16  2  0
 16 11  1  0
 16  7  1  0
 17 18  1  0
 19 17  1  0
 19 18  1  0
 20 19  1  0
 21 20  1  0
 22 23  1  0
 22 21  1  0
 24 25  1  0
 24 23  1  0
 25 20  1  0
  1 26  1  0
  3 27  1  0
  8 28  1  0
  9 29  1  0
 10 30  1  0
 12 31  1  0
 13 32  1  0
 14 33  1  0
 15 34  1  0
 17 35  1  1
 18 36  1  0
 18 37  1  0
 19 38  1  6
 20 39  1  0
 21 40  1  0
 21 41  1  0
 22 42  1  0
 22 43  1  0
 23 44  1  0
 23 45  1  0
 24 46  1  0
 24 47  1  0
 25 48  1  0
 25 49  1  0
M  ISO  8  26  14  27  14  28  14  29  14  30  14  31  14  32  14  33  14
M  ISO  8  34  14  35  13  36  13  37  13  38  13  39  13  40  13  41  13
M  ISO  8  42  13  43  13  44  13  45  13  46  13  47  13  48  13  49  13
M  END
>  <minimizedAffinity>  (1) 
-6.90625954

>  <minimizedRMSD>  (1) 
1.09039867

$$$$
