
     RDKit          3D

 41 45  0  0  1  0  0  0  0  0999 V2000
   35.0370   30.1350   47.2130 C   0  0  0  0  0  0  0  0  0  0  0  0
   36.0770   30.2710   48.1140 C   0  0  0  0  0  0  0  0  0  0  0  0
   36.1110   29.2870   49.1530 C   0  0  0  0  0  0  0  0  0  0  0  0
   35.1590   28.3150   49.1940 N   0  0  0  0  0  0  0  0  0  0  0  0
   34.1890   28.2460   48.2930 C   0  0  0  0  0  0  0  0  0  0  0  0
   34.1260   29.1530   47.3040 N   0  0  0  0  0  0  0  0  0  0  0  0
   37.1380   31.2610   48.1680 C   0  0  0  0  0  0  0  0  0  0  0  0
   37.0610   32.0180   49.3050 C   0  0  0  0  0  0  0  0  0  0  0  0
   37.9780   33.0290   49.5670 C   0  0  0  0  0  0  0  0  0  0  0  0
   38.9890   33.2780   48.6690 C   0  0  0  0  0  0  0  0  0  0  0  0
   39.0590   32.5050   47.5190 C   0  0  0  0  0  0  0  0  0  0  0  0
   40.0470   32.6750   46.5360 C   0  0  0  0  0  0  0  0  0  0  0  0
   40.0530   31.8700   45.4190 C   0  0  0  0  0  0  0  0  0  0  0  0
   39.1170   30.8870   45.2160 C   0  0  0  0  0  0  0  0  0  0  0  0
   38.1380   30.7100   46.1790 C   0  0  0  0  0  0  0  0  0  0  0  0
   38.1440   31.5130   47.2780 C   0  0  0  0  0  0  0  0  0  0  0  0
   33.1710   27.1660   48.3910 C   0  0  1  0  0  0  0  0  0  0  0  0
   31.7320   27.5210   48.5210 C   0  0  0  0  0  0  0  0  0  0  0  0
   32.2390   26.9090   47.2420 C   0  0  2  0  0  0  0  0  0  0  0  0
   31.8890   25.4930   46.9300 C   0  0  0  0  0  0  0  0  0  0  0  0
   32.6650   24.4670   47.4550 C   0  0  0  0  0  0  0  0  0  0  0  0
   32.2790   23.1670   47.1200 C   0  0  0  0  0  0  0  0  0  0  0  0
   31.2200   22.8940   46.3350 N   0  0  0  0  0  0  0  0  0  0  0  0
   30.4960   23.9290   45.8480 C   0  0  0  0  0  0  0  0  0  0  0  0
   30.8420   25.1980   46.1530 N   0  0  0  0  0  0  0  0  0  0  0  0
   34.9528   30.8596   46.3896 H   0  0  0  0  0  0  0  0  0  0  0  0
   36.9034   29.3162   49.9154 H   0  0  0  0  0  0  0  0  0  0  0  0
   36.2554   31.8221   50.0279 H   0  0  0  0  0  0  0  0  0  0  0  0
   37.8955   33.6262   50.4871 H   0  0  0  0  0  0  0  0  0  0  0  0
   39.7260   34.0724   48.8581 H   0  0  0  0  0  0  0  0  0  0  0  0
   40.8165   33.4515   46.6583 H   0  0  0  0  0  0  0  0  0  0  0  0
   40.8365   32.0202   44.6617 H   0  0  0  0  0  0  0  0  0  0  0  0
   39.1438   30.2578   44.3141 H   0  0  0  0  0  0  0  0  0  0  0  0
   37.3683   29.9335   46.0579 H   0  0  0  0  0  0  0  0  0  0  0  0
   33.8739   26.5486   48.9696 H   0  0  0  0  0  0  0  0  0  0  0  0
   31.0804   26.9380   49.1885 H   0  0  0  0  0  0  0  0  0  0  0  0
   31.1780   28.4359   48.7779 H   0  0  0  0  0  0  0  0  0  0  0  0
   32.2017   27.1901   46.1792 H   0  0  0  0  0  0  0  0  0  0  0  0
   33.5345   24.6672   48.0983 H   0  0  0  0  0  0  0  0  0  0  0  0
   32.8681   22.3268   47.5163 H   0  0  0  0  0  0  0  0  0  0  0  0
   29.6256   23.7361   45.2036 H   0  0  0  0  0  0  0  0  0  0  0  0
  1  6  2  0
  1  2  1  0
  2  7  1  0
  2  3  2  0
  3  4  1  0
  5 17  1  0
  5  4  2  0
  6  5  1  0
  7  8  2  0
  8  9  1  0
 10  9  2  0
 11 10  1  0
 12 11  2  0
 13 12  1  0
 14 13  2  0
 14 15  1  0
 15 16  2  0
 16 11  1  0
 16  7  1  0
 17 18  1  0
 19 17  1  0
 19 18  1  0
 20 19  1  0
 20 21  2  0
 22 21  1  0
 23 22  2  0
 24 25  2  0
 24 23  1  0
 25 20  1  0
  1 26  1  0
  3 27  1  0
  8 28  1  0
  9 29  1  0
 10 30  1  0
 12 31  1  0
 13 32  1  0
 14 33  1  0
 15 34  1  0
 17 35  1  1
 18 36  1  0
 18 37  1  0
 19 38  1  6
 21 39  1  0
 22 40  1  0
 24 41  1  0
M  ISO  8  26  14  27  14  28  14  29  14  30  14  31  14  32  14  33  14
M  ISO  8  34  14  35  13  36  13  37  13  38  13  39  14  40  14  41  14
M  END
>  <minimizedAffinity>  (1) 
-6.82065296

>  <minimizedRMSD>  (1) 
1.76562595

$$$$
