
     RDKit          3D

 40 44  0  0  1  0  0  0  0  0999 V2000
   35.5860   30.4550   47.3350 C   0  0  0  0  0  0  0  0  0  0  0  0
   36.6570   30.6720   48.1820 C   0  0  0  0  0  0  0  0  0  0  0  0
   36.7850   29.7260   49.2490 C   0  0  0  0  0  0  0  0  0  0  0  0
   35.8830   28.7120   49.3610 N   0  0  0  0  0  0  0  0  0  0  0  0
   34.8730   28.5720   48.4970 C   0  0  0  0  0  0  0  0  0  0  0  0
   34.7300   29.4340   47.4990 N   0  0  0  0  0  0  0  0  0  0  0  0
   37.6730   31.7110   48.1620 C   0  0  0  0  0  0  0  0  0  0  0  0
   37.6390   32.4700   49.2970 C   0  0  0  0  0  0  0  0  0  0  0  0
   38.5260   33.5250   49.4930 C   0  0  0  0  0  0  0  0  0  0  0  0
   39.4680   33.8120   48.5110 C   0  0  0  0  0  0  0  0  0  0  0  0
   39.4880   33.0280   47.3600 C   0  0  0  0  0  0  0  0  0  0  0  0
   40.3950   33.2400   46.3220 C   0  0  0  0  0  0  0  0  0  0  0  0
   40.3590   32.4190   45.2030 C   0  0  0  0  0  0  0  0  0  0  0  0
   39.4580   31.4000   45.0780 C   0  0  0  0  0  0  0  0  0  0  0  0
   38.5590   31.1920   46.1100 C   0  0  0  0  0  0  0  0  0  0  0  0
   38.6020   32.0050   47.2090 C   0  0  0  0  0  0  0  0  0  0  0  0
   33.9230   27.4370   48.6820 C   0  0  1  0  0  0  0  0  0  0  0  0
   32.4610   27.7110   48.6500 C   0  0  0  0  0  0  0  0  0  0  0  0
   33.1050   26.9560   47.5200 C   0  0  2  0  0  0  0  0  0  0  0  0
   32.9310   25.4910   47.3910 C   0  0  0  0  0  0  0  0  0  0  0  0
   33.8770   24.4790   47.4470 C   0  0  0  0  0  0  0  0  0  0  0  0
   33.3010   23.2360   47.2790 C   0  0  0  0  0  0  0  0  0  0  0  0
   32.0080   23.5270   47.1240 N   0  0  0  0  0  0  0  0  0  0  0  0
   31.7750   24.8330   47.1870 N   0  0  0  0  0  0  0  0  0  0  0  0
   35.4292   31.1461   46.4937 H   0  0  0  0  0  0  0  0  0  0  0  0
   37.6071   29.8177   49.9740 H   0  0  0  0  0  0  0  0  0  0  0  0
   36.8940   32.2426   50.0737 H   0  0  0  0  0  0  0  0  0  0  0  0
   38.4822   34.1247   50.4141 H   0  0  0  0  0  0  0  0  0  0  0  0
   40.1811   34.6395   48.6404 H   0  0  0  0  0  0  0  0  0  0  0  0
   41.1338   34.0521   46.3894 H   0  0  0  0  0  0  0  0  0  0  0  0
   41.0795   32.5948   44.3906 H   0  0  0  0  0  0  0  0  0  0  0  0
   39.4470   30.7621   44.1819 H   0  0  0  0  0  0  0  0  0  0  0  0
   37.8180   30.3815   46.0468 H   0  0  0  0  0  0  0  0  0  0  0  0
   34.6108   26.9549   49.3923 H   0  0  0  0  0  0  0  0  0  0  0  0
   31.7888   27.1890   49.3469 H   0  0  0  0  0  0  0  0  0  0  0  0
   31.8383   28.6147   48.7250 H   0  0  0  0  0  0  0  0  0  0  0  0
   33.1054   27.0825   46.4273 H   0  0  0  0  0  0  0  0  0  0  0  0
   34.9526   24.6459   47.6056 H   0  0  0  0  0  0  0  0  0  0  0  0
   33.7875   22.2495   47.2741 H   0  0  0  0  0  0  0  0  0  0  0  0
   31.2746   22.8198   46.9728 H   0  0  0  0  0  0  0  0  0  0  0  0
  1  6  2  0
  1  2  1  0
  2  3  2  0
  3  4  1  0
  5 17  1  0
  5  4  2  0
  6  5  1  0
  7  2  1  0
  7  8  2  0
  8  9  1  0
 10  9  2  0
 11 10  1  0
 12 11  2  0
 13 12  1  0
 14 13  2  0
 14 15  1  0
 15 16  2  0
 16 11  1  0
 16  7  1  0
 18 17  1  0
 19 18  1  0
 19 17  1  0
 20 21  1  0
 20 19  1  0
 22 21  2  0
 23 24  1  0
 23 22  1  0
 24 20  2  0
  1 25  1  0
  3 26  1  0
  8 27  1  0
  9 28  1  0
 10 29  1  0
 12 30  1  0
 13 31  1  0
 14 32  1  0
 15 33  1  0
 17 34  1  1
 18 35  1  0
 18 36  1  0
 19 37  1  6
 21 38  1  0
 22 39  1  0
 23 40  1  0
M  ISO  8  25  14  26  14  27  14  28  14  29  14  30  14  31  14  32  14
M  ISO  8  33  14  34  13  35  13  36  13  37  13  38  14  39  14  40   9
M  END
>  <minimizedAffinity>  (1) 
-6.81210423

>  <minimizedRMSD>  (1) 
0.874106646

$$$$
