
     RDKit          3D

 46 50  0  0  1  0  0  0  0  0999 V2000
   34.4130   30.1660   47.4150 C   0  0  0  0  0  0  0  0  0  0  0  0
   35.5550   30.0980   48.1940 C   0  0  0  0  0  0  0  0  0  0  0  0
   35.6340   28.9600   49.0590 C   0  0  0  0  0  0  0  0  0  0  0  0
   34.6250   28.0520   49.0620 N   0  0  0  0  0  0  0  0  0  0  0  0
   33.5410   28.1830   48.2770 C   0  0  0  0  0  0  0  0  0  0  0  0
   33.4510   29.2310   47.4680 N   0  0  0  0  0  0  0  0  0  0  0  0
   36.6850   31.0090   48.2700 C   0  0  0  0  0  0  0  0  0  0  0  0
   36.7260   31.6450   49.4800 C   0  0  0  0  0  0  0  0  0  0  0  0
   37.7310   32.5710   49.7780 C   0  0  0  0  0  0  0  0  0  0  0  0
   38.7020   32.8490   48.8300 C   0  0  0  0  0  0  0  0  0  0  0  0
   38.6410   32.1920   47.6080 C   0  0  0  0  0  0  0  0  0  0  0  0
   39.5730   32.4070   46.5990 C   0  0  0  0  0  0  0  0  0  0  0  0
   39.4550   31.7220   45.4100 C   0  0  0  0  0  0  0  0  0  0  0  0
   38.4420   30.8160   45.1670 C   0  0  0  0  0  0  0  0  0  0  0  0
   37.5170   30.6060   46.1750 C   0  0  0  0  0  0  0  0  0  0  0  0
   37.6490   31.2920   47.3430 C   0  0  0  0  0  0  0  0  0  0  0  0
   32.4730   27.1650   48.3250 C   0  0  1  0  0  0  0  0  0  0  0  0
   31.5260   27.0490   47.1840 C   0  0  0  0  0  0  0  0  0  0  0  0
   32.5380   25.9420   47.5130 C   0  0  1  0  0  0  0  0  0  0  0  0
   35.4160   24.8300   44.5650 C   0  0  0  0  0  0  0  0  0  0  0  0
   34.6500   25.9420   44.3340 C   0  0  0  0  0  0  0  0  0  0  0  0
   33.6970   26.3980   45.2130 C   0  0  0  0  0  0  0  0  0  0  0  0
   33.4790   25.7230   46.3950 C   0  0  0  0  0  0  0  0  0  0  0  0
   34.2520   24.5830   46.6490 C   0  0  0  0  0  0  0  0  0  0  0  0
   35.2150   24.1460   45.7310 C   0  0  0  0  0  0  0  0  0  0  0  0
   36.5990   24.3490   43.3680 S   0  0  0  0  0  0  0  0  0  0  0  0
   37.9610   24.5390   44.0000 O   0  0  0  0  0  0  0  0  0  0  0  0
   36.4510   22.8650   43.0770 O   0  0  0  0  0  0  0  0  0  0  0  0
   34.2892   31.0162   46.7281 H   0  0  0  0  0  0  0  0  0  0  0  0
   36.5055   28.8225   49.7160 H   0  0  0  0  0  0  0  0  0  0  0  0
   35.9546   31.4243   50.2325 H   0  0  0  0  0  0  0  0  0  0  0  0
   37.7501   33.0739   50.7561 H   0  0  0  0  0  0  0  0  0  0  0  0
   39.5028   33.5733   49.0402 H   0  0  0  0  0  0  0  0  0  0  0  0
   40.3982   33.1187   46.7491 H   0  0  0  0  0  0  0  0  0  0  0  0
   40.1992   31.9044   44.6208 H   0  0  0  0  0  0  0  0  0  0  0  0
   38.3726   30.2811   44.2083 H   0  0  0  0  0  0  0  0  0  0  0  0
   36.6886   29.8961   46.0343 H   0  0  0  0  0  0  0  0  0  0  0  0
   32.3683   27.3414   49.4057 H   0  0  0  0  0  0  0  0  0  0  0  0
   31.6577   27.6730   46.2877 H   0  0  0  0  0  0  0  0  0  0  0  0
   30.4351   27.1073   47.0556 H   0  0  0  0  0  0  0  0  0  0  0  0
   32.5878   24.8888   47.8266 H   0  0  0  0  0  0  0  0  0  0  0  0
   34.8055   26.4980   43.3977 H   0  0  0  0  0  0  0  0  0  0  0  0
   33.1108   27.2977   44.9744 H   0  0  0  0  0  0  0  0  0  0  0  0
   34.1004   24.0227   47.5834 H   0  0  0  0  0  0  0  0  0  0  0  0
   35.8122   23.2484   45.9493 H   0  0  0  0  0  0  0  0  0  0  0  0
   36.4390   25.0770   42.2185 H   0  0  0  0  0  0  0  0  0  0  0  0
  1  6  2  0
  1  2  1  0
  2  7  1  0
  2  3  2  0
  3  4  1  0
  5 17  1  0
  5  4  2  0
  6  5  1  0
  7  8  2  0
  8  9  1  0
 10  9  2  0
 11 10  1  0
 12 11  2  0
 13 12  1  0
 14 13  2  0
 14 15  1  0
 15 16  2  0
 16 11  1  0
 16  7  1  0
 18 19  1  0
 18 17  1  0
 19 17  1  0
 20 25  2  0
 21 20  1  0
 21 22  2  0
 22 23  1  0
 23 24  2  0
 23 19  1  0
 25 24  1  0
 26 27  2  0
 26 20  1  0
 28 26  2  0
  1 29  1  0
  3 30  1  0
  8 31  1  0
  9 32  1  0
 10 33  1  0
 12 34  1  0
 13 35  1  0
 14 36  1  0
 15 37  1  0
 17 38  1  1
 18 39  1  0
 18 40  1  0
 19 41  1  1
 21 42  1  0
 22 43  1  0
 24 44  1  0
 25 45  1  0
 26 46  1  0
M  ISO  8  29  14  30  14  31  14  32  14  33  14  34  14  35  14  36  14
M  ISO  8  37  14  38  13  39  13  40  13  41  13  42  14  43  14  44  14
M  ISO  2  45  14  46  11
M  END
>  <minimizedAffinity>  (1) 
-6.75179243

>  <minimizedRMSD>  (1) 
2.38646221

$$$$
