
     RDKit          3D

 36 39  0  0  1  0  0  0  0  0999 V2000
   37.6830   31.7010   48.1610 C   0  0  0  0  0  0  0  0  0  0  0  0
   37.6470   32.4690   49.2990 C   0  0  0  0  0  0  0  0  0  0  0  0
   38.5360   33.5330   49.4840 C   0  0  0  0  0  0  0  0  0  0  0  0
   39.4680   33.8150   48.4980 C   0  0  0  0  0  0  0  0  0  0  0  0
   39.4850   33.0230   47.3530 C   0  0  0  0  0  0  0  0  0  0  0  0
   40.3850   33.2320   46.3110 C   0  0  0  0  0  0  0  0  0  0  0  0
   40.3470   32.4050   45.1970 C   0  0  0  0  0  0  0  0  0  0  0  0
   39.4480   31.3780   45.0800 C   0  0  0  0  0  0  0  0  0  0  0  0
   38.5600   31.1760   46.1150 C   0  0  0  0  0  0  0  0  0  0  0  0
   38.6070   31.9930   47.2020 C   0  0  0  0  0  0  0  0  0  0  0  0
   35.5930   30.4440   47.3560 C   0  0  0  0  0  0  0  0  0  0  0  0
   36.6700   30.6650   48.1950 C   0  0  0  0  0  0  0  0  0  0  0  0
   36.7970   29.7210   49.2630 C   0  0  0  0  0  0  0  0  0  0  0  0
   35.8930   28.7050   49.3900 N   0  0  0  0  0  0  0  0  0  0  0  0
   34.8840   28.5640   48.5370 C   0  0  0  0  0  0  0  0  0  0  0  0
   34.7300   29.4290   47.5210 N   0  0  0  0  0  0  0  0  0  0  0  0
   33.9220   27.4390   48.7300 C   0  0  1  0  0  0  0  0  0  0  0  0
   32.4670   27.6810   48.5390 C   0  0  0  0  0  0  0  0  0  0  0  0
   33.2290   26.8480   47.5370 C   0  0  2  0  0  0  0  0  0  0  0  0
   33.0690   25.3430   47.5420 C   0  0  0  0  0  0  0  0  0  0  0  0
   36.9054   32.2432   50.0794 H   0  0  0  0  0  0  0  0  0  0  0  0
   38.4958   34.1387   50.4013 H   0  0  0  0  0  0  0  0  0  0  0  0
   40.1786   34.6461   48.6173 H   0  0  0  0  0  0  0  0  0  0  0  0
   41.1212   34.0472   46.3705 H   0  0  0  0  0  0  0  0  0  0  0  0
   41.0630   32.5801   44.3805 H   0  0  0  0  0  0  0  0  0  0  0  0
   39.4351   30.7345   44.1879 H   0  0  0  0  0  0  0  0  0  0  0  0
   37.8211   30.3628   46.0626 H   0  0  0  0  0  0  0  0  0  0  0  0
   35.4360   31.1330   46.5130 H   0  0  0  0  0  0  0  0  0  0  0  0
   37.6238   29.8137   49.9826 H   0  0  0  0  0  0  0  0  0  0  0  0
   34.5387   27.0339   49.5459 H   0  0  0  0  0  0  0  0  0  0  0  0
   31.7376   27.2032   49.2096 H   0  0  0  0  0  0  0  0  0  0  0  0
   31.8289   28.5751   48.4812 H   0  0  0  0  0  0  0  0  0  0  0  0
   33.3403   26.8845   46.4433 H   0  0  0  0  0  0  0  0  0  0  0  0
   33.0306   24.9818   48.5803 H   0  0  0  0  0  0  0  0  0  0  0  0
   32.1369   25.0716   47.0247 H   0  0  0  0  0  0  0  0  0  0  0  0
   33.9232   24.8817   47.0247 H   0  0  0  0  0  0  0  0  0  0  0  0
  1 12  1  0
  1  2  2  0
  2  3  1  0
  4  3  2  0
  5  4  1  0
  6  5  2  0
  7  6  1  0
  8  7  2  0
  8  9  1  0
  9 10  2  0
 10  5  1  0
 10  1  1  0
 11 16  2  0
 11 12  1  0
 12 13  2  0
 13 14  1  0
 15 17  1  0
 15 14  2  0
 16 15  1  0
 18 17  1  0
 19 20  1  0
 19 18  1  0
 19 17  1  0
  2 21  1  0
  3 22  1  0
  4 23  1  0
  6 24  1  0
  7 25  1  0
  8 26  1  0
  9 27  1  0
 11 28  1  0
 13 29  1  0
 17 30  1  1
 18 31  1  0
 18 32  1  0
 19 33  1  6
 20 34  1  0
 20 35  1  0
 20 36  1  0
M  ISO  8  21  14  22  14  23  14  24  14  25  14  26  14  27  14  28  14
M  ISO  8  29  14  30  13  31  13  32  13  33  13  34   8  35   8  36   8
M  END
>  <minimizedAffinity>  (1) 
-6.71472359

>  <minimizedRMSD>  (1) 
0.611120284

$$$$
