
     RDKit          3D

 39 42  0  0  1  0  0  0  0  0999 V2000
   35.8020   30.6910   47.4840 C   0  0  0  0  0  0  0  0  0  0  0  0
   37.0160   30.8630   48.1250 C   0  0  0  0  0  0  0  0  0  0  0  0
   37.2800   29.9280   49.1750 C   0  0  0  0  0  0  0  0  0  0  0  0
   36.3630   28.9660   49.4720 N   0  0  0  0  0  0  0  0  0  0  0  0
   35.2020   28.8650   48.8020 C   0  0  0  0  0  0  0  0  0  0  0  0
   34.9340   29.7220   47.8210 N   0  0  0  0  0  0  0  0  0  0  0  0
   38.0610   31.8420   47.8970 C   0  0  0  0  0  0  0  0  0  0  0  0
   38.1440   32.7390   48.9170 C   0  0  0  0  0  0  0  0  0  0  0  0
   39.0850   33.7740   48.9030 C   0  0  0  0  0  0  0  0  0  0  0  0
   39.9520   33.8870   47.8270 C   0  0  0  0  0  0  0  0  0  0  0  0
   39.8550   32.9630   46.7920 C   0  0  0  0  0  0  0  0  0  0  0  0
   40.6830   32.9950   45.6680 C   0  0  0  0  0  0  0  0  0  0  0  0
   40.5340   32.0490   44.6780 C   0  0  0  0  0  0  0  0  0  0  0  0
   39.5830   31.0470   44.7490 C   0  0  0  0  0  0  0  0  0  0  0  0
   38.7660   31.0230   45.8680 C   0  0  0  0  0  0  0  0  0  0  0  0
   38.9290   31.9720   46.8420 C   0  0  0  0  0  0  0  0  0  0  0  0
   34.2410   27.7970   49.1750 C   0  0  1  0  0  0  0  0  0  0  0  0
   32.8100   27.9510   48.7970 C   0  0  0  0  0  0  0  0  0  0  0  0
   33.6810   26.8860   48.1540 C   0  0  1  0  0  0  0  0  0  0  0  0
   33.8880   27.0050   46.7040 C   0  0  0  0  0  0  0  0  0  0  0  0
   34.0130   25.6490   46.0290 C   0  0  0  0  0  0  0  0  0  0  0  0
   35.5364   31.3755   46.6649 H   0  0  0  0  0  0  0  0  0  0  0  0
   38.2214   29.9859   49.7411 H   0  0  0  0  0  0  0  0  0  0  0  0
   37.4564   32.6483   49.7708 H   0  0  0  0  0  0  0  0  0  0  0  0
   39.1365   34.4902   49.7363 H   0  0  0  0  0  0  0  0  0  0  0  0
   40.7016   34.6913   47.7926 H   0  0  0  0  0  0  0  0  0  0  0  0
   41.4532   33.7746   45.5733 H   0  0  0  0  0  0  0  0  0  0  0  0
   41.1948   32.0918   43.7996 H   0  0  0  0  0  0  0  0  0  0  0  0
   39.4794   30.2991   43.9491 H   0  0  0  0  0  0  0  0  0  0  0  0
   37.9926   30.2479   45.9732 H   0  0  0  0  0  0  0  0  0  0  0  0
   34.7864   27.6342   50.1163 H   0  0  0  0  0  0  0  0  0  0  0  0
   32.0174   27.6646   49.5039 H   0  0  0  0  0  0  0  0  0  0  0  0
   32.1799   28.7750   48.4309 H   0  0  0  0  0  0  0  0  0  0  0  0
   33.7232   25.7913   48.0544 H   0  0  0  0  0  0  0  0  0  0  0  0
   33.0326   27.5409   46.2668 H   0  0  0  0  0  0  0  0  0  0  0  0
   34.8285   27.5516   46.5408 H   0  0  0  0  0  0  0  0  0  0  0  0
   34.0854   24.8632   46.7954 H   0  0  0  0  0  0  0  0  0  0  0  0
   33.1277   25.4687   45.4016 H   0  0  0  0  0  0  0  0  0  0  0  0
   34.9164   25.6336   45.4016 H   0  0  0  0  0  0  0  0  0  0  0  0
  1  6  2  0
  1  2  1  0
  2  3  2  0
  3  4  1  0
  5 17  1  0
  5  4  2  0
  6  5  1  0
  7  2  1  0
  7  8  2  0
  9  8  1  0
 10  9  2  0
 11 16  2  0
 11 10  1  0
 12 11  1  0
 13 14  1  0
 13 12  2  0
 14 15  2  0
 15 16  1  0
 16  7  1  0
 18 17  1  0
 19 18  1  0
 19 17  1  0
 20 19  1  0
 21 20  1  0
  1 22  1  0
  3 23  1  0
  8 24  1  0
  9 25  1  0
 10 26  1  0
 12 27  1  0
 13 28  1  0
 14 29  1  0
 15 30  1  0
 17 31  1  1
 18 32  1  0
 18 33  1  0
 19 34  1  1
 20 35  1  0
 20 36  1  0
 21 37  1  0
 21 38  1  0
 21 39  1  0
M  ISO  8  22  14  23  14  24  14  25  14  26  14  27  14  28  14  29  14
M  ISO  8  30  14  31  13  32  13  33  13  34  13  35   8  36   8  37   8
M  ISO  2  38   8  39   8
M  END
>  <minimizedAffinity>  (1) 
-6.59043455

>  <minimizedRMSD>  (1) 
0.26056388

$$$$
