
     RDKit          3D

 40 43  0  0  1  0  0  0  0  0999 V2000
   35.8000   30.5860   47.4000 C   0  0  0  0  0  0  0  0  0  0  0  0
   36.8870   30.8350   48.2160 C   0  0  0  0  0  0  0  0  0  0  0  0
   37.0400   29.9270   49.3110 C   0  0  0  0  0  0  0  0  0  0  0  0
   36.1450   28.9170   49.4760 N   0  0  0  0  0  0  0  0  0  0  0  0
   35.1220   28.7330   48.6550 C   0  0  0  0  0  0  0  0  0  0  0  0
   34.9490   29.5700   47.6130 N   0  0  0  0  0  0  0  0  0  0  0  0
   37.8940   31.8780   48.1330 C   0  0  0  0  0  0  0  0  0  0  0  0
   37.9580   32.6010   49.2940 C   0  0  0  0  0  0  0  0  0  0  0  0
   38.8630   33.6620   49.4340 C   0  0  0  0  0  0  0  0  0  0  0  0
   39.7050   33.9840   48.3830 C   0  0  0  0  0  0  0  0  0  0  0  0
   39.6180   33.2350   47.2150 C   0  0  0  0  0  0  0  0  0  0  0  0
   40.4250   33.4840   46.1000 C   0  0  0  0  0  0  0  0  0  0  0  0
   40.2920   32.7040   44.9720 C   0  0  0  0  0  0  0  0  0  0  0  0
   39.3850   31.6730   44.8910 C   0  0  0  0  0  0  0  0  0  0  0  0
   38.5860   31.4280   45.9970 C   0  0  0  0  0  0  0  0  0  0  0  0
   38.7320   32.2100   47.1060 C   0  0  0  0  0  0  0  0  0  0  0  0
   34.1660   27.6200   48.8920 C   0  0  1  0  0  0  0  0  0  0  0  0
   32.7080   27.8490   48.6940 C   0  0  0  0  0  0  0  0  0  0  0  0
   33.4830   26.9720   47.7510 C   0  0  2  0  0  0  0  0  0  0  0  0
   33.1800   25.6120   47.6340 N   0  0  0  0  0  0  0  0  0  0  0  0
   34.0130   24.6480   46.9610 C   0  0  0  0  0  0  0  0  0  0  0  0
   34.5730   25.0690   45.8760 N   0  0  0  0  0  0  0  0  0  0  0  0
   34.1660   23.3280   47.5130 N   0  0  0  0  0  0  0  0  0  0  0  0
   35.1950   24.4420   45.3200 H   0  0  0  0  0  0  0  0  0  0  0  0
   35.6246   31.2484   46.5395 H   0  0  0  0  0  0  0  0  0  0  0  0
   37.8767   30.0454   50.0152 H   0  0  0  0  0  0  0  0  0  0  0  0
   37.2893   32.3454   50.1291 H   0  0  0  0  0  0  0  0  0  0  0  0
   38.9041   34.2349   50.3722 H   0  0  0  0  0  0  0  0  0  0  0  0
   40.4245   34.8115   48.4700 H   0  0  0  0  0  0  0  0  0  0  0  0
   41.1630   34.2994   46.1236 H   0  0  0  0  0  0  0  0  0  0  0  0
   40.9348   32.9135   44.1043 H   0  0  0  0  0  0  0  0  0  0  0  0
   39.2967   31.0636   43.9795 H   0  0  0  0  0  0  0  0  0  0  0  0
   37.8451   30.6151   45.9810 H   0  0  0  0  0  0  0  0  0  0  0  0
   34.7889   27.2571   49.7228 H   0  0  0  0  0  0  0  0  0  0  0  0
   31.9800   27.4047   49.3888 H   0  0  0  0  0  0  0  0  0  0  0  0
   32.0625   28.7333   48.5877 H   0  0  0  0  0  0  0  0  0  0  0  0
   33.7046   26.9320   46.6743 H   0  0  0  0  0  0  0  0  0  0  0  0
   32.3028   25.2769   48.0572 H   0  0  0  0  0  0  0  0  0  0  0  0
   34.7605   22.6357   47.0353 H   0  0  0  0  0  0  0  0  0  0  0  0
   33.6810   23.0754   48.3859 H   0  0  0  0  0  0  0  0  0  0  0  0
  1  6  2  0
  1  2  1  0
  2  3  2  0
  3  4  1  0
  5 17  1  0
  5  4  2  0
  6  5  1  0
  7  2  1  0
  7  8  2  0
  8  9  1  0
 10  9  2  0
 11 10  1  0
 12 11  2  0
 13 12  1  0
 14 13  2  0
 14 15  1  0
 15 16  2  0
 16 11  1  0
 16  7  1  0
 18 17  1  0
 19 18  1  0
 19 17  1  0
 20 19  1  0
 21 23  1  0
 21 20  1  0
 22 21  2  0
 24 22  1  0
  1 25  1  0
  3 26  1  0
  8 27  1  0
  9 28  1  0
 10 29  1  0
 12 30  1  0
 13 31  1  0
 14 32  1  0
 15 33  1  0
 17 34  1  1
 18 35  1  0
 18 36  1  0
 19 37  1  6
 20 38  1  0
 23 39  1  0
 23 40  1  0
M  ISO  8  25  14  26  14  27  14  28  14  29  14  30  14  31  14  32  14
M  ISO  5  33  14  34  13  35  13  36  13  37  13
M  END
>  <minimizedAffinity>  (1) 
-6.58979702

>  <minimizedRMSD>  (1) 
0.387046546

$$$$
