
     RDKit          3D

 40 44  0  0  1  0  0  0  0  0999 V2000
   35.6180   30.6110   47.4410 C   0  0  0  0  0  0  0  0  0  0  0  0
   36.8230   30.7420   48.1060 C   0  0  0  0  0  0  0  0  0  0  0  0
   37.0670   29.7670   49.1270 C   0  0  0  0  0  0  0  0  0  0  0  0
   36.1350   28.8070   49.3750 N   0  0  0  0  0  0  0  0  0  0  0  0
   34.9980   28.7350   48.7020 C   0  0  0  0  0  0  0  0  0  0  0  0
   34.7600   29.6280   47.7570 N   0  0  0  0  0  0  0  0  0  0  0  0
   37.8810   31.7200   47.9290 C   0  0  0  0  0  0  0  0  0  0  0  0
   37.9380   32.5960   48.9880 C   0  0  0  0  0  0  0  0  0  0  0  0
   38.8830   33.6230   49.0280 C   0  0  0  0  0  0  0  0  0  0  0  0
   39.7790   33.7630   47.9890 C   0  0  0  0  0  0  0  0  0  0  0  0
   39.7100   32.8740   46.9310 C   0  0  0  0  0  0  0  0  0  0  0  0
   40.5710   32.9360   45.8360 C   0  0  0  0  0  0  0  0  0  0  0  0
   40.4440   32.0160   44.8130 C   0  0  0  0  0  0  0  0  0  0  0  0
   39.4920   31.0210   44.8210 C   0  0  0  0  0  0  0  0  0  0  0  0
   38.6390   30.9610   45.9080 C   0  0  0  0  0  0  0  0  0  0  0  0
   38.7770   31.8750   46.9070 C   0  0  0  0  0  0  0  0  0  0  0  0
   34.0150   27.6800   49.0160 C   0  0  1  0  0  0  0  0  0  0  0  0
   32.5640   27.9060   48.7940 C   0  0  0  0  0  0  0  0  0  0  0  0
   33.3070   26.9340   47.9200 C   0  0  1  0  0  0  0  0  0  0  0  0
   33.4610   27.2880   46.5050 C   0  0  0  0  0  0  0  0  0  0  0  0
   34.1730   26.7830   45.4370 C   0  0  0  0  0  0  0  0  0  0  0  0
   33.9540   27.4790   44.3110 N   0  0  0  0  0  0  0  0  0  0  0  0
   33.0890   28.4570   44.6290 C   0  0  0  0  0  0  0  0  0  0  0  0
   32.8000   28.3380   45.9370 N   0  0  0  0  0  0  0  0  0  0  0  0
   35.3588   31.3216   46.6424 H   0  0  0  0  0  0  0  0  0  0  0  0
   38.0015   29.7943   49.7066 H   0  0  0  0  0  0  0  0  0  0  0  0
   37.2257   32.4853   49.8189 H   0  0  0  0  0  0  0  0  0  0  0  0
   38.9126   34.3155   49.8821 H   0  0  0  0  0  0  0  0  0  0  0  0
   40.5325   34.5643   48.0011 H   0  0  0  0  0  0  0  0  0  0  0  0
   41.3475   33.7135   45.7868 H   0  0  0  0  0  0  0  0  0  0  0  0
   41.1317   32.0810   43.9569 H   0  0  0  0  0  0  0  0  0  0  0  0
   39.4129   30.3006   43.9935 H   0  0  0  0  0  0  0  0  0  0  0  0
   37.8605   30.1860   45.9643 H   0  0  0  0  0  0  0  0  0  0  0  0
   34.6325   27.3872   49.8779 H   0  0  0  0  0  0  0  0  0  0  0  0
   31.8323   27.5363   49.5275 H   0  0  0  0  0  0  0  0  0  0  0  0
   31.9359   28.7903   48.6109 H   0  0  0  0  0  0  0  0  0  0  0  0
   33.2440   25.8685   47.6539 H   0  0  0  0  0  0  0  0  0  0  0  0
   34.8418   25.9120   45.5009 H   0  0  0  0  0  0  0  0  0  0  0  0
   32.6892   29.2181   43.9428 H   0  0  0  0  0  0  0  0  0  0  0  0
   32.1589   28.9623   46.4471 H   0  0  0  0  0  0  0  0  0  0  0  0
  1  6  2  0
  1  2  1  0
  2  3  2  0
  3  4  1  0
  5 17  1  0
  5  4  2  0
  6  5  1  0
  7  2  1  0
  7  8  2  0
  8  9  1  0
 10  9  2  0
 11 10  1  0
 12 11  2  0
 13 14  2  0
 13 12  1  0
 14 15  1  0
 15 16  2  0
 16 11  1  0
 16  7  1  0
 18 17  1  0
 19 18  1  0
 19 17  1  0
 20 19  1  0
 21 20  2  0
 22 23  2  0
 22 21  1  0
 23 24  1  0
 24 20  1  0
  1 25  1  0
  3 26  1  0
  8 27  1  0
  9 28  1  0
 10 29  1  0
 12 30  1  0
 13 31  1  0
 14 32  1  0
 15 33  1  0
 17 34  1  1
 18 35  1  0
 18 36  1  0
 19 37  1  6
 21 38  1  0
 23 39  1  0
 24 40  1  0
M  ISO  8  25  14  26  14  27  14  28  14  29  14  30  14  31  14  32  14
M  ISO  8  33  14  34  13  35  13  36  13  37  13  38  14  39  14  40   9
M  END
>  <minimizedAffinity>  (1) 
-6.51454258

>  <minimizedRMSD>  (1) 
0.536956191

$$$$
