
     RDKit          3D

 46 50  0  0  1  0  0  0  0  0999 V2000
   35.8050   30.6900   47.4660 C   0  0  0  0  0  0  0  0  0  0  0  0
   37.0180   30.8580   48.1080 C   0  0  0  0  0  0  0  0  0  0  0  0
   37.2760   29.9170   49.1570 C   0  0  0  0  0  0  0  0  0  0  0  0
   36.3540   28.9580   49.4480 N   0  0  0  0  0  0  0  0  0  0  0  0
   35.1940   28.8630   48.7730 C   0  0  0  0  0  0  0  0  0  0  0  0
   34.9300   29.7240   47.7940 N   0  0  0  0  0  0  0  0  0  0  0  0
   38.0650   31.8380   47.8830 C   0  0  0  0  0  0  0  0  0  0  0  0
   38.1390   32.7310   48.9190 C   0  0  0  0  0  0  0  0  0  0  0  0
   39.0830   33.7670   48.9090 C   0  0  0  0  0  0  0  0  0  0  0  0
   39.9480   33.8880   47.8380 C   0  0  0  0  0  0  0  0  0  0  0  0
   39.8550   32.9710   46.7990 C   0  0  0  0  0  0  0  0  0  0  0  0
   40.6810   33.0110   45.6810 C   0  0  0  0  0  0  0  0  0  0  0  0
   40.5390   32.0730   44.6830 C   0  0  0  0  0  0  0  0  0  0  0  0
   39.5900   31.0680   44.7410 C   0  0  0  0  0  0  0  0  0  0  0  0
   38.7660   31.0320   45.8590 C   0  0  0  0  0  0  0  0  0  0  0  0
   38.9260   31.9700   46.8320 C   0  0  0  0  0  0  0  0  0  0  0  0
   34.2350   27.7920   49.1490 C   0  0  1  0  0  0  0  0  0  0  0  0
   32.7770   28.0530   49.0160 C   0  0  0  0  0  0  0  0  0  0  0  0
   33.4750   27.0750   48.0810 C   0  0  1  0  0  0  0  0  0  0  0  0
   33.6540   27.3830   46.7000 N   0  0  0  0  0  0  0  0  0  0  0  0
   34.1180   26.2110   45.9870 C   0  0  0  0  0  0  0  0  0  0  0  0
   33.0140   25.5780   45.1670 C   0  0  0  0  0  0  0  0  0  0  0  0
   32.5360   26.4440   44.1870 O   0  0  0  0  0  0  0  0  0  0  0  0
   32.3560   27.7380   44.6320 C   0  0  0  0  0  0  0  0  0  0  0  0
   32.3700   27.7580   46.1410 C   0  0  0  0  0  0  0  0  0  0  0  0
   35.5441   31.3788   46.6490 H   0  0  0  0  0  0  0  0  0  0  0  0
   38.2161   29.9690   49.7257 H   0  0  0  0  0  0  0  0  0  0  0  0
   37.4486   32.6338   49.7698 H   0  0  0  0  0  0  0  0  0  0  0  0
   39.1349   34.4779   49.7468 H   0  0  0  0  0  0  0  0  0  0  0  0
   40.6954   34.6946   47.8090 H   0  0  0  0  0  0  0  0  0  0  0  0
   41.4492   33.7934   45.5937 H   0  0  0  0  0  0  0  0  0  0  0  0
   41.2040   32.1246   43.8083 H   0  0  0  0  0  0  0  0  0  0  0  0
   39.4918   30.3269   43.9341 H   0  0  0  0  0  0  0  0  0  0  0  0
   37.9937   30.2548   45.9566 H   0  0  0  0  0  0  0  0  0  0  0  0
   34.8908   27.4684   49.9707 H   0  0  0  0  0  0  0  0  0  0  0  0
   32.0785   27.6819   49.7804 H   0  0  0  0  0  0  0  0  0  0  0  0
   32.1533   28.9494   48.8839 H   0  0  0  0  0  0  0  0  0  0  0  0
   33.3367   26.0213   47.7970 H   0  0  0  0  0  0  0  0  0  0  0  0
   34.9374   26.5046   45.3144 H   0  0  0  0  0  0  0  0  0  0  0  0
   34.4596   25.4731   46.7278 H   0  0  0  0  0  0  0  0  0  0  0  0
   33.4059   24.6722   44.6813 H   0  0  0  0  0  0  0  0  0  0  0  0
   32.1817   25.3351   45.8440 H   0  0  0  0  0  0  0  0  0  0  0  0
   33.1682   28.3736   44.2494 H   0  0  0  0  0  0  0  0  0  0  0  0
   31.3900   28.1192   44.2694 H   0  0  0  0  0  0  0  0  0  0  0  0
   32.1232   28.7748   46.4805 H   0  0  0  0  0  0  0  0  0  0  0  0
   31.6319   27.0195   46.4870 H   0  0  0  0  0  0  0  0  0  0  0  0
  1  6  2  0
  1  2  1  0
  2  3  2  0
  3  4  1  0
  5 17  1  0
  5  4  2  0
  6  5  1  0
  7  2  1  0
  7  8  2  0
  9  8  1  0
 10  9  2  0
 11 16  2  0
 11 10  1  0
 12 11  1  0
 13 14  1  0
 13 12  2  0
 14 15  2  0
 15 16  1  0
 16  7  1  0
 18 17  1  0
 19 18  1  0
 19 17  1  0
 20 19  1  0
 21 20  1  0
 22 21  1  0
 23 24  1  0
 23 22  1  0
 24 25  1  0
 25 20  1  0
  1 26  1  0
  3 27  1  0
  8 28  1  0
  9 29  1  0
 10 30  1  0
 12 31  1  0
 13 32  1  0
 14 33  1  0
 15 34  1  0
 17 35  1  1
 18 36  1  0
 18 37  1  0
 19 38  1  6
 21 39  1  0
 21 40  1  0
 22 41  1  0
 22 42  1  0
 24 43  1  0
 24 44  1  0
 25 45  1  0
 25 46  1  0
M  ISO  8  26  14  27  14  28  14  29  14  30  14  31  14  32  14  33  14
M  ISO  8  34  14  35  13  36  13  37  13  38  13  39  13  40  13  41  13
M  ISO  5  42  13  43  13  44  13  45  13  46  13
M  END
>  <minimizedAffinity>  (1) 
-6.48102999

>  <minimizedRMSD>  (1) 
0.325973362

$$$$
