
     RDKit          3D

 39 43  0  0  1  0  0  0  0  0999 V2000
   34.5410   30.4300   47.6760 C   0  0  0  0  0  0  0  0  0  0  0  0
   35.7820   30.3130   48.2760 C   0  0  0  0  0  0  0  0  0  0  0  0
   35.9660   29.1120   49.0330 C   0  0  0  0  0  0  0  0  0  0  0  0
   34.9560   28.1990   49.1170 N   0  0  0  0  0  0  0  0  0  0  0  0
   33.7920   28.3810   48.5130 C   0  0  0  0  0  0  0  0  0  0  0  0
   33.5830   29.4980   47.7920 N   0  0  0  0  0  0  0  0  0  0  0  0
   36.9140   31.2150   48.2540 C   0  0  0  0  0  0  0  0  0  0  0  0
   37.0290   31.8910   49.4480 C   0  0  0  0  0  0  0  0  0  0  0  0
   38.0590   32.8210   49.6490 C   0  0  0  0  0  0  0  0  0  0  0  0
   38.9690   33.0580   48.6310 C   0  0  0  0  0  0  0  0  0  0  0  0
   38.8310   32.3640   47.4390 C   0  0  0  0  0  0  0  0  0  0  0  0
   39.6990   32.5370   46.3550 C   0  0  0  0  0  0  0  0  0  0  0  0
   39.5020   31.8140   45.2000 C   0  0  0  0  0  0  0  0  0  0  0  0
   38.4790   30.9190   45.0610 C   0  0  0  0  0  0  0  0  0  0  0  0
   37.6120   30.7430   46.1320 C   0  0  0  0  0  0  0  0  0  0  0  0
   37.8190   31.4630   47.2660 C   0  0  0  0  0  0  0  0  0  0  0  0
   32.7230   27.3560   48.6440 C   0  0  1  0  0  0  0  0  0  0  0  0
   31.3480   27.6660   48.1710 C   0  0  0  0  0  0  0  0  0  0  0  0
   32.1930   26.6730   47.4170 C   0  0  1  0  0  0  0  0  0  0  0  0
   32.8010   27.0600   46.1700 N   0  0  0  0  0  0  0  0  0  0  0  0
   33.9130   26.3990   45.8000 C   0  0  0  0  0  0  0  0  0  0  0  0
   34.3510   26.8870   44.6120 N   0  0  0  0  0  0  0  0  0  0  0  0
   33.4860   27.8680   44.2470 C   0  0  0  0  0  0  0  0  0  0  0  0
   32.5350   27.9640   45.2190 N   0  0  0  0  0  0  0  0  0  0  0  0
   34.3301   31.3279   47.0766 H   0  0  0  0  0  0  0  0  0  0  0  0
   36.9208   28.9256   49.5464 H   0  0  0  0  0  0  0  0  0  0  0  0
   36.3046   31.6993   50.2533 H   0  0  0  0  0  0  0  0  0  0  0  0
   38.1439   33.3574   50.6056 H   0  0  0  0  0  0  0  0  0  0  0  0
   39.7852   33.7829   48.7663 H   0  0  0  0  0  0  0  0  0  0  0  0
   40.5355   33.2479   46.4255 H   0  0  0  0  0  0  0  0  0  0  0  0
   40.1939   31.9624   44.3578 H   0  0  0  0  0  0  0  0  0  0  0  0
   38.3457   30.3535   44.1269 H   0  0  0  0  0  0  0  0  0  0  0  0
   36.7736   30.0342   46.0636 H   0  0  0  0  0  0  0  0  0  0  0  0
   33.1571   27.0120   49.5944 H   0  0  0  0  0  0  0  0  0  0  0  0
   30.4775   27.3206   48.7480 H   0  0  0  0  0  0  0  0  0  0  0  0
   30.8073   28.5862   47.9047 H   0  0  0  0  0  0  0  0  0  0  0  0
   32.0328   25.6386   47.0787 H   0  0  0  0  0  0  0  0  0  0  0  0
   34.3919   25.5899   46.3710 H   0  0  0  0  0  0  0  0  0  0  0  0
   33.5425   28.4757   43.3319 H   0  0  0  0  0  0  0  0  0  0  0  0
  1  6  2  0
  1  2  1  0
  2  3  2  0
  3  4  1  0
  5 17  1  0
  5  4  2  0
  6  5  1  0
  7  2  1  0
  7  8  2  0
  8  9  1  0
 10  9  2  0
 11 10  1  0
 12 11  2  0
 13 12  1  0
 14 13  2  0
 14 15  1  0
 15 16  2  0
 16 11  1  0
 16  7  1  0
 18 17  1  0
 19 18  1  0
 19 17  1  0
 20 19  1  0
 21 20  1  0
 22 21  2  0
 23 22  1  0
 23 24  2  0
 24 20  1  0
  1 25  1  0
  3 26  1  0
  8 27  1  0
  9 28  1  0
 10 29  1  0
 12 30  1  0
 13 31  1  0
 14 32  1  0
 15 33  1  0
 17 34  1  1
 18 35  1  0
 18 36  1  0
 19 37  1  1
 21 38  1  0
 23 39  1  0
M  ISO  8  25  14  26  14  27  14  28  14  29  14  30  14  31  14  32  14
M  ISO  7  33  14  34  13  35  13  36  13  37  13  38  14  39  14
M  END
>  <minimizedAffinity>  (1) 
-6.21535587

>  <minimizedRMSD>  (1) 
1.51486766

$$$$
