
     RDKit          3D

 44 47  0  0  0  0  0  0  0  0999 V2000
   33.5000   30.4250   44.1650 C   0  0  0  0  0  0  0  0  0  0  0  0
   33.7720   31.4710   43.2550 C   0  0  0  0  0  0  0  0  0  0  0  0
   32.6620   32.0990   42.6300 C   0  0  0  0  0  0  0  0  0  0  0  0
   31.4040   31.6560   42.9440 N   0  0  0  0  0  0  0  0  0  0  0  0
   31.1960   30.6610   43.8140 C   0  0  0  0  0  0  0  0  0  0  0  0
   32.2290   30.0630   44.4080 N   0  0  0  0  0  0  0  0  0  0  0  0
   29.8660   30.2510   44.0930 N   0  0  0  0  0  0  0  0  0  0  0  0
   28.9210   30.2400   43.1470 C   0  0  0  0  0  0  0  0  0  0  0  0
   27.6170   29.8390   43.4000 C   0  0  0  0  0  0  0  0  0  0  0  0
   27.3800   29.4590   44.6920 C   0  0  0  0  0  0  0  0  0  0  0  0
   26.2310   29.0770   45.0280 O   0  0  0  0  0  0  0  0  0  0  0  0
   28.2710   29.4450   45.6780 N   0  0  0  0  0  0  0  0  0  0  0  0
   29.5370   29.8530   45.3530 C   0  0  0  0  0  0  0  0  0  0  0  0
   30.4050   29.8530   46.2650 O   0  0  0  0  0  0  0  0  0  0  0  0
   27.5870   27.7990   49.4740 C   0  0  0  0  0  0  0  0  0  0  0  0
   27.4430   29.1520   49.3180 C   0  0  0  0  0  0  0  0  0  0  0  0
   27.6460   29.7850   48.1130 C   0  0  0  0  0  0  0  0  0  0  0  0
   28.0060   29.0410   47.0200 C   0  0  0  0  0  0  0  0  0  0  0  0
   28.1610   27.6580   47.1410 C   0  0  0  0  0  0  0  0  0  0  0  0
   27.9530   27.0270   48.3740 C   0  0  0  0  0  0  0  0  0  0  0  0
   27.3210   27.0520   51.0150 S   0  0  0  0  0  0  0  0  0  0  0  0
   28.5230   27.0240   51.8800 O   0  0  0  0  0  0  0  0  0  0  0  0
   26.2030   27.7940   51.7070 O   0  0  0  0  0  0  0  0  0  0  0  0
   26.5500   29.8050   42.3950 C   0  0  0  0  0  0  0  0  0  0  0  0
   25.7000   30.9990   42.3320 C   0  0  0  0  0  0  0  0  0  0  0  0
   25.7450   32.1630   43.0670 C   0  0  0  0  0  0  0  0  0  0  0  0
   24.8660   33.2070   42.8810 C   0  0  0  0  0  0  0  0  0  0  0  0
   23.9180   33.0630   41.9250 N   0  0  0  0  0  0  0  0  0  0  0  0
   23.8490   31.9280   41.1860 C   0  0  0  0  0  0  0  0  0  0  0  0
   24.7220   30.9120   41.3820 N   0  0  0  0  0  0  0  0  0  0  0  0
   34.3271   29.9080   44.6736 H   0  0  0  0  0  0  0  0  0  0  0  0
   34.8033   31.7867   43.0390 H   0  0  0  0  0  0  0  0  0  0  0  0
   32.8084   32.9198   41.9124 H   0  0  0  0  0  0  0  0  0  0  0  0
   29.1876   30.5611   42.1293 H   0  0  0  0  0  0  0  0  0  0  0  0
   27.1537   29.7566   50.1902 H   0  0  0  0  0  0  0  0  0  0  0  0
   27.5208   30.8746   48.0283 H   0  0  0  0  0  0  0  0  0  0  0  0
   28.4481   27.0610   46.2628 H   0  0  0  0  0  0  0  0  0  0  0  0
   28.0768   25.9384   48.4721 H   0  0  0  0  0  0  0  0  0  0  0  0
   26.9950   25.7401   50.7926 H   0  0  0  0  0  0  0  0  0  0  0  0
   27.0182   29.6706   41.4088 H   0  0  0  0  0  0  0  0  0  0  0  0
   25.8863   28.9784   42.6888 H   0  0  0  0  0  0  0  0  0  0  0  0
   26.5208   32.2638   43.8403 H   0  0  0  0  0  0  0  0  0  0  0  0
   24.9317   34.1232   43.4863 H   0  0  0  0  0  0  0  0  0  0  0  0
   23.0708   31.8313   40.4146 H   0  0  0  0  0  0  0  0  0  0  0  0
  1  6  2  0
  2  1  1  0
  3  4  1  0
  3  2  2  0
  4  5  2  0
  5  7  1  0
  5  6  1  0
  7 13  1  0
  8  9  2  0
  8  7  1  0
  9 10  1  0
 10 11  2  0
 10 12  1  0
 12 18  1  0
 13 12  1  0
 13 14  2  0
 15 21  1  0
 16 15  2  0
 17 16  1  0
 18 19  1  0
 18 17  2  0
 19 20  2  0
 20 15  1  0
 21 23  2  0
 21 22  2  0
 24  9  1  0
 25 24  1  0
 25 26  2  0
 27 26  1  0
 28 27  2  0
 29 30  2  0
 29 28  1  0
 30 25  1  0
  1 31  1  0
  2 32  1  0
  3 33  1  0
  8 34  1  0
 16 35  1  0
 17 36  1  0
 19 37  1  0
 20 38  1  0
 21 39  1  0
 24 40  1  0
 24 41  1  0
 26 42  1  0
 27 43  1  0
 29 44  1  0
M  ISO  8  31  14  32  14  33  14  34  14  35  14  36  14  37  14  38  14
M  ISO  6  39  11  40   8  41   8  42  14  43  14  44  14
M  END
>  <minimizedAffinity>  (1) 
-5.2517972

>  <minimizedRMSD>  (1) 
0.484132379

$$$$
