
     RDKit          3D

 43 47  0  0  1  0  0  0  0  0999 V2000
   35.4940   30.3500   47.2610 C   0  0  0  0  0  0  0  0  0  0  0  0
   36.5690   30.5570   48.1120 C   0  0  0  0  0  0  0  0  0  0  0  0
   36.6600   29.6280   49.1980 C   0  0  0  0  0  0  0  0  0  0  0  0
   35.7290   28.6490   49.3210 N   0  0  0  0  0  0  0  0  0  0  0  0
   34.7150   28.5100   48.4580 C   0  0  0  0  0  0  0  0  0  0  0  0
   34.6110   29.3570   47.4460 N   0  0  0  0  0  0  0  0  0  0  0  0
   37.6010   31.5630   48.0670 C   0  0  0  0  0  0  0  0  0  0  0  0
   37.5540   32.3800   49.1670 C   0  0  0  0  0  0  0  0  0  0  0  0
   38.4660   33.4350   49.3340 C   0  0  0  0  0  0  0  0  0  0  0  0
   39.4310   33.6560   48.3740 C   0  0  0  0  0  0  0  0  0  0  0  0
   39.4570   32.8210   47.2790 C   0  0  0  0  0  0  0  0  0  0  0  0
   40.4000   32.9540   46.2330 C   0  0  0  0  0  0  0  0  0  0  0  0
   40.3780   32.0910   45.1640 C   0  0  0  0  0  0  0  0  0  0  0  0
   39.4610   31.0830   45.0570 C   0  0  0  0  0  0  0  0  0  0  0  0
   38.5320   30.9380   46.0720 C   0  0  0  0  0  0  0  0  0  0  0  0
   38.5600   31.7990   47.1310 C   0  0  0  0  0  0  0  0  0  0  0  0
   33.7450   27.4090   48.6580 C   0  0  1  0  0  0  0  0  0  0  0  0
   32.2830   27.7350   48.6840 C   0  0  0  0  0  0  0  0  0  0  0  0
   32.8810   26.9650   47.5280 C   0  0  2  0  0  0  0  0  0  0  0  0
   32.5600   25.2020   47.3560 S   0  0  0  0  0  0  0  0  0  0  0  0
   34.0340   24.4030   46.7510 C   0  0  0  0  0  0  0  0  0  0  0  0
   34.4590   23.3590   47.5410 C   0  0  0  0  0  0  0  0  0  0  0  0
   35.5870   22.6060   47.2490 C   0  0  0  0  0  0  0  0  0  0  0  0
   36.3440   22.8960   46.1100 C   0  0  0  0  0  0  0  0  0  0  0  0
   35.8700   23.9600   45.3480 C   0  0  0  0  0  0  0  0  0  0  0  0
   34.7710   24.6710   45.6580 N   0  0  0  0  0  0  0  0  0  0  0  0
   35.3602   31.0248   46.4026 H   0  0  0  0  0  0  0  0  0  0  0  0
   37.4793   29.7077   49.9276 H   0  0  0  0  0  0  0  0  0  0  0  0
   36.7859   32.2056   49.9349 H   0  0  0  0  0  0  0  0  0  0  0  0
   38.4110   34.0798   50.2235 H   0  0  0  0  0  0  0  0  0  0  0  0
   40.1582   34.4746   48.4796 H   0  0  0  0  0  0  0  0  0  0  0  0
   41.1551   33.7527   46.2756 H   0  0  0  0  0  0  0  0  0  0  0  0
   41.1248   32.2157   44.3660 H   0  0  0  0  0  0  0  0  0  0  0  0
   39.4616   30.4069   44.1893 H   0  0  0  0  0  0  0  0  0  0  0  0
   37.7789   30.1375   46.0261 H   0  0  0  0  0  0  0  0  0  0  0  0
   34.4424   26.8956   49.3363 H   0  0  0  0  0  0  0  0  0  0  0  0
   31.6174   27.2289   49.3987 H   0  0  0  0  0  0  0  0  0  0  0  0
   31.6890   28.6551   48.7864 H   0  0  0  0  0  0  0  0  0  0  0  0
   32.8764   27.0968   46.4359 H   0  0  0  0  0  0  0  0  0  0  0  0
   33.8794   23.1111   48.4425 H   0  0  0  0  0  0  0  0  0  0  0  0
   35.8855   21.7815   47.9131 H   0  0  0  0  0  0  0  0  0  0  0  0
   37.2450   22.3270   45.8370 H   0  0  0  0  0  0  0  0  0  0  0  0
   36.4263   24.2353   44.4398 H   0  0  0  0  0  0  0  0  0  0  0  0
  1  6  2  0
  1  2  1  0
  2  3  2  0
  3  4  1  0
  5 17  1  0
  5  4  2  0
  6  5  1  0
  7  2  1  0
  7  8  2  0
  8  9  1  0
 10  9  2  0
 11 10  1  0
 12 11  2  0
 13 12  1  0
 14 13  2  0
 14 15  1  0
 15 16  2  0
 16 11  1  0
 16  7  1  0
 17 18  1  0
 19 17  1  0
 19 18  1  0
 20 19  1  0
 21 20  1  0
 21 22  2  0
 23 22  1  0
 24 23  2  0
 25 26  2  0
 25 24  1  0
 26 21  1  0
  1 27  1  0
  3 28  1  0
  8 29  1  0
  9 30  1  0
 10 31  1  0
 12 32  1  0
 13 33  1  0
 14 34  1  0
 15 35  1  0
 17 36  1  1
 18 37  1  0
 18 38  1  0
 19 39  1  6
 22 40  1  0
 23 41  1  0
 24 42  1  0
 25 43  1  0
M  ISO  8  27  14  28  14  29  14  30  14  31  14  32  14  33  14  34  14
M  ISO  8  35  14  36  13  37  13  38  13  39  13  40  14  41  14  42  14
M  ISO  1  43  14
M  END
>  <minimizedAffinity>  (1) 
-6.80091524

>  <minimizedRMSD>  (1) 
0.25287649

$$$$
