
     RDKit          3D

 45 50  0  0  1  0  0  0  0  0999 V2000
   35.4660   30.3470   47.2490 C   0  0  0  0  0  0  0  0  0  0  0  0
   36.5460   30.5530   48.0980 C   0  0  0  0  0  0  0  0  0  0  0  0
   36.6360   29.6270   49.1850 C   0  0  0  0  0  0  0  0  0  0  0  0
   35.7030   28.6450   49.3140 N   0  0  0  0  0  0  0  0  0  0  0  0
   34.6940   28.5140   48.4530 C   0  0  0  0  0  0  0  0  0  0  0  0
   34.5850   29.3530   47.4410 N   0  0  0  0  0  0  0  0  0  0  0  0
   37.5830   31.5540   48.0600 C   0  0  0  0  0  0  0  0  0  0  0  0
   37.5440   32.3750   49.1560 C   0  0  0  0  0  0  0  0  0  0  0  0
   38.4570   33.4130   49.3250 C   0  0  0  0  0  0  0  0  0  0  0  0
   39.4220   33.6250   48.3710 C   0  0  0  0  0  0  0  0  0  0  0  0
   39.4490   32.7970   47.2810 C   0  0  0  0  0  0  0  0  0  0  0  0
   40.3980   32.9200   46.2330 C   0  0  0  0  0  0  0  0  0  0  0  0
   40.3720   32.0590   45.1630 C   0  0  0  0  0  0  0  0  0  0  0  0
   39.4530   31.0670   45.0630 C   0  0  0  0  0  0  0  0  0  0  0  0
   38.5160   30.9240   46.0690 C   0  0  0  0  0  0  0  0  0  0  0  0
   38.5480   31.7900   47.1370 C   0  0  0  0  0  0  0  0  0  0  0  0
   33.7160   27.4080   48.6560 C   0  0  1  0  0  0  0  0  0  0  0  0
   32.2540   27.7430   48.6940 C   0  0  0  0  0  0  0  0  0  0  0  0
   32.8340   26.9780   47.5370 C   0  0  2  0  0  0  0  0  0  0  0  0
   32.5200   25.2200   47.3280 S   0  0  0  0  0  0  0  0  0  0  0  0
   36.2780   21.9910   47.3110 N   0  0  0  0  0  0  0  0  0  0  0  0
   35.4720   21.9130   48.3960 C   0  0  0  0  0  0  0  0  0  0  0  0
   34.4640   22.8310   48.3300 N   0  0  0  0  0  0  0  0  0  0  0  0
   34.6620   23.4930   47.1590 C   0  0  0  0  0  0  0  0  0  0  0  0
   33.9800   24.5230   46.5430 C   0  0  0  0  0  0  0  0  0  0  0  0
   34.4570   24.9600   45.3510 N   0  0  0  0  0  0  0  0  0  0  0  0
   35.5420   24.4300   44.7780 C   0  0  0  0  0  0  0  0  0  0  0  0
   36.2370   23.4270   45.3440 N   0  0  0  0  0  0  0  0  0  0  0  0
   35.7800   22.9690   46.5410 C   0  0  0  0  0  0  0  0  0  0  0  0
   35.3283   31.0211   46.3907 H   0  0  0  0  0  0  0  0  0  0  0  0
   37.4562   29.7086   49.9135 H   0  0  0  0  0  0  0  0  0  0  0  0
   36.7719   32.2102   49.9220 H   0  0  0  0  0  0  0  0  0  0  0  0
   38.4057   34.0575   50.2149 H   0  0  0  0  0  0  0  0  0  0  0  0
   40.1541   34.4388   48.4798 H   0  0  0  0  0  0  0  0  0  0  0  0
   41.1607   33.7114   46.2779 H   0  0  0  0  0  0  0  0  0  0  0  0
   41.1185   32.1777   44.3639 H   0  0  0  0  0  0  0  0  0  0  0  0
   39.4532   30.3885   44.1972 H   0  0  0  0  0  0  0  0  0  0  0  0
   37.7566   30.1300   46.0163 H   0  0  0  0  0  0  0  0  0  0  0  0
   34.4189   26.8859   49.3218 H   0  0  0  0  0  0  0  0  0  0  0  0
   31.5909   27.2384   49.4121 H   0  0  0  0  0  0  0  0  0  0  0  0
   31.6667   28.6665   48.8042 H   0  0  0  0  0  0  0  0  0  0  0  0
   32.8090   27.1177   46.4462 H   0  0  0  0  0  0  0  0  0  0  0  0
   37.1085   21.4138   47.1159 H   0  0  0  0  0  0  0  0  0  0  0  0
   35.6114   21.2019   49.2236 H   0  0  0  0  0  0  0  0  0  0  0  0
   35.8785   24.8281   43.8093 H   0  0  0  0  0  0  0  0  0  0  0  0
  1  6  2  0
  1  2  1  0
  2  3  2  0
  3  4  1  0
  5 17  1  0
  5  4  2  0
  6  5  1  0
  7  2  1  0
  7  8  2  0
  8  9  1  0
 10  9  2  0
 11 10  1  0
 12 11  2  0
 13 12  1  0
 14 13  2  0
 14 15  1  0
 15 16  2  0
 16 11  1  0
 16  7  1  0
 17 18  1  0
 19 17  1  0
 19 18  1  0
 20 19  1  0
 21 22  1  0
 23 22  2  0
 24 23  1  0
 25 24  2  0
 25 20  1  0
 26 25  1  0
 27 28  1  0
 27 26  2  0
 28 29  2  0
 29 24  1  0
 29 21  1  0
  1 30  1  0
  3 31  1  0
  8 32  1  0
  9 33  1  0
 10 34  1  0
 12 35  1  0
 13 36  1  0
 14 37  1  0
 15 38  1  0
 17 39  1  1
 18 40  1  0
 18 41  1  0
 19 42  1  6
 21 43  1  0
 22 44  1  0
 27 45  1  0
M  ISO  8  30  14  31  14  32  14  33  14  34  14  35  14  36  14  37  14
M  ISO  8  38  14  39  13  40  13  41  13  42  13  43   9  44  14  45  14
M  END
>  <minimizedAffinity>  (1) 
-6.75567102

>  <minimizedRMSD>  (1) 
0.470474273

$$$$
