
     RDKit          3D

 42 46  0  0  1  0  0  0  0  0999 V2000
   35.5080   30.4100   47.2930 C   0  0  0  0  0  0  0  0  0  0  0  0
   36.6010   30.6090   48.1260 C   0  0  0  0  0  0  0  0  0  0  0  0
   36.7010   29.6680   49.1970 C   0  0  0  0  0  0  0  0  0  0  0  0
   35.7680   28.6900   49.3250 N   0  0  0  0  0  0  0  0  0  0  0  0
   34.7480   28.5660   48.4840 C   0  0  0  0  0  0  0  0  0  0  0  0
   34.6120   29.4250   47.4660 N   0  0  0  0  0  0  0  0  0  0  0  0
   37.6350   31.6140   48.0720 C   0  0  0  0  0  0  0  0  0  0  0  0
   37.5970   32.4360   49.1680 C   0  0  0  0  0  0  0  0  0  0  0  0
   38.5050   33.4800   49.3240 C   0  0  0  0  0  0  0  0  0  0  0  0
   39.4650   33.6960   48.3590 C   0  0  0  0  0  0  0  0  0  0  0  0
   39.4850   32.8650   47.2740 C   0  0  0  0  0  0  0  0  0  0  0  0
   40.4210   32.9880   46.2200 C   0  0  0  0  0  0  0  0  0  0  0  0
   40.3940   32.1240   45.1580 C   0  0  0  0  0  0  0  0  0  0  0  0
   39.4810   31.1250   45.0640 C   0  0  0  0  0  0  0  0  0  0  0  0
   38.5510   30.9780   46.0800 C   0  0  0  0  0  0  0  0  0  0  0  0
   38.5850   31.8430   47.1350 C   0  0  0  0  0  0  0  0  0  0  0  0
   33.7660   27.4540   48.6910 C   0  0  1  0  0  0  0  0  0  0  0  0
   32.3130   27.8050   48.8070 C   0  0  0  0  0  0  0  0  0  0  0  0
   32.8390   27.0750   47.5890 C   0  0  2  0  0  0  0  0  0  0  0  0
   32.4910   25.3300   47.3320 S   0  0  0  0  0  0  0  0  0  0  0  0
   30.8650   25.1890   46.6060 C   0  0  0  0  0  0  0  0  0  0  0  0
   30.6380   24.0650   45.8290 C   0  0  0  0  0  0  0  0  0  0  0  0
   29.3760   23.9420   45.2570 C   0  0  0  0  0  0  0  0  0  0  0  0
   28.3840   24.8420   45.4190 N   0  0  0  0  0  0  0  0  0  0  0  0
   28.6640   25.9260   46.1930 C   0  0  0  0  0  0  0  0  0  0  0  0
   29.8680   26.0900   46.7670 N   0  0  0  0  0  0  0  0  0  0  0  0
   35.3686   31.0968   46.4451 H   0  0  0  0  0  0  0  0  0  0  0  0
   37.5313   29.7359   49.9154 H   0  0  0  0  0  0  0  0  0  0  0  0
   36.8328   32.2674   49.9410 H   0  0  0  0  0  0  0  0  0  0  0  0
   38.4564   34.1280   50.2115 H   0  0  0  0  0  0  0  0  0  0  0  0
   40.1941   34.5136   48.4591 H   0  0  0  0  0  0  0  0  0  0  0  0
   41.1778   33.7856   46.2541 H   0  0  0  0  0  0  0  0  0  0  0  0
   41.1365   32.2438   44.3553 H   0  0  0  0  0  0  0  0  0  0  0  0
   39.4793   30.4457   44.1988 H   0  0  0  0  0  0  0  0  0  0  0  0
   37.7977   30.1775   46.0372 H   0  0  0  0  0  0  0  0  0  0  0  0
   34.4871   26.8978   49.3080 H   0  0  0  0  0  0  0  0  0  0  0  0
   31.6743   27.2798   49.5324 H   0  0  0  0  0  0  0  0  0  0  0  0
   31.7429   28.7298   48.9792 H   0  0  0  0  0  0  0  0  0  0  0  0
   32.7759   27.2559   46.5058 H   0  0  0  0  0  0  0  0  0  0  0  0
   31.4184   23.3059   45.6718 H   0  0  0  0  0  0  0  0  0  0  0  0
   29.1746   23.0574   44.6349 H   0  0  0  0  0  0  0  0  0  0  0  0
   27.8856   26.6866   46.3526 H   0  0  0  0  0  0  0  0  0  0  0  0
  1  6  2  0
  1  2  1  0
  2  3  2  0
  3  4  1  0
  5 17  1  0
  5  4  2  0
  6  5  1  0
  7  2  1  0
  7  8  2  0
  8  9  1  0
 10  9  2  0
 11 10  1  0
 12 11  2  0
 13 12  1  0
 14 13  2  0
 14 15  1  0
 15 16  2  0
 16 11  1  0
 16  7  1  0
 17 18  1  0
 19 17  1  0
 19 18  1  0
 20 19  1  0
 21 26  1  0
 21 20  1  0
 22 21  2  0
 23 24  2  0
 23 22  1  0
 24 25  1  0
 25 26  2  0
  1 27  1  0
  3 28  1  0
  8 29  1  0
  9 30  1  0
 10 31  1  0
 12 32  1  0
 13 33  1  0
 14 34  1  0
 15 35  1  0
 17 36  1  1
 18 37  1  0
 18 38  1  0
 19 39  1  6
 22 40  1  0
 23 41  1  0
 25 42  1  0
M  ISO  8  27  14  28  14  29  14  30  14  31  14  32  14  33  14  34  14
M  ISO  8  35  14  36  13  37  13  38  13  39  13  40  14  41  14  42  14
M  END
>  <minimizedAffinity>  (1) 
-6.69193172

>  <minimizedRMSD>  (1) 
0.902663291

$$$$
