
     RDKit          3D

 42 46  0  0  1  0  0  0  0  0999 V2000
   35.4890   30.3430   47.2630 C   0  0  0  0  0  0  0  0  0  0  0  0
   36.5650   30.5480   48.1160 C   0  0  0  0  0  0  0  0  0  0  0  0
   36.6500   29.6240   49.1960 C   0  0  0  0  0  0  0  0  0  0  0  0
   35.7160   28.6400   49.3250 N   0  0  0  0  0  0  0  0  0  0  0  0
   34.7040   28.5070   48.4610 C   0  0  0  0  0  0  0  0  0  0  0  0
   34.6000   29.3540   47.4430 N   0  0  0  0  0  0  0  0  0  0  0  0
   37.6000   31.5570   48.0650 C   0  0  0  0  0  0  0  0  0  0  0  0
   37.5510   32.3710   49.1610 C   0  0  0  0  0  0  0  0  0  0  0  0
   38.4590   33.4220   49.3280 C   0  0  0  0  0  0  0  0  0  0  0  0
   39.4280   33.6430   48.3620 C   0  0  0  0  0  0  0  0  0  0  0  0
   39.4540   32.8080   47.2720 C   0  0  0  0  0  0  0  0  0  0  0  0
   40.3930   32.9370   46.2290 C   0  0  0  0  0  0  0  0  0  0  0  0
   40.3750   32.0790   45.1620 C   0  0  0  0  0  0  0  0  0  0  0  0
   39.4590   31.0730   45.0630 C   0  0  0  0  0  0  0  0  0  0  0  0
   38.5280   30.9270   46.0750 C   0  0  0  0  0  0  0  0  0  0  0  0
   38.5550   31.7900   47.1330 C   0  0  0  0  0  0  0  0  0  0  0  0
   33.7250   27.4010   48.6680 C   0  0  1  0  0  0  0  0  0  0  0  0
   32.2660   27.7440   48.6810 C   0  0  0  0  0  0  0  0  0  0  0  0
   32.8720   26.9540   47.5340 C   0  0  2  0  0  0  0  0  0  0  0  0
   32.5400   25.2000   47.3560 S   0  0  0  0  0  0  0  0  0  0  0  0
   34.0250   24.2870   46.9060 C   0  0  0  0  0  0  0  0  0  0  0  0
   34.7710   24.5650   45.7780 C   0  0  0  0  0  0  0  0  0  0  0  0
   35.8940   23.7670   45.5670 C   0  0  0  0  0  0  0  0  0  0  0  0
   36.1870   22.7940   46.4470 N   0  0  0  0  0  0  0  0  0  0  0  0
   35.4250   22.5610   47.5370 C   0  0  0  0  0  0  0  0  0  0  0  0
   34.3130   23.3090   47.7960 N   0  0  0  0  0  0  0  0  0  0  0  0
   35.3599   31.0187   46.4047 H   0  0  0  0  0  0  0  0  0  0  0  0
   37.4691   29.7044   49.9258 H   0  0  0  0  0  0  0  0  0  0  0  0
   36.7819   32.1965   49.9278 H   0  0  0  0  0  0  0  0  0  0  0  0
   38.4045   34.0669   50.2175 H   0  0  0  0  0  0  0  0  0  0  0  0
   40.1544   34.4626   48.4653 H   0  0  0  0  0  0  0  0  0  0  0  0
   41.1484   33.7354   46.2725 H   0  0  0  0  0  0  0  0  0  0  0  0
   41.1199   32.2044   44.3624 H   0  0  0  0  0  0  0  0  0  0  0  0
   39.4609   30.3935   44.1980 H   0  0  0  0  0  0  0  0  0  0  0  0
   37.7754   30.1261   46.0284 H   0  0  0  0  0  0  0  0  0  0  0  0
   34.4111   26.8848   49.3556 H   0  0  0  0  0  0  0  0  0  0  0  0
   31.5889   27.2513   49.3943 H   0  0  0  0  0  0  0  0  0  0  0  0
   31.6800   28.6706   48.7703 H   0  0  0  0  0  0  0  0  0  0  0  0
   32.8802   27.0751   46.4407 H   0  0  0  0  0  0  0  0  0  0  0  0
   34.4942   25.3721   45.0838 H   0  0  0  0  0  0  0  0  0  0  0  0
   36.5348   23.9319   44.6883 H   0  0  0  0  0  0  0  0  0  0  0  0
   35.7055   21.7534   48.2291 H   0  0  0  0  0  0  0  0  0  0  0  0
  1  6  2  0
  1  2  1  0
  2  3  2  0
  3  4  1  0
  5 17  1  0
  5  4  2  0
  6  5  1  0
  7  2  1  0
  7  8  2  0
  8  9  1  0
 10  9  2  0
 11 10  1  0
 12 11  2  0
 13 12  1  0
 14 13  2  0
 14 15  1  0
 15 16  2  0
 16 11  1  0
 16  7  1  0
 17 18  1  0
 19 17  1  0
 19 18  1  0
 20 19  1  0
 21 20  1  0
 21 26  1  0
 22 21  2  0
 23 22  1  0
 23 24  2  0
 24 25  1  0
 25 26  2  0
  1 27  1  0
  3 28  1  0
  8 29  1  0
  9 30  1  0
 10 31  1  0
 12 32  1  0
 13 33  1  0
 14 34  1  0
 15 35  1  0
 17 36  1  1
 18 37  1  0
 18 38  1  0
 19 39  1  6
 22 40  1  0
 23 41  1  0
 25 42  1  0
M  ISO  8  27  14  28  14  29  14  30  14  31  14  32  14  33  14  34  14
M  ISO  8  35  14  36  13  37  13  38  13  39  13  40  14  41  14  42  14
M  END
>  <minimizedAffinity>  (1) 
-6.68917322

>  <minimizedRMSD>  (1) 
0.121511191

$$$$
