
     RDKit          3D

 41 45  0  0  1  0  0  0  0  0999 V2000
   35.4280   30.3940   47.2270 C   0  0  0  0  0  0  0  0  0  0  0  0
   36.4740   30.5770   48.1160 C   0  0  0  0  0  0  0  0  0  0  0  0
   36.5310   29.6080   49.1690 C   0  0  0  0  0  0  0  0  0  0  0  0
   35.6010   28.6140   49.2330 N   0  0  0  0  0  0  0  0  0  0  0  0
   34.6240   28.5150   48.3320 C   0  0  0  0  0  0  0  0  0  0  0  0
   34.5330   29.3990   47.3300 N   0  0  0  0  0  0  0  0  0  0  0  0
   37.5030   31.5890   48.1400 C   0  0  0  0  0  0  0  0  0  0  0  0
   37.4590   32.3220   49.2930 C   0  0  0  0  0  0  0  0  0  0  0  0
   38.3630   33.3590   49.5320 C   0  0  0  0  0  0  0  0  0  0  0  0
   39.3220   33.6540   48.5850 C   0  0  0  0  0  0  0  0  0  0  0  0
   39.3450   32.9060   47.4400 C   0  0  0  0  0  0  0  0  0  0  0  0
   40.2820   33.1140   46.3940 C   0  0  0  0  0  0  0  0  0  0  0  0
   40.2600   32.3360   45.2660 C   0  0  0  0  0  0  0  0  0  0  0  0
   39.3510   31.3430   45.1020 C   0  0  0  0  0  0  0  0  0  0  0  0
   38.4230   31.1150   46.1030 C   0  0  0  0  0  0  0  0  0  0  0  0
   38.4540   31.8970   47.2220 C   0  0  0  0  0  0  0  0  0  0  0  0
   33.6400   27.3940   48.4610 C   0  0  1  0  0  0  0  0  0  0  0  0
   32.2080   27.7370   48.7450 C   0  0  0  0  0  0  0  0  0  0  0  0
   32.6190   27.1840   47.3960 C   0  0  2  0  0  0  0  0  0  0  0  0
   32.2190   25.4890   46.9410 S   0  0  0  0  0  0  0  0  0  0  0  0
   30.4850   25.4200   46.5170 C   0  0  0  0  0  0  0  0  0  0  0  0
   30.0660   24.3540   45.7180 C   0  0  0  0  0  0  0  0  0  0  0  0
   28.6890   24.5070   45.5190 C   0  0  0  0  0  0  0  0  0  0  0  0
   28.3380   25.6400   46.1960 N   0  0  0  0  0  0  0  0  0  0  0  0
   29.4080   26.1750   46.7850 N   0  0  0  0  0  0  0  0  0  0  0  0
   35.3251   31.1021   46.3916 H   0  0  0  0  0  0  0  0  0  0  0  0
   37.3262   29.6661   49.9268 H   0  0  0  0  0  0  0  0  0  0  0  0
   36.6946   32.0898   50.0492 H   0  0  0  0  0  0  0  0  0  0  0  0
   38.3110   33.9358   50.4672 H   0  0  0  0  0  0  0  0  0  0  0  0
   40.0462   34.4662   48.7459 H   0  0  0  0  0  0  0  0  0  0  0  0
   41.0353   33.9098   46.4901 H   0  0  0  0  0  0  0  0  0  0  0  0
   40.9991   32.5218   44.4728 H   0  0  0  0  0  0  0  0  0  0  0  0
   39.3513   30.7294   44.1891 H   0  0  0  0  0  0  0  0  0  0  0  0
   37.6729   30.3172   45.9990 H   0  0  0  0  0  0  0  0  0  0  0  0
   34.3970   26.7497   48.9320 H   0  0  0  0  0  0  0  0  0  0  0  0
   31.6194   27.1189   49.4390 H   0  0  0  0  0  0  0  0  0  0  0  0
   31.6724   28.6326   49.0930 H   0  0  0  0  0  0  0  0  0  0  0  0
   32.4720   27.5183   46.3584 H   0  0  0  0  0  0  0  0  0  0  0  0
   30.6985   23.5467   45.3202 H   0  0  0  0  0  0  0  0  0  0  0  0
   28.0260   23.8499   44.9371 H   0  0  0  0  0  0  0  0  0  0  0  0
   27.3842   26.0257   46.2446 H   0  0  0  0  0  0  0  0  0  0  0  0
  1  6  2  0
  1  2  1  0
  2  7  1  0
  2  3  2  0
  3  4  1  0
  5 17  1  0
  5  4  2  0
  6  5  1  0
  7  8  2  0
  8  9  1  0
 10  9  2  0
 11 10  1  0
 12 11  2  0
 13 12  1  0
 14 13  2  0
 14 15  1  0
 15 16  2  0
 16 11  1  0
 16  7  1  0
 17 18  1  0
 19 17  1  0
 19 18  1  0
 20 19  1  0
 21 25  2  0
 21 20  1  0
 22 21  1  0
 23 22  2  0
 23 24  1  0
 24 25  1  0
  1 26  1  0
  3 27  1  0
  8 28  1  0
  9 29  1  0
 10 30  1  0
 12 31  1  0
 13 32  1  0
 14 33  1  0
 15 34  1  0
 17 35  1  1
 18 36  1  0
 18 37  1  0
 19 38  1  6
 22 39  1  0
 23 40  1  0
 24 41  1  0
M  ISO  8  26  14  27  14  28  14  29  14  30  14  31  14  32  14  33  14
M  ISO  8  34  14  35  13  36  13  37  13  38  13  39  14  40  14  41   9
M  END
>  <minimizedAffinity>  (1) 
-6.6085062

>  <minimizedRMSD>  (1) 
0.997062504

$$$$
