
     RDKit          3D

 46 49  0  0  1  0  0  0  0  0999 V2000
   34.5040   30.2470   47.4150 C   0  0  0  0  0  0  0  0  0  0  0  0
   35.6320   30.1680   48.2190 C   0  0  0  0  0  0  0  0  0  0  0  0
   35.6640   29.0420   49.0930 C   0  0  0  0  0  0  0  0  0  0  0  0
   34.6340   28.1570   49.0850 N   0  0  0  0  0  0  0  0  0  0  0  0
   33.5770   28.2980   48.2810 C   0  0  0  0  0  0  0  0  0  0  0  0
   33.5120   29.3420   47.4450 N   0  0  0  0  0  0  0  0  0  0  0  0
   36.7640   31.0620   48.2970 C   0  0  0  0  0  0  0  0  0  0  0  0
   36.7750   31.7500   49.4880 C   0  0  0  0  0  0  0  0  0  0  0  0
   37.7790   32.6720   49.7790 C   0  0  0  0  0  0  0  0  0  0  0  0
   38.7810   32.9080   48.8660 C   0  0  0  0  0  0  0  0  0  0  0  0
   38.7510   32.2090   47.6840 C   0  0  0  0  0  0  0  0  0  0  0  0
   39.7210   32.3600   46.6650 C   0  0  0  0  0  0  0  0  0  0  0  0
   39.6350   31.6350   45.5050 C   0  0  0  0  0  0  0  0  0  0  0  0
   38.6260   30.7420   45.2740 C   0  0  0  0  0  0  0  0  0  0  0  0
   37.6670   30.5810   46.2580 C   0  0  0  0  0  0  0  0  0  0  0  0
   37.7590   31.3070   47.4120 C   0  0  0  0  0  0  0  0  0  0  0  0
   32.4920   27.2730   48.3330 C   0  0  1  0  0  0  0  0  0  0  0  0
   31.2250   27.6250   49.0550 C   0  0  0  0  0  0  0  0  0  0  0  0
   31.2380   27.4950   47.5610 C   0  0  2  0  0  0  0  0  0  0  0  0
   30.4990   26.0700   46.7340 S   0  0  0  0  0  0  0  0  0  0  0  0
   28.8140   26.4960   46.2360 C   0  0  0  0  0  0  0  0  0  0  0  0
   28.2420   25.5360   45.2130 C   0  0  0  0  0  0  0  0  0  0  0  0
   28.7630   27.8920   45.6530 C   0  0  0  0  0  0  0  0  0  0  0  0
   27.8670   26.4840   47.4210 C   0  0  0  0  0  0  0  0  0  0  0  0
   34.4178   31.0935   46.7179 H   0  0  0  0  0  0  0  0  0  0  0  0
   36.5179   28.8910   49.7698 H   0  0  0  0  0  0  0  0  0  0  0  0
   35.9774   31.5694   50.2237 H   0  0  0  0  0  0  0  0  0  0  0  0
   37.7703   33.2107   50.7380 H   0  0  0  0  0  0  0  0  0  0  0  0
   39.5807   33.6335   49.0761 H   0  0  0  0  0  0  0  0  0  0  0  0
   40.5525   33.0664   46.8052 H   0  0  0  0  0  0  0  0  0  0  0  0
   40.4052   31.7767   44.7325 H   0  0  0  0  0  0  0  0  0  0  0  0
   38.5782   30.1698   44.3358 H   0  0  0  0  0  0  0  0  0  0  0  0
   36.8369   29.8741   46.1126 H   0  0  0  0  0  0  0  0  0  0  0  0
   33.2257   26.4553   48.3880 H   0  0  0  0  0  0  0  0  0  0  0  0
   30.7128   26.8701   49.6696 H   0  0  0  0  0  0  0  0  0  0  0  0
   30.9242   28.4069   49.7679 H   0  0  0  0  0  0  0  0  0  0  0  0
   30.9099   28.1538   46.7435 H   0  0  0  0  0  0  0  0  0  0  0  0
   27.7451   24.7021   45.7304 H   0  0  0  0  0  0  0  0  0  0  0  0
   27.5112   26.0642   44.5829 H   0  0  0  0  0  0  0  0  0  0  0  0
   29.0544   25.1447   44.5829 H   0  0  0  0  0  0  0  0  0  0  0  0
   28.7361   28.6293   46.4689 H   0  0  0  0  0  0  0  0  0  0  0  0
   29.6555   28.0634   45.0332 H   0  0  0  0  0  0  0  0  0  0  0  0
   27.8604   27.9978   45.0332 H   0  0  0  0  0  0  0  0  0  0  0  0
   28.4482   26.4914   48.3549 H   0  0  0  0  0  0  0  0  0  0  0  0
   27.2217   27.3740   47.3837 H   0  0  0  0  0  0  0  0  0  0  0  0
   27.2444   25.5779   47.3837 H   0  0  0  0  0  0  0  0  0  0  0  0
  1  6  2  0
  1  2  1  0
  2  7  1  0
  2  3  2  0
  4  3  1  0
  5 17  1  0
  5  4  2  0
  6  5  1  0
  7  8  2  0
  8  9  1  0
 10  9  2  0
 11 10  1  0
 12 11  2  0
 13 12  1  0
 14 13  2  0
 14 15  1  0
 15 16  2  0
 16 11  1  0
 16  7  1  0
 17 18  1  0
 19 17  1  0
 19 18  1  0
 20 19  1  0
 21 20  1  0
 21 24  1  0
 22 21  1  0
 23 21  1  0
  1 25  1  0
  3 26  1  0
  8 27  1  0
  9 28  1  0
 10 29  1  0
 12 30  1  0
 13 31  1  0
 14 32  1  0
 15 33  1  0
 17 34  1  1
 18 35  1  0
 18 36  1  0
 19 37  1  6
 22 38  1  0
 22 39  1  0
 22 40  1  0
 23 41  1  0
 23 42  1  0
 23 43  1  0
 24 44  1  0
 24 45  1  0
 24 46  1  0
M  ISO  8  25  14  26  14  27  14  28  14  29  14  30  14  31  14  32  14
M  ISO  8  33  14  34  13  35  13  36  13  37  13  38   8  39   8  40   8
M  ISO  6  41   8  42   8  43   8  44   8  45   8  46   8
M  END
>  <minimizedAffinity>  (1) 
-6.56731558

>  <minimizedRMSD>  (1) 
1.81279087

$$$$
