
     RDKit          3D

 48 51  0  0  0  0  0  0  0  0999 V2000
   33.7190   30.2200   44.1980 C   0  0  0  0  0  0  0  0  0  0  0  0
   34.0650   31.3170   43.3490 C   0  0  0  0  0  0  0  0  0  0  0  0
   33.0190   32.0760   42.8000 C   0  0  0  0  0  0  0  0  0  0  0  0
   31.7290   31.7280   43.1040 N   0  0  0  0  0  0  0  0  0  0  0  0
   31.4380   30.6890   43.9080 C   0  0  0  0  0  0  0  0  0  0  0  0
   32.4210   29.9520   44.4420 N   0  0  0  0  0  0  0  0  0  0  0  0
   30.0830   30.3830   44.1820 N   0  0  0  0  0  0  0  0  0  0  0  0
   29.1290   30.5070   43.2550 C   0  0  0  0  0  0  0  0  0  0  0  0
   27.8020   30.2100   43.5060 C   0  0  0  0  0  0  0  0  0  0  0  0
   27.5450   29.7800   44.7820 C   0  0  0  0  0  0  0  0  0  0  0  0
   26.3540   29.4850   45.1060 O   0  0  0  0  0  0  0  0  0  0  0  0
   28.4420   29.6340   45.7510 N   0  0  0  0  0  0  0  0  0  0  0  0
   29.7360   29.9460   45.4250 C   0  0  0  0  0  0  0  0  0  0  0  0
   30.6030   29.8180   46.3200 O   0  0  0  0  0  0  0  0  0  0  0  0
   27.6900   27.8470   49.4660 C   0  0  0  0  0  0  0  0  0  0  0  0
   27.5630   29.2070   49.3650 C   0  0  0  0  0  0  0  0  0  0  0  0
   27.7890   29.8780   48.1910 C   0  0  0  0  0  0  0  0  0  0  0  0
   28.1550   29.1850   47.0670 C   0  0  0  0  0  0  0  0  0  0  0  0
   28.2930   27.7950   47.1400 C   0  0  0  0  0  0  0  0  0  0  0  0
   28.0600   27.1190   48.3450 C   0  0  0  0  0  0  0  0  0  0  0  0
   27.3960   27.0320   50.9720 S   0  0  0  0  0  0  0  0  0  0  0  0
   28.5670   26.9810   51.8650 O   0  0  0  0  0  0  0  0  0  0  0  0
   26.2450   27.7530   51.6650 O   0  0  0  0  0  0  0  0  0  0  0  0
   26.7260   30.3330   42.5160 C   0  0  0  0  0  0  0  0  0  0  0  0
   25.6740   31.2000   42.9370 N   0  0  0  0  0  0  0  0  0  0  0  0
   24.5390   31.0190   42.0670 C   0  0  0  0  0  0  0  0  0  0  0  0
   24.0500   32.3570   41.6200 C   0  0  0  0  0  0  0  0  0  0  0  0
   24.6670   33.3060   42.6150 C   0  0  0  0  0  0  0  0  0  0  0  0
   26.0070   32.6120   42.8890 C   0  0  0  0  0  0  0  0  0  0  0  0
   34.5069   29.5989   44.6490 H   0  0  0  0  0  0  0  0  0  0  0  0
   35.1162   31.5585   43.1329 H   0  0  0  0  0  0  0  0  0  0  0  0
   33.2304   32.9308   42.1407 H   0  0  0  0  0  0  0  0  0  0  0  0
   29.4104   30.8595   42.2517 H   0  0  0  0  0  0  0  0  0  0  0  0
   27.2696   29.7806   50.2565 H   0  0  0  0  0  0  0  0  0  0  0  0
   27.6766   30.9715   48.1514 H   0  0  0  0  0  0  0  0  0  0  0  0
   28.5868   27.2281   46.2443 H   0  0  0  0  0  0  0  0  0  0  0  0
   28.1690   26.0259   48.4011 H   0  0  0  0  0  0  0  0  0  0  0  0
   27.0949   25.7250   50.6929 H   0  0  0  0  0  0  0  0  0  0  0  0
   26.3038   29.3341   42.3320 H   0  0  0  0  0  0  0  0  0  0  0  0
   27.1655   30.7685   41.6065 H   0  0  0  0  0  0  0  0  0  0  0  0
   24.8370   30.4239   41.1912 H   0  0  0  0  0  0  0  0  0  0  0  0
   23.7380   30.4921   42.6063 H   0  0  0  0  0  0  0  0  0  0  0  0
   24.3927   32.5801   40.5988 H   0  0  0  0  0  0  0  0  0  0  0  0
   22.9525   32.4236   41.5873 H   0  0  0  0  0  0  0  0  0  0  0  0
   24.8115   34.3071   42.1825 H   0  0  0  0  0  0  0  0  0  0  0  0
   24.0559   33.4826   43.5124 H   0  0  0  0  0  0  0  0  0  0  0  0
   26.7245   32.8163   42.0806 H   0  0  0  0  0  0  0  0  0  0  0  0
   26.4819   32.9645   43.8165 H   0  0  0  0  0  0  0  0  0  0  0  0
  1  6  2  0
  2  1  1  0
  3  4  1  0
  3  2  2  0
  4  5  2  0
  5  7  1  0
  5  6  1  0
  7 13  1  0
  8  9  2  0
  8  7  1  0
  9 10  1  0
 10 11  2  0
 10 12  1  0
 12 18  1  0
 13 12  1  0
 13 14  2  0
 15 21  1  0
 16 15  2  0
 17 16  1  0
 18 19  1  0
 18 17  2  0
 19 20  2  0
 20 15  1  0
 21 23  2  0
 21 22  2  0
 24 25  1  0
 24  9  1  0
 26 25  1  0
 27 26  1  0
 27 28  1  0
 28 29  1  0
 29 25  1  0
  1 30  1  0
  2 31  1  0
  3 32  1  0
  8 33  1  0
 16 34  1  0
 17 35  1  0
 19 36  1  0
 20 37  1  0
 21 38  1  0
 24 39  1  0
 24 40  1  0
 26 41  1  0
 26 42  1  0
 27 43  1  0
 27 44  1  0
 28 45  1  0
 28 46  1  0
 29 47  1  0
 29 48  1  0
M  ISO  8  30  14  31  14  32  14  33  14  34  14  35  14  36  14  37  14
M  ISO  8  38  11  39   8  40   8  41  13  42  13  43  13  44  13  45  13
M  ISO  3  46  13  47  13  48  13
M  END
>  <minimizedAffinity>  (1) 
-5.16970396

>  <minimizedRMSD>  (1) 
0.646823049

$$$$
