
     RDKit          3D

 43 46  0  0  0  0  0  0  0  0999 V2000
   33.2160   30.8200   43.9440 C   0  0  0  0  0  0  0  0  0  0  0  0
   33.4110   31.8980   43.0530 C   0  0  0  0  0  0  0  0  0  0  0  0
   32.2500   32.4800   42.4740 C   0  0  0  0  0  0  0  0  0  0  0  0
   31.0310   31.9680   42.8080 N   0  0  0  0  0  0  0  0  0  0  0  0
   30.9070   30.9360   43.6650 C   0  0  0  0  0  0  0  0  0  0  0  0
   31.9710   30.3820   44.2140 N   0  0  0  0  0  0  0  0  0  0  0  0
   29.5860   30.4630   43.9600 N   0  0  0  0  0  0  0  0  0  0  0  0
   28.6190   30.4220   43.0530 C   0  0  0  0  0  0  0  0  0  0  0  0
   27.3480   29.9670   43.3290 C   0  0  0  0  0  0  0  0  0  0  0  0
   27.1620   29.5590   44.6290 C   0  0  0  0  0  0  0  0  0  0  0  0
   26.0290   29.1260   44.9820 O   0  0  0  0  0  0  0  0  0  0  0  0
   28.0800   29.5720   45.5870 N   0  0  0  0  0  0  0  0  0  0  0  0
   29.3190   30.0370   45.2370 C   0  0  0  0  0  0  0  0  0  0  0  0
   30.2080   30.0620   46.1230 O   0  0  0  0  0  0  0  0  0  0  0  0
   27.5570   27.8200   49.3580 C   0  0  0  0  0  0  0  0  0  0  0  0
   27.3630   29.1830   49.2400 C   0  0  0  0  0  0  0  0  0  0  0  0
   27.5140   29.8370   48.0470 C   0  0  0  0  0  0  0  0  0  0  0  0
   27.8660   29.1390   46.9210 C   0  0  0  0  0  0  0  0  0  0  0  0
   28.0680   27.7580   47.0140 C   0  0  0  0  0  0  0  0  0  0  0  0
   27.9130   27.0920   48.2390 C   0  0  0  0  0  0  0  0  0  0  0  0
   27.3580   27.0240   50.8860 S   0  0  0  0  0  0  0  0  0  0  0  0
   28.6010   27.0000   51.7080 O   0  0  0  0  0  0  0  0  0  0  0  0
   26.2800   27.7570   51.6560 O   0  0  0  0  0  0  0  0  0  0  0  0
   26.2490   29.8950   42.3560 C   0  0  0  0  0  0  0  0  0  0  0  0
   25.3940   31.0970   42.2940 C   0  0  0  0  0  0  0  0  0  0  0  0
   24.2400   31.4560   41.6450 C   0  0  0  0  0  0  0  0  0  0  0  0
   23.9230   32.7500   42.0020 C   0  0  0  0  0  0  0  0  0  0  0  0
   24.9180   33.1380   42.8740 C   0  0  0  0  0  0  0  0  0  0  0  0
   25.7570   32.1570   43.0230 O   0  0  0  0  0  0  0  0  0  0  0  0
   34.0827   30.3368   44.4187 H   0  0  0  0  0  0  0  0  0  0  0  0
   34.4183   32.2717   42.8169 H   0  0  0  0  0  0  0  0  0  0  0  0
   32.3332   33.3236   41.7730 H   0  0  0  0  0  0  0  0  0  0  0  0
   28.8422   30.7674   42.0328 H   0  0  0  0  0  0  0  0  0  0  0  0
   27.0785   29.7602   50.1321 H   0  0  0  0  0  0  0  0  0  0  0  0
   27.3527   30.9237   47.9918 H   0  0  0  0  0  0  0  0  0  0  0  0
   28.3515   27.1880   46.1169 H   0  0  0  0  0  0  0  0  0  0  0  0
   28.0726   26.0058   48.3076 H   0  0  0  0  0  0  0  0  0  0  0  0
   27.0248   25.7193   50.6339 H   0  0  0  0  0  0  0  0  0  0  0  0
   26.6852   29.7342   41.3591 H   0  0  0  0  0  0  0  0  0  0  0  0
   25.5991   29.0707   42.6850 H   0  0  0  0  0  0  0  0  0  0  0  0
   23.6648   30.8196   40.9564 H   0  0  0  0  0  0  0  0  0  0  0  0
   23.0616   33.3446   41.6637 H   0  0  0  0  0  0  0  0  0  0  0  0
   24.9900   34.1199   43.3646 H   0  0  0  0  0  0  0  0  0  0  0  0
  1  6  2  0
  2  1  1  0
  3  4  1  0
  3  2  2  0
  4  5  2  0
  5  7  1  0
  5  6  1  0
  7 13  1  0
  8  9  2  0
  8  7  1  0
  9 10  1  0
 10 11  2  0
 10 12  1  0
 12 18  1  0
 13 12  1  0
 13 14  2  0
 15 21  1  0
 16 15  2  0
 17 16  1  0
 18 19  1  0
 18 17  2  0
 19 20  2  0
 20 15  1  0
 21 23  2  0
 21 22  2  0
 24  9  1  0
 25 24  1  0
 25 29  1  0
 26 27  1  0
 26 25  2  0
 27 28  2  0
 28 29  1  0
  1 30  1  0
  2 31  1  0
  3 32  1  0
  8 33  1  0
 16 34  1  0
 17 35  1  0
 19 36  1  0
 20 37  1  0
 21 38  1  0
 24 39  1  0
 24 40  1  0
 26 41  1  0
 27 42  1  0
 28 43  1  0
M  ISO  8  30  14  31  14  32  14  33  14  34  14  35  14  36  14  37  14
M  ISO  6  38  11  39   8  40   8  41  14  42  14  43  14
M  END
>  <minimizedAffinity>  (1) 
-5.16623116

>  <minimizedRMSD>  (1) 
0.649769723

$$$$
