
     RDKit          3D

 33 36  0  0  0  0  0  0  0  0999 V2000
   37.1920   30.5000   47.7090 N   0  0  0  0  0  0  0  0  0  0  0  0
   38.4000   31.0160   47.4530 C   0  0  0  0  0  0  0  0  0  0  0  0
   38.5400   31.2930   46.1580 N   0  0  0  0  0  0  0  0  0  0  0  0
   37.3870   30.9470   45.5450 C   0  0  0  0  0  0  0  0  0  0  0  0
   36.9140   30.9850   44.2590 C   0  0  0  0  0  0  0  0  0  0  0  0
   35.6880   30.5680   43.8920 N   0  0  0  0  0  0  0  0  0  0  0  0
   34.9190   30.0950   44.8900 C   0  0  0  0  0  0  0  0  0  0  0  0
   35.3570   30.0510   46.1460 N   0  0  0  0  0  0  0  0  0  0  0  0
   36.5620   30.4540   46.5440 C   0  0  0  0  0  0  0  0  0  0  0  0
   37.7390   31.4860   43.2090 N   0  0  0  0  0  0  0  0  0  0  0  0
   38.8730   30.8750   42.5440 C   0  0  0  0  0  0  0  0  0  0  0  0
   39.9680   31.9000   42.8570 C   0  0  0  0  0  0  0  0  0  0  0  0
   39.1960   33.1840   42.5380 C   0  0  0  0  0  0  0  0  0  0  0  0
   37.7320   32.7340   42.4690 C   0  0  0  0  0  0  0  0  0  0  0  0
   35.3620   29.8940   49.2010 C   0  0  0  0  0  0  0  0  0  0  0  0
   36.7230   30.0990   48.9750 C   0  0  0  0  0  0  0  0  0  0  0  0
   37.5970   29.8960   50.0390 C   0  0  0  0  0  0  0  0  0  0  0  0
   37.0580   29.5070   51.2390 N   0  0  0  0  0  0  0  0  0  0  0  0
   35.7390   29.3200   51.4110 C   0  0  0  0  0  0  0  0  0  0  0  0
   34.8900   29.5130   50.3930 N   0  0  0  0  0  0  0  0  0  0  0  0
   39.1761   31.1888   48.2132 H   0  0  0  0  0  0  0  0  0  0  0  0
   33.9044   29.7362   44.6623 H   0  0  0  0  0  0  0  0  0  0  0  0
   38.7049   30.7786   41.4612 H   0  0  0  0  0  0  0  0  0  0  0  0
   39.0984   29.8497   42.8725 H   0  0  0  0  0  0  0  0  0  0  0  0
   40.2819   31.8589   43.9104 H   0  0  0  0  0  0  0  0  0  0  0  0
   40.9108   31.7668   42.3063 H   0  0  0  0  0  0  0  0  0  0  0  0
   39.3374   33.9319   43.3321 H   0  0  0  0  0  0  0  0  0  0  0  0
   39.5354   33.6597   41.6060 H   0  0  0  0  0  0  0  0  0  0  0  0
   37.0688   33.4717   42.9443 H   0  0  0  0  0  0  0  0  0  0  0  0
   37.3599   32.6255   41.4396 H   0  0  0  0  0  0  0  0  0  0  0  0
   34.6548   30.0506   48.3731 H   0  0  0  0  0  0  0  0  0  0  0  0
   38.6809   30.0422   49.9219 H   0  0  0  0  0  0  0  0  0  0  0  0
   35.3541   29.0068   52.3927 H   0  0  0  0  0  0  0  0  0  0  0  0
  1 16  1  0
  2  1  1  0
  3  2  2  0
  4  3  1  0
  4  9  2  0
  5  4  1  0
  6  5  2  0
  6  7  1  0
  7  8  2  0
  8  9  1  0
  9  1  1  0
 10  5  1  0
 11 12  1  0
 11 10  1  0
 13 12  1  0
 14 13  1  0
 14 10  1  0
 15 20  2  0
 16 15  1  0
 16 17  2  0
 17 18  1  0
 18 19  2  0
 20 19  1  0
  2 21  1  0
  7 22  1  0
 11 23  1  0
 11 24  1  0
 12 25  1  0
 12 26  1  0
 13 27  1  0
 13 28  1  0
 14 29  1  0
 14 30  1  0
 15 31  1  0
 17 32  1  0
 19 33  1  0
M  ISO  8  21  14  22  14  23  13  24  13  25  13  26  13  27  13  28  13
M  ISO  5  29  13  30  13  31  14  32  14  33  14
M  END
>  <minimizedAffinity>  (1) 
-4.97302818

>  <minimizedRMSD>  (1) 
3.39161468

$$$$
