
     RDKit          3D

 30 32  0  0  0  0  0  0  0  0999 V2000
   37.3570   31.2830   48.6230 N   0  0  0  0  0  0  0  0  0  0  0  0
   38.3200   32.1530   48.9540 C   0  0  0  0  0  0  0  0  0  0  0  0
   38.9400   32.6310   47.8640 N   0  0  0  0  0  0  0  0  0  0  0  0
   38.3730   32.0650   46.7920 C   0  0  0  0  0  0  0  0  0  0  0  0
   38.5550   32.1410   45.4360 C   0  0  0  0  0  0  0  0  0  0  0  0
   37.8200   31.4370   44.5430 N   0  0  0  0  0  0  0  0  0  0  0  0
   36.8690   30.6320   45.0510 C   0  0  0  0  0  0  0  0  0  0  0  0
   36.6880   30.5530   46.3670 N   0  0  0  0  0  0  0  0  0  0  0  0
   37.3800   31.2200   47.2880 C   0  0  0  0  0  0  0  0  0  0  0  0
   35.1500   30.4920   49.2440 C   0  0  0  0  0  0  0  0  0  0  0  0
   36.5140   30.5950   49.5140 C   0  0  0  0  0  0  0  0  0  0  0  0
   37.0200   30.0140   50.6660 C   0  0  0  0  0  0  0  0  0  0  0  0
   36.1190   29.3600   51.4810 N   0  0  0  0  0  0  0  0  0  0  0  0
   34.8100   29.2790   51.1930 C   0  0  0  0  0  0  0  0  0  0  0  0
   34.3130   29.8380   50.0810 N   0  0  0  0  0  0  0  0  0  0  0  0
   39.6020   33.0280   44.8670 C   0  0  0  0  0  0  0  0  0  0  0  0
   39.4280   33.2270   43.3800 C   0  0  0  0  0  0  0  0  0  0  0  0
   41.0000   32.6000   45.1920 C   0  0  0  0  0  0  0  0  0  0  0  0
   38.5704   32.4389   49.9863 H   0  0  0  0  0  0  0  0  0  0  0  0
   36.2380   30.0362   44.3751 H   0  0  0  0  0  0  0  0  0  0  0  0
   34.7460   30.9526   48.3305 H   0  0  0  0  0  0  0  0  0  0  0  0
   38.0891   30.0715   50.9186 H   0  0  0  0  0  0  0  0  0  0  0  0
   34.1359   28.7461   51.8797 H   0  0  0  0  0  0  0  0  0  0  0  0
   39.4555   33.9984   45.3638 H   0  0  0  0  0  0  0  0  0  0  0  0
   38.7136   34.0440   43.2005 H   0  0  0  0  0  0  0  0  0  0  0  0
   40.3979   33.4822   42.9282 H   0  0  0  0  0  0  0  0  0  0  0  0
   39.0457   32.2998   42.9282 H   0  0  0  0  0  0  0  0  0  0  0  0
   41.1271   32.5611   46.2839 H   0  0  0  0  0  0  0  0  0  0  0  0
   41.1869   31.6035   44.7654 H   0  0  0  0  0  0  0  0  0  0  0  0
   41.7128   33.3211   44.7654 H   0  0  0  0  0  0  0  0  0  0  0  0
  1  2  1  0
  1 11  1  0
  3  2  2  0
  4  9  2  0
  4  3  1  0
  5  4  1  0
  6  7  1  0
  6  5  2  0
  7  8  2  0
  8  9  1  0
  9  1  1  0
 10 11  2  0
 10 15  1  0
 11 12  1  0
 12 13  2  0
 14 13  1  0
 15 14  2  0
 16 18  1  0
 16  5  1  0
 17 16  1  0
  2 19  1  0
  7 20  1  0
 10 21  1  0
 12 22  1  0
 14 23  1  0
 16 24  1  0
 17 25  1  0
 17 26  1  0
 17 27  1  0
 18 28  1  0
 18 29  1  0
 18 30  1  0
M  ISO  8  19  14  20  14  21  14  22  14  23  14  24   8  25   8  26   8
M  ISO  4  27   8  28   8  29   8  30   8
M  END
>  <minimizedAffinity>  (1) 
-5.33277893

>  <minimizedRMSD>  (1) 
1.39845383

$$$$
