
     RDKit          3D

 41 44  0  0  0  0  0  0  0  0999 V2000
   33.1790   30.8150   43.9390 C   0  0  0  0  0  0  0  0  0  0  0  0
   33.3730   31.8990   43.0400 C   0  0  0  0  0  0  0  0  0  0  0  0
   32.2280   32.4850   42.4650 C   0  0  0  0  0  0  0  0  0  0  0  0
   30.9960   31.9810   42.8000 N   0  0  0  0  0  0  0  0  0  0  0  0
   30.8540   30.9520   43.6560 C   0  0  0  0  0  0  0  0  0  0  0  0
   31.9320   30.3840   44.2120 N   0  0  0  0  0  0  0  0  0  0  0  0
   29.5610   30.4680   43.9690 N   0  0  0  0  0  0  0  0  0  0  0  0
   28.5960   30.4200   43.0430 C   0  0  0  0  0  0  0  0  0  0  0  0
   27.3220   29.9530   43.3160 C   0  0  0  0  0  0  0  0  0  0  0  0
   27.1250   29.5440   44.6040 C   0  0  0  0  0  0  0  0  0  0  0  0
   25.9990   29.0990   44.9610 O   0  0  0  0  0  0  0  0  0  0  0  0
   28.0530   29.5690   45.5740 N   0  0  0  0  0  0  0  0  0  0  0  0
   29.2840   30.0430   45.2270 C   0  0  0  0  0  0  0  0  0  0  0  0
   30.1660   30.0770   46.1100 O   0  0  0  0  0  0  0  0  0  0  0  0
   27.5350   27.8460   49.3620 C   0  0  0  0  0  0  0  0  0  0  0  0
   27.3150   29.1950   49.2280 C   0  0  0  0  0  0  0  0  0  0  0  0
   27.4620   29.8350   48.0280 C   0  0  0  0  0  0  0  0  0  0  0  0
   27.8380   29.1400   46.9080 C   0  0  0  0  0  0  0  0  0  0  0  0
   28.0670   27.7670   47.0170 C   0  0  0  0  0  0  0  0  0  0  0  0
   27.9140   27.1180   48.2550 C   0  0  0  0  0  0  0  0  0  0  0  0
   27.3430   27.0530   50.8960 S   0  0  0  0  0  0  0  0  0  0  0  0
   28.5820   27.0110   51.7050 O   0  0  0  0  0  0  0  0  0  0  0  0
   26.2540   27.7790   51.6550 O   0  0  0  0  0  0  0  0  0  0  0  0
   26.2250   29.8770   42.3380 C   0  0  0  0  0  0  0  0  0  0  0  0
   25.4010   31.1130   42.3710 C   0  0  0  0  0  0  0  0  0  0  0  0
   24.1900   31.4130   41.8560 N   0  0  0  0  0  0  0  0  0  0  0  0
   23.8700   32.6380   42.1450 O   0  0  0  0  0  0  0  0  0  0  0  0
   24.8340   33.1960   42.8510 C   0  0  0  0  0  0  0  0  0  0  0  0
   25.7900   32.2600   42.9980 N   0  0  0  0  0  0  0  0  0  0  0  0
   34.0456   30.3289   44.4110 H   0  0  0  0  0  0  0  0  0  0  0  0
   34.3817   32.2674   42.8016 H   0  0  0  0  0  0  0  0  0  0  0  0
   32.3193   33.3273   41.7635 H   0  0  0  0  0  0  0  0  0  0  0  0
   28.8245   30.7656   42.0240 H   0  0  0  0  0  0  0  0  0  0  0  0
   27.0120   29.7773   50.1107 H   0  0  0  0  0  0  0  0  0  0  0  0
   27.2768   30.9172   47.9612 H   0  0  0  0  0  0  0  0  0  0  0  0
   28.3685   27.1903   46.1302 H   0  0  0  0  0  0  0  0  0  0  0  0
   28.0956   26.0364   48.3393 H   0  0  0  0  0  0  0  0  0  0  0  0
   27.0148   25.7444   50.6578 H   0  0  0  0  0  0  0  0  0  0  0  0
   25.5881   29.0127   42.5772 H   0  0  0  0  0  0  0  0  0  0  0  0
   26.6568   29.7683   41.3321 H   0  0  0  0  0  0  0  0  0  0  0  0
   24.8530   34.2238   43.2426 H   0  0  0  0  0  0  0  0  0  0  0  0
  1  6  2  0
  2  1  1  0
  3  4  1  0
  3  2  2  0
  4  5  2  0
  5  7  1  0
  5  6  1  0
  7 13  1  0
  8  9  2  0
  8  7  1  0
  9 10  1  0
 10 11  2  0
 10 12  1  0
 12 18  1  0
 13 12  1  0
 13 14  2  0
 15 21  1  0
 16 15  2  0
 17 16  1  0
 18 19  1  0
 18 17  2  0
 19 20  2  0
 20 15  1  0
 21 23  2  0
 21 22  2  0
 24 25  1  0
 24  9  1  0
 25 29  1  0
 26 27  1  0
 26 25  2  0
 27 28  1  0
 28 29  2  0
  1 30  1  0
  2 31  1  0
  3 32  1  0
  8 33  1  0
 16 34  1  0
 17 35  1  0
 19 36  1  0
 20 37  1  0
 21 38  1  0
 24 39  1  0
 24 40  1  0
 28 41  1  0
M  ISO  8  30  14  31  14  32  14  33  14  34  14  35  14  36  14  37  14
M  ISO  4  38  11  39   8  40   8  41  14
M  END
>  <minimizedAffinity>  (1) 
-5.08793783

>  <minimizedRMSD>  (1) 
1.8163991

$$$$
