
     RDKit          3D

 45 48  0  0  1  0  0  0  0  0999 V2000
   37.9870   31.3110   47.6880 N   0  0  0  0  0  0  0  0  0  0  0  0
   39.0030   32.1500   47.5080 C   0  0  0  0  0  0  0  0  0  0  0  0
   39.0930   32.5320   46.2200 N   0  0  0  0  0  0  0  0  0  0  0  0
   38.1020   31.9180   45.5500 C   0  0  0  0  0  0  0  0  0  0  0  0
   37.7060   31.8740   44.2380 C   0  0  0  0  0  0  0  0  0  0  0  0
   36.6630   31.1200   43.7910 N   0  0  0  0  0  0  0  0  0  0  0  0
   36.0130   30.3950   44.7270 C   0  0  0  0  0  0  0  0  0  0  0  0
   36.3980   30.4330   46.0030 N   0  0  0  0  0  0  0  0  0  0  0  0
   37.4140   31.1550   46.4810 C   0  0  0  0  0  0  0  0  0  0  0  0
   36.6710   29.6720   48.9100 C   0  0  0  0  0  0  0  0  0  0  0  0
   37.6130   30.6940   48.9000 C   0  0  0  0  0  0  0  0  0  0  0  0
   38.1960   31.1000   50.1040 C   0  0  0  0  0  0  0  0  0  0  0  0
   37.7850   30.4420   51.2410 N   0  0  0  0  0  0  0  0  0  0  0  0
   36.8750   29.4630   51.2190 C   0  0  0  0  0  0  0  0  0  0  0  0
   36.3150   29.0690   50.0750 N   0  0  0  0  0  0  0  0  0  0  0  0
   38.3430   32.7300   43.2240 C   0  0  2  0  0  0  0  0  0  0  0  0
   37.5230   32.9990   42.0230 C   0  0  0  0  0  0  0  0  0  0  0  0
   39.7350   32.1590   42.8360 C   0  0  0  0  0  0  0  0  0  0  0  0
   39.6700   30.8890   42.2050 N   0  0  0  0  0  0  0  0  0  0  0  0
   40.3290   31.0450   40.8870 C   0  0  0  0  0  0  0  0  0  0  0  0
   40.1340   29.7830   40.1010 C   0  0  0  0  0  0  0  0  0  0  0  0
   41.1090   28.7510   40.6640 C   0  0  0  0  0  0  0  0  0  0  0  0
   41.4910   29.2010   42.0440 C   0  0  0  0  0  0  0  0  0  0  0  0
   40.3840   29.8170   42.8490 C   0  0  0  0  0  0  0  0  0  0  0  0
   39.6806   32.4874   48.3062 H   0  0  0  0  0  0  0  0  0  0  0  0
   35.1583   29.7676   44.4340 H   0  0  0  0  0  0  0  0  0  0  0  0
   36.2090   29.3480   47.9658 H   0  0  0  0  0  0  0  0  0  0  0  0
   38.9452   31.9045   50.1409 H   0  0  0  0  0  0  0  0  0  0  0  0
   36.5834   28.9744   52.1604 H   0  0  0  0  0  0  0  0  0  0  0  0
   38.4601   33.7137   43.7022 H   0  0  0  0  0  0  0  0  0  0  0  0
   36.5195   33.3282   42.3304 H   0  0  0  0  0  0  0  0  0  0  0  0
   37.9998   33.7878   41.4226 H   0  0  0  0  0  0  0  0  0  0  0  0
   37.4399   32.0810   41.4226 H   0  0  0  0  0  0  0  0  0  0  0  0
   40.2215   32.8655   42.1474 H   0  0  0  0  0  0  0  0  0  0  0  0
   40.3027   32.0281   43.7691 H   0  0  0  0  0  0  0  0  0  0  0  0
   39.8801   31.8912   40.3463 H   0  0  0  0  0  0  0  0  0  0  0  0
   41.4029   31.2391   41.0250 H   0  0  0  0  0  0  0  0  0  0  0  0
   40.3478   29.9637   39.0372 H   0  0  0  0  0  0  0  0  0  0  0  0
   39.0962   29.4271   40.1811 H   0  0  0  0  0  0  0  0  0  0  0  0
   40.6262   27.7637   40.7106 H   0  0  0  0  0  0  0  0  0  0  0  0
   41.9987   28.6667   40.0226 H   0  0  0  0  0  0  0  0  0  0  0  0
   41.8650   28.3256   42.5952 H   0  0  0  0  0  0  0  0  0  0  0  0
   42.2434   29.9918   41.9079 H   0  0  0  0  0  0  0  0  0  0  0  0
   40.8202   30.2112   43.7787 H   0  0  0  0  0  0  0  0  0  0  0  0
   39.6463   29.0168   43.0089 H   0  0  0  0  0  0  0  0  0  0  0  0
  1 11  1  0
  2  1  1  0
  3  2  2  0
  4  3  1  0
  4  9  2  0
  5  4  1  0
  6  5  2  0
  6  7  1  0
  7  8  2  0
  8  9  1  0
  9  1  1  0
 10 15  2  0
 11 10  1  0
 11 12  2  0
 12 13  1  0
 14 13  2  0
 15 14  1  0
 16  5  1  0
 17 16  1  0
 18 16  1  0
 19 18  1  0
 19 24  1  0
 20 19  1  0
 21 22  1  0
 21 20  1  0
 22 23  1  0
 23 24  1  0
  2 25  1  0
  7 26  1  0
 10 27  1  0
 12 28  1  0
 14 29  1  0
 16 30  1  1
 17 31  1  0
 17 32  1  0
 17 33  1  0
 18 34  1  0
 18 35  1  0
 20 36  1  0
 20 37  1  0
 21 38  1  0
 21 39  1  0
 22 40  1  0
 22 41  1  0
 23 42  1  0
 23 43  1  0
 24 44  1  0
 24 45  1  0
M  ISO  8  25  14  26  14  27  14  28  14  29  14  30   8  31   8  32   8
M  ISO  8  33   8  34   8  35   8  36  13  37  13  38  13  39  13  40  13
M  ISO  5  41  13  42  13  43  13  44  13  45  13
M  END
>  <minimizedAffinity>  (1) 
-5.7111969

>  <minimizedRMSD>  (1) 
2.09190845

$$$$
