
     RDKit          3D

 30 32  0  0  0  0  0  0  0  0999 V2000
   36.3350   30.1700   47.7750 N   0  0  0  0  0  0  0  0  0  0  0  0
   35.0830   29.8860   47.3220 C   0  0  0  0  0  0  0  0  0  0  0  0
   34.7850   29.9820   45.9790 C   0  0  0  0  0  0  0  0  0  0  0  0
   35.8330   30.3740   45.1840 C   0  0  0  0  0  0  0  0  0  0  0  0
   35.5900   30.4700   43.9390 O   0  0  0  0  0  0  0  0  0  0  0  0
   37.0790   30.6630   45.5760 N   0  0  0  0  0  0  0  0  0  0  0  0
   37.2830   30.5430   46.9140 C   0  0  0  0  0  0  0  0  0  0  0  0
   38.4270   30.7980   47.3580 O   0  0  0  0  0  0  0  0  0  0  0  0
   37.6920   30.7720   49.6110 C   0  0  0  0  0  0  0  0  0  0  0  0
   36.5720   30.0510   49.1500 C   0  0  0  0  0  0  0  0  0  0  0  0
   35.8500   29.3260   50.0800 C   0  0  0  0  0  0  0  0  0  0  0  0
   36.2320   29.3310   51.3770 N   0  0  0  0  0  0  0  0  0  0  0  0
   37.3140   30.0310   51.8020 C   0  0  0  0  0  0  0  0  0  0  0  0
   38.0340   30.7490   50.9040 N   0  0  0  0  0  0  0  0  0  0  0  0
   38.0980   31.0620   44.6660 C   0  0  0  0  0  0  0  0  0  0  0  0
   38.3350   32.3800   44.2630 C   0  0  0  0  0  0  0  0  0  0  0  0
   39.3510   32.6630   43.3720 C   0  0  0  0  0  0  0  0  0  0  0  0
   40.1390   31.6240   42.8790 C   0  0  0  0  0  0  0  0  0  0  0  0
   39.9210   30.3200   43.2640 C   0  0  0  0  0  0  0  0  0  0  0  0
   38.8910   30.0380   44.1660 C   0  0  0  0  0  0  0  0  0  0  0  0
   34.3026   29.5774   48.0332 H   0  0  0  0  0  0  0  0  0  0  0  0
   33.7854   29.7616   45.5763 H   0  0  0  0  0  0  0  0  0  0  0  0
   38.2911   31.3598   48.9000 H   0  0  0  0  0  0  0  0  0  0  0  0
   34.9686   28.7476   49.7660 H   0  0  0  0  0  0  0  0  0  0  0  0
   37.6041   30.0164   52.8630 H   0  0  0  0  0  0  0  0  0  0  0  0
   37.7095   33.1944   44.6574 H   0  0  0  0  0  0  0  0  0  0  0  0
   39.5371   33.6994   43.0538 H   0  0  0  0  0  0  0  0  0  0  0  0
   40.9491   31.8498   42.1700 H   0  0  0  0  0  0  0  0  0  0  0  0
   40.5499   29.5098   42.8665 H   0  0  0  0  0  0  0  0  0  0  0  0
   38.7080   29.0001   44.4810 H   0  0  0  0  0  0  0  0  0  0  0  0
  1 10  1  0
  2  1  1  0
  3  2  2  0
  4  6  1  0
  4  3  1  0
  5  4  2  0
  6  7  1  0
  7  8  2  0
  7  1  1  0
  9 14  2  0
 10  9  1  0
 10 11  2  0
 11 12  1  0
 12 13  2  0
 14 13  1  0
 15  6  1  0
 16 15  2  0
 17 16  1  0
 18 19  1  0
 18 17  2  0
 19 20  2  0
 20 15  1  0
  2 21  1  0
  3 22  1  0
  9 23  1  0
 11 24  1  0
 13 25  1  0
 16 26  1  0
 17 27  1  0
 18 28  1  0
 19 29  1  0
 20 30  1  0
M  ISO  8  21  14  22  14  23  14  24  14  25  14  26  14  27  14  28  14
M  ISO  2  29  14  30  14
M  END
>  <minimizedAffinity>  (1) 
-5.39223242

>  <minimizedRMSD>  (1) 
4.44072342

$$$$
