
     RDKit          3D

 31 34  0  0  0  0  0  0  0  0999 V2000
   36.0920   30.3370   46.9590 N   0  0  0  0  0  0  0  0  0  0  0  0
   34.8890   29.9260   46.4990 C   0  0  0  0  0  0  0  0  0  0  0  0
   34.6330   29.9430   45.1420 C   0  0  0  0  0  0  0  0  0  0  0  0
   35.6600   30.3900   44.3550 C   0  0  0  0  0  0  0  0  0  0  0  0
   35.4540   30.4160   43.1010 O   0  0  0  0  0  0  0  0  0  0  0  0
   36.8630   30.8050   44.7650 N   0  0  0  0  0  0  0  0  0  0  0  0
   37.0420   30.7610   46.1130 C   0  0  0  0  0  0  0  0  0  0  0  0
   38.1480   31.1350   46.5780 O   0  0  0  0  0  0  0  0  0  0  0  0
   40.4250   29.6890   42.0900 N   0  0  0  0  0  0  0  0  0  0  0  0
   39.9080   28.5930   42.6740 C   0  0  0  0  0  0  0  0  0  0  0  0
   38.8570   28.9540   43.4580 N   0  0  0  0  0  0  0  0  0  0  0  0
   38.7340   30.2920   43.3490 C   0  0  0  0  0  0  0  0  0  0  0  0
   37.8820   31.2570   43.8800 C   0  0  0  0  0  0  0  0  0  0  0  0
   38.0440   32.5640   43.5470 N   0  0  0  0  0  0  0  0  0  0  0  0
   39.0220   32.9720   42.7010 C   0  0  0  0  0  0  0  0  0  0  0  0
   39.8650   32.0690   42.1670 N   0  0  0  0  0  0  0  0  0  0  0  0
   39.7150   30.7620   42.4900 C   0  0  0  0  0  0  0  0  0  0  0  0
   37.6540   30.1170   48.7350 C   0  0  0  0  0  0  0  0  0  0  0  0
   36.3080   30.3010   48.3600 C   0  0  0  0  0  0  0  0  0  0  0  0
   35.3490   30.4270   49.3520 C   0  0  0  0  0  0  0  0  0  0  0  0
   35.7320   30.3700   50.6470 N   0  0  0  0  0  0  0  0  0  0  0  0
   37.0380   30.1910   50.9940 C   0  0  0  0  0  0  0  0  0  0  0  0
   37.9670   30.0690   50.0400 N   0  0  0  0  0  0  0  0  0  0  0  0
   34.1175   29.5796   47.2024 H   0  0  0  0  0  0  0  0  0  0  0  0
   33.6692   29.6193   44.7220 H   0  0  0  0  0  0  0  0  0  0  0  0
   41.2283   29.7052   41.4456 H   0  0  0  0  0  0  0  0  0  0  0  0
   40.2774   27.5658   42.5386 H   0  0  0  0  0  0  0  0  0  0  0  0
   39.1261   34.0383   42.4518 H   0  0  0  0  0  0  0  0  0  0  0  0
   38.4372   30.0141   47.9695 H   0  0  0  0  0  0  0  0  0  0  0  0
   34.2906   30.5714   49.0893 H   0  0  0  0  0  0  0  0  0  0  0  0
   37.3265   30.1471   52.0546 H   0  0  0  0  0  0  0  0  0  0  0  0
  1 19  1  0
  2  1  1  0
  3  2  2  0
  4  6  1  0
  4  3  1  0
  5  4  2  0
  6  7  1  0
  7  8  2  0
  7  1  1  0
  9 17  1  0
  9 10  1  0
 10 11  2  0
 12 11  1  0
 12 13  2  0
 13  6  1  0
 14 13  1  0
 15 14  2  0
 16 17  2  0
 16 15  1  0
 17 12  1  0
 18 23  2  0
 19 18  1  0
 19 20  2  0
 20 21  1  0
 21 22  2  0
 23 22  1  0
  2 24  1  0
  3 25  1  0
  9 26  1  0
 10 27  1  0
 15 28  1  0
 18 29  1  0
 20 30  1  0
 22 31  1  0
M  ISO  8  24  14  25  14  26   9  27  14  28  14  29  14  30  14  31  14
M  END
>  <minimizedAffinity>  (1) 
-5.12761402

>  <minimizedRMSD>  (1) 
5.45693588

$$$$
