
     RDKit          3D

 27 29  0  0  0  0  0  0  0  0999 V2000
   36.1240   30.2940   47.1320 N   0  0  0  0  0  0  0  0  0  0  0  0
   35.2880   29.9380   46.1230 C   0  0  0  0  0  0  0  0  0  0  0  0
   35.6140   30.1850   44.8060 C   0  0  0  0  0  0  0  0  0  0  0  0
   36.8210   30.8040   44.6250 C   0  0  0  0  0  0  0  0  0  0  0  0
   37.1590   31.0510   43.4210 O   0  0  0  0  0  0  0  0  0  0  0  0
   37.6860   31.1800   45.5730 N   0  0  0  0  0  0  0  0  0  0  0  0
   37.2870   30.8990   46.8420 C   0  0  0  0  0  0  0  0  0  0  0  0
   38.0450   31.2200   47.7930 O   0  0  0  0  0  0  0  0  0  0  0  0
   36.6950   29.3560   49.2180 C   0  0  0  0  0  0  0  0  0  0  0  0
   35.7310   30.0130   48.4460 C   0  0  0  0  0  0  0  0  0  0  0  0
   34.5180   30.3100   49.0370 C   0  0  0  0  0  0  0  0  0  0  0  0
   34.3060   29.9610   50.3280 N   0  0  0  0  0  0  0  0  0  0  0  0
   35.2470   29.3260   51.0650 C   0  0  0  0  0  0  0  0  0  0  0  0
   36.4420   29.0290   50.4930 N   0  0  0  0  0  0  0  0  0  0  0  0
   38.9240   31.8220   45.2860 C   0  0  0  0  0  0  0  0  0  0  0  0
   40.2480   31.4710   45.1100 C   0  0  0  0  0  0  0  0  0  0  0  0
   40.9310   32.6190   44.8520 N   0  0  0  0  0  0  0  0  0  0  0  0
   40.0610   33.6540   44.8670 C   0  0  0  0  0  0  0  0  0  0  0  0
   38.8210   33.1660   45.1340 N   0  0  0  0  0  0  0  0  0  0  0  0
   34.3342   29.4440   46.3602 H   0  0  0  0  0  0  0  0  0  0  0  0
   34.9570   29.9070   43.9687 H   0  0  0  0  0  0  0  0  0  0  0  0
   37.6699   29.1054   48.7745 H   0  0  0  0  0  0  0  0  0  0  0  0
   33.7324   30.8248   48.4645 H   0  0  0  0  0  0  0  0  0  0  0  0
   35.0466   29.0545   52.1120 H   0  0  0  0  0  0  0  0  0  0  0  0
   40.6699   30.4567   45.1675 H   0  0  0  0  0  0  0  0  0  0  0  0
   40.3137   34.7103   44.6929 H   0  0  0  0  0  0  0  0  0  0  0  0
   37.9554   33.7193   45.2079 H   0  0  0  0  0  0  0  0  0  0  0  0
  1 10  1  0
  2  1  1  0
  3  2  2  0
  4  3  1  0
  4  6  1  0
  5  4  2  0
  6  7  1  0
  7  1  1  0
  7  8  2  0
  9 14  2  0
 10 11  2  0
 10  9  1  0
 11 12  1  0
 12 13  2  0
 14 13  1  0
 15  6  1  0
 16 15  2  0
 17 18  2  0
 17 16  1  0
 18 19  1  0
 19 15  1  0
  2 20  1  0
  3 21  1  0
  9 22  1  0
 11 23  1  0
 13 24  1  0
 16 25  1  0
 18 26  1  0
 19 27  1  0
M  ISO  8  20  14  21  14  22  14  23  14  24  14  25  14  26  14  27   9
M  END
>  <minimizedAffinity>  (1) 
-5.06217718

>  <minimizedRMSD>  (1) 
3.25704551

$$$$
