
     RDKit          3D

 27 29  0  0  0  0  0  0  0  0999 V2000
   36.0380   30.3130   47.1760 N   0  0  0  0  0  0  0  0  0  0  0  0
   35.3180   29.7690   46.1610 C   0  0  0  0  0  0  0  0  0  0  0  0
   35.6610   30.0740   44.8490 C   0  0  0  0  0  0  0  0  0  0  0  0
   36.7290   30.9240   44.7070 C   0  0  0  0  0  0  0  0  0  0  0  0
   37.0570   31.2140   43.5110 O   0  0  0  0  0  0  0  0  0  0  0  0
   37.4600   31.4780   45.6770 N   0  0  0  0  0  0  0  0  0  0  0  0
   37.0730   31.1400   46.9360 C   0  0  0  0  0  0  0  0  0  0  0  0
   37.7000   31.6110   47.9000 O   0  0  0  0  0  0  0  0  0  0  0  0
   40.1990   33.7180   45.7400 N   0  0  0  0  0  0  0  0  0  0  0  0
   39.2550   32.9860   46.3190 N   0  0  0  0  0  0  0  0  0  0  0  0
   38.5330   32.3350   45.3920 C   0  0  0  0  0  0  0  0  0  0  0  0
   39.0850   32.7080   44.1830 C   0  0  0  0  0  0  0  0  0  0  0  0
   40.1360   33.5790   44.3930 C   0  0  0  0  0  0  0  0  0  0  0  0
   36.6740   29.3560   49.2500 C   0  0  0  0  0  0  0  0  0  0  0  0
   35.6580   29.9780   48.4950 C   0  0  0  0  0  0  0  0  0  0  0  0
   34.4260   30.1940   49.1000 C   0  0  0  0  0  0  0  0  0  0  0  0
   34.2480   29.8010   50.3820 N   0  0  0  0  0  0  0  0  0  0  0  0
   35.2370   29.2040   51.0930 C   0  0  0  0  0  0  0  0  0  0  0  0
   36.4270   28.9920   50.5180 N   0  0  0  0  0  0  0  0  0  0  0  0
   34.4745   29.0959   46.3744 H   0  0  0  0  0  0  0  0  0  0  0  0
   35.1155   29.6635   43.9865 H   0  0  0  0  0  0  0  0  0  0  0  0
   40.8801   34.3060   46.2412 H   0  0  0  0  0  0  0  0  0  0  0  0
   38.7388   32.3625   43.1977 H   0  0  0  0  0  0  0  0  0  0  0  0
   40.7782   34.0537   43.6366 H   0  0  0  0  0  0  0  0  0  0  0  0
   37.6617   29.1705   48.8028 H   0  0  0  0  0  0  0  0  0  0  0  0
   33.6082   30.6770   48.5451 H   0  0  0  0  0  0  0  0  0  0  0  0
   35.0623   28.8963   52.1346 H   0  0  0  0  0  0  0  0  0  0  0  0
  1 15  1  0
  2  1  1  0
  3  2  2  0
  4  3  1  0
  4  6  1  0
  5  4  2  0
  6  7  1  0
  7  1  1  0
  7  8  2  0
  9 10  1  0
 11  6  1  0
 11 10  2  0
 12 13  2  0
 12 11  1  0
 13  9  1  0
 14 19  2  0
 15 16  2  0
 15 14  1  0
 16 17  1  0
 17 18  2  0
 19 18  1  0
  2 20  1  0
  3 21  1  0
  9 22  1  0
 12 23  1  0
 13 24  1  0
 14 25  1  0
 16 26  1  0
 18 27  1  0
M  ISO  8  20  14  21  14  22   9  23  14  24  14  25  14  26  14  27  14
M  END
>  <minimizedAffinity>  (1) 
-5.0322957

>  <minimizedRMSD>  (1) 
3.05118465

$$$$
