
     RDKit          3D

 25 27  0  0  0  0  0  0  0  0999 V2000
   34.7050   29.9200   46.3080 N   0  0  0  0  0  0  0  0  0  0  0  0
   35.2490   29.8770   45.0800 C   0  0  0  0  0  0  0  0  0  0  0  0
   36.5590   30.2610   44.8720 C   0  0  0  0  0  0  0  0  0  0  0  0
   37.2180   30.6730   46.0020 C   0  0  0  0  0  0  0  0  0  0  0  0
   38.4290   31.0330   45.8270 O   0  0  0  0  0  0  0  0  0  0  0  0
   36.7260   30.7360   47.2440 N   0  0  0  0  0  0  0  0  0  0  0  0
   35.4370   30.3410   47.3620 C   0  0  0  0  0  0  0  0  0  0  0  0
   34.9100   30.3730   48.4930 O   0  0  0  0  0  0  0  0  0  0  0  0
   37.4920   31.1800   48.3580 C   0  0  0  0  0  0  0  0  0  0  0  0
   37.9270   30.5750   49.4930 N   0  0  0  0  0  0  0  0  0  0  0  0
   38.6000   31.4490   50.1870 O   0  0  0  0  0  0  0  0  0  0  0  0
   38.6140   32.6000   49.5360 C   0  0  0  0  0  0  0  0  0  0  0  0
   37.9220   32.4750   48.3680 N   0  0  0  0  0  0  0  0  0  0  0  0
   33.1860   28.3020   47.1080 C   0  0  0  0  0  0  0  0  0  0  0  0
   33.3630   29.5150   46.4540 C   0  0  0  0  0  0  0  0  0  0  0  0
   32.2300   30.2130   46.0090 C   0  0  0  0  0  0  0  0  0  0  0  0
   31.0110   29.6650   46.2400 N   0  0  0  0  0  0  0  0  0  0  0  0
   30.8600   28.4790   46.8800 C   0  0  0  0  0  0  0  0  0  0  0  0
   31.9570   27.8100   47.3070 N   0  0  0  0  0  0  0  0  0  0  0  0
   34.6430   29.5315   44.2295 H   0  0  0  0  0  0  0  0  0  0  0  0
   37.0352   30.2383   43.8807 H   0  0  0  0  0  0  0  0  0  0  0  0
   39.1088   33.5187   49.8840 H   0  0  0  0  0  0  0  0  0  0  0  0
   34.0626   27.7415   47.4651 H   0  0  0  0  0  0  0  0  0  0  0  0
   32.3276   31.1768   45.4879 H   0  0  0  0  0  0  0  0  0  0  0  0
   29.8556   28.0643   47.0507 H   0  0  0  0  0  0  0  0  0  0  0  0
  1 15  1  0
  1  7  1  0
  2  1  1  0
  3  2  2  0
  3  4  1  0
  4  6  1  0
  5  4  2  0
  6  7  1  0
  6  9  1  0
  7  8  2  0
  9 13  1  0
  9 10  2  0
 10 11  1  0
 12 11  1  0
 13 12  2  0
 14 19  2  0
 15 14  1  0
 16 17  1  0
 16 15  2  0
 17 18  2  0
 18 19  1  0
  2 20  1  0
  3 21  1  0
 12 22  1  0
 14 23  1  0
 16 24  1  0
 18 25  1  0
M  ISO  6  20  14  21  14  22  14  23  14  24  14  25  14
M  END
>  <minimizedAffinity>  (1) 
-4.89734983

>  <minimizedRMSD>  (1) 
4.59896803

$$$$
