
     RDKit          3D

 28 30  0  0  0  0  0  0  0  0999 V2000
   35.8380   30.1110   47.3580 N   0  0  0  0  0  0  0  0  0  0  0  0
   34.9420   29.8070   46.3900 C   0  0  0  0  0  0  0  0  0  0  0  0
   35.2470   30.0280   45.0670 C   0  0  0  0  0  0  0  0  0  0  0  0
   36.4890   30.5610   44.8430 C   0  0  0  0  0  0  0  0  0  0  0  0
   36.8020   30.7790   43.6260 O   0  0  0  0  0  0  0  0  0  0  0  0
   37.4100   30.8790   45.7610 N   0  0  0  0  0  0  0  0  0  0  0  0
   37.0360   30.6320   47.0420 C   0  0  0  0  0  0  0  0  0  0  0  0
   37.8400   30.9000   47.9620 O   0  0  0  0  0  0  0  0  0  0  0  0
   36.4490   29.2030   49.4630 C   0  0  0  0  0  0  0  0  0  0  0  0
   35.4670   29.8610   48.6960 C   0  0  0  0  0  0  0  0  0  0  0  0
   34.2600   30.1930   49.3090 C   0  0  0  0  0  0  0  0  0  0  0  0
   34.0790   29.8720   50.6140 N   0  0  0  0  0  0  0  0  0  0  0  0
   35.0350   29.2390   51.3320 C   0  0  0  0  0  0  0  0  0  0  0  0
   36.1950   28.9170   50.7510 N   0  0  0  0  0  0  0  0  0  0  0  0
   38.6790   31.4310   45.4280 C   0  0  0  0  0  0  0  0  0  0  0  0
   39.8760   30.7340   45.3210 C   0  0  0  0  0  0  0  0  0  0  0  0
   41.0070   31.4610   44.9850 C   0  0  0  0  0  0  0  0  0  0  0  0
   40.9570   32.7850   44.7690 N   0  0  0  0  0  0  0  0  0  0  0  0
   39.7880   33.4480   44.8770 C   0  0  0  0  0  0  0  0  0  0  0  0
   38.6510   32.7680   45.2060 N   0  0  0  0  0  0  0  0  0  0  0  0
   33.9651   29.3811   46.6627 H   0  0  0  0  0  0  0  0  0  0  0  0
   34.5471   29.7946   44.2512 H   0  0  0  0  0  0  0  0  0  0  0  0
   37.4134   28.9264   49.0120 H   0  0  0  0  0  0  0  0  0  0  0  0
   33.4681   30.7065   48.7440 H   0  0  0  0  0  0  0  0  0  0  0  0
   34.8586   28.9904   52.3889 H   0  0  0  0  0  0  0  0  0  0  0  0
   39.9241   29.6491   45.4959 H   0  0  0  0  0  0  0  0  0  0  0  0
   41.9711   30.9394   44.8929 H   0  0  0  0  0  0  0  0  0  0  0  0
   39.7506   34.5331   44.7006 H   0  0  0  0  0  0  0  0  0  0  0  0
  1 10  1  0
  2  1  1  0
  3  2  2  0
  4  3  1  0
  4  6  1  0
  5  4  2  0
  6  7  1  0
  7  1  1  0
  7  8  2  0
  9 14  2  0
 10 11  2  0
 10  9  1  0
 11 12  1  0
 12 13  2  0
 14 13  1  0
 15  6  1  0
 16 15  2  0
 17 16  1  0
 18 19  1  0
 18 17  2  0
 19 20  2  0
 20 15  1  0
  2 21  1  0
  3 22  1  0
  9 23  1  0
 11 24  1  0
 13 25  1  0
 16 26  1  0
 17 27  1  0
 19 28  1  0
M  ISO  8  21  14  22  14  23  14  24  14  25  14  26  14  27  14  28  14
M  END
>  <minimizedAffinity>  (1) 
-4.7759676

>  <minimizedRMSD>  (1) 
3.66422772

$$$$
