
     RDKit          3D

 29 31  0  0  0  0  0  0  0  0999 V2000
   36.3610   30.1910   47.6740 N   0  0  0  0  0  0  0  0  0  0  0  0
   35.1190   29.9290   47.2290 C   0  0  0  0  0  0  0  0  0  0  0  0
   34.8020   30.0420   45.8910 C   0  0  0  0  0  0  0  0  0  0  0  0
   35.8450   30.4320   45.0950 C   0  0  0  0  0  0  0  0  0  0  0  0
   35.5940   30.5480   43.8480 O   0  0  0  0  0  0  0  0  0  0  0  0
   37.1170   30.7110   45.4780 N   0  0  0  0  0  0  0  0  0  0  0  0
   37.3170   30.5680   46.8140 C   0  0  0  0  0  0  0  0  0  0  0  0
   38.4670   30.8090   47.2450 O   0  0  0  0  0  0  0  0  0  0  0  0
   37.5560   30.9750   49.5570 C   0  0  0  0  0  0  0  0  0  0  0  0
   36.6170   30.0570   49.0450 C   0  0  0  0  0  0  0  0  0  0  0  0
   36.0630   29.1480   49.9280 C   0  0  0  0  0  0  0  0  0  0  0  0
   36.4380   29.1720   51.2310 N   0  0  0  0  0  0  0  0  0  0  0  0
   37.3420   30.0640   51.6980 C   0  0  0  0  0  0  0  0  0  0  0  0
   37.8960   30.9630   50.8500 N   0  0  0  0  0  0  0  0  0  0  0  0
   38.0890   31.1020   44.5510 C   0  0  0  0  0  0  0  0  0  0  0  0
   38.3840   32.3880   44.1610 C   0  0  0  0  0  0  0  0  0  0  0  0
   39.3620   32.6700   43.2400 C   0  0  0  0  0  0  0  0  0  0  0  0
   40.0870   31.6350   42.6720 C   0  0  0  0  0  0  0  0  0  0  0  0
   39.7740   30.3420   43.0800 C   0  0  0  0  0  0  0  0  0  0  0  0
   38.8060   30.0840   43.9900 N   0  0  0  0  0  0  0  0  0  0  0  0
   34.3427   29.6193   47.9441 H   0  0  0  0  0  0  0  0  0  0  0  0
   33.7958   29.8360   45.4971 H   0  0  0  0  0  0  0  0  0  0  0  0
   38.0160   31.7124   48.8827 H   0  0  0  0  0  0  0  0  0  0  0  0
   35.3248   28.4121   49.5765 H   0  0  0  0  0  0  0  0  0  0  0  0
   37.6254   30.0590   52.7608 H   0  0  0  0  0  0  0  0  0  0  0  0
   37.8159   33.2198   44.6030 H   0  0  0  0  0  0  0  0  0  0  0  0
   39.5689   33.7120   42.9545 H   0  0  0  0  0  0  0  0  0  0  0  0
   40.8762   31.8271   41.9303 H   0  0  0  0  0  0  0  0  0  0  0  0
   40.3334   29.4994   42.6474 H   0  0  0  0  0  0  0  0  0  0  0  0
  1 10  1  0
  2  1  1  0
  3  2  2  0
  4  6  1  0
  4  3  1  0
  5  4  2  0
  6  7  1  0
  7  8  2  0
  7  1  1  0
  9 14  2  0
 10  9  1  0
 10 11  2  0
 11 12  1  0
 12 13  2  0
 14 13  1  0
 15  6  1  0
 16 15  2  0
 17 16  1  0
 18 19  1  0
 18 17  2  0
 19 20  2  0
 20 15  1  0
  2 21  1  0
  3 22  1  0
  9 23  1  0
 11 24  1  0
 13 25  1  0
 16 26  1  0
 17 27  1  0
 18 28  1  0
 19 29  1  0
M  ISO  8  21  14  22  14  23  14  24  14  25  14  26  14  27  14  28  14
M  ISO  1  29  14
M  END
>  <minimizedAffinity>  (1) 
-5.11400509

>  <minimizedRMSD>  (1) 
4.53272867

$$$$
