
     RDKit          3D

 41 44  0  0  0  0  0  0  0  0999 V2000
   36.2970   30.1960   47.7770 N   0  0  0  0  0  0  0  0  0  0  0  0
   35.0450   29.9060   47.3420 C   0  0  0  0  0  0  0  0  0  0  0  0
   34.7180   29.9920   46.0050 C   0  0  0  0  0  0  0  0  0  0  0  0
   35.7470   30.3850   45.1920 C   0  0  0  0  0  0  0  0  0  0  0  0
   35.4890   30.4780   43.9460 O   0  0  0  0  0  0  0  0  0  0  0  0
   37.0050   30.6860   45.5580 N   0  0  0  0  0  0  0  0  0  0  0  0
   37.2270   30.5710   46.8970 C   0  0  0  0  0  0  0  0  0  0  0  0
   38.3730   30.8320   47.3170 O   0  0  0  0  0  0  0  0  0  0  0  0
   37.9680   31.0830   44.6280 C   0  0  0  0  0  0  0  0  0  0  0  0
   38.2840   32.3830   44.2680 C   0  0  0  0  0  0  0  0  0  0  0  0
   39.2430   32.6950   43.3470 C   0  0  0  0  0  0  0  0  0  0  0  0
   39.9430   31.6820   42.7320 C   0  0  0  0  0  0  0  0  0  0  0  0
   39.6180   30.3890   43.1020 C   0  0  0  0  0  0  0  0  0  0  0  0
   38.6640   30.0940   44.0180 N   0  0  0  0  0  0  0  0  0  0  0  0
   40.3070   29.2930   42.5040 N   0  0  0  0  0  0  0  0  0  0  0  0
   41.6560   29.1700   41.9820 C   0  0  0  0  0  0  0  0  0  0  0  0
   41.5060   28.4200   40.6720 C   0  0  0  0  0  0  0  0  0  0  0  0
   40.1190   27.8060   40.7550 C   0  0  0  0  0  0  0  0  0  0  0  0
   39.8210   27.9510   42.2470 C   0  0  0  0  0  0  0  0  0  0  0  0
   37.6690   30.8200   49.5800 C   0  0  0  0  0  0  0  0  0  0  0  0
   36.5620   30.0830   49.1490 C   0  0  0  0  0  0  0  0  0  0  0  0
   35.8630   29.3210   50.0830 C   0  0  0  0  0  0  0  0  0  0  0  0
   36.2700   29.3120   51.3740 N   0  0  0  0  0  0  0  0  0  0  0  0
   37.3570   30.0420   51.7650 C   0  0  0  0  0  0  0  0  0  0  0  0
   38.0520   30.7960   50.8600 N   0  0  0  0  0  0  0  0  0  0  0  0
   34.2782   29.5972   48.0677 H   0  0  0  0  0  0  0  0  0  0  0  0
   33.7122   29.7634   45.6229 H   0  0  0  0  0  0  0  0  0  0  0  0
   37.7344   33.2059   44.7485 H   0  0  0  0  0  0  0  0  0  0  0  0
   39.4539   33.7457   43.0991 H   0  0  0  0  0  0  0  0  0  0  0  0
   40.7219   31.8900   41.9837 H   0  0  0  0  0  0  0  0  0  0  0  0
   42.0956   30.1636   41.8100 H   0  0  0  0  0  0  0  0  0  0  0  0
   42.3229   28.6463   42.6827 H   0  0  0  0  0  0  0  0  0  0  0  0
   42.2744   27.6384   40.5790 H   0  0  0  0  0  0  0  0  0  0  0  0
   41.6276   29.0726   39.7949 H   0  0  0  0  0  0  0  0  0  0  0  0
   39.3941   28.3626   40.1429 H   0  0  0  0  0  0  0  0  0  0  0  0
   40.0583   26.7737   40.3800 H   0  0  0  0  0  0  0  0  0  0  0  0
   38.7437   27.8665   42.4527 H   0  0  0  0  0  0  0  0  0  0  0  0
   40.2830   27.1761   42.8763 H   0  0  0  0  0  0  0  0  0  0  0  0
   38.2320   31.4275   48.8561 H   0  0  0  0  0  0  0  0  0  0  0  0
   34.9874   28.7314   49.7737 H   0  0  0  0  0  0  0  0  0  0  0  0
   37.6760   30.0230   52.8175 H   0  0  0  0  0  0  0  0  0  0  0  0
  1 21  1  0
  2  1  1  0
  3  2  2  0
  4  6  1  0
  4  3  1  0
  5  4  2  0
  6  7  1  0
  7  8  2  0
  7  1  1  0
  9  6  1  0
 10  9  2  0
 11 10  1  0
 12 13  1  0
 12 11  2  0
 13 14  2  0
 14  9  1  0
 15 13  1  0
 16 15  1  0
 17 18  1  0
 17 16  1  0
 18 19  1  0
 19 15  1  0
 20 25  2  0
 21 20  1  0
 21 22  2  0
 22 23  1  0
 23 24  2  0
 25 24  1  0
  2 26  1  0
  3 27  1  0
 10 28  1  0
 11 29  1  0
 12 30  1  0
 16 31  1  0
 16 32  1  0
 17 33  1  0
 17 34  1  0
 18 35  1  0
 18 36  1  0
 19 37  1  0
 19 38  1  0
 20 39  1  0
 22 40  1  0
 24 41  1  0
M  ISO  8  26  14  27  14  28  14  29  14  30  14  31  13  32  13  33  13
M  ISO  8  34  13  35  13  36  13  37  13  38  13  39  14  40  14  41  14
M  END
>  <minimizedAffinity>  (1) 
-6.4132762

>  <minimizedRMSD>  (1) 
0.199299812

$$$$
