
     RDKit          3D

 44 47  0  0  0  0  0  0  0  0999 V2000
   36.2960   30.1940   47.8010 N   0  0  0  0  0  0  0  0  0  0  0  0
   35.0510   29.8960   47.3520 C   0  0  0  0  0  0  0  0  0  0  0  0
   34.7340   29.9950   46.0120 C   0  0  0  0  0  0  0  0  0  0  0  0
   35.7660   30.4090   45.2150 C   0  0  0  0  0  0  0  0  0  0  0  0
   35.5160   30.5150   43.9660 O   0  0  0  0  0  0  0  0  0  0  0  0
   37.0260   30.7210   45.5990 N   0  0  0  0  0  0  0  0  0  0  0  0
   37.2260   30.5880   46.9330 C   0  0  0  0  0  0  0  0  0  0  0  0
   38.3660   30.8550   47.3640 O   0  0  0  0  0  0  0  0  0  0  0  0
   37.9840   31.1360   44.6790 C   0  0  0  0  0  0  0  0  0  0  0  0
   38.3360   32.4430   44.3800 C   0  0  0  0  0  0  0  0  0  0  0  0
   39.2940   32.7640   43.4550 C   0  0  0  0  0  0  0  0  0  0  0  0
   39.9480   31.7550   42.7810 C   0  0  0  0  0  0  0  0  0  0  0  0
   39.5820   30.4610   43.0920 C   0  0  0  0  0  0  0  0  0  0  0  0
   38.6370   30.1610   44.0050 N   0  0  0  0  0  0  0  0  0  0  0  0
   40.2270   29.3830   42.4220 N   0  0  0  0  0  0  0  0  0  0  0  0
   41.5550   29.3670   41.9040 C   0  0  0  0  0  0  0  0  0  0  0  0
   41.7230   28.5040   40.6820 C   0  0  0  0  0  0  0  0  0  0  0  0
   40.4690   28.3360   39.8710 C   0  0  0  0  0  0  0  0  0  0  0  0
   39.2510   28.0670   40.7140 C   0  0  0  0  0  0  0  0  0  0  0  0
   39.5480   28.1200   42.1900 C   0  0  0  0  0  0  0  0  0  0  0  0
   37.6750   30.7740   49.6120 C   0  0  0  0  0  0  0  0  0  0  0  0
   36.5490   30.0680   49.1740 C   0  0  0  0  0  0  0  0  0  0  0  0
   35.8220   29.3270   50.1030 C   0  0  0  0  0  0  0  0  0  0  0  0
   36.2370   29.3180   51.3980 N   0  0  0  0  0  0  0  0  0  0  0  0
   37.3400   30.0140   51.8000 C   0  0  0  0  0  0  0  0  0  0  0  0
   38.0570   30.7450   50.8880 N   0  0  0  0  0  0  0  0  0  0  0  0
   34.2815   29.5702   48.0673 H   0  0  0  0  0  0  0  0  0  0  0  0
   33.7343   29.7604   45.6177 H   0  0  0  0  0  0  0  0  0  0  0  0
   37.8228   33.2593   44.9095 H   0  0  0  0  0  0  0  0  0  0  0  0
   39.5391   33.8170   43.2520 H   0  0  0  0  0  0  0  0  0  0  0  0
   40.7239   31.9706   42.0317 H   0  0  0  0  0  0  0  0  0  0  0  0
   41.8368   30.3974   41.6417 H   0  0  0  0  0  0  0  0  0  0  0  0
   42.1981   28.9396   42.6875 H   0  0  0  0  0  0  0  0  0  0  0  0
   42.4908   28.9604   40.0400 H   0  0  0  0  0  0  0  0  0  0  0  0
   42.0064   27.5026   41.0381 H   0  0  0  0  0  0  0  0  0  0  0  0
   40.2990   29.2573   39.2945 H   0  0  0  0  0  0  0  0  0  0  0  0
   40.6153   27.4625   39.2186 H   0  0  0  0  0  0  0  0  0  0  0  0
   38.4865   28.8227   40.4806 H   0  0  0  0  0  0  0  0  0  0  0  0
   38.9001   27.0511   40.4799 H   0  0  0  0  0  0  0  0  0  0  0  0
   38.6135   28.0776   42.7687 H   0  0  0  0  0  0  0  0  0  0  0  0
   40.1683   27.2679   42.5048 H   0  0  0  0  0  0  0  0  0  0  0  0
   38.2562   31.3646   48.8885 H   0  0  0  0  0  0  0  0  0  0  0  0
   34.9305   28.7608   49.7954 H   0  0  0  0  0  0  0  0  0  0  0  0
   37.6534   29.9886   52.8541 H   0  0  0  0  0  0  0  0  0  0  0  0
  1 22  1  0
  2  1  1  0
  3  2  2  0
  4  6  1  0
  4  3  1  0
  5  4  2  0
  6  7  1  0
  7  8  2  0
  7  1  1  0
  9  6  1  0
 10  9  2  0
 11 10  1  0
 12 13  1  0
 12 11  2  0
 13 14  2  0
 14  9  1  0
 15 13  1  0
 16 15  1  0
 17 16  1  0
 18 17  1  0
 18 19  1  0
 19 20  1  0
 20 15  1  0
 21 26  2  0
 22 21  1  0
 22 23  2  0
 23 24  1  0
 24 25  2  0
 26 25  1  0
  2 27  1  0
  3 28  1  0
 10 29  1  0
 11 30  1  0
 12 31  1  0
 16 32  1  0
 16 33  1  0
 17 34  1  0
 17 35  1  0
 18 36  1  0
 18 37  1  0
 19 38  1  0
 19 39  1  0
 20 40  1  0
 20 41  1  0
 21 42  1  0
 23 43  1  0
 25 44  1  0
M  ISO  8  27  14  28  14  29  14  30  14  31  14  32  13  33  13  34  13
M  ISO  8  35  13  36  13  37  13  38  13  39  13  40  13  41  13  42  14
M  ISO  2  43  14  44  14
M  END
>  <minimizedAffinity>  (1) 
-6.3623271

>  <minimizedRMSD>  (1) 
0.29207024

$$$$
