
     RDKit          3D

 43 46  0  0  0  0  0  0  0  0999 V2000
   36.3910   30.1920   47.6610 N   0  0  0  0  0  0  0  0  0  0  0  0
   35.1280   29.9800   47.2120 C   0  0  0  0  0  0  0  0  0  0  0  0
   34.8220   30.0880   45.8710 C   0  0  0  0  0  0  0  0  0  0  0  0
   35.8840   30.4180   45.0720 C   0  0  0  0  0  0  0  0  0  0  0  0
   35.6430   30.5280   43.8240 O   0  0  0  0  0  0  0  0  0  0  0  0
   37.1710   30.6420   45.4630 N   0  0  0  0  0  0  0  0  0  0  0  0
   37.3490   30.5080   46.7930 C   0  0  0  0  0  0  0  0  0  0  0  0
   38.5040   30.6950   47.2260 O   0  0  0  0  0  0  0  0  0  0  0  0
   38.1550   30.9800   44.5370 C   0  0  0  0  0  0  0  0  0  0  0  0
   38.5400   32.2590   44.1720 C   0  0  0  0  0  0  0  0  0  0  0  0
   39.5140   32.5190   43.2540 C   0  0  0  0  0  0  0  0  0  0  0  0
   40.1570   31.4520   42.6500 C   0  0  0  0  0  0  0  0  0  0  0  0
   39.7660   30.1800   43.0200 C   0  0  0  0  0  0  0  0  0  0  0  0
   38.7930   29.9480   43.9370 N   0  0  0  0  0  0  0  0  0  0  0  0
   40.3890   29.0440   42.4350 N   0  0  0  0  0  0  0  0  0  0  0  0
   41.6390   29.0450   41.7050 C   0  0  0  0  0  0  0  0  0  0  0  0
   41.2240   28.8820   40.2360 C   0  0  0  0  0  0  0  0  0  0  0  0
   40.1070   28.0000   40.1050 N   0  0  0  0  0  0  0  0  0  0  0  0
   39.9580   27.0470   41.1820 C   0  0  0  0  0  0  0  0  0  0  0  0
   39.7960   27.7210   42.5250 C   0  0  0  0  0  0  0  0  0  0  0  0
   37.5740   30.9770   49.5370 C   0  0  0  0  0  0  0  0  0  0  0  0
   36.6190   30.0650   49.0270 C   0  0  0  0  0  0  0  0  0  0  0  0
   36.0530   29.1770   49.9110 C   0  0  0  0  0  0  0  0  0  0  0  0
   36.3970   29.1770   51.2190 N   0  0  0  0  0  0  0  0  0  0  0  0
   37.3240   30.0720   51.6810 C   0  0  0  0  0  0  0  0  0  0  0  0
   37.9080   30.9700   50.8290 N   0  0  0  0  0  0  0  0  0  0  0  0
   34.3357   29.7179   47.9286 H   0  0  0  0  0  0  0  0  0  0  0  0
   33.8087   29.9227   45.4763 H   0  0  0  0  0  0  0  0  0  0  0  0
   38.0328   33.1110   44.6482 H   0  0  0  0  0  0  0  0  0  0  0  0
   39.7832   33.5545   42.9987 H   0  0  0  0  0  0  0  0  0  0  0  0
   40.9493   31.6112   41.9037 H   0  0  0  0  0  0  0  0  0  0  0  0
   42.1763   29.9931   41.8547 H   0  0  0  0  0  0  0  0  0  0  0  0
   42.3200   28.2483   42.0390 H   0  0  0  0  0  0  0  0  0  0  0  0
   40.9518   29.8672   39.8295 H   0  0  0  0  0  0  0  0  0  0  0  0
   42.0717   28.4521   39.6822 H   0  0  0  0  0  0  0  0  0  0  0  0
   39.2510   28.5712   40.0617 H   0  0  0  0  0  0  0  0  0  0  0  0
   39.0694   26.4286   40.9869 H   0  0  0  0  0  0  0  0  0  0  0  0
   40.8719   26.4359   41.2199 H   0  0  0  0  0  0  0  0  0  0  0  0
   40.3078   27.1341   43.3019 H   0  0  0  0  0  0  0  0  0  0  0  0
   38.7311   27.7957   42.7903 H   0  0  0  0  0  0  0  0  0  0  0  0
   38.0476   31.7019   48.8586 H   0  0  0  0  0  0  0  0  0  0  0  0
   35.3075   28.4541   49.5482 H   0  0  0  0  0  0  0  0  0  0  0  0
   37.6018   30.0695   52.7454 H   0  0  0  0  0  0  0  0  0  0  0  0
  1 22  1  0
  2  1  1  0
  3  2  2  0
  4  6  1  0
  4  3  1  0
  5  4  2  0
  6  7  1  0
  7  8  2  0
  7  1  1  0
  9  6  1  0
 10  9  2  0
 11 10  1  0
 12 13  1  0
 12 11  2  0
 13 14  2  0
 14  9  1  0
 15 20  1  0
 15 13  1  0
 16 15  1  0
 17 16  1  0
 18 17  1  0
 18 19  1  0
 19 20  1  0
 21 26  2  0
 22 21  1  0
 22 23  2  0
 23 24  1  0
 24 25  2  0
 26 25  1  0
  2 27  1  0
  3 28  1  0
 10 29  1  0
 11 30  1  0
 12 31  1  0
 16 32  1  0
 16 33  1  0
 17 34  1  0
 17 35  1  0
 18 36  1  0
 19 37  1  0
 19 38  1  0
 20 39  1  0
 20 40  1  0
 21 41  1  0
 23 42  1  0
 25 43  1  0
M  ISO  8  27  14  28  14  29  14  30  14  31  14  32  13  33  13  34  13
M  ISO  8  35  13  36   5  37  13  38  13  39  13  40  13  41  14  42  14
M  ISO  1  43  14
M  END
>  <minimizedAffinity>  (1) 
-6.36200428

>  <minimizedRMSD>  (1) 
0.168212593

$$$$
