
     RDKit          3D

 36 38  0  0  0  0  0  0  0  0999 V2000
   36.3020   30.1840   47.8440 N   0  0  0  0  0  0  0  0  0  0  0  0
   35.0640   29.9010   47.3690 C   0  0  0  0  0  0  0  0  0  0  0  0
   34.7740   30.0050   46.0230 C   0  0  0  0  0  0  0  0  0  0  0  0
   35.8320   30.4130   45.2420 C   0  0  0  0  0  0  0  0  0  0  0  0
   35.6010   30.5200   43.9950 O   0  0  0  0  0  0  0  0  0  0  0  0
   37.0820   30.7070   45.6660 N   0  0  0  0  0  0  0  0  0  0  0  0
   37.2570   30.5690   47.0010 C   0  0  0  0  0  0  0  0  0  0  0  0
   38.3880   30.8230   47.4460 O   0  0  0  0  0  0  0  0  0  0  0  0
   38.0620   31.1190   44.7570 C   0  0  0  0  0  0  0  0  0  0  0  0
   38.3300   32.4040   44.3420 C   0  0  0  0  0  0  0  0  0  0  0  0
   39.3180   32.7040   43.4410 C   0  0  0  0  0  0  0  0  0  0  0  0
   40.0940   31.6700   42.9140 C   0  0  0  0  0  0  0  0  0  0  0  0
   39.8180   30.3870   43.3370 C   0  0  0  0  0  0  0  0  0  0  0  0
   38.8320   30.1480   44.2260 N   0  0  0  0  0  0  0  0  0  0  0  0
   40.5650   29.2640   42.8610 N   0  0  0  0  0  0  0  0  0  0  0  0
   40.0910   28.3530   41.8900 C   0  0  0  0  0  0  0  0  0  0  0  0
   39.5410   28.9210   40.8670 N   0  0  0  0  0  0  0  0  0  0  0  0
   40.2640   26.9380   42.1250 N   0  0  0  0  0  0  0  0  0  0  0  0
   39.1750   28.2900   40.1200 H   0  0  0  0  0  0  0  0  0  0  0  0
   37.6740   30.7200   49.6750 C   0  0  0  0  0  0  0  0  0  0  0  0
   36.5200   30.0560   49.2160 C   0  0  0  0  0  0  0  0  0  0  0  0
   35.7480   29.3530   50.1390 C   0  0  0  0  0  0  0  0  0  0  0  0
   36.1380   29.3370   51.4380 N   0  0  0  0  0  0  0  0  0  0  0  0
   37.2600   29.9860   51.8600 C   0  0  0  0  0  0  0  0  0  0  0  0
   38.0280   30.6810   50.9620 N   0  0  0  0  0  0  0  0  0  0  0  0
   34.2767   29.5829   48.0683 H   0  0  0  0  0  0  0  0  0  0  0  0
   33.7800   29.7805   45.6089 H   0  0  0  0  0  0  0  0  0  0  0  0
   37.7245   33.2260   44.7516 H   0  0  0  0  0  0  0  0  0  0  0  0
   39.4973   33.7458   43.1370 H   0  0  0  0  0  0  0  0  0  0  0  0
   40.8958   31.8713   42.1883 H   0  0  0  0  0  0  0  0  0  0  0  0
   41.5063   29.1097   43.2498 H   0  0  0  0  0  0  0  0  0  0  0  0
   39.9264   26.2557   41.4312 H   0  0  0  0  0  0  0  0  0  0  0  0
   40.7249   26.6116   42.9863 H   0  0  0  0  0  0  0  0  0  0  0  0
   38.2948   31.2807   48.9607 H   0  0  0  0  0  0  0  0  0  0  0  0
   34.8395   28.8211   49.8201 H   0  0  0  0  0  0  0  0  0  0  0  0
   37.5491   29.9520   52.9208 H   0  0  0  0  0  0  0  0  0  0  0  0
  1 21  1  0
  2  1  1  0
  3  2  2  0
  4  6  1  0
  4  3  1  0
  5  4  2  0
  6  7  1  0
  7  8  2  0
  7  1  1  0
  9  6  1  0
 10  9  2  0
 11 10  1  0
 12 13  1  0
 12 11  2  0
 13 14  2  0
 14  9  1  0
 15 13  1  0
 16 18  1  0
 16 15  1  0
 17 16  2  0
 19 17  1  0
 20 25  2  0
 21 20  1  0
 21 22  2  0
 22 23  1  0
 23 24  2  0
 25 24  1  0
  2 26  1  0
  3 27  1  0
 10 28  1  0
 11 29  1  0
 12 30  1  0
 15 31  1  0
 18 32  1  0
 18 33  1  0
 20 34  1  0
 22 35  1  0
 24 36  1  0
M  ISO  8  26  14  27  14  28  14  29  14  30  14  34  14  35  14  36  14
M  END
>  <minimizedAffinity>  (1) 
-6.34072638

>  <minimizedRMSD>  (1) 
0.268031329

$$$$
