
     RDKit          3D

 40 44  0  0  0  0  0  0  0  0999 V2000
   36.3800   30.3020   47.4960 N   0  0  0  0  0  0  0  0  0  0  0  0
   35.1200   29.9960   47.0960 C   0  0  0  0  0  0  0  0  0  0  0  0
   34.7510   30.0990   45.7620 C   0  0  0  0  0  0  0  0  0  0  0  0
   35.7470   30.5230   44.9300 C   0  0  0  0  0  0  0  0  0  0  0  0
   35.4500   30.6330   43.6950 O   0  0  0  0  0  0  0  0  0  0  0  0
   37.0250   30.8440   45.2740 N   0  0  0  0  0  0  0  0  0  0  0  0
   37.2730   30.7060   46.5980 C   0  0  0  0  0  0  0  0  0  0  0  0
   38.4220   30.9790   46.9870 O   0  0  0  0  0  0  0  0  0  0  0  0
   37.9450   31.2740   44.3190 C   0  0  0  0  0  0  0  0  0  0  0  0
   38.3150   32.5610   44.0370 C   0  0  0  0  0  0  0  0  0  0  0  0
   39.2240   32.9180   43.0870 C   0  0  0  0  0  0  0  0  0  0  0  0
   39.8190   31.9190   42.3510 C   0  0  0  0  0  0  0  0  0  0  0  0
   39.4460   30.6180   42.6340 C   0  0  0  0  0  0  0  0  0  0  0  0
   38.5350   30.2990   43.5920 N   0  0  0  0  0  0  0  0  0  0  0  0
   40.0370   29.5280   41.8940 N   0  0  0  0  0  0  0  0  0  0  0  0
   39.8700   28.2090   42.1140 C   0  0  0  0  0  0  0  0  0  0  0  0
   40.5710   27.4920   41.2330 N   0  0  0  0  0  0  0  0  0  0  0  0
   41.2230   28.3530   40.4010 C   0  0  0  0  0  0  0  0  0  0  0  0
   42.0850   28.2820   39.3110 C   0  0  0  0  0  0  0  0  0  0  0  0
   42.5350   29.4110   38.7330 N   0  0  0  0  0  0  0  0  0  0  0  0
   42.1690   30.6440   39.1870 C   0  0  0  0  0  0  0  0  0  0  0  0
   41.3360   30.7160   40.2420 N   0  0  0  0  0  0  0  0  0  0  0  0
   40.8640   29.6090   40.8460 C   0  0  0  0  0  0  0  0  0  0  0  0
   36.9260   31.3980   49.5030 C   0  0  0  0  0  0  0  0  0  0  0  0
   36.6720   30.1720   48.8490 C   0  0  0  0  0  0  0  0  0  0  0  0
   36.7490   29.0010   49.5980 C   0  0  0  0  0  0  0  0  0  0  0  0
   37.0630   29.0790   50.9150 N   0  0  0  0  0  0  0  0  0  0  0  0
   37.3060   30.2750   51.5250 C   0  0  0  0  0  0  0  0  0  0  0  0
   37.2340   31.4380   50.8010 N   0  0  0  0  0  0  0  0  0  0  0  0
   34.3810   29.6618   47.8391 H   0  0  0  0  0  0  0  0  0  0  0  0
   33.7389   29.8587   45.4043 H   0  0  0  0  0  0  0  0  0  0  0  0
   37.8440   33.3662   44.6200 H   0  0  0  0  0  0  0  0  0  0  0  0
   39.4752   33.9748   42.9132 H   0  0  0  0  0  0  0  0  0  0  0  0
   40.5601   32.1459   41.5704 H   0  0  0  0  0  0  0  0  0  0  0  0
   39.2424   27.7820   42.9101 H   0  0  0  0  0  0  0  0  0  0  0  0
   42.3989   27.3023   38.9214 H   0  0  0  0  0  0  0  0  0  0  0  0
   42.5453   31.5572   38.7029 H   0  0  0  0  0  0  0  0  0  0  0  0
   36.8689   32.3366   48.9322 H   0  0  0  0  0  0  0  0  0  0  0  0
   36.5576   28.0252   49.1277 H   0  0  0  0  0  0  0  0  0  0  0  0
   37.5591   30.3066   52.5950 H   0  0  0  0  0  0  0  0  0  0  0  0
  1 25  1  0
  2  1  1  0
  3  2  2  0
  4  6  1  0
  4  3  1  0
  5  4  2  0
  6  7  1  0
  7  8  2  0
  7  1  1  0
  9  6  1  0
 10  9  2  0
 11 10  1  0
 12 13  1  0
 12 11  2  0
 13 14  2  0
 14  9  1  0
 15 16  1  0
 15 13  1  0
 17 16  2  0
 18 23  2  0
 18 17  1  0
 19 18  1  0
 20 21  1  0
 20 19  2  0
 21 22  2  0
 22 23  1  0
 23 15  1  0
 24 29  2  0
 25 24  1  0
 25 26  2  0
 26 27  1  0
 27 28  2  0
 29 28  1  0
  2 30  1  0
  3 31  1  0
 10 32  1  0
 11 33  1  0
 12 34  1  0
 16 35  1  0
 19 36  1  0
 21 37  1  0
 24 38  1  0
 26 39  1  0
 28 40  1  0
M  ISO  8  30  14  31  14  32  14  33  14  34  14  35  14  36  14  37  14
M  ISO  3  38  14  39  14  40  14
M  END
>  <minimizedAffinity>  (1) 
-6.23476315

>  <minimizedRMSD>  (1) 
0.681358814

$$$$
