
     RDKit          3D

 42 45  0  0  0  0  0  0  0  0999 V2000
   36.4260   30.2460   47.6470 N   0  0  0  0  0  0  0  0  0  0  0  0
   35.1850   29.9140   47.2160 C   0  0  0  0  0  0  0  0  0  0  0  0
   34.8320   30.0360   45.8850 C   0  0  0  0  0  0  0  0  0  0  0  0
   35.8290   30.5090   45.0760 C   0  0  0  0  0  0  0  0  0  0  0  0
   35.5520   30.6390   43.8360 O   0  0  0  0  0  0  0  0  0  0  0  0
   37.0770   30.8550   45.4400 N   0  0  0  0  0  0  0  0  0  0  0  0
   37.3230   30.6980   46.7730 C   0  0  0  0  0  0  0  0  0  0  0  0
   38.4600   30.9950   47.1890 O   0  0  0  0  0  0  0  0  0  0  0  0
   38.0070   31.3340   44.5150 C   0  0  0  0  0  0  0  0  0  0  0  0
   38.4190   32.6410   44.3520 C   0  0  0  0  0  0  0  0  0  0  0  0
   39.3370   33.0420   43.4250 C   0  0  0  0  0  0  0  0  0  0  0  0
   39.8980   32.1000   42.5930 C   0  0  0  0  0  0  0  0  0  0  0  0
   39.4780   30.7880   42.7620 C   0  0  0  0  0  0  0  0  0  0  0  0
   38.5640   30.4140   43.6910 N   0  0  0  0  0  0  0  0  0  0  0  0
   40.0510   29.8020   41.9070 N   0  0  0  0  0  0  0  0  0  0  0  0
   40.7740   30.3880   40.9080 C   0  0  0  0  0  0  0  0  0  0  0  0
   41.4200   29.6100   39.9590 C   0  0  0  0  0  0  0  0  0  0  0  0
   42.2150   30.1960   38.8600 C   0  0  0  0  0  0  0  0  0  0  0  0
   41.3210   28.2340   40.0380 C   0  0  0  0  0  0  0  0  0  0  0  0
   41.8790   27.4650   39.2120 O   0  0  0  0  0  0  0  0  0  0  0  0
   40.5920   27.7170   41.0450 N   0  0  0  0  0  0  0  0  0  0  0  0
   39.9710   28.4710   41.9600 C   0  0  0  0  0  0  0  0  0  0  0  0
   39.2810   28.0640   42.9190 O   0  0  0  0  0  0  0  0  0  0  0  0
   36.9370   31.3060   49.6790 C   0  0  0  0  0  0  0  0  0  0  0  0
   36.7070   30.0940   49.0110 C   0  0  0  0  0  0  0  0  0  0  0  0
   36.7860   28.9040   49.7300 C   0  0  0  0  0  0  0  0  0  0  0  0
   37.0860   28.9630   51.0540 N   0  0  0  0  0  0  0  0  0  0  0  0
   37.3070   30.1520   51.6850 C   0  0  0  0  0  0  0  0  0  0  0  0
   37.2300   31.3270   50.9820 N   0  0  0  0  0  0  0  0  0  0  0  0
   34.4446   29.5404   47.9387 H   0  0  0  0  0  0  0  0  0  0  0  0
   33.8324   29.7745   45.5076 H   0  0  0  0  0  0  0  0  0  0  0  0
   37.9807   33.4064   45.0094 H   0  0  0  0  0  0  0  0  0  0  0  0
   39.6238   34.1009   43.3442 H   0  0  0  0  0  0  0  0  0  0  0  0
   40.6429   32.3736   41.8313 H   0  0  0  0  0  0  0  0  0  0  0  0
   40.8446   31.4845   40.8555 H   0  0  0  0  0  0  0  0  0  0  0  0
   43.0332   30.7991   39.2805 H   0  0  0  0  0  0  0  0  0  0  0  0
   42.6347   29.3896   38.2407 H   0  0  0  0  0  0  0  0  0  0  0  0
   41.5689   30.8355   38.2407 H   0  0  0  0  0  0  0  0  0  0  0  0
   40.5082   26.6928   41.1145 H   0  0  0  0  0  0  0  0  0  0  0  0
   36.8752   32.2524   49.1218 H   0  0  0  0  0  0  0  0  0  0  0  0
   36.6093   27.9368   49.2366 H   0  0  0  0  0  0  0  0  0  0  0  0
   37.5471   30.1684   52.7583 H   0  0  0  0  0  0  0  0  0  0  0  0
  1 25  1  0
  2  1  1  0
  3  2  2  0
  4  6  1  0
  4  3  1  0
  5  4  2  0
  6  7  1  0
  7  8  2  0
  7  1  1  0
  9  6  1  0
 10  9  2  0
 11 10  1  0
 12 13  1  0
 12 11  2  0
 13 14  2  0
 14  9  1  0
 15 22  1  0
 15 13  1  0
 16 15  1  0
 17 19  1  0
 17 16  2  0
 18 17  1  0
 19 21  1  0
 20 19  2  0
 21 22  1  0
 22 23  2  0
 24 29  2  0
 25 24  1  0
 25 26  2  0
 26 27  1  0
 27 28  2  0
 29 28  1  0
  2 30  1  0
  3 31  1  0
 10 32  1  0
 11 33  1  0
 12 34  1  0
 16 35  1  0
 18 36  1  0
 18 37  1  0
 18 38  1  0
 21 39  1  0
 24 40  1  0
 26 41  1  0
 28 42  1  0
M  ISO  8  30  14  31  14  32  14  33  14  34  14  35  14  36   8  37   8
M  ISO  5  38   8  39   9  40  14  41  14  42  14
M  END
>  <minimizedAffinity>  (1) 
-6.15786791

>  <minimizedRMSD>  (1) 
0.821933687

$$$$
