
     RDKit          3D

 45 49  0  0  0  0  0  0  0  0999 V2000
   36.3840   30.3030   47.4910 N   0  0  0  0  0  0  0  0  0  0  0  0
   35.1230   30.0080   47.0880 C   0  0  0  0  0  0  0  0  0  0  0  0
   34.7580   30.1210   45.7610 C   0  0  0  0  0  0  0  0  0  0  0  0
   35.7610   30.5440   44.9270 C   0  0  0  0  0  0  0  0  0  0  0  0
   35.4700   30.6620   43.6870 O   0  0  0  0  0  0  0  0  0  0  0  0
   37.0280   30.8480   45.2770 N   0  0  0  0  0  0  0  0  0  0  0  0
   37.2800   30.7040   46.5930 C   0  0  0  0  0  0  0  0  0  0  0  0
   38.4380   30.9680   46.9820 O   0  0  0  0  0  0  0  0  0  0  0  0
   36.9150   31.4040   49.4990 C   0  0  0  0  0  0  0  0  0  0  0  0
   36.6750   30.1650   48.8480 C   0  0  0  0  0  0  0  0  0  0  0  0
   36.7650   29.0070   49.5970 C   0  0  0  0  0  0  0  0  0  0  0  0
   37.0740   29.0730   50.9130 N   0  0  0  0  0  0  0  0  0  0  0  0
   37.3030   30.2770   51.5170 C   0  0  0  0  0  0  0  0  0  0  0  0
   37.2200   31.4410   50.8010 N   0  0  0  0  0  0  0  0  0  0  0  0
   37.9600   31.2760   44.3170 C   0  0  0  0  0  0  0  0  0  0  0  0
   38.3900   32.5420   44.0670 C   0  0  0  0  0  0  0  0  0  0  0  0
   39.2990   32.8740   43.1110 C   0  0  0  0  0  0  0  0  0  0  0  0
   39.8300   31.8740   42.3330 C   0  0  0  0  0  0  0  0  0  0  0  0
   39.4040   30.5580   42.5720 C   0  0  0  0  0  0  0  0  0  0  0  0
   38.4980   30.3110   43.5390 N   0  0  0  0  0  0  0  0  0  0  0  0
   39.7960   29.3980   41.7990 C   0  0  0  0  0  0  0  0  0  0  0  0
   39.1890   28.1790   42.1520 C   0  0  0  0  0  0  0  0  0  0  0  0
   39.4370   26.9710   41.5500 C   0  0  0  0  0  0  0  0  0  0  0  0
   40.3420   26.8960   40.5180 C   0  0  0  0  0  0  0  0  0  0  0  0
   40.9720   28.0540   40.1290 C   0  0  0  0  0  0  0  0  0  0  0  0
   41.9200   28.0570   39.1290 C   0  0  0  0  0  0  0  0  0  0  0  0
   42.6080   29.1990   38.7340 C   0  0  0  0  0  0  0  0  0  0  0  0
   42.2930   30.3660   39.4060 C   0  0  0  0  0  0  0  0  0  0  0  0
   41.3490   30.3600   40.4000 C   0  0  0  0  0  0  0  0  0  0  0  0
   40.6800   29.2240   40.7720 C   0  0  0  0  0  0  0  0  0  0  0  0
   34.3810   29.6742   47.8283 H   0  0  0  0  0  0  0  0  0  0  0  0
   33.7442   29.8903   45.4018 H   0  0  0  0  0  0  0  0  0  0  0  0
   36.8495   32.3417   48.9276 H   0  0  0  0  0  0  0  0  0  0  0  0
   36.5853   28.0307   49.1231 H   0  0  0  0  0  0  0  0  0  0  0  0
   37.5560   30.3114   52.5869 H   0  0  0  0  0  0  0  0  0  0  0  0
   37.9735   33.3542   44.6809 H   0  0  0  0  0  0  0  0  0  0  0  0
   39.6025   33.9210   42.9640 H   0  0  0  0  0  0  0  0  0  0  0  0
   40.5663   32.0976   41.5470 H   0  0  0  0  0  0  0  0  0  0  0  0
   38.4588   28.1954   42.9745 H   0  0  0  0  0  0  0  0  0  0  0  0
   38.9135   26.0660   41.8920 H   0  0  0  0  0  0  0  0  0  0  0  0
   40.5553   25.9391   40.0191 H   0  0  0  0  0  0  0  0  0  0  0  0
   42.1436   27.1090   38.6178 H   0  0  0  0  0  0  0  0  0  0  0  0
   43.3606   29.1755   37.9321 H   0  0  0  0  0  0  0  0  0  0  0  0
   42.8027   31.3042   39.1414 H   0  0  0  0  0  0  0  0  0  0  0  0
   41.1201   31.3028   40.9184 H   0  0  0  0  0  0  0  0  0  0  0  0
  1 10  1  0
  2  1  1  0
  3  2  2  0
  4  6  1  0
  4  3  1  0
  5  4  2  0
  6  7  1  0
  7  8  2  0
  7  1  1  0
  9 14  2  0
 10  9  1  0
 10 11  2  0
 11 12  1  0
 12 13  2  0
 14 13  1  0
 15  6  1  0
 16 15  2  0
 17 16  1  0
 18 19  1  0
 18 17  2  0
 19 20  2  0
 20 15  1  0
 21 22  2  0
 21 19  1  0
 23 22  1  0
 24 23  2  0
 25 24  1  0
 25 30  2  0
 26 25  1  0
 27 26  2  0
 27 28  1  0
 28 29  2  0
 29 30  1  0
 30 21  1  0
  2 31  1  0
  3 32  1  0
  9 33  1  0
 11 34  1  0
 13 35  1  0
 16 36  1  0
 17 37  1  0
 18 38  1  0
 22 39  1  0
 23 40  1  0
 24 41  1  0
 26 42  1  0
 27 43  1  0
 28 44  1  0
 29 45  1  0
M  ISO  8  31  14  32  14  33  14  34  14  35  14  36  14  37  14  38  14
M  ISO  7  39  14  40  14  41  14  42  14  43  14  44  14  45  14
M  END
>  <minimizedAffinity>  (1) 
-6.05357218

>  <minimizedRMSD>  (1) 
0.774630666

$$$$
