
     RDKit          3D

 40 43  0  0  0  0  0  0  0  0999 V2000
   36.3770   30.2910   47.5440 N   0  0  0  0  0  0  0  0  0  0  0  0
   35.1200   29.9820   47.1360 C   0  0  0  0  0  0  0  0  0  0  0  0
   34.7550   30.1000   45.8070 C   0  0  0  0  0  0  0  0  0  0  0  0
   35.7540   30.5420   44.9820 C   0  0  0  0  0  0  0  0  0  0  0  0
   35.4590   30.6640   43.7460 O   0  0  0  0  0  0  0  0  0  0  0  0
   37.0250   30.8650   45.3390 N   0  0  0  0  0  0  0  0  0  0  0  0
   37.2750   30.7140   46.6580 C   0  0  0  0  0  0  0  0  0  0  0  0
   38.4190   30.9890   47.0530 O   0  0  0  0  0  0  0  0  0  0  0  0
   37.9470   31.3120   44.3870 C   0  0  0  0  0  0  0  0  0  0  0  0
   38.4010   32.6020   44.2070 C   0  0  0  0  0  0  0  0  0  0  0  0
   39.3060   32.9560   43.2480 C   0  0  0  0  0  0  0  0  0  0  0  0
   39.8060   31.9910   42.4060 C   0  0  0  0  0  0  0  0  0  0  0  0
   39.3450   30.7010   42.5960 C   0  0  0  0  0  0  0  0  0  0  0  0
   38.4420   30.3640   43.5560 N   0  0  0  0  0  0  0  0  0  0  0  0
   39.8240   29.6330   41.7520 N   0  0  0  0  0  0  0  0  0  0  0  0
   41.1360   29.6110   41.4380 C   0  0  0  0  0  0  0  0  0  0  0  0
   41.6280   28.6080   40.6360 C   0  0  0  0  0  0  0  0  0  0  0  0
   40.7670   27.6370   40.1640 C   0  0  0  0  0  0  0  0  0  0  0  0
   41.1170   26.5430   39.3320 N   0  0  0  0  0  0  0  0  0  0  0  0
   39.4730   27.6970   40.4990 N   0  0  0  0  0  0  0  0  0  0  0  0
   38.9850   28.6890   41.2930 C   0  0  0  0  0  0  0  0  0  0  0  0
   37.7880   28.7650   41.6180 O   0  0  0  0  0  0  0  0  0  0  0  0
   36.8640   31.3720   49.5740 C   0  0  0  0  0  0  0  0  0  0  0  0
   36.6660   30.1470   48.8970 C   0  0  0  0  0  0  0  0  0  0  0  0
   36.7900   28.9750   49.6360 C   0  0  0  0  0  0  0  0  0  0  0  0
   37.0920   29.0440   50.9570 N   0  0  0  0  0  0  0  0  0  0  0  0
   37.2790   30.2420   51.5850 C   0  0  0  0  0  0  0  0  0  0  0  0
   37.1610   31.4080   50.8740 N   0  0  0  0  0  0  0  0  0  0  0  0
   34.3812   29.6329   47.8724 H   0  0  0  0  0  0  0  0  0  0  0  0
   33.7454   29.8586   45.4431 H   0  0  0  0  0  0  0  0  0  0  0  0
   38.0130   33.3878   44.8719 H   0  0  0  0  0  0  0  0  0  0  0  0
   39.6316   34.0021   43.1501 H   0  0  0  0  0  0  0  0  0  0  0  0
   40.5366   32.2330   41.6201 H   0  0  0  0  0  0  0  0  0  0  0  0
   41.8091   30.3918   41.8218 H   0  0  0  0  0  0  0  0  0  0  0  0
   42.6958   28.5795   40.3733 H   0  0  0  0  0  0  0  0  0  0  0  0
   42.0928   26.4202   39.0260 H   0  0  0  0  0  0  0  0  0  0  0  0
   40.3954   25.8713   39.0337 H   0  0  0  0  0  0  0  0  0  0  0  0
   36.7712   32.3159   49.0168 H   0  0  0  0  0  0  0  0  0  0  0  0
   36.6441   27.9979   49.1522 H   0  0  0  0  0  0  0  0  0  0  0  0
   37.5233   30.2713   52.6571 H   0  0  0  0  0  0  0  0  0  0  0  0
  1 24  1  0
  2  1  1  0
  3  2  2  0
  4  6  1  0
  4  3  1  0
  5  4  2  0
  6  7  1  0
  7  8  2  0
  7  1  1  0
  9  6  1  0
 10  9  2  0
 11 10  1  0
 12 13  1  0
 12 11  2  0
 13 14  2  0
 14  9  1  0
 15 13  1  0
 16 15  1  0
 17 16  2  0
 18 20  2  0
 18 17  1  0
 19 18  1  0
 20 21  1  0
 21 22  2  0
 21 15  1  0
 23 28  2  0
 24 23  1  0
 24 25  2  0
 25 26  1  0
 26 27  2  0
 28 27  1  0
  2 29  1  0
  3 30  1  0
 10 31  1  0
 11 32  1  0
 12 33  1  0
 16 34  1  0
 17 35  1  0
 19 36  1  0
 19 37  1  0
 23 38  1  0
 25 39  1  0
 27 40  1  0
M  ISO  8  29  14  30  14  31  14  32  14  33  14  34  14  35  14  38  14
M  ISO  2  39  14  40  14
M  END
>  <minimizedAffinity>  (1) 
-5.9439888

>  <minimizedRMSD>  (1) 
0.908272386

$$$$
