
     RDKit          3D

 36 39  0  0  0  0  0  0  0  0999 V2000
   36.0660   30.1820   47.4500 N   0  0  0  0  0  0  0  0  0  0  0  0
   34.8250   29.7210   47.1510 C   0  0  0  0  0  0  0  0  0  0  0  0
   34.3540   29.7340   45.8540 C   0  0  0  0  0  0  0  0  0  0  0  0
   35.2360   30.2410   44.9350 C   0  0  0  0  0  0  0  0  0  0  0  0
   34.8440   30.2730   43.7200 O   0  0  0  0  0  0  0  0  0  0  0  0
   36.4780   30.7120   45.1640 N   0  0  0  0  0  0  0  0  0  0  0  0
   36.8400   30.6530   46.4750 C   0  0  0  0  0  0  0  0  0  0  0  0
   37.9800   31.0690   46.7710 O   0  0  0  0  0  0  0  0  0  0  0  0
   36.7060   31.4080   49.3510 C   0  0  0  0  0  0  0  0  0  0  0  0
   36.4730   30.1380   48.7810 C   0  0  0  0  0  0  0  0  0  0  0  0
   36.6780   29.0170   49.5800 C   0  0  0  0  0  0  0  0  0  0  0  0
   37.0860   29.1540   50.8560 N   0  0  0  0  0  0  0  0  0  0  0  0
   37.3050   30.3950   51.3850 C   0  0  0  0  0  0  0  0  0  0  0  0
   37.1130   31.5160   50.6240 N   0  0  0  0  0  0  0  0  0  0  0  0
   37.2760   31.2070   44.1370 C   0  0  0  0  0  0  0  0  0  0  0  0
   37.1890   32.4540   43.5440 C   0  0  0  0  0  0  0  0  0  0  0  0
   38.0060   32.8800   42.5380 C   0  0  0  0  0  0  0  0  0  0  0  0
   38.9810   32.0300   42.0720 C   0  0  0  0  0  0  0  0  0  0  0  0
   39.0660   30.7680   42.6740 C   0  0  0  0  0  0  0  0  0  0  0  0
   38.2400   30.3800   43.6680 N   0  0  0  0  0  0  0  0  0  0  0  0
   40.1010   29.8640   42.1790 C   0  0  0  0  0  0  0  0  0  0  0  0
   40.0230   29.0420   41.0730 C   0  0  0  0  0  0  0  0  0  0  0  0
   41.2480   28.3900   41.0240 C   0  0  0  0  0  0  0  0  0  0  0  0
   42.0140   28.8070   42.0520 N   0  0  0  0  0  0  0  0  0  0  0  0
   41.3090   29.7030   42.7490 N   0  0  0  0  0  0  0  0  0  0  0  0
   34.1843   29.3307   47.9555 H   0  0  0  0  0  0  0  0  0  0  0  0
   33.3535   29.3678   45.5801 H   0  0  0  0  0  0  0  0  0  0  0  0
   36.5528   32.3146   48.7473 H   0  0  0  0  0  0  0  0  0  0  0  0
   36.5056   28.0124   49.1664 H   0  0  0  0  0  0  0  0  0  0  0  0
   37.6376   30.4933   52.4289 H   0  0  0  0  0  0  0  0  0  0  0  0
   36.4131   33.1446   43.9061 H   0  0  0  0  0  0  0  0  0  0  0  0
   37.8869   33.8852   42.1075 H   0  0  0  0  0  0  0  0  0  0  0  0
   39.6638   32.3276   41.2626 H   0  0  0  0  0  0  0  0  0  0  0  0
   39.1753   28.9282   40.3813 H   0  0  0  0  0  0  0  0  0  0  0  0
   41.5462   27.6504   40.2664 H   0  0  0  0  0  0  0  0  0  0  0  0
   42.9716   28.4914   42.2626 H   0  0  0  0  0  0  0  0  0  0  0  0
  1 10  1  0
  2  1  1  0
  3  2  2  0
  4  6  1  0
  4  3  1  0
  5  4  2  0
  6  7  1  0
  7  8  2  0
  7  1  1  0
  9 14  2  0
 10  9  1  0
 10 11  2  0
 11 12  1  0
 12 13  2  0
 14 13  1  0
 15  6  1  0
 16 15  2  0
 17 16  1  0
 18 17  2  0
 18 19  1  0
 19 20  2  0
 20 15  1  0
 21 19  1  0
 21 25  2  0
 22 21  1  0
 23 22  2  0
 23 24  1  0
 24 25  1  0
  2 26  1  0
  3 27  1  0
  9 28  1  0
 11 29  1  0
 13 30  1  0
 16 31  1  0
 17 32  1  0
 18 33  1  0
 22 34  1  0
 23 35  1  0
 24 36  1  0
M  ISO  8  26  14  27  14  28  14  29  14  30  14  31  14  32  14  33  14
M  ISO  3  34  14  35  14  36   9
M  END
>  <minimizedAffinity>  (1) 
-5.76138115

>  <minimizedRMSD>  (1) 
0.861083031

$$$$
