
     RDKit          3D

 30 32  0  0  0  0  0  0  0  0999 V2000
   36.3970   30.1820   47.6610 N   0  0  0  0  0  0  0  0  0  0  0  0
   35.1390   29.9550   47.2050 C   0  0  0  0  0  0  0  0  0  0  0  0
   34.8390   30.0410   45.8620 C   0  0  0  0  0  0  0  0  0  0  0  0
   35.8930   30.3660   45.0660 C   0  0  0  0  0  0  0  0  0  0  0  0
   35.6680   30.4590   43.8120 O   0  0  0  0  0  0  0  0  0  0  0  0
   37.1630   30.6050   45.4500 N   0  0  0  0  0  0  0  0  0  0  0  0
   37.3540   30.4940   46.7920 C   0  0  0  0  0  0  0  0  0  0  0  0
   38.5070   30.6980   47.2240 O   0  0  0  0  0  0  0  0  0  0  0  0
   37.5950   30.9630   49.5270 C   0  0  0  0  0  0  0  0  0  0  0  0
   36.6290   30.0760   49.0390 C   0  0  0  0  0  0  0  0  0  0  0  0
   36.0200   29.1910   49.9270 C   0  0  0  0  0  0  0  0  0  0  0  0
   36.3850   29.2210   51.2290 N   0  0  0  0  0  0  0  0  0  0  0  0
   37.3260   30.0900   51.6850 C   0  0  0  0  0  0  0  0  0  0  0  0
   37.9280   30.9620   50.8220 N   0  0  0  0  0  0  0  0  0  0  0  0
   38.1620   30.9400   44.5300 C   0  0  0  0  0  0  0  0  0  0  0  0
   38.4360   32.1990   44.0200 C   0  0  0  0  0  0  0  0  0  0  0  0
   39.4330   32.4440   43.1240 C   0  0  0  0  0  0  0  0  0  0  0  0
   40.2210   31.4040   42.6900 C   0  0  0  0  0  0  0  0  0  0  0  0
   39.9380   30.1560   43.2060 C   0  0  0  0  0  0  0  0  0  0  0  0
   38.9410   29.9210   44.0980 N   0  0  0  0  0  0  0  0  0  0  0  0
   40.7160   29.0600   42.7930 O   0  0  0  0  0  0  0  0  0  0  0  0
   34.3439   29.6976   47.9202 H   0  0  0  0  0  0  0  0  0  0  0  0
   33.8286   29.8612   45.4661 H   0  0  0  0  0  0  0  0  0  0  0  0
   38.0850   31.6676   48.8389 H   0  0  0  0  0  0  0  0  0  0  0  0
   35.2567   28.4813   49.5754 H   0  0  0  0  0  0  0  0  0  0  0  0
   37.6030   30.0912   52.7496 H   0  0  0  0  0  0  0  0  0  0  0  0
   37.8169   33.0440   44.3557 H   0  0  0  0  0  0  0  0  0  0  0  0
   39.6059   33.4644   42.7513 H   0  0  0  0  0  0  0  0  0  0  0  0
   41.0360   31.5592   41.9677 H   0  0  0  0  0  0  0  0  0  0  0  0
   40.5285   28.1566   43.1519 H   0  0  0  0  0  0  0  0  0  0  0  0
  1 10  1  0
  2  1  1  0
  3  2  2  0
  4  6  1  0
  4  3  1  0
  5  4  2  0
  6  7  1  0
  7  8  2  0
  7  1  1  0
  9 14  2  0
 10  9  1  0
 10 11  2  0
 11 12  1  0
 12 13  2  0
 14 13  1  0
 15  6  1  0
 16 15  2  0
 17 16  1  0
 18 17  2  0
 18 19  1  0
 19 20  2  0
 20 15  1  0
 21 19  1  0
  2 22  1  0
  3 23  1  0
  9 24  1  0
 11 25  1  0
 13 26  1  0
 16 27  1  0
 17 28  1  0
 18 29  1  0
 21 30  1  0
M  ISO  8  22  14  23  14  24  14  25  14  26  14  27  14  28  14  29  14
M  ISO  1  30   3
M  END
>  <minimizedAffinity>  (1) 
-5.49852896

>  <minimizedRMSD>  (1) 
0.169380069

$$$$
