
     RDKit          3D

 37 40  0  0  0  0  0  0  0  0999 V2000
   36.3720   30.2950   47.4990 N   0  0  0  0  0  0  0  0  0  0  0  0
   35.1130   29.9900   47.0980 C   0  0  0  0  0  0  0  0  0  0  0  0
   34.7460   30.0970   45.7690 C   0  0  0  0  0  0  0  0  0  0  0  0
   35.7460   30.5270   44.9350 C   0  0  0  0  0  0  0  0  0  0  0  0
   35.4480   30.6390   43.6990 O   0  0  0  0  0  0  0  0  0  0  0  0
   37.0120   30.8450   45.2680 N   0  0  0  0  0  0  0  0  0  0  0  0
   37.2630   30.7030   46.5970 C   0  0  0  0  0  0  0  0  0  0  0  0
   38.4190   30.9770   46.9900 O   0  0  0  0  0  0  0  0  0  0  0  0
   36.8690   31.3960   49.5150 C   0  0  0  0  0  0  0  0  0  0  0  0
   36.6670   30.1620   48.8510 C   0  0  0  0  0  0  0  0  0  0  0  0
   36.7910   29.0080   49.6040 C   0  0  0  0  0  0  0  0  0  0  0  0
   37.0940   29.0720   50.9160 N   0  0  0  0  0  0  0  0  0  0  0  0
   37.2850   30.2760   51.5300 C   0  0  0  0  0  0  0  0  0  0  0  0
   37.1690   31.4400   50.8150 N   0  0  0  0  0  0  0  0  0  0  0  0
   37.9340   31.2770   44.3230 C   0  0  0  0  0  0  0  0  0  0  0  0
   38.3410   32.5800   44.0920 C   0  0  0  0  0  0  0  0  0  0  0  0
   39.2550   32.9440   43.1440 C   0  0  0  0  0  0  0  0  0  0  0  0
   39.8170   31.9630   42.3620 C   0  0  0  0  0  0  0  0  0  0  0  0
   39.4060   30.6570   42.5970 C   0  0  0  0  0  0  0  0  0  0  0  0
   38.4970   30.3230   43.5440 N   0  0  0  0  0  0  0  0  0  0  0  0
   40.0000   29.6120   41.7680 C   0  0  0  0  0  0  0  0  0  0  0  0
   41.2120   29.7190   41.1560 C   0  0  0  0  0  0  0  0  0  0  0  0
   41.7450   28.7080   40.3760 C   0  0  0  0  0  0  0  0  0  0  0  0
   41.0270   27.5590   40.2140 N   0  0  0  0  0  0  0  0  0  0  0  0
   39.8310   27.4570   40.8210 C   0  0  0  0  0  0  0  0  0  0  0  0
   39.3270   28.4620   41.5810 N   0  0  0  0  0  0  0  0  0  0  0  0
   34.3739   29.6530   47.8397 H   0  0  0  0  0  0  0  0  0  0  0  0
   33.7343   29.8568   45.4101 H   0  0  0  0  0  0  0  0  0  0  0  0
   36.7771   32.3351   48.9496 H   0  0  0  0  0  0  0  0  0  0  0  0
   36.6408   28.0282   49.1272 H   0  0  0  0  0  0  0  0  0  0  0  0
   37.5326   30.3124   52.6011 H   0  0  0  0  0  0  0  0  0  0  0  0
   37.8997   33.3740   44.7122 H   0  0  0  0  0  0  0  0  0  0  0  0
   39.5351   33.9992   43.0094 H   0  0  0  0  0  0  0  0  0  0  0  0
   40.5586   32.2014   41.5853 H   0  0  0  0  0  0  0  0  0  0  0  0
   41.7900   30.6457   41.2870 H   0  0  0  0  0  0  0  0  0  0  0  0
   42.7276   28.8281   39.8963 H   0  0  0  0  0  0  0  0  0  0  0  0
   39.2456   26.5339   40.6980 H   0  0  0  0  0  0  0  0  0  0  0  0
  1 10  1  0
  2  1  1  0
  3  2  2  0
  4  6  1  0
  4  3  1  0
  5  4  2  0
  6  7  1  0
  7  8  2  0
  7  1  1  0
  9 14  2  0
 10  9  1  0
 10 11  2  0
 11 12  1  0
 12 13  2  0
 14 13  1  0
 15  6  1  0
 16 15  2  0
 17 16  1  0
 18 19  1  0
 18 17  2  0
 19 20  2  0
 20 15  1  0
 21 19  1  0
 22 21  2  0
 23 22  1  0
 24 23  2  0
 24 25  1  0
 25 26  2  0
 26 21  1  0
  2 27  1  0
  3 28  1  0
  9 29  1  0
 11 30  1  0
 13 31  1  0
 16 32  1  0
 17 33  1  0
 18 34  1  0
 22 35  1  0
 23 36  1  0
 25 37  1  0
M  ISO  8  27  14  28  14  29  14  30  14  31  14  32  14  33  14  34  14
M  ISO  3  35  14  36  14  37  14
M  END
>  <minimizedAffinity>  (1) 
-5.48378944

>  <minimizedRMSD>  (1) 
0.740256071

$$$$
