
     RDKit          3D

 39 42  0  0  0  0  0  0  0  0999 V2000
   36.3950   30.2950   47.5110 N   0  0  0  0  0  0  0  0  0  0  0  0
   35.1440   29.9780   47.0930 C   0  0  0  0  0  0  0  0  0  0  0  0
   34.7830   30.0900   45.7620 C   0  0  0  0  0  0  0  0  0  0  0  0
   35.7780   30.5380   44.9450 C   0  0  0  0  0  0  0  0  0  0  0  0
   35.4830   30.6550   43.7090 O   0  0  0  0  0  0  0  0  0  0  0  0
   37.0490   30.8730   45.2950 N   0  0  0  0  0  0  0  0  0  0  0  0
   37.2860   30.7210   46.6200 C   0  0  0  0  0  0  0  0  0  0  0  0
   38.4340   31.0070   47.0200 O   0  0  0  0  0  0  0  0  0  0  0  0
   36.9310   31.3830   49.5240 C   0  0  0  0  0  0  0  0  0  0  0  0
   36.6790   30.1550   48.8650 C   0  0  0  0  0  0  0  0  0  0  0  0
   36.7540   28.9870   49.6100 C   0  0  0  0  0  0  0  0  0  0  0  0
   37.0640   29.0760   50.9310 N   0  0  0  0  0  0  0  0  0  0  0  0
   37.3020   30.2500   51.5480 C   0  0  0  0  0  0  0  0  0  0  0  0
   37.2320   31.4110   50.8270 N   0  0  0  0  0  0  0  0  0  0  0  0
   37.9650   31.3250   44.3520 C   0  0  0  0  0  0  0  0  0  0  0  0
   38.3730   32.6320   44.1420 C   0  0  0  0  0  0  0  0  0  0  0  0
   39.2810   33.0000   43.1910 C   0  0  0  0  0  0  0  0  0  0  0  0
   39.8250   32.0080   42.3870 C   0  0  0  0  0  0  0  0  0  0  0  0
   39.4150   30.7060   42.6000 C   0  0  0  0  0  0  0  0  0  0  0  0
   38.5100   30.3770   43.5570 N   0  0  0  0  0  0  0  0  0  0  0  0
   39.9700   29.6430   41.7700 C   0  0  0  0  0  0  0  0  0  0  0  0
   41.1690   29.6740   41.1310 C   0  0  0  0  0  0  0  0  0  0  0  0
   41.6390   28.6320   40.3590 C   0  0  0  0  0  0  0  0  0  0  0  0
   40.8950   27.4820   40.1940 C   0  0  0  0  0  0  0  0  0  0  0  0
   39.6680   27.3860   40.8160 C   0  0  0  0  0  0  0  0  0  0  0  0
   39.2520   28.4600   41.5760 C   0  0  0  0  0  0  0  0  0  0  0  0
   34.4030   29.6255   47.8256 H   0  0  0  0  0  0  0  0  0  0  0  0
   33.7773   29.8386   45.3940 H   0  0  0  0  0  0  0  0  0  0  0  0
   36.8786   32.3246   48.9578 H   0  0  0  0  0  0  0  0  0  0  0  0
   36.5666   28.0094   49.1418 H   0  0  0  0  0  0  0  0  0  0  0  0
   37.5498   30.2749   52.6194 H   0  0  0  0  0  0  0  0  0  0  0  0
   37.9407   33.4186   44.7779 H   0  0  0  0  0  0  0  0  0  0  0  0
   39.5732   34.0530   43.0656 H   0  0  0  0  0  0  0  0  0  0  0  0
   40.5594   32.2508   41.6049 H   0  0  0  0  0  0  0  0  0  0  0  0
   41.7945   30.5729   41.2344 H   0  0  0  0  0  0  0  0  0  0  0  0
   42.6198   28.7191   39.8686 H   0  0  0  0  0  0  0  0  0  0  0  0
   41.2745   26.6548   39.5761 H   0  0  0  0  0  0  0  0  0  0  0  0
   39.0439   26.4864   40.7102 H   0  0  0  0  0  0  0  0  0  0  0  0
   38.2729   28.3780   42.0707 H   0  0  0  0  0  0  0  0  0  0  0  0
  1 10  1  0
  2  1  1  0
  3  2  2  0
  4  6  1  0
  4  3  1  0
  5  4  2  0
  6  7  1  0
  7  8  2  0
  7  1  1  0
  9 14  2  0
 10  9  1  0
 10 11  2  0
 11 12  1  0
 12 13  2  0
 14 13  1  0
 15  6  1  0
 16 15  2  0
 17 16  1  0
 18 19  1  0
 18 17  2  0
 19 20  2  0
 20 15  1  0
 21 19  1  0
 22 21  2  0
 23 22  1  0
 24 23  2  0
 24 25  1  0
 25 26  2  0
 26 21  1  0
  2 27  1  0
  3 28  1  0
  9 29  1  0
 11 30  1  0
 13 31  1  0
 16 32  1  0
 17 33  1  0
 18 34  1  0
 22 35  1  0
 23 36  1  0
 24 37  1  0
 25 38  1  0
 26 39  1  0
M  ISO  8  27  14  28  14  29  14  30  14  31  14  32  14  33  14  34  14
M  ISO  5  35  14  36  14  37  14  38  14  39  14
M  END
>  <minimizedAffinity>  (1) 
-5.46506977

>  <minimizedRMSD>  (1) 
0.801780641

$$$$
