
     RDKit          3D

 36 39  0  0  0  0  0  0  0  0999 V2000
   36.3760   30.2930   47.5010 N   0  0  0  0  0  0  0  0  0  0  0  0
   35.1190   29.9800   47.0960 C   0  0  0  0  0  0  0  0  0  0  0  0
   34.7570   30.0820   45.7650 C   0  0  0  0  0  0  0  0  0  0  0  0
   35.7560   30.5140   44.9330 C   0  0  0  0  0  0  0  0  0  0  0  0
   35.4650   30.6220   43.6980 O   0  0  0  0  0  0  0  0  0  0  0  0
   37.0170   30.8390   45.2740 N   0  0  0  0  0  0  0  0  0  0  0  0
   37.2740   30.7050   46.6030 C   0  0  0  0  0  0  0  0  0  0  0  0
   38.4210   30.9840   46.9990 O   0  0  0  0  0  0  0  0  0  0  0  0
   36.9220   31.3920   49.5040 C   0  0  0  0  0  0  0  0  0  0  0  0
   36.6710   30.1660   48.8640 C   0  0  0  0  0  0  0  0  0  0  0  0
   36.7490   28.9920   49.6100 C   0  0  0  0  0  0  0  0  0  0  0  0
   37.0640   29.0770   50.9250 N   0  0  0  0  0  0  0  0  0  0  0  0
   37.3050   30.2740   51.5330 C   0  0  0  0  0  0  0  0  0  0  0  0
   37.2290   31.4310   50.8050 N   0  0  0  0  0  0  0  0  0  0  0  0
   37.9460   31.2740   44.3280 C   0  0  0  0  0  0  0  0  0  0  0  0
   38.3030   32.5850   44.0570 C   0  0  0  0  0  0  0  0  0  0  0  0
   39.2210   32.9440   43.1140 C   0  0  0  0  0  0  0  0  0  0  0  0
   39.8400   31.9620   42.3790 C   0  0  0  0  0  0  0  0  0  0  0  0
   39.4780   30.6590   42.6550 C   0  0  0  0  0  0  0  0  0  0  0  0
   38.5620   30.3140   43.5960 N   0  0  0  0  0  0  0  0  0  0  0  0
   40.1090   29.5820   41.8990 C   0  0  0  0  0  0  0  0  0  0  0  0
   41.3710   29.5780   41.3420 C   0  0  0  0  0  0  0  0  0  0  0  0
   41.6230   28.3970   40.7070 N   0  0  0  0  0  0  0  0  0  0  0  0
   40.4970   27.6850   40.8850 C   0  0  0  0  0  0  0  0  0  0  0  0
   39.5960   28.3800   41.5900 N   0  0  0  0  0  0  0  0  0  0  0  0
   34.3788   29.6409   47.8357 H   0  0  0  0  0  0  0  0  0  0  0  0
   33.7477   29.8359   45.4034 H   0  0  0  0  0  0  0  0  0  0  0  0
   36.8654   32.3282   48.9293 H   0  0  0  0  0  0  0  0  0  0  0  0
   36.5586   28.0155   49.1407 H   0  0  0  0  0  0  0  0  0  0  0  0
   37.5591   30.3095   52.6027 H   0  0  0  0  0  0  0  0  0  0  0  0
   37.8173   33.3838   44.6367 H   0  0  0  0  0  0  0  0  0  0  0  0
   39.4621   34.0038   42.9446 H   0  0  0  0  0  0  0  0  0  0  0  0
   40.5873   32.2024   41.6085 H   0  0  0  0  0  0  0  0  0  0  0  0
   42.0806   30.4164   41.4019 H   0  0  0  0  0  0  0  0  0  0  0  0
   40.3371   26.6663   40.5021 H   0  0  0  0  0  0  0  0  0  0  0  0
   38.6581   28.0459   41.8536 H   0  0  0  0  0  0  0  0  0  0  0  0
  1 10  1  0
  2  1  1  0
  3  2  2  0
  4  6  1  0
  4  3  1  0
  5  4  2  0
  6  7  1  0
  7  8  2  0
  7  1  1  0
  9 14  2  0
 10  9  1  0
 10 11  2  0
 11 12  1  0
 12 13  2  0
 14 13  1  0
 15  6  1  0
 16 15  2  0
 17 16  1  0
 18 19  1  0
 18 17  2  0
 19 20  2  0
 20 15  1  0
 21 19  1  0
 22 21  2  0
 23 24  2  0
 23 22  1  0
 24 25  1  0
 25 21  1  0
  2 26  1  0
  3 27  1  0
  9 28  1  0
 11 29  1  0
 13 30  1  0
 16 31  1  0
 17 32  1  0
 18 33  1  0
 22 34  1  0
 24 35  1  0
 25 36  1  0
M  ISO  8  26  14  27  14  28  14  29  14  30  14  31  14  32  14  33  14
M  ISO  3  34  14  35  14  36   9
M  END
>  <minimizedAffinity>  (1) 
-5.39473915

>  <minimizedRMSD>  (1) 
0.658232987

$$$$
