
     RDKit          3D

 29 31  0  0  0  0  0  0  0  0999 V2000
   38.0200   32.8680   48.9560 C   0  0  0  0  0  0  0  0  0  0  0  0
   38.7950   32.8940   47.7170 N   0  0  0  0  0  0  0  0  0  0  0  0
   39.9140   33.5680   47.4040 C   0  0  0  0  0  0  0  0  0  0  0  0
   40.2880   33.2920   46.1370 N   0  0  0  0  0  0  0  0  0  0  0  0
   39.3770   32.4290   45.6620 C   0  0  0  0  0  0  0  0  0  0  0  0
   39.1940   31.7750   44.4540 C   0  0  0  0  0  0  0  0  0  0  0  0
   38.1610   30.9240   44.2120 N   0  0  0  0  0  0  0  0  0  0  0  0
   37.2740   30.7130   45.2080 C   0  0  0  0  0  0  0  0  0  0  0  0
   37.4230   31.3310   46.3930 N   0  0  0  0  0  0  0  0  0  0  0  0
   38.4350   32.1670   46.6360 C   0  0  0  0  0  0  0  0  0  0  0  0
   40.1090   31.9760   43.3830 N   0  0  0  0  0  0  0  0  0  0  0  0
   38.4420   31.6820   49.8030 C   0  0  0  0  0  0  0  0  0  0  0  0
   37.3170   30.0440   51.2450 C   0  0  0  0  0  0  0  0  0  0  0  0
   37.2770   30.9050   50.1420 C   0  0  0  0  0  0  0  0  0  0  0  0
   36.0920   30.9640   49.4160 C   0  0  0  0  0  0  0  0  0  0  0  0
   35.0310   30.1940   49.8010 N   0  0  0  0  0  0  0  0  0  0  0  0
   35.1000   29.3700   50.8750 C   0  0  0  0  0  0  0  0  0  0  0  0
   36.2410   29.3020   51.5860 N   0  0  0  0  0  0  0  0  0  0  0  0
   36.9500   32.7824   48.7155 H   0  0  0  0  0  0  0  0  0  0  0  0
   38.2013   33.7968   49.5167 H   0  0  0  0  0  0  0  0  0  0  0  0
   40.4491   34.2478   48.0834 H   0  0  0  0  0  0  0  0  0  0  0  0
   36.4249   30.0319   45.0492 H   0  0  0  0  0  0  0  0  0  0  0  0
   39.9686   31.4876   42.4871 H   0  0  0  0  0  0  0  0  0  0  0  0
   40.9118   32.6099   43.5036 H   0  0  0  0  0  0  0  0  0  0  0  0
   39.1487   31.0579   49.2364 H   0  0  0  0  0  0  0  0  0  0  0  0
   38.9294   32.0386   50.7224 H   0  0  0  0  0  0  0  0  0  0  0  0
   38.2377   29.9706   51.8425 H   0  0  0  0  0  0  0  0  0  0  0  0
   36.0098   31.6244   48.5401 H   0  0  0  0  0  0  0  0  0  0  0  0
   34.2302   28.7615   51.1634 H   0  0  0  0  0  0  0  0  0  0  0  0
  1 12  1  0
  2  1  1  0
  3  2  1  0
  4  3  2  0
  5  4  1  0
  5 10  2  0
  6  5  1  0
  7  6  2  0
  7  8  1  0
  8  9  2  0
  9 10  1  0
 10  2  1  0
 11  6  1  0
 12 14  1  0
 13 18  2  0
 14 13  1  0
 15 16  1  0
 15 14  2  0
 16 17  2  0
 17 18  1  0
  1 19  1  0
  1 20  1  0
  3 21  1  0
  8 22  1  0
 11 23  1  0
 11 24  1  0
 12 25  1  0
 12 26  1  0
 13 27  1  0
 15 28  1  0
 17 29  1  0
M  ISO  8  19   8  20   8  21  14  22  14  25   8  26   8  27  14  28  14
M  ISO  1  29  14
M  END
>  <minimizedAffinity>  (1) 
-5.13022947

>  <minimizedRMSD>  (1) 
3.13594627

$$$$
