
     RDKit          3D

 27 28  0  0  0  0  0  0  0  0999 V2000
   38.1530   32.4440   48.9660 C   0  0  0  0  0  0  0  0  0  0  0  0
   38.7850   32.1230   47.6760 N   0  0  0  0  0  0  0  0  0  0  0  0
   38.5060   30.9680   47.0290 C   0  0  0  0  0  0  0  0  0  0  0  0
   39.1300   30.7070   45.8110 C   0  0  0  0  0  0  0  0  0  0  0  0
   40.0090   31.6340   45.3050 C   0  0  0  0  0  0  0  0  0  0  0  0
   40.6810   31.4330   44.0660 N   0  0  0  0  0  0  0  0  0  0  0  0
   40.2520   32.7730   45.9910 N   0  0  0  0  0  0  0  0  0  0  0  0
   39.6540   33.0420   47.1790 C   0  0  0  0  0  0  0  0  0  0  0  0
   39.9110   34.1180   47.7850 O   0  0  0  0  0  0  0  0  0  0  0  0
   38.2760   31.1810   49.7960 C   0  0  0  0  0  0  0  0  0  0  0  0
   36.7490   29.6730   51.0270 C   0  0  0  0  0  0  0  0  0  0  0  0
   36.9570   30.6430   50.0220 C   0  0  0  0  0  0  0  0  0  0  0  0
   35.8410   31.0290   49.2900 C   0  0  0  0  0  0  0  0  0  0  0  0
   34.6300   30.4640   49.5710 N   0  0  0  0  0  0  0  0  0  0  0  0
   34.4780   29.5350   50.5460 C   0  0  0  0  0  0  0  0  0  0  0  0
   35.5490   29.1440   51.2730 N   0  0  0  0  0  0  0  0  0  0  0  0
   37.0952   32.7089   48.8217 H   0  0  0  0  0  0  0  0  0  0  0  0
   38.6324   33.3049   49.4550 H   0  0  0  0  0  0  0  0  0  0  0  0
   37.7966   30.2453   47.4585 H   0  0  0  0  0  0  0  0  0  0  0  0
   38.9227   29.7754   45.2641 H   0  0  0  0  0  0  0  0  0  0  0  0
   41.3344   32.1466   43.7128 H   0  0  0  0  0  0  0  0  0  0  0  0
   40.5137   30.5740   43.5228 H   0  0  0  0  0  0  0  0  0  0  0  0
   38.8890   30.4431   49.2577 H   0  0  0  0  0  0  0  0  0  0  0  0
   38.7555   31.4117   50.7587 H   0  0  0  0  0  0  0  0  0  0  0  0
   37.6078   29.3414   51.6291 H   0  0  0  0  0  0  0  0  0  0  0  0
   35.9319   31.7815   48.4928 H   0  0  0  0  0  0  0  0  0  0  0  0
   33.4872   29.1007   50.7452 H   0  0  0  0  0  0  0  0  0  0  0  0
  1 10  1  0
  2  1  1  0
  3  2  1  0
  4  3  2  0
  5  4  1  0
  5  7  2  0
  6  5  1  0
  7  8  1  0
  8  2  1  0
  8  9  2  0
 10 12  1  0
 11 16  2  0
 12 11  1  0
 13 14  1  0
 13 12  2  0
 14 15  2  0
 15 16  1  0
  1 17  1  0
  1 18  1  0
  3 19  1  0
  4 20  1  0
  6 21  1  0
  6 22  1  0
 10 23  1  0
 10 24  1  0
 11 25  1  0
 13 26  1  0
 15 27  1  0
M  ISO  8  17   8  18   8  19  14  20  14  23   8  24   8  25  14  26  14
M  ISO  1  27  14
M  END
>  <minimizedAffinity>  (1) 
-5.01972961

>  <minimizedRMSD>  (1) 
3.18983245

$$$$
