
     RDKit          3D

 23 24  0  0  0  0  0  0  0  0999 V2000
   38.2900   31.1850   50.0270 C   0  0  0  0  0  0  0  0  0  0  0  0
   36.6580   29.7100   51.1450 C   0  0  0  0  0  0  0  0  0  0  0  0
   36.9700   30.5980   50.1080 C   0  0  0  0  0  0  0  0  0  0  0  0
   35.9690   30.8810   49.1840 C   0  0  0  0  0  0  0  0  0  0  0  0
   34.7400   30.3020   49.3090 N   0  0  0  0  0  0  0  0  0  0  0  0
   34.4730   29.4460   50.3260 C   0  0  0  0  0  0  0  0  0  0  0  0
   35.4340   29.1580   51.2360 N   0  0  0  0  0  0  0  0  0  0  0  0
   38.1570   32.6450   49.6110 C   0  0  0  0  0  0  0  0  0  0  0  0
   38.8660   32.8930   48.3280 C   0  0  0  0  0  0  0  0  0  0  0  0
   38.8660   32.0560   47.2160 C   0  0  0  0  0  0  0  0  0  0  0  0
   39.6640   32.7220   46.2830 C   0  0  0  0  0  0  0  0  0  0  0  0
   40.0720   33.8600   46.8640 N   0  0  0  0  0  0  0  0  0  0  0  0
   39.6080   33.9930   48.0980 N   0  0  0  0  0  0  0  0  0  0  0  0
   38.7819   31.1243   51.0090 H   0  0  0  0  0  0  0  0  0  0  0  0
   38.8949   30.6405   49.2870 H   0  0  0  0  0  0  0  0  0  0  0  0
   37.4232   29.4605   51.8948 H   0  0  0  0  0  0  0  0  0  0  0  0
   36.1687   31.5722   48.3519 H   0  0  0  0  0  0  0  0  0  0  0  0
   33.4774   28.9861   50.4119 H   0  0  0  0  0  0  0  0  0  0  0  0
   37.0916   32.8897   49.4879 H   0  0  0  0  0  0  0  0  0  0  0  0
   38.6063   33.2771   50.3911 H   0  0  0  0  0  0  0  0  0  0  0  0
   38.3539   31.0896   47.0986 H   0  0  0  0  0  0  0  0  0  0  0  0
   39.9104   32.3792   45.2672 H   0  0  0  0  0  0  0  0  0  0  0  0
   40.6783   34.5531   46.4025 H   0  0  0  0  0  0  0  0  0  0  0  0
  1  3  1  0
  2  7  2  0
  3  2  1  0
  4  5  1  0
  4  3  2  0
  5  6  2  0
  6  7  1  0
  8  1  1  0
  9  8  1  0
 10  9  1  0
 11 12  1  0
 11 10  2  0
 12 13  1  0
 13  9  2  0
  1 14  1  0
  1 15  1  0
  2 16  1  0
  4 17  1  0
  6 18  1  0
  8 19  1  0
  8 20  1  0
 10 21  1  0
 11 22  1  0
 12 23  1  0
M  ISO  8  14   8  15   8  16  14  17  14  18  14  19   8  20   8  21  14
M  ISO  2  22  14  23   9
M  END
>  <minimizedAffinity>  (1) 
-4.89804697

>  <minimizedRMSD>  (1) 
1.67574906

$$$$
