
     RDKit          3D

 24 25  0  0  0  0  0  0  0  0999 V2000
   38.0330   31.1730   48.8110 C   0  0  0  0  0  0  0  0  0  0  0  0
   37.1940   30.0010   50.8220 C   0  0  0  0  0  0  0  0  0  0  0  0
   36.9590   30.5320   49.5320 C   0  0  0  0  0  0  0  0  0  0  0  0
   35.6620   30.4050   49.0070 C   0  0  0  0  0  0  0  0  0  0  0  0
   34.7050   29.7810   49.7630 N   0  0  0  0  0  0  0  0  0  0  0  0
   34.9800   29.2970   50.9770 C   0  0  0  0  0  0  0  0  0  0  0  0
   36.2060   29.4060   51.4950 N   0  0  0  0  0  0  0  0  0  0  0  0
   38.0750   30.5950   47.4000 C   0  0  0  0  0  0  0  0  0  0  0  0
   39.0430   31.3100   46.5470 C   0  0  0  0  0  0  0  0  0  0  0  0
   39.7650   30.7030   45.5280 C   0  0  0  0  0  0  0  0  0  0  0  0
   40.6630   31.3630   44.7350 C   0  0  0  0  0  0  0  0  0  0  0  0
   40.8550   32.6770   44.9610 N   0  0  0  0  0  0  0  0  0  0  0  0
   40.1550   33.2870   45.9570 C   0  0  0  0  0  0  0  0  0  0  0  0
   39.2670   32.6240   46.7370 N   0  0  0  0  0  0  0  0  0  0  0  0
   37.8539   32.2573   48.7635 H   0  0  0  0  0  0  0  0  0  0  0  0
   38.9910   30.9956   49.3217 H   0  0  0  0  0  0  0  0  0  0  0  0
   38.1945   30.0786   51.2724 H   0  0  0  0  0  0  0  0  0  0  0  0
   35.4198   30.7987   48.0089 H   0  0  0  0  0  0  0  0  0  0  0  0
   34.1870   28.8026   51.5572 H   0  0  0  0  0  0  0  0  0  0  0  0
   38.3646   29.5353   47.4571 H   0  0  0  0  0  0  0  0  0  0  0  0
   37.0759   30.7066   46.9534 H   0  0  0  0  0  0  0  0  0  0  0  0
   39.6056   29.6296   45.3482 H   0  0  0  0  0  0  0  0  0  0  0  0
   41.2106   30.8378   43.9386 H   0  0  0  0  0  0  0  0  0  0  0  0
   40.3167   34.3603   46.1355 H   0  0  0  0  0  0  0  0  0  0  0  0
  1  3  1  0
  2  7  2  0
  3  2  1  0
  4  3  2  0
  4  5  1  0
  5  6  2  0
  6  7  1  0
  8  1  1  0
  9 14  1  0
  9  8  1  0
 10  9  2  0
 11 12  2  0
 11 10  1  0
 12 13  1  0
 13 14  2  0
  1 15  1  0
  1 16  1  0
  2 17  1  0
  4 18  1  0
  6 19  1  0
  8 20  1  0
  8 21  1  0
 10 22  1  0
 11 23  1  0
 13 24  1  0
M  ISO  8  15   8  16   8  17  14  18  14  19  14  20   8  21   8  22  14
M  ISO  2  23  14  24  14
M  END
>  <minimizedAffinity>  (1) 
-4.69941425

>  <minimizedRMSD>  (1) 
4.8711381

$$$$
