
     RDKit          3D

 23 23  0  0  0  0  0  0  0  0999 V2000
   38.4010   31.9260   49.9590 C   0  0  0  0  0  0  0  0  0  0  0  0
   37.3290   30.2050   51.3310 C   0  0  0  0  0  0  0  0  0  0  0  0
   37.2890   31.0330   50.1740 C   0  0  0  0  0  0  0  0  0  0  0  0
   36.1750   30.9120   49.3500 C   0  0  0  0  0  0  0  0  0  0  0  0
   35.2090   30.0270   49.6900 N   0  0  0  0  0  0  0  0  0  0  0  0
   35.2730   29.2610   50.7840 C   0  0  0  0  0  0  0  0  0  0  0  0
   36.3280   29.3470   51.6030 N   0  0  0  0  0  0  0  0  0  0  0  0
   37.9210   33.0610   49.0710 C   0  0  0  0  0  0  0  0  0  0  0  0
   39.1000   33.5060   48.3090 N   0  0  0  0  0  0  0  0  0  0  0  0
   39.4380   32.7850   47.1210 C   0  0  0  0  0  0  0  0  0  0  0  0
   39.1100   31.5340   47.0560 N   0  0  0  0  0  0  0  0  0  0  0  0
   40.1080   33.4300   46.0540 N   0  0  0  0  0  0  0  0  0  0  0  0
   39.3640   31.0170   46.1800 H   0  0  0  0  0  0  0  0  0  0  0  0
   38.7506   32.3266   50.9219 H   0  0  0  0  0  0  0  0  0  0  0  0
   39.2357   31.3918   49.4817 H   0  0  0  0  0  0  0  0  0  0  0  0
   38.1901   30.2671   52.0126 H   0  0  0  0  0  0  0  0  0  0  0  0
   36.0810   31.5233   48.4403 H   0  0  0  0  0  0  0  0  0  0  0  0
   34.4572   28.5590   51.0113 H   0  0  0  0  0  0  0  0  0  0  0  0
   37.1358   32.7057   48.3875 H   0  0  0  0  0  0  0  0  0  0  0  0
   37.4905   33.8819   49.6634 H   0  0  0  0  0  0  0  0  0  0  0  0
   39.6627   34.3101   48.6214 H   0  0  0  0  0  0  0  0  0  0  0  0
   40.3473   32.9026   45.2023 H   0  0  0  0  0  0  0  0  0  0  0  0
   40.3562   34.4268   46.1293 H   0  0  0  0  0  0  0  0  0  0  0  0
  1  3  1  0
  2  7  2  0
  3  2  1  0
  4  5  1  0
  4  3  2  0
  5  6  2  0
  6  7  1  0
  8  1  1  0
  9  8  1  0
 10  9  1  0
 11 10  2  0
 12 10  1  0
 13 11  1  0
  1 14  1  0
  1 15  1  0
  2 16  1  0
  4 17  1  0
  6 18  1  0
  8 19  1  0
  8 20  1  0
  9 21  1  0
 12 22  1  0
 12 23  1  0
M  ISO  7  14   8  15   8  16  14  17  14  18  14  19   8  20   8
M  END
>  <minimizedAffinity>  (1) 
-4.61706924

>  <minimizedRMSD>  (1) 
1.21713853

$$$$
