
     RDKit          3D

 23 24  0  0  0  0  0  0  0  0999 V2000
   38.5880   31.8650   49.5140 C   0  0  0  0  0  0  0  0  0  0  0  0
   37.4810   30.2930   51.0680 C   0  0  0  0  0  0  0  0  0  0  0  0
   37.4650   31.0370   49.8770 C   0  0  0  0  0  0  0  0  0  0  0  0
   36.3340   30.9350   49.0790 C   0  0  0  0  0  0  0  0  0  0  0  0
   35.2960   30.1320   49.4710 N   0  0  0  0  0  0  0  0  0  0  0  0
   35.3470   29.4300   50.6280 C   0  0  0  0  0  0  0  0  0  0  0  0
   36.4470   29.5220   51.4130 N   0  0  0  0  0  0  0  0  0  0  0  0
   38.2130   32.7560   48.3610 C   0  0  0  0  0  0  0  0  0  0  0  0
   39.1000   32.3790   47.2450 N   0  0  0  0  0  0  0  0  0  0  0  0
   39.2950   31.1640   46.7650 N   0  0  0  0  0  0  0  0  0  0  0  0
   40.1870   31.2250   45.7350 C   0  0  0  0  0  0  0  0  0  0  0  0
   40.5650   32.5500   45.5700 C   0  0  0  0  0  0  0  0  0  0  0  0
   39.8520   33.2520   46.5490 C   0  0  0  0  0  0  0  0  0  0  0  0
   38.8781   32.4849   50.3752 H   0  0  0  0  0  0  0  0  0  0  0  0
   39.4313   31.2237   49.2180 H   0  0  0  0  0  0  0  0  0  0  0  0
   38.3598   30.3463   51.7274 H   0  0  0  0  0  0  0  0  0  0  0  0
   36.2715   31.4969   48.1354 H   0  0  0  0  0  0  0  0  0  0  0  0
   34.5031   28.7911   50.9274 H   0  0  0  0  0  0  0  0  0  0  0  0
   37.1608   32.5968   48.0825 H   0  0  0  0  0  0  0  0  0  0  0  0
   38.3262   33.8186   48.6219 H   0  0  0  0  0  0  0  0  0  0  0  0
   40.5445   30.3724   45.1389 H   0  0  0  0  0  0  0  0  0  0  0  0
   41.2704   32.9591   44.8317 H   0  0  0  0  0  0  0  0  0  0  0  0
   39.8985   34.3375   46.7211 H   0  0  0  0  0  0  0  0  0  0  0  0
  1  3  1  0
  2  7  2  0
  3  2  1  0
  4  5  1  0
  4  3  2  0
  5  6  2  0
  6  7  1  0
  8  1  1  0
  9  8  1  0
 10  9  1  0
 11 10  2  0
 12 11  1  0
 12 13  2  0
 13  9  1  0
  1 14  1  0
  1 15  1  0
  2 16  1  0
  4 17  1  0
  6 18  1  0
  8 19  1  0
  8 20  1  0
 11 21  1  0
 12 22  1  0
 13 23  1  0
M  ISO  8  14   8  15   8  16  14  17  14  18  14  19   8  20   8  21  14
M  ISO  2  22  14  23  14
M  END
>  <minimizedAffinity>  (1) 
-4.52220011

>  <minimizedRMSD>  (1) 
2.30927706

$$$$
