
     RDKit          3D

 23 24  0  0  0  0  0  0  0  0999 V2000
   38.5780   31.8170   49.5210 C   0  0  0  0  0  0  0  0  0  0  0  0
   37.4660   30.2810   51.0480 C   0  0  0  0  0  0  0  0  0  0  0  0
   37.4280   31.0100   49.8530 C   0  0  0  0  0  0  0  0  0  0  0  0
   36.2810   30.9050   49.0680 C   0  0  0  0  0  0  0  0  0  0  0  0
   35.2670   30.1030   49.5060 N   0  0  0  0  0  0  0  0  0  0  0  0
   35.3300   29.4130   50.6590 C   0  0  0  0  0  0  0  0  0  0  0  0
   36.4220   29.5060   51.4190 N   0  0  0  0  0  0  0  0  0  0  0  0
   38.1950   32.7580   48.3950 C   0  0  0  0  0  0  0  0  0  0  0  0
   39.0640   32.3630   47.2790 N   0  0  0  0  0  0  0  0  0  0  0  0
   39.2660   31.1690   46.7010 C   0  0  0  0  0  0  0  0  0  0  0  0
   40.1770   31.2930   45.6860 C   0  0  0  0  0  0  0  0  0  0  0  0
   40.5380   32.5850   45.6420 N   0  0  0  0  0  0  0  0  0  0  0  0
   39.8650   33.2400   46.6060 C   0  0  0  0  0  0  0  0  0  0  0  0
   38.8900   32.3986   50.4010 H   0  0  0  0  0  0  0  0  0  0  0  0
   39.4130   31.1733   49.2074 H   0  0  0  0  0  0  0  0  0  0  0  0
   38.3556   30.3395   51.6924 H   0  0  0  0  0  0  0  0  0  0  0  0
   36.1951   31.4548   48.1191 H   0  0  0  0  0  0  0  0  0  0  0  0
   34.4884   28.7777   50.9722 H   0  0  0  0  0  0  0  0  0  0  0  0
   37.1355   32.6333   48.1266 H   0  0  0  0  0  0  0  0  0  0  0  0
   38.3203   33.8155   48.6707 H   0  0  0  0  0  0  0  0  0  0  0  0
   38.7737   30.2312   46.9979 H   0  0  0  0  0  0  0  0  0  0  0  0
   40.5429   30.4878   45.0319 H   0  0  0  0  0  0  0  0  0  0  0  0
   39.9476   34.3161   46.8188 H   0  0  0  0  0  0  0  0  0  0  0  0
  1  3  1  0
  2  7  2  0
  3  2  1  0
  4  5  1  0
  4  3  2  0
  5  6  2  0
  6  7  1  0
  8  1  1  0
  9  8  1  0
 10  9  1  0
 11 10  2  0
 12 11  1  0
 12 13  2  0
 13  9  1  0
  1 14  1  0
  1 15  1  0
  2 16  1  0
  4 17  1  0
  6 18  1  0
  8 19  1  0
  8 20  1  0
 10 21  1  0
 11 22  1  0
 13 23  1  0
M  ISO  8  14   8  15   8  16  14  17  14  18  14  19   8  20   8  21  14
M  ISO  2  22  14  23  14
M  END
>  <minimizedAffinity>  (1) 
-4.35605812

>  <minimizedRMSD>  (1) 
2.42268872

$$$$
