
     RDKit          3D

 17 17  0  0  0  0  0  0  0  0999 V2000
   36.7060   29.6560   50.4000 C   0  0  0  0  0  0  0  0  0  0  0  0
   36.8110   30.2460   49.1170 C   0  0  0  0  0  0  0  0  0  0  0  0
   35.6160   30.4250   48.4240 C   0  0  0  0  0  0  0  0  0  0  0  0
   34.4590   30.0370   48.9970 N   0  0  0  0  0  0  0  0  0  0  0  0
   34.3880   29.4810   50.2120 C   0  0  0  0  0  0  0  0  0  0  0  0
   35.5240   29.2890   50.9210 N   0  0  0  0  0  0  0  0  0  0  0  0
   38.1320   30.6050   48.6480 C   0  0  0  0  0  0  0  0  0  0  0  0
   38.0220   32.0050   48.0400 C   0  0  0  0  0  0  0  0  0  0  0  0
   38.4910   33.2790   49.2050 S   0  0  0  0  0  0  0  0  0  0  0  0
   37.6212   29.4932   50.9882 H   0  0  0  0  0  0  0  0  0  0  0  0
   35.6163   30.8775   47.4214 H   0  0  0  0  0  0  0  0  0  0  0  0
   33.4153   29.1829   50.6303 H   0  0  0  0  0  0  0  0  0  0  0  0
   38.8427   30.6119   49.4876 H   0  0  0  0  0  0  0  0  0  0  0  0
   38.4967   29.8804   47.9051 H   0  0  0  0  0  0  0  0  0  0  0  0
   38.6834   32.0645   47.1630 H   0  0  0  0  0  0  0  0  0  0  0  0
   36.9720   32.1718   47.7579 H   0  0  0  0  0  0  0  0  0  0  0  0
   38.3201   32.8148   50.4826 H   0  0  0  0  0  0  0  0  0  0  0  0
  1  6  2  0
  2  1  1  0
  3  4  1  0
  3  2  2  0
  4  5  2  0
  5  6  1  0
  7  2  1  0
  8  7  1  0
  8  9  1  0
  1 10  1  0
  3 11  1  0
  5 12  1  0
  7 13  1  0
  7 14  1  0
  8 15  1  0
  8 16  1  0
  9 17  1  0
M  ISO  8  10  14  11  14  12  14  13   8  14   8  15   8  16   8  17  11
M  END
>  <minimizedAffinity>  (1) 
-3.2848146

>  <minimizedRMSD>  (1) 
1.31695569

$$$$
