
     RDKit          3D

 22 23  0  0  0  0  0  0  0  0999 V2000
   38.0170   33.1240   49.4230 C   0  0  0  0  0  0  0  0  0  0  0  0
   39.0010   33.0960   48.4190 C   0  0  0  0  0  0  0  0  0  0  0  0
   38.9490   32.0480   47.4950 C   0  0  0  0  0  0  0  0  0  0  0  0
   37.9650   31.1200   47.6100 N   0  0  0  0  0  0  0  0  0  0  0  0
   37.0320   31.1810   48.5950 C   0  0  0  0  0  0  0  0  0  0  0  0
   37.0650   32.1890   49.4980 N   0  0  0  0  0  0  0  0  0  0  0  0
   35.9890   30.2240   48.7410 N   0  0  0  0  0  0  0  0  0  0  0  0
   34.6560   30.2260   48.1700 C   0  0  0  0  0  0  0  0  0  0  0  0
   34.2870   28.7530   48.1350 C   0  0  0  0  0  0  0  0  0  0  0  0
   34.8530   28.2830   49.4810 C   0  0  0  0  0  0  0  0  0  0  0  0
   36.1450   29.0210   49.5510 C   0  0  0  0  0  0  0  0  0  0  0  0
   38.0311   33.9357   50.1652 H   0  0  0  0  0  0  0  0  0  0  0  0
   39.7817   33.8689   48.3627 H   0  0  0  0  0  0  0  0  0  0  0  0
   39.6932   31.9766   46.6881 H   0  0  0  0  0  0  0  0  0  0  0  0
   33.9571   30.7921   48.8034 H   0  0  0  0  0  0  0  0  0  0  0  0
   34.6132   30.7035   47.1800 H   0  0  0  0  0  0  0  0  0  0  0  0
   33.1977   28.6097   48.0816 H   0  0  0  0  0  0  0  0  0  0  0  0
   34.6746   28.2070   47.2623 H   0  0  0  0  0  0  0  0  0  0  0  0
   34.1887   28.5612   50.3125 H   0  0  0  0  0  0  0  0  0  0  0  0
   34.9622   27.1912   49.5582 H   0  0  0  0  0  0  0  0  0  0  0  0
   36.9587   28.3983   49.1509 H   0  0  0  0  0  0  0  0  0  0  0  0
   36.3975   29.2759   50.5908 H   0  0  0  0  0  0  0  0  0  0  0  0
  1  6  2  0
  2  1  1  0
  3  4  1  0
  3  2  2  0
  4  5  2  0
  5  7  1  0
  5  6  1  0
  7 11  1  0
  8  7  1  0
  9  8  1  0
  9 10  1  0
 10 11  1  0
  1 12  1  0
  2 13  1  0
  3 14  1  0
  8 15  1  0
  8 16  1  0
  9 17  1  0
  9 18  1  0
 10 19  1  0
 10 20  1  0
 11 21  1  0
 11 22  1  0
M  ISO  8  12  14  13  14  14  14  15  13  16  13  17  13  18  13  19  13
M  ISO  3  20  13  21  13  22  13
M  END
>  <minimizedAffinity>  (1) 
-4.47635031

>  <minimizedRMSD>  (1) 
2.73266625

$$$$
