
     RDKit          3D

 36 38  0  0  0  0  0  0  0  0999 V2000
   36.5290   31.2330   49.7460 C   0  0  0  0  0  0  0  0  0  0  0  0
   37.6090   32.0210   49.0490 C   0  0  0  0  0  0  0  0  0  0  0  0
   38.2230   33.0830   49.6690 C   0  0  0  0  0  0  0  0  0  0  0  0
   39.1980   33.8260   49.0430 C   0  0  0  0  0  0  0  0  0  0  0  0
   39.5330   33.4670   47.7790 N   0  0  0  0  0  0  0  0  0  0  0  0
   38.9460   32.4380   47.1600 C   0  0  0  0  0  0  0  0  0  0  0  0
   37.9900   31.7140   47.7810 N   0  0  0  0  0  0  0  0  0  0  0  0
   39.3180   32.0820   45.8290 N   0  0  0  0  0  0  0  0  0  0  0  0
   39.1220   33.1070   44.8360 C   0  0  0  0  0  0  0  0  0  0  0  0
   39.5250   32.7510   43.4540 C   0  0  0  0  0  0  0  0  0  0  0  0
   40.0970   31.4520   43.2700 N   0  0  0  0  0  0  0  0  0  0  0  0
   40.8660   31.0000   44.4060 C   0  0  0  0  0  0  0  0  0  0  0  0
   39.8500   30.7800   45.5260 C   0  0  0  0  0  0  0  0  0  0  0  0
   36.6550   29.8260   49.2250 C   0  0  0  0  0  0  0  0  0  0  0  0
   34.7130   28.3380   49.3890 C   0  0  0  0  0  0  0  0  0  0  0  0
   35.4160   29.3400   48.7120 C   0  0  0  0  0  0  0  0  0  0  0  0
   34.8600   29.8320   47.5530 C   0  0  0  0  0  0  0  0  0  0  0  0
   33.6650   29.3460   47.1010 N   0  0  0  0  0  0  0  0  0  0  0  0
   33.0070   28.3800   47.7750 C   0  0  0  0  0  0  0  0  0  0  0  0
   33.5400   27.8880   48.9090 N   0  0  0  0  0  0  0  0  0  0  0  0
   36.6804   31.2542   50.8353 H   0  0  0  0  0  0  0  0  0  0  0  0
   35.5302   31.6512   49.5522 H   0  0  0  0  0  0  0  0  0  0  0  0
   37.9267   33.3467   50.6950 H   0  0  0  0  0  0  0  0  0  0  0  0
   39.6845   34.6745   49.5464 H   0  0  0  0  0  0  0  0  0  0  0  0
   38.7001   34.0914   45.0870 H   0  0  0  0  0  0  0  0  0  0  0  0
   39.3913   33.4488   42.6142 H   0  0  0  0  0  0  0  0  0  0  0  0
   39.9726   30.8949   42.4127 H   0  0  0  0  0  0  0  0  0  0  0  0
   41.3860   30.0602   44.1687 H   0  0  0  0  0  0  0  0  0  0  0  0
   41.6375   31.7298   44.6927 H   0  0  0  0  0  0  0  0  0  0  0  0
   39.0479   30.1065   45.1896 H   0  0  0  0  0  0  0  0  0  0  0  0
   40.3127   30.3145   46.4088 H   0  0  0  0  0  0  0  0  0  0  0  0
   37.4048   29.8097   48.4203 H   0  0  0  0  0  0  0  0  0  0  0  0
   36.9583   29.1773   50.0600 H   0  0  0  0  0  0  0  0  0  0  0  0
   35.1217   27.9158   50.3189 H   0  0  0  0  0  0  0  0  0  0  0  0
   35.3796   30.6198   46.9879 H   0  0  0  0  0  0  0  0  0  0  0  0
   32.0451   27.9985   47.4018 H   0  0  0  0  0  0  0  0  0  0  0  0
  2  3  2  0
  2  1  1  0
  4  3  1  0
  5  4  2  0
  6  5  1  0
  6  7  2  0
  7  2  1  0
  8  6  1  0
  9  8  1  0
 10  9  2  0
 11 10  1  0
 11 12  1  0
 12 13  1  0
 13  8  1  0
 14  1  1  0
 16 14  1  0
 16 15  2  0
 17 16  1  0
 18 17  2  0
 18 19  1  0
 19 20  2  0
 20 15  1  0
  1 21  1  0
  1 22  1  0
  3 23  1  0
  4 24  1  0
  9 25  1  0
 10 26  1  0
 11 27  1  0
 12 28  1  0
 12 29  1  0
 13 30  1  0
 13 31  1  0
 14 32  1  0
 14 33  1  0
 15 34  1  0
 17 35  1  0
 19 36  1  0
M  ISO  8  21   8  22   8  23  14  24  14  25  13  26  13  28  13  29  13
M  ISO  7  30  13  31  13  32   8  33   8  34  14  35  14  36  14
M  END
>  <minimizedAffinity>  (1) 
-5.99455261

>  <minimizedRMSD>  (1) 
3.5455184

$$$$
