
     RDKit          3D

 31 33  0  0  0  0  0  0  0  0999 V2000
   35.8910   30.0160   49.0120 C   0  0  0  0  0  0  0  0  0  0  0  0
   36.9490   31.0730   48.8390 C   0  0  0  0  0  0  0  0  0  0  0  0
   37.0860   32.0870   49.7410 C   0  0  0  0  0  0  0  0  0  0  0  0
   38.0360   33.0840   49.5960 C   0  0  0  0  0  0  0  0  0  0  0  0
   38.8350   33.0120   48.5060 N   0  0  0  0  0  0  0  0  0  0  0  0
   38.7130   32.0240   47.6110 C   0  0  0  0  0  0  0  0  0  0  0  0
   37.7820   31.0600   47.7660 N   0  0  0  0  0  0  0  0  0  0  0  0
   39.5300   31.9060   46.4490 N   0  0  0  0  0  0  0  0  0  0  0  0
   40.0370   30.8630   45.7940 N   0  0  0  0  0  0  0  0  0  0  0  0
   40.7560   31.2900   44.7390 C   0  0  0  0  0  0  0  0  0  0  0  0
   40.7010   32.6770   44.7230 C   0  0  0  0  0  0  0  0  0  0  0  0
   39.9180   33.0310   45.8200 C   0  0  0  0  0  0  0  0  0  0  0  0
   35.2540   29.8640   47.6520 C   0  0  0  0  0  0  0  0  0  0  0  0
   33.6700   28.4410   48.8780 C   0  0  0  0  0  0  0  0  0  0  0  0
   34.0040   29.1770   47.7370 C   0  0  0  0  0  0  0  0  0  0  0  0
   33.0780   29.2140   46.7190 C   0  0  0  0  0  0  0  0  0  0  0  0
   31.8900   28.5460   46.8560 N   0  0  0  0  0  0  0  0  0  0  0  0
   31.5930   27.8530   47.9500 C   0  0  0  0  0  0  0  0  0  0  0  0
   32.4800   27.8110   48.9370 N   0  0  0  0  0  0  0  0  0  0  0  0
   36.3438   29.0666   49.3337 H   0  0  0  0  0  0  0  0  0  0  0  0
   35.1551   30.2942   49.7808 H   0  0  0  0  0  0  0  0  0  0  0  0
   36.4181   32.1137   50.6146 H   0  0  0  0  0  0  0  0  0  0  0  0
   38.1364   33.8957   50.3316 H   0  0  0  0  0  0  0  0  0  0  0  0
   41.2912   30.6538   44.0187 H   0  0  0  0  0  0  0  0  0  0  0  0
   41.1755   33.3539   43.9973 H   0  0  0  0  0  0  0  0  0  0  0  0
   39.6604   34.0571   46.1212 H   0  0  0  0  0  0  0  0  0  0  0  0
   35.9325   29.2938   47.0004 H   0  0  0  0  0  0  0  0  0  0  0  0
   35.0708   30.8677   47.2408 H   0  0  0  0  0  0  0  0  0  0  0  0
   34.3733   28.3766   49.7213 H   0  0  0  0  0  0  0  0  0  0  0  0
   33.2913   29.7779   45.7989 H   0  0  0  0  0  0  0  0  0  0  0  0
   30.6319   27.3249   48.0362 H   0  0  0  0  0  0  0  0  0  0  0  0
  2  1  1  0
  2  3  2  0
  4  3  1  0
  5  4  2  0
  6  7  2  0
  6  5  1  0
  7  2  1  0
  8  6  1  0
  9  8  1  0
 10  9  2  0
 11 10  1  0
 11 12  2  0
 12  8  1  0
 13 15  1  0
 13  1  1  0
 14 19  2  0
 15 14  1  0
 16 17  1  0
 16 15  2  0
 17 18  2  0
 18 19  1  0
  1 20  1  0
  1 21  1  0
  3 22  1  0
  4 23  1  0
 10 24  1  0
 11 25  1  0
 12 26  1  0
 13 27  1  0
 13 28  1  0
 14 29  1  0
 16 30  1  0
 18 31  1  0
M  ISO  8  20   8  21   8  22  14  23  14  24  14  25  14  26  14  27   8
M  ISO  4  28   8  29  14  30  14  31  14
M  END
>  <minimizedAffinity>  (1) 
-5.84777975

>  <minimizedRMSD>  (1) 
3.98690915

$$$$
