
     RDKit          3D

 32 34  0  0  0  0  0  0  0  0999 V2000
   35.9930   30.5300   49.8650 C   0  0  0  0  0  0  0  0  0  0  0  0
   37.0520   31.4210   49.2740 C   0  0  0  0  0  0  0  0  0  0  0  0
   37.4430   32.5790   49.9050 C   0  0  0  0  0  0  0  0  0  0  0  0
   38.3950   33.4140   49.3560 C   0  0  0  0  0  0  0  0  0  0  0  0
   38.9300   33.0530   48.1730 N   0  0  0  0  0  0  0  0  0  0  0  0
   38.5590   31.9250   47.5440 C   0  0  0  0  0  0  0  0  0  0  0  0
   37.6280   31.1110   48.0840 N   0  0  0  0  0  0  0  0  0  0  0  0
   39.1310   31.5170   46.2560 C   0  0  0  0  0  0  0  0  0  0  0  0
   40.0580   32.3150   45.6120 C   0  0  0  0  0  0  0  0  0  0  0  0
   40.6340   31.9870   44.3970 C   0  0  0  0  0  0  0  0  0  0  0  0
   40.2350   30.8090   43.8490 N   0  0  0  0  0  0  0  0  0  0  0  0
   39.3380   30.0320   44.4660 C   0  0  0  0  0  0  0  0  0  0  0  0
   38.7790   30.3480   45.6430 N   0  0  0  0  0  0  0  0  0  0  0  0
   36.0640   29.2470   49.0820 C   0  0  0  0  0  0  0  0  0  0  0  0
   33.9040   28.0810   49.1030 C   0  0  0  0  0  0  0  0  0  0  0  0
   34.8120   28.9370   48.4690 C   0  0  0  0  0  0  0  0  0  0  0  0
   34.4450   29.4570   47.2500 C   0  0  0  0  0  0  0  0  0  0  0  0
   33.2380   29.1420   46.6950 N   0  0  0  0  0  0  0  0  0  0  0  0
   32.3820   28.3140   47.3280 C   0  0  0  0  0  0  0  0  0  0  0  0
   32.7240   27.7990   48.5150 N   0  0  0  0  0  0  0  0  0  0  0  0
   36.1983   30.3427   50.9293 H   0  0  0  0  0  0  0  0  0  0  0  0
   34.9949   30.9887   49.8070 H   0  0  0  0  0  0  0  0  0  0  0  0
   36.9864   32.8458   50.8695 H   0  0  0  0  0  0  0  0  0  0  0  0
   38.7052   34.3387   49.8646 H   0  0  0  0  0  0  0  0  0  0  0  0
   40.3534   33.2605   46.0904 H   0  0  0  0  0  0  0  0  0  0  0  0
   41.3699   32.6399   43.9049 H   0  0  0  0  0  0  0  0  0  0  0  0
   39.0446   29.0876   43.9843 H   0  0  0  0  0  0  0  0  0  0  0  0
   36.8298   29.3483   48.2989 H   0  0  0  0  0  0  0  0  0  0  0  0
   36.3187   28.4329   49.7765 H   0  0  0  0  0  0  0  0  0  0  0  0
   34.1527   27.6392   50.0792 H   0  0  0  0  0  0  0  0  0  0  0  0
   35.1301   30.1329   46.7172 H   0  0  0  0  0  0  0  0  0  0  0  0
   31.4121   28.0644   46.8730 H   0  0  0  0  0  0  0  0  0  0  0  0
  2  1  1  0
  2  3  2  0
  4  3  1  0
  5  4  2  0
  6  7  2  0
  6  5  1  0
  7  2  1  0
  8  6  1  0
  9  8  2  0
 10  9  1  0
 11 10  2  0
 11 12  1  0
 12 13  2  0
 13  8  1  0
 14  1  1  0
 16 14  1  0
 16 15  2  0
 17 16  1  0
 18 17  2  0
 18 19  1  0
 19 20  2  0
 20 15  1  0
  1 21  1  0
  1 22  1  0
  3 23  1  0
  4 24  1  0
  9 25  1  0
 10 26  1  0
 12 27  1  0
 14 28  1  0
 14 29  1  0
 15 30  1  0
 17 31  1  0
 19 32  1  0
M  ISO  8  21   8  22   8  23  14  24  14  25  14  26  14  27  14  28   8
M  ISO  4  29   8  30  14  31  14  32  14
M  END
>  <minimizedAffinity>  (1) 
-5.78685379

>  <minimizedRMSD>  (1) 
4.1075778

$$$$
