
     RDKit          3D

 37 39  0  0  0  0  0  0  0  0999 V2000
   38.6730   31.9850   46.1620 C   0  0  0  0  0  0  0  0  0  0  0  0
   39.9410   31.4760   46.0700 C   0  0  0  0  0  0  0  0  0  0  0  0
   40.6270   31.4310   44.8700 C   0  0  0  0  0  0  0  0  0  0  0  0
   39.9890   31.9160   43.7760 N   0  0  0  0  0  0  0  0  0  0  0  0
   38.7530   32.4150   43.8510 C   0  0  0  0  0  0  0  0  0  0  0  0
   38.0940   32.4530   45.0280 N   0  0  0  0  0  0  0  0  0  0  0  0
   36.7830   33.8960   40.3960 C   0  0  0  0  0  0  0  0  0  0  0  0
   36.0340   33.3550   41.4350 C   0  0  0  0  0  0  0  0  0  0  0  0
   36.7210   32.8910   42.5330 C   0  0  0  0  0  0  0  0  0  0  0  0
   38.0940   32.9290   42.6560 C   0  0  0  0  0  0  0  0  0  0  0  0
   38.8260   33.4660   41.6220 C   0  0  0  0  0  0  0  0  0  0  0  0
   38.1630   33.9410   40.5090 C   0  0  0  0  0  0  0  0  0  0  0  0
   35.9150   34.4930   38.9930 S   0  0  0  0  0  0  0  0  0  0  0  0
   34.5470   33.8880   38.9650 O   0  0  0  0  0  0  0  0  0  0  0  0
   36.6780   34.0290   37.7880 O   0  0  0  0  0  0  0  0  0  0  0  0
   37.9530   32.0380   47.4850 C   0  0  0  0  0  0  0  0  0  0  0  0
   38.6290   31.0090   48.3520 C   0  0  0  0  0  0  0  0  0  0  0  0
   37.9130   30.6260   50.6730 C   0  0  0  0  0  0  0  0  0  0  0  0
   37.7260   30.4360   49.3000 C   0  0  0  0  0  0  0  0  0  0  0  0
   36.6430   29.6850   48.9100 C   0  0  0  0  0  0  0  0  0  0  0  0
   35.7950   29.1570   49.8430 N   0  0  0  0  0  0  0  0  0  0  0  0
   35.9970   29.3560   51.1560 C   0  0  0  0  0  0  0  0  0  0  0  0
   37.0400   30.0800   51.5410 N   0  0  0  0  0  0  0  0  0  0  0  0
   40.4286   31.0914   46.9779 H   0  0  0  0  0  0  0  0  0  0  0  0
   41.6453   31.0199   44.8057 H   0  0  0  0  0  0  0  0  0  0  0  0
   34.9367   33.3002   41.3813 H   0  0  0  0  0  0  0  0  0  0  0  0
   36.1397   32.4637   43.3633 H   0  0  0  0  0  0  0  0  0  0  0  0
   39.9232   33.5159   41.6818 H   0  0  0  0  0  0  0  0  0  0  0  0
   38.7501   34.3699   39.6835 H   0  0  0  0  0  0  0  0  0  0  0  0
   35.7997   35.8578   39.0221 H   0  0  0  0  0  0  0  0  0  0  0  0
   38.0449   33.0385   47.9329 H   0  0  0  0  0  0  0  0  0  0  0  0
   36.8778   31.8347   47.3730 H   0  0  0  0  0  0  0  0  0  0  0  0
   39.0263   30.2087   47.7104 H   0  0  0  0  0  0  0  0  0  0  0  0
   39.4362   31.5083   48.9081 H   0  0  0  0  0  0  0  0  0  0  0  0
   38.7655   31.2161   51.0405 H   0  0  0  0  0  0  0  0  0  0  0  0
   36.4575   29.5077   47.8403 H   0  0  0  0  0  0  0  0  0  0  0  0
   35.3095   28.9261   51.8993 H   0  0  0  0  0  0  0  0  0  0  0  0
  1 16  1  0
  2  1  2  0
  3  2  1  0
  4  5  1  0
  4  3  2  0
  5  6  2  0
  6  1  1  0
  7 12  2  0
  7  8  1  0
  8  9  2  0
  9 10  1  0
 10  5  1  0
 11 10  2  0
 12 11  1  0
 13  7  1  0
 14 13  2  0
 15 13  2  0
 16 17  1  0
 17 19  1  0
 18 23  2  0
 19 18  1  0
 20 19  2  0
 20 21  1  0
 21 22  2  0
 22 23  1  0
  2 24  1  0
  3 25  1  0
  8 26  1  0
  9 27  1  0
 11 28  1  0
 12 29  1  0
 13 30  1  0
 16 31  1  0
 16 32  1  0
 17 33  1  0
 17 34  1  0
 18 35  1  0
 20 36  1  0
 22 37  1  0
M  ISO  8  24  14  25  14  26  14  27  14  28  14  29  14  30  11  31   8
M  ISO  6  32   8  33   8  34   8  35  14  36  14  37  14
M  END
>  <minimizedAffinity>  (1) 
-5.30497694

>  <minimizedRMSD>  (1) 
4.82345295

$$$$
