
     RDKit          3D

 30 32  0  0  0  0  0  0  0  0999 V2000
   37.8650   32.0320   47.2870 C   0  0  0  0  0  0  0  0  0  0  0  0
   38.6950   31.9810   46.0300 C   0  0  0  0  0  0  0  0  0  0  0  0
   39.9560   31.4650   46.0240 C   0  0  0  0  0  0  0  0  0  0  0  0
   40.7370   31.4250   44.8930 C   0  0  0  0  0  0  0  0  0  0  0  0
   40.1890   31.9300   43.7600 N   0  0  0  0  0  0  0  0  0  0  0  0
   38.9560   32.4410   43.7390 C   0  0  0  0  0  0  0  0  0  0  0  0
   38.2110   32.4670   44.8670 N   0  0  0  0  0  0  0  0  0  0  0  0
   38.3460   32.9970   42.5070 C   0  0  0  0  0  0  0  0  0  0  0  0
   36.9900   32.7920   42.5470 C   0  0  0  0  0  0  0  0  0  0  0  0
   36.4040   33.5070   41.0120 S   0  0  0  0  0  0  0  0  0  0  0  0
   38.1930   34.0070   40.5160 C   0  0  0  0  0  0  0  0  0  0  0  0
   38.8410   33.6060   41.4600 N   0  0  0  0  0  0  0  0  0  0  0  0
   38.6750   31.3240   48.3370 C   0  0  0  0  0  0  0  0  0  0  0  0
   38.0310   30.8390   50.6550 C   0  0  0  0  0  0  0  0  0  0  0  0
   37.8460   30.6510   49.2850 C   0  0  0  0  0  0  0  0  0  0  0  0
   36.8370   29.8030   48.8940 C   0  0  0  0  0  0  0  0  0  0  0  0
   36.0550   29.1790   49.8240 N   0  0  0  0  0  0  0  0  0  0  0  0
   36.2560   29.3790   51.1410 C   0  0  0  0  0  0  0  0  0  0  0  0
   37.2290   30.1960   51.5310 N   0  0  0  0  0  0  0  0  0  0  0  0
   36.9040   31.5194   47.1333 H   0  0  0  0  0  0  0  0  0  0  0  0
   37.6349   33.0669   47.5804 H   0  0  0  0  0  0  0  0  0  0  0  0
   40.3662   31.0639   46.9626 H   0  0  0  0  0  0  0  0  0  0  0  0
   41.7536   31.0051   44.9066 H   0  0  0  0  0  0  0  0  0  0  0  0
   36.4005   32.3031   43.3366 H   0  0  0  0  0  0  0  0  0  0  0  0
   38.5399   34.5239   39.6091 H   0  0  0  0  0  0  0  0  0  0  0  0
   39.3258   30.5854   47.8461 H   0  0  0  0  0  0  0  0  0  0  0  0
   39.2672   32.0778   48.8765 H   0  0  0  0  0  0  0  0  0  0  0  0
   38.8253   31.5070   51.0195 H   0  0  0  0  0  0  0  0  0  0  0  0
   36.6579   29.6255   47.8233 H   0  0  0  0  0  0  0  0  0  0  0  0
   35.6227   28.8725   51.8842 H   0  0  0  0  0  0  0  0  0  0  0  0
  1 13  1  0
  2  1  1  0
  3  2  2  0
  4  3  1  0
  5  4  2  0
  6  5  1  0
  6  7  2  0
  7  2  1  0
  8  9  2  0
  8  6  1  0
 10  9  1  0
 11 10  1  0
 11 12  2  0
 12  8  1  0
 13 15  1  0
 14 19  2  0
 15 14  1  0
 16 15  2  0
 16 17  1  0
 17 18  2  0
 18 19  1  0
  1 20  1  0
  1 21  1  0
  3 22  1  0
  4 23  1  0
  9 24  1  0
 11 25  1  0
 13 26  1  0
 13 27  1  0
 14 28  1  0
 16 29  1  0
 18 30  1  0
M  ISO  8  20   8  21   8  22  14  23  14  24  14  25  14  26   8  27   8
M  ISO  3  28  14  29  14  30  14
M  END
>  <minimizedAffinity>  (1) 
-5.28227186

>  <minimizedRMSD>  (1) 
3.12047839

$$$$
