
     RDKit          3D

 31 33  0  0  0  0  0  0  0  0999 V2000
   34.7420   30.3880   49.4110 C   0  0  0  0  0  0  0  0  0  0  0  0
   36.1790   30.8310   49.3380 C   0  0  0  0  0  0  0  0  0  0  0  0
   36.9830   30.7960   50.4430 C   0  0  0  0  0  0  0  0  0  0  0  0
   38.3040   31.2110   50.4090 C   0  0  0  0  0  0  0  0  0  0  0  0
   38.7720   31.6590   49.2180 N   0  0  0  0  0  0  0  0  0  0  0  0
   38.0000   31.6990   48.1290 C   0  0  0  0  0  0  0  0  0  0  0  0
   36.7160   31.2900   48.1820 N   0  0  0  0  0  0  0  0  0  0  0  0
   38.5400   32.1870   46.8650 C   0  0  0  0  0  0  0  0  0  0  0  0
   37.8040   31.9300   45.7190 C   0  0  0  0  0  0  0  0  0  0  0  0
   38.4940   32.4770   44.6320 C   0  0  0  0  0  0  0  0  0  0  0  0
   39.6300   33.0410   45.2190 C   0  0  0  0  0  0  0  0  0  0  0  0
   39.6210   32.8500   46.5300 O   0  0  0  0  0  0  0  0  0  0  0  0
   34.7760   28.8870   49.3160 C   0  0  0  0  0  0  0  0  0  0  0  0
   33.8670   27.0410   47.9760 C   0  0  0  0  0  0  0  0  0  0  0  0
   34.0740   28.4080   48.1710 C   0  0  0  0  0  0  0  0  0  0  0  0
   33.5640   29.2680   47.2240 C   0  0  0  0  0  0  0  0  0  0  0  0
   32.8850   28.7790   46.1440 N   0  0  0  0  0  0  0  0  0  0  0  0
   32.7000   27.4570   45.9800 C   0  0  0  0  0  0  0  0  0  0  0  0
   33.1880   26.6180   46.8880 N   0  0  0  0  0  0  0  0  0  0  0  0
   34.2912   30.7023   50.3639 H   0  0  0  0  0  0  0  0  0  0  0  0
   34.1375   30.8331   48.6069 H   0  0  0  0  0  0  0  0  0  0  0  0
   36.5667   30.4257   51.3914 H   0  0  0  0  0  0  0  0  0  0  0  0
   38.9421   31.1787   51.3044 H   0  0  0  0  0  0  0  0  0  0  0  0
   36.8462   31.3910   45.6725 H   0  0  0  0  0  0  0  0  0  0  0  0
   38.2103   32.4659   43.5693 H   0  0  0  0  0  0  0  0  0  0  0  0
   40.4219   33.5702   44.6687 H   0  0  0  0  0  0  0  0  0  0  0  0
   35.8240   28.5588   49.2530 H   0  0  0  0  0  0  0  0  0  0  0  0
   34.2843   28.4788   50.2113 H   0  0  0  0  0  0  0  0  0  0  0  0
   34.2546   26.3132   48.7040 H   0  0  0  0  0  0  0  0  0  0  0  0
   33.7039   30.3531   47.3376 H   0  0  0  0  0  0  0  0  0  0  0  0
   32.1521   27.0752   45.1059 H   0  0  0  0  0  0  0  0  0  0  0  0
  2  1  1  0
  2  3  2  0
  4  3  1  0
  5  4  2  0
  6  7  2  0
  6  5  1  0
  7  2  1  0
  8  6  1  0
  9  8  2  0
 10 11  2  0
 10  9  1  0
 11 12  1  0
 12  8  1  0
 13  1  1  0
 14 15  2  0
 15 13  1  0
 16 15  1  0
 17 16  2  0
 18 17  1  0
 18 19  2  0
 19 14  1  0
  1 20  1  0
  1 21  1  0
  3 22  1  0
  4 23  1  0
  9 24  1  0
 10 25  1  0
 11 26  1  0
 13 27  1  0
 13 28  1  0
 14 29  1  0
 16 30  1  0
 18 31  1  0
M  ISO  8  20   8  21   8  22  14  23  14  24  14  25  14  26  14  27   8
M  ISO  4  28   8  29  14  30  14  31  14
M  END
>  <minimizedAffinity>  (1) 
-5.18000937

>  <minimizedRMSD>  (1) 
4.531394

$$$$
