
     RDKit          3D

 27 28  0  0  0  0  0  0  0  0999 V2000
   34.2910   29.5000   49.7090 C   0  0  0  0  0  0  0  0  0  0  0  0
   35.6800   29.9320   50.0970 C   0  0  0  0  0  0  0  0  0  0  0  0
   36.2310   29.5730   51.3040 C   0  0  0  0  0  0  0  0  0  0  0  0
   37.4880   29.9840   51.6820 C   0  0  0  0  0  0  0  0  0  0  0  0
   38.1720   30.7660   50.8070 N   0  0  0  0  0  0  0  0  0  0  0  0
   37.6510   31.1230   49.6310 C   0  0  0  0  0  0  0  0  0  0  0  0
   36.4170   30.7150   49.2690 N   0  0  0  0  0  0  0  0  0  0  0  0
   38.4180   31.9640   48.7210 C   0  0  0  0  0  0  0  0  0  0  0  0
   38.3940   33.2100   48.8250 O   0  0  0  0  0  0  0  0  0  0  0  0
   39.1900   31.4120   47.7200 O   0  0  0  0  0  0  0  0  0  0  0  0
   34.4250   28.0620   49.2830 C   0  0  0  0  0  0  0  0  0  0  0  0
   33.8350   26.5840   47.4140 C   0  0  0  0  0  0  0  0  0  0  0  0
   34.0270   27.8700   47.9270 C   0  0  0  0  0  0  0  0  0  0  0  0
   33.8090   28.9290   47.0780 C   0  0  0  0  0  0  0  0  0  0  0  0
   33.4200   28.7150   45.7870 N   0  0  0  0  0  0  0  0  0  0  0  0
   33.2420   27.4630   45.3170 C   0  0  0  0  0  0  0  0  0  0  0  0
   33.4520   26.4160   46.1330 N   0  0  0  0  0  0  0  0  0  0  0  0
   33.6075   29.5854   50.5667 H   0  0  0  0  0  0  0  0  0  0  0  0
   33.8760   30.1278   48.9067 H   0  0  0  0  0  0  0  0  0  0  0  0
   35.6492   28.9379   51.9882 H   0  0  0  0  0  0  0  0  0  0  0  0
   37.9204   29.6922   52.6504 H   0  0  0  0  0  0  0  0  0  0  0  0
   39.2303   30.4288   47.6111 H   0  0  0  0  0  0  0  0  0  0  0  0
   35.4757   27.7551   49.3921 H   0  0  0  0  0  0  0  0  0  0  0  0
   33.7663   27.4545   49.9210 H   0  0  0  0  0  0  0  0  0  0  0  0
   33.9970   25.7068   48.0577 H   0  0  0  0  0  0  0  0  0  0  0  0
   33.9492   29.9575   47.4419 H   0  0  0  0  0  0  0  0  0  0  0  0
   32.9278   27.3006   44.2754 H   0  0  0  0  0  0  0  0  0  0  0  0
  1  2  1  0
  2  3  2  0
  3  4  1  0
  5  4  2  0
  6  5  1  0
  7  6  2  0
  7  2  1  0
  8  9  2  0
  8  6  1  0
 10  8  1  0
 11  1  1  0
 12 13  2  0
 13 11  1  0
 14 13  1  0
 15 14  2  0
 16 15  1  0
 16 17  2  0
 17 12  1  0
  1 18  1  0
  1 19  1  0
  3 20  1  0
  4 21  1  0
 10 22  1  0
 11 23  1  0
 11 24  1  0
 12 25  1  0
 14 26  1  0
 16 27  1  0
M  ISO  8  18   8  19   8  20  14  21  14  22   3  23   8  24   8  25  14
M  ISO  2  26  14  27  14
M  END
>  <minimizedAffinity>  (1) 
-5.00495911

>  <minimizedRMSD>  (1) 
5.384408

$$$$
