
     RDKit          3D

 38 41  0  0  0  0  0  0  0  0999 V2000
   35.6030   30.0550   46.9480 C   0  0  0  0  0  0  0  0  0  0  0  0
   35.2530   29.4940   48.1540 C   0  0  0  0  0  0  0  0  0  0  0  0
   34.0030   28.9440   48.3600 C   0  0  0  0  0  0  0  0  0  0  0  0
   33.1350   28.9800   47.3300 N   0  0  0  0  0  0  0  0  0  0  0  0
   33.4500   29.5190   46.1500 C   0  0  0  0  0  0  0  0  0  0  0  0
   34.6770   30.0520   45.9650 N   0  0  0  0  0  0  0  0  0  0  0  0
   32.4730   29.5160   45.1130 N   0  0  0  0  0  0  0  0  0  0  0  0
   31.5340   28.6220   44.7120 C   0  0  0  0  0  0  0  0  0  0  0  0
   30.8740   29.1430   43.6610 N   0  0  0  0  0  0  0  0  0  0  0  0
   31.3950   30.3700   43.3930 C   0  0  0  0  0  0  0  0  0  0  0  0
   31.0310   31.2780   42.3980 C   0  0  0  0  0  0  0  0  0  0  0  0
   30.1140   31.0350   41.5830 O   0  0  0  0  0  0  0  0  0  0  0  0
   31.6970   32.4520   42.3210 N   0  0  0  0  0  0  0  0  0  0  0  0
   32.6830   32.6550   43.2320 C   0  0  0  0  0  0  0  0  0  0  0  0
   33.4270   33.8680   43.2120 N   0  0  0  0  0  0  0  0  0  0  0  0
   33.0320   31.7840   44.1880 N   0  0  0  0  0  0  0  0  0  0  0  0
   32.4060   30.6150   44.3060 C   0  0  0  0  0  0  0  0  0  0  0  0
   36.9770   30.6330   46.7280 C   0  0  0  0  0  0  0  0  0  0  0  0
   37.6020   30.7190   48.0950 C   0  0  0  0  0  0  0  0  0  0  0  0
   39.1040   32.4520   47.2110 C   0  0  0  0  0  0  0  0  0  0  0  0
   38.3500   31.9240   48.2630 C   0  0  0  0  0  0  0  0  0  0  0  0
   38.3560   32.6150   49.4530 C   0  0  0  0  0  0  0  0  0  0  0  0
   39.0770   33.7710   49.5730 N   0  0  0  0  0  0  0  0  0  0  0  0
   39.7910   34.2560   48.5480 C   0  0  0  0  0  0  0  0  0  0  0  0
   39.7920   33.5940   47.3970 N   0  0  0  0  0  0  0  0  0  0  0  0
   35.9861   29.4831   48.9740 H   0  0  0  0  0  0  0  0  0  0  0  0
   33.7273   28.4949   49.3255 H   0  0  0  0  0  0  0  0  0  0  0  0
   31.3446   27.6391   45.1682 H   0  0  0  0  0  0  0  0  0  0  0  0
   31.4677   33.1576   41.6065 H   0  0  0  0  0  0  0  0  0  0  0  0
   34.1755   34.0245   43.9020 H   0  0  0  0  0  0  0  0  0  0  0  0
   33.2169   34.5894   42.5075 H   0  0  0  0  0  0  0  0  0  0  0  0
   37.5702   29.9760   46.0749 H   0  0  0  0  0  0  0  0  0  0  0  0
   36.9317   31.6167   46.2378 H   0  0  0  0  0  0  0  0  0  0  0  0
   36.8056   30.6860   48.8530 H   0  0  0  0  0  0  0  0  0  0  0  0
   38.2924   29.8702   48.2086 H   0  0  0  0  0  0  0  0  0  0  0  0
   39.1349   31.9383   46.2388 H   0  0  0  0  0  0  0  0  0  0  0  0
   37.7794   32.2366   50.3100 H   0  0  0  0  0  0  0  0  0  0  0  0
   40.3666   35.1869   48.6583 H   0  0  0  0  0  0  0  0  0  0  0  0
  1  2  2  0
  2  3  1  0
  4  3  2  0
  5  4  1  0
  6  5  2  0
  6  1  1  0
  7  5  1  0
  8  7  1  0
  9  8  2  0
 10  9  1  0
 10 17  2  0
 11 10  1  0
 12 11  2  0
 13 11  1  0
 13 14  1  0
 14 16  2  0
 15 14  1  0
 16 17  1  0
 17  7  1  0
 18  1  1  0
 18 19  1  0
 19 21  1  0
 20 25  2  0
 20 21  1  0
 21 22  2  0
 22 23  1  0
 24 23  2  0
 25 24  1  0
  2 26  1  0
  3 27  1  0
  8 28  1  0
 13 29  1  0
 15 30  1  0
 15 31  1  0
 18 32  1  0
 18 33  1  0
 19 34  1  0
 19 35  1  0
 20 36  1  0
 22 37  1  0
 24 38  1  0
M  ISO  8  26  14  27  14  28  14  29   9  32   8  33   8  34   8  35   8
M  ISO  3  36  14  37  14  38  14
M  END
>  <minimizedAffinity>  (1) 
-4.96338797

>  <minimizedRMSD>  (1) 
8.33686352

$$$$
