
     RDKit          3D

 33 35  0  0  0  0  0  0  0  0999 V2000
   36.1750   30.6290   48.1020 C   0  0  0  0  0  0  0  0  0  0  0  0
   37.4510   31.1100   47.4550 C   0  0  0  0  0  0  0  0  0  0  0  0
   38.1660   32.1580   47.9770 C   0  0  0  0  0  0  0  0  0  0  0  0
   39.3200   32.6160   47.3830 C   0  0  0  0  0  0  0  0  0  0  0  0
   39.7170   31.9820   46.2530 N   0  0  0  0  0  0  0  0  0  0  0  0
   39.0400   30.9590   45.7230 C   0  0  0  0  0  0  0  0  0  0  0  0
   37.9100   30.5230   46.3210 N   0  0  0  0  0  0  0  0  0  0  0  0
   39.4880   30.2910   44.5040 C   0  0  0  0  0  0  0  0  0  0  0  0
   40.5150   30.8920   43.7650 C   0  0  0  0  0  0  0  0  0  0  0  0
   40.9340   30.2390   42.6000 C   0  0  0  0  0  0  0  0  0  0  0  0
   40.3090   29.0550   42.2640 C   0  0  0  0  0  0  0  0  0  0  0  0
   39.2970   28.4640   42.9940 C   0  0  0  0  0  0  0  0  0  0  0  0
   38.9330   29.1330   44.1020 N   0  0  0  0  0  0  0  0  0  0  0  0
   35.3110   30.1370   46.9770 C   0  0  0  0  0  0  0  0  0  0  0  0
   34.0430   29.0340   48.7710 C   0  0  0  0  0  0  0  0  0  0  0  0
   34.3520   29.1760   47.4170 C   0  0  0  0  0  0  0  0  0  0  0  0
   33.6890   28.3570   46.5300 C   0  0  0  0  0  0  0  0  0  0  0  0
   32.7700   27.4500   46.9760 N   0  0  0  0  0  0  0  0  0  0  0  0
   32.4920   27.3350   48.2900 C   0  0  0  0  0  0  0  0  0  0  0  0
   33.1270   28.1210   49.1540 N   0  0  0  0  0  0  0  0  0  0  0  0
   36.3869   29.8128   48.8084 H   0  0  0  0  0  0  0  0  0  0  0  0
   35.6820   31.4295   48.6731 H   0  0  0  0  0  0  0  0  0  0  0  0
   37.8072   32.6456   48.8954 H   0  0  0  0  0  0  0  0  0  0  0  0
   39.8920   33.4555   47.8048 H   0  0  0  0  0  0  0  0  0  0  0  0
   40.9735   31.8386   44.0871 H   0  0  0  0  0  0  0  0  0  0  0  0
   41.7355   30.6559   41.9725 H   0  0  0  0  0  0  0  0  0  0  0  0
   40.6415   28.5451   41.3478 H   0  0  0  0  0  0  0  0  0  0  0  0
   38.8244   27.5177   42.6920 H   0  0  0  0  0  0  0  0  0  0  0  0
   35.9529   29.6735   46.2134 H   0  0  0  0  0  0  0  0  0  0  0  0
   34.7635   30.9992   46.5685 H   0  0  0  0  0  0  0  0  0  0  0  0
   34.5438   29.6633   49.5214 H   0  0  0  0  0  0  0  0  0  0  0  0
   33.9013   28.4339   45.4534 H   0  0  0  0  0  0  0  0  0  0  0  0
   31.7511   26.6021   48.6420 H   0  0  0  0  0  0  0  0  0  0  0  0
  2  3  2  0
  2  1  1  0
  4  3  1  0
  5  4  2  0
  6  5  1  0
  6  7  2  0
  7  2  1  0
  8  6  1  0
  9  8  2  0
 10  9  1  0
 11 10  2  0
 11 12  1  0
 12 13  2  0
 13  8  1  0
 14 16  1  0
 14  1  1  0
 15 20  2  0
 16 15  1  0
 17 18  1  0
 17 16  2  0
 18 19  2  0
 19 20  1  0
  1 21  1  0
  1 22  1  0
  3 23  1  0
  4 24  1  0
  9 25  1  0
 10 26  1  0
 11 27  1  0
 12 28  1  0
 14 29  1  0
 14 30  1  0
 15 31  1  0
 17 32  1  0
 19 33  1  0
M  ISO  8  21   8  22   8  23  14  24  14  25  14  26  14  27  14  28  14
M  ISO  5  29   8  30   8  31  14  32  14  33  14
M  END
>  <minimizedAffinity>  (1) 
-4.82210064

>  <minimizedRMSD>  (1) 
4.42811728

$$$$
