
     RDKit          3D

 36 37  0  0  0  0  0  0  0  0999 V2000
   37.6770   31.8560   47.6550 C   0  0  0  0  0  0  0  0  0  0  0  0
   37.5960   31.5150   46.1890 C   0  0  0  0  0  0  0  0  0  0  0  0
   36.6900   30.5950   45.7170 C   0  0  0  0  0  0  0  0  0  0  0  0
   36.6130   30.2590   44.3870 C   0  0  0  0  0  0  0  0  0  0  0  0
   37.4700   30.8750   43.5450 N   0  0  0  0  0  0  0  0  0  0  0  0
   38.3590   31.7740   43.9750 C   0  0  0  0  0  0  0  0  0  0  0  0
   38.4190   32.0890   45.2850 N   0  0  0  0  0  0  0  0  0  0  0  0
   39.3030   32.4540   43.0500 C   0  0  0  0  0  0  0  0  0  0  0  0
   40.2640   31.3930   42.5500 C   0  0  0  0  0  0  0  0  0  0  0  0
   38.6220   33.2140   41.9610 C   0  0  0  0  0  0  0  0  0  0  0  0
   40.1210   33.4770   43.8500 C   0  0  0  0  0  0  0  0  0  0  0  0
   38.2610   30.6340   48.3190 C   0  0  0  0  0  0  0  0  0  0  0  0
   37.7510   30.4230   50.7080 C   0  0  0  0  0  0  0  0  0  0  0  0
   37.4270   30.1600   49.3760 C   0  0  0  0  0  0  0  0  0  0  0  0
   36.2760   29.4450   49.1300 C   0  0  0  0  0  0  0  0  0  0  0  0
   35.4950   29.0210   50.1720 N   0  0  0  0  0  0  0  0  0  0  0  0
   35.8330   29.2880   51.4480 C   0  0  0  0  0  0  0  0  0  0  0  0
   36.9490   29.9810   51.6970 N   0  0  0  0  0  0  0  0  0  0  0  0
   36.6754   32.0703   48.0562 H   0  0  0  0  0  0  0  0  0  0  0  0
   38.2909   32.7512   47.8334 H   0  0  0  0  0  0  0  0  0  0  0  0
   36.0037   30.1117   46.4280 H   0  0  0  0  0  0  0  0  0  0  0  0
   35.8841   29.5196   44.0236 H   0  0  0  0  0  0  0  0  0  0  0  0
   40.7260   30.8830   43.4082 H   0  0  0  0  0  0  0  0  0  0  0  0
   39.7159   30.6602   41.9395 H   0  0  0  0  0  0  0  0  0  0  0  0
   41.0473   31.8661   41.9395 H   0  0  0  0  0  0  0  0  0  0  0  0
   37.9497   33.9643   42.4026 H   0  0  0  0  0  0  0  0  0  0  0  0
   39.3761   33.7183   41.3389 H   0  0  0  0  0  0  0  0  0  0  0  0
   38.0383   32.5196   41.3389 H   0  0  0  0  0  0  0  0  0  0  0  0
   39.9788   33.2992   44.9262 H   0  0  0  0  0  0  0  0  0  0  0  0
   41.1867   33.3716   43.5986 H   0  0  0  0  0  0  0  0  0  0  0  0
   39.7837   34.4934   43.5986 H   0  0  0  0  0  0  0  0  0  0  0  0
   38.3717   29.8382   47.5677 H   0  0  0  0  0  0  0  0  0  0  0  0
   39.2361   30.9087   48.7476 H   0  0  0  0  0  0  0  0  0  0  0  0
   38.6611   30.9912   50.9506 H   0  0  0  0  0  0  0  0  0  0  0  0
   35.9835   29.2141   48.0950 H   0  0  0  0  0  0  0  0  0  0  0  0
   35.1981   28.9399   52.2761 H   0  0  0  0  0  0  0  0  0  0  0  0
  1 12  1  0
  2  1  1  0
  3  2  2  0
  4  3  1  0
  5  6  1  0
  5  4  2  0
  6  7  2  0
  7  2  1  0
  8 11  1  0
  8  6  1  0
  9  8  1  0
 10  8  1  0
 12 14  1  0
 13 18  2  0
 14 13  1  0
 15 14  2  0
 15 16  1  0
 16 17  2  0
 17 18  1  0
  1 19  1  0
  1 20  1  0
  3 21  1  0
  4 22  1  0
  9 23  1  0
  9 24  1  0
  9 25  1  0
 10 26  1  0
 10 27  1  0
 10 28  1  0
 11 29  1  0
 11 30  1  0
 11 31  1  0
 12 32  1  0
 12 33  1  0
 13 34  1  0
 15 35  1  0
 17 36  1  0
M  ISO  8  19   8  20   8  21  14  22  14  23   8  24   8  25   8  26   8
M  ISO  8  27   8  28   8  29   8  30   8  31   8  32   8  33   8  34  14
M  ISO  2  35  14  36  14
M  END
>  <minimizedAffinity>  (1) 
-4.50946617

>  <minimizedRMSD>  (1) 
2.44380546

$$$$
