
     RDKit          3D

 23 24  0  0  0  0  0  0  0  0999 V2000
   37.3290   30.1880   51.4440 C   0  0  0  0  0  0  0  0  0  0  0  0
   38.0250   30.8900   50.4360 C   0  0  0  0  0  0  0  0  0  0  0  0
   37.6160   30.6740   49.1120 C   0  0  0  0  0  0  0  0  0  0  0  0
   36.5890   29.8160   48.8700 N   0  0  0  0  0  0  0  0  0  0  0  0
   35.9480   29.1640   49.8540 C   0  0  0  0  0  0  0  0  0  0  0  0
   36.3160   29.3470   51.1420 N   0  0  0  0  0  0  0  0  0  0  0  0
   38.3190   31.3840   48.1000 N   0  0  0  0  0  0  0  0  0  0  0  0
   38.6660   30.7710   46.9380 C   0  0  0  0  0  0  0  0  0  0  0  0
   39.3520   31.4760   45.9590 C   0  0  0  0  0  0  0  0  0  0  0  0
   39.7240   30.7800   44.6910 C   0  0  0  0  0  0  0  0  0  0  0  0
   39.6700   32.7860   46.1810 C   0  0  0  0  0  0  0  0  0  0  0  0
   40.2960   33.4370   45.2950 O   0  0  0  0  0  0  0  0  0  0  0  0
   39.3170   33.3910   47.3480 N   0  0  0  0  0  0  0  0  0  0  0  0
   38.6500   32.6770   48.2810 C   0  0  0  0  0  0  0  0  0  0  0  0
   38.3660   33.3110   49.3190 O   0  0  0  0  0  0  0  0  0  0  0  0
   37.6174   30.3287   52.4962 H   0  0  0  0  0  0  0  0  0  0  0  0
   38.8507   31.5753   50.6781 H   0  0  0  0  0  0  0  0  0  0  0  0
   35.1218   28.4796   49.6113 H   0  0  0  0  0  0  0  0  0  0  0  0
   38.4031   29.7157   46.7733 H   0  0  0  0  0  0  0  0  0  0  0  0
   40.2304   29.8326   44.9277 H   0  0  0  0  0  0  0  0  0  0  0  0
   38.8157   30.5740   44.1057 H   0  0  0  0  0  0  0  0  0  0  0  0
   40.3999   31.4208   44.1057 H   0  0  0  0  0  0  0  0  0  0  0  0
   39.5549   34.3787   47.5173 H   0  0  0  0  0  0  0  0  0  0  0  0
  2  1  2  0
  3  2  1  0
  4  3  2  0
  4  5  1  0
  5  6  2  0
  6  1  1  0
  7 14  1  0
  7  3  1  0
  8  7  1  0
  9 11  1  0
  9  8  2  0
 10  9  1  0
 11 13  1  0
 12 11  2  0
 13 14  1  0
 14 15  2  0
  1 16  1  0
  2 17  1  0
  5 18  1  0
  8 19  1  0
 10 20  1  0
 10 21  1  0
 10 22  1  0
 13 23  1  0
M  ISO  8  16  14  17  14  18  14  19  14  20   8  21   8  22   8  23   9
M  END
>  <minimizedAffinity>  (1) 
-6.29390764

>  <minimizedRMSD>  (1) 
0.595877707

$$$$
