
     RDKit          3D

 37 39  0  0  0  0  0  0  0  0999 V2000
   37.8270   32.8930   48.5760 C   0  0  0  0  0  0  0  0  0  0  0  0
   37.3800   31.5560   49.0990 C   0  0  0  0  0  0  0  0  0  0  0  0
   37.9890   30.9640   50.1660 C   0  0  0  0  0  0  0  0  0  0  0  0
   37.5820   29.7240   50.6200 C   0  0  0  0  0  0  0  0  0  0  0  0
   36.5590   29.1160   49.9690 N   0  0  0  0  0  0  0  0  0  0  0  0
   35.9680   29.6950   48.9320 C   0  0  0  0  0  0  0  0  0  0  0  0
   36.3460   30.9110   48.4640 N   0  0  0  0  0  0  0  0  0  0  0  0
   34.8330   29.0250   48.2230 C   0  0  0  0  0  0  0  0  0  0  0  0
   34.2940   27.8710   49.0620 C   0  0  0  0  0  0  0  0  0  0  0  0
   39.2790   32.7340   48.2600 C   0  0  0  0  0  0  0  0  0  0  0  0
   39.3370   31.0920   46.4450 C   0  0  0  0  0  0  0  0  0  0  0  0
   39.5200   32.3900   46.9020 C   0  0  0  0  0  0  0  0  0  0  0  0
   39.9270   33.3220   45.9930 C   0  0  0  0  0  0  0  0  0  0  0  0
   40.1410   32.9750   44.6810 N   0  0  0  0  0  0  0  0  0  0  0  0
   39.9590   31.7200   44.2650 C   0  0  0  0  0  0  0  0  0  0  0  0
   39.5640   30.8020   45.1360 N   0  0  0  0  0  0  0  0  0  0  0  0
   40.1570   31.2730   42.9300 N   0  0  0  0  0  0  0  0  0  0  0  0
   40.7820   30.1040   42.6640 C   0  0  0  0  0  0  0  0  0  0  0  0
   40.8210   29.9490   41.2930 C   0  0  0  0  0  0  0  0  0  0  0  0
   40.2210   31.0180   40.7270 N   0  0  0  0  0  0  0  0  0  0  0  0
   39.8200   31.8200   41.7300 C   0  0  0  0  0  0  0  0  0  0  0  0
   37.2634   33.1591   47.6696 H   0  0  0  0  0  0  0  0  0  0  0  0
   37.6546   33.6956   49.3082 H   0  0  0  0  0  0  0  0  0  0  0  0
   38.8168   31.4815   50.6729 H   0  0  0  0  0  0  0  0  0  0  0  0
   38.0715   29.2456   51.4811 H   0  0  0  0  0  0  0  0  0  0  0  0
   34.0292   29.7562   48.0523 H   0  0  0  0  0  0  0  0  0  0  0  0
   35.1936   28.6311   47.2614 H   0  0  0  0  0  0  0  0  0  0  0  0
   34.4059   28.1105   50.1298 H   0  0  0  0  0  0  0  0  0  0  0  0
   33.2299   27.7152   48.8307 H   0  0  0  0  0  0  0  0  0  0  0  0
   34.8575   26.9550   48.8307 H   0  0  0  0  0  0  0  0  0  0  0  0
   39.7904   33.6835   48.4766 H   0  0  0  0  0  0  0  0  0  0  0  0
   39.6611   31.9095   48.8798 H   0  0  0  0  0  0  0  0  0  0  0  0
   39.0102   30.3026   47.1378 H   0  0  0  0  0  0  0  0  0  0  0  0
   40.0855   34.3622   46.3137 H   0  0  0  0  0  0  0  0  0  0  0  0
   41.1871   29.4018   43.4075 H   0  0  0  0  0  0  0  0  0  0  0  0
   41.2651   29.0995   40.7535 H   0  0  0  0  0  0  0  0  0  0  0  0
   39.2960   32.7783   41.5993 H   0  0  0  0  0  0  0  0  0  0  0  0
  1  2  1  0
  2  3  2  0
  3  4  1  0
  5  4  2  0
  6  5  1  0
  7  6  2  0
  7  2  1  0
  8  6  1  0
  8  9  1  0
 10  1  1  0
 11 12  2  0
 12 10  1  0
 13 12  1  0
 14 13  2  0
 15 14  1  0
 15 16  2  0
 16 11  1  0
 17 15  1  0
 18 17  1  0
 19 18  2  0
 20 19  1  0
 20 21  2  0
 21 17  1  0
  1 22  1  0
  1 23  1  0
  3 24  1  0
  4 25  1  0
  8 26  1  0
  8 27  1  0
  9 28  1  0
  9 29  1  0
  9 30  1  0
 10 31  1  0
 10 32  1  0
 11 33  1  0
 13 34  1  0
 18 35  1  0
 19 36  1  0
 21 37  1  0
M  ISO  8  22   8  23   8  24  14  25  14  26   8  27   8  28   8  29   8
M  ISO  8  30   8  31   8  32   8  33  14  34  14  35  14  36  14  37  14
M  END
>  <minimizedAffinity>  (1) 
-5.80465937

>  <minimizedRMSD>  (1) 
8.02052498

$$$$
