
     RDKit          3D

 41 44  0  0  0  0  0  0  0  0999 V2000
   37.0940   30.8010   50.3270 C   0  0  0  0  0  0  0  0  0  0  0  0
   35.9110   28.6930   49.9980 C   0  0  0  0  0  0  0  0  0  0  0  0
   35.9650   30.0730   49.8750 C   0  0  0  0  0  0  0  0  0  0  0  0
   34.8870   30.6990   49.3260 C   0  0  0  0  0  0  0  0  0  0  0  0
   33.7860   29.9940   48.9090 N   0  0  0  0  0  0  0  0  0  0  0  0
   33.7540   28.6500   49.0380 C   0  0  0  0  0  0  0  0  0  0  0  0
   34.8080   28.0230   49.5750 N   0  0  0  0  0  0  0  0  0  0  0  0
   32.6480   27.8470   48.6300 N   0  0  0  0  0  0  0  0  0  0  0  0
   31.4650   27.8540   49.3030 C   0  0  0  0  0  0  0  0  0  0  0  0
   30.5670   27.0300   48.7480 N   0  0  0  0  0  0  0  0  0  0  0  0
   31.1820   26.4630   47.6780 C   0  0  0  0  0  0  0  0  0  0  0  0
   30.8640   25.5660   46.7050 C   0  0  0  0  0  0  0  0  0  0  0  0
   31.7380   25.2030   45.7490 N   0  0  0  0  0  0  0  0  0  0  0  0
   32.9970   25.7280   45.7160 C   0  0  0  0  0  0  0  0  0  0  0  0
   33.3540   26.6290   46.6730 N   0  0  0  0  0  0  0  0  0  0  0  0
   32.4640   26.9780   47.6180 C   0  0  0  0  0  0  0  0  0  0  0  0
   37.2490   32.1260   49.6490 C   0  0  0  0  0  0  0  0  0  0  0  0
   37.9950   31.8380   48.3740 C   0  0  0  0  0  0  0  0  0  0  0  0
   37.9180   30.6260   47.7540 C   0  0  0  0  0  0  0  0  0  0  0  0
   38.6250   30.3880   46.6000 C   0  0  0  0  0  0  0  0  0  0  0  0
   39.3930   31.3930   46.1030 N   0  0  0  0  0  0  0  0  0  0  0  0
   39.4690   32.5730   46.7020 C   0  0  0  0  0  0  0  0  0  0  0  0
   38.7850   32.8120   47.8270 N   0  0  0  0  0  0  0  0  0  0  0  0
   40.3160   33.6630   46.1430 C   0  0  0  0  0  0  0  0  0  0  0  0
   40.1240   33.7410   44.6180 C   0  0  0  0  0  0  0  0  0  0  0  0
   36.9903   30.9715   51.4088 H   0  0  0  0  0  0  0  0  0  0  0  0
   37.9863   30.2040   50.0874 H   0  0  0  0  0  0  0  0  0  0  0  0
   36.7573   28.1436   50.4360 H   0  0  0  0  0  0  0  0  0  0  0  0
   34.8993   31.7933   49.2145 H   0  0  0  0  0  0  0  0  0  0  0  0
   31.2696   28.4643   50.1971 H   0  0  0  0  0  0  0  0  0  0  0  0
   29.8574   25.1225   46.7002 H   0  0  0  0  0  0  0  0  0  0  0  0
   33.7091   25.4297   44.9325 H   0  0  0  0  0  0  0  0  0  0  0  0
   36.2639   32.5628   49.4282 H   0  0  0  0  0  0  0  0  0  0  0  0
   37.7846   32.8490   50.2818 H   0  0  0  0  0  0  0  0  0  0  0  0
   37.2856   29.8334   48.1805 H   0  0  0  0  0  0  0  0  0  0  0  0
   38.5709   29.4130   46.0936 H   0  0  0  0  0  0  0  0  0  0  0  0
   40.0248   34.6215   46.5974 H   0  0  0  0  0  0  0  0  0  0  0  0
   41.3725   33.4533   46.3662 H   0  0  0  0  0  0  0  0  0  0  0  0
   39.1262   34.1464   44.3943 H   0  0  0  0  0  0  0  0  0  0  0  0
   40.8923   34.3983   44.1848 H   0  0  0  0  0  0  0  0  0  0  0  0
   40.2163   32.7341   44.1848 H   0  0  0  0  0  0  0  0  0  0  0  0
  3  2  2  0
  3  1  1  0
  4  3  1  0
  5  6  1  0
  5  4  2  0
  6  7  2  0
  7  2  1  0
  8  6  1  0
  8  9  1  0
 10  9  2  0
 11 10  1  0
 12 11  2  0
 13 12  1  0
 14 13  2  0
 14 15  1  0
 15 16  2  0
 16 11  1  0
 16  8  1  0
 17  1  1  0
 18 17  1  0
 19 18  2  0
 20 19  1  0
 21 20  2  0
 21 22  1  0
 22 23  2  0
 23 18  1  0
 24 22  1  0
 25 24  1  0
  1 26  1  0
  1 27  1  0
  2 28  1  0
  4 29  1  0
  9 30  1  0
 12 31  1  0
 14 32  1  0
 17 33  1  0
 17 34  1  0
 19 35  1  0
 20 36  1  0
 24 37  1  0
 24 38  1  0
 25 39  1  0
 25 40  1  0
 25 41  1  0
M  ISO  8  26   8  27   8  28  14  29  14  30  14  31  14  32  14  33   8
M  ISO  8  34   8  35  14  36  14  37   8  38   8  39   8  40   8  41   8
M  END
>  <minimizedAffinity>  (1) 
-5.65711594

>  <minimizedRMSD>  (1) 
2.34360981

$$$$
