
     RDKit          3D

 46 49  0  0  0  0  0  0  0  0999 V2000
   37.6500   30.9610   49.6110 C   0  0  0  0  0  0  0  0  0  0  0  0
   36.3630   28.9170   50.0330 C   0  0  0  0  0  0  0  0  0  0  0  0
   36.4840   30.1720   49.4310 C   0  0  0  0  0  0  0  0  0  0  0  0
   35.4260   30.5840   48.6760 C   0  0  0  0  0  0  0  0  0  0  0  0
   34.3280   29.7750   48.5480 N   0  0  0  0  0  0  0  0  0  0  0  0
   34.2350   28.5910   49.1270 C   0  0  0  0  0  0  0  0  0  0  0  0
   35.2440   28.1870   49.8520 N   0  0  0  0  0  0  0  0  0  0  0  0
   32.9570   27.9410   48.8220 C   0  0  0  0  0  0  0  0  0  0  0  0
   31.7880   28.3040   49.4410 C   0  0  0  0  0  0  0  0  0  0  0  0
   30.5570   27.7380   49.2070 C   0  0  0  0  0  0  0  0  0  0  0  0
   30.4450   26.7230   48.2850 C   0  0  0  0  0  0  0  0  0  0  0  0
   31.5870   26.3180   47.6330 C   0  0  0  0  0  0  0  0  0  0  0  0
   31.4540   25.3000   46.7150 C   0  0  0  0  0  0  0  0  0  0  0  0
   32.5380   24.8260   46.0130 C   0  0  0  0  0  0  0  0  0  0  0  0
   33.7570   25.4320   46.2870 C   0  0  0  0  0  0  0  0  0  0  0  0
   33.8470   26.4400   47.2080 C   0  0  0  0  0  0  0  0  0  0  0  0
   32.7830   26.9260   47.9160 C   0  0  0  0  0  0  0  0  0  0  0  0
   37.6140   32.2120   48.7930 C   0  0  0  0  0  0  0  0  0  0  0  0
   38.3540   31.8770   47.5230 C   0  0  0  0  0  0  0  0  0  0  0  0
   38.4790   30.5960   47.0710 C   0  0  0  0  0  0  0  0  0  0  0  0
   39.1730   30.3090   45.9140 C   0  0  0  0  0  0  0  0  0  0  0  0
   39.7250   31.3410   45.2420 N   0  0  0  0  0  0  0  0  0  0  0  0
   39.6090   32.5980   45.6750 C   0  0  0  0  0  0  0  0  0  0  0  0
   38.9340   32.8890   46.8030 N   0  0  0  0  0  0  0  0  0  0  0  0
   40.2300   33.7480   44.9300 C   0  0  0  0  0  0  0  0  0  0  0  0
   39.8280   33.6960   43.4660 C   0  0  0  0  0  0  0  0  0  0  0  0
   37.7331   31.2340   50.6733 H   0  0  0  0  0  0  0  0  0  0  0  0
   38.5154   30.3665   49.2830 H   0  0  0  0  0  0  0  0  0  0  0  0
   37.1810   28.5244   50.6549 H   0  0  0  0  0  0  0  0  0  0  0  0
   35.4540   31.5614   48.1721 H   0  0  0  0  0  0  0  0  0  0  0  0
   31.8395   29.1131   50.1845 H   0  0  0  0  0  0  0  0  0  0  0  0
   29.6700   28.0934   49.7519 H   0  0  0  0  0  0  0  0  0  0  0  0
   29.4739   26.2505   48.0758 H   0  0  0  0  0  0  0  0  0  0  0  0
   30.4623   24.8576   46.5398 H   0  0  0  0  0  0  0  0  0  0  0  0
   32.4445   24.0138   45.2771 H   0  0  0  0  0  0  0  0  0  0  0  0
   34.6612   25.0977   45.7573 H   0  0  0  0  0  0  0  0  0  0  0  0
   34.8357   26.8866   47.3899 H   0  0  0  0  0  0  0  0  0  0  0  0
   36.5752   32.4971   48.5701 H   0  0  0  0  0  0  0  0  0  0  0  0
   38.0702   33.0617   49.3220 H   0  0  0  0  0  0  0  0  0  0  0  0
   38.0173   29.7758   47.6404 H   0  0  0  0  0  0  0  0  0  0  0  0
   39.2730   29.2752   45.5518 H   0  0  0  0  0  0  0  0  0  0  0  0
   39.8847   34.6956   45.3692 H   0  0  0  0  0  0  0  0  0  0  0  0
   41.3251   33.6787   45.0065 H   0  0  0  0  0  0  0  0  0  0  0  0
   38.7397   33.5552   43.3894 H   0  0  0  0  0  0  0  0  0  0  0  0
   40.1114   34.6383   42.9743 H   0  0  0  0  0  0  0  0  0  0  0  0
   40.3418   32.8568   42.9743 H   0  0  0  0  0  0  0  0  0  0  0  0
  3  1  1  0
  3  2  2  0
  4  3  1  0
  5  4  2  0
  5  6  1  0
  6  7  2  0
  7  2  1  0
  8  6  1  0
  8  9  2  0
 10  9  1  0
 11 10  2  0
 12 17  2  0
 12 11  1  0
 13 12  1  0
 14 15  1  0
 14 13  2  0
 15 16  2  0
 16 17  1  0
 17  8  1  0
 18  1  1  0
 19 18  1  0
 20 19  2  0
 21 20  1  0
 22 23  1  0
 22 21  2  0
 23 24  2  0
 24 19  1  0
 25 23  1  0
 26 25  1  0
  1 27  1  0
  1 28  1  0
  2 29  1  0
  4 30  1  0
  9 31  1  0
 10 32  1  0
 11 33  1  0
 13 34  1  0
 14 35  1  0
 15 36  1  0
 16 37  1  0
 18 38  1  0
 18 39  1  0
 20 40  1  0
 21 41  1  0
 25 42  1  0
 25 43  1  0
 26 44  1  0
 26 45  1  0
 26 46  1  0
M  ISO  8  27   8  28   8  29  14  30  14  31  14  32  14  33  14  34  14
M  ISO  8  35  14  36  14  37  14  38   8  39   8  40  14  41  14  42   8
M  ISO  4  43   8  44   8  45   8  46   8
M  END
>  <minimizedAffinity>  (1) 
-5.63944149

>  <minimizedRMSD>  (1) 
1.8258059

$$$$
