
     RDKit          3D

 41 43  0  0  0  0  0  0  0  0999 V2000
   37.2100   30.6370   50.3860 C   0  0  0  0  0  0  0  0  0  0  0  0
   36.0470   28.6200   49.6520 C   0  0  0  0  0  0  0  0  0  0  0  0
   36.0530   29.9870   49.8920 C   0  0  0  0  0  0  0  0  0  0  0  0
   34.9000   30.6720   49.6520 C   0  0  0  0  0  0  0  0  0  0  0  0
   33.7740   30.0400   49.1890 N   0  0  0  0  0  0  0  0  0  0  0  0
   33.7910   28.7100   48.9620 C   0  0  0  0  0  0  0  0  0  0  0  0
   34.9140   28.0240   49.1930 N   0  0  0  0  0  0  0  0  0  0  0  0
   32.6410   28.0180   48.4820 N   0  0  0  0  0  0  0  0  0  0  0  0
   31.5320   28.1190   49.2410 C   0  0  0  0  0  0  0  0  0  0  0  0
   30.4000   27.4460   48.7830 C   0  0  0  0  0  0  0  0  0  0  0  0
   30.4300   26.7160   47.6030 C   0  0  0  0  0  0  0  0  0  0  0  0
   29.2650   26.0310   47.1430 N   0  0  0  0  0  0  0  0  0  0  0  0
   31.5830   26.6590   46.8910 N   0  0  0  0  0  0  0  0  0  0  0  0
   32.6890   27.3130   47.3350 C   0  0  0  0  0  0  0  0  0  0  0  0
   33.7570   27.2600   46.6720 O   0  0  0  0  0  0  0  0  0  0  0  0
   37.4170   32.0000   49.8020 C   0  0  0  0  0  0  0  0  0  0  0  0
   38.0790   31.7720   48.4740 C   0  0  0  0  0  0  0  0  0  0  0  0
   37.9480   30.5930   47.8000 C   0  0  0  0  0  0  0  0  0  0  0  0
   38.5770   30.4070   46.5850 C   0  0  0  0  0  0  0  0  0  0  0  0
   39.3190   31.4180   46.0880 N   0  0  0  0  0  0  0  0  0  0  0  0
   39.4480   32.5670   46.7410 C   0  0  0  0  0  0  0  0  0  0  0  0
   38.8430   32.7560   47.9180 N   0  0  0  0  0  0  0  0  0  0  0  0
   40.2750   33.6810   46.1760 C   0  0  0  0  0  0  0  0  0  0  0  0
   40.1370   33.7350   44.6640 C   0  0  0  0  0  0  0  0  0  0  0  0
   37.1164   30.7352   51.4776 H   0  0  0  0  0  0  0  0  0  0  0  0
   38.0767   30.0237   50.0985 H   0  0  0  0  0  0  0  0  0  0  0  0
   36.9529   28.0225   49.8319 H   0  0  0  0  0  0  0  0  0  0  0  0
   34.8714   31.7565   49.8336 H   0  0  0  0  0  0  0  0  0  0  0  0
   31.5204   28.7022   50.1736 H   0  0  0  0  0  0  0  0  0  0  0  0
   29.4685   27.4944   49.3661 H   0  0  0  0  0  0  0  0  0  0  0  0
   29.2972   25.4918   46.2660 H   0  0  0  0  0  0  0  0  0  0  0  0
   28.3922   26.0760   47.6881 H   0  0  0  0  0  0  0  0  0  0  0  0
   36.4523   32.5111   49.6677 H   0  0  0  0  0  0  0  0  0  0  0  0
   38.0286   32.6363   50.4586 H   0  0  0  0  0  0  0  0  0  0  0  0
   37.3368   29.7846   48.2277 H   0  0  0  0  0  0  0  0  0  0  0  0
   38.4757   29.4589   46.0365 H   0  0  0  0  0  0  0  0  0  0  0  0
   39.9364   34.6359   46.6043 H   0  0  0  0  0  0  0  0  0  0  0  0
   41.3305   33.5034   46.4299 H   0  0  0  0  0  0  0  0  0  0  0  0
   39.1425   34.1241   44.4002 H   0  0  0  0  0  0  0  0  0  0  0  0
   40.9116   34.3964   44.2485 H   0  0  0  0  0  0  0  0  0  0  0  0
   40.2570   32.7236   44.2485 H   0  0  0  0  0  0  0  0  0  0  0  0
  2  3  2  0
  3  1  1  0
  4  3  1  0
  5  4  2  0
  6  5  1  0
  6  7  2  0
  7  2  1  0
  8  6  1  0
  8  9  1  0
 10  9  2  0
 11 10  1  0
 12 11  1  0
 13 14  1  0
 13 11  2  0
 14  8  1  0
 15 14  2  0
 16  1  1  0
 17 16  1  0
 18 17  2  0
 19 18  1  0
 20 19  2  0
 20 21  1  0
 21 22  2  0
 22 17  1  0
 23 21  1  0
 24 23  1  0
  1 25  1  0
  1 26  1  0
  2 27  1  0
  4 28  1  0
  9 29  1  0
 10 30  1  0
 12 31  1  0
 12 32  1  0
 16 33  1  0
 16 34  1  0
 18 35  1  0
 19 36  1  0
 23 37  1  0
 23 38  1  0
 24 39  1  0
 24 40  1  0
 24 41  1  0
M  ISO  8  25   8  26   8  27  14  28  14  29  14  30  14  33   8  34   8
M  ISO  7  35  14  36  14  37   8  38   8  39   8  40   8  41   8
M  END
>  <minimizedAffinity>  (1) 
-5.50440407

>  <minimizedRMSD>  (1) 
2.29314184

$$$$
