
     RDKit          3D

 43 45  0  0  0  0  0  0  0  0999 V2000
   38.0000   30.6820   48.0200 C   0  0  0  0  0  0  0  0  0  0  0  0
   36.1620   29.3930   48.9720 C   0  0  0  0  0  0  0  0  0  0  0  0
   36.6920   30.1410   47.9320 C   0  0  0  0  0  0  0  0  0  0  0  0
   35.9070   30.3530   46.8400 C   0  0  0  0  0  0  0  0  0  0  0  0
   34.6340   29.8450   46.7680 N   0  0  0  0  0  0  0  0  0  0  0  0
   34.1370   29.1180   47.7930 C   0  0  0  0  0  0  0  0  0  0  0  0
   34.8990   28.9040   48.8680 N   0  0  0  0  0  0  0  0  0  0  0  0
   30.1740   27.4990   47.6500 C   0  0  0  0  0  0  0  0  0  0  0  0
   30.9980   27.2860   48.7210 C   0  0  0  0  0  0  0  0  0  0  0  0
   32.2930   27.7950   48.8040 C   0  0  0  0  0  0  0  0  0  0  0  0
   32.7890   28.5560   47.7650 C   0  0  0  0  0  0  0  0  0  0  0  0
   31.9430   28.7640   46.6860 C   0  0  0  0  0  0  0  0  0  0  0  0
   30.6710   28.2640   46.6030 C   0  0  0  0  0  0  0  0  0  0  0  0
   28.5620   26.8260   47.6170 S   0  0  0  0  0  0  0  0  0  0  0  0
   27.7380   27.6810   46.6700 O   0  0  0  0  0  0  0  0  0  0  0  0
   27.9540   26.8780   49.0020 O   0  0  0  0  0  0  0  0  0  0  0  0
   38.0940   32.0850   47.5030 C   0  0  0  0  0  0  0  0  0  0  0  0
   38.8580   31.9800   46.2120 C   0  0  0  0  0  0  0  0  0  0  0  0
   40.1120   31.4480   46.1560 C   0  0  0  0  0  0  0  0  0  0  0  0
   40.7900   31.3800   44.9620 C   0  0  0  0  0  0  0  0  0  0  0  0
   40.1750   31.8530   43.8500 N   0  0  0  0  0  0  0  0  0  0  0  0
   38.9510   32.3700   43.9010 C   0  0  0  0  0  0  0  0  0  0  0  0
   38.2640   32.4500   45.0650 N   0  0  0  0  0  0  0  0  0  0  0  0
   38.2790   32.8860   42.6750 C   0  0  0  0  0  0  0  0  0  0  0  0
   39.0570   32.4500   41.4280 C   0  0  0  0  0  0  0  0  0  0  0  0
   38.3103   30.6767   49.0753 H   0  0  0  0  0  0  0  0  0  0  0  0
   38.6548   30.0582   47.3938 H   0  0  0  0  0  0  0  0  0  0  0  0
   36.7597   29.1970   49.8744 H   0  0  0  0  0  0  0  0  0  0  0  0
   36.3007   30.9429   45.9991 H   0  0  0  0  0  0  0  0  0  0  0  0
   30.6195   26.6825   49.5591 H   0  0  0  0  0  0  0  0  0  0  0  0
   32.9137   27.5921   49.6892 H   0  0  0  0  0  0  0  0  0  0  0  0
   32.3166   29.3674   45.8456 H   0  0  0  0  0  0  0  0  0  0  0  0
   30.0503   28.4659   45.7176 H   0  0  0  0  0  0  0  0  0  0  0  0
   28.5907   25.5200   47.2043 H   0  0  0  0  0  0  0  0  0  0  0  0
   37.0903   32.4982   47.3246 H   0  0  0  0  0  0  0  0  0  0  0  0
   38.5902   32.7549   48.2207 H   0  0  0  0  0  0  0  0  0  0  0  0
   40.5854   31.0699   47.0741 H   0  0  0  0  0  0  0  0  0  0  0  0
   41.8028   30.9539   44.9102 H   0  0  0  0  0  0  0  0  0  0  0  0
   37.2557   32.4856   42.6245 H   0  0  0  0  0  0  0  0  0  0  0  0
   38.2479   33.9848   42.7155 H   0  0  0  0  0  0  0  0  0  0  0  0
   39.9789   31.9333   41.7331 H   0  0  0  0  0  0  0  0  0  0  0  0
   38.4361   31.7684   40.8281 H   0  0  0  0  0  0  0  0  0  0  0  0
   39.3142   33.3354   40.8281 H   0  0  0  0  0  0  0  0  0  0  0  0
  3  1  1  0
  3  2  2  0
  4  3  1  0
  5  4  2  0
  5  6  1  0
  6  7  2  0
  7  2  1  0
  8  9  2  0
  9 10  1  0
 11  6  1  0
 11 10  2  0
 12 11  1  0
 13 12  2  0
 13  8  1  0
 14  8  1  0
 14 16  2  0
 15 14  2  0
 17  1  1  0
 18 17  1  0
 19 18  2  0
 20 19  1  0
 21 22  1  0
 21 20  2  0
 22 23  2  0
 23 18  1  0
 24 22  1  0
 25 24  1  0
  1 26  1  0
  1 27  1  0
  2 28  1  0
  4 29  1  0
  9 30  1  0
 10 31  1  0
 12 32  1  0
 13 33  1  0
 14 34  1  0
 17 35  1  0
 17 36  1  0
 19 37  1  0
 20 38  1  0
 24 39  1  0
 24 40  1  0
 25 41  1  0
 25 42  1  0
 25 43  1  0
M  ISO  8  26   8  27   8  28  14  29  14  30  14  31  14  32  14  33  14
M  ISO  8  34  11  35   8  36   8  37  14  38  14  39   8  40   8  41   8
M  ISO  2  42   8  43   8
M  END
>  <minimizedAffinity>  (1) 
-5.47833061

>  <minimizedRMSD>  (1) 
2.96475434

$$$$
