
     RDKit          3D

 43 45  0  0  0  0  0  0  0  0999 V2000
   38.8250   31.3840   48.1680 C   0  0  0  0  0  0  0  0  0  0  0  0
   37.3530   29.7290   49.2110 C   0  0  0  0  0  0  0  0  0  0  0  0
   37.6030   30.6700   48.2030 C   0  0  0  0  0  0  0  0  0  0  0  0
   36.6190   30.8740   47.2840 C   0  0  0  0  0  0  0  0  0  0  0  0
   35.4380   30.1820   47.3540 N   0  0  0  0  0  0  0  0  0  0  0  0
   35.2140   29.2910   48.3160 C   0  0  0  0  0  0  0  0  0  0  0  0
   36.1630   29.0790   49.2210 N   0  0  0  0  0  0  0  0  0  0  0  0
   33.9930   28.5620   48.4050 N   0  0  0  0  0  0  0  0  0  0  0  0
   33.8250   27.6940   47.3830 C   0  0  0  0  0  0  0  0  0  0  0  0
   32.6840   26.9180   47.3360 C   0  0  0  0  0  0  0  0  0  0  0  0
   32.3920   25.9310   46.2600 C   0  0  0  0  0  0  0  0  0  0  0  0
   31.7680   27.0740   48.3510 C   0  0  0  0  0  0  0  0  0  0  0  0
   30.7240   26.3820   48.3330 O   0  0  0  0  0  0  0  0  0  0  0  0
   31.9840   27.9520   49.3460 N   0  0  0  0  0  0  0  0  0  0  0  0
   33.1030   28.7220   49.4020 C   0  0  0  0  0  0  0  0  0  0  0  0
   33.3490   29.5570   50.3120 O   0  0  0  0  0  0  0  0  0  0  0  0
   38.7390   32.6350   47.3540 C   0  0  0  0  0  0  0  0  0  0  0  0
   39.2950   32.2720   46.0020 C   0  0  0  0  0  0  0  0  0  0  0  0
   40.4110   31.4980   45.8690 C   0  0  0  0  0  0  0  0  0  0  0  0
   40.9010   31.1940   44.6160 C   0  0  0  0  0  0  0  0  0  0  0  0
   40.2480   31.6810   43.5340 N   0  0  0  0  0  0  0  0  0  0  0  0
   39.1580   32.4350   43.6690 C   0  0  0  0  0  0  0  0  0  0  0  0
   38.6560   32.7490   44.8830 N   0  0  0  0  0  0  0  0  0  0  0  0
   38.4400   32.9680   42.4750 C   0  0  0  0  0  0  0  0  0  0  0  0
   37.9660   31.8030   41.5910 C   0  0  0  0  0  0  0  0  0  0  0  0
   39.1054   31.6524   49.1972 H   0  0  0  0  0  0  0  0  0  0  0  0
   39.5770   30.7329   47.6983 H   0  0  0  0  0  0  0  0  0  0  0  0
   38.1099   29.5211   49.9816 H   0  0  0  0  0  0  0  0  0  0  0  0
   36.7739   31.6034   46.4753 H   0  0  0  0  0  0  0  0  0  0  0  0
   34.5893   27.6066   46.5967 H   0  0  0  0  0  0  0  0  0  0  0  0
   32.1075   24.9693   46.7119 H   0  0  0  0  0  0  0  0  0  0  0  0
   31.5652   26.3021   45.6366 H   0  0  0  0  0  0  0  0  0  0  0  0
   33.2876   25.7925   45.6366 H   0  0  0  0  0  0  0  0  0  0  0  0
   31.2783   28.0443   50.0905 H   0  0  0  0  0  0  0  0  0  0  0  0
   37.6934   32.9645   47.2642 H   0  0  0  0  0  0  0  0  0  0  0  0
   39.2964   33.4629   47.8165 H   0  0  0  0  0  0  0  0  0  0  0  0
   40.9219   31.1150   46.7647 H   0  0  0  0  0  0  0  0  0  0  0  0
   41.8001   30.5713   44.4984 H   0  0  0  0  0  0  0  0  0  0  0  0
   37.5696   33.5548   42.8038 H   0  0  0  0  0  0  0  0  0  0  0  0
   39.1216   33.6093   41.8969 H   0  0  0  0  0  0  0  0  0  0  0  0
   37.6282   30.9728   42.2286 H   0  0  0  0  0  0  0  0  0  0  0  0
   37.1334   32.1398   40.9559 H   0  0  0  0  0  0  0  0  0  0  0  0
   38.7972   31.4628   40.9559 H   0  0  0  0  0  0  0  0  0  0  0  0
  1  3  1  0
  2  7  2  0
  3  2  1  0
  4  5  1  0
  4  3  2  0
  5  6  2  0
  6  8  1  0
  6  7  1  0
  8 15  1  0
  9  8  1  0
 10  9  2  0
 10 12  1  0
 11 10  1  0
 12 14  1  0
 13 12  2  0
 14 15  1  0
 15 16  2  0
 17  1  1  0
 18 17  1  0
 19 18  2  0
 20 19  1  0
 21 22  1  0
 21 20  2  0
 22 23  2  0
 23 18  1  0
 24 22  1  0
 25 24  1  0
  1 26  1  0
  1 27  1  0
  2 28  1  0
  4 29  1  0
  9 30  1  0
 11 31  1  0
 11 32  1  0
 11 33  1  0
 14 34  1  0
 17 35  1  0
 17 36  1  0
 19 37  1  0
 20 38  1  0
 24 39  1  0
 24 40  1  0
 25 41  1  0
 25 42  1  0
 25 43  1  0
M  ISO  8  26   8  27   8  28  14  29  14  30  14  31   8  32   8  33   8
M  ISO  8  34   9  35   8  36   8  37  14  38  14  39   8  40   8  41   8
M  ISO  2  42   8  43   8
M  END
>  <minimizedAffinity>  (1) 
-5.47716236

>  <minimizedRMSD>  (1) 
2.51392436

$$$$
