
     RDKit          3D

 38 40  0  0  0  0  0  0  0  0999 V2000
   37.5140   32.2170   49.5030 C   0  0  0  0  0  0  0  0  0  0  0  0
   38.1810   31.8840   48.1960 C   0  0  0  0  0  0  0  0  0  0  0  0
   38.0410   30.6640   47.6030 C   0  0  0  0  0  0  0  0  0  0  0  0
   38.6820   30.3960   46.4130 C   0  0  0  0  0  0  0  0  0  0  0  0
   39.4440   31.3660   45.8580 N   0  0  0  0  0  0  0  0  0  0  0  0
   39.5820   32.5610   46.4360 C   0  0  0  0  0  0  0  0  0  0  0  0
   38.9640   32.8380   47.5940 N   0  0  0  0  0  0  0  0  0  0  0  0
   40.4240   33.6180   45.8130 C   0  0  0  0  0  0  0  0  0  0  0  0
   40.0880   33.7510   44.3240 C   0  0  0  0  0  0  0  0  0  0  0  0
   37.3880   30.9140   50.2280 C   0  0  0  0  0  0  0  0  0  0  0  0
   36.2410   28.7930   49.8070 C   0  0  0  0  0  0  0  0  0  0  0  0
   36.2310   30.1800   49.8710 C   0  0  0  0  0  0  0  0  0  0  0  0
   35.0540   30.8040   49.5890 C   0  0  0  0  0  0  0  0  0  0  0  0
   33.9260   30.0940   49.2580 N   0  0  0  0  0  0  0  0  0  0  0  0
   33.9700   28.7480   49.2070 C   0  0  0  0  0  0  0  0  0  0  0  0
   35.1080   28.1280   49.4770 N   0  0  0  0  0  0  0  0  0  0  0  0
   32.7950   27.9550   48.8600 C   0  0  0  0  0  0  0  0  0  0  0  0
   32.9000   26.9310   47.9300 C   0  0  0  0  0  0  0  0  0  0  0  0
   31.8470   26.1080   47.5210 C   0  0  0  0  0  0  0  0  0  0  0  0
   30.6710   26.3940   48.1210 N   0  0  0  0  0  0  0  0  0  0  0  0
   30.5370   27.3750   49.0210 C   0  0  0  0  0  0  0  0  0  0  0  0
   31.5740   28.1550   49.3970 N   0  0  0  0  0  0  0  0  0  0  0  0
   36.5214   32.6573   49.3273 H   0  0  0  0  0  0  0  0  0  0  0  0
   38.0919   32.9528   50.0814 H   0  0  0  0  0  0  0  0  0  0  0  0
   37.4153   29.8925   48.0754 H   0  0  0  0  0  0  0  0  0  0  0  0
   38.5764   29.4156   45.9255 H   0  0  0  0  0  0  0  0  0  0  0  0
   40.2338   34.5777   46.3158 H   0  0  0  0  0  0  0  0  0  0  0  0
   41.4837   33.3426   45.9192 H   0  0  0  0  0  0  0  0  0  0  0  0
   39.0705   34.1538   44.2123 H   0  0  0  0  0  0  0  0  0  0  0  0
   40.8067   34.4325   43.8454 H   0  0  0  0  0  0  0  0  0  0  0  0
   40.1456   32.7623   43.8454 H   0  0  0  0  0  0  0  0  0  0  0  0
   38.2730   30.3017   50.0005 H   0  0  0  0  0  0  0  0  0  0  0  0
   37.3066   31.1462   51.3001 H   0  0  0  0  0  0  0  0  0  0  0  0
   37.1650   28.2367   50.0233 H   0  0  0  0  0  0  0  0  0  0  0  0
   35.0056   31.9023   49.6272 H   0  0  0  0  0  0  0  0  0  0  0  0
   33.8878   26.7531   47.4799 H   0  0  0  0  0  0  0  0  0  0  0  0
   31.9648   25.3033   46.7804 H   0  0  0  0  0  0  0  0  0  0  0  0
   29.5487   27.5525   49.4701 H   0  0  0  0  0  0  0  0  0  0  0  0
  1 10  1  0
  2  1  1  0
  3  2  2  0
  4  3  1  0
  5  4  2  0
  5  6  1  0
  6  7  2  0
  7  2  1  0
  8  6  1  0
  9  8  1  0
 11 12  2  0
 12 10  1  0
 13 12  1  0
 14 13  2  0
 15 14  1  0
 15 16  2  0
 16 11  1  0
 17 15  1  0
 17 22  1  0
 18 17  2  0
 19 18  1  0
 19 20  2  0
 20 21  1  0
 21 22  2  0
  1 23  1  0
  1 24  1  0
  3 25  1  0
  4 26  1  0
  8 27  1  0
  8 28  1  0
  9 29  1  0
  9 30  1  0
  9 31  1  0
 10 32  1  0
 10 33  1  0
 11 34  1  0
 13 35  1  0
 18 36  1  0
 19 37  1  0
 21 38  1  0
M  ISO  8  23   8  24   8  25  14  26  14  27   8  28   8  29   8  30   8
M  ISO  8  31   8  32   8  33   8  34  14  35  14  36  14  37  14  38  14
M  END
>  <minimizedAffinity>  (1) 
-5.38180828

>  <minimizedRMSD>  (1) 
1.74499583

$$$$
