
     RDKit          3D

 36 38  0  0  0  0  0  0  0  0999 V2000
   38.0930   32.6140   48.0560 C   0  0  0  0  0  0  0  0  0  0  0  0
   37.5450   31.3840   48.7370 C   0  0  0  0  0  0  0  0  0  0  0  0
   38.1120   30.8720   49.8670 C   0  0  0  0  0  0  0  0  0  0  0  0
   37.5920   29.7420   50.4530 C   0  0  0  0  0  0  0  0  0  0  0  0
   36.5120   29.1610   49.8820 N   0  0  0  0  0  0  0  0  0  0  0  0
   35.9610   29.6600   48.7840 C   0  0  0  0  0  0  0  0  0  0  0  0
   36.4520   30.7580   48.1990 N   0  0  0  0  0  0  0  0  0  0  0  0
   34.7630   29.0030   48.1640 C   0  0  0  0  0  0  0  0  0  0  0  0
   34.2680   27.8620   49.0370 C   0  0  0  0  0  0  0  0  0  0  0  0
   39.4180   32.1950   47.5000 C   0  0  0  0  0  0  0  0  0  0  0  0
   40.5800   31.7410   45.4040 C   0  0  0  0  0  0  0  0  0  0  0  0
   39.4390   32.1400   46.0840 C   0  0  0  0  0  0  0  0  0  0  0  0
   38.3390   32.4540   45.3440 C   0  0  0  0  0  0  0  0  0  0  0  0
   38.3550   32.3780   43.9750 N   0  0  0  0  0  0  0  0  0  0  0  0
   39.4750   31.9870   43.3330 C   0  0  0  0  0  0  0  0  0  0  0  0
   40.5550   31.6790   44.0460 N   0  0  0  0  0  0  0  0  0  0  0  0
   39.5320   31.8930   41.8780 C   0  0  0  0  0  0  0  0  0  0  0  0
   40.3590   30.8940   41.1630 C   0  0  0  0  0  0  0  0  0  0  0  0
   40.0250   31.2620   39.4540 S   0  0  0  0  0  0  0  0  0  0  0  0
   38.8320   32.6940   39.9180 C   0  0  0  0  0  0  0  0  0  0  0  0
   38.8310   32.7180   41.1110 N   0  0  0  0  0  0  0  0  0  0  0  0
   37.4210   32.9398   47.2484 H   0  0  0  0  0  0  0  0  0  0  0  0
   38.1873   33.4618   48.7505 H   0  0  0  0  0  0  0  0  0  0  0  0
   38.9891   31.3652   50.3114 H   0  0  0  0  0  0  0  0  0  0  0  0
   38.0431   29.3209   51.3636 H   0  0  0  0  0  0  0  0  0  0  0  0
   33.9604   29.7468   48.0515 H   0  0  0  0  0  0  0  0  0  0  0  0
   35.0482   28.5999   47.1811 H   0  0  0  0  0  0  0  0  0  0  0  0
   34.3857   28.1333   50.0965 H   0  0  0  0  0  0  0  0  0  0  0  0
   33.2060   27.6708   48.8232 H   0  0  0  0  0  0  0  0  0  0  0  0
   34.8539   26.9559   48.8232 H   0  0  0  0  0  0  0  0  0  0  0  0
   40.1800   32.9151   47.8329 H   0  0  0  0  0  0  0  0  0  0  0  0
   39.6197   31.1785   47.8688 H   0  0  0  0  0  0  0  0  0  0  0  0
   41.4940   31.4779   45.9566 H   0  0  0  0  0  0  0  0  0  0  0  0
   37.4194   32.7750   45.8551 H   0  0  0  0  0  0  0  0  0  0  0  0
   41.0158   30.1181   41.5833 H   0  0  0  0  0  0  0  0  0  0  0  0
   38.2723   33.3486   39.2338 H   0  0  0  0  0  0  0  0  0  0  0  0
  1  2  1  0
  2  3  2  0
  3  4  1  0
  5  4  2  0
  6  5  1  0
  7  2  1  0
  7  6  2  0
  8  6  1  0
  8  9  1  0
 10  1  1  0
 11 12  2  0
 12 10  1  0
 13 12  1  0
 14 13  2  0
 15 14  1  0
 15 16  2  0
 16 11  1  0
 17 15  1  0
 18 17  2  0
 19 20  1  0
 19 18  1  0
 20 21  2  0
 21 17  1  0
  1 22  1  0
  1 23  1  0
  3 24  1  0
  4 25  1  0
  8 26  1  0
  8 27  1  0
  9 28  1  0
  9 29  1  0
  9 30  1  0
 10 31  1  0
 10 32  1  0
 11 33  1  0
 13 34  1  0
 18 35  1  0
 20 36  1  0
M  ISO  8  22   8  23   8  24  14  25  14  26   8  27   8  28   8  29   8
M  ISO  7  30   8  31   8  32   8  33  14  34  14  35  14  36  14
M  END
>  <minimizedAffinity>  (1) 
-5.36745453

>  <minimizedRMSD>  (1) 
8.41096401

$$$$
