
     RDKit          3D

 37 39  0  0  0  0  0  0  0  0999 V2000
   38.0500   32.5730   47.9770 C   0  0  0  0  0  0  0  0  0  0  0  0
   37.4910   31.3490   48.6440 C   0  0  0  0  0  0  0  0  0  0  0  0
   38.0690   30.8160   49.7590 C   0  0  0  0  0  0  0  0  0  0  0  0
   37.5650   29.6800   50.3500 C   0  0  0  0  0  0  0  0  0  0  0  0
   36.4700   29.1030   49.7870 N   0  0  0  0  0  0  0  0  0  0  0  0
   35.9020   29.6150   48.7040 C   0  0  0  0  0  0  0  0  0  0  0  0
   36.3960   30.7180   48.1360 N   0  0  0  0  0  0  0  0  0  0  0  0
   34.6990   28.9870   48.0940 C   0  0  0  0  0  0  0  0  0  0  0  0
   34.1680   27.8790   49.0170 C   0  0  0  0  0  0  0  0  0  0  0  0
   39.4150   32.1930   47.5150 C   0  0  0  0  0  0  0  0  0  0  0  0
   40.5730   31.3650   45.5170 C   0  0  0  0  0  0  0  0  0  0  0  0
   39.4990   32.0570   46.1060 C   0  0  0  0  0  0  0  0  0  0  0  0
   38.5530   32.5610   45.2670 C   0  0  0  0  0  0  0  0  0  0  0  0
   38.6560   32.3900   43.9140 N   0  0  0  0  0  0  0  0  0  0  0  0
   39.6990   31.7200   43.3800 C   0  0  0  0  0  0  0  0  0  0  0  0
   40.6230   31.2280   44.1810 N   0  0  0  0  0  0  0  0  0  0  0  0
   39.8410   31.5190   41.9400 C   0  0  0  0  0  0  0  0  0  0  0  0
   39.1800   32.1300   40.8960 C   0  0  0  0  0  0  0  0  0  0  0  0
   39.6350   31.6310   39.6930 C   0  0  0  0  0  0  0  0  0  0  0  0
   40.5540   30.7340   40.0410 N   0  0  0  0  0  0  0  0  0  0  0  0
   40.6930   30.6520   41.3450 N   0  0  0  0  0  0  0  0  0  0  0  0
   37.4227   32.8638   47.1215 H   0  0  0  0  0  0  0  0  0  0  0  0
   38.0783   33.4321   48.6634 H   0  0  0  0  0  0  0  0  0  0  0  0
   38.9542   31.3033   50.1936 H   0  0  0  0  0  0  0  0  0  0  0  0
   38.0329   29.2525   51.2490 H   0  0  0  0  0  0  0  0  0  0  0  0
   33.9196   29.7504   47.9535 H   0  0  0  0  0  0  0  0  0  0  0  0
   34.9696   28.5515   47.1208 H   0  0  0  0  0  0  0  0  0  0  0  0
   34.3105   28.1764   50.0664 H   0  0  0  0  0  0  0  0  0  0  0  0
   33.0968   27.7219   48.8226 H   0  0  0  0  0  0  0  0  0  0  0  0
   34.7166   26.9456   48.8226 H   0  0  0  0  0  0  0  0  0  0  0  0
   40.1240   32.9702   47.8362 H   0  0  0  0  0  0  0  0  0  0  0  0
   39.6546   31.2149   47.9575 H   0  0  0  0  0  0  0  0  0  0  0  0
   41.3676   30.9383   46.1467 H   0  0  0  0  0  0  0  0  0  0  0  0
   37.6961   33.1120   45.6819 H   0  0  0  0  0  0  0  0  0  0  0  0
   38.4040   32.9018   41.0059 H   0  0  0  0  0  0  0  0  0  0  0  0
   39.3122   31.9104   38.6792 H   0  0  0  0  0  0  0  0  0  0  0  0
   41.0927   30.1705   39.3678 H   0  0  0  0  0  0  0  0  0  0  0  0
  1  2  1  0
  2  3  2  0
  3  4  1  0
  5  4  2  0
  6  5  1  0
  7  2  1  0
  7  6  2  0
  8  6  1  0
  8  9  1  0
 10  1  1  0
 11 12  2  0
 12 10  1  0
 13 12  1  0
 14 13  2  0
 15 14  1  0
 15 16  2  0
 16 11  1  0
 17 15  1  0
 18 17  1  0
 19 20  1  0
 19 18  2  0
 20 21  1  0
 21 17  2  0
  1 22  1  0
  1 23  1  0
  3 24  1  0
  4 25  1  0
  8 26  1  0
  8 27  1  0
  9 28  1  0
  9 29  1  0
  9 30  1  0
 10 31  1  0
 10 32  1  0
 11 33  1  0
 13 34  1  0
 18 35  1  0
 19 36  1  0
 20 37  1  0
M  ISO  8  22   8  23   8  24  14  25  14  26   8  27   8  28   8  29   8
M  ISO  8  30   8  31   8  32   8  33  14  34  14  35  14  36  14  37   9
M  END
>  <minimizedAffinity>  (1) 
-5.36277628

>  <minimizedRMSD>  (1) 
8.39749432

$$$$
