
     RDKit          3D

 45 47  0  0  0  0  0  0  0  0999 V2000
   37.2360   32.0970   49.6510 C   0  0  0  0  0  0  0  0  0  0  0  0
   37.9810   31.8230   48.3730 C   0  0  0  0  0  0  0  0  0  0  0  0
   37.9000   30.6160   47.7410 C   0  0  0  0  0  0  0  0  0  0  0  0
   38.6050   30.3890   46.5790 C   0  0  0  0  0  0  0  0  0  0  0  0
   39.3750   31.3960   46.0920 N   0  0  0  0  0  0  0  0  0  0  0  0
   39.4540   32.5690   46.7030 C   0  0  0  0  0  0  0  0  0  0  0  0
   38.7720   32.7950   47.8300 N   0  0  0  0  0  0  0  0  0  0  0  0
   40.3000   33.6660   46.1600 C   0  0  0  0  0  0  0  0  0  0  0  0
   40.1310   33.7430   44.6330 C   0  0  0  0  0  0  0  0  0  0  0  0
   37.0970   30.7700   50.3250 C   0  0  0  0  0  0  0  0  0  0  0  0
   35.9670   28.6540   49.8680 C   0  0  0  0  0  0  0  0  0  0  0  0
   35.9610   30.0420   49.8940 C   0  0  0  0  0  0  0  0  0  0  0  0
   34.8130   30.6690   49.5100 C   0  0  0  0  0  0  0  0  0  0  0  0
   33.7100   29.9560   49.1140 N   0  0  0  0  0  0  0  0  0  0  0  0
   33.7420   28.6070   49.0970 C   0  0  0  0  0  0  0  0  0  0  0  0
   34.8490   27.9930   49.4670 N   0  0  0  0  0  0  0  0  0  0  0  0
   32.5960   27.8600   48.6870 N   0  0  0  0  0  0  0  0  0  0  0  0
   32.6360   26.9560   47.5540 C   0  0  0  0  0  0  0  0  0  0  0  0
   31.6260   27.4340   46.5250 C   0  0  0  0  0  0  0  0  0  0  0  0
   30.3590   27.9240   47.1620 C   0  0  0  0  0  0  0  0  0  0  0  0
   30.2210   27.4390   48.5750 C   0  0  0  0  0  0  0  0  0  0  0  0
   31.3540   27.9990   49.4080 C   0  0  0  0  0  0  0  0  0  0  0  0
   36.2455   32.5238   49.4346 H   0  0  0  0  0  0  0  0  0  0  0  0
   37.7664   32.8229   50.2848 H   0  0  0  0  0  0  0  0  0  0  0  0
   37.2683   29.8198   48.1617 H   0  0  0  0  0  0  0  0  0  0  0  0
   38.5458   29.4204   46.0610 H   0  0  0  0  0  0  0  0  0  0  0  0
   39.9934   34.6215   46.6105 H   0  0  0  0  0  0  0  0  0  0  0  0
   41.3546   33.4661   46.4004 H   0  0  0  0  0  0  0  0  0  0  0  0
   39.1539   34.1882   44.3942 H   0  0  0  0  0  0  0  0  0  0  0  0
   40.9315   34.3652   44.2064 H   0  0  0  0  0  0  0  0  0  0  0  0
   40.1868   32.7306   44.2064 H   0  0  0  0  0  0  0  0  0  0  0  0
   37.9962   30.1735   50.1116 H   0  0  0  0  0  0  0  0  0  0  0  0
   36.9740   30.9611   51.4013 H   0  0  0  0  0  0  0  0  0  0  0  0
   36.8659   28.0957   50.1684 H   0  0  0  0  0  0  0  0  0  0  0  0
   34.7703   31.7681   49.5179 H   0  0  0  0  0  0  0  0  0  0  0  0
   33.6440   26.9564   47.1136 H   0  0  0  0  0  0  0  0  0  0  0  0
   32.3920   25.9332   47.8771 H   0  0  0  0  0  0  0  0  0  0  0  0
   31.3841   26.5989   45.8511 H   0  0  0  0  0  0  0  0  0  0  0  0
   32.0751   28.2741   45.9749 H   0  0  0  0  0  0  0  0  0  0  0  0
   30.3630   29.0240   47.1621 H   0  0  0  0  0  0  0  0  0  0  0  0
   29.5110   27.5313   46.5818 H   0  0  0  0  0  0  0  0  0  0  0  0
   29.2592   27.7776   48.9876 H   0  0  0  0  0  0  0  0  0  0  0  0
   30.2582   26.3398   48.5930 H   0  0  0  0  0  0  0  0  0  0  0  0
   31.4178   27.4478   50.3578 H   0  0  0  0  0  0  0  0  0  0  0  0
   31.1666   29.0633   49.6133 H   0  0  0  0  0  0  0  0  0  0  0  0
  1 10  1  0
  2  1  1  0
  3  2  2  0
  4  3  1  0
  5  4  2  0
  5  6  1  0
  6  7  2  0
  7  2  1  0
  8  6  1  0
  9  8  1  0
 11 12  2  0
 12 10  1  0
 13 12  1  0
 14 13  2  0
 15 14  1  0
 15 16  2  0
 16 11  1  0
 17 15  1  0
 17 22  1  0
 18 17  1  0
 19 20  1  0
 19 18  1  0
 20 21  1  0
 21 22  1  0
  1 23  1  0
  1 24  1  0
  3 25  1  0
  4 26  1  0
  8 27  1  0
  8 28  1  0
  9 29  1  0
  9 30  1  0
  9 31  1  0
 10 32  1  0
 10 33  1  0
 11 34  1  0
 13 35  1  0
 18 36  1  0
 18 37  1  0
 19 38  1  0
 19 39  1  0
 20 40  1  0
 20 41  1  0
 21 42  1  0
 21 43  1  0
 22 44  1  0
 22 45  1  0
M  ISO  8  23   8  24   8  25  14  26  14  27   8  28   8  29   8  30   8
M  ISO  8  31   8  32   8  33   8  34  14  35  14  36  13  37  13  38  13
M  ISO  7  39  13  40  13  41  13  42  13  43  13  44  13  45  13
M  END
>  <minimizedAffinity>  (1) 
-5.36094761

>  <minimizedRMSD>  (1) 
1.82780111

$$$$
