
     RDKit          3D

 37 39  0  0  0  0  0  0  0  0999 V2000
   37.5100   32.2170   49.5240 C   0  0  0  0  0  0  0  0  0  0  0  0
   38.1760   31.9000   48.2140 C   0  0  0  0  0  0  0  0  0  0  0  0
   38.0430   30.6820   47.6140 C   0  0  0  0  0  0  0  0  0  0  0  0
   38.6840   30.3940   46.4250 C   0  0  0  0  0  0  0  0  0  0  0  0
   39.4530   31.3720   45.8740 N   0  0  0  0  0  0  0  0  0  0  0  0
   39.5830   32.5580   46.4560 C   0  0  0  0  0  0  0  0  0  0  0  0
   38.9630   32.8580   47.6210 N   0  0  0  0  0  0  0  0  0  0  0  0
   40.4160   33.6260   45.8380 C   0  0  0  0  0  0  0  0  0  0  0  0
   40.0880   33.7510   44.3450 C   0  0  0  0  0  0  0  0  0  0  0  0
   37.3710   30.9040   50.2260 C   0  0  0  0  0  0  0  0  0  0  0  0
   36.2300   28.7910   49.7530 C   0  0  0  0  0  0  0  0  0  0  0  0
   36.2060   30.1800   49.8340 C   0  0  0  0  0  0  0  0  0  0  0  0
   35.0380   30.8190   49.5430 C   0  0  0  0  0  0  0  0  0  0  0  0
   33.9180   30.1210   49.1820 N   0  0  0  0  0  0  0  0  0  0  0  0
   33.9610   28.7740   49.1090 C   0  0  0  0  0  0  0  0  0  0  0  0
   35.0920   28.1440   49.3890 N   0  0  0  0  0  0  0  0  0  0  0  0
   32.8420   27.9060   48.7390 C   0  0  0  0  0  0  0  0  0  0  0  0
   31.5360   27.8520   49.1140 C   0  0  0  0  0  0  0  0  0  0  0  0
   30.7010   26.9310   48.6070 C   0  0  0  0  0  0  0  0  0  0  0  0
   31.2700   26.0200   47.6560 C   0  0  0  0  0  0  0  0  0  0  0  0
   33.0670   26.6230   47.5850 S   0  0  0  0  0  0  0  0  0  0  0  0
   36.5217   32.6692   49.3540 H   0  0  0  0  0  0  0  0  0  0  0  0
   38.0932   32.9379   50.1158 H   0  0  0  0  0  0  0  0  0  0  0  0
   37.4128   29.9142   48.0865 H   0  0  0  0  0  0  0  0  0  0  0  0
   38.5769   29.4116   45.9419 H   0  0  0  0  0  0  0  0  0  0  0  0
   40.2091   34.5839   46.3376 H   0  0  0  0  0  0  0  0  0  0  0  0
   41.4787   33.3663   45.9531 H   0  0  0  0  0  0  0  0  0  0  0  0
   39.0662   34.1404   44.2254 H   0  0  0  0  0  0  0  0  0  0  0  0
   40.8011   34.4404   43.8694 H   0  0  0  0  0  0  0  0  0  0  0  0
   40.1614   32.7619   43.8694 H   0  0  0  0  0  0  0  0  0  0  0  0
   38.2563   30.2912   50.0007 H   0  0  0  0  0  0  0  0  0  0  0  0
   37.2791   31.1154   51.3016 H   0  0  0  0  0  0  0  0  0  0  0  0
   37.1489   28.2299   49.9784 H   0  0  0  0  0  0  0  0  0  0  0  0
   34.9949   31.9167   49.5994 H   0  0  0  0  0  0  0  0  0  0  0  0
   31.1558   28.5779   49.8479 H   0  0  0  0  0  0  0  0  0  0  0  0
   29.6430   26.8781   48.9033 H   0  0  0  0  0  0  0  0  0  0  0  0
   30.7914   25.1920   47.1125 H   0  0  0  0  0  0  0  0  0  0  0  0
  1 10  1  0
  2  1  1  0
  3  2  2  0
  4  3  1  0
  5  4  2  0
  5  6  1  0
  6  7  2  0
  7  2  1  0
  8  6  1  0
  9  8  1  0
 11 12  2  0
 12 10  1  0
 13 12  1  0
 14 13  2  0
 15 14  1  0
 15 16  2  0
 16 11  1  0
 17 15  1  0
 17 18  2  0
 19 18  1  0
 20 19  2  0
 21 20  1  0
 21 17  1  0
  1 22  1  0
  1 23  1  0
  3 24  1  0
  4 25  1  0
  8 26  1  0
  8 27  1  0
  9 28  1  0
  9 29  1  0
  9 30  1  0
 10 31  1  0
 10 32  1  0
 11 33  1  0
 13 34  1  0
 18 35  1  0
 19 36  1  0
 20 37  1  0
M  ISO  8  22   8  23   8  24  14  25  14  26   8  27   8  28   8  29   8
M  ISO  8  30   8  31   8  32   8  33  14  34  14  35  14  36  14  37  14
M  END
>  <minimizedAffinity>  (1) 
-5.33087301

>  <minimizedRMSD>  (1) 
1.76674283

$$$$
