
     RDKit          3D

 32 33  0  0  0  0  0  0  0  0999 V2000
   38.4000   32.3280   49.2540 C   0  0  0  0  0  0  0  0  0  0  0  0
   38.7260   31.9660   47.8330 C   0  0  0  0  0  0  0  0  0  0  0  0
   38.5090   30.7140   47.3340 C   0  0  0  0  0  0  0  0  0  0  0  0
   38.8470   30.4200   46.0330 C   0  0  0  0  0  0  0  0  0  0  0  0
   39.3940   31.3940   45.2710 N   0  0  0  0  0  0  0  0  0  0  0  0
   39.6040   32.6100   45.7530 C   0  0  0  0  0  0  0  0  0  0  0  0
   39.2840   32.9250   47.0210 N   0  0  0  0  0  0  0  0  0  0  0  0
   40.2070   33.6840   44.9040 C   0  0  0  0  0  0  0  0  0  0  0  0
   39.7960   33.4760   43.4360 C   0  0  0  0  0  0  0  0  0  0  0  0
   38.2740   31.0320   49.9810 C   0  0  0  0  0  0  0  0  0  0  0  0
   36.6020   29.5440   50.9920 C   0  0  0  0  0  0  0  0  0  0  0  0
   36.9330   30.6030   50.1450 C   0  0  0  0  0  0  0  0  0  0  0  0
   35.9080   31.2200   49.4900 C   0  0  0  0  0  0  0  0  0  0  0  0
   34.6080   30.8070   49.6670 N   0  0  0  0  0  0  0  0  0  0  0  0
   34.3170   29.7940   50.4810 C   0  0  0  0  0  0  0  0  0  0  0  0
   35.3100   29.1760   51.1310 N   0  0  0  0  0  0  0  0  0  0  0  0
   32.9650   29.3640   50.6640 N   0  0  0  0  0  0  0  0  0  0  0  0
   37.4539   32.8873   49.3001 H   0  0  0  0  0  0  0  0  0  0  0  0
   39.1756   32.9693   49.6981 H   0  0  0  0  0  0  0  0  0  0  0  0
   38.0628   29.9382   47.9736 H   0  0  0  0  0  0  0  0  0  0  0  0
   38.6759   29.4143   45.6216 H   0  0  0  0  0  0  0  0  0  0  0  0
   39.8500   34.6659   45.2481 H   0  0  0  0  0  0  0  0  0  0  0  0
   41.3031   33.6405   44.9853 H   0  0  0  0  0  0  0  0  0  0  0  0
   38.8152   32.9796   43.3967 H   0  0  0  0  0  0  0  0  0  0  0  0
   39.7339   34.4512   42.9309 H   0  0  0  0  0  0  0  0  0  0  0  0
   40.5451   32.8485   42.9309 H   0  0  0  0  0  0  0  0  0  0  0  0
   38.8193   30.2616   49.4161 H   0  0  0  0  0  0  0  0  0  0  0  0
   38.6901   31.1844   50.9878 H   0  0  0  0  0  0  0  0  0  0  0  0
   37.3903   29.0113   51.5441 H   0  0  0  0  0  0  0  0  0  0  0  0
   36.1237   32.0586   48.8116 H   0  0  0  0  0  0  0  0  0  0  0  0
   32.7555   28.5789   51.2970 H   0  0  0  0  0  0  0  0  0  0  0  0
   32.2010   29.8395   50.1628 H   0  0  0  0  0  0  0  0  0  0  0  0
  1 10  1  0
  2  1  1  0
  3  2  2  0
  4  3  1  0
  5  6  1  0
  5  4  2  0
  6  7  2  0
  7  2  1  0
  8  6  1  0
  9  8  1  0
 10 12  1  0
 11 16  2  0
 12 11  1  0
 13 14  1  0
 13 12  2  0
 14 15  2  0
 15 17  1  0
 15 16  1  0
  1 18  1  0
  1 19  1  0
  3 20  1  0
  4 21  1  0
  8 22  1  0
  8 23  1  0
  9 24  1  0
  9 25  1  0
  9 26  1  0
 10 27  1  0
 10 28  1  0
 11 29  1  0
 13 30  1  0
 17 31  1  0
 17 32  1  0
M  ISO  8  18   8  19   8  20  14  21  14  22   8  23   8  24   8  25   8
M  ISO  5  26   8  27   8  28   8  29  14  30  14
M  END
>  <minimizedAffinity>  (1) 
-5.24953508

>  <minimizedRMSD>  (1) 
0.162805066

$$$$
