
     RDKit          3D

 31 32  0  0  0  0  0  0  0  0999 V2000
   38.3740   32.2080   49.1790 C   0  0  0  0  0  0  0  0  0  0  0  0
   38.7060   31.8850   47.7480 C   0  0  0  0  0  0  0  0  0  0  0  0
   38.4870   30.6480   47.2170 C   0  0  0  0  0  0  0  0  0  0  0  0
   38.8190   30.3770   45.9080 C   0  0  0  0  0  0  0  0  0  0  0  0
   39.3660   31.3740   45.1670 N   0  0  0  0  0  0  0  0  0  0  0  0
   39.5800   32.5800   45.6740 C   0  0  0  0  0  0  0  0  0  0  0  0
   39.2600   32.8410   46.9460 N   0  0  0  0  0  0  0  0  0  0  0  0
   40.1770   33.6720   44.8630 C   0  0  0  0  0  0  0  0  0  0  0  0
   39.7790   33.5030   43.3910 C   0  0  0  0  0  0  0  0  0  0  0  0
   38.2280   30.8890   49.8630 C   0  0  0  0  0  0  0  0  0  0  0  0
   36.5350   29.5240   50.9930 C   0  0  0  0  0  0  0  0  0  0  0  0
   36.8740   30.5250   50.0720 C   0  0  0  0  0  0  0  0  0  0  0  0
   35.8500   31.1320   49.4100 C   0  0  0  0  0  0  0  0  0  0  0  0
   34.5470   30.7730   49.6440 N   0  0  0  0  0  0  0  0  0  0  0  0
   34.2440   29.8190   50.5250 C   0  0  0  0  0  0  0  0  0  0  0  0
   35.2250   29.2150   51.1790 N   0  0  0  0  0  0  0  0  0  0  0  0
   32.9260   29.4430   50.7720 O   0  0  0  0  0  0  0  0  0  0  0  0
   37.4342   32.7768   49.2365 H   0  0  0  0  0  0  0  0  0  0  0  0
   39.1528   32.8268   49.6486 H   0  0  0  0  0  0  0  0  0  0  0  0
   38.0408   29.8590   47.8402 H   0  0  0  0  0  0  0  0  0  0  0  0
   38.6457   29.3806   45.4753 H   0  0  0  0  0  0  0  0  0  0  0  0
   39.8115   34.6420   45.2311 H   0  0  0  0  0  0  0  0  0  0  0  0
   41.2728   33.6317   44.9500 H   0  0  0  0  0  0  0  0  0  0  0  0
   38.7680   33.0737   43.3315 H   0  0  0  0  0  0  0  0  0  0  0  0
   39.7908   34.4838   42.8930 H   0  0  0  0  0  0  0  0  0  0  0  0
   40.4929   32.8304   42.8930 H   0  0  0  0  0  0  0  0  0  0  0  0
   38.7078   30.1169   49.2435 H   0  0  0  0  0  0  0  0  0  0  0  0
   38.7042   30.9740   50.8509 H   0  0  0  0  0  0  0  0  0  0  0  0
   37.3182   28.9963   51.5570 H   0  0  0  0  0  0  0  0  0  0  0  0
   36.0712   31.9217   48.6769 H   0  0  0  0  0  0  0  0  0  0  0  0
   32.7296   28.7314   51.4316 H   0  0  0  0  0  0  0  0  0  0  0  0
  1 10  1  0
  2  1  1  0
  3  2  2  0
  4  3  1  0
  5  6  1  0
  5  4  2  0
  6  7  2  0
  7  2  1  0
  8  6  1  0
  9  8  1  0
 10 12  1  0
 11 16  2  0
 12 11  1  0
 13 14  1  0
 13 12  2  0
 14 15  2  0
 15 17  1  0
 15 16  1  0
  1 18  1  0
  1 19  1  0
  3 20  1  0
  4 21  1  0
  8 22  1  0
  8 23  1  0
  9 24  1  0
  9 25  1  0
  9 26  1  0
 10 27  1  0
 10 28  1  0
 11 29  1  0
 13 30  1  0
 17 31  1  0
M  ISO  8  18   8  19   8  20  14  21  14  22   8  23   8  24   8  25   8
M  ISO  6  26   8  27   8  28   8  29  14  30  14  31   3
M  END
>  <minimizedAffinity>  (1) 
-5.24756241

>  <minimizedRMSD>  (1) 
0.225603998

$$$$
