
     RDKit          3D

 43 45  0  0  0  0  0  0  0  0999 V2000
   37.0450   31.9660   49.4790 C   0  0  0  0  0  0  0  0  0  0  0  0
   37.8800   31.7210   48.2530 C   0  0  0  0  0  0  0  0  0  0  0  0
   37.8970   30.5130   47.6200 C   0  0  0  0  0  0  0  0  0  0  0  0
   38.6850   30.3180   46.5080 C   0  0  0  0  0  0  0  0  0  0  0  0
   39.4330   31.3490   46.0660 N   0  0  0  0  0  0  0  0  0  0  0  0
   39.4200   32.5440   46.6850 C   0  0  0  0  0  0  0  0  0  0  0  0
   38.6520   32.7520   47.7780 N   0  0  0  0  0  0  0  0  0  0  0  0
   40.2500   33.6690   46.1810 C   0  0  0  0  0  0  0  0  0  0  0  0
   40.1630   33.7700   44.6680 C   0  0  0  0  0  0  0  0  0  0  0  0
   36.8730   30.6200   50.1140 C   0  0  0  0  0  0  0  0  0  0  0  0
   35.6460   28.5300   49.8050 C   0  0  0  0  0  0  0  0  0  0  0  0
   35.7730   29.8950   49.5930 C   0  0  0  0  0  0  0  0  0  0  0  0
   34.7880   30.5120   48.8800 C   0  0  0  0  0  0  0  0  0  0  0  0
   33.7140   29.8140   48.3930 N   0  0  0  0  0  0  0  0  0  0  0  0
   33.6120   28.4860   48.6130 C   0  0  0  0  0  0  0  0  0  0  0  0
   34.5620   27.8820   49.3010 N   0  0  0  0  0  0  0  0  0  0  0  0
   32.4910   27.7520   48.1060 N   0  0  0  0  0  0  0  0  0  0  0  0
   31.2840   27.5890   48.8930 C   0  0  0  0  0  0  0  0  0  0  0  0
   30.1700   28.2310   48.0600 C   0  0  0  0  0  0  0  0  0  0  0  0
   30.5580   28.5120   46.7690 O   0  0  0  0  0  0  0  0  0  0  0  0
   31.2100   27.4470   46.1390 C   0  0  0  0  0  0  0  0  0  0  0  0
   32.5690   27.1650   46.7880 C   0  0  0  0  0  0  0  0  0  0  0  0
   36.0682   32.3892   49.2019 H   0  0  0  0  0  0  0  0  0  0  0  0
   37.5203   32.6848   50.1626 H   0  0  0  0  0  0  0  0  0  0  0  0
   37.2765   29.6884   48.0008 H   0  0  0  0  0  0  0  0  0  0  0  0
   38.7038   29.3460   45.9934 H   0  0  0  0  0  0  0  0  0  0  0  0
   39.8915   34.6089   46.6261 H   0  0  0  0  0  0  0  0  0  0  0  0
   41.2978   33.4866   46.4618 H   0  0  0  0  0  0  0  0  0  0  0  0
   39.4678   34.5771   44.3938 H   0  0  0  0  0  0  0  0  0  0  0  0
   41.1596   33.9892   44.2572 H   0  0  0  0  0  0  0  0  0  0  0  0
   39.7986   32.8168   44.2572 H   0  0  0  0  0  0  0  0  0  0  0  0
   37.7890   30.0344   49.9463 H   0  0  0  0  0  0  0  0  0  0  0  0
   36.6791   30.7851   51.1841 H   0  0  0  0  0  0  0  0  0  0  0  0
   36.4110   27.9798   50.3725 H   0  0  0  0  0  0  0  0  0  0  0  0
   34.8570   31.5936   48.6916 H   0  0  0  0  0  0  0  0  0  0  0  0
   31.0741   26.5223   49.0605 H   0  0  0  0  0  0  0  0  0  0  0  0
   31.3749   28.0546   49.8854 H   0  0  0  0  0  0  0  0  0  0  0  0
   29.3147   27.5401   48.0266 H   0  0  0  0  0  0  0  0  0  0  0  0
   29.9081   29.1854   48.5402 H   0  0  0  0  0  0  0  0  0  0  0  0
   30.5825   26.5468   46.2155 H   0  0  0  0  0  0  0  0  0  0  0  0
   31.3771   27.7160   45.0856 H   0  0  0  0  0  0  0  0  0  0  0  0
   32.7449   26.0815   46.8586 H   0  0  0  0  0  0  0  0  0  0  0  0
   33.3990   27.5845   46.2006 H   0  0  0  0  0  0  0  0  0  0  0  0
  1 10  1  0
  2  1  1  0
  3  2  2  0
  4  3  1  0
  5  4  2  0
  5  6  1  0
  6  7  2  0
  7  2  1  0
  8  6  1  0
  9  8  1  0
 12 11  2  0
 12 10  1  0
 13 12  1  0
 14 15  1  0
 14 13  2  0
 15 16  2  0
 16 11  1  0
 17 15  1  0
 17 18  1  0
 19 18  1  0
 20 19  1  0
 21 20  1  0
 21 22  1  0
 22 17  1  0
  1 23  1  0
  1 24  1  0
  3 25  1  0
  4 26  1  0
  8 27  1  0
  8 28  1  0
  9 29  1  0
  9 30  1  0
  9 31  1  0
 10 32  1  0
 10 33  1  0
 11 34  1  0
 13 35  1  0
 18 36  1  0
 18 37  1  0
 19 38  1  0
 19 39  1  0
 21 40  1  0
 21 41  1  0
 22 42  1  0
 22 43  1  0
M  ISO  8  23   8  24   8  25  14  26  14  27   8  28   8  29   8  30   8
M  ISO  8  31   8  32   8  33   8  34  14  35  14  36  13  37  13  38  13
M  ISO  5  39  13  40  13  41  13  42  13  43  13
M  END
>  <minimizedAffinity>  (1) 
-5.23848629

>  <minimizedRMSD>  (1) 
2.16255617

$$$$
