
     RDKit          3D

 23 25  0  0  0  0  0  0  0  0999 V2000
   36.6900   29.5420   51.5590 C   0  0  0  0  0  0  0  0  0  0  0  0
   37.4670   30.3200   50.6770 C   0  0  0  0  0  0  0  0  0  0  0  0
   36.8590   30.7430   49.4930 C   0  0  0  0  0  0  0  0  0  0  0  0
   35.5620   30.3870   49.2570 N   0  0  0  0  0  0  0  0  0  0  0  0
   34.8600   29.6410   50.1320 C   0  0  0  0  0  0  0  0  0  0  0  0
   35.4110   29.2180   51.2750 N   0  0  0  0  0  0  0  0  0  0  0  0
   37.6450   31.5260   48.6100 N   0  0  0  0  0  0  0  0  0  0  0  0
   38.4990   32.4570   49.0760 C   0  0  0  0  0  0  0  0  0  0  0  0
   39.0960   33.0270   47.9890 N   0  0  0  0  0  0  0  0  0  0  0  0
   38.6100   32.4500   46.8960 C   0  0  0  0  0  0  0  0  0  0  0  0
   38.8770   32.6530   45.5540 C   0  0  0  0  0  0  0  0  0  0  0  0
   38.2070   31.8920   44.6610 N   0  0  0  0  0  0  0  0  0  0  0  0
   37.3030   30.9580   45.0370 C   0  0  0  0  0  0  0  0  0  0  0  0
   37.0480   30.7630   46.3550 N   0  0  0  0  0  0  0  0  0  0  0  0
   37.6870   31.4920   47.2640 C   0  0  0  0  0  0  0  0  0  0  0  0
   39.8130   33.6170   45.0770 N   0  0  0  0  0  0  0  0  0  0  0  0
   37.1366   29.1907   52.5009 H   0  0  0  0  0  0  0  0  0  0  0  0
   38.5090   30.5830   50.9115 H   0  0  0  0  0  0  0  0  0  0  0  0
   33.8174   29.3756   49.9028 H   0  0  0  0  0  0  0  0  0  0  0  0
   38.6807   32.7098   50.1310 H   0  0  0  0  0  0  0  0  0  0  0  0
   36.7776   30.3600   44.2778 H   0  0  0  0  0  0  0  0  0  0  0  0
   39.9712   33.7243   44.0649 H   0  0  0  0  0  0  0  0  0  0  0  0
   40.3310   34.2061   45.7445 H   0  0  0  0  0  0  0  0  0  0  0  0
  2  1  2  0
  3  2  1  0
  4  3  2  0
  4  5  1  0
  5  6  2  0
  6  1  1  0
  7  8  1  0
  7  3  1  0
  9  8  2  0
 10 15  2  0
 10  9  1  0
 11 10  1  0
 12 13  1  0
 12 11  2  0
 13 14  2  0
 14 15  1  0
 15  7  1  0
 16 11  1  0
  1 17  1  0
  2 18  1  0
  5 19  1  0
  8 20  1  0
 13 21  1  0
 16 22  1  0
 16 23  1  0
M  ISO  5  17  14  18  14  19  14  20  14  21  14
M  END
>  <minimizedAffinity>  (1) 
-5.86446667

>  <minimizedRMSD>  (1) 
1.74604273

$$$$
