
     RDKit          3D

 42 43  0  0  0  0  0  0  0  0999 V2000
   37.2510   32.0380   49.5200 C   0  0  0  0  0  0  0  0  0  0  0  0
   38.0250   31.7770   48.2560 C   0  0  0  0  0  0  0  0  0  0  0  0
   37.9930   30.5680   47.6280 C   0  0  0  0  0  0  0  0  0  0  0  0
   38.7260   30.3480   46.4810 C   0  0  0  0  0  0  0  0  0  0  0  0
   39.4750   31.3780   46.0030 N   0  0  0  0  0  0  0  0  0  0  0  0
   39.5070   32.5550   46.6110 C   0  0  0  0  0  0  0  0  0  0  0  0
   38.7980   32.7740   47.7250 N   0  0  0  0  0  0  0  0  0  0  0  0
   40.3300   33.6720   46.0740 C   0  0  0  0  0  0  0  0  0  0  0  0
   40.1200   33.7950   44.5600 C   0  0  0  0  0  0  0  0  0  0  0  0
   37.0400   30.6910   50.1380 C   0  0  0  0  0  0  0  0  0  0  0  0
   35.7750   28.6280   49.7860 C   0  0  0  0  0  0  0  0  0  0  0  0
   35.9260   29.9960   49.6060 C   0  0  0  0  0  0  0  0  0  0  0  0
   34.9500   30.6480   48.9120 C   0  0  0  0  0  0  0  0  0  0  0  0
   33.8620   29.9760   48.4100 N   0  0  0  0  0  0  0  0  0  0  0  0
   33.7380   28.6530   48.5940 C   0  0  0  0  0  0  0  0  0  0  0  0
   34.6850   28.0070   49.2720 N   0  0  0  0  0  0  0  0  0  0  0  0
   32.5800   27.8650   48.0750 C   0  0  0  0  0  0  0  0  0  0  0  0
   32.0060   28.5280   46.8460 C   0  0  0  0  0  0  0  0  0  0  0  0
   31.4850   27.7180   49.0930 C   0  0  0  0  0  0  0  0  0  0  0  0
   33.1430   26.4950   47.7110 C   0  0  0  0  0  0  0  0  0  0  0  0
   36.2854   32.5120   49.2898 H   0  0  0  0  0  0  0  0  0  0  0  0
   37.7869   32.7204   50.1960 H   0  0  0  0  0  0  0  0  0  0  0  0
   37.3747   29.7575   48.0413 H   0  0  0  0  0  0  0  0  0  0  0  0
   38.7058   29.3739   45.9705 H   0  0  0  0  0  0  0  0  0  0  0  0
   40.0312   34.6119   46.5611 H   0  0  0  0  0  0  0  0  0  0  0  0
   41.3919   33.4690   46.2767 H   0  0  0  0  0  0  0  0  0  0  0  0
   39.1862   34.3419   44.3626 H   0  0  0  0  0  0  0  0  0  0  0  0
   40.9655   34.3407   44.1157 H   0  0  0  0  0  0  0  0  0  0  0  0
   40.0576   32.7907   44.1157 H   0  0  0  0  0  0  0  0  0  0  0  0
   37.9422   30.0848   49.9692 H   0  0  0  0  0  0  0  0  0  0  0  0
   36.8414   30.8522   51.2079 H   0  0  0  0  0  0  0  0  0  0  0  0
   36.5320   28.0536   50.3401 H   0  0  0  0  0  0  0  0  0  0  0  0
   35.0354   31.7328   48.7510 H   0  0  0  0  0  0  0  0  0  0  0  0
   31.3140   29.3273   47.1499 H   0  0  0  0  0  0  0  0  0  0  0  0
   32.8219   28.9578   46.2463 H   0  0  0  0  0  0  0  0  0  0  0  0
   31.4639   27.7820   46.2463 H   0  0  0  0  0  0  0  0  0  0  0  0
   31.9143   27.7756   50.1041 H   0  0  0  0  0  0  0  0  0  0  0  0
   30.7500   28.5255   48.9601 H   0  0  0  0  0  0  0  0  0  0  0  0
   30.9890   26.7452   48.9601 H   0  0  0  0  0  0  0  0  0  0  0  0
   33.3724   25.9367   48.6306 H   0  0  0  0  0  0  0  0  0  0  0  0
   32.4006   25.9387   47.1199 H   0  0  0  0  0  0  0  0  0  0  0  0
   34.0620   26.6215   47.1199 H   0  0  0  0  0  0  0  0  0  0  0  0
  1 10  1  0
  2  1  1  0
  3  2  2  0
  4  3  1  0
  5  4  2  0
  5  6  1  0
  6  7  2  0
  7  2  1  0
  8  6  1  0
  9  8  1  0
 12 11  2  0
 12 10  1  0
 13 12  1  0
 14 15  1  0
 14 13  2  0
 15 16  2  0
 16 11  1  0
 17 15  1  0
 17 19  1  0
 18 17  1  0
 20 17  1  0
  1 21  1  0
  1 22  1  0
  3 23  1  0
  4 24  1  0
  8 25  1  0
  8 26  1  0
  9 27  1  0
  9 28  1  0
  9 29  1  0
 10 30  1  0
 10 31  1  0
 11 32  1  0
 13 33  1  0
 18 34  1  0
 18 35  1  0
 18 36  1  0
 19 37  1  0
 19 38  1  0
 19 39  1  0
 20 40  1  0
 20 41  1  0
 20 42  1  0
M  ISO  8  21   8  22   8  23  14  24  14  25   8  26   8  27   8  28   8
M  ISO  8  29   8  30   8  31   8  32  14  33  14  34   8  35   8  36   8
M  ISO  6  37   8  38   8  39   8  40   8  41   8  42   8
M  END
>  <minimizedAffinity>  (1) 
-5.11095715

>  <minimizedRMSD>  (1) 
1.88468552

$$$$
