
     RDKit          3D

 32 33  0  0  0  0  0  0  0  0999 V2000
   38.3690   32.4300   49.2570 C   0  0  0  0  0  0  0  0  0  0  0  0
   38.7250   32.0480   47.8480 C   0  0  0  0  0  0  0  0  0  0  0  0
   38.5380   30.7840   47.3700 C   0  0  0  0  0  0  0  0  0  0  0  0
   38.8950   30.4530   46.0830 C   0  0  0  0  0  0  0  0  0  0  0  0
   39.4400   31.4270   45.3040 N   0  0  0  0  0  0  0  0  0  0  0  0
   39.6230   32.6570   45.7600 C   0  0  0  0  0  0  0  0  0  0  0  0
   39.2760   32.9780   47.0110 N   0  0  0  0  0  0  0  0  0  0  0  0
   40.2140   33.7170   44.9030 C   0  0  0  0  0  0  0  0  0  0  0  0
   39.8070   33.4910   43.4370 C   0  0  0  0  0  0  0  0  0  0  0  0
   38.2740   31.1450   50.0090 C   0  0  0  0  0  0  0  0  0  0  0  0
   36.8690   29.1310   49.9940 C   0  0  0  0  0  0  0  0  0  0  0  0
   37.0030   30.5280   49.8950 C   0  0  0  0  0  0  0  0  0  0  0  0
   35.8650   31.2520   49.7000 C   0  0  0  0  0  0  0  0  0  0  0  0
   34.6410   30.6440   49.6060 N   0  0  0  0  0  0  0  0  0  0  0  0
   34.5340   29.3110   49.7030 C   0  0  0  0  0  0  0  0  0  0  0  0
   35.6270   28.5880   49.8930 N   0  0  0  0  0  0  0  0  0  0  0  0
   33.2390   28.6460   49.6060 C   0  0  0  0  0  0  0  0  0  0  0  0
   32.9640   27.7480   48.7720 O   0  0  0  0  0  0  0  0  0  0  0  0
   37.4054   32.9602   49.2793 H   0  0  0  0  0  0  0  0  0  0  0  0
   39.1177   33.1050   49.6973 H   0  0  0  0  0  0  0  0  0  0  0  0
   38.0951   30.0178   48.0233 H   0  0  0  0  0  0  0  0  0  0  0  0
   38.7448   29.4342   45.6963 H   0  0  0  0  0  0  0  0  0  0  0  0
   39.8498   34.7003   45.2354 H   0  0  0  0  0  0  0  0  0  0  0  0
   41.3103   33.6800   44.9847 H   0  0  0  0  0  0  0  0  0  0  0  0
   38.8458   32.9573   43.4014 H   0  0  0  0  0  0  0  0  0  0  0  0
   39.7060   34.4623   42.9306 H   0  0  0  0  0  0  0  0  0  0  0  0
   40.5781   32.8918   42.9306 H   0  0  0  0  0  0  0  0  0  0  0  0
   39.0353   30.4536   49.6187 H   0  0  0  0  0  0  0  0  0  0  0  0
   38.4336   31.3744   51.0729 H   0  0  0  0  0  0  0  0  0  0  0  0
   37.7505   28.4918   50.1498 H   0  0  0  0  0  0  0  0  0  0  0  0
   35.9306   32.3469   49.6164 H   0  0  0  0  0  0  0  0  0  0  0  0
   32.4510   28.9514   50.3101 H   0  0  0  0  0  0  0  0  0  0  0  0
  1 10  1  0
  2  1  1  0
  3  2  2  0
  4  3  1  0
  5  6  1  0
  5  4  2  0
  6  7  2  0
  7  2  1  0
  8  6  1  0
  9  8  1  0
 12 11  2  0
 12 10  1  0
 13 12  1  0
 14 13  2  0
 14 15  1  0
 15 16  2  0
 16 11  1  0
 17 15  1  0
 18 17  2  0
  1 19  1  0
  1 20  1  0
  3 21  1  0
  4 22  1  0
  8 23  1  0
  8 24  1  0
  9 25  1  0
  9 26  1  0
  9 27  1  0
 10 28  1  0
 10 29  1  0
 11 30  1  0
 13 31  1  0
 17 32  1  0
M  ISO  8  19   8  20   8  21  14  22  14  23   8  24   8  25   8  26   8
M  ISO  6  27   8  28   8  29   8  30  14  31  14  32   6
M  END
>  <minimizedAffinity>  (1) 
-4.97166586

>  <minimizedRMSD>  (1) 
0.759356916

$$$$
