
     RDKit          3D

 21 22  0  0  0  0  0  0  0  0999 V2000
   37.3210   30.1380   51.5290 C   0  0  0  0  0  0  0  0  0  0  0  0
   38.0130   30.8170   50.4990 C   0  0  0  0  0  0  0  0  0  0  0  0
   37.5310   30.6450   49.1830 C   0  0  0  0  0  0  0  0  0  0  0  0
   36.4400   29.8480   48.9740 N   0  0  0  0  0  0  0  0  0  0  0  0
   35.8150   29.2230   49.9870 C   0  0  0  0  0  0  0  0  0  0  0  0
   36.2590   29.3720   51.2590 N   0  0  0  0  0  0  0  0  0  0  0  0
   38.2500   31.3390   48.1910 N   0  0  0  0  0  0  0  0  0  0  0  0
   38.4040   30.6830   47.0320 C   0  0  0  0  0  0  0  0  0  0  0  0
   39.1040   31.2990   45.9990 C   0  0  0  0  0  0  0  0  0  0  0  0
   39.6080   32.5800   46.2370 C   0  0  0  0  0  0  0  0  0  0  0  0
   40.3180   33.1910   45.1700 N   0  0  0  0  0  0  0  0  0  0  0  0
   39.4050   33.1610   47.4300 N   0  0  0  0  0  0  0  0  0  0  0  0
   38.7300   32.5710   48.4310 C   0  0  0  0  0  0  0  0  0  0  0  0
   38.5390   33.1140   49.5490 O   0  0  0  0  0  0  0  0  0  0  0  0
   37.6623   30.2419   52.5695 H   0  0  0  0  0  0  0  0  0  0  0  0
   38.8867   31.4501   50.7134 H   0  0  0  0  0  0  0  0  0  0  0  0
   34.9401   28.5883   49.7828 H   0  0  0  0  0  0  0  0  0  0  0  0
   37.9841   29.6749   46.8998 H   0  0  0  0  0  0  0  0  0  0  0  0
   39.2547   30.7965   45.0321 H   0  0  0  0  0  0  0  0  0  0  0  0
   40.7124   34.1352   45.2878 H   0  0  0  0  0  0  0  0  0  0  0  0
   40.4387   32.6901   44.2781 H   0  0  0  0  0  0  0  0  0  0  0  0
  2  1  2  0
  3  2  1  0
  4  3  2  0
  4  5  1  0
  5  6  2  0
  6  1  1  0
  7 13  1  0
  7  3  1  0
  8  7  1  0
  9 10  1  0
  9  8  2  0
 10 12  2  0
 11 10  1  0
 12 13  1  0
 13 14  2  0
  1 15  1  0
  2 16  1  0
  5 17  1  0
  8 18  1  0
  9 19  1  0
 11 20  1  0
 11 21  1  0
M  ISO  5  15  14  16  14  17  14  18  14  19  14
M  END
>  <minimizedAffinity>  (1) 
-5.62923908

>  <minimizedRMSD>  (1) 
0.548345864

$$$$
