
     RDKit          3D

 20 21  0  0  0  0  0  0  0  0999 V2000
   37.2870   30.2420   51.2350 C   0  0  0  0  0  0  0  0  0  0  0  0
   38.2290   30.8660   50.3750 C   0  0  0  0  0  0  0  0  0  0  0  0
   37.9410   30.8560   48.9920 C   0  0  0  0  0  0  0  0  0  0  0  0
   36.8020   30.2610   48.5620 N   0  0  0  0  0  0  0  0  0  0  0  0
   35.9270   29.6740   49.4250 C   0  0  0  0  0  0  0  0  0  0  0  0
   36.1830   29.6730   50.7390 N   0  0  0  0  0  0  0  0  0  0  0  0
   34.7270   29.0460   48.9820 N   0  0  0  0  0  0  0  0  0  0  0  0
   34.7550   28.4390   47.7650 C   0  0  0  0  0  0  0  0  0  0  0  0
   33.5850   27.8360   47.3510 C   0  0  0  0  0  0  0  0  0  0  0  0
   32.4660   27.8740   48.1700 C   0  0  0  0  0  0  0  0  0  0  0  0
   31.4260   27.3060   47.7390 O   0  0  0  0  0  0  0  0  0  0  0  0
   32.4730   28.4900   49.3840 N   0  0  0  0  0  0  0  0  0  0  0  0
   33.6320   29.0760   49.7700 C   0  0  0  0  0  0  0  0  0  0  0  0
   33.6980   29.6560   50.8740 O   0  0  0  0  0  0  0  0  0  0  0  0
   37.4671   30.2265   52.3200 H   0  0  0  0  0  0  0  0  0  0  0  0
   39.1424   31.3363   50.7682 H   0  0  0  0  0  0  0  0  0  0  0  0
   38.6311   31.3243   48.2748 H   0  0  0  0  0  0  0  0  0  0  0  0
   35.6626   28.4294   47.1436 H   0  0  0  0  0  0  0  0  0  0  0  0
   33.5398   27.3277   46.3765 H   0  0  0  0  0  0  0  0  0  0  0  0
   31.6348   28.5097   49.9822 H   0  0  0  0  0  0  0  0  0  0  0  0
  2  1  2  0
  3  2  1  0
  4  3  2  0
  4  5  1  0
  5  6  2  0
  6  1  1  0
  7  5  1  0
  7 13  1  0
  8  7  1  0
  9  8  2  0
  9 10  1  0
 10 12  1  0
 11 10  2  0
 12 13  1  0
 13 14  2  0
  1 15  1  0
  2 16  1  0
  3 17  1  0
  8 18  1  0
  9 19  1  0
 12 20  1  0
M  ISO  6  15  14  16  14  17  14  18  14  19  14  20   9
M  END
>  <minimizedAffinity>  (1) 
-4.46817255

>  <minimizedRMSD>  (1) 
1.16832888

$$$$
