
     RDKit          3D

 47 50  0  0  0  0  0  0  0  0999 V2000
   35.6400   28.4670   49.8150 C   0  0  0  0  0  0  0  0  0  0  0  0
   35.7230   29.8550   49.6200 C   0  0  0  0  0  0  0  0  0  0  0  0
   34.6820   30.4460   48.9470 C   0  0  0  0  0  0  0  0  0  0  0  0
   33.6340   29.7080   48.4980 N   0  0  0  0  0  0  0  0  0  0  0  0
   33.5790   28.3890   48.6950 C   0  0  0  0  0  0  0  0  0  0  0  0
   34.5640   27.8100   49.3360 N   0  0  0  0  0  0  0  0  0  0  0  0
   36.8310   30.5970   50.0700 C   0  0  0  0  0  0  0  0  0  0  0  0
   36.9630   31.9040   49.3850 C   0  0  0  0  0  0  0  0  0  0  0  0
   37.8170   31.7040   48.1910 C   0  0  0  0  0  0  0  0  0  0  0  0
   37.8380   30.5070   47.5640 C   0  0  0  0  0  0  0  0  0  0  0  0
   38.6790   30.3190   46.4670 C   0  0  0  0  0  0  0  0  0  0  0  0
   39.4510   31.3670   46.0680 N   0  0  0  0  0  0  0  0  0  0  0  0
   39.4100   32.5270   46.6920 C   0  0  0  0  0  0  0  0  0  0  0  0
   38.6090   32.7350   47.7560 N   0  0  0  0  0  0  0  0  0  0  0  0
   40.2370   33.6640   46.2280 C   0  0  0  0  0  0  0  0  0  0  0  0
   40.1640   33.7650   44.6890 C   0  0  0  0  0  0  0  0  0  0  0  0
   32.4450   27.5920   48.2090 C   0  0  0  0  0  0  0  0  0  0  0  0
   32.4790   27.0360   47.0830 O   0  0  0  0  0  0  0  0  0  0  0  0
   31.3060   27.4260   48.9760 O   0  0  0  0  0  0  0  0  0  0  0  0
   30.1040   28.0340   48.6270 C   0  0  0  0  0  0  0  0  0  0  0  0
   29.9300   28.7240   47.4740 N   0  0  0  0  0  0  0  0  0  0  0  0
   28.7460   29.2960   47.1790 C   0  0  0  0  0  0  0  0  0  0  0  0
   27.6670   29.2180   48.0040 N   0  0  0  0  0  0  0  0  0  0  0  0
   27.7940   28.5470   49.1480 C   0  0  0  0  0  0  0  0  0  0  0  0
   26.7880   28.3870   50.0780 C   0  0  0  0  0  0  0  0  0  0  0  0
   26.8870   27.7020   51.2620 C   0  0  0  0  0  0  0  0  0  0  0  0
   28.1170   27.1120   51.5640 C   0  0  0  0  0  0  0  0  0  0  0  0
   29.1510   27.2560   50.6490 C   0  0  0  0  0  0  0  0  0  0  0  0
   29.0100   27.9440   49.4810 C   0  0  0  0  0  0  0  0  0  0  0  0
   36.4364   27.9265   50.3476 H   0  0  0  0  0  0  0  0  0  0  0  0
   34.6972   31.5314   48.7692 H   0  0  0  0  0  0  0  0  0  0  0  0
   36.7193   30.7757   51.1496 H   0  0  0  0  0  0  0  0  0  0  0  0
   37.7350   30.0121   49.8446 H   0  0  0  0  0  0  0  0  0  0  0  0
   35.9712   32.2683   49.0791 H   0  0  0  0  0  0  0  0  0  0  0  0
   37.4124   32.6480   50.0592 H   0  0  0  0  0  0  0  0  0  0  0  0
   37.1961   29.6862   47.9164 H   0  0  0  0  0  0  0  0  0  0  0  0
   38.7172   29.3539   45.9407 H   0  0  0  0  0  0  0  0  0  0  0  0
   39.8605   34.5963   46.6741 H   0  0  0  0  0  0  0  0  0  0  0  0
   41.2814   33.5043   46.5340 H   0  0  0  0  0  0  0  0  0  0  0  0
   39.5411   34.6268   44.4072 H   0  0  0  0  0  0  0  0  0  0  0  0
   41.1773   33.8962   44.2817 H   0  0  0  0  0  0  0  0  0  0  0  0
   39.7215   32.8440   44.2817 H   0  0  0  0  0  0  0  0  0  0  0  0
   28.6480   29.8484   46.2328 H   0  0  0  0  0  0  0  0  0  0  0  0
   25.8174   28.8513   49.8491 H   0  0  0  0  0  0  0  0  0  0  0  0
   26.0308   27.6202   51.9477 H   0  0  0  0  0  0  0  0  0  0  0  0
   28.2617   26.5503   52.4987 H   0  0  0  0  0  0  0  0  0  0  0  0
   30.1240   26.7959   50.8760 H   0  0  0  0  0  0  0  0  0  0  0  0
  2  1  2  0
  2  7  1  0
  3  2  1  0
  4  5  1  0
  4  3  2  0
  5  6  2  0
  6  1  1  0
  8  7  1  0
  9  8  1  0
 10  9  2  0
 11 10  1  0
 12 11  2  0
 12 13  1  0
 13 14  2  0
 14  9  1  0
 15 13  1  0
 16 15  1  0
 17  5  1  0
 17 19  1  0
 18 17  2  0
 20 19  1  0
 20 29  1  0
 21 20  2  0
 22 21  1  0
 22 23  2  0
 23 24  1  0
 24 29  2  0
 24 25  1  0
 25 26  2  0
 26 27  1  0
 28 27  2  0
 29 28  1  0
  1 30  1  0
  3 31  1  0
  7 32  1  0
  7 33  1  0
  8 34  1  0
  8 35  1  0
 10 36  1  0
 11 37  1  0
 15 38  1  0
 15 39  1  0
 16 40  1  0
 16 41  1  0
 16 42  1  0
 22 43  1  0
 25 44  1  0
 26 45  1  0
 27 46  1  0
 28 47  1  0
M  ISO  8  30  14  31  14  32   8  33   8  34   8  35   8  36  14  37  14
M  ISO  8  38   8  39   8  40   8  41   8  42   8  43  14  44  14  45  14
M  ISO  2  46  14  47  14
M  END
>  <minimizedAffinity>  (1) 
-6.85777283

>  <minimizedRMSD>  (1) 
1.56573451

$$$$
