
     RDKit          3D

 43 45  0  0  0  0  0  0  0  0999 V2000
   37.1560   30.6440   50.3370 C   0  0  0  0  0  0  0  0  0  0  0  0
   35.9220   28.6490   49.6400 C   0  0  0  0  0  0  0  0  0  0  0  0
   35.9980   30.0440   49.7790 C   0  0  0  0  0  0  0  0  0  0  0  0
   34.9300   30.7820   49.3380 C   0  0  0  0  0  0  0  0  0  0  0  0
   33.8480   30.1620   48.7900 N   0  0  0  0  0  0  0  0  0  0  0  0
   33.7960   28.8300   48.6650 C   0  0  0  0  0  0  0  0  0  0  0  0
   34.8120   28.1220   49.0850 N   0  0  0  0  0  0  0  0  0  0  0  0
   32.6280   28.1740   48.0700 C   0  0  0  0  0  0  0  0  0  0  0  0
   32.2380   28.4650   46.9130 O   0  0  0  0  0  0  0  0  0  0  0  0
   31.9110   27.2100   48.7580 O   0  0  0  0  0  0  0  0  0  0  0  0
   30.5080   27.2680   48.7890 C   0  0  0  0  0  0  0  0  0  0  0  0
   29.6450   26.7520   47.8630 C   0  0  0  0  0  0  0  0  0  0  0  0
   28.2820   26.8850   48.0240 C   0  0  0  0  0  0  0  0  0  0  0  0
   27.8350   27.5590   49.1550 C   0  0  0  0  0  0  0  0  0  0  0  0
   28.6770   28.0950   50.1120 C   0  0  0  0  0  0  0  0  0  0  0  0
   30.0510   27.9390   49.9150 C   0  0  0  0  0  0  0  0  0  0  0  0
   37.4560   31.9690   49.7680 C   0  0  0  0  0  0  0  0  0  0  0  0
   38.0990   31.7770   48.4540 C   0  0  0  0  0  0  0  0  0  0  0  0
   37.9750   30.5960   47.8060 C   0  0  0  0  0  0  0  0  0  0  0  0
   38.6330   30.4050   46.5870 C   0  0  0  0  0  0  0  0  0  0  0  0
   39.3790   31.4380   46.0990 N   0  0  0  0  0  0  0  0  0  0  0  0
   39.4800   32.5800   46.7480 C   0  0  0  0  0  0  0  0  0  0  0  0
   38.8580   32.7850   47.9240 N   0  0  0  0  0  0  0  0  0  0  0  0
   40.2660   33.7000   46.1900 C   0  0  0  0  0  0  0  0  0  0  0  0
   40.1240   33.7270   44.6550 C   0  0  0  0  0  0  0  0  0  0  0  0
   37.0040   30.7555   51.4207 H   0  0  0  0  0  0  0  0  0  0  0  0
   38.0078   29.9883   50.1038 H   0  0  0  0  0  0  0  0  0  0  0  0
   36.7466   28.0028   49.9752 H   0  0  0  0  0  0  0  0  0  0  0  0
   34.9470   31.8783   49.4270 H   0  0  0  0  0  0  0  0  0  0  0  0
   30.0412   26.2261   46.9818 H   0  0  0  0  0  0  0  0  0  0  0  0
   27.5763   26.4742   47.2869 H   0  0  0  0  0  0  0  0  0  0  0  0
   26.7500   27.6723   49.2965 H   0  0  0  0  0  0  0  0  0  0  0  0
   28.2810   28.6226   50.9923 H   0  0  0  0  0  0  0  0  0  0  0  0
   30.7654   28.3447   50.6465 H   0  0  0  0  0  0  0  0  0  0  0  0
   36.5240   32.5404   49.6456 H   0  0  0  0  0  0  0  0  0  0  0  0
   38.1267   32.5254   50.4392 H   0  0  0  0  0  0  0  0  0  0  0  0
   37.3604   29.7910   48.2353 H   0  0  0  0  0  0  0  0  0  0  0  0
   38.5519   29.4541   46.0400 H   0  0  0  0  0  0  0  0  0  0  0  0
   39.8966   34.6484   46.6072 H   0  0  0  0  0  0  0  0  0  0  0  0
   41.3255   33.5656   46.4535 H   0  0  0  0  0  0  0  0  0  0  0  0
   39.0759   33.9263   44.3872 H   0  0  0  0  0  0  0  0  0  0  0  0
   40.7652   34.5193   44.2413 H   0  0  0  0  0  0  0  0  0  0  0  0
   40.4296   32.7546   44.2413 H   0  0  0  0  0  0  0  0  0  0  0  0
  2  3  2  0
  3  1  1  0
  4  3  1  0
  5  4  2  0
  6  5  1  0
  6  7  2  0
  7  2  1  0
  8  6  1  0
  8 10  1  0
  9  8  2  0
 10 11  1  0
 11 16  2  0
 12 13  2  0
 12 11  1  0
 13 14  1  0
 14 15  2  0
 16 15  1  0
 17  1  1  0
 18 17  1  0
 19 18  2  0
 20 19  1  0
 21 20  2  0
 21 22  1  0
 22 23  2  0
 23 18  1  0
 24 22  1  0
 25 24  1  0
  1 26  1  0
  1 27  1  0
  2 28  1  0
  4 29  1  0
 12 30  1  0
 13 31  1  0
 14 32  1  0
 15 33  1  0
 16 34  1  0
 17 35  1  0
 17 36  1  0
 19 37  1  0
 20 38  1  0
 24 39  1  0
 24 40  1  0
 25 41  1  0
 25 42  1  0
 25 43  1  0
M  ISO  8  26   8  27   8  28  14  29  14  30  14  31  14  32  14  33  14
M  ISO  8  34  14  35   8  36   8  37  14  38  14  39   8  40   8  41   8
M  ISO  2  42   8  43   8
M  END
>  <minimizedAffinity>  (1) 
-5.73932695

>  <minimizedRMSD>  (1) 
1.15345824

$$$$
