
     RDKit          3D

 41 43  0  0  0  0  0  0  0  0999 V2000
   36.9380   30.5810   50.2030 C   0  0  0  0  0  0  0  0  0  0  0  0
   35.6380   28.5450   49.7710 C   0  0  0  0  0  0  0  0  0  0  0  0
   35.8140   29.9320   49.6510 C   0  0  0  0  0  0  0  0  0  0  0  0
   34.8550   30.6220   48.9530 C   0  0  0  0  0  0  0  0  0  0  0  0
   33.7900   29.9750   48.4070 N   0  0  0  0  0  0  0  0  0  0  0  0
   33.6450   28.6540   48.5340 C   0  0  0  0  0  0  0  0  0  0  0  0
   34.5510   27.9820   49.1990 N   0  0  0  0  0  0  0  0  0  0  0  0
   32.4960   27.9560   47.9460 C   0  0  0  0  0  0  0  0  0  0  0  0
   32.1960   28.1020   46.7360 O   0  0  0  0  0  0  0  0  0  0  0  0
   31.7020   27.1110   48.7060 O   0  0  0  0  0  0  0  0  0  0  0  0
   30.3860   27.3740   49.0160 C   0  0  0  0  0  0  0  0  0  0  0  0
   29.4640   26.8430   48.1260 C   0  0  0  0  0  0  0  0  0  0  0  0
   28.1010   27.0170   48.2960 C   0  0  0  0  0  0  0  0  0  0  0  0
   27.6920   27.7380   49.3780 N   0  0  0  0  0  0  0  0  0  0  0  0
   28.5940   28.2510   50.2370 C   0  0  0  0  0  0  0  0  0  0  0  0
   29.9280   28.0770   50.0670 N   0  0  0  0  0  0  0  0  0  0  0  0
   37.1780   31.9140   49.6090 C   0  0  0  0  0  0  0  0  0  0  0  0
   37.9380   31.7210   48.3520 C   0  0  0  0  0  0  0  0  0  0  0  0
   37.9020   30.5320   47.7140 C   0  0  0  0  0  0  0  0  0  0  0  0
   38.6560   30.3480   46.5550 C   0  0  0  0  0  0  0  0  0  0  0  0
   39.4050   31.3920   46.1100 N   0  0  0  0  0  0  0  0  0  0  0  0
   39.4230   32.5470   46.7480 C   0  0  0  0  0  0  0  0  0  0  0  0
   38.7050   32.7460   47.8680 N   0  0  0  0  0  0  0  0  0  0  0  0
   40.2290   33.6810   46.2350 C   0  0  0  0  0  0  0  0  0  0  0  0
   40.1360   33.7270   44.6930 C   0  0  0  0  0  0  0  0  0  0  0  0
   36.7784   30.7016   51.2847 H   0  0  0  0  0  0  0  0  0  0  0  0
   37.8191   29.9586   49.9879 H   0  0  0  0  0  0  0  0  0  0  0  0
   36.3680   27.9303   50.3180 H   0  0  0  0  0  0  0  0  0  0  0  0
   34.9485   31.7115   48.8335 H   0  0  0  0  0  0  0  0  0  0  0  0
   29.8258   26.2677   47.2611 H   0  0  0  0  0  0  0  0  0  0  0  0
   27.3770   26.5904   47.5862 H   0  0  0  0  0  0  0  0  0  0  0  0
   28.2376   28.8286   51.1026 H   0  0  0  0  0  0  0  0  0  0  0  0
   36.2179   32.4058   49.3937 H   0  0  0  0  0  0  0  0  0  0  0  0
   37.7447   32.5484   50.3064 H   0  0  0  0  0  0  0  0  0  0  0  0
   37.2815   29.7127   48.1059 H   0  0  0  0  0  0  0  0  0  0  0  0
   38.6450   29.3882   46.0177 H   0  0  0  0  0  0  0  0  0  0  0  0
   39.8439   34.6227   46.6533 H   0  0  0  0  0  0  0  0  0  0  0  0
   41.2792   33.5477   46.5340 H   0  0  0  0  0  0  0  0  0  0  0  0
   39.1864   34.1967   44.3968 H   0  0  0  0  0  0  0  0  0  0  0  0
   40.9759   34.3136   44.2923 H   0  0  0  0  0  0  0  0  0  0  0  0
   40.1795   32.7035   44.2923 H   0  0  0  0  0  0  0  0  0  0  0  0
  3  2  2  0
  3  1  1  0
  4  3  1  0
  5  6  1  0
  5  4  2  0
  6  7  2  0
  7  2  1  0
  8  6  1  0
  8 10  1  0
  9  8  2  0
 10 11  1  0
 11 16  2  0
 12 13  2  0
 12 11  1  0
 13 14  1  0
 14 15  2  0
 16 15  1  0
 17  1  1  0
 18 17  1  0
 19 18  2  0
 20 19  1  0
 21 20  2  0
 21 22  1  0
 22 23  2  0
 23 18  1  0
 24 22  1  0
 25 24  1  0
  1 26  1  0
  1 27  1  0
  2 28  1  0
  4 29  1  0
 12 30  1  0
 13 31  1  0
 15 32  1  0
 17 33  1  0
 17 34  1  0
 19 35  1  0
 20 36  1  0
 24 37  1  0
 24 38  1  0
 25 39  1  0
 25 40  1  0
 25 41  1  0
M  ISO  8  26   8  27   8  28  14  29  14  30  14  31  14  32  14  33   8
M  ISO  8  34   8  35  14  36  14  37   8  38   8  39   8  40   8  41   8
M  END
>  <minimizedAffinity>  (1) 
-5.63079405

>  <minimizedRMSD>  (1) 
1.35045493

$$$$
