
     RDKit          3D

 39 41  0  0  0  0  0  0  0  0999 V2000
   36.9700   30.5510   50.1950 C   0  0  0  0  0  0  0  0  0  0  0  0
   35.6330   28.5400   49.7540 C   0  0  0  0  0  0  0  0  0  0  0  0
   35.8330   29.9250   49.6380 C   0  0  0  0  0  0  0  0  0  0  0  0
   34.8850   30.6360   48.9410 C   0  0  0  0  0  0  0  0  0  0  0  0
   33.8150   30.0020   48.3960 N   0  0  0  0  0  0  0  0  0  0  0  0
   33.6450   28.6870   48.5170 C   0  0  0  0  0  0  0  0  0  0  0  0
   34.5410   27.9970   49.1800 N   0  0  0  0  0  0  0  0  0  0  0  0
   32.4840   28.0100   47.9270 C   0  0  0  0  0  0  0  0  0  0  0  0
   32.0740   28.2980   46.7780 O   0  0  0  0  0  0  0  0  0  0  0  0
   31.8010   27.0250   48.6210 O   0  0  0  0  0  0  0  0  0  0  0  0
   30.4040   27.1610   48.7590 C   0  0  0  0  0  0  0  0  0  0  0  0
   29.3120   26.7570   47.8800 C   0  0  0  0  0  0  0  0  0  0  0  0
   27.8190   27.3470   48.8870 S   0  0  0  0  0  0  0  0  0  0  0  0
   28.9930   27.9900   50.2330 C   0  0  0  0  0  0  0  0  0  0  0  0
   30.0340   27.7600   49.8830 N   0  0  0  0  0  0  0  0  0  0  0  0
   37.2240   31.8880   49.6230 C   0  0  0  0  0  0  0  0  0  0  0  0
   37.9700   31.7100   48.3550 C   0  0  0  0  0  0  0  0  0  0  0  0
   37.9250   30.5270   47.7060 C   0  0  0  0  0  0  0  0  0  0  0  0
   38.6650   30.3550   46.5360 C   0  0  0  0  0  0  0  0  0  0  0  0
   39.4070   31.4030   46.0920 N   0  0  0  0  0  0  0  0  0  0  0  0
   39.4330   32.5530   46.7440 C   0  0  0  0  0  0  0  0  0  0  0  0
   38.7300   32.7390   47.8730 N   0  0  0  0  0  0  0  0  0  0  0  0
   40.2310   33.6930   46.2340 C   0  0  0  0  0  0  0  0  0  0  0  0
   40.1410   33.7360   44.6910 C   0  0  0  0  0  0  0  0  0  0  0  0
   36.8179   30.6557   51.2794 H   0  0  0  0  0  0  0  0  0  0  0  0
   37.8416   29.9208   49.9645 H   0  0  0  0  0  0  0  0  0  0  0  0
   36.3516   27.9121   50.3012 H   0  0  0  0  0  0  0  0  0  0  0  0
   34.9939   31.7243   48.8242 H   0  0  0  0  0  0  0  0  0  0  0  0
   29.3458   26.2507   46.9040 H   0  0  0  0  0  0  0  0  0  0  0  0
   28.7089   28.4895   51.1710 H   0  0  0  0  0  0  0  0  0  0  0  0
   36.2691   32.3971   49.4259 H   0  0  0  0  0  0  0  0  0  0  0  0
   37.8074   32.4999   50.3267 H   0  0  0  0  0  0  0  0  0  0  0  0
   37.3088   29.7041   48.0973 H   0  0  0  0  0  0  0  0  0  0  0  0
   38.6483   29.4004   45.9898 H   0  0  0  0  0  0  0  0  0  0  0  0
   39.8370   34.6318   46.6505 H   0  0  0  0  0  0  0  0  0  0  0  0
   41.2813   33.5698   46.5367 H   0  0  0  0  0  0  0  0  0  0  0  0
   39.1858   34.1924   44.3920 H   0  0  0  0  0  0  0  0  0  0  0  0
   40.9738   34.3335   44.2916 H   0  0  0  0  0  0  0  0  0  0  0  0
   40.1994   32.7127   44.2916 H   0  0  0  0  0  0  0  0  0  0  0  0
  3  2  2  0
  3  1  1  0
  4  3  1  0
  5  6  1  0
  5  4  2  0
  6  7  2  0
  7  2  1  0
  8  6  1  0
  8 10  1  0
  9  8  2  0
 10 11  1  0
 11 15  1  0
 12 11  2  0
 12 13  1  0
 13 14  1  0
 15 14  2  0
 16  1  1  0
 17 16  1  0
 18 17  2  0
 19 18  1  0
 20 19  2  0
 20 21  1  0
 21 22  2  0
 22 17  1  0
 23 21  1  0
 24 23  1  0
  1 25  1  0
  1 26  1  0
  2 27  1  0
  4 28  1  0
 12 29  1  0
 14 30  1  0
 16 31  1  0
 16 32  1  0
 18 33  1  0
 19 34  1  0
 23 35  1  0
 23 36  1  0
 24 37  1  0
 24 38  1  0
 24 39  1  0
M  ISO  8  25   8  26   8  27  14  28  14  29  14  30  14  31   8  32   8
M  ISO  7  33  14  34  14  35   8  36   8  37   8  38   8  39   8
M  END
>  <minimizedAffinity>  (1) 
-5.44721317

>  <minimizedRMSD>  (1) 
1.22568846

$$$$
