
     RDKit          3D

 40 42  0  0  0  0  0  0  0  0999 V2000
   36.9920   30.5720   50.1740 C   0  0  0  0  0  0  0  0  0  0  0  0
   35.6630   28.5440   49.8010 C   0  0  0  0  0  0  0  0  0  0  0  0
   35.8470   29.9290   49.6570 C   0  0  0  0  0  0  0  0  0  0  0  0
   34.8760   30.6170   48.9750 C   0  0  0  0  0  0  0  0  0  0  0  0
   33.7950   29.9680   48.4670 N   0  0  0  0  0  0  0  0  0  0  0  0
   33.6410   28.6520   48.6140 C   0  0  0  0  0  0  0  0  0  0  0  0
   34.5590   27.9830   49.2640 N   0  0  0  0  0  0  0  0  0  0  0  0
   32.4730   27.9560   48.0650 C   0  0  0  0  0  0  0  0  0  0  0  0
   32.1580   28.0680   46.8540 O   0  0  0  0  0  0  0  0  0  0  0  0
   31.6770   27.1500   48.8620 O   0  0  0  0  0  0  0  0  0  0  0  0
   30.3320   27.3970   49.0480 C   0  0  0  0  0  0  0  0  0  0  0  0
   29.2120   27.0010   48.3170 C   0  0  0  0  0  0  0  0  0  0  0  0
   28.1620   27.5690   49.0140 C   0  0  0  0  0  0  0  0  0  0  0  0
   28.6590   28.2660   50.1010 C   0  0  0  0  0  0  0  0  0  0  0  0
   29.9690   28.1380   50.0860 O   0  0  0  0  0  0  0  0  0  0  0  0
   37.2150   31.9060   49.5780 C   0  0  0  0  0  0  0  0  0  0  0  0
   37.9690   31.7220   48.3170 C   0  0  0  0  0  0  0  0  0  0  0  0
   37.9310   30.5340   47.6730 C   0  0  0  0  0  0  0  0  0  0  0  0
   38.6840   30.3550   46.5120 C   0  0  0  0  0  0  0  0  0  0  0  0
   39.4320   31.4020   46.0720 N   0  0  0  0  0  0  0  0  0  0  0  0
   39.4510   32.5540   46.7150 C   0  0  0  0  0  0  0  0  0  0  0  0
   38.7360   32.7500   47.8380 N   0  0  0  0  0  0  0  0  0  0  0  0
   40.2530   33.6890   46.2040 C   0  0  0  0  0  0  0  0  0  0  0  0
   40.1430   33.7510   44.6640 C   0  0  0  0  0  0  0  0  0  0  0  0
   36.8697   30.6882   51.2610 H   0  0  0  0  0  0  0  0  0  0  0  0
   37.8635   29.9479   49.9271 H   0  0  0  0  0  0  0  0  0  0  0  0
   36.4012   27.9309   50.3387 H   0  0  0  0  0  0  0  0  0  0  0  0
   34.9729   31.7041   48.8378 H   0  0  0  0  0  0  0  0  0  0  0  0
   29.1736   26.3855   47.4061 H   0  0  0  0  0  0  0  0  0  0  0  0
   27.0987   27.4807   48.7465 H   0  0  0  0  0  0  0  0  0  0  0  0
   28.0679   28.8245   50.8417 H   0  0  0  0  0  0  0  0  0  0  0  0
   36.2486   32.3878   49.3685 H   0  0  0  0  0  0  0  0  0  0  0  0
   37.7801   32.5456   50.2720 H   0  0  0  0  0  0  0  0  0  0  0  0
   37.3102   29.7134   48.0619 H   0  0  0  0  0  0  0  0  0  0  0  0
   38.6729   29.3978   45.9701 H   0  0  0  0  0  0  0  0  0  0  0  0
   39.8754   34.6276   46.6359 H   0  0  0  0  0  0  0  0  0  0  0  0
   41.3061   33.5493   46.4892 H   0  0  0  0  0  0  0  0  0  0  0  0
   39.2165   34.2732   44.3833 H   0  0  0  0  0  0  0  0  0  0  0  0
   41.0081   34.2944   44.2562 H   0  0  0  0  0  0  0  0  0  0  0  0
   40.1261   32.7295   44.2562 H   0  0  0  0  0  0  0  0  0  0  0  0
  3  2  2  0
  3  1  1  0
  4  3  1  0
  5  6  1  0
  5  4  2  0
  6  7  2  0
  7  2  1  0
  8  6  1  0
  8 10  1  0
  9  8  2  0
 10 11  1  0
 11 15  1  0
 12 13  1  0
 12 11  2  0
 13 14  2  0
 15 14  1  0
 16  1  1  0
 17 16  1  0
 18 17  2  0
 19 18  1  0
 20 19  2  0
 20 21  1  0
 21 22  2  0
 22 17  1  0
 23 21  1  0
 24 23  1  0
  1 25  1  0
  1 26  1  0
  2 27  1  0
  4 28  1  0
 12 29  1  0
 13 30  1  0
 14 31  1  0
 16 32  1  0
 16 33  1  0
 18 34  1  0
 19 35  1  0
 23 36  1  0
 23 37  1  0
 24 38  1  0
 24 39  1  0
 24 40  1  0
M  ISO  8  25   8  26   8  27  14  28  14  29  14  30  14  31  14  32   8
M  ISO  8  33   8  34  14  35  14  36   8  37   8  38   8  39   8  40   8
M  END
>  <minimizedAffinity>  (1) 
-5.44554138

>  <minimizedRMSD>  (1) 
1.15665305

$$$$
