
     RDKit          3D

 36 37  0  0  0  0  0  0  0  0999 V2000
   37.7620   32.2790   49.4810 C   0  0  0  0  0  0  0  0  0  0  0  0
   38.3420   31.9670   48.1540 C   0  0  0  0  0  0  0  0  0  0  0  0
   38.1450   30.7530   47.5970 C   0  0  0  0  0  0  0  0  0  0  0  0
   38.7290   30.4510   46.3660 C   0  0  0  0  0  0  0  0  0  0  0  0
   39.4830   31.4180   45.7710 N   0  0  0  0  0  0  0  0  0  0  0  0
   39.6580   32.6020   46.3330 C   0  0  0  0  0  0  0  0  0  0  0  0
   39.1060   32.9080   47.5200 N   0  0  0  0  0  0  0  0  0  0  0  0
   40.4590   33.6430   45.6540 C   0  0  0  0  0  0  0  0  0  0  0  0
   40.0720   33.7080   44.1610 C   0  0  0  0  0  0  0  0  0  0  0  0
   37.6440   31.0170   50.2380 C   0  0  0  0  0  0  0  0  0  0  0  0
   36.4660   28.8960   49.9010 C   0  0  0  0  0  0  0  0  0  0  0  0
   36.4760   30.2990   49.9240 C   0  0  0  0  0  0  0  0  0  0  0  0
   35.2990   30.9300   49.6020 C   0  0  0  0  0  0  0  0  0  0  0  0
   34.1890   30.2150   49.2770 N   0  0  0  0  0  0  0  0  0  0  0  0
   34.2070   28.8790   49.2620 C   0  0  0  0  0  0  0  0  0  0  0  0
   35.3190   28.2630   49.5680 N   0  0  0  0  0  0  0  0  0  0  0  0
   33.0110   28.1040   48.9130 C   0  0  0  0  0  0  0  0  0  0  0  0
   33.0140   27.2990   47.9520 O   0  0  0  0  0  0  0  0  0  0  0  0
   31.8330   28.2340   49.6340 O   0  0  0  0  0  0  0  0  0  0  0  0
   30.6000   27.7050   49.2100 C   0  0  0  0  0  0  0  0  0  0  0  0
   29.5880   27.9340   50.1430 F   0  0  0  0  0  0  0  0  0  0  0  0
   30.2530   28.3300   48.0290 F   0  0  0  0  0  0  0  0  0  0  0  0
   30.7020   26.3240   49.0060 F   0  0  0  0  0  0  0  0  0  0  0  0
   36.7680   32.7332   49.3560 H   0  0  0  0  0  0  0  0  0  0  0  0
   38.4059   32.9887   50.0211 H   0  0  0  0  0  0  0  0  0  0  0  0
   37.5258   30.0039   48.1121 H   0  0  0  0  0  0  0  0  0  0  0  0
   38.5860   29.4682   45.8931 H   0  0  0  0  0  0  0  0  0  0  0  0
   40.2650   34.6182   46.1245 H   0  0  0  0  0  0  0  0  0  0  0  0
   41.5271   33.3954   45.7424 H   0  0  0  0  0  0  0  0  0  0  0  0
   38.9909   33.8896   44.0700 H   0  0  0  0  0  0  0  0  0  0  0  0
   40.6234   34.5261   43.6746 H   0  0  0  0  0  0  0  0  0  0  0  0
   40.3259   32.7546   43.6746 H   0  0  0  0  0  0  0  0  0  0  0  0
   38.5160   30.3869   50.0085 H   0  0  0  0  0  0  0  0  0  0  0  0
   37.5962   31.2753   51.3062 H   0  0  0  0  0  0  0  0  0  0  0  0
   37.3721   28.3236   50.1486 H   0  0  0  0  0  0  0  0  0  0  0  0
   35.2539   32.0291   49.6072 H   0  0  0  0  0  0  0  0  0  0  0  0
  1 10  1  0
  2  1  1  0
  3  2  2  0
  4  3  1  0
  5  6  1  0
  5  4  2  0
  6  7  2  0
  7  2  1  0
  8  6  1  0
  9  8  1  0
 11 12  2  0
 12 10  1  0
 13 12  1  0
 14 13  2  0
 15 14  1  0
 15 16  2  0
 16 11  1  0
 17 15  1  0
 17 19  1  0
 18 17  2  0
 20 19  1  0
 20 21  1  0
 22 20  1  0
 23 20  1  0
  1 24  1  0
  1 25  1  0
  3 26  1  0
  4 27  1  0
  8 28  1  0
  8 29  1  0
  9 30  1  0
  9 31  1  0
  9 32  1  0
 10 33  1  0
 10 34  1  0
 11 35  1  0
 13 36  1  0
M  ISO  8  24   8  25   8  26  14  27  14  28   8  29   8  30   8  31   8
M  ISO  5  32   8  33   8  34   8  35  14  36  14
M  END
>  <minimizedAffinity>  (1) 
-5.41676569

>  <minimizedRMSD>  (1) 
0.443892509

$$$$
