
     RDKit          3D

 40 42  0  0  0  0  0  0  0  0999 V2000
   37.1990   30.7370   50.2310 C   0  0  0  0  0  0  0  0  0  0  0  0
   35.9750   28.6560   49.8010 C   0  0  0  0  0  0  0  0  0  0  0  0
   36.0240   30.0580   49.8540 C   0  0  0  0  0  0  0  0  0  0  0  0
   34.8820   30.7280   49.4970 C   0  0  0  0  0  0  0  0  0  0  0  0
   33.7680   30.0510   49.1130 N   0  0  0  0  0  0  0  0  0  0  0  0
   33.7460   28.7170   49.0690 C   0  0  0  0  0  0  0  0  0  0  0  0
   34.8270   28.0620   49.4070 N   0  0  0  0  0  0  0  0  0  0  0  0
   32.5400   27.9910   48.6520 C   0  0  0  0  0  0  0  0  0  0  0  0
   32.4320   27.5340   47.4840 O   0  0  0  0  0  0  0  0  0  0  0  0
   31.4880   27.7840   49.5200 O   0  0  0  0  0  0  0  0  0  0  0  0
   28.3860   26.9780   47.9770 N   0  0  0  0  0  0  0  0  0  0  0  0
   29.6950   26.8210   48.0710 N   0  0  0  0  0  0  0  0  0  0  0  0
   30.1900   27.5990   49.0460 C   0  0  0  0  0  0  0  0  0  0  0  0
   29.1260   28.2970   49.6090 C   0  0  0  0  0  0  0  0  0  0  0  0
   28.0230   27.8700   48.9030 C   0  0  0  0  0  0  0  0  0  0  0  0
   37.3450   32.0420   49.5480 C   0  0  0  0  0  0  0  0  0  0  0  0
   38.0540   31.8070   48.2670 C   0  0  0  0  0  0  0  0  0  0  0  0
   37.9470   30.6120   47.6460 C   0  0  0  0  0  0  0  0  0  0  0  0
   38.6560   30.3850   46.4660 C   0  0  0  0  0  0  0  0  0  0  0  0
   39.4340   31.3940   45.9860 N   0  0  0  0  0  0  0  0  0  0  0  0
   39.5190   32.5560   46.6120 C   0  0  0  0  0  0  0  0  0  0  0  0
   38.8440   32.7920   47.7510 N   0  0  0  0  0  0  0  0  0  0  0  0
   40.3510   33.6490   46.0580 C   0  0  0  0  0  0  0  0  0  0  0  0
   40.1040   33.7720   44.5360 C   0  0  0  0  0  0  0  0  0  0  0  0
   37.1739   30.9085   51.3173 H   0  0  0  0  0  0  0  0  0  0  0  0
   38.0547   30.1102   49.9395 H   0  0  0  0  0  0  0  0  0  0  0  0
   36.8534   28.0531   50.0747 H   0  0  0  0  0  0  0  0  0  0  0  0
   34.8675   31.8276   49.5218 H   0  0  0  0  0  0  0  0  0  0  0  0
   27.7608   26.5005   47.3122 H   0  0  0  0  0  0  0  0  0  0  0  0
   29.1584   29.0257   50.4324 H   0  0  0  0  0  0  0  0  0  0  0  0
   26.9926   28.2137   49.0765 H   0  0  0  0  0  0  0  0  0  0  0  0
   36.3529   32.4750   49.3525 H   0  0  0  0  0  0  0  0  0  0  0  0
   37.9119   32.7436   50.1776 H   0  0  0  0  0  0  0  0  0  0  0  0
   37.3057   29.8239   48.0675 H   0  0  0  0  0  0  0  0  0  0  0  0
   38.5886   29.4212   45.9401 H   0  0  0  0  0  0  0  0  0  0  0  0
   40.0846   34.5964   46.5494 H   0  0  0  0  0  0  0  0  0  0  0  0
   41.4129   33.4255   46.2378 H   0  0  0  0  0  0  0  0  0  0  0  0
   39.1320   34.2560   44.3602 H   0  0  0  0  0  0  0  0  0  0  0  0
   40.9025   34.3777   44.0827 H   0  0  0  0  0  0  0  0  0  0  0  0
   40.1018   32.7697   44.0827 H   0  0  0  0  0  0  0  0  0  0  0  0
  2  3  2  0
  3  1  1  0
  4  3  1  0
  5  4  2  0
  6  5  1  0
  6  7  2  0
  7  2  1  0
  8  6  1  0
  8 10  1  0
  9  8  2  0
 11 12  1  0
 11 15  1  0
 12 13  2  0
 13 10  1  0
 13 14  1  0
 15 14  2  0
 16  1  1  0
 17 16  1  0
 18 17  2  0
 19 18  1  0
 20 19  2  0
 20 21  1  0
 21 22  2  0
 22 17  1  0
 23 21  1  0
 24 23  1  0
  1 25  1  0
  1 26  1  0
  2 27  1  0
  4 28  1  0
 11 29  1  0
 14 30  1  0
 15 31  1  0
 16 32  1  0
 16 33  1  0
 18 34  1  0
 19 35  1  0
 23 36  1  0
 23 37  1  0
 24 38  1  0
 24 39  1  0
 24 40  1  0
M  ISO  8  25   8  26   8  27  14  28  14  29   9  30  14  31  14  32   8
M  ISO  8  33   8  34  14  35  14  36   8  37   8  38   8  39   8  40   8
M  END
>  <minimizedAffinity>  (1) 
-5.32963085

>  <minimizedRMSD>  (1) 
0.912636757

$$$$
