
     RDKit          3D

 40 42  0  0  0  0  0  0  0  0999 V2000
   37.1300   30.7510   50.3090 C   0  0  0  0  0  0  0  0  0  0  0  0
   35.9510   28.6530   49.8480 C   0  0  0  0  0  0  0  0  0  0  0  0
   35.9790   30.0550   49.9020 C   0  0  0  0  0  0  0  0  0  0  0  0
   34.8360   30.7140   49.5160 C   0  0  0  0  0  0  0  0  0  0  0  0
   33.7370   30.0270   49.0990 N   0  0  0  0  0  0  0  0  0  0  0  0
   33.7430   28.6900   49.0560 C   0  0  0  0  0  0  0  0  0  0  0  0
   34.8220   28.0460   49.4230 N   0  0  0  0  0  0  0  0  0  0  0  0
   32.5600   27.9440   48.6110 C   0  0  0  0  0  0  0  0  0  0  0  0
   32.4960   27.4310   47.4710 O   0  0  0  0  0  0  0  0  0  0  0  0
   31.4580   27.7770   49.4390 O   0  0  0  0  0  0  0  0  0  0  0  0
   30.1920   27.6260   48.8690 C   0  0  0  0  0  0  0  0  0  0  0  0
   29.1550   28.4850   49.2110 C   0  0  0  0  0  0  0  0  0  0  0  0
   28.0840   28.0200   48.4520 C   0  0  0  0  0  0  0  0  0  0  0  0
   28.4570   26.9590   47.7100 N   0  0  0  0  0  0  0  0  0  0  0  0
   29.7470   26.7260   47.9730 N   0  0  0  0  0  0  0  0  0  0  0  0
   37.2870   32.0530   49.6280 C   0  0  0  0  0  0  0  0  0  0  0  0
   38.0070   31.8170   48.3540 C   0  0  0  0  0  0  0  0  0  0  0  0
   37.9080   30.6240   47.7310 C   0  0  0  0  0  0  0  0  0  0  0  0
   38.6230   30.4010   46.5530 C   0  0  0  0  0  0  0  0  0  0  0  0
   39.3970   31.4120   46.0760 N   0  0  0  0  0  0  0  0  0  0  0  0
   39.4760   32.5720   46.7020 C   0  0  0  0  0  0  0  0  0  0  0  0
   38.7980   32.8140   47.8430 N   0  0  0  0  0  0  0  0  0  0  0  0
   40.3080   33.6710   46.1560 C   0  0  0  0  0  0  0  0  0  0  0  0
   40.1270   33.7460   44.6230 C   0  0  0  0  0  0  0  0  0  0  0  0
   37.0683   30.9273   51.3930 H   0  0  0  0  0  0  0  0  0  0  0  0
   38.0002   30.1329   50.0430 H   0  0  0  0  0  0  0  0  0  0  0  0
   36.8294   28.0614   50.1453 H   0  0  0  0  0  0  0  0  0  0  0  0
   34.8089   31.8133   49.5445 H   0  0  0  0  0  0  0  0  0  0  0  0
   29.1751   29.3309   49.9139 H   0  0  0  0  0  0  0  0  0  0  0  0
   27.0748   28.4576   48.4575 H   0  0  0  0  0  0  0  0  0  0  0  0
   27.8598   26.4267   47.0612 H   0  0  0  0  0  0  0  0  0  0  0  0
   36.2982   32.4893   49.4232 H   0  0  0  0  0  0  0  0  0  0  0  0
   37.8510   32.7520   50.2631 H   0  0  0  0  0  0  0  0  0  0  0  0
   37.2682   29.8326   48.1486 H   0  0  0  0  0  0  0  0  0  0  0  0
   38.5621   29.4370   46.0268 H   0  0  0  0  0  0  0  0  0  0  0  0
   39.9977   34.6245   46.6083 H   0  0  0  0  0  0  0  0  0  0  0  0
   41.3656   33.4793   46.3900 H   0  0  0  0  0  0  0  0  0  0  0  0
   39.1337   34.1576   44.3908 H   0  0  0  0  0  0  0  0  0  0  0  0
   40.9031   34.3966   44.1936 H   0  0  0  0  0  0  0  0  0  0  0  0
   40.2154   32.7372   44.1936 H   0  0  0  0  0  0  0  0  0  0  0  0
  2  3  2  0
  3  1  1  0
  4  3  1  0
  5  4  2  0
  6  5  1  0
  6  7  2  0
  7  2  1  0
  8  6  1  0
  8 10  1  0
  9  8  2  0
 11 12  1  0
 11 10  1  0
 13 12  2  0
 14 15  1  0
 14 13  1  0
 15 11  2  0
 16  1  1  0
 17 16  1  0
 18 17  2  0
 19 18  1  0
 20 19  2  0
 20 21  1  0
 21 22  2  0
 22 17  1  0
 23 21  1  0
 24 23  1  0
  1 25  1  0
  1 26  1  0
  2 27  1  0
  4 28  1  0
 12 29  1  0
 13 30  1  0
 14 31  1  0
 16 32  1  0
 16 33  1  0
 18 34  1  0
 19 35  1  0
 23 36  1  0
 23 37  1  0
 24 38  1  0
 24 39  1  0
 24 40  1  0
M  ISO  8  25   8  26   8  27  14  28  14  29  14  30  14  31   9  32   8
M  ISO  8  33   8  34  14  35  14  36   8  37   8  38   8  39   8  40   8
M  END
>  <minimizedAffinity>  (1) 
-5.26977348

>  <minimizedRMSD>  (1) 
0.988307893

$$$$
