
     RDKit          3D

 37 38  0  0  0  0  0  0  0  0999 V2000
   36.9810   30.5560   50.1460 C   0  0  0  0  0  0  0  0  0  0  0  0
   35.6460   28.5300   49.7850 C   0  0  0  0  0  0  0  0  0  0  0  0
   35.8260   29.9160   49.6500 C   0  0  0  0  0  0  0  0  0  0  0  0
   34.8420   30.6110   48.9950 C   0  0  0  0  0  0  0  0  0  0  0  0
   33.7460   29.9740   48.5020 N   0  0  0  0  0  0  0  0  0  0  0  0
   33.5980   28.6510   48.6430 C   0  0  0  0  0  0  0  0  0  0  0  0
   34.5310   27.9770   49.2680 N   0  0  0  0  0  0  0  0  0  0  0  0
   32.4170   27.9600   48.1160 C   0  0  0  0  0  0  0  0  0  0  0  0
   32.0780   28.0730   46.9150 O   0  0  0  0  0  0  0  0  0  0  0  0
   31.6320   27.1560   48.9310 O   0  0  0  0  0  0  0  0  0  0  0  0
   30.3270   27.5590   49.2160 C   0  0  0  0  0  0  0  0  0  0  0  0
   30.2070   28.6080   50.1640 N   0  0  0  0  0  0  0  0  0  0  0  0
   29.3390   26.9980   48.6420 O   0  0  0  0  0  0  0  0  0  0  0  0
   37.2030   31.8890   49.5490 C   0  0  0  0  0  0  0  0  0  0  0  0
   37.9650   31.7030   48.2930 C   0  0  0  0  0  0  0  0  0  0  0  0
   37.9290   30.5200   47.6440 C   0  0  0  0  0  0  0  0  0  0  0  0
   38.6830   30.3460   46.4820 C   0  0  0  0  0  0  0  0  0  0  0  0
   39.4320   31.3960   46.0480 N   0  0  0  0  0  0  0  0  0  0  0  0
   39.4480   32.5460   46.6990 C   0  0  0  0  0  0  0  0  0  0  0  0
   38.7300   32.7360   47.8210 N   0  0  0  0  0  0  0  0  0  0  0  0
   40.2490   33.6870   46.2010 C   0  0  0  0  0  0  0  0  0  0  0  0
   40.1480   33.7610   44.6640 C   0  0  0  0  0  0  0  0  0  0  0  0
   36.8771   30.6724   51.2349 H   0  0  0  0  0  0  0  0  0  0  0  0
   37.8447   29.9285   49.8809 H   0  0  0  0  0  0  0  0  0  0  0  0
   36.3959   27.9113   50.2996 H   0  0  0  0  0  0  0  0  0  0  0  0
   34.9404   31.6990   48.8665 H   0  0  0  0  0  0  0  0  0  0  0  0
   29.2756   28.9607   50.4267 H   0  0  0  0  0  0  0  0  0  0  0  0
   31.0513   29.0167   50.5894 H   0  0  0  0  0  0  0  0  0  0  0  0
   36.2364   32.3674   49.3326 H   0  0  0  0  0  0  0  0  0  0  0  0
   37.7614   32.5327   50.2446 H   0  0  0  0  0  0  0  0  0  0  0  0
   37.3087   29.6971   48.0288 H   0  0  0  0  0  0  0  0  0  0  0  0
   38.6720   29.3916   45.9352 H   0  0  0  0  0  0  0  0  0  0  0  0
   39.8661   34.6210   46.6380 H   0  0  0  0  0  0  0  0  0  0  0  0
   41.3010   33.5478   46.4908 H   0  0  0  0  0  0  0  0  0  0  0  0
   39.2902   34.3895   44.3828 H   0  0  0  0  0  0  0  0  0  0  0  0
   41.0717   34.1976   44.2564 H   0  0  0  0  0  0  0  0  0  0  0  0
   40.0101   32.7486   44.2564 H   0  0  0  0  0  0  0  0  0  0  0  0
  3  2  2  0
  3  1  1  0
  4  3  1  0
  5  6  1  0
  5  4  2  0
  6  7  2  0
  7  2  1  0
  8  6  1  0
  8 10  1  0
  9  8  2  0
 10 11  1  0
 11 12  1  0
 13 11  2  0
 14  1  1  0
 15 14  1  0
 16 15  2  0
 17 16  1  0
 18 17  2  0
 18 19  1  0
 19 20  2  0
 20 15  1  0
 21 19  1  0
 22 21  1  0
  1 23  1  0
  1 24  1  0
  2 25  1  0
  4 26  1  0
 12 27  1  0
 12 28  1  0
 14 29  1  0
 14 30  1  0
 16 31  1  0
 17 32  1  0
 21 33  1  0
 21 34  1  0
 22 35  1  0
 22 36  1  0
 22 37  1  0
M  ISO  8  23   8  24   8  25  14  26  14  29   8  30   8  31  14  32  14
M  ISO  5  33   8  34   8  35   8  36   8  37   8
M  END
>  <minimizedAffinity>  (1) 
-5.25469542

>  <minimizedRMSD>  (1) 
1.1327672

$$$$
