
     RDKit          3D

 40 42  0  0  0  0  0  0  0  0999 V2000
   37.4420   32.0960   49.5170 C   0  0  0  0  0  0  0  0  0  0  0  0
   38.1230   31.8370   48.2280 C   0  0  0  0  0  0  0  0  0  0  0  0
   37.9890   30.6380   47.6170 C   0  0  0  0  0  0  0  0  0  0  0  0
   38.6650   30.3890   46.4200 C   0  0  0  0  0  0  0  0  0  0  0  0
   39.4400   31.3880   45.9120 N   0  0  0  0  0  0  0  0  0  0  0  0
   39.5540   32.5550   46.5250 C   0  0  0  0  0  0  0  0  0  0  0  0
   38.9140   32.8180   47.6820 N   0  0  0  0  0  0  0  0  0  0  0  0
   40.3760   33.6350   45.9470 C   0  0  0  0  0  0  0  0  0  0  0  0
   40.0890   33.7650   44.4380 C   0  0  0  0  0  0  0  0  0  0  0  0
   37.3390   30.8080   50.2380 C   0  0  0  0  0  0  0  0  0  0  0  0
   36.1470   28.6990   49.8620 C   0  0  0  0  0  0  0  0  0  0  0  0
   36.1620   30.1020   49.9210 C   0  0  0  0  0  0  0  0  0  0  0  0
   34.9860   30.7460   49.6280 C   0  0  0  0  0  0  0  0  0  0  0  0
   33.8710   30.0450   49.2980 N   0  0  0  0  0  0  0  0  0  0  0  0
   33.8820   28.7120   49.2480 C   0  0  0  0  0  0  0  0  0  0  0  0
   34.9930   28.0800   49.5240 N   0  0  0  0  0  0  0  0  0  0  0  0
   32.6730   27.9550   48.8950 C   0  0  0  0  0  0  0  0  0  0  0  0
   32.6770   27.1260   47.9560 O   0  0  0  0  0  0  0  0  0  0  0  0
   31.4880   28.1280   49.5880 O   0  0  0  0  0  0  0  0  0  0  0  0
   30.3060   27.4740   49.1210 C   0  0  0  0  0  0  0  0  0  0  0  0
   29.3040   27.2640   50.2700 C   0  0  0  0  0  0  0  0  0  0  0  0
   29.0070   28.1870   49.1020 C   0  0  0  0  0  0  0  0  0  0  0  0
   36.4371   32.5046   49.3344 H   0  0  0  0  0  0  0  0  0  0  0  0
   38.0091   32.8266   50.1124 H   0  0  0  0  0  0  0  0  0  0  0  0
   37.3495   29.8610   48.0612 H   0  0  0  0  0  0  0  0  0  0  0  0
   38.5748   29.4208   45.9058 H   0  0  0  0  0  0  0  0  0  0  0  0
   40.1341   34.5844   46.4471 H   0  0  0  0  0  0  0  0  0  0  0  0
   41.4400   33.3971   46.0933 H   0  0  0  0  0  0  0  0  0  0  0  0
   39.0960   34.2148   44.2910 H   0  0  0  0  0  0  0  0  0  0  0  0
   40.8537   34.4046   43.9731 H   0  0  0  0  0  0  0  0  0  0  0  0
   40.1125   32.7684   43.9731 H   0  0  0  0  0  0  0  0  0  0  0  0
   38.2058   30.1852   49.9720 H   0  0  0  0  0  0  0  0  0  0  0  0
   37.3141   31.0303   51.3150 H   0  0  0  0  0  0  0  0  0  0  0  0
   37.0531   28.1168   50.0856 H   0  0  0  0  0  0  0  0  0  0  0  0
   34.9462   31.8448   49.6610 H   0  0  0  0  0  0  0  0  0  0  0  0
   30.8188   26.8869   48.3449 H   0  0  0  0  0  0  0  0  0  0  0  0
   28.7690   26.3084   50.3728 H   0  0  0  0  0  0  0  0  0  0  0  0
   29.3278   27.3597   51.3656 H   0  0  0  0  0  0  0  0  0  0  0  0
   28.9800   29.2752   49.2602 H   0  0  0  0  0  0  0  0  0  0  0  0
   28.1849   28.2654   48.3753 H   0  0  0  0  0  0  0  0  0  0  0  0
  1 10  1  0
  2  1  1  0
  3  2  2  0
  4  3  1  0
  5  4  2  0
  5  6  1  0
  6  7  2  0
  7  2  1  0
  8  6  1  0
  9  8  1  0
 11 12  2  0
 12 10  1  0
 13 12  1  0
 14 13  2  0
 15 14  1  0
 15 16  2  0
 16 11  1  0
 17 15  1  0
 17 19  1  0
 18 17  2  0
 20 19  1  0
 20 21  1  0
 22 20  1  0
 22 21  1  0
  1 23  1  0
  1 24  1  0
  3 25  1  0
  4 26  1  0
  8 27  1  0
  8 28  1  0
  9 29  1  0
  9 30  1  0
  9 31  1  0
 10 32  1  0
 10 33  1  0
 11 34  1  0
 13 35  1  0
 20 36  1  0
 21 37  1  0
 21 38  1  0
 22 39  1  0
 22 40  1  0
M  ISO  8  23   8  24   8  25  14  26  14  27   8  28   8  29   8  30   8
M  ISO  8  31   8  32   8  33   8  34  14  35  14  36  13  37  13  38  13
M  ISO  2  39  13  40  13
M  END
>  <minimizedAffinity>  (1) 
-5.20615435

>  <minimizedRMSD>  (1) 
0.711362779

$$$$
