
     RDKit          3D

 36 37  0  0  0  0  0  0  0  0999 V2000
   37.3010   32.1100   49.5630 C   0  0  0  0  0  0  0  0  0  0  0  0
   38.0210   31.8490   48.2950 C   0  0  0  0  0  0  0  0  0  0  0  0
   37.9150   30.6470   47.6900 C   0  0  0  0  0  0  0  0  0  0  0  0
   38.6340   30.3980   46.5200 C   0  0  0  0  0  0  0  0  0  0  0  0
   39.4200   31.3950   46.0310 N   0  0  0  0  0  0  0  0  0  0  0  0
   39.5050   32.5660   46.6400 C   0  0  0  0  0  0  0  0  0  0  0  0
   38.8220   32.8250   47.7700 N   0  0  0  0  0  0  0  0  0  0  0  0
   40.3520   33.6470   46.0800 C   0  0  0  0  0  0  0  0  0  0  0  0
   40.1080   33.7610   44.5590 C   0  0  0  0  0  0  0  0  0  0  0  0
   37.1810   30.8270   50.2880 C   0  0  0  0  0  0  0  0  0  0  0  0
   36.0620   28.6880   49.8670 C   0  0  0  0  0  0  0  0  0  0  0  0
   36.0410   30.0910   49.9110 C   0  0  0  0  0  0  0  0  0  0  0  0
   34.8690   30.7040   49.5500 C   0  0  0  0  0  0  0  0  0  0  0  0
   33.7860   29.9760   49.1670 N   0  0  0  0  0  0  0  0  0  0  0  0
   33.8330   28.6400   49.1320 C   0  0  0  0  0  0  0  0  0  0  0  0
   34.9450   28.0380   49.4750 N   0  0  0  0  0  0  0  0  0  0  0  0
   32.6690   27.8480   48.7180 C   0  0  0  0  0  0  0  0  0  0  0  0
   32.7370   27.0370   47.7630 O   0  0  0  0  0  0  0  0  0  0  0  0
   31.4520   27.9720   49.3690 O   0  0  0  0  0  0  0  0  0  0  0  0
   30.3410   27.1410   49.0410 C   0  0  0  0  0  0  0  0  0  0  0  0
   36.3004   32.5135   49.3487 H   0  0  0  0  0  0  0  0  0  0  0  0
   37.8488   32.8448   50.1712 H   0  0  0  0  0  0  0  0  0  0  0  0
   37.2657   29.8683   48.1166 H   0  0  0  0  0  0  0  0  0  0  0  0
   38.5673   29.4261   46.0092 H   0  0  0  0  0  0  0  0  0  0  0  0
   40.0959   34.6008   46.5644 H   0  0  0  0  0  0  0  0  0  0  0  0
   41.4111   33.4135   46.2636 H   0  0  0  0  0  0  0  0  0  0  0  0
   39.1249   34.2203   44.3788 H   0  0  0  0  0  0  0  0  0  0  0  0
   40.8929   34.3856   44.1075 H   0  0  0  0  0  0  0  0  0  0  0  0
   40.1325   32.7582   44.1075 H   0  0  0  0  0  0  0  0  0  0  0  0
   38.0751   30.2209   50.0800 H   0  0  0  0  0  0  0  0  0  0  0  0
   37.0854   31.0597   51.3588 H   0  0  0  0  0  0  0  0  0  0  0  0
   36.9683   28.1304   50.1457 H   0  0  0  0  0  0  0  0  0  0  0  0
   34.8036   31.8019   49.5705 H   0  0  0  0  0  0  0  0  0  0  0  0
   29.8642   26.7844   49.9659 H   0  0  0  0  0  0  0  0  0  0  0  0
   29.6128   27.7179   48.4520 H   0  0  0  0  0  0  0  0  0  0  0  0
   30.6887   26.2795   48.4520 H   0  0  0  0  0  0  0  0  0  0  0  0
  1 10  1  0
  2  1  1  0
  3  2  2  0
  4  3  1  0
  5  4  2  0
  5  6  1  0
  6  7  2  0
  7  2  1  0
  8  6  1  0
  9  8  1  0
 11 12  2  0
 12 10  1  0
 13 12  1  0
 14 13  2  0
 15 14  1  0
 15 16  2  0
 16 11  1  0
 17 15  1  0
 17 19  1  0
 18 17  2  0
 20 19  1  0
  1 21  1  0
  1 22  1  0
  3 23  1  0
  4 24  1  0
  8 25  1  0
  8 26  1  0
  9 27  1  0
  9 28  1  0
  9 29  1  0
 10 30  1  0
 10 31  1  0
 11 32  1  0
 13 33  1  0
 20 34  1  0
 20 35  1  0
 20 36  1  0
M  ISO  8  21   8  22   8  23  14  24  14  25   8  26   8  27   8  28   8
M  ISO  8  29   8  30   8  31   8  32  14  33  14  34   8  35   8  36   8
M  END
>  <minimizedAffinity>  (1) 
-4.89275694

>  <minimizedRMSD>  (1) 
0.807185352

$$$$
