
     RDKit          3D

 37 40  0  0  0  0  0  0  0  0999 V2000
   32.4230   29.8770   46.1750 C   0  0  0  0  0  0  0  0  0  0  0  0
   32.2230   28.5010   46.1240 C   0  0  0  0  0  0  0  0  0  0  0  0
   33.2150   27.6640   46.6580 C   0  0  0  0  0  0  0  0  0  0  0  0
   34.3260   28.2520   47.2010 N   0  0  0  0  0  0  0  0  0  0  0  0
   34.4900   29.6010   47.2350 C   0  0  0  0  0  0  0  0  0  0  0  0
   33.5450   30.4050   46.7260 N   0  0  0  0  0  0  0  0  0  0  0  0
   35.7130   30.1030   47.8380 C   0  0  0  0  0  0  0  0  0  0  0  0
   36.6910   30.7740   47.1490 C   0  0  0  0  0  0  0  0  0  0  0  0
   37.7020   31.1110   47.9820 N   0  0  0  0  0  0  0  0  0  0  0  0
   37.3820   30.6570   49.2210 C   0  0  0  0  0  0  0  0  0  0  0  0
   38.0390   30.7190   50.4440 C   0  0  0  0  0  0  0  0  0  0  0  0
   37.4600   30.1590   51.5560 C   0  0  0  0  0  0  0  0  0  0  0  0
   36.2390   29.5460   51.4430 C   0  0  0  0  0  0  0  0  0  0  0  0
   35.5380   29.4580   50.2350 C   0  0  0  0  0  0  0  0  0  0  0  0
   36.1540   30.0350   49.1340 C   0  0  0  0  0  0  0  0  0  0  0  0
   33.1810   26.2410   46.6930 N   0  0  0  0  0  0  0  0  0  0  0  0
   33.9580   25.4690   45.9020 C   0  0  0  0  0  0  0  0  0  0  0  0
   33.8230   24.0920   46.0410 C   0  0  0  0  0  0  0  0  0  0  0  0
   34.7130   23.2900   45.1340 C   0  0  0  0  0  0  0  0  0  0  0  0
   32.9280   23.5230   46.9530 C   0  0  0  0  0  0  0  0  0  0  0  0
   32.8740   22.2680   47.0090 O   0  0  0  0  0  0  0  0  0  0  0  0
   32.2000   24.3790   47.6950 N   0  0  0  0  0  0  0  0  0  0  0  0
   32.3160   25.7140   47.5770 C   0  0  0  0  0  0  0  0  0  0  0  0
   31.5800   26.4140   48.3250 O   0  0  0  0  0  0  0  0  0  0  0  0
   31.6572   30.5494   45.7609 H   0  0  0  0  0  0  0  0  0  0  0  0
   31.3106   28.0799   45.6765 H   0  0  0  0  0  0  0  0  0  0  0  0
   36.6579   31.0048   46.0740 H   0  0  0  0  0  0  0  0  0  0  0  0
   38.5593   31.6199   47.7233 H   0  0  0  0  0  0  0  0  0  0  0  0
   39.0182   31.2143   50.5209 H   0  0  0  0  0  0  0  0  0  0  0  0
   37.9714   30.2019   52.5290 H   0  0  0  0  0  0  0  0  0  0  0  0
   35.7894   29.1027   52.3437 H   0  0  0  0  0  0  0  0  0  0  0  0
   34.5589   28.9619   50.1629 H   0  0  0  0  0  0  0  0  0  0  0  0
   34.6639   25.9089   45.1822 H   0  0  0  0  0  0  0  0  0  0  0  0
   35.3952   22.6752   45.7395 H   0  0  0  0  0  0  0  0  0  0  0  0
   34.0964   22.6366   44.4992 H   0  0  0  0  0  0  0  0  0  0  0  0
   35.2989   23.9710   44.4992 H   0  0  0  0  0  0  0  0  0  0  0  0
   31.5298   23.9976   48.3779 H   0  0  0  0  0  0  0  0  0  0  0  0
  1  6  2  0
  2  1  1  0
  2  3  2  0
  3 16  1  0
  3  4  1  0
  4  5  2  0
  5  7  1  0
  6  5  1  0
  7 15  1  0
  8  7  2  0
  8  9  1  0
  9 10  1  0
 10 11  2  0
 11 12  1  0
 13 12  2  0
 14 13  1  0
 15 10  1  0
 15 14  2  0
 16 23  1  0
 17 18  2  0
 17 16  1  0
 18 20  1  0
 19 18  1  0
 20 21  2  0
 20 22  1  0
 23 22  1  0
 23 24  2  0
  1 25  1  0
  2 26  1  0
  8 27  1  0
  9 28  1  0
 11 29  1  0
 12 30  1  0
 13 31  1  0
 14 32  1  0
 17 33  1  0
 19 34  1  0
 19 35  1  0
 19 36  1  0
 22 37  1  0
M  ISO  8  25  14  26  14  27  14  28   9  29  14  30  14  31  14  32  14
M  ISO  5  33  14  34   8  35   8  36   8  37   9
M  END
>  <minimizedAffinity>  (1) 
-6.02166176

>  <minimizedRMSD>  (1) 
0.856604874

$$$$
