
     RDKit          3D

 39 42  0  0  0  0  0  0  0  0999 V2000
   35.6770   30.0780   47.7760 C   0  0  0  0  0  0  0  0  0  0  0  0
   36.6830   30.7000   47.0860 C   0  0  0  0  0  0  0  0  0  0  0  0
   37.6970   30.9990   47.9110 N   0  0  0  0  0  0  0  0  0  0  0  0
   37.3630   30.5730   49.1550 C   0  0  0  0  0  0  0  0  0  0  0  0
   38.0400   30.6310   50.3610 C   0  0  0  0  0  0  0  0  0  0  0  0
   37.4440   30.1090   51.4810 C   0  0  0  0  0  0  0  0  0  0  0  0
   36.1840   29.5350   51.3950 C   0  0  0  0  0  0  0  0  0  0  0  0
   35.4650   29.4550   50.2000 C   0  0  0  0  0  0  0  0  0  0  0  0
   36.1000   29.9930   49.0930 C   0  0  0  0  0  0  0  0  0  0  0  0
   32.3390   30.0090   46.1920 C   0  0  0  0  0  0  0  0  0  0  0  0
   32.1060   28.6290   46.1160 C   0  0  0  0  0  0  0  0  0  0  0  0
   33.0870   27.7350   46.6030 C   0  0  0  0  0  0  0  0  0  0  0  0
   34.2050   28.2960   47.1210 N   0  0  0  0  0  0  0  0  0  0  0  0
   34.4250   29.6160   47.1920 C   0  0  0  0  0  0  0  0  0  0  0  0
   33.4990   30.4630   46.7330 N   0  0  0  0  0  0  0  0  0  0  0  0
   32.9810   26.3350   46.5870 N   0  0  0  0  0  0  0  0  0  0  0  0
   33.6670   25.5240   45.6130 C   0  0  0  0  0  0  0  0  0  0  0  0
   34.5730   24.4990   46.2440 C   0  0  0  0  0  0  0  0  0  0  0  0
   33.9570   23.8550   47.4590 C   0  0  0  0  0  0  0  0  0  0  0  0
   32.4840   24.1540   47.5950 C   0  0  0  0  0  0  0  0  0  0  0  0
   32.1740   25.6220   47.5520 C   0  0  0  0  0  0  0  0  0  0  0  0
   36.6623   30.9226   46.0090 H   0  0  0  0  0  0  0  0  0  0  0  0
   38.5746   31.4691   47.6468 H   0  0  0  0  0  0  0  0  0  0  0  0
   39.0389   31.0879   50.4203 H   0  0  0  0  0  0  0  0  0  0  0  0
   37.9660   30.1457   52.4486 H   0  0  0  0  0  0  0  0  0  0  0  0
   35.7306   29.1243   52.3092 H   0  0  0  0  0  0  0  0  0  0  0  0
   34.4663   28.9976   50.1424 H   0  0  0  0  0  0  0  0  0  0  0  0
   31.5877   30.7192   45.8162 H   0  0  0  0  0  0  0  0  0  0  0  0
   31.1705   28.2459   45.6824 H   0  0  0  0  0  0  0  0  0  0  0  0
   34.2723   26.1813   44.9714 H   0  0  0  0  0  0  0  0  0  0  0  0
   32.9038   24.9820   45.0353 H   0  0  0  0  0  0  0  0  0  0  0  0
   34.7911   23.7165   45.5023 H   0  0  0  0  0  0  0  0  0  0  0  0
   35.4886   25.0159   46.5674 H   0  0  0  0  0  0  0  0  0  0  0  0
   34.0892   22.7655   47.3846 H   0  0  0  0  0  0  0  0  0  0  0  0
   34.4622   24.2674   48.3449 H   0  0  0  0  0  0  0  0  0  0  0  0
   31.9489   23.6591   46.7711 H   0  0  0  0  0  0  0  0  0  0  0  0
   32.1632   23.7800   48.5785 H   0  0  0  0  0  0  0  0  0  0  0  0
   32.3575   26.0497   48.5487 H   0  0  0  0  0  0  0  0  0  0  0  0
   31.1219   25.7306   47.2500 H   0  0  0  0  0  0  0  0  0  0  0  0
  1  9  1  0
  2  1  2  0
  2  3  1  0
  3  4  1  0
  4  5  2  0
  5  6  1  0
  7  6  2  0
  8  7  1  0
  9  4  1  0
  9  8  2  0
 10 15  2  0
 11 10  1  0
 11 12  2  0
 12 13  1  0
 13 14  2  0
 14  1  1  0
 15 14  1  0
 16 12  1  0
 16 21  1  0
 17 18  1  0
 17 16  1  0
 18 19  1  0
 19 20  1  0
 21 20  1  0
  2 22  1  0
  3 23  1  0
  5 24  1  0
  6 25  1  0
  7 26  1  0
  8 27  1  0
 10 28  1  0
 11 29  1  0
 17 30  1  0
 17 31  1  0
 18 32  1  0
 18 33  1  0
 19 34  1  0
 19 35  1  0
 20 36  1  0
 20 37  1  0
 21 38  1  0
 21 39  1  0
M  ISO  8  22  14  23   9  24  14  25  14  26  14  27  14  28  14  29  14
M  ISO  8  30  13  31  13  32  13  33  13  34  13  35  13  36  13  37  13
M  ISO  2  38  13  39  13
M  END
>  <minimizedAffinity>  (1) 
-5.93455744

>  <minimizedRMSD>  (1) 
0.757356107

$$$$
