
     RDKit          3D

 35 39  0  0  0  0  0  0  0  0999 V2000
   32.3540   29.8850   46.1850 C   0  0  0  0  0  0  0  0  0  0  0  0
   32.1340   28.5100   46.1470 C   0  0  0  0  0  0  0  0  0  0  0  0
   33.1140   27.6550   46.6790 C   0  0  0  0  0  0  0  0  0  0  0  0
   34.2320   28.2250   47.2070 N   0  0  0  0  0  0  0  0  0  0  0  0
   34.4240   29.5550   47.2330 C   0  0  0  0  0  0  0  0  0  0  0  0
   33.4960   30.3860   46.7270 N   0  0  0  0  0  0  0  0  0  0  0  0
   35.6580   30.0400   47.8220 C   0  0  0  0  0  0  0  0  0  0  0  0
   36.6530   30.6890   47.1050 C   0  0  0  0  0  0  0  0  0  0  0  0
   37.6800   31.0230   47.9240 N   0  0  0  0  0  0  0  0  0  0  0  0
   37.3690   30.6010   49.1540 C   0  0  0  0  0  0  0  0  0  0  0  0
   38.0430   30.6720   50.3690 C   0  0  0  0  0  0  0  0  0  0  0  0
   37.4580   30.1340   51.5090 C   0  0  0  0  0  0  0  0  0  0  0  0
   36.2170   29.5380   51.4170 C   0  0  0  0  0  0  0  0  0  0  0  0
   35.5070   29.4440   50.2230 C   0  0  0  0  0  0  0  0  0  0  0  0
   36.1160   29.9860   49.1180 C   0  0  0  0  0  0  0  0  0  0  0  0
   32.9200   26.2440   46.6570 N   0  0  0  0  0  0  0  0  0  0  0  0
   33.8510   25.3330   46.9990 C   0  0  0  0  0  0  0  0  0  0  0  0
   33.3180   24.0890   46.8560 N   0  0  0  0  0  0  0  0  0  0  0  0
   32.0320   24.2120   46.4180 C   0  0  0  0  0  0  0  0  0  0  0  0
   31.0500   23.2760   46.1150 C   0  0  0  0  0  0  0  0  0  0  0  0
   29.8710   23.7790   45.7030 N   0  0  0  0  0  0  0  0  0  0  0  0
   29.6550   25.1030   45.5900 C   0  0  0  0  0  0  0  0  0  0  0  0
   30.6080   26.0340   45.8830 N   0  0  0  0  0  0  0  0  0  0  0  0
   31.8140   25.5710   46.3040 C   0  0  0  0  0  0  0  0  0  0  0  0
   31.5984   30.5704   45.7736 H   0  0  0  0  0  0  0  0  0  0  0  0
   31.2112   28.1016   45.7091 H   0  0  0  0  0  0  0  0  0  0  0  0
   36.6139   30.9019   46.0265 H   0  0  0  0  0  0  0  0  0  0  0  0
   38.5432   31.5129   47.6488 H   0  0  0  0  0  0  0  0  0  0  0  0
   39.0318   31.1505   50.4269 H   0  0  0  0  0  0  0  0  0  0  0  0
   37.9797   30.1829   52.4762 H   0  0  0  0  0  0  0  0  0  0  0  0
   35.7679   29.1178   52.3290 H   0  0  0  0  0  0  0  0  0  0  0  0
   34.5184   28.9647   50.1682 H   0  0  0  0  0  0  0  0  0  0  0  0
   34.8732   25.5573   47.3379 H   0  0  0  0  0  0  0  0  0  0  0  0
   31.2249   22.1938   46.2060 H   0  0  0  0  0  0  0  0  0  0  0  0
   28.6686   25.4486   45.2470 H   0  0  0  0  0  0  0  0  0  0  0  0
  1  6  2  0
  2  1  1  0
  2  3  2  0
  3  4  1  0
  4  5  2  0
  5  7  1  0
  6  5  1  0
  7 15  1  0
  8  7  2  0
  8  9  1  0
  9 10  1  0
 10 11  2  0
 11 12  1  0
 13 12  2  0
 14 13  1  0
 15 10  1  0
 15 14  2  0
 16  3  1  0
 16 17  1  0
 18 17  2  0
 19 18  1  0
 20 19  2  0
 21 20  1  0
 22 21  2  0
 22 23  1  0
 23 24  2  0
 24 19  1  0
 24 16  1  0
  1 25  1  0
  2 26  1  0
  8 27  1  0
  9 28  1  0
 11 29  1  0
 12 30  1  0
 13 31  1  0
 14 32  1  0
 17 33  1  0
 20 34  1  0
 22 35  1  0
M  ISO  8  25  14  26  14  27  14  28   9  29  14  30  14  31  14  32  14
M  ISO  3  33  14  34  14  35  14
M  END
>  <minimizedAffinity>  (1) 
-5.89616156

>  <minimizedRMSD>  (1) 
0.177605882

$$$$
