
     RDKit          3D

 26 28  0  0  0  0  0  0  0  0999 V2000
   35.4500   30.0100   47.8750 C   0  0  0  0  0  0  0  0  0  0  0  0
   36.4310   30.5620   47.0590 C   0  0  0  0  0  0  0  0  0  0  0  0
   37.5290   30.8440   47.7790 N   0  0  0  0  0  0  0  0  0  0  0  0
   37.2780   30.4820   49.0610 C   0  0  0  0  0  0  0  0  0  0  0  0
   38.0580   30.5530   50.2010 C   0  0  0  0  0  0  0  0  0  0  0  0
   37.5230   30.0960   51.4030 C   0  0  0  0  0  0  0  0  0  0  0  0
   36.2430   29.5880   51.4370 C   0  0  0  0  0  0  0  0  0  0  0  0
   35.4380   29.5080   50.2950 C   0  0  0  0  0  0  0  0  0  0  0  0
   35.9950   29.9650   49.1290 C   0  0  0  0  0  0  0  0  0  0  0  0
   32.2120   29.8980   46.1170 C   0  0  0  0  0  0  0  0  0  0  0  0
   31.6860   28.6930   46.5730 C   0  0  0  0  0  0  0  0  0  0  0  0
   32.4480   27.9380   47.4750 C   0  0  0  0  0  0  0  0  0  0  0  0
   33.6610   28.4310   47.8530 N   0  0  0  0  0  0  0  0  0  0  0  0
   34.1370   29.5950   47.3940 C   0  0  0  0  0  0  0  0  0  0  0  0
   33.4220   30.3380   46.5250 N   0  0  0  0  0  0  0  0  0  0  0  0
   31.9440   26.6700   47.9840 C   0  0  0  0  0  0  0  0  0  0  0  0
   30.9230   26.6680   48.7130 O   0  0  0  0  0  0  0  0  0  0  0  0
   36.3233   30.7419   45.9792 H   0  0  0  0  0  0  0  0  0  0  0  0
   38.4016   31.2591   47.4226 H   0  0  0  0  0  0  0  0  0  0  0  0
   39.0785   30.9614   50.1592 H   0  0  0  0  0  0  0  0  0  0  0  0
   38.1221   30.1407   52.3244 H   0  0  0  0  0  0  0  0  0  0  0  0
   35.8390   29.2324   52.3964 H   0  0  0  0  0  0  0  0  0  0  0  0
   34.4165   29.1015   50.3311 H   0  0  0  0  0  0  0  0  0  0  0  0
   31.6295   30.5055   45.4087 H   0  0  0  0  0  0  0  0  0  0  0  0
   30.6996   28.3428   46.2349 H   0  0  0  0  0  0  0  0  0  0  0  0
   32.4516   25.7270   47.7327 H   0  0  0  0  0  0  0  0  0  0  0  0
  1  9  1  0
  2  3  1  0
  2  1  2  0
  3  4  1  0
  4  9  2  0
  4  5  1  0
  5  6  2  0
  6  7  1  0
  8  7  2  0
  9  8  1  0
 10 15  2  0
 10 11  1  0
 11 12  2  0
 12 13  1  0
 12 16  1  0
 14 13  2  0
 14  1  1  0
 15 14  1  0
 16 17  2  0
  2 18  1  0
  3 19  1  0
  5 20  1  0
  6 21  1  0
  7 22  1  0
  8 23  1  0
 10 24  1  0
 11 25  1  0
 16 26  1  0
M  ISO  8  18  14  19   9  20  14  21  14  22  14  23  14  24  14  25  14
M  ISO  1  26   6
M  END
>  <minimizedAffinity>  (1) 
-5.51014853

>  <minimizedRMSD>  (1) 
0.748757064

$$$$
