
     RDKit          3D

 47 51  0  0  0  0  0  0  0  0999 V2000
   32.3230   29.9990   46.1630 C   0  0  0  0  0  0  0  0  0  0  0  0
   32.0330   28.6300   46.1590 C   0  0  0  0  0  0  0  0  0  0  0  0
   32.9870   27.7520   46.7190 C   0  0  0  0  0  0  0  0  0  0  0  0
   34.1290   28.2640   47.2320 N   0  0  0  0  0  0  0  0  0  0  0  0
   34.3720   29.6010   47.2180 C   0  0  0  0  0  0  0  0  0  0  0  0
   33.4840   30.4560   46.6920 N   0  0  0  0  0  0  0  0  0  0  0  0
   35.6280   30.0500   47.7930 C   0  0  0  0  0  0  0  0  0  0  0  0
   36.6370   30.6640   47.0620 C   0  0  0  0  0  0  0  0  0  0  0  0
   37.6660   30.9580   47.8800 N   0  0  0  0  0  0  0  0  0  0  0  0
   37.3420   30.5450   49.1390 C   0  0  0  0  0  0  0  0  0  0  0  0
   38.0480   30.6170   50.3220 C   0  0  0  0  0  0  0  0  0  0  0  0
   37.4550   30.1060   51.4690 C   0  0  0  0  0  0  0  0  0  0  0  0
   36.1970   29.5490   51.3960 C   0  0  0  0  0  0  0  0  0  0  0  0
   35.4710   29.4690   50.2090 C   0  0  0  0  0  0  0  0  0  0  0  0
   36.0860   29.9860   49.0850 C   0  0  0  0  0  0  0  0  0  0  0  0
   32.7120   26.3250   46.7260 C   0  0  0  0  0  0  0  0  0  0  0  0
   33.7110   25.4650   47.1450 C   0  0  0  0  0  0  0  0  0  0  0  0
   33.4020   24.1300   47.1340 C   0  0  0  0  0  0  0  0  0  0  0  0
   32.1800   23.6740   46.7340 N   0  0  0  0  0  0  0  0  0  0  0  0
   31.2270   24.5450   46.3300 C   0  0  0  0  0  0  0  0  0  0  0  0
   31.5240   25.8710   46.3380 N   0  0  0  0  0  0  0  0  0  0  0  0
   29.9470   24.1330   45.9070 N   0  0  0  0  0  0  0  0  0  0  0  0
   28.8040   24.9860   45.7590 C   0  0  0  0  0  0  0  0  0  0  0  0
   28.1110   24.8310   44.4320 C   0  0  0  0  0  0  0  0  0  0  0  0
   28.1240   23.4560   43.8610 C   0  0  0  0  0  0  0  0  0  0  0  0
   29.3780   22.6660   44.1210 C   0  0  0  0  0  0  0  0  0  0  0  0
   29.7160   22.7310   45.5800 C   0  0  0  0  0  0  0  0  0  0  0  0
   31.6024   30.7103   45.7331 H   0  0  0  0  0  0  0  0  0  0  0  0
   31.0925   28.2500   45.7335 H   0  0  0  0  0  0  0  0  0  0  0  0
   36.6013   30.8769   45.9834 H   0  0  0  0  0  0  0  0  0  0  0  0
   38.5460   31.4158   47.6026 H   0  0  0  0  0  0  0  0  0  0  0  0
   39.0516   31.0662   50.3557 H   0  0  0  0  0  0  0  0  0  0  0  0
   37.9870   30.1457   52.4310 H   0  0  0  0  0  0  0  0  0  0  0  0
   35.7453   29.1494   52.3159 H   0  0  0  0  0  0  0  0  0  0  0  0
   34.4673   29.0206   50.1694 H   0  0  0  0  0  0  0  0  0  0  0  0
   34.6965   25.8315   47.4683 H   0  0  0  0  0  0  0  0  0  0  0  0
   34.1624   23.4040   47.4575 H   0  0  0  0  0  0  0  0  0  0  0  0
   28.0857   24.7483   46.5575 H   0  0  0  0  0  0  0  0  0  0  0  0
   29.1632   26.0240   45.8187 H   0  0  0  0  0  0  0  0  0  0  0  0
   27.0617   25.1355   44.5596 H   0  0  0  0  0  0  0  0  0  0  0  0
   28.6706   25.4587   43.7229 H   0  0  0  0  0  0  0  0  0  0  0  0
   27.9935   23.5386   42.7719 H   0  0  0  0  0  0  0  0  0  0  0  0
   27.3103   22.9102   44.3610 H   0  0  0  0  0  0  0  0  0  0  0  0
   29.2184   21.6178   43.8279 H   0  0  0  0  0  0  0  0  0  0  0  0
   30.2063   23.0889   43.5335 H   0  0  0  0  0  0  0  0  0  0  0  0
   28.8811   22.3371   46.1782 H   0  0  0  0  0  0  0  0  0  0  0  0
   30.6078   22.1263   45.8015 H   0  0  0  0  0  0  0  0  0  0  0  0
  1  6  2  0
  2  1  1  0
  2  3  2  0
  3 16  1  0
  3  4  1  0
  5  4  2  0
  5  7  1  0
  6  5  1  0
  7 15  1  0
  8  7  2  0
  8  9  1  0
  9 10  1  0
 10 11  2  0
 11 12  1  0
 13 12  2  0
 14 13  1  0
 15 10  1  0
 15 14  2  0
 16 17  2  0
 18 17  1  0
 19 18  2  0
 20 21  2  0
 20 19  1  0
 21 16  1  0
 22 20  1  0
 23 22  1  0
 24 23  1  0
 25 26  1  0
 25 24  1  0
 26 27  1  0
 27 22  1  0
  1 28  1  0
  2 29  1  0
  8 30  1  0
  9 31  1  0
 11 32  1  0
 12 33  1  0
 13 34  1  0
 14 35  1  0
 17 36  1  0
 18 37  1  0
 23 38  1  0
 23 39  1  0
 24 40  1  0
 24 41  1  0
 25 42  1  0
 25 43  1  0
 26 44  1  0
 26 45  1  0
 27 46  1  0
 27 47  1  0
M  ISO  8  28  14  29  14  30  14  31   9  32  14  33  14  34  14  35  14
M  ISO  8  36  14  37  14  38  13  39  13  40  13  41  13  42  13  43  13
M  ISO  4  44  13  45  13  46  13  47  13
M  END
>  <minimizedAffinity>  (1) 
-6.65359926

>  <minimizedRMSD>  (1) 
0.130311444

$$$$
