
     RDKit          3D

 46 50  0  0  0  0  0  0  0  0999 V2000
   32.3170   30.0470   46.1030 C   0  0  0  0  0  0  0  0  0  0  0  0
   31.9800   28.6880   46.1350 C   0  0  0  0  0  0  0  0  0  0  0  0
   32.8950   27.8100   46.7240 C   0  0  0  0  0  0  0  0  0  0  0  0
   34.0520   28.3000   47.2330 N   0  0  0  0  0  0  0  0  0  0  0  0
   34.3520   29.6230   47.1890 C   0  0  0  0  0  0  0  0  0  0  0  0
   33.4840   30.4870   46.6250 N   0  0  0  0  0  0  0  0  0  0  0  0
   35.6160   30.0500   47.7600 C   0  0  0  0  0  0  0  0  0  0  0  0
   36.6360   30.6400   47.0330 C   0  0  0  0  0  0  0  0  0  0  0  0
   37.6720   30.9190   47.8400 N   0  0  0  0  0  0  0  0  0  0  0  0
   37.3440   30.5190   49.0930 C   0  0  0  0  0  0  0  0  0  0  0  0
   38.0470   30.5750   50.2840 C   0  0  0  0  0  0  0  0  0  0  0  0
   37.4280   30.0710   51.4340 C   0  0  0  0  0  0  0  0  0  0  0  0
   36.1640   29.5400   51.3670 C   0  0  0  0  0  0  0  0  0  0  0  0
   35.4400   29.4740   50.1750 C   0  0  0  0  0  0  0  0  0  0  0  0
   36.0720   29.9800   49.0430 C   0  0  0  0  0  0  0  0  0  0  0  0
   32.5840   26.3940   46.7760 C   0  0  0  0  0  0  0  0  0  0  0  0
   33.5070   25.5280   47.3370 C   0  0  0  0  0  0  0  0  0  0  0  0
   33.1600   24.1920   47.3600 C   0  0  0  0  0  0  0  0  0  0  0  0
   31.9700   23.7490   46.8590 N   0  0  0  0  0  0  0  0  0  0  0  0
   31.0980   24.6310   46.3210 C   0  0  0  0  0  0  0  0  0  0  0  0
   31.4260   25.9420   46.2910 N   0  0  0  0  0  0  0  0  0  0  0  0
   29.8810   24.1280   45.8160 N   0  0  0  0  0  0  0  0  0  0  0  0
   29.8700   22.7780   45.2870 C   0  0  0  0  0  0  0  0  0  0  0  0
   29.2990   22.8410   43.8780 C   0  0  0  0  0  0  0  0  0  0  0  0
   29.0000   24.1950   43.4630 N   0  0  0  0  0  0  0  0  0  0  0  0
   28.1350   24.8890   44.3820 C   0  0  0  0  0  0  0  0  0  0  0  0
   28.6530   24.8980   45.8020 C   0  0  0  0  0  0  0  0  0  0  0  0
   31.6220   30.7670   45.6464 H   0  0  0  0  0  0  0  0  0  0  0  0
   31.0313   28.3251   45.7127 H   0  0  0  0  0  0  0  0  0  0  0  0
   36.6025   30.8492   45.9536 H   0  0  0  0  0  0  0  0  0  0  0  0
   38.5592   31.3592   47.5571 H   0  0  0  0  0  0  0  0  0  0  0  0
   39.0599   31.0020   50.3255 H   0  0  0  0  0  0  0  0  0  0  0  0
   37.9579   30.1007   52.3975 H   0  0  0  0  0  0  0  0  0  0  0  0
   35.7039   29.1516   52.2876 H   0  0  0  0  0  0  0  0  0  0  0  0
   34.4274   29.0463   50.1330 H   0  0  0  0  0  0  0  0  0  0  0  0
   34.4651   25.8851   47.7425 H   0  0  0  0  0  0  0  0  0  0  0  0
   33.8617   23.4645   47.7940 H   0  0  0  0  0  0  0  0  0  0  0  0
   30.8942   22.3776   45.2592 H   0  0  0  0  0  0  0  0  0  0  0  0
   29.2598   22.1190   45.9222 H   0  0  0  0  0  0  0  0  0  0  0  0
   30.0329   22.4117   43.1801 H   0  0  0  0  0  0  0  0  0  0  0  0
   28.3569   22.2732   43.8726 H   0  0  0  0  0  0  0  0  0  0  0  0
   29.8844   24.7175   43.3869 H   0  0  0  0  0  0  0  0  0  0  0  0
   28.0289   25.9300   44.0428 H   0  0  0  0  0  0  0  0  0  0  0  0
   27.1735   24.3548   44.3900 H   0  0  0  0  0  0  0  0  0  0  0  0
   28.8523   25.9308   46.1238 H   0  0  0  0  0  0  0  0  0  0  0  0
   27.9126   24.4641   46.4901 H   0  0  0  0  0  0  0  0  0  0  0  0
  1  2  2  0
  1  6  1  0
  2  3  1  0
  3 16  1  0
  3  4  2  0
  5  4  1  0
  5  7  1  0
  6  5  2  0
  7 15  1  0
  8  7  2  0
  8  9  1  0
  9 10  1  0
 10 11  2  0
 11 12  1  0
 13 12  2  0
 14 13  1  0
 15 10  1  0
 15 14  2  0
 16 17  2  0
 17 18  1  0
 19 18  2  0
 20 19  1  0
 21 20  2  0
 21 16  1  0
 22 20  1  0
 23 22  1  0
 24 23  1  0
 25 24  1  0
 25 26  1  0
 26 27  1  0
 27 22  1  0
  1 28  1  0
  2 29  1  0
  8 30  1  0
  9 31  1  0
 11 32  1  0
 12 33  1  0
 13 34  1  0
 14 35  1  0
 17 36  1  0
 18 37  1  0
 23 38  1  0
 23 39  1  0
 24 40  1  0
 24 41  1  0
 25 42  1  0
 26 43  1  0
 26 44  1  0
 27 45  1  0
 27 46  1  0
M  ISO  8  28  14  29  14  30  14  31   9  32  14  33  14  34  14  35  14
M  ISO  8  36  14  37  14  38  13  39  13  40  13  41  13  42   5  43  13
M  ISO  3  44  13  45  13  46  13
M  END
>  <minimizedAffinity>  (1) 
-6.4706707

>  <minimizedRMSD>  (1) 
0.186232537

$$$$
