
     RDKit          3D

 42 46  0  0  0  0  0  0  0  0999 V2000
   32.1800   30.0000   46.1010 C   0  0  0  0  0  0  0  0  0  0  0  0
   31.8330   28.6480   46.1270 C   0  0  0  0  0  0  0  0  0  0  0  0
   32.7480   27.7530   46.6950 C   0  0  0  0  0  0  0  0  0  0  0  0
   33.9280   28.2160   47.1960 N   0  0  0  0  0  0  0  0  0  0  0  0
   34.2320   29.5530   47.1500 C   0  0  0  0  0  0  0  0  0  0  0  0
   33.3610   30.4240   46.6070 N   0  0  0  0  0  0  0  0  0  0  0  0
   35.5070   29.9600   47.7030 C   0  0  0  0  0  0  0  0  0  0  0  0
   36.5320   30.5170   46.9640 C   0  0  0  0  0  0  0  0  0  0  0  0
   37.5770   30.7860   47.7550 N   0  0  0  0  0  0  0  0  0  0  0  0
   37.2530   30.4130   49.0150 C   0  0  0  0  0  0  0  0  0  0  0  0
   37.9690   30.4730   50.2000 C   0  0  0  0  0  0  0  0  0  0  0  0
   37.3530   30.0010   51.3630 C   0  0  0  0  0  0  0  0  0  0  0  0
   36.0800   29.4970   51.3130 C   0  0  0  0  0  0  0  0  0  0  0  0
   35.3390   29.4250   50.1310 C   0  0  0  0  0  0  0  0  0  0  0  0
   35.9670   29.8980   48.9880 C   0  0  0  0  0  0  0  0  0  0  0  0
   32.4320   26.3280   46.7470 C   0  0  0  0  0  0  0  0  0  0  0  0
   33.2570   25.4860   47.4680 C   0  0  0  0  0  0  0  0  0  0  0  0
   32.8880   24.1550   47.4660 C   0  0  0  0  0  0  0  0  0  0  0  0
   31.7860   23.7110   46.7980 N   0  0  0  0  0  0  0  0  0  0  0  0
   31.0070   24.5710   46.1050 C   0  0  0  0  0  0  0  0  0  0  0  0
   31.3570   25.8780   46.0980 N   0  0  0  0  0  0  0  0  0  0  0  0
   29.8290   24.1040   45.3880 C   0  0  0  0  0  0  0  0  0  0  0  0
   29.5180   22.7630   45.4250 C   0  0  0  0  0  0  0  0  0  0  0  0
   28.4040   22.3240   44.7470 C   0  0  0  0  0  0  0  0  0  0  0  0
   27.6350   23.2350   44.0540 C   0  0  0  0  0  0  0  0  0  0  0  0
   27.9370   24.5860   44.0100 C   0  0  0  0  0  0  0  0  0  0  0  0
   29.0680   25.0200   44.7000 C   0  0  0  0  0  0  0  0  0  0  0  0
   31.4838   30.7305   45.6632 H   0  0  0  0  0  0  0  0  0  0  0  0
   30.8746   28.2981   45.7158 H   0  0  0  0  0  0  0  0  0  0  0  0
   36.4947   30.7113   45.8819 H   0  0  0  0  0  0  0  0  0  0  0  0
   38.4704   31.2033   47.4575 H   0  0  0  0  0  0  0  0  0  0  0  0
   38.9908   30.8796   50.2248 H   0  0  0  0  0  0  0  0  0  0  0  0
   37.8922   30.0344   52.3212 H   0  0  0  0  0  0  0  0  0  0  0  0
   35.6214   29.1332   52.2443 H   0  0  0  0  0  0  0  0  0  0  0  0
   34.3176   29.0172   50.1079 H   0  0  0  0  0  0  0  0  0  0  0  0
   34.1449   25.8500   48.0056 H   0  0  0  0  0  0  0  0  0  0  0  0
   33.5026   23.4308   48.0208 H   0  0  0  0  0  0  0  0  0  0  0  0
   30.1478   22.0566   45.9856 H   0  0  0  0  0  0  0  0  0  0  0  0
   28.1301   21.2587   44.7577 H   0  0  0  0  0  0  0  0  0  0  0  0
   26.7466   22.8745   43.5148 H   0  0  0  0  0  0  0  0  0  0  0  0
   27.3063   25.2921   43.4500 H   0  0  0  0  0  0  0  0  0  0  0  0
   29.3487   26.0836   44.6942 H   0  0  0  0  0  0  0  0  0  0  0  0
  1  2  2  0
  1  6  1  0
  2  3  1  0
  3 16  1  0
  3  4  2  0
  5  4  1  0
  5  7  1  0
  6  5  2  0
  7 15  1  0
  8  7  2  0
  8  9  1  0
  9 10  1  0
 10 11  2  0
 11 12  1  0
 13 12  2  0
 14 13  1  0
 15 10  1  0
 15 14  2  0
 16 17  2  0
 18 17  1  0
 19 18  2  0
 20 19  1  0
 21 20  2  0
 21 16  1  0
 22 23  2  0
 22 20  1  0
 24 23  1  0
 25 24  2  0
 26 25  1  0
 26 27  2  0
 27 22  1  0
  1 28  1  0
  2 29  1  0
  8 30  1  0
  9 31  1  0
 11 32  1  0
 12 33  1  0
 13 34  1  0
 14 35  1  0
 17 36  1  0
 18 37  1  0
 23 38  1  0
 24 39  1  0
 25 40  1  0
 26 41  1  0
 27 42  1  0
M  ISO  8  28  14  29  14  30  14  31   9  32  14  33  14  34  14  35  14
M  ISO  7  36  14  37  14  38  14  39  14  40  14  41  14  42  14
M  END
>  <minimizedAffinity>  (1) 
-6.40841246

>  <minimizedRMSD>  (1) 
0.546010315

$$$$
