
     RDKit          3D

 23 24  0  0  0  0  0  0  0  0999 V2000
   37.0870   29.8410   51.6400 C   0  0  0  0  0  0  0  0  0  0  0  0
   37.7080   30.5930   50.6280 C   0  0  0  0  0  0  0  0  0  0  0  0
   36.9970   30.7880   49.4290 C   0  0  0  0  0  0  0  0  0  0  0  0
   35.7600   30.2410   49.3260 N   0  0  0  0  0  0  0  0  0  0  0  0
   35.1980   29.5270   50.3160 C   0  0  0  0  0  0  0  0  0  0  0  0
   35.8550   29.3280   51.4660 N   0  0  0  0  0  0  0  0  0  0  0  0
   37.5240   31.5530   48.2880 C   0  0  0  0  0  0  0  0  0  0  0  0
   38.6450   32.4600   48.7470 C   0  0  0  0  0  0  0  0  0  0  0  0
   39.2360   32.9260   47.4340 C   0  0  0  0  0  0  0  0  0  0  0  0
   39.2800   31.6360   46.6430 C   0  0  0  0  0  0  0  0  0  0  0  0
   38.2420   30.7100   47.2620 C   0  0  0  0  0  0  0  0  0  0  0  0
   37.6161   29.6691   52.5889 H   0  0  0  0  0  0  0  0  0  0  0  0
   38.7144   31.0144   50.7681 H   0  0  0  0  0  0  0  0  0  0  0  0
   34.1919   29.1033   50.1810 H   0  0  0  0  0  0  0  0  0  0  0  0
   36.6341   32.0497   47.8741 H   0  0  0  0  0  0  0  0  0  0  0  0
   38.2585   33.3066   49.3334 H   0  0  0  0  0  0  0  0  0  0  0  0
   39.3718   31.9647   49.4077 H   0  0  0  0  0  0  0  0  0  0  0  0
   38.5922   33.6733   46.9471 H   0  0  0  0  0  0  0  0  0  0  0  0
   40.2127   33.4219   47.5346 H   0  0  0  0  0  0  0  0  0  0  0  0
   40.2804   31.1835   46.7103 H   0  0  0  0  0  0  0  0  0  0  0  0
   39.0666   31.8159   45.5790 H   0  0  0  0  0  0  0  0  0  0  0  0
   37.5385   30.3518   46.4960 H   0  0  0  0  0  0  0  0  0  0  0  0
   38.7020   29.8175   47.7112 H   0  0  0  0  0  0  0  0  0  0  0  0
  2  1  2  0
  3  2  1  0
  4  3  2  0
  4  5  1  0
  5  6  2  0
  6  1  1  0
  7  8  1  0
  7  3  1  0
  9  8  1  0
 10 11  1  0
 10  9  1  0
 11  7  1  0
  1 12  1  0
  2 13  1  0
  5 14  1  0
  7 15  1  0
  8 16  1  0
  8 17  1  0
  9 18  1  0
  9 19  1  0
 10 20  1  0
 10 21  1  0
 11 22  1  0
 11 23  1  0
M  ISO  8  12  14  13  14  14  14  15  13  16  13  17  13  18  13  19  13
M  ISO  4  20  13  21  13  22  13  23  13
M  END
>  <minimizedAffinity>  (1) 
-4.62177658

>  <minimizedRMSD>  (1) 
1.05017698

$$$$
