
     RDKit          3D

 39 43  0  0  0  0  0  0  0  0999 V2000
   32.3640   29.9470   46.1610 C   0  0  0  0  0  0  0  0  0  0  0  0
   32.0780   28.5810   46.1670 C   0  0  0  0  0  0  0  0  0  0  0  0
   33.0360   27.7310   46.7440 C   0  0  0  0  0  0  0  0  0  0  0  0
   34.1650   28.2620   47.2550 N   0  0  0  0  0  0  0  0  0  0  0  0
   34.4100   29.5940   47.2330 C   0  0  0  0  0  0  0  0  0  0  0  0
   33.5120   30.4290   46.6870 N   0  0  0  0  0  0  0  0  0  0  0  0
   35.6590   30.0640   47.8100 C   0  0  0  0  0  0  0  0  0  0  0  0
   36.6550   30.6970   47.0930 C   0  0  0  0  0  0  0  0  0  0  0  0
   37.6750   31.0070   47.9050 N   0  0  0  0  0  0  0  0  0  0  0  0
   37.3650   30.5880   49.1510 C   0  0  0  0  0  0  0  0  0  0  0  0
   38.0660   30.6630   50.3430 C   0  0  0  0  0  0  0  0  0  0  0  0
   37.4670   30.1270   51.4860 C   0  0  0  0  0  0  0  0  0  0  0  0
   36.2120   29.5430   51.4120 C   0  0  0  0  0  0  0  0  0  0  0  0
   35.5030   29.4660   50.2120 C   0  0  0  0  0  0  0  0  0  0  0  0
   36.1060   29.9980   49.0990 C   0  0  0  0  0  0  0  0  0  0  0  0
   32.7860   26.2870   46.7760 C   0  0  0  0  0  0  0  0  0  0  0  0
   33.7280   25.4700   47.3690 C   0  0  0  0  0  0  0  0  0  0  0  0
   33.4190   24.1260   47.3600 C   0  0  0  0  0  0  0  0  0  0  0  0
   32.2810   23.6360   46.8110 N   0  0  0  0  0  0  0  0  0  0  0  0
   31.3860   24.4760   46.2400 C   0  0  0  0  0  0  0  0  0  0  0  0
   31.6580   25.8180   46.2310 N   0  0  0  0  0  0  0  0  0  0  0  0
   30.1280   24.0840   45.6150 C   0  0  0  0  0  0  0  0  0  0  0  0
   29.1860   24.8020   44.9180 C   0  0  0  0  0  0  0  0  0  0  0  0
   28.2200   23.8680   44.5820 C   0  0  0  0  0  0  0  0  0  0  0  0
   28.5530   22.6500   45.0460 N   0  0  0  0  0  0  0  0  0  0  0  0
   29.7130   22.7930   45.6720 N   0  0  0  0  0  0  0  0  0  0  0  0
   31.6395   30.6465   45.7186 H   0  0  0  0  0  0  0  0  0  0  0  0
   31.1442   28.1876   45.7390 H   0  0  0  0  0  0  0  0  0  0  0  0
   36.6168   30.9145   46.0154 H   0  0  0  0  0  0  0  0  0  0  0  0
   38.5452   31.4827   47.6269 H   0  0  0  0  0  0  0  0  0  0  0  0
   39.0613   31.1291   50.3885 H   0  0  0  0  0  0  0  0  0  0  0  0
   37.9945   30.1687   52.4503 H   0  0  0  0  0  0  0  0  0  0  0  0
   35.7616   29.1281   52.3257 H   0  0  0  0  0  0  0  0  0  0  0  0
   34.5076   29.0008   50.1604 H   0  0  0  0  0  0  0  0  0  0  0  0
   34.6544   25.8613   47.8147 H   0  0  0  0  0  0  0  0  0  0  0  0
   34.1275   23.4206   47.8187 H   0  0  0  0  0  0  0  0  0  0  0  0
   29.1968   25.8760   44.6806 H   0  0  0  0  0  0  0  0  0  0  0  0
   27.3053   24.0917   44.0133 H   0  0  0  0  0  0  0  0  0  0  0  0
   28.0139   21.7792   44.9367 H   0  0  0  0  0  0  0  0  0  0  0  0
  1  2  2  0
  1  6  1  0
  2  3  1  0
  3 16  1  0
  3  4  2  0
  5  4  1  0
  5  7  1  0
  6  5  2  0
  7 15  1  0
  8  7  2  0
  8  9  1  0
  9 10  1  0
 10 11  2  0
 11 12  1  0
 13 12  2  0
 14 13  1  0
 15 10  1  0
 15 14  2  0
 16 17  2  0
 18 17  1  0
 19 18  2  0
 20 19  1  0
 21 20  2  0
 21 16  1  0
 22 26  2  0
 22 20  1  0
 23 22  1  0
 24 23  2  0
 24 25  1  0
 25 26  1  0
  1 27  1  0
  2 28  1  0
  8 29  1  0
  9 30  1  0
 11 31  1  0
 12 32  1  0
 13 33  1  0
 14 34  1  0
 17 35  1  0
 18 36  1  0
 23 37  1  0
 24 38  1  0
 25 39  1  0
M  ISO  8  27  14  28  14  29  14  30   9  31  14  32  14  33  14  34  14
M  ISO  5  35  14  36  14  37  14  38  14  39   9
M  END
>  <minimizedAffinity>  (1) 
-6.10401678

>  <minimizedRMSD>  (1) 
0.531878471

$$$$
