
     RDKit          3D

 38 42  0  0  0  0  0  0  0  0999 V2000
   32.3500   29.8850   46.1660 C   0  0  0  0  0  0  0  0  0  0  0  0
   32.0900   28.5180   46.1770 C   0  0  0  0  0  0  0  0  0  0  0  0
   33.0510   27.6820   46.7490 C   0  0  0  0  0  0  0  0  0  0  0  0
   34.1730   28.2220   47.2600 N   0  0  0  0  0  0  0  0  0  0  0  0
   34.4090   29.5550   47.2400 C   0  0  0  0  0  0  0  0  0  0  0  0
   33.5000   30.3830   46.6950 N   0  0  0  0  0  0  0  0  0  0  0  0
   35.6470   30.0360   47.8150 C   0  0  0  0  0  0  0  0  0  0  0  0
   36.6410   30.6800   47.0830 C   0  0  0  0  0  0  0  0  0  0  0  0
   37.6590   31.0030   47.8910 N   0  0  0  0  0  0  0  0  0  0  0  0
   37.3510   30.5810   49.1480 C   0  0  0  0  0  0  0  0  0  0  0  0
   38.0560   30.6680   50.3360 C   0  0  0  0  0  0  0  0  0  0  0  0
   37.4680   30.1340   51.4800 C   0  0  0  0  0  0  0  0  0  0  0  0
   36.2280   29.5420   51.4130 C   0  0  0  0  0  0  0  0  0  0  0  0
   35.5060   29.4470   50.2210 C   0  0  0  0  0  0  0  0  0  0  0  0
   36.1060   29.9820   49.1070 C   0  0  0  0  0  0  0  0  0  0  0  0
   32.8210   26.2410   46.7830 C   0  0  0  0  0  0  0  0  0  0  0  0
   33.7470   25.4270   47.3740 C   0  0  0  0  0  0  0  0  0  0  0  0
   33.4700   24.0830   47.3720 C   0  0  0  0  0  0  0  0  0  0  0  0
   32.3530   23.5700   46.8220 N   0  0  0  0  0  0  0  0  0  0  0  0
   31.4390   24.4020   46.2340 C   0  0  0  0  0  0  0  0  0  0  0  0
   31.7200   25.7330   46.2410 N   0  0  0  0  0  0  0  0  0  0  0  0
   30.1940   23.9790   45.6050 C   0  0  0  0  0  0  0  0  0  0  0  0
   30.1160   22.6020   45.7380 C   0  0  0  0  0  0  0  0  0  0  0  0
   28.4560   22.1570   44.8840 S   0  0  0  0  0  0  0  0  0  0  0  0
   28.2340   24.0240   44.5240 C   0  0  0  0  0  0  0  0  0  0  0  0
   29.1570   24.4680   44.9730 N   0  0  0  0  0  0  0  0  0  0  0  0
   31.6148   30.5730   45.7230 H   0  0  0  0  0  0  0  0  0  0  0  0
   31.1613   28.1109   45.7506 H   0  0  0  0  0  0  0  0  0  0  0  0
   36.5968   30.8914   46.0044 H   0  0  0  0  0  0  0  0  0  0  0  0
   38.5241   31.4864   47.6103 H   0  0  0  0  0  0  0  0  0  0  0  0
   39.0474   31.1430   50.3752 H   0  0  0  0  0  0  0  0  0  0  0  0
   37.9980   30.1859   52.4425 H   0  0  0  0  0  0  0  0  0  0  0  0
   35.7886   29.1280   52.3325 H   0  0  0  0  0  0  0  0  0  0  0  0
   34.5150   28.9716   50.1769 H   0  0  0  0  0  0  0  0  0  0  0  0
   34.6655   25.8283   47.8271 H   0  0  0  0  0  0  0  0  0  0  0  0
   34.1907   23.3958   47.8393 H   0  0  0  0  0  0  0  0  0  0  0  0
   30.8358   21.9238   46.2195 H   0  0  0  0  0  0  0  0  0  0  0  0
   27.4071   24.5320   44.0061 H   0  0  0  0  0  0  0  0  0  0  0  0
  1  2  2  0
  1  6  1  0
  2  3  1  0
  3 16  1  0
  3  4  2  0
  5  4  1  0
  5  7  1  0
  6  5  2  0
  7 15  1  0
  8  7  2  0
  8  9  1  0
  9 10  1  0
 10 11  2  0
 11 12  1  0
 13 12  2  0
 14 13  1  0
 15 10  1  0
 15 14  2  0
 16 17  2  0
 18 17  1  0
 19 18  2  0
 20 21  2  0
 20 19  1  0
 21 16  1  0
 22 23  2  0
 22 20  1  0
 24 23  1  0
 25 24  1  0
 25 26  2  0
 26 22  1  0
  1 27  1  0
  2 28  1  0
  8 29  1  0
  9 30  1  0
 11 31  1  0
 12 32  1  0
 13 33  1  0
 14 34  1  0
 17 35  1  0
 18 36  1  0
 23 37  1  0
 25 38  1  0
M  ISO  8  27  14  28  14  29  14  30   9  31  14  32  14  33  14  34  14
M  ISO  4  35  14  36  14  37  14  38  14
M  END
>  <minimizedAffinity>  (1) 
-6.08830547

>  <minimizedRMSD>  (1) 
0.226923287

$$$$
