
     RDKit          3D

 39 43  0  0  0  0  0  0  0  0999 V2000
   32.3710   29.9190   46.1570 C   0  0  0  0  0  0  0  0  0  0  0  0
   32.0990   28.5480   46.1680 C   0  0  0  0  0  0  0  0  0  0  0  0
   33.0570   27.7040   46.7510 C   0  0  0  0  0  0  0  0  0  0  0  0
   34.1830   28.2470   47.2670 N   0  0  0  0  0  0  0  0  0  0  0  0
   34.4180   29.5800   47.2400 C   0  0  0  0  0  0  0  0  0  0  0  0
   33.5140   30.4130   46.6870 N   0  0  0  0  0  0  0  0  0  0  0  0
   35.6560   30.0550   47.8200 C   0  0  0  0  0  0  0  0  0  0  0  0
   36.6540   30.6980   47.0940 C   0  0  0  0  0  0  0  0  0  0  0  0
   37.6730   31.0160   47.9080 N   0  0  0  0  0  0  0  0  0  0  0  0
   37.3580   30.5890   49.1590 C   0  0  0  0  0  0  0  0  0  0  0  0
   38.0600   30.6680   50.3540 C   0  0  0  0  0  0  0  0  0  0  0  0
   37.4750   30.1360   51.4900 C   0  0  0  0  0  0  0  0  0  0  0  0
   36.2290   29.5490   51.4070 C   0  0  0  0  0  0  0  0  0  0  0  0
   35.5110   29.4600   50.2190 C   0  0  0  0  0  0  0  0  0  0  0  0
   36.1150   29.9980   49.1020 C   0  0  0  0  0  0  0  0  0  0  0  0
   32.8180   26.2630   46.7870 C   0  0  0  0  0  0  0  0  0  0  0  0
   33.7540   25.4510   47.3660 C   0  0  0  0  0  0  0  0  0  0  0  0
   33.4620   24.1110   47.3630 C   0  0  0  0  0  0  0  0  0  0  0  0
   32.3130   23.6130   46.8190 N   0  0  0  0  0  0  0  0  0  0  0  0
   31.4050   24.4490   46.2520 C   0  0  0  0  0  0  0  0  0  0  0  0
   31.7080   25.7670   46.2630 N   0  0  0  0  0  0  0  0  0  0  0  0
   30.1550   24.0100   45.6480 C   0  0  0  0  0  0  0  0  0  0  0  0
   29.2200   24.8440   45.0620 C   0  0  0  0  0  0  0  0  0  0  0  0
   28.1600   24.1430   44.5890 N   0  0  0  0  0  0  0  0  0  0  0  0
   28.4470   22.8530   44.8890 C   0  0  0  0  0  0  0  0  0  0  0  0
   29.6330   22.7960   45.5160 N   0  0  0  0  0  0  0  0  0  0  0  0
   31.6418   30.6099   45.7088 H   0  0  0  0  0  0  0  0  0  0  0  0
   31.1703   28.1462   45.7366 H   0  0  0  0  0  0  0  0  0  0  0  0
   36.6139   30.9132   46.0160 H   0  0  0  0  0  0  0  0  0  0  0  0
   38.5404   31.4985   47.6329 H   0  0  0  0  0  0  0  0  0  0  0  0
   39.0527   31.1399   50.3969 H   0  0  0  0  0  0  0  0  0  0  0  0
   38.0012   30.1810   52.4549 H   0  0  0  0  0  0  0  0  0  0  0  0
   35.7831   29.1324   52.3222 H   0  0  0  0  0  0  0  0  0  0  0  0
   34.5186   28.9877   50.1731 H   0  0  0  0  0  0  0  0  0  0  0  0
   34.6812   25.8472   47.8057 H   0  0  0  0  0  0  0  0  0  0  0  0
   34.1802   23.4115   47.8157 H   0  0  0  0  0  0  0  0  0  0  0  0
   29.3232   25.9367   44.9890 H   0  0  0  0  0  0  0  0  0  0  0  0
   27.8085   21.9882   44.6555 H   0  0  0  0  0  0  0  0  0  0  0  0
   30.0775   21.9287   45.8493 H   0  0  0  0  0  0  0  0  0  0  0  0
  1  2  2  0
  1  6  1  0
  2  3  1  0
  3 16  1  0
  3  4  2  0
  5  4  1  0
  5  7  1  0
  6  5  2  0
  7 15  1  0
  8  7  2  0
  8  9  1  0
  9 10  1  0
 10 11  2  0
 11 12  1  0
 13 12  2  0
 14 13  1  0
 15 10  1  0
 15 14  2  0
 16 17  2  0
 18 17  1  0
 19 18  2  0
 20 21  2  0
 20 19  1  0
 21 16  1  0
 22 20  1  0
 23 22  2  0
 24 25  2  0
 24 23  1  0
 25 26  1  0
 26 22  1  0
  1 27  1  0
  2 28  1  0
  8 29  1  0
  9 30  1  0
 11 31  1  0
 12 32  1  0
 13 33  1  0
 14 34  1  0
 17 35  1  0
 18 36  1  0
 23 37  1  0
 25 38  1  0
 26 39  1  0
M  ISO  8  27  14  28  14  29  14  30   9  31  14  32  14  33  14  34  14
M  ISO  5  35  14  36  14  37  14  38  14  39   9
M  END
>  <minimizedAffinity>  (1) 
-6.08454943

>  <minimizedRMSD>  (1) 
0.160583735

$$$$
