
     RDKit          3D

 25 26  0  0  0  0  0  0  0  0999 V2000
   37.3870   30.2080   51.4540 C   0  0  0  0  0  0  0  0  0  0  0  0
   37.8620   30.9500   50.3570 C   0  0  0  0  0  0  0  0  0  0  0  0
   37.2200   30.7640   49.1130 C   0  0  0  0  0  0  0  0  0  0  0  0
   36.1900   29.8820   49.0660 N   0  0  0  0  0  0  0  0  0  0  0  0
   35.7530   29.1840   50.1280 C   0  0  0  0  0  0  0  0  0  0  0  0
   36.3640   29.3550   51.3310 N   0  0  0  0  0  0  0  0  0  0  0  0
   37.6230   31.4680   47.9350 N   0  0  0  0  0  0  0  0  0  0  0  0
   38.4800   32.6190   48.0600 C   0  0  0  0  0  0  0  0  0  0  0  0
   39.5500   32.7230   47.0360 C   0  0  0  0  0  0  0  0  0  0  0  0
   39.2590   32.0780   45.7340 C   0  0  0  0  0  0  0  0  0  0  0  0
   37.8670   31.6090   45.5010 C   0  0  0  0  0  0  0  0  0  0  0  0
   37.1610   31.0070   46.6560 C   0  0  0  0  0  0  0  0  0  0  0  0
   37.8680   30.3322   52.4354 H   0  0  0  0  0  0  0  0  0  0  0  0
   38.7036   31.6501   50.4645 H   0  0  0  0  0  0  0  0  0  0  0  0
   34.9115   28.4830   50.0256 H   0  0  0  0  0  0  0  0  0  0  0  0
   37.8527   33.5199   47.9898 H   0  0  0  0  0  0  0  0  0  0  0  0
   38.9921   32.5154   49.0280 H   0  0  0  0  0  0  0  0  0  0  0  0
   39.7368   33.7909   46.8498 H   0  0  0  0  0  0  0  0  0  0  0  0
   40.4148   32.1843   47.4506 H   0  0  0  0  0  0  0  0  0  0  0  0
   39.4993   32.8049   44.9442 H   0  0  0  0  0  0  0  0  0  0  0  0
   39.8697   31.1631   45.7294 H   0  0  0  0  0  0  0  0  0  0  0  0
   37.2767   32.4741   45.1646 H   0  0  0  0  0  0  0  0  0  0  0  0
   37.9572   30.7968   44.7647 H   0  0  0  0  0  0  0  0  0  0  0  0
   36.0910   31.2467   46.5691 H   0  0  0  0  0  0  0  0  0  0  0  0
   37.3605   29.9259   46.6193 H   0  0  0  0  0  0  0  0  0  0  0  0
  2  1  2  0
  3  2  1  0
  4  3  2  0
  4  5  1  0
  5  6  2  0
  6  1  1  0
  7  8  1  0
  7  3  1  0
  9  8  1  0
 10  9  1  0
 11 10  1  0
 11 12  1  0
 12  7  1  0
  1 13  1  0
  2 14  1  0
  5 15  1  0
  8 16  1  0
  8 17  1  0
  9 18  1  0
  9 19  1  0
 10 20  1  0
 10 21  1  0
 11 22  1  0
 11 23  1  0
 12 24  1  0
 12 25  1  0
M  ISO  8  13  14  14  14  15  14  16  13  17  13  18  13  19  13  20  13
M  ISO  5  21  13  22  13  23  13  24  13  25  13
M  END
>  <minimizedAffinity>  (1) 
-4.62136126

>  <minimizedRMSD>  (1) 
1.02117717

$$$$
