
     RDKit          3D

 35 38  0  0  0  0  0  0  0  0999 V2000
   32.1710   30.6050   46.0320 C   0  0  0  0  0  0  0  0  0  0  0  0
   31.6510   29.3130   45.9650 C   0  0  0  0  0  0  0  0  0  0  0  0
   32.4350   28.2760   46.4770 C   0  0  0  0  0  0  0  0  0  0  0  0
   33.6450   28.5670   47.0080 N   0  0  0  0  0  0  0  0  0  0  0  0
   34.1210   29.8370   47.0570 C   0  0  0  0  0  0  0  0  0  0  0  0
   33.3890   30.8420   46.5730 N   0  0  0  0  0  0  0  0  0  0  0  0
   35.4300   30.0450   47.6440 C   0  0  0  0  0  0  0  0  0  0  0  0
   36.5430   30.4750   46.9400 C   0  0  0  0  0  0  0  0  0  0  0  0
   37.6020   30.5720   47.7580 N   0  0  0  0  0  0  0  0  0  0  0  0
   37.1950   30.2070   49.0040 C   0  0  0  0  0  0  0  0  0  0  0  0
   37.8850   30.1280   50.2100 C   0  0  0  0  0  0  0  0  0  0  0  0
   37.1930   29.7160   51.3380 C   0  0  0  0  0  0  0  0  0  0  0  0
   35.8650   29.3980   51.2500 C   0  0  0  0  0  0  0  0  0  0  0  0
   35.1450   29.4670   50.0530 C   0  0  0  0  0  0  0  0  0  0  0  0
   35.8550   29.8800   48.9450 C   0  0  0  0  0  0  0  0  0  0  0  0
   31.9400   26.9070   46.4330 C   0  0  0  0  0  0  0  0  0  0  0  0
   32.8290   25.8660   46.5680 C   0  0  0  0  0  0  0  0  0  0  0  0
   32.2940   24.6010   46.5160 C   0  0  0  0  0  0  0  0  0  0  0  0
   30.9620   24.3870   46.3420 N   0  0  0  0  0  0  0  0  0  0  0  0
   30.1200   25.4360   46.2130 C   0  0  0  0  0  0  0  0  0  0  0  0
   30.6300   26.6930   46.2610 N   0  0  0  0  0  0  0  0  0  0  0  0
   28.6710   25.1630   46.0240 C   0  0  0  0  0  0  0  0  0  0  0  0
   28.4500   23.7840   46.0240 F   0  0  0  0  0  0  0  0  0  0  0  0
   27.9460   25.6490   47.0900 F   0  0  0  0  0  0  0  0  0  0  0  0
   28.1670   25.7430   44.8740 F   0  0  0  0  0  0  0  0  0  0  0  0
   31.5814   31.4461   45.6385 H   0  0  0  0  0  0  0  0  0  0  0  0
   30.6615   29.1176   45.5259 H   0  0  0  0  0  0  0  0  0  0  0  0
   36.5565   30.7041   45.8642 H   0  0  0  0  0  0  0  0  0  0  0  0
   38.5514   30.8691   47.4911 H   0  0  0  0  0  0  0  0  0  0  0  0
   38.9528   30.3861   50.2666 H   0  0  0  0  0  0  0  0  0  0  0  0
   37.7120   29.6446   52.3052 H   0  0  0  0  0  0  0  0  0  0  0  0
   35.3406   29.0738   52.1610 H   0  0  0  0  0  0  0  0  0  0  0  0
   34.0774   29.2077   49.9985 H   0  0  0  0  0  0  0  0  0  0  0  0
   33.9065   26.0362   46.7095 H   0  0  0  0  0  0  0  0  0  0  0  0
   32.9639   23.7346   46.6183 H   0  0  0  0  0  0  0  0  0  0  0  0
  1  6  2  0
  2  1  1  0
  2  3  2  0
  3  4  1  0
  4  5  2  0
  5  7  1  0
  6  5  1  0
  7 15  1  0
  8  7  2  0
  8  9  1  0
  9 10  1  0
 10 11  2  0
 11 12  1  0
 13 12  2  0
 14 13  1  0
 15 10  1  0
 15 14  2  0
 16  3  1  0
 16 17  2  0
 18 17  1  0
 19 18  2  0
 20 21  2  0
 20 19  1  0
 21 16  1  0
 22 20  1  0
 22 24  1  0
 23 22  1  0
 25 22  1  0
  1 26  1  0
  2 27  1  0
  8 28  1  0
  9 29  1  0
 11 30  1  0
 12 31  1  0
 13 32  1  0
 14 33  1  0
 17 34  1  0
 18 35  1  0
M  ISO  8  26  14  27  14  28  14  29   9  30  14  31  14  32  14  33  14
M  ISO  2  34  14  35  14
M  END
>  <minimizedAffinity>  (1) 
-6.02415323

>  <minimizedRMSD>  (1) 
1.1068958

$$$$
