
     RDKit          3D

 33 36  0  0  0  0  0  0  0  0999 V2000
   32.3640   29.9660   46.1530 C   0  0  0  0  0  0  0  0  0  0  0  0
   32.0670   28.6020   46.1710 C   0  0  0  0  0  0  0  0  0  0  0  0
   33.0200   27.7500   46.7610 C   0  0  0  0  0  0  0  0  0  0  0  0
   34.1540   28.2590   47.2750 N   0  0  0  0  0  0  0  0  0  0  0  0
   34.4050   29.6010   47.2370 C   0  0  0  0  0  0  0  0  0  0  0  0
   33.5110   30.4350   46.6780 N   0  0  0  0  0  0  0  0  0  0  0  0
   35.6510   30.0620   47.8130 C   0  0  0  0  0  0  0  0  0  0  0  0
   36.6530   30.6890   47.0880 C   0  0  0  0  0  0  0  0  0  0  0  0
   37.6780   30.9970   47.8960 N   0  0  0  0  0  0  0  0  0  0  0  0
   37.3660   30.5810   49.1440 C   0  0  0  0  0  0  0  0  0  0  0  0
   38.0600   30.6470   50.3460 C   0  0  0  0  0  0  0  0  0  0  0  0
   37.4730   30.1260   51.4860 C   0  0  0  0  0  0  0  0  0  0  0  0
   36.2300   29.5580   51.4050 C   0  0  0  0  0  0  0  0  0  0  0  0
   35.4990   29.4700   50.2220 C   0  0  0  0  0  0  0  0  0  0  0  0
   36.1180   30.0040   49.0970 C   0  0  0  0  0  0  0  0  0  0  0  0
   32.7490   26.3100   46.8010 C   0  0  0  0  0  0  0  0  0  0  0  0
   33.7200   25.4720   47.3230 C   0  0  0  0  0  0  0  0  0  0  0  0
   33.3940   24.1370   47.3280 C   0  0  0  0  0  0  0  0  0  0  0  0
   32.2120   23.6660   46.8590 N   0  0  0  0  0  0  0  0  0  0  0  0
   31.2900   24.5190   46.3570 C   0  0  0  0  0  0  0  0  0  0  0  0
   31.5890   25.8390   46.3430 N   0  0  0  0  0  0  0  0  0  0  0  0
   30.0470   24.1650   45.8490 O   0  0  0  0  0  0  0  0  0  0  0  0
   31.6484   30.6693   45.7021 H   0  0  0  0  0  0  0  0  0  0  0  0
   31.1317   28.2110   45.7440 H   0  0  0  0  0  0  0  0  0  0  0  0
   36.6130   30.9022   46.0096 H   0  0  0  0  0  0  0  0  0  0  0  0
   38.5499   31.4679   47.6151 H   0  0  0  0  0  0  0  0  0  0  0  0
   39.0589   31.1055   50.3907 H   0  0  0  0  0  0  0  0  0  0  0  0
   38.0013   30.1680   52.4499 H   0  0  0  0  0  0  0  0  0  0  0  0
   35.7842   29.1489   52.3236 H   0  0  0  0  0  0  0  0  0  0  0  0
   34.5008   29.0097   50.1808 H   0  0  0  0  0  0  0  0  0  0  0  0
   34.6809   25.8470   47.7052 H   0  0  0  0  0  0  0  0  0  0  0  0
   34.1239   23.4190   47.7301 H   0  0  0  0  0  0  0  0  0  0  0  0
   29.4370   24.8632   45.5019 H   0  0  0  0  0  0  0  0  0  0  0  0
  1  2  2  0
  1  6  1  0
  2  3  1  0
  3 16  1  0
  3  4  2  0
  5  4  1  0
  5  7  1  0
  6  5  2  0
  7 15  1  0
  8  7  2  0
  8  9  1  0
  9 10  1  0
 10 11  2  0
 11 12  1  0
 13 12  2  0
 14 13  1  0
 15 10  1  0
 15 14  2  0
 16 17  2  0
 17 18  1  0
 19 18  2  0
 20 19  1  0
 21 20  2  0
 21 16  1  0
 22 20  1  0
  1 23  1  0
  2 24  1  0
  8 25  1  0
  9 26  1  0
 11 27  1  0
 12 28  1  0
 13 29  1  0
 14 30  1  0
 17 31  1  0
 18 32  1  0
 22 33  1  0
M  ISO  8  23  14  24  14  25  14  26   9  27  14  28  14  29  14  30  14
M  ISO  3  31  14  32  14  33   3
M  END
>  <minimizedAffinity>  (1) 
-5.91261768

>  <minimizedRMSD>  (1) 
0.0260004345

$$$$
