
     RDKit          3D

 31 34  0  0  0  0  0  0  0  0999 V2000
   35.3060   29.8250   48.3340 C   0  0  0  0  0  0  0  0  0  0  0  0
   35.1790   28.7110   49.1950 C   0  0  0  0  0  0  0  0  0  0  0  0
   34.0640   27.9490   49.0190 C   0  0  0  0  0  0  0  0  0  0  0  0
   33.1610   28.2480   48.0950 C   0  0  0  0  0  0  0  0  0  0  0  0
   33.8340   29.7180   47.3350 S   0  0  0  0  0  0  0  0  0  0  0  0
   31.9400   27.7550   47.5340 C   0  0  0  0  0  0  0  0  0  0  0  0
   31.8600   27.3290   46.2370 N   0  0  0  0  0  0  0  0  0  0  0  0
   30.8150   26.7720   45.6650 C   0  0  0  0  0  0  0  0  0  0  0  0
   29.6850   26.5730   46.3620 N   0  0  0  0  0  0  0  0  0  0  0  0
   29.6110   26.9490   47.6720 C   0  0  0  0  0  0  0  0  0  0  0  0
   28.4480   26.7740   48.3770 C   0  0  0  0  0  0  0  0  0  0  0  0
   28.3510   27.1760   49.6710 C   0  0  0  0  0  0  0  0  0  0  0  0
   29.4920   27.7680   50.2250 C   0  0  0  0  0  0  0  0  0  0  0  0
   30.6110   27.9120   49.4750 C   0  0  0  0  0  0  0  0  0  0  0  0
   30.7520   27.5200   48.1740 C   0  0  0  0  0  0  0  0  0  0  0  0
   37.7380   32.3650   49.4680 C   0  0  0  0  0  0  0  0  0  0  0  0
   38.4940   32.5720   48.3080 C   0  0  0  0  0  0  0  0  0  0  0  0
   38.1650   31.8460   47.1440 C   0  0  0  0  0  0  0  0  0  0  0  0
   37.1180   30.9660   47.2010 N   0  0  0  0  0  0  0  0  0  0  0  0
   36.4170   30.7930   48.3260 C   0  0  0  0  0  0  0  0  0  0  0  0
   36.7190   31.4830   49.4560 N   0  0  0  0  0  0  0  0  0  0  0  0
   35.9337   28.4744   49.9595 H   0  0  0  0  0  0  0  0  0  0  0  0
   33.9091   27.0665   49.6571 H   0  0  0  0  0  0  0  0  0  0  0  0
   30.8671   26.4674   44.6093 H   0  0  0  0  0  0  0  0  0  0  0  0
   27.5827   26.3021   47.8886 H   0  0  0  0  0  0  0  0  0  0  0  0
   27.4262   27.0435   50.2517 H   0  0  0  0  0  0  0  0  0  0  0  0
   29.4801   28.1160   51.2684 H   0  0  0  0  0  0  0  0  0  0  0  0
   31.4805   28.3851   49.9547 H   0  0  0  0  0  0  0  0  0  0  0  0
   37.9751   32.9209   50.3871 H   0  0  0  0  0  0  0  0  0  0  0  0
   39.3293   33.2877   48.3042 H   0  0  0  0  0  0  0  0  0  0  0  0
   38.7356   31.9836   46.2137 H   0  0  0  0  0  0  0  0  0  0  0  0
  1  2  2  0
  3  2  1  0
  4  3  2  0
  5  4  1  0
  5  1  1  0
  6  4  1  0
  6 15  1  0
  7  6  2  0
  8  7  1  0
  8  9  2  0
  9 10  1  0
 10 15  2  0
 10 11  1  0
 11 12  2  0
 12 13  1  0
 14 13  2  0
 15 14  1  0
 17 16  2  0
 18 19  2  0
 18 17  1  0
 19 20  1  0
 20  1  1  0
 20 21  2  0
 21 16  1  0
  2 22  1  0
  3 23  1  0
  8 24  1  0
 11 25  1  0
 12 26  1  0
 13 27  1  0
 14 28  1  0
 16 29  1  0
 17 30  1  0
 18 31  1  0
M  ISO  8  22  14  23  14  24  14  25  14  26  14  27  14  28  14  29  14
M  ISO  2  30  14  31  14
M  END
>  <minimizedAffinity>  (1) 
-5.89320469

>  <minimizedRMSD>  (1) 
2.01674008

$$$$
