
     RDKit          3D

 18 19  0  0  0  0  0  0  0  0999 V2000
   37.5000   30.2790   51.2920 C   0  0  0  0  0  0  0  0  0  0  0  0
   38.0490   30.9850   50.2130 C   0  0  0  0  0  0  0  0  0  0  0  0
   37.5750   30.6890   48.9380 C   0  0  0  0  0  0  0  0  0  0  0  0
   36.6130   29.7400   48.8190 N   0  0  0  0  0  0  0  0  0  0  0  0
   36.1020   29.0730   49.8810 C   0  0  0  0  0  0  0  0  0  0  0  0
   36.5460   29.3430   51.1210 N   0  0  0  0  0  0  0  0  0  0  0  0
   38.0350   31.3280   47.7100 C   0  0  0  0  0  0  0  0  0  0  0  0
   37.4170   31.1440   46.4930 C   0  0  0  0  0  0  0  0  0  0  0  0
   37.8350   31.7370   45.3170 C   0  0  0  0  0  0  0  0  0  0  0  0
   38.9190   32.5490   45.3700 N   0  0  0  0  0  0  0  0  0  0  0  0
   39.5220   32.7300   46.5460 C   0  0  0  0  0  0  0  0  0  0  0  0
   39.1070   32.1480   47.6820 N   0  0  0  0  0  0  0  0  0  0  0  0
   37.8587   30.4955   52.3091 H   0  0  0  0  0  0  0  0  0  0  0  0
   38.8274   31.7466   50.3682 H   0  0  0  0  0  0  0  0  0  0  0  0
   35.3238   28.3105   49.7292 H   0  0  0  0  0  0  0  0  0  0  0  0
   36.5372   30.4849   46.4549 H   0  0  0  0  0  0  0  0  0  0  0  0
   37.3059   31.5562   44.3697 H   0  0  0  0  0  0  0  0  0  0  0  0
   40.4023   33.3883   46.5867 H   0  0  0  0  0  0  0  0  0  0  0  0
  2  1  2  0
  3  2  1  0
  4  3  2  0
  4  5  1  0
  5  6  2  0
  6  1  1  0
  7  3  1  0
  8  7  2  0
  9 10  2  0
  9  8  1  0
 10 11  1  0
 11 12  2  0
 12  7  1  0
  1 13  1  0
  2 14  1  0
  5 15  1  0
  8 16  1  0
  9 17  1  0
 11 18  1  0
M  ISO  6  13  14  14  14  15  14  16  14  17  14  18  14
M  END
>  <minimizedAffinity>  (1) 
-4.48616266

>  <minimizedRMSD>  (1) 
0.709732592

$$$$
