
     RDKit          3D

 30 32  0  0  0  0  0  0  0  0999 V2000
   35.9980   30.2930   48.6260 C   0  0  0  0  0  0  0  0  0  0  0  0
   36.0090   29.1120   49.4010 C   0  0  0  0  0  0  0  0  0  0  0  0
   34.9230   28.2990   49.2910 C   0  0  0  0  0  0  0  0  0  0  0  0
   33.9140   28.6370   48.4750 C   0  0  0  0  0  0  0  0  0  0  0  0
   34.4180   30.1950   47.7580 S   0  0  0  0  0  0  0  0  0  0  0  0
   32.6950   28.0000   48.1730 N   0  0  0  0  0  0  0  0  0  0  0  0
   31.7280   27.9360   49.1210 C   0  0  0  0  0  0  0  0  0  0  0  0
   30.5120   27.3180   48.8670 C   0  0  0  0  0  0  0  0  0  0  0  0
   29.4220   27.2160   49.8610 C   0  0  0  0  0  0  0  0  0  0  0  0
   30.3190   26.7710   47.6120 C   0  0  0  0  0  0  0  0  0  0  0  0
   29.2180   26.2050   47.3650 O   0  0  0  0  0  0  0  0  0  0  0  0
   31.2900   26.8350   46.6560 N   0  0  0  0  0  0  0  0  0  0  0  0
   32.4360   27.4530   46.9960 C   0  0  0  0  0  0  0  0  0  0  0  0
   33.3100   27.4860   46.0680 O   0  0  0  0  0  0  0  0  0  0  0  0
   38.1340   33.1630   49.5110 C   0  0  0  0  0  0  0  0  0  0  0  0
   39.0460   33.1950   48.4370 C   0  0  0  0  0  0  0  0  0  0  0  0
   38.9080   32.2340   47.4370 C   0  0  0  0  0  0  0  0  0  0  0  0
   37.9030   31.3140   47.5420 N   0  0  0  0  0  0  0  0  0  0  0  0
   37.0560   31.3190   48.5800 C   0  0  0  0  0  0  0  0  0  0  0  0
   37.1410   32.2290   49.5840 N   0  0  0  0  0  0  0  0  0  0  0  0
   36.8531   28.8619   50.0605 H   0  0  0  0  0  0  0  0  0  0  0  0
   34.8730   27.3656   49.8709 H   0  0  0  0  0  0  0  0  0  0  0  0
   31.9108   28.3822   50.1097 H   0  0  0  0  0  0  0  0  0  0  0  0
   29.8458   27.2557   50.8753 H   0  0  0  0  0  0  0  0  0  0  0  0
   28.7210   28.0525   49.7236 H   0  0  0  0  0  0  0  0  0  0  0  0
   28.8883   26.2640   49.7236 H   0  0  0  0  0  0  0  0  0  0  0  0
   31.1526   26.4298   45.7191 H   0  0  0  0  0  0  0  0  0  0  0  0
   38.2248   33.9111   50.3124 H   0  0  0  0  0  0  0  0  0  0  0  0
   39.8409   33.9538   48.3895 H   0  0  0  0  0  0  0  0  0  0  0  0
   39.5957   32.2164   46.5787 H   0  0  0  0  0  0  0  0  0  0  0  0
  1  2  2  0
  3  2  1  0
  4  3  2  0
  5  4  1  0
  5  1  1  0
  6  4  1  0
  6  7  1  0
  8  7  2  0
  8  9  1  0
 10  8  1  0
 11 10  2  0
 12 13  1  0
 12 10  1  0
 13  6  1  0
 14 13  2  0
 15 20  2  0
 16 15  1  0
 17 18  1  0
 17 16  2  0
 18 19  2  0
 19  1  1  0
 19 20  1  0
  2 21  1  0
  3 22  1  0
  7 23  1  0
  9 24  1  0
  9 25  1  0
  9 26  1  0
 12 27  1  0
 15 28  1  0
 16 29  1  0
 17 30  1  0
M  ISO  8  21  14  22  14  23  14  24   8  25   8  26   8  27   9  28  14
M  ISO  2  29  14  30  14
M  END
>  <minimizedAffinity>  (1) 
-5.72772455

>  <minimizedRMSD>  (1) 
2.9276793

$$$$
