
     RDKit          3D

 27 29  0  0  0  0  0  0  0  0999 V2000
   35.3440   29.5470   48.4950 C   0  0  0  0  0  0  0  0  0  0  0  0
   35.1150   28.3250   49.1740 C   0  0  0  0  0  0  0  0  0  0  0  0
   33.9740   27.6550   48.8490 C   0  0  0  0  0  0  0  0  0  0  0  0
   33.1410   28.1630   47.9310 C   0  0  0  0  0  0  0  0  0  0  0  0
   33.9090   29.6980   47.4090 S   0  0  0  0  0  0  0  0  0  0  0  0
   38.1730   31.3230   50.0620 C   0  0  0  0  0  0  0  0  0  0  0  0
   38.6610   32.0990   48.9760 C   0  0  0  0  0  0  0  0  0  0  0  0
   38.0070   31.9950   47.7320 C   0  0  0  0  0  0  0  0  0  0  0  0
   36.9390   31.1520   47.6410 N   0  0  0  0  0  0  0  0  0  0  0  0
   36.5090   30.4380   48.6840 C   0  0  0  0  0  0  0  0  0  0  0  0
   37.1070   30.5090   49.8870 N   0  0  0  0  0  0  0  0  0  0  0  0
   31.9160   27.6890   47.4170 N   0  0  0  0  0  0  0  0  0  0  0  0
   31.6590   27.2920   46.1580 C   0  0  0  0  0  0  0  0  0  0  0  0
   30.4080   26.8600   45.8400 C   0  0  0  0  0  0  0  0  0  0  0  0
   29.3990   26.8260   46.7970 C   0  0  0  0  0  0  0  0  0  0  0  0
   28.2230   26.4230   46.5090 O   0  0  0  0  0  0  0  0  0  0  0  0
   29.6930   27.2300   48.0410 N   0  0  0  0  0  0  0  0  0  0  0  0
   30.9300   27.6550   48.3480 C   0  0  0  0  0  0  0  0  0  0  0  0
   31.0840   28.0120   49.5620 O   0  0  0  0  0  0  0  0  0  0  0  0
   35.8207   27.9377   49.9236 H   0  0  0  0  0  0  0  0  0  0  0  0
   33.7374   26.6992   49.3393 H   0  0  0  0  0  0  0  0  0  0  0  0
   38.6624   31.3844   51.0452 H   0  0  0  0  0  0  0  0  0  0  0  0
   39.5277   32.7643   49.1033 H   0  0  0  0  0  0  0  0  0  0  0  0
   38.3473   32.5755   46.8618 H   0  0  0  0  0  0  0  0  0  0  0  0
   32.4504   27.3161   45.3943 H   0  0  0  0  0  0  0  0  0  0  0  0
   30.1919   26.5333   44.8121 H   0  0  0  0  0  0  0  0  0  0  0  0
   28.9637   27.2144   48.7682 H   0  0  0  0  0  0  0  0  0  0  0  0
  1 10  1  0
  1  2  2  0
  3  2  1  0
  4  3  2  0
  5  4  1  0
  5  1  1  0
  7  6  2  0
  8  7  1  0
  9  8  2  0
  9 10  1  0
 10 11  2  0
 11  6  1  0
 12  4  1  0
 12 18  1  0
 13 12  1  0
 14 13  2  0
 14 15  1  0
 15 17  1  0
 16 15  2  0
 17 18  1  0
 18 19  2  0
  2 20  1  0
  3 21  1  0
  6 22  1  0
  7 23  1  0
  8 24  1  0
 13 25  1  0
 14 26  1  0
 17 27  1  0
M  ISO  8  20  14  21  14  22  14  23  14  24  14  25  14  26  14  27   9
M  END
>  <minimizedAffinity>  (1) 
-4.89406013

>  <minimizedRMSD>  (1) 
1.51238167

$$$$
