
     RDKit          3D

 31 33  0  0  0  0  0  0  0  0999 V2000
   35.1850   29.5690   48.6010 C   0  0  0  0  0  0  0  0  0  0  0  0
   34.7940   28.3250   49.1470 C   0  0  0  0  0  0  0  0  0  0  0  0
   33.6520   27.7730   48.6460 C   0  0  0  0  0  0  0  0  0  0  0  0
   32.9730   28.4180   47.6870 C   0  0  0  0  0  0  0  0  0  0  0  0
   33.9000   29.9160   47.3800 S   0  0  0  0  0  0  0  0  0  0  0  0
   38.0550   30.8520   50.5340 C   0  0  0  0  0  0  0  0  0  0  0  0
   38.5960   31.8140   49.6370 C   0  0  0  0  0  0  0  0  0  0  0  0
   37.9600   31.9980   48.3940 C   0  0  0  0  0  0  0  0  0  0  0  0
   36.8530   31.2410   48.1090 N   0  0  0  0  0  0  0  0  0  0  0  0
   36.3810   30.3460   48.9880 C   0  0  0  0  0  0  0  0  0  0  0  0
   36.9640   30.1400   50.1930 N   0  0  0  0  0  0  0  0  0  0  0  0
   31.7880   28.1010   46.9940 N   0  0  0  0  0  0  0  0  0  0  0  0
   31.0440   29.0960   46.2870 C   0  0  0  0  0  0  0  0  0  0  0  0
   29.6030   29.0080   46.6720 C   0  0  0  0  0  0  0  0  0  0  0  0
   29.0950   27.6680   46.4410 N   0  0  0  0  0  0  0  0  0  0  0  0
   29.8010   26.6710   47.1820 C   0  0  0  0  0  0  0  0  0  0  0  0
   31.3120   26.7590   46.9900 C   0  0  0  0  0  0  0  0  0  0  0  0
   35.3800   27.8285   49.9344 H   0  0  0  0  0  0  0  0  0  0  0  0
   33.2909   26.8059   49.0260 H   0  0  0  0  0  0  0  0  0  0  0  0
   38.5306   30.6885   51.5123 H   0  0  0  0  0  0  0  0  0  0  0  0
   39.4876   32.3989   49.9070 H   0  0  0  0  0  0  0  0  0  0  0  0
   38.3423   32.7316   47.6690 H   0  0  0  0  0  0  0  0  0  0  0  0
   31.1451   28.9291   45.2044 H   0  0  0  0  0  0  0  0  0  0  0  0
   31.4313   30.0935   46.5421 H   0  0  0  0  0  0  0  0  0  0  0  0
   29.4976   29.2560   47.7385 H   0  0  0  0  0  0  0  0  0  0  0  0
   29.0274   29.7169   46.0586 H   0  0  0  0  0  0  0  0  0  0  0  0
   28.1027   27.6407   46.7157 H   0  0  0  0  0  0  0  0  0  0  0  0
   29.5734   26.7989   48.2506 H   0  0  0  0  0  0  0  0  0  0  0  0
   29.4745   25.6875   46.8131 H   0  0  0  0  0  0  0  0  0  0  0  0
   31.5721   26.2960   46.0267 H   0  0  0  0  0  0  0  0  0  0  0  0
   31.7857   26.2353   47.8334 H   0  0  0  0  0  0  0  0  0  0  0  0
  1 10  1  0
  1  2  2  0
  3  2  1  0
  4  3  2  0
  5  4  1  0
  5  1  1  0
  7  6  2  0
  8  7  1  0
  9  8  2  0
  9 10  1  0
 10 11  2  0
 11  6  1  0
 12  4  1  0
 13 14  1  0
 13 12  1  0
 15 14  1  0
 15 16  1  0
 17 12  1  0
 17 16  1  0
  2 18  1  0
  3 19  1  0
  6 20  1  0
  7 21  1  0
  8 22  1  0
 13 23  1  0
 13 24  1  0
 14 25  1  0
 14 26  1  0
 15 27  1  0
 16 28  1  0
 16 29  1  0
 17 30  1  0
 17 31  1  0
M  ISO  8  18  14  19  14  20  14  21  14  22  14  23  13  24  13  25  13
M  ISO  6  26  13  27   5  28  13  29  13  30  13  31  13
M  END
>  <minimizedAffinity>  (1) 
-4.63182783

>  <minimizedRMSD>  (1) 
0.928506494

$$$$
