
     RDKit          3D

 30 32  0  0  0  0  0  0  0  0999 V2000
   34.9320   29.3260   48.6920 C   0  0  0  0  0  0  0  0  0  0  0  0
   34.3090   28.1340   49.1370 C   0  0  0  0  0  0  0  0  0  0  0  0
   33.2040   27.7320   48.4550 C   0  0  0  0  0  0  0  0  0  0  0  0
   32.7620   28.4580   47.4220 C   0  0  0  0  0  0  0  0  0  0  0  0
   33.9050   29.8330   47.3030 S   0  0  0  0  0  0  0  0  0  0  0  0
   37.5140   30.3770   51.1100 C   0  0  0  0  0  0  0  0  0  0  0  0
   38.3980   31.1130   50.3040 C   0  0  0  0  0  0  0  0  0  0  0  0
   38.0840   31.2300   48.9510 C   0  0  0  0  0  0  0  0  0  0  0  0
   36.9510   30.6370   48.4630 N   0  0  0  0  0  0  0  0  0  0  0  0
   36.1350   29.9420   49.2800 C   0  0  0  0  0  0  0  0  0  0  0  0
   36.3910   29.7950   50.6040 N   0  0  0  0  0  0  0  0  0  0  0  0
   31.6140   28.2850   46.5010 C   0  0  0  0  0  0  0  0  0  0  0  0
   31.1350   29.6190   45.9520 C   0  0  0  0  0  0  0  0  0  0  0  0
   29.7980   29.2150   45.3270 C   0  0  0  0  0  0  0  0  0  0  0  0
   29.2770   28.0840   46.1850 C   0  0  0  0  0  0  0  0  0  0  0  0
   30.3850   27.7780   47.1940 C   0  0  0  0  0  0  0  0  0  0  0  0
   34.6999   27.5624   49.9917 H   0  0  0  0  0  0  0  0  0  0  0  0
   32.6756   26.8138   48.7512 H   0  0  0  0  0  0  0  0  0  0  0  0
   37.7351   30.2672   52.1819 H   0  0  0  0  0  0  0  0  0  0  0  0
   39.3020   31.5785   50.7237 H   0  0  0  0  0  0  0  0  0  0  0  0
   38.7442   31.7967   48.2780 H   0  0  0  0  0  0  0  0  0  0  0  0
   31.9948   27.5912   45.7371 H   0  0  0  0  0  0  0  0  0  0  0  0
   30.9987   30.3601   46.7534 H   0  0  0  0  0  0  0  0  0  0  0  0
   31.8354   30.0992   45.2529 H   0  0  0  0  0  0  0  0  0  0  0  0
   29.0962   30.0619   45.3395 H   0  0  0  0  0  0  0  0  0  0  0  0
   29.9138   28.9106   44.2763 H   0  0  0  0  0  0  0  0  0  0  0  0
   28.3587   28.3914   46.7067 H   0  0  0  0  0  0  0  0  0  0  0  0
   29.0269   27.2002   45.5797 H   0  0  0  0  0  0  0  0  0  0  0  0
   30.4568   26.6977   47.3883 H   0  0  0  0  0  0  0  0  0  0  0  0
   30.2178   28.2401   48.1781 H   0  0  0  0  0  0  0  0  0  0  0  0
  1  2  2  0
  1 10  1  0
  3  2  1  0
  4  3  2  0
  5  4  1  0
  5  1  1  0
  7  6  2  0
  8  7  1  0
  9  8  2  0
  9 10  1  0
 10 11  2  0
 11  6  1  0
 12 16  1  0
 12  4  1  0
 13 12  1  0
 14 13  1  0
 14 15  1  0
 15 16  1  0
  2 17  1  0
  3 18  1  0
  6 19  1  0
  7 20  1  0
  8 21  1  0
 12 22  1  0
 13 23  1  0
 13 24  1  0
 14 25  1  0
 14 26  1  0
 15 27  1  0
 15 28  1  0
 16 29  1  0
 16 30  1  0
M  ISO  8  17  14  18  14  19  14  20  14  21  14  22  13  23  13  24  13
M  ISO  6  25  13  26  13  27  13  28  13  29  13  30  13
M  END
>  <minimizedAffinity>  (1) 
-4.42229223

>  <minimizedRMSD>  (1) 
0.395525962

$$$$
