
     RDKit          3D

 24 26  0  0  0  0  0  0  0  0999 V2000
   35.1900   29.5570   48.5470 C   0  0  0  0  0  0  0  0  0  0  0  0
   34.7660   28.3280   49.1080 C   0  0  0  0  0  0  0  0  0  0  0  0
   33.6370   27.7760   48.5850 C   0  0  0  0  0  0  0  0  0  0  0  0
   33.0060   28.4130   47.5930 C   0  0  0  0  0  0  0  0  0  0  0  0
   33.9610   29.9130   47.2710 S   0  0  0  0  0  0  0  0  0  0  0  0
   38.0280   30.8280   50.5240 C   0  0  0  0  0  0  0  0  0  0  0  0
   38.5750   31.8050   49.6710 C   0  0  0  0  0  0  0  0  0  0  0  0
   37.9680   32.0100   48.4400 C   0  0  0  0  0  0  0  0  0  0  0  0
   36.8850   31.2520   48.1440 N   0  0  0  0  0  0  0  0  0  0  0  0
   36.3790   30.3290   48.9640 C   0  0  0  0  0  0  0  0  0  0  0  0
   36.9370   30.0900   50.1790 N   0  0  0  0  0  0  0  0  0  0  0  0
   31.8090   28.0930   46.8430 C   0  0  0  0  0  0  0  0  0  0  0  0
   31.0610   29.0580   46.2100 C   0  0  0  0  0  0  0  0  0  0  0  0
   30.0320   28.3880   45.6220 N   0  0  0  0  0  0  0  0  0  0  0  0
   30.1690   27.0710   45.8990 C   0  0  0  0  0  0  0  0  0  0  0  0
   31.2650   26.8800   46.6530 N   0  0  0  0  0  0  0  0  0  0  0  0
   35.3209   27.8438   49.9251 H   0  0  0  0  0  0  0  0  0  0  0  0
   33.2502   26.8218   48.9720 H   0  0  0  0  0  0  0  0  0  0  0  0
   38.4982   30.6547   51.5032 H   0  0  0  0  0  0  0  0  0  0  0  0
   39.4576   32.3888   49.9713 H   0  0  0  0  0  0  0  0  0  0  0  0
   38.3515   32.7592   47.7318 H   0  0  0  0  0  0  0  0  0  0  0  0
   31.2532   30.1408   46.1843 H   0  0  0  0  0  0  0  0  0  0  0  0
   29.4873   26.2775   45.5590 H   0  0  0  0  0  0  0  0  0  0  0  0
   31.6176   25.9819   47.0135 H   0  0  0  0  0  0  0  0  0  0  0  0
  1 10  1  0
  1  2  2  0
  3  2  1  0
  4  3  2  0
  5  4  1  0
  5  1  1  0
  7  6  2  0
  8  7  1  0
  9  8  2  0
  9 10  1  0
 10 11  2  0
 11  6  1  0
 12  4  1  0
 13 12  2  0
 14 15  2  0
 14 13  1  0
 15 16  1  0
 16 12  1  0
  2 17  1  0
  3 18  1  0
  6 19  1  0
  7 20  1  0
  8 21  1  0
 13 22  1  0
 15 23  1  0
 16 24  1  0
M  ISO  8  17  14  18  14  19  14  20  14  21  14  22  14  23  14  24   9
M  END
>  <minimizedAffinity>  (1) 
-4.36084175

>  <minimizedRMSD>  (1) 
0.728093803

$$$$
