
     RDKit          3D

 16 17  0  0  0  0  0  0  0  0999 V2000
   37.2890   30.1210   51.4610 C   0  0  0  0  0  0  0  0  0  0  0  0
   38.0400   30.8550   50.5130 C   0  0  0  0  0  0  0  0  0  0  0  0
   37.6960   30.7300   49.1670 C   0  0  0  0  0  0  0  0  0  0  0  0
   36.6600   29.9110   48.8370 N   0  0  0  0  0  0  0  0  0  0  0  0
   35.9610   29.2220   49.7640 C   0  0  0  0  0  0  0  0  0  0  0  0
   36.2730   29.3250   51.0790 N   0  0  0  0  0  0  0  0  0  0  0  0
   38.3870   31.4240   48.1360 N   0  0  0  0  0  0  0  0  0  0  0  0
   38.9140   32.6260   47.9570 C   0  0  0  0  0  0  0  0  0  0  0  0
   39.4660   32.7200   46.7200 N   0  0  0  0  0  0  0  0  0  0  0  0
   39.2540   31.5070   46.1310 C   0  0  0  0  0  0  0  0  0  0  0  0
   38.5950   30.7280   47.0090 N   0  0  0  0  0  0  0  0  0  0  0  0
   37.5398   30.2022   52.5290 H   0  0  0  0  0  0  0  0  0  0  0  0
   38.8700   31.5046   50.8278 H   0  0  0  0  0  0  0  0  0  0  0  0
   35.1314   28.5717   49.4495 H   0  0  0  0  0  0  0  0  0  0  0  0
   38.9056   33.4332   48.7042 H   0  0  0  0  0  0  0  0  0  0  0  0
   39.5667   31.2170   45.1170 H   0  0  0  0  0  0  0  0  0  0  0  0
  2  1  2  0
  3  2  1  0
  4  3  2  0
  4  5  1  0
  5  6  2  0
  6  1  1  0
  7  3  1  0
  8  7  1  0
  9  8  2  0
 10  9  1  0
 10 11  2  0
 11  7  1  0
  1 12  1  0
  2 13  1  0
  5 14  1  0
  8 15  1  0
 10 16  1  0
M  ISO  5  12  14  13  14  14  14  15  14  16  14
M  END
>  <minimizedAffinity>  (1) 
-4.45696449

>  <minimizedRMSD>  (1) 
0.566936553

$$$$
