
     RDKit          3D

 24 26  0  0  0  0  0  0  0  0999 V2000
   34.9650   29.2320   48.6550 C   0  0  0  0  0  0  0  0  0  0  0  0
   34.3950   28.0100   49.0650 C   0  0  0  0  0  0  0  0  0  0  0  0
   33.2970   27.5900   48.3780 C   0  0  0  0  0  0  0  0  0  0  0  0
   32.8170   28.3290   47.3720 C   0  0  0  0  0  0  0  0  0  0  0  0
   33.9020   29.7440   47.2870 S   0  0  0  0  0  0  0  0  0  0  0  0
   37.4840   30.3620   51.1050 C   0  0  0  0  0  0  0  0  0  0  0  0
   38.3630   31.1210   50.2840 C   0  0  0  0  0  0  0  0  0  0  0  0
   38.0680   31.2250   48.9110 C   0  0  0  0  0  0  0  0  0  0  0  0
   36.9520   30.5940   48.4300 N   0  0  0  0  0  0  0  0  0  0  0  0
   36.1480   29.8880   49.2360 C   0  0  0  0  0  0  0  0  0  0  0  0
   36.3910   29.7590   50.5640 N   0  0  0  0  0  0  0  0  0  0  0  0
   31.7170   28.1400   46.5070 N   0  0  0  0  0  0  0  0  0  0  0  0
   31.2460   27.0610   45.8540 C   0  0  0  0  0  0  0  0  0  0  0  0
   30.1370   27.4760   45.1540 C   0  0  0  0  0  0  0  0  0  0  0  0
   29.9330   28.7950   45.3760 N   0  0  0  0  0  0  0  0  0  0  0  0
   30.9200   29.2080   46.2210 C   0  0  0  0  0  0  0  0  0  0  0  0
   34.8154   27.4258   49.8969 H   0  0  0  0  0  0  0  0  0  0  0  0
   32.8055   26.6443   48.6500 H   0  0  0  0  0  0  0  0  0  0  0  0
   37.6886   30.2622   52.1812 H   0  0  0  0  0  0  0  0  0  0  0  0
   39.2495   31.6136   50.7101 H   0  0  0  0  0  0  0  0  0  0  0  0
   38.7206   31.8013   48.2387 H   0  0  0  0  0  0  0  0  0  0  0  0
   31.6664   26.0448   45.8760 H   0  0  0  0  0  0  0  0  0  0  0  0
   29.5131   26.8353   44.5135 H   0  0  0  0  0  0  0  0  0  0  0  0
   31.0509   30.2299   46.6066 H   0  0  0  0  0  0  0  0  0  0  0  0
  1  2  2  0
  1 10  1  0
  3  2  1  0
  4  3  2  0
  5  4  1  0
  5  1  1  0
  7  6  2  0
  8  7  1  0
  9  8  2  0
  9 10  1  0
 10 11  2  0
 11  6  1  0
 12  4  1  0
 13 12  1  0
 14 15  1  0
 14 13  2  0
 15 16  2  0
 16 12  1  0
  2 17  1  0
  3 18  1  0
  6 19  1  0
  7 20  1  0
  8 21  1  0
 13 22  1  0
 14 23  1  0
 16 24  1  0
M  ISO  8  17  14  18  14  19  14  20  14  21  14  22  14  23  14  24  14
M  END
>  <minimizedAffinity>  (1) 
-4.33353329

>  <minimizedRMSD>  (1) 
0.210175306

$$$$
