
     RDKit          3D

 24 26  0  0  0  0  0  0  0  0999 V2000
   34.9270   29.3170   48.6810 C   0  0  0  0  0  0  0  0  0  0  0  0
   34.2980   28.1270   49.1330 C   0  0  0  0  0  0  0  0  0  0  0  0
   33.1970   27.7340   48.4310 C   0  0  0  0  0  0  0  0  0  0  0  0
   32.7650   28.4530   47.3880 C   0  0  0  0  0  0  0  0  0  0  0  0
   33.9150   29.8200   47.2760 S   0  0  0  0  0  0  0  0  0  0  0  0
   37.5000   30.3690   51.1050 C   0  0  0  0  0  0  0  0  0  0  0  0
   38.3850   31.1020   50.3030 C   0  0  0  0  0  0  0  0  0  0  0  0
   38.0780   31.2210   48.9490 C   0  0  0  0  0  0  0  0  0  0  0  0
   36.9470   30.6270   48.4630 N   0  0  0  0  0  0  0  0  0  0  0  0
   36.1290   29.9320   49.2780 C   0  0  0  0  0  0  0  0  0  0  0  0
   36.3730   29.7810   50.6020 N   0  0  0  0  0  0  0  0  0  0  0  0
   31.6580   28.2740   46.4930 C   0  0  0  0  0  0  0  0  0  0  0  0
   30.8540   29.2870   46.0790 C   0  0  0  0  0  0  0  0  0  0  0  0
   29.9130   28.7020   45.2290 C   0  0  0  0  0  0  0  0  0  0  0  0
   30.2200   27.3430   45.1870 C   0  0  0  0  0  0  0  0  0  0  0  0
   31.2580   27.1700   45.9560 O   0  0  0  0  0  0  0  0  0  0  0  0
   34.6752   27.5578   49.9954 H   0  0  0  0  0  0  0  0  0  0  0  0
   32.6601   26.8197   48.7239 H   0  0  0  0  0  0  0  0  0  0  0  0
   37.7200   30.2630   52.1776 H   0  0  0  0  0  0  0  0  0  0  0  0
   39.2880   31.5660   50.7264 H   0  0  0  0  0  0  0  0  0  0  0  0
   38.7397   31.7877   48.2775 H   0  0  0  0  0  0  0  0  0  0  0  0
   30.9285   30.3490   46.3559 H   0  0  0  0  0  0  0  0  0  0  0  0
   29.0944   29.2112   44.6993 H   0  0  0  0  0  0  0  0  0  0  0  0
   29.6893   26.5671   44.6157 H   0  0  0  0  0  0  0  0  0  0  0  0
  1  2  2  0
  1 10  1  0
  3  2  1  0
  4  3  2  0
  5  4  1  0
  5  1  1  0
  7  6  2  0
  8  7  1  0
  9  8  2  0
  9 10  1  0
 10 11  2  0
 11  6  1  0
 12  4  1  0
 13 12  2  0
 14 13  1  0
 15 14  2  0
 15 16  1  0
 16 12  1  0
  2 17  1  0
  3 18  1  0
  6 19  1  0
  7 20  1  0
  8 21  1  0
 13 22  1  0
 14 23  1  0
 15 24  1  0
M  ISO  8  17  14  18  14  19  14  20  14  21  14  22  14  23  14  24  14
M  END
>  <minimizedAffinity>  (1) 
-4.32987022

>  <minimizedRMSD>  (1) 
0.406078398

$$$$
