
     RDKit          3D

 24 26  0  0  0  0  0  0  0  0999 V2000
   34.9290   29.2960   48.6910 C   0  0  0  0  0  0  0  0  0  0  0  0
   34.3140   28.1050   49.1520 C   0  0  0  0  0  0  0  0  0  0  0  0
   33.2160   27.7010   48.4580 C   0  0  0  0  0  0  0  0  0  0  0  0
   32.7680   28.4030   47.4120 C   0  0  0  0  0  0  0  0  0  0  0  0
   33.9010   29.7780   47.2840 S   0  0  0  0  0  0  0  0  0  0  0  0
   37.5030   30.3850   51.1060 C   0  0  0  0  0  0  0  0  0  0  0  0
   38.3800   31.1130   50.2750 C   0  0  0  0  0  0  0  0  0  0  0  0
   38.0720   31.2180   48.9080 C   0  0  0  0  0  0  0  0  0  0  0  0
   36.9390   30.6130   48.4330 N   0  0  0  0  0  0  0  0  0  0  0  0
   36.1330   29.9250   49.2800 C   0  0  0  0  0  0  0  0  0  0  0  0
   36.3880   29.7980   50.6000 N   0  0  0  0  0  0  0  0  0  0  0  0
   31.6660   28.2230   46.5160 C   0  0  0  0  0  0  0  0  0  0  0  0
   31.3240   27.0630   45.9060 C   0  0  0  0  0  0  0  0  0  0  0  0
   30.2650   26.9930   45.0750 C   0  0  0  0  0  0  0  0  0  0  0  0
   29.5510   28.2640   44.9120 C   0  0  0  0  0  0  0  0  0  0  0  0
   30.5520   29.4250   46.0270 S   0  0  0  0  0  0  0  0  0  0  0  0
   34.6999   27.5434   50.0156 H   0  0  0  0  0  0  0  0  0  0  0  0
   32.6895   26.7842   48.7616 H   0  0  0  0  0  0  0  0  0  0  0  0
   37.7255   30.2915   52.1792 H   0  0  0  0  0  0  0  0  0  0  0  0
   39.2831   31.5870   50.6870 H   0  0  0  0  0  0  0  0  0  0  0  0
   38.7317   31.7782   48.2290 H   0  0  0  0  0  0  0  0  0  0  0  0
   31.9229   26.1594   46.0926 H   0  0  0  0  0  0  0  0  0  0  0  0
   29.9634   26.0662   44.5650 H   0  0  0  0  0  0  0  0  0  0  0  0
   28.6639   28.4860   44.3007 H   0  0  0  0  0  0  0  0  0  0  0  0
  1  2  2  0
  1 10  1  0
  3  2  1  0
  4  3  2  0
  5  4  1  0
  5  1  1  0
  7  6  2  0
  8  7  1  0
  9  8  2  0
  9 10  1  0
 10 11  2  0
 11  6  1  0
 12  4  1  0
 13 12  2  0
 14 13  1  0
 15 14  2  0
 15 16  1  0
 16 12  1  0
  2 17  1  0
  3 18  1  0
  6 19  1  0
  7 20  1  0
  8 21  1  0
 13 22  1  0
 14 23  1  0
 15 24  1  0
M  ISO  8  17  14  18  14  19  14  20  14  21  14  22  14  23  14  24  14
M  END
>  <minimizedAffinity>  (1) 
-4.32080317

>  <minimizedRMSD>  (1) 
0.271615744

$$$$
