
     RDKit          3D

 29 30  0  0  0  0  0  0  0  0999 V2000
   34.9400   29.3250   48.6880 C   0  0  0  0  0  0  0  0  0  0  0  0
   34.3160   28.1420   49.1460 C   0  0  0  0  0  0  0  0  0  0  0  0
   33.2120   27.7260   48.4730 C   0  0  0  0  0  0  0  0  0  0  0  0
   32.7730   28.4400   47.4290 C   0  0  0  0  0  0  0  0  0  0  0  0
   33.9140   29.8170   47.2860 S   0  0  0  0  0  0  0  0  0  0  0  0
   37.5080   30.3710   51.1210 C   0  0  0  0  0  0  0  0  0  0  0  0
   38.3940   31.1200   50.2980 C   0  0  0  0  0  0  0  0  0  0  0  0
   38.0870   31.2470   48.9370 C   0  0  0  0  0  0  0  0  0  0  0  0
   36.9570   30.6440   48.4740 N   0  0  0  0  0  0  0  0  0  0  0  0
   36.1470   29.9460   49.2780 C   0  0  0  0  0  0  0  0  0  0  0  0
   36.3900   29.7890   50.6020 N   0  0  0  0  0  0  0  0  0  0  0  0
   31.6260   28.2580   46.5110 C   0  0  0  0  0  0  0  0  0  0  0  0
   31.2190   29.5940   45.9470 C   0  0  0  0  0  0  0  0  0  0  0  0
   30.4290   27.6550   47.2510 C   0  0  0  0  0  0  0  0  0  0  0  0
   31.9520   27.2550   45.4100 C   0  0  0  0  0  0  0  0  0  0  0  0
   34.7072   27.5833   50.0090 H   0  0  0  0  0  0  0  0  0  0  0  0
   32.6841   26.8119   48.7825 H   0  0  0  0  0  0  0  0  0  0  0  0
   37.7285   30.2597   52.1929 H   0  0  0  0  0  0  0  0  0  0  0  0
   39.2964   31.5872   50.7191 H   0  0  0  0  0  0  0  0  0  0  0  0
   38.7405   31.8179   48.2610 H   0  0  0  0  0  0  0  0  0  0  0  0
   31.0068   30.2907   46.7713 H   0  0  0  0  0  0  0  0  0  0  0  0
   32.0357   29.9952   45.3289 H   0  0  0  0  0  0  0  0  0  0  0  0
   30.3173   29.4718   45.3289 H   0  0  0  0  0  0  0  0  0  0  0  0
   30.5900   27.7361   48.3361 H   0  0  0  0  0  0  0  0  0  0  0  0
   29.5144   28.1999   46.9743 H   0  0  0  0  0  0  0  0  0  0  0  0
   30.3226   26.5957   46.9743 H   0  0  0  0  0  0  0  0  0  0  0  0
   32.2619   26.3015   45.8626 H   0  0  0  0  0  0  0  0  0  0  0  0
   31.0605   27.0923   44.7865 H   0  0  0  0  0  0  0  0  0  0  0  0
   32.7688   27.6475   44.7865 H   0  0  0  0  0  0  0  0  0  0  0  0
  1  2  2  0
  1 10  1  0
  3  2  1  0
  4  3  2  0
  5  4  1  0
  5  1  1  0
  7  6  2  0
  8  7  1  0
  9  8  2  0
  9 10  1  0
 10 11  2  0
 11  6  1  0
 12 14  1  0
 12  4  1  0
 13 12  1  0
 15 12  1  0
  2 16  1  0
  3 17  1  0
  6 18  1  0
  7 19  1  0
  8 20  1  0
 13 21  1  0
 13 22  1  0
 13 23  1  0
 14 24  1  0
 14 25  1  0
 14 26  1  0
 15 27  1  0
 15 28  1  0
 15 29  1  0
M  ISO  8  16  14  17  14  18  14  19  14  20  14  21   8  22   8  23   8
M  ISO  6  24   8  25   8  26   8  27   8  28   8  29   8
M  END
>  <minimizedAffinity>  (1) 
-4.30740833

>  <minimizedRMSD>  (1) 
0.261942327

$$$$
