
     RDKit          3D

 24 26  0  0  0  0  0  0  0  0999 V2000
   34.9590   29.2450   48.6160 C   0  0  0  0  0  0  0  0  0  0  0  0
   34.3570   28.0350   49.0340 C   0  0  0  0  0  0  0  0  0  0  0  0
   33.2720   27.6160   48.3250 C   0  0  0  0  0  0  0  0  0  0  0  0
   32.8410   28.3530   47.2930 C   0  0  0  0  0  0  0  0  0  0  0  0
   33.9470   29.7510   47.2110 S   0  0  0  0  0  0  0  0  0  0  0  0
   37.4520   30.3290   51.1120 C   0  0  0  0  0  0  0  0  0  0  0  0
   38.3430   31.0940   50.3150 C   0  0  0  0  0  0  0  0  0  0  0  0
   38.0710   31.2230   48.9500 C   0  0  0  0  0  0  0  0  0  0  0  0
   36.9630   30.6070   48.4460 N   0  0  0  0  0  0  0  0  0  0  0  0
   36.1440   29.8890   49.2350 C   0  0  0  0  0  0  0  0  0  0  0  0
   36.3580   29.7300   50.5650 N   0  0  0  0  0  0  0  0  0  0  0  0
   31.6990   28.1250   46.3710 C   0  0  0  0  0  0  0  0  0  0  0  0
   30.4610   28.9590   46.5990 C   0  0  0  0  0  0  0  0  0  0  0  0
   30.4570   27.4950   46.8930 C   0  0  0  0  0  0  0  0  0  0  0  0
   34.7455   27.4614   49.8885 H   0  0  0  0  0  0  0  0  0  0  0  0
   32.7559   26.6834   48.5968 H   0  0  0  0  0  0  0  0  0  0  0  0
   37.6482   30.2181   52.1887 H   0  0  0  0  0  0  0  0  0  0  0  0
   39.2266   31.5740   50.7609 H   0  0  0  0  0  0  0  0  0  0  0  0
   38.7353   31.8080   48.2970 H   0  0  0  0  0  0  0  0  0  0  0  0
   32.3676   27.9121   45.5239 H   0  0  0  0  0  0  0  0  0  0  0  0
   30.4304   29.6873   47.4228 H   0  0  0  0  0  0  0  0  0  0  0  0
   29.8490   29.6341   45.9827 H   0  0  0  0  0  0  0  0  0  0  0  0
   29.8804   26.8098   46.2542 H   0  0  0  0  0  0  0  0  0  0  0  0
   30.2120   26.8847   47.7748 H   0  0  0  0  0  0  0  0  0  0  0  0
  1  2  2  0
  1 10  1  0
  3  2  1  0
  4  3  2  0
  5  4  1  0
  5  1  1  0
  7  6  2  0
  8  7  1  0
  9  8  2  0
  9 10  1  0
 10 11  2  0
 11  6  1  0
 12 13  1  0
 12 14  1  0
 12  4  1  0
 13 14  1  0
  2 15  1  0
  3 16  1  0
  6 17  1  0
  7 18  1  0
  8 19  1  0
 12 20  1  0
 13 21  1  0
 13 22  1  0
 14 23  1  0
 14 24  1  0
M  ISO  8  15  14  16  14  17  14  18  14  19  14  20  13  21  13  22  13
M  ISO  2  23  13  24  13
M  END
>  <minimizedAffinity>  (1) 
-4.22323084

>  <minimizedRMSD>  (1) 
0.18762286

$$$$
