
     RDKit          3D

 17 18  0  0  0  0  0  0  0  0999 V2000
   37.3170   30.1820   51.4640 C   0  0  0  0  0  0  0  0  0  0  0  0
   38.0450   30.8730   50.4860 C   0  0  0  0  0  0  0  0  0  0  0  0
   37.7330   30.6270   49.1500 C   0  0  0  0  0  0  0  0  0  0  0  0
   36.7470   29.7370   48.8490 N   0  0  0  0  0  0  0  0  0  0  0  0
   36.0630   29.0850   49.8270 C   0  0  0  0  0  0  0  0  0  0  0  0
   36.3440   29.3050   51.1190 N   0  0  0  0  0  0  0  0  0  0  0  0
   38.4840   31.3410   48.1130 C   0  0  0  0  0  0  0  0  0  0  0  0
   38.7670   32.7070   48.1930 C   0  0  0  0  0  0  0  0  0  0  0  0
   39.4690   32.9690   47.0510 N   0  0  0  0  0  0  0  0  0  0  0  0
   39.5810   31.8220   46.3560 C   0  0  0  0  0  0  0  0  0  0  0  0
   38.9900   30.8130   46.9790 N   0  0  0  0  0  0  0  0  0  0  0  0
   37.5390   30.3543   52.5275 H   0  0  0  0  0  0  0  0  0  0  0  0
   38.8359   31.5854   50.7633 H   0  0  0  0  0  0  0  0  0  0  0  0
   35.2719   28.3706   49.5553 H   0  0  0  0  0  0  0  0  0  0  0  0
   38.4885   33.4098   48.9920 H   0  0  0  0  0  0  0  0  0  0  0  0
   40.0993   31.7331   45.3898 H   0  0  0  0  0  0  0  0  0  0  0  0
   38.9297   29.8340   46.6646 H   0  0  0  0  0  0  0  0  0  0  0  0
  2  1  2  0
  3  2  1  0
  4  3  2  0
  4  5  1  0
  5  6  2  0
  6  1  1  0
  7  8  2  0
  7  3  1  0
  9  8  1  0
 10 11  1  0
 10  9  2  0
 11  7  1  0
  1 12  1  0
  2 13  1  0
  5 14  1  0
  8 15  1  0
 10 16  1  0
 11 17  1  0
M  ISO  6  12  14  13  14  14  14  15  14  16  14  17   9
M  END
>  <minimizedAffinity>  (1) 
-4.40446424

>  <minimizedRMSD>  (1) 
0.510908365

$$$$
