
     RDKit          3D

 39 41  0  0  1  0  0  0  0  0999 V2000
   31.9610   28.1340   46.2590 C   0  0  2  0  0  0  0  0  0  0  0  0
   35.1330   29.4110   48.4900 C   0  0  0  0  0  0  0  0  0  0  0  0
   34.6910   28.1090   48.8100 C   0  0  0  0  0  0  0  0  0  0  0  0
   33.6360   27.6350   48.1030 C   0  0  0  0  0  0  0  0  0  0  0  0
   33.0780   28.3960   47.1690 C   0  0  0  0  0  0  0  0  0  0  0  0
   34.0180   29.9320   47.1800 S   0  0  0  0  0  0  0  0  0  0  0  0
   37.6640   30.5270   50.9260 C   0  0  0  0  0  0  0  0  0  0  0  0
   38.4390   31.4200   50.1540 C   0  0  0  0  0  0  0  0  0  0  0  0
   38.0820   31.6220   48.8350 C   0  0  0  0  0  0  0  0  0  0  0  0
   37.0020   30.9490   48.3520 N   0  0  0  0  0  0  0  0  0  0  0  0
   36.2830   30.1050   49.1150 C   0  0  0  0  0  0  0  0  0  0  0  0
   36.5780   29.8620   50.4130 N   0  0  0  0  0  0  0  0  0  0  0  0
   31.1600   29.4050   46.1410 C   0  0  0  0  0  0  0  0  0  0  0  0
   31.1420   26.9770   46.7320 C   0  0  0  0  0  0  0  0  0  0  0  0
   28.2650   27.6410   49.8200 C   0  0  0  0  0  0  0  0  0  0  0  0
   29.5560   27.2180   50.0460 C   0  0  0  0  0  0  0  0  0  0  0  0
   30.3980   27.0340   48.9600 C   0  0  0  0  0  0  0  0  0  0  0  0
   30.0320   27.2480   47.6140 C   0  0  0  0  0  0  0  0  0  0  0  0
   28.7480   27.6600   47.5100 C   0  0  0  0  0  0  0  0  0  0  0  0
   27.8550   27.8660   48.5250 C   0  0  0  0  0  0  0  0  0  0  0  0
   27.1080   27.9100   51.1020 S   0  0  0  0  0  0  0  0  0  0  0  0
   27.0090   26.7410   52.0230 O   0  0  0  0  0  0  0  0  0  0  0  0
   25.7950   28.2610   50.4710 O   0  0  0  0  0  0  0  0  0  0  0  0
   32.3282   27.8465   45.2627 H   0  0  0  0  0  0  0  0  0  0  0  0
   35.1780   27.5096   49.5933 H   0  0  0  0  0  0  0  0  0  0  0  0
   33.2447   26.6264   48.3018 H   0  0  0  0  0  0  0  0  0  0  0  0
   37.9406   30.3580   51.9771 H   0  0  0  0  0  0  0  0  0  0  0  0
   39.3037   31.9407   50.5912 H   0  0  0  0  0  0  0  0  0  0  0  0
   38.6545   32.3076   48.1929 H   0  0  0  0  0  0  0  0  0  0  0  0
   30.9218   29.7830   47.1462 H   0  0  0  0  0  0  0  0  0  0  0  0
   31.7466   30.1588   45.5953 H   0  0  0  0  0  0  0  0  0  0  0  0
   30.2269   29.2010   45.5953 H   0  0  0  0  0  0  0  0  0  0  0  0
   30.7365   26.4769   45.8401 H   0  0  0  0  0  0  0  0  0  0  0  0
   31.8366   26.3792   47.3403 H   0  0  0  0  0  0  0  0  0  0  0  0
   29.9126   27.0296   51.0694 H   0  0  0  0  0  0  0  0  0  0  0  0
   31.4254   26.6969   49.1621 H   0  0  0  0  0  0  0  0  0  0  0  0
   28.3795   27.8515   46.4914 H   0  0  0  0  0  0  0  0  0  0  0  0
   26.8304   28.2044   48.3113 H   0  0  0  0  0  0  0  0  0  0  0  0
   27.5221   28.9479   51.8946 H   0  0  0  0  0  0  0  0  0  0  0  0
  1 14  1  0
  1  5  1  0
  2  3  2  0
  2 11  1  0
  4  3  1  0
  5  6  1  0
  5  4  2  0
  6  2  1  0
  8  7  2  0
  9  8  1  0
 10  9  2  0
 10 11  1  0
 11 12  2  0
 12  7  1  0
 13  1  1  0
 14 18  1  0
 15 16  2  0
 15 21  1  0
 17 16  1  0
 18 17  2  0
 19 18  1  0
 19 20  2  0
 20 15  1  0
 21 22  2  0
 23 21  2  0
  1 24  1  6
  3 25  1  0
  4 26  1  0
  7 27  1  0
  8 28  1  0
  9 29  1  0
 13 30  1  0
 13 31  1  0
 13 32  1  0
 14 33  1  0
 14 34  1  0
 16 35  1  0
 17 36  1  0
 19 37  1  0
 20 38  1  0
 21 39  1  0
M  ISO  8  24   8  25  14  26  14  27  14  28  14  29  14  30   8  31   8
M  ISO  8  32   8  33   8  34   8  35  14  36  14  37  14  38  14  39  11
M  END
>  <minimizedAffinity>  (1) 
-6.00184822

>  <minimizedRMSD>  (1) 
1.42950368

$$$$
