
     RDKit          3D

 40 42  0  0  1  0  0  0  0  0999 V2000
   34.9200   29.2510   48.6630 C   0  0  0  0  0  0  0  0  0  0  0  0
   34.4130   27.9850   48.9790 C   0  0  0  0  0  0  0  0  0  0  0  0
   33.3000   27.5860   48.3240 C   0  0  0  0  0  0  0  0  0  0  0  0
   32.7550   28.4060   47.4280 C   0  0  0  0  0  0  0  0  0  0  0  0
   33.7960   29.8950   47.4090 S   0  0  0  0  0  0  0  0  0  0  0  0
   37.4650   30.3120   51.1300 C   0  0  0  0  0  0  0  0  0  0  0  0
   38.3560   31.0690   50.3000 C   0  0  0  0  0  0  0  0  0  0  0  0
   38.0720   31.1950   48.9540 C   0  0  0  0  0  0  0  0  0  0  0  0
   36.9490   30.5910   48.4710 N   0  0  0  0  0  0  0  0  0  0  0  0
   36.1350   29.8940   49.2520 C   0  0  0  0  0  0  0  0  0  0  0  0
   36.3590   29.7320   50.5870 N   0  0  0  0  0  0  0  0  0  0  0  0
   31.5540   28.2570   46.5590 C   0  0  2  0  0  0  0  0  0  0  0  0
   31.2780   29.5380   45.8850 C   0  0  0  0  0  0  0  0  0  0  0  0
   30.4760   27.5630   47.2820 C   0  0  0  0  0  0  0  0  0  0  0  0
   29.9110   28.1270   48.4460 N   0  0  0  0  0  0  0  0  0  0  0  0
   29.7810   27.0700   49.4180 C   0  0  0  0  0  0  0  0  0  0  0  0
   28.9820   27.4420   50.6250 C   0  0  0  0  0  0  0  0  0  0  0  0
   28.4130   28.7750   50.5310 N   0  0  0  0  0  0  0  0  0  0  0  0
   27.6860   28.7640   49.2780 C   0  0  0  0  0  0  0  0  0  0  0  0
   28.7240   28.8400   48.1750 C   0  0  0  0  0  0  0  0  0  0  0  0
   34.8993   27.3427   49.7279 H   0  0  0  0  0  0  0  0  0  0  0  0
   32.8528   26.6018   48.5276 H   0  0  0  0  0  0  0  0  0  0  0  0
   37.6746   30.1999   52.2040 H   0  0  0  0  0  0  0  0  0  0  0  0
   39.2519   31.5421   50.7284 H   0  0  0  0  0  0  0  0  0  0  0  0
   38.7348   31.7679   48.2889 H   0  0  0  0  0  0  0  0  0  0  0  0
   31.7100   27.5733   45.7115 H   0  0  0  0  0  0  0  0  0  0  0  0
   31.1094   30.3205   46.6395 H   0  0  0  0  0  0  0  0  0  0  0  0
   32.1373   29.8141   45.2562 H   0  0  0  0  0  0  0  0  0  0  0  0
   30.3813   29.4357   45.2562 H   0  0  0  0  0  0  0  0  0  0  0  0
   29.6521   27.4295   46.5655 H   0  0  0  0  0  0  0  0  0  0  0  0
   30.9773   26.6615   47.6642 H   0  0  0  0  0  0  0  0  0  0  0  0
   29.2926   26.2126   48.9319 H   0  0  0  0  0  0  0  0  0  0  0  0
   30.7969   26.8384   49.7707 H   0  0  0  0  0  0  0  0  0  0  0  0
   28.1630   26.7171   50.7421 H   0  0  0  0  0  0  0  0  0  0  0  0
   29.6615   27.4308   51.4899 H   0  0  0  0  0  0  0  0  0  0  0  0
   27.7772   28.9572   51.3206 H   0  0  0  0  0  0  0  0  0  0  0  0
   27.1017   27.8366   49.1862 H   0  0  0  0  0  0  0  0  0  0  0  0
   26.9824   29.6076   49.2198 H   0  0  0  0  0  0  0  0  0  0  0  0
   28.9848   29.8972   48.0194 H   0  0  0  0  0  0  0  0  0  0  0  0
   28.2734   28.3760   47.2852 H   0  0  0  0  0  0  0  0  0  0  0  0
  1  2  2  0
  1 10  1  0
  3  2  1  0
  4  3  2  0
  5  4  1  0
  5  1  1  0
  7  6  2  0
  8  7  1  0
  9  8  2  0
  9 10  1  0
 10 11  2  0
 11  6  1  0
 12 14  1  0
 12  4  1  0
 13 12  1  0
 14 15  1  0
 15 16  1  0
 16 17  1  0
 18 17  1  0
 19 18  1  0
 20 15  1  0
 20 19  1  0
  2 21  1  0
  3 22  1  0
  6 23  1  0
  7 24  1  0
  8 25  1  0
 12 26  1  6
 13 27  1  0
 13 28  1  0
 13 29  1  0
 14 30  1  0
 14 31  1  0
 16 32  1  0
 16 33  1  0
 17 34  1  0
 17 35  1  0
 18 36  1  0
 19 37  1  0
 19 38  1  0
 20 39  1  0
 20 40  1  0
M  ISO  8  21  14  22  14  23  14  24  14  25  14  26   8  27   8  28   8
M  ISO  8  29   8  30   8  31   8  32  13  33  13  34  13  35  13  36   5
M  ISO  4  37  13  38  13  39  13  40  13
M  END
>  <minimizedAffinity>  (1) 
-5.55322886

>  <minimizedRMSD>  (1) 
0.4135364

$$$$
