
     RDKit          3D

 17 17  0  0  0  0  0  0  0  0999 V2000
   37.2950   30.1950   51.4600 C   0  0  0  0  0  0  0  0  0  0  0  0
   38.1480   30.7780   50.5050 C   0  0  0  0  0  0  0  0  0  0  0  0
   37.8770   30.5030   49.1440 C   0  0  0  0  0  0  0  0  0  0  0  0
   36.8210   29.7010   48.8520 N   0  0  0  0  0  0  0  0  0  0  0  0
   36.0290   29.1620   49.7930 C   0  0  0  0  0  0  0  0  0  0  0  0
   36.2750   29.4150   51.0840 N   0  0  0  0  0  0  0  0  0  0  0  0
   34.9390   28.3310   49.4180 N   0  0  0  0  0  0  0  0  0  0  0  0
   33.7540   28.8940   48.8720 C   0  0  0  0  0  0  0  0  0  0  0  0
   33.8850   29.9740   48.1450 N   0  0  0  0  0  0  0  0  0  0  0  0
   32.4910   28.2510   49.1460 N   0  0  0  0  0  0  0  0  0  0  0  0
   33.0440   30.4300   47.7190 H   0  0  0  0  0  0  0  0  0  0  0  0
   37.4690   30.3829   52.5298 H   0  0  0  0  0  0  0  0  0  0  0  0
   38.9896   31.4202   50.8038 H   0  0  0  0  0  0  0  0  0  0  0  0
   38.5037   30.9267   48.3454 H   0  0  0  0  0  0  0  0  0  0  0  0
   35.0085   27.3110   49.5431 H   0  0  0  0  0  0  0  0  0  0  0  0
   31.6197   28.6420   48.7603 H   0  0  0  0  0  0  0  0  0  0  0  0
   32.4611   27.4012   49.7272 H   0  0  0  0  0  0  0  0  0  0  0  0
  2  1  2  0
  3  2  1  0
  4  3  2  0
  4  5  1  0
  5  6  2  0
  6  1  1  0
  7  5  1  0
  8 10  1  0
  8  7  1  0
  9  8  2  0
 11  9  1  0
  1 12  1  0
  2 13  1  0
  3 14  1  0
  7 15  1  0
 10 16  1  0
 10 17  1  0
M  ISO  3  12  14  13  14  14  14
M  END
>  <minimizedAffinity>  (1) 
-4.38581276

>  <minimizedRMSD>  (1) 
0.245708302

$$$$
