
     RDKit          3D

 17 18  0  0  0  0  0  0  0  0999 V2000
   37.4260   30.2460   51.3560 C   0  0  0  0  0  0  0  0  0  0  0  0
   38.0220   30.9350   50.2860 C   0  0  0  0  0  0  0  0  0  0  0  0
   37.5710   30.6400   48.9820 C   0  0  0  0  0  0  0  0  0  0  0  0
   36.5950   29.7120   48.8430 N   0  0  0  0  0  0  0  0  0  0  0  0
   36.0460   29.0710   49.8860 C   0  0  0  0  0  0  0  0  0  0  0  0
   36.4660   29.3440   51.1320 N   0  0  0  0  0  0  0  0  0  0  0  0
   38.0590   31.2390   47.7750 C   0  0  0  0  0  0  0  0  0  0  0  0
   39.0660   32.1920   47.7060 C   0  0  0  0  0  0  0  0  0  0  0  0
   39.4500   32.6940   46.5000 C   0  0  0  0  0  0  0  0  0  0  0  0
   38.7040   32.1300   45.3500 C   0  0  0  0  0  0  0  0  0  0  0  0
   37.5450   30.9490   46.1500 S   0  0  0  0  0  0  0  0  0  0  0  0
   37.7524   30.4509   52.3863 H   0  0  0  0  0  0  0  0  0  0  0  0
   38.8134   31.6791   50.4592 H   0  0  0  0  0  0  0  0  0  0  0  0
   35.2549   28.3247   49.7211 H   0  0  0  0  0  0  0  0  0  0  0  0
   39.5546   32.5422   48.6272 H   0  0  0  0  0  0  0  0  0  0  0  0
   40.2419   33.4494   46.3892 H   0  0  0  0  0  0  0  0  0  0  0  0
   38.8164   32.3614   44.2805 H   0  0  0  0  0  0  0  0  0  0  0  0
  2  1  2  0
  3  2  1  0
  4  3  2  0
  4  5  1  0
  5  6  2  0
  6  1  1  0
  7  3  1  0
  8  7  2  0
  9  8  1  0
 10 11  1  0
 10  9  2  0
 11  7  1  0
  1 12  1  0
  2 13  1  0
  5 14  1  0
  8 15  1  0
  9 16  1  0
 10 17  1  0
M  ISO  6  12  14  13  14  14  14  15  14  16  14  17  14
M  END
>  <minimizedAffinity>  (1) 
-4.30300951

>  <minimizedRMSD>  (1) 
0.562120736

$$$$
