
     RDKit          3D

 33 34  0  0  1  0  0  0  0  0999 V2000
   32.8150   27.8520   47.8270 C   0  0  2  0  0  0  0  0  0  0  0  0
   36.0340   30.2820   48.5260 C   0  0  0  0  0  0  0  0  0  0  0  0
   35.9250   29.2330   49.4560 C   0  0  0  0  0  0  0  0  0  0  0  0
   34.8990   28.3800   49.3080 C   0  0  0  0  0  0  0  0  0  0  0  0
   34.0350   28.5840   48.2730 C   0  0  0  0  0  0  0  0  0  0  0  0
   34.6280   30.0370   47.4130 S   0  0  0  0  0  0  0  0  0  0  0  0
   38.1260   33.1600   49.5410 C   0  0  0  0  0  0  0  0  0  0  0  0
   39.0440   33.2410   48.4400 C   0  0  0  0  0  0  0  0  0  0  0  0
   38.9140   32.3150   47.3920 C   0  0  0  0  0  0  0  0  0  0  0  0
   37.9320   31.3860   47.4660 N   0  0  0  0  0  0  0  0  0  0  0  0
   37.0900   31.3350   48.5110 C   0  0  0  0  0  0  0  0  0  0  0  0
   37.1690   32.2000   49.5460 N   0  0  0  0  0  0  0  0  0  0  0  0
   32.2840   28.4910   46.6080 C   0  0  0  0  0  0  0  0  0  0  0  0
   31.8950   27.7460   49.0000 C   0  0  0  0  0  0  0  0  0  0  0  0
   30.6200   27.1500   48.7110 N   0  0  0  0  0  0  0  0  0  0  0  0
   29.5070   27.8880   49.2670 C   0  0  0  0  0  0  0  0  0  0  0  0
   29.5890   28.7120   50.2480 N   0  0  0  0  0  0  0  0  0  0  0  0
   28.1820   27.7460   48.7280 N   0  0  0  0  0  0  0  0  0  0  0  0
   28.8600   29.2670   50.6930 H   0  0  0  0  0  0  0  0  0  0  0  0
   33.0062   26.8150   47.5138 H   0  0  0  0  0  0  0  0  0  0  0  0
   36.6521   29.1159   50.2730 H   0  0  0  0  0  0  0  0  0  0  0  0
   34.7590   27.5390   50.0031 H   0  0  0  0  0  0  0  0  0  0  0  0
   38.1989   33.8728   50.3756 H   0  0  0  0  0  0  0  0  0  0  0  0
   39.8303   34.0099   48.4178 H   0  0  0  0  0  0  0  0  0  0  0  0
   39.5957   32.3440   46.5292 H   0  0  0  0  0  0  0  0  0  0  0  0
   31.6043   29.3089   46.8891 H   0  0  0  0  0  0  0  0  0  0  0  0
   33.1166   28.8943   46.0130 H   0  0  0  0  0  0  0  0  0  0  0  0
   31.7351   27.7463   46.0130 H   0  0  0  0  0  0  0  0  0  0  0  0
   32.3909   27.1375   49.7705 H   0  0  0  0  0  0  0  0  0  0  0  0
   31.6895   28.7757   49.3277 H   0  0  0  0  0  0  0  0  0  0  0  0
   30.5096   26.2847   48.1633 H   0  0  0  0  0  0  0  0  0  0  0  0
   27.4004   28.2788   49.1356 H   0  0  0  0  0  0  0  0  0  0  0  0
   28.0142   27.1114   47.9342 H   0  0  0  0  0  0  0  0  0  0  0  0
  1  5  1  0
  1 14  1  0
  2  3  2  0
  4  3  1  0
  5  4  2  0
  6  5  1  0
  6  2  1  0
  7 12  2  0
  8  7  1  0
  9 10  1  0
  9  8  2  0
 10 11  2  0
 11  2  1  0
 11 12  1  0
 13  1  1  0
 15 14  1  0
 15 16  1  0
 16 17  2  0
 17 19  1  0
 18 16  1  0
  1 20  1  6
  3 21  1  0
  4 22  1  0
  7 23  1  0
  8 24  1  0
  9 25  1  0
 13 26  1  0
 13 27  1  0
 13 28  1  0
 14 29  1  0
 14 30  1  0
 15 31  1  0
 18 32  1  0
 18 33  1  0
M  ISO  8  20   8  21  14  22  14  23  14  24  14  25  14  26   8  27   8
M  ISO  3  28   8  29   8  30   8
M  END
>  <minimizedAffinity>  (1) 
-5.50352049

>  <minimizedRMSD>  (1) 
2.17872071

$$$$
