
     RDKit          3D

 32 34  0  0  1  0  0  0  0  0999 V2000
   34.9470   29.2110   48.6480 C   0  0  0  0  0  0  0  0  0  0  0  0
   34.4430   27.9570   49.0050 C   0  0  0  0  0  0  0  0  0  0  0  0
   33.3440   27.5180   48.3490 C   0  0  0  0  0  0  0  0  0  0  0  0
   32.8070   28.2930   47.4110 C   0  0  0  0  0  0  0  0  0  0  0  0
   33.8390   29.7840   47.3530 S   0  0  0  0  0  0  0  0  0  0  0  0
   37.4670   30.3490   51.1080 C   0  0  0  0  0  0  0  0  0  0  0  0
   38.3450   31.1080   50.2740 C   0  0  0  0  0  0  0  0  0  0  0  0
   38.0610   31.2130   48.9260 C   0  0  0  0  0  0  0  0  0  0  0  0
   36.9500   30.5840   48.4440 N   0  0  0  0  0  0  0  0  0  0  0  0
   36.1460   29.8820   49.2350 C   0  0  0  0  0  0  0  0  0  0  0  0
   36.3840   29.7550   50.5540 N   0  0  0  0  0  0  0  0  0  0  0  0
   31.6240   28.1140   46.5190 C   0  0  2  0  0  0  0  0  0  0  0  0
   31.0780   29.4350   46.1620 C   0  0  0  0  0  0  0  0  0  0  0  0
   30.6510   27.1790   47.1920 C   0  0  0  0  0  0  0  0  0  0  0  0
   29.8290   27.7840   48.1910 N   0  0  0  0  0  0  0  0  0  0  0  0
   29.8980   27.2930   49.4620 C   0  0  0  0  0  0  0  0  0  0  0  0
   29.0540   27.9870   50.2680 N   0  0  0  0  0  0  0  0  0  0  0  0
   28.4760   28.9080   49.4440 C   0  0  0  0  0  0  0  0  0  0  0  0
   28.9510   28.7720   48.2050 N   0  0  0  0  0  0  0  0  0  0  0  0
   34.9211   27.3508   49.7886 H   0  0  0  0  0  0  0  0  0  0  0  0
   32.9031   26.5387   48.5870 H   0  0  0  0  0  0  0  0  0  0  0  0
   37.6684   30.2489   52.1848 H   0  0  0  0  0  0  0  0  0  0  0  0
   39.2323   31.6005   50.6984 H   0  0  0  0  0  0  0  0  0  0  0  0
   38.7155   31.7904   48.2565 H   0  0  0  0  0  0  0  0  0  0  0  0
   31.8903   27.6408   45.5623 H   0  0  0  0  0  0  0  0  0  0  0  0
   30.8461   29.9960   47.0793 H   0  0  0  0  0  0  0  0  0  0  0  0
   31.8201   29.9907   45.5701 H   0  0  0  0  0  0  0  0  0  0  0  0
   30.1601   29.3046   45.5701 H   0  0  0  0  0  0  0  0  0  0  0  0
   29.9932   26.7557   46.4186 H   0  0  0  0  0  0  0  0  0  0  0  0
   31.2583   26.4216   47.7092 H   0  0  0  0  0  0  0  0  0  0  0  0
   30.5404   26.4606   49.7850 H   0  0  0  0  0  0  0  0  0  0  0  0
   27.7287   29.6527   49.7554 H   0  0  0  0  0  0  0  0  0  0  0  0
  1  2  2  0
  1 10  1  0
  3  2  1  0
  4  3  2  0
  5  4  1  0
  5  1  1  0
  7  6  2  0
  8  7  1  0
  9  8  2  0
  9 10  1  0
 10 11  2  0
 11  6  1  0
 12 14  1  0
 12  4  1  0
 13 12  1  0
 14 15  1  0
 15 19  1  0
 15 16  1  0
 16 17  2  0
 18 17  1  0
 19 18  2  0
  2 20  1  0
  3 21  1  0
  6 22  1  0
  7 23  1  0
  8 24  1  0
 12 25  1  6
 13 26  1  0
 13 27  1  0
 13 28  1  0
 14 29  1  0
 14 30  1  0
 16 31  1  0
 18 32  1  0
M  ISO  8  20  14  21  14  22  14  23  14  24  14  25   8  26   8  27   8
M  ISO  5  28   8  29   8  30   8  31  14  32  14
M  END
>  <minimizedAffinity>  (1) 
-5.10472298

>  <minimizedRMSD>  (1) 
0.361738473

$$$$
