
     RDKit          3D

 32 34  0  0  1  0  0  0  0  0999 V2000
   35.3080   29.6070   48.4660 C   0  0  0  0  0  0  0  0  0  0  0  0
   34.9580   28.5550   49.3360 C   0  0  0  0  0  0  0  0  0  0  0  0
   33.8510   27.8460   49.0120 C   0  0  0  0  0  0  0  0  0  0  0  0
   33.1640   28.1660   47.9190 C   0  0  0  0  0  0  0  0  0  0  0  0
   34.0490   29.5760   47.1900 S   0  0  0  0  0  0  0  0  0  0  0  0
   38.1050   31.4920   49.9920 C   0  0  0  0  0  0  0  0  0  0  0  0
   38.6600   32.1350   48.8640 C   0  0  0  0  0  0  0  0  0  0  0  0
   38.0730   31.9220   47.6070 C   0  0  0  0  0  0  0  0  0  0  0  0
   36.9830   31.0990   47.5140 N   0  0  0  0  0  0  0  0  0  0  0  0
   36.4930   30.5090   48.6210 C   0  0  0  0  0  0  0  0  0  0  0  0
   37.0210   30.6810   49.8470 N   0  0  0  0  0  0  0  0  0  0  0  0
   31.9510   27.5780   47.3210 C   0  0  2  0  0  0  0  0  0  0  0  0
   31.0800   28.7020   46.8300 C   0  0  0  0  0  0  0  0  0  0  0  0
   31.2630   26.6920   48.3120 C   0  0  0  0  0  0  0  0  0  0  0  0
   29.9000   27.1640   48.6970 C   0  0  0  0  0  0  0  0  0  0  0  0
   29.8790   27.9600   49.9210 C   0  0  0  0  0  0  0  0  0  0  0  0
   28.1380   28.3650   50.1060 S   0  0  0  0  0  0  0  0  0  0  0  0
   27.6820   27.4130   48.5210 C   0  0  0  0  0  0  0  0  0  0  0  0
   28.7800   26.9320   48.0540 N   0  0  0  0  0  0  0  0  0  0  0  0
   35.5530   28.3221   50.2314 H   0  0  0  0  0  0  0  0  0  0  0  0
   33.5221   27.0112   49.6483 H   0  0  0  0  0  0  0  0  0  0  0  0
   38.5480   31.6462   50.9870 H   0  0  0  0  0  0  0  0  0  0  0  0
   39.5367   32.7911   48.9685 H   0  0  0  0  0  0  0  0  0  0  0  0
   38.4827   32.4091   46.7099 H   0  0  0  0  0  0  0  0  0  0  0  0
   32.2011   26.9367   46.4630 H   0  0  0  0  0  0  0  0  0  0  0  0
   30.6604   29.2435   47.6906 H   0  0  0  0  0  0  0  0  0  0  0  0
   31.6813   29.3923   46.2202 H   0  0  0  0  0  0  0  0  0  0  0  0
   30.2614   28.2920   46.2202 H   0  0  0  0  0  0  0  0  0  0  0  0
   31.1713   25.6872   47.8739 H   0  0  0  0  0  0  0  0  0  0  0  0
   31.8746   26.6981   49.2263 H   0  0  0  0  0  0  0  0  0  0  0  0
   30.7212   28.2422   50.5699 H   0  0  0  0  0  0  0  0  0  0  0  0
   26.6769   27.2971   48.0894 H   0  0  0  0  0  0  0  0  0  0  0  0
  1 10  1  0
  1  2  2  0
  3  2  1  0
  4  3  2  0
  5  4  1  0
  5  1  1  0
  7  6  2  0
  8  7  1  0
  9  8  2  0
  9 10  1  0
 10 11  2  0
 11  6  1  0
 12  4  1  0
 12 14  1  0
 13 12  1  0
 14 15  1  0
 15 16  2  0
 16 17  1  0
 18 17  1  0
 19 18  2  0
 19 15  1  0
  2 20  1  0
  3 21  1  0
  6 22  1  0
  7 23  1  0
  8 24  1  0
 12 25  1  6
 13 26  1  0
 13 27  1  0
 13 28  1  0
 14 29  1  0
 14 30  1  0
 16 31  1  0
 18 32  1  0
M  ISO  8  20  14  21  14  22  14  23  14  24  14  25   8  26   8  27   8
M  ISO  5  28   8  29   8  30   8  31  14  32  14
M  END
>  <minimizedAffinity>  (1) 
-5.08180714

>  <minimizedRMSD>  (1) 
1.31248438

$$$$
