
     RDKit          3D

 28 29  0  0  1  0  0  0  0  0999 V2000
   34.9400   29.3260   48.7130 C   0  0  0  0  0  0  0  0  0  0  0  0
   34.3210   28.1450   49.1360 C   0  0  0  0  0  0  0  0  0  0  0  0
   33.2230   27.7460   48.4430 C   0  0  0  0  0  0  0  0  0  0  0  0
   32.7990   28.4820   47.4180 C   0  0  0  0  0  0  0  0  0  0  0  0
   33.9370   29.8660   47.3130 S   0  0  0  0  0  0  0  0  0  0  0  0
   37.5150   30.3320   51.1680 C   0  0  0  0  0  0  0  0  0  0  0  0
   38.3940   31.0830   50.3560 C   0  0  0  0  0  0  0  0  0  0  0  0
   38.1000   31.2320   49.0150 C   0  0  0  0  0  0  0  0  0  0  0  0
   36.9690   30.6510   48.5150 N   0  0  0  0  0  0  0  0  0  0  0  0
   36.1550   29.9420   49.3180 C   0  0  0  0  0  0  0  0  0  0  0  0
   36.3990   29.7690   50.6290 N   0  0  0  0  0  0  0  0  0  0  0  0
   31.6660   28.3470   46.4710 C   0  0  2  0  0  0  0  0  0  0  0  0
   31.4870   29.6400   45.7270 C   0  0  0  0  0  0  0  0  0  0  0  0
   30.4670   27.8640   47.2210 C   0  0  0  0  0  0  0  0  0  0  0  0
   29.7090   28.9940   47.6810 N   0  0  0  0  0  0  0  0  0  0  0  0
   34.7052   27.5669   49.9893 H   0  0  0  0  0  0  0  0  0  0  0  0
   32.6906   26.8258   48.7254 H   0  0  0  0  0  0  0  0  0  0  0  0
   37.7330   30.2019   52.2383 H   0  0  0  0  0  0  0  0  0  0  0  0
   39.2974   31.5413   50.7848 H   0  0  0  0  0  0  0  0  0  0  0  0
   38.7669   31.8103   48.3586 H   0  0  0  0  0  0  0  0  0  0  0  0
   31.8553   27.5910   45.6947 H   0  0  0  0  0  0  0  0  0  0  0  0
   31.3729   30.4642   46.4464 H   0  0  0  0  0  0  0  0  0  0  0  0
   32.3682   29.8244   45.0949 H   0  0  0  0  0  0  0  0  0  0  0  0
   30.5889   29.5780   45.0949 H   0  0  0  0  0  0  0  0  0  0  0  0
   29.8423   27.2476   46.5578 H   0  0  0  0  0  0  0  0  0  0  0  0
   30.7891   27.2605   48.0824 H   0  0  0  0  0  0  0  0  0  0  0  0
   29.7011   29.0058   48.7109 H   0  0  0  0  0  0  0  0  0  0  0  0
   30.1396   29.8617   47.3310 H   0  0  0  0  0  0  0  0  0  0  0  0
  1  2  2  0
  1 10  1  0
  3  2  1  0
  4  3  2  0
  5  4  1  0
  5  1  1  0
  7  6  2  0
  8  7  1  0
  9  8  2  0
  9 10  1  0
 10 11  2  0
 11  6  1  0
 12 14  1  0
 12  4  1  0
 13 12  1  0
 14 15  1  0
  2 16  1  0
  3 17  1  0
  6 18  1  0
  7 19  1  0
  8 20  1  0
 12 21  1  6
 13 22  1  0
 13 23  1  0
 13 24  1  0
 14 25  1  0
 14 26  1  0
 15 27  1  0
 15 28  1  0
M  ISO  8  16  14  17  14  18  14  19  14  20  14  21   8  22   8  23   8
M  ISO  5  24   8  25   8  26   8  27   5  28   5
M  END
>  <minimizedAffinity>  (1) 
-4.39933491

>  <minimizedRMSD>  (1) 
0.443136692

$$$$
