
     RDKit          3D

 19 19  0  0  0  0  0  0  0  0999 V2000
   37.3710   29.9650   51.3020 C   0  0  0  0  0  0  0  0  0  0  0  0
   38.0460   30.9340   50.5390 C   0  0  0  0  0  0  0  0  0  0  0  0
   37.3760   31.4740   49.4190 C   0  0  0  0  0  0  0  0  0  0  0  0
   36.1220   31.0210   49.1530 N   0  0  0  0  0  0  0  0  0  0  0  0
   35.5040   30.0920   49.9050 C   0  0  0  0  0  0  0  0  0  0  0  0
   36.1200   29.5620   50.9780 N   0  0  0  0  0  0  0  0  0  0  0  0
   38.0160   32.4950   48.5660 C   0  0  0  0  0  0  0  0  0  0  0  0
   38.8790   31.7630   47.5530 C   0  0  0  0  0  0  0  0  0  0  0  0
   38.8830   33.4520   49.3850 C   0  0  0  0  0  0  0  0  0  0  0  0
   37.8690   29.5259   52.1790 H   0  0  0  0  0  0  0  0  0  0  0  0
   39.0620   31.2607   50.8054 H   0  0  0  0  0  0  0  0  0  0  0  0
   34.4880   29.7633   49.6410 H   0  0  0  0  0  0  0  0  0  0  0  0
   37.2409   33.1000   48.0729 H   0  0  0  0  0  0  0  0  0  0  0  0
   39.6149   31.1388   48.0812 H   0  0  0  0  0  0  0  0  0  0  0  0
   38.2426   31.1251   46.9221 H   0  0  0  0  0  0  0  0  0  0  0  0
   39.4046   32.4949   46.9221 H   0  0  0  0  0  0  0  0  0  0  0  0
   38.7180   33.2698   50.4572 H   0  0  0  0  0  0  0  0  0  0  0  0
   39.9430   33.2843   49.1435 H   0  0  0  0  0  0  0  0  0  0  0  0
   38.6118   34.4903   49.1435 H   0  0  0  0  0  0  0  0  0  0  0  0
  2  1  2  0
  3  2  1  0
  4  3  2  0
  4  5  1  0
  5  6  2  0
  6  1  1  0
  7  9  1  0
  7  3  1  0
  8  7  1  0
  1 10  1  0
  2 11  1  0
  5 12  1  0
  7 13  1  0
  8 14  1  0
  8 15  1  0
  8 16  1  0
  9 17  1  0
  9 18  1  0
  9 19  1  0
M  ISO  8  10  14  11  14  12  14  13   8  14   8  15   8  16   8  17   8
M  ISO  2  18   8  19   8
M  END
>  <minimizedAffinity>  (1) 
-4.10722637

>  <minimizedRMSD>  (1) 
1.3012135

$$$$
