
     RDKit          3D

 42 44  0  0  1  0  0  0  0  0999 V2000
   31.6910   27.9270   47.3200 C   0  0  2  0  0  0  0  0  0  0  0  0
   35.1970   29.6400   48.4930 C   0  0  0  0  0  0  0  0  0  0  0  0
   34.8110   28.5540   49.2850 C   0  0  0  0  0  0  0  0  0  0  0  0
   33.6500   27.9430   48.9490 C   0  0  0  0  0  0  0  0  0  0  0  0
   32.9610   28.3950   47.9180 C   0  0  0  0  0  0  0  0  0  0  0  0
   33.8890   29.8030   47.2470 S   0  0  0  0  0  0  0  0  0  0  0  0
   38.0890   31.3320   49.9900 C   0  0  0  0  0  0  0  0  0  0  0  0
   38.6600   32.0190   48.9090 C   0  0  0  0  0  0  0  0  0  0  0  0
   38.0450   31.8910   47.6900 C   0  0  0  0  0  0  0  0  0  0  0  0
   36.9320   31.1180   47.5980 N   0  0  0  0  0  0  0  0  0  0  0  0
   36.4290   30.4900   48.6360 C   0  0  0  0  0  0  0  0  0  0  0  0
   36.9670   30.5480   49.9100 N   0  0  0  0  0  0  0  0  0  0  0  0
   31.1830   28.9320   46.3850 C   0  0  0  0  0  0  0  0  0  0  0  0
   30.7440   27.5370   48.4290 C   0  0  0  0  0  0  0  0  0  0  0  0
   29.5840   27.0060   47.9850 O   0  0  0  0  0  0  0  0  0  0  0  0
   26.3050   27.9840   50.2210 N   0  0  0  0  0  0  0  0  0  0  0  0
   26.2550   28.0640   48.7940 C   0  0  0  0  0  0  0  0  0  0  0  0
   27.2190   27.1580   48.0950 C   0  0  0  0  0  0  0  0  0  0  0  0
   28.5270   26.9700   48.8590 C   0  0  0  0  0  0  0  0  0  0  0  0
   28.6820   28.1860   49.7600 C   0  0  0  0  0  0  0  0  0  0  0  0
   27.5840   28.3350   50.7600 C   0  0  0  0  0  0  0  0  0  0  0  0
   31.8323   27.0213   46.7119 H   0  0  0  0  0  0  0  0  0  0  0  0
   35.4187   28.2138   50.1365 H   0  0  0  0  0  0  0  0  0  0  0  0
   33.2860   27.0813   49.5278 H   0  0  0  0  0  0  0  0  0  0  0  0
   38.5757   31.4290   50.9717 H   0  0  0  0  0  0  0  0  0  0  0  0
   39.5631   32.6346   49.0336 H   0  0  0  0  0  0  0  0  0  0  0  0
   38.4455   32.4046   46.8035 H   0  0  0  0  0  0  0  0  0  0  0  0
   30.7569   29.7750   46.9487 H   0  0  0  0  0  0  0  0  0  0  0  0
   32.0067   29.2933   45.7518 H   0  0  0  0  0  0  0  0  0  0  0  0
   30.4036   28.4830   45.7518 H   0  0  0  0  0  0  0  0  0  0  0  0
   31.2440   26.7952   49.0691 H   0  0  0  0  0  0  0  0  0  0  0  0
   30.4903   28.4568   48.9763 H   0  0  0  0  0  0  0  0  0  0  0  0
   26.0846   27.0181   50.5028 H   0  0  0  0  0  0  0  0  0  0  0  0
   25.2373   27.8016   48.4692 H   0  0  0  0  0  0  0  0  0  0  0  0
   26.5361   29.0929   48.5249 H   0  0  0  0  0  0  0  0  0  0  0  0
   26.7443   26.1741   47.9666 H   0  0  0  0  0  0  0  0  0  0  0  0
   27.4672   27.6251   47.1305 H   0  0  0  0  0  0  0  0  0  0  0  0
   28.5116   26.0164   49.4071 H   0  0  0  0  0  0  0  0  0  0  0  0
   29.6354   28.0979   50.3015 H   0  0  0  0  0  0  0  0  0  0  0  0
   28.6487   29.0736   49.1111 H   0  0  0  0  0  0  0  0  0  0  0  0
   27.5510   29.3821   51.0953 H   0  0  0  0  0  0  0  0  0  0  0  0
   27.7955   27.6514   51.5954 H   0  0  0  0  0  0  0  0  0  0  0  0
  1  5  1  0
  1 14  1  0
  2 11  1  0
  2  3  2  0
  4  3  1  0
  5  4  2  0
  6  5  1  0
  6  2  1  0
  8  7  2  0
  9  8  1  0
 10  9  2  0
 10 11  1  0
 11 12  2  0
 12  7  1  0
 13  1  1  0
 15 14  1  0
 15 19  1  0
 16 21  1  0
 17 16  1  0
 18 17  1  0
 18 19  1  0
 19 20  1  0
 20 21  1  0
  1 22  1  6
  3 23  1  0
  4 24  1  0
  7 25  1  0
  8 26  1  0
  9 27  1  0
 13 28  1  0
 13 29  1  0
 13 30  1  0
 14 31  1  0
 14 32  1  0
 16 33  1  0
 17 34  1  0
 17 35  1  0
 18 36  1  0
 18 37  1  0
 19 38  1  0
 20 39  1  0
 20 40  1  0
 21 41  1  0
 21 42  1  0
M  ISO  8  22   8  23  14  24  14  25  14  26  14  27  14  28   8  29   8
M  ISO  8  30   8  31   8  32   8  33   5  34  13  35  13  36  13  37  13
M  ISO  5  38  13  39  13  40  13  41  13  42  13
M  END
>  <minimizedAffinity>  (1) 
-5.70436478

>  <minimizedRMSD>  (1) 
2.23681664

$$$$
