
     RDKit          3D

 34 36  0  0  1  0  0  0  0  0999 V2000
   31.4410   28.2050   46.4380 C   0  0  2  0  0  0  0  0  0  0  0  0
   34.6930   29.2640   48.6550 C   0  0  0  0  0  0  0  0  0  0  0  0
   33.9460   28.2310   49.2290 C   0  0  0  0  0  0  0  0  0  0  0  0
   32.8420   27.8370   48.5360 C   0  0  0  0  0  0  0  0  0  0  0  0
   32.5410   28.4280   47.3960 C   0  0  0  0  0  0  0  0  0  0  0  0
   33.8280   29.6860   47.1180 S   0  0  0  0  0  0  0  0  0  0  0  0
   37.2810   30.3860   51.0060 C   0  0  0  0  0  0  0  0  0  0  0  0
   38.2310   30.9990   50.1770 C   0  0  0  0  0  0  0  0  0  0  0  0
   37.9630   31.0160   48.8320 C   0  0  0  0  0  0  0  0  0  0  0  0
   36.8210   30.4540   48.3710 N   0  0  0  0  0  0  0  0  0  0  0  0
   35.9450   29.8810   49.1980 C   0  0  0  0  0  0  0  0  0  0  0  0
   36.1220   29.8150   50.5540 N   0  0  0  0  0  0  0  0  0  0  0  0
   31.7880   28.7480   45.1260 C   0  0  0  0  0  0  0  0  0  0  0  0
   30.1650   28.7480   47.0320 C   0  0  0  0  0  0  0  0  0  0  0  0
   29.4090   27.8270   47.6700 O   0  0  0  0  0  0  0  0  0  0  0  0
   26.0710   27.6080   48.6910 N   0  0  0  0  0  0  0  0  0  0  0  0
   27.0740   27.1310   47.9990 N   0  0  0  0  0  0  0  0  0  0  0  0
   28.1450   27.9240   48.1840 C   0  0  0  0  0  0  0  0  0  0  0  0
   27.7740   28.9430   49.0370 C   0  0  0  0  0  0  0  0  0  0  0  0
   26.4460   28.7320   49.3560 C   0  0  0  0  0  0  0  0  0  0  0  0
   31.2744   27.1321   46.2613 H   0  0  0  0  0  0  0  0  0  0  0  0
   34.2328   27.7646   50.1830 H   0  0  0  0  0  0  0  0  0  0  0  0
   32.2043   27.0296   48.9252 H   0  0  0  0  0  0  0  0  0  0  0  0
   37.4795   30.3624   52.0877 H   0  0  0  0  0  0  0  0  0  0  0  0
   39.1490   31.4458   50.5864 H   0  0  0  0  0  0  0  0  0  0  0  0
   38.6715   31.4833   48.1323 H   0  0  0  0  0  0  0  0  0  0  0  0
   32.3763   29.6686   45.2541 H   0  0  0  0  0  0  0  0  0  0  0  0
   32.3812   28.0084   44.5683 H   0  0  0  0  0  0  0  0  0  0  0  0
   30.8676   28.9757   44.5683 H   0  0  0  0  0  0  0  0  0  0  0  0
   30.4293   29.5353   47.7533 H   0  0  0  0  0  0  0  0  0  0  0  0
   29.5616   29.1209   46.1912 H   0  0  0  0  0  0  0  0  0  0  0  0
   25.1301   27.1904   48.7266 H   0  0  0  0  0  0  0  0  0  0  0  0
   28.4121   29.7647   49.3942 H   0  0  0  0  0  0  0  0  0  0  0  0
   25.8188   29.3497   50.0156 H   0  0  0  0  0  0  0  0  0  0  0  0
  1 14  1  0
  1  5  1  0
  2 11  1  0
  2  3  2  0
  4  3  1  0
  5  4  2  0
  6  5  1  0
  6  2  1  0
  8  7  2  0
  9  8  1  0
 10  9  2  0
 10 11  1  0
 11 12  2  0
 12  7  1  0
 13  1  1  0
 14 15  1  0
 15 18  1  0
 16 20  1  0
 17 18  2  0
 17 16  1  0
 18 19  1  0
 19 20  2  0
  1 21  1  6
  3 22  1  0
  4 23  1  0
  7 24  1  0
  8 25  1  0
  9 26  1  0
 13 27  1  0
 13 28  1  0
 13 29  1  0
 14 30  1  0
 14 31  1  0
 16 32  1  0
 19 33  1  0
 20 34  1  0
M  ISO  8  21   8  22  14  23  14  24  14  25  14  26  14  27   8  28   8
M  ISO  6  29   8  30   8  31   8  32   9  33  14  34  14
M  END
>  <minimizedAffinity>  (1) 
-5.28793049

>  <minimizedRMSD>  (1) 
1.92285275

$$$$
