
     RDKit          3D

 31 32  0  0  1  0  0  0  0  0999 V2000
   34.9780   29.3830   48.5530 C   0  0  0  0  0  0  0  0  0  0  0  0
   34.4310   28.2340   49.1280 C   0  0  0  0  0  0  0  0  0  0  0  0
   33.3540   27.6910   48.5270 C   0  0  0  0  0  0  0  0  0  0  0  0
   32.8760   28.2670   47.4400 C   0  0  0  0  0  0  0  0  0  0  0  0
   33.9330   29.7170   47.1080 S   0  0  0  0  0  0  0  0  0  0  0  0
   37.7300   30.5880   50.6610 C   0  0  0  0  0  0  0  0  0  0  0  0
   38.3410   31.5690   49.8690 C   0  0  0  0  0  0  0  0  0  0  0  0
   37.7960   31.7970   48.6320 C   0  0  0  0  0  0  0  0  0  0  0  0
   36.7120   31.0800   48.2350 N   0  0  0  0  0  0  0  0  0  0  0  0
   36.1720   30.1650   49.0180 C   0  0  0  0  0  0  0  0  0  0  0  0
   36.6390   29.8640   50.2630 N   0  0  0  0  0  0  0  0  0  0  0  0
   31.7390   27.9160   46.5550 C   0  0  2  0  0  0  0  0  0  0  0  0
   31.9990   28.3510   45.1840 C   0  0  0  0  0  0  0  0  0  0  0  0
   30.4680   28.4550   47.1740 C   0  0  0  0  0  0  0  0  0  0  0  0
   29.8450   27.5630   47.9820 O   0  0  0  0  0  0  0  0  0  0  0  0
   29.3610   27.9180   49.2200 C   0  0  0  0  0  0  0  0  0  0  0  0
   30.1730   28.6040   50.1670 N   0  0  0  0  0  0  0  0  0  0  0  0
   28.1950   27.6830   49.6310 O   0  0  0  0  0  0  0  0  0  0  0  0
   34.8627   27.7892   50.0367 H   0  0  0  0  0  0  0  0  0  0  0  0
   32.8822   26.7848   48.9347 H   0  0  0  0  0  0  0  0  0  0  0  0
   38.1504   30.3887   51.6578 H   0  0  0  0  0  0  0  0  0  0  0  0
   39.2179   32.1305   50.2236 H   0  0  0  0  0  0  0  0  0  0  0  0
   38.2331   32.5550   47.9654 H   0  0  0  0  0  0  0  0  0  0  0  0
   31.6111   26.8266   46.4719 H   0  0  0  0  0  0  0  0  0  0  0  0
   32.5633   29.2951   45.1997 H   0  0  0  0  0  0  0  0  0  0  0  0
   32.5856   27.5818   44.6603 H   0  0  0  0  0  0  0  0  0  0  0  0
   31.0438   28.5034   44.6603 H   0  0  0  0  0  0  0  0  0  0  0  0
   30.7193   29.3469   47.7668 H   0  0  0  0  0  0  0  0  0  0  0  0
   29.7769   28.6862   46.3500 H   0  0  0  0  0  0  0  0  0  0  0  0
   29.7872   28.8588   51.0874 H   0  0  0  0  0  0  0  0  0  0  0  0
   31.1463   28.8455   49.9318 H   0  0  0  0  0  0  0  0  0  0  0  0
  1 10  1  0
  1  2  2  0
  3  2  1  0
  4  3  2  0
  5  4  1  0
  5  1  1  0
  7  6  2  0
  8  7  1  0
  9  8  2  0
  9 10  1  0
 10 11  2  0
 11  6  1  0
 12 14  1  0
 12  4  1  0
 13 12  1  0
 14 15  1  0
 15 16  1  0
 16 18  2  0
 16 17  1  0
  2 19  1  0
  3 20  1  0
  6 21  1  0
  7 22  1  0
  8 23  1  0
 12 24  1  6
 13 25  1  0
 13 26  1  0
 13 27  1  0
 14 28  1  0
 14 29  1  0
 17 30  1  0
 17 31  1  0
M  ISO  8  19  14  20  14  21  14  22  14  23  14  24   8  25   8  26   8
M  ISO  3  27   8  28   8  29   8
M  END
>  <minimizedAffinity>  (1) 
-4.79795122

>  <minimizedRMSD>  (1) 
2.17930722

$$$$
