
     RDKit          3D

 39 40  0  0  1  0  0  0  0  0999 V2000
   34.8400   29.5150   48.6650 C   0  0  0  0  0  0  0  0  0  0  0  0
   34.2030   28.4760   49.3480 C   0  0  0  0  0  0  0  0  0  0  0  0
   33.0790   27.9700   48.8070 C   0  0  0  0  0  0  0  0  0  0  0  0
   32.6420   28.4890   47.6580 C   0  0  0  0  0  0  0  0  0  0  0  0
   33.8150   29.7980   47.1940 S   0  0  0  0  0  0  0  0  0  0  0  0
   37.7340   30.6390   50.6210 C   0  0  0  0  0  0  0  0  0  0  0  0
   38.3730   31.5390   49.7520 C   0  0  0  0  0  0  0  0  0  0  0  0
   37.8070   31.7470   48.5150 C   0  0  0  0  0  0  0  0  0  0  0  0
   36.6700   31.0760   48.2070 N   0  0  0  0  0  0  0  0  0  0  0  0
   36.0920   30.2290   49.0570 C   0  0  0  0  0  0  0  0  0  0  0  0
   36.5780   29.9490   50.3220 N   0  0  0  0  0  0  0  0  0  0  0  0
   31.4570   28.1460   46.8030 C   0  0  2  0  0  0  0  0  0  0  0  0
   31.1040   29.3160   45.9810 C   0  0  0  0  0  0  0  0  0  0  0  0
   30.3680   27.6640   47.6950 C   0  0  0  0  0  0  0  0  0  0  0  0
   29.1860   27.4050   47.1940 O   0  0  0  0  0  0  0  0  0  0  0  0
   28.0010   27.8190   47.6430 C   0  0  0  0  0  0  0  0  0  0  0  0
   28.2980   29.0070   48.6080 C   0  0  0  0  0  0  0  0  0  0  0  0
   27.2040   26.8650   48.4600 C   0  0  0  0  0  0  0  0  0  0  0  0
   27.1140   28.4500   46.5770 C   0  0  0  0  0  0  0  0  0  0  0  0
   34.6056   28.0853   50.2942 H   0  0  0  0  0  0  0  0  0  0  0  0
   32.5351   27.1503   49.2991 H   0  0  0  0  0  0  0  0  0  0  0  0
   38.1875   30.4730   51.6093 H   0  0  0  0  0  0  0  0  0  0  0  0
   39.2948   32.0599   50.0503 H   0  0  0  0  0  0  0  0  0  0  0  0
   38.2655   32.4402   47.7944 H   0  0  0  0  0  0  0  0  0  0  0  0
   31.6687   27.3333   46.0926 H   0  0  0  0  0  0  0  0  0  0  0  0
   30.8489   30.1614   46.6369 H   0  0  0  0  0  0  0  0  0  0  0  0
   31.9596   29.5896   45.3461 H   0  0  0  0  0  0  0  0  0  0  0  0
   30.2399   29.0708   45.3461 H   0  0  0  0  0  0  0  0  0  0  0  0
   30.7265   26.7354   48.1631 H   0  0  0  0  0  0  0  0  0  0  0  0
   30.1826   28.5210   48.3592 H   0  0  0  0  0  0  0  0  0  0  0  0
   28.2122   28.6636   49.6495 H   0  0  0  0  0  0  0  0  0  0  0  0
   29.3170   29.3799   48.4277 H   0  0  0  0  0  0  0  0  0  0  0  0
   27.5744   29.8156   48.4277 H   0  0  0  0  0  0  0  0  0  0  0  0
   27.3727   27.0670   49.5281 H   0  0  0  0  0  0  0  0  0  0  0  0
   26.1357   26.9871   48.2280 H   0  0  0  0  0  0  0  0  0  0  0  0
   27.5142   25.8355   48.2280 H   0  0  0  0  0  0  0  0  0  0  0  0
   26.3093   29.0225   47.0614 H   0  0  0  0  0  0  0  0  0  0  0  0
   27.7168   29.1234   45.9500 H   0  0  0  0  0  0  0  0  0  0  0  0
   26.6755   27.6597   45.9500 H   0  0  0  0  0  0  0  0  0  0  0  0
  1 10  1  0
  1  2  2  0
  3  2  1  0
  4  3  2  0
  5  4  1  0
  5  1  1  0
  7  6  2  0
  8  7  1  0
  9  8  2  0
  9 10  1  0
 10 11  2  0
 11  6  1  0
 12  4  1  0
 12 14  1  0
 13 12  1  0
 15 16  1  0
 15 14  1  0
 16 18  1  0
 16 17  1  0
 19 16  1  0
  2 20  1  0
  3 21  1  0
  6 22  1  0
  7 23  1  0
  8 24  1  0
 12 25  1  6
 13 26  1  0
 13 27  1  0
 13 28  1  0
 14 29  1  0
 14 30  1  0
 17 31  1  0
 17 32  1  0
 17 33  1  0
 18 34  1  0
 18 35  1  0
 18 36  1  0
 19 37  1  0
 19 38  1  0
 19 39  1  0
M  ISO  8  20  14  21  14  22  14  23  14  24  14  25   8  26   8  27   8
M  ISO  8  28   8  29   8  30   8  31   8  32   8  33   8  34   8  35   8
M  ISO  4  36   8  37   8  38   8  39   8
M  END
>  <minimizedAffinity>  (1) 
-4.77549219

>  <minimizedRMSD>  (1) 
1.90176749

$$$$
