
     RDKit          3D

 34 36  0  0  1  0  0  0  0  0999 V2000
   35.1890   29.5440   48.5860 C   0  0  0  0  0  0  0  0  0  0  0  0
   34.7670   28.3250   49.1230 C   0  0  0  0  0  0  0  0  0  0  0  0
   33.6370   27.7860   48.6130 C   0  0  0  0  0  0  0  0  0  0  0  0
   32.9980   28.4270   47.6510 C   0  0  0  0  0  0  0  0  0  0  0  0
   33.9530   29.9490   47.3210 S   0  0  0  0  0  0  0  0  0  0  0  0
   38.0400   30.8360   50.4930 C   0  0  0  0  0  0  0  0  0  0  0  0
   38.5790   31.8080   49.6400 C   0  0  0  0  0  0  0  0  0  0  0  0
   37.9690   32.0100   48.4300 C   0  0  0  0  0  0  0  0  0  0  0  0
   36.8890   31.2500   48.1570 N   0  0  0  0  0  0  0  0  0  0  0  0
   36.3920   30.3430   48.9620 C   0  0  0  0  0  0  0  0  0  0  0  0
   36.9400   30.0690   50.2020 N   0  0  0  0  0  0  0  0  0  0  0  0
   31.7620   28.0950   46.8850 C   0  0  2  0  0  0  0  0  0  0  0  0
   31.4780   29.1530   45.9150 C   0  0  0  0  0  0  0  0  0  0  0  0
   30.6570   27.8250   47.8830 C   0  0  0  0  0  0  0  0  0  0  0  0
   30.1180   26.5920   47.7620 O   0  0  0  0  0  0  0  0  0  0  0  0
   29.3280   26.2360   46.6800 C   0  0  0  0  0  0  0  0  0  0  0  0
   28.2240   26.6050   45.9410 C   0  0  0  0  0  0  0  0  0  0  0  0
   28.0140   25.7200   44.9510 N   0  0  0  0  0  0  0  0  0  0  0  0
   28.9760   24.7860   45.0520 C   0  0  0  0  0  0  0  0  0  0  0  0
   29.7860   25.0870   46.1020 N   0  0  0  0  0  0  0  0  0  0  0  0
   35.3296   27.8258   49.9256 H   0  0  0  0  0  0  0  0  0  0  0  0
   33.2551   26.8272   48.9937 H   0  0  0  0  0  0  0  0  0  0  0  0
   38.5328   30.6766   51.4634 H   0  0  0  0  0  0  0  0  0  0  0  0
   39.4647   32.3910   49.9328 H   0  0  0  0  0  0  0  0  0  0  0  0
   38.3428   32.7573   47.7145 H   0  0  0  0  0  0  0  0  0  0  0  0
   31.8756   27.1839   46.2792 H   0  0  0  0  0  0  0  0  0  0  0  0
   31.2286   30.0821   46.4484 H   0  0  0  0  0  0  0  0  0  0  0  0
   32.3634   29.3190   45.2837 H   0  0  0  0  0  0  0  0  0  0  0  0
   30.6285   28.8533   45.2837 H   0  0  0  0  0  0  0  0  0  0  0  0
   31.0698   27.9277   48.8974 H   0  0  0  0  0  0  0  0  0  0  0  0
   29.8553   28.5521   47.6865 H   0  0  0  0  0  0  0  0  0  0  0  0
   27.6053   27.4939   46.1334 H   0  0  0  0  0  0  0  0  0  0  0  0
   29.0899   23.9153   44.3894 H   0  0  0  0  0  0  0  0  0  0  0  0
   30.6044   24.5419   46.4086 H   0  0  0  0  0  0  0  0  0  0  0  0
  1 10  1  0
  1  2  2  0
  3  2  1  0
  4  3  2  0
  5  4  1  0
  5  1  1  0
  7  6  2  0
  8  7  1  0
  9  8  2  0
  9 10  1  0
 10 11  2  0
 11  6  1  0
 12  4  1  0
 12 14  1  0
 13 12  1  0
 15 14  1  0
 16 15  1  0
 17 16  2  0
 18 19  2  0
 18 17  1  0
 19 20  1  0
 20 16  1  0
  2 21  1  0
  3 22  1  0
  6 23  1  0
  7 24  1  0
  8 25  1  0
 12 26  1  6
 13 27  1  0
 13 28  1  0
 13 29  1  0
 14 30  1  0
 14 31  1  0
 17 32  1  0
 19 33  1  0
 20 34  1  0
M  ISO  8  21  14  22  14  23  14  24  14  25  14  26   8  27   8  28   8
M  ISO  6  29   8  30   8  31   8  32  14  33  14  34   9
M  END
>  <minimizedAffinity>  (1) 
-4.43371725

>  <minimizedRMSD>  (1) 
0.797999144

$$$$
