
     RDKit          3D

 43 45  0  0  1  0  0  0  0  0999 V2000
   33.2220   27.4660   47.8480 C   0  0  2  0  0  0  0  0  0  0  0  0
   36.0980   30.2170   48.6690 C   0  0  0  0  0  0  0  0  0  0  0  0
   35.9210   29.2930   49.6910 C   0  0  0  0  0  0  0  0  0  0  0  0
   34.9580   28.3480   49.4840 C   0  0  0  0  0  0  0  0  0  0  0  0
   34.2780   28.3670   48.3630 C   0  0  0  0  0  0  0  0  0  0  0  0
   34.9070   29.7750   47.3830 S   0  0  0  0  0  0  0  0  0  0  0  0
   38.0060   33.2120   49.6310 C   0  0  0  0  0  0  0  0  0  0  0  0
   38.9470   33.3420   48.5910 C   0  0  0  0  0  0  0  0  0  0  0  0
   38.9050   32.4000   47.5760 C   0  0  0  0  0  0  0  0  0  0  0  0
   37.9740   31.4140   47.6320 N   0  0  0  0  0  0  0  0  0  0  0  0
   37.1020   31.3420   48.6510 C   0  0  0  0  0  0  0  0  0  0  0  0
   37.0600   32.2250   49.7040 N   0  0  0  0  0  0  0  0  0  0  0  0
   33.1040   27.5800   46.4120 C   0  0  0  0  0  0  0  0  0  0  0  0
   31.9560   27.7210   48.6520 C   0  0  0  0  0  0  0  0  0  0  0  0
   31.0780   26.7060   48.6290 O   0  0  0  0  0  0  0  0  0  0  0  0
   29.7610   26.8620   48.2390 C   0  0  0  0  0  0  0  0  0  0  0  0
   28.9520   26.6200   47.1490 C   0  0  0  0  0  0  0  0  0  0  0  0
   27.6990   27.0700   47.5340 C   0  0  0  0  0  0  0  0  0  0  0  0
   27.7870   27.5580   48.8110 C   0  0  0  0  0  0  0  0  0  0  0  0
   29.0320   27.4100   49.1830 O   0  0  0  0  0  0  0  0  0  0  0  0
   26.6040   28.1190   49.5160 C   0  0  0  0  0  0  0  0  0  0  0  0
   26.5710   29.6170   49.2060 C   0  0  0  0  0  0  0  0  0  0  0  0
   26.7250   28.0060   51.0160 C   0  0  0  0  0  0  0  0  0  0  0  0
   33.4711   26.4045   47.9935 H   0  0  0  0  0  0  0  0  0  0  0  0
   36.5212   29.3212   50.6124 H   0  0  0  0  0  0  0  0  0  0  0  0
   34.7553   27.5816   50.2466 H   0  0  0  0  0  0  0  0  0  0  0  0
   38.0331   33.9555   50.4412 H   0  0  0  0  0  0  0  0  0  0  0  0
   39.6848   34.1578   48.5850 H   0  0  0  0  0  0  0  0  0  0  0  0
   39.6153   32.4504   46.7376 H   0  0  0  0  0  0  0  0  0  0  0  0
   32.3330   28.3248   46.1654 H   0  0  0  0  0  0  0  0  0  0  0  0
   34.0686   27.8969   45.9888 H   0  0  0  0  0  0  0  0  0  0  0  0
   32.8205   26.6050   45.9888 H   0  0  0  0  0  0  0  0  0  0  0  0
   32.2425   27.9062   49.6978 H   0  0  0  0  0  0  0  0  0  0  0  0
   31.4550   28.5841   48.1892 H   0  0  0  0  0  0  0  0  0  0  0  0
   29.2378   26.1696   46.1870 H   0  0  0  0  0  0  0  0  0  0  0  0
   26.7879   27.0403   46.9183 H   0  0  0  0  0  0  0  0  0  0  0  0
   25.7113   27.5684   49.1844 H   0  0  0  0  0  0  0  0  0  0  0  0
   26.5585   30.1860   50.1473 H   0  0  0  0  0  0  0  0  0  0  0  0
   27.4633   29.8907   48.6239 H   0  0  0  0  0  0  0  0  0  0  0  0
   25.6675   29.8512   48.6239 H   0  0  0  0  0  0  0  0  0  0  0  0
   26.0010   28.6821   51.4942 H   0  0  0  0  0  0  0  0  0  0  0  0
   26.5181   26.9703   51.3236 H   0  0  0  0  0  0  0  0  0  0  0  0
   27.7441   28.2832   51.3236 H   0  0  0  0  0  0  0  0  0  0  0  0
  1  5  1  0
  1 14  1  0
  2  3  2  0
  4  3  1  0
  5  4  2  0
  6  5  1  0
  6  2  1  0
  7 12  2  0
  8  7  1  0
  9 10  1  0
  9  8  2  0
 10 11  2  0
 11  2  1  0
 11 12  1  0
 13  1  1  0
 15 14  1  0
 16 15  1  0
 16 20  1  0
 17 18  1  0
 17 16  2  0
 18 19  2  0
 19 20  1  0
 19 21  1  0
 21 23  1  0
 22 21  1  0
  1 24  1  6
  3 25  1  0
  4 26  1  0
  7 27  1  0
  8 28  1  0
  9 29  1  0
 13 30  1  0
 13 31  1  0
 13 32  1  0
 14 33  1  0
 14 34  1  0
 17 35  1  0
 18 36  1  0
 21 37  1  0
 22 38  1  0
 22 39  1  0
 22 40  1  0
 23 41  1  0
 23 42  1  0
 23 43  1  0
M  ISO  8  24   8  25  14  26  14  27  14  28  14  29  14  30   8  31   8
M  ISO  8  32   8  33   8  34   8  35  14  36  14  37   8  38   8  39   8
M  ISO  4  40   8  41   8  42   8  43   8
M  END
>  <minimizedAffinity>  (1) 
-6.10769415

>  <minimizedRMSD>  (1) 
2.88177514

$$$$
