
     RDKit          3D

 41 44  0  0  1  0  0  0  0  0999 V2000
   33.1230   27.3990   48.0070 C   0  0  2  0  0  0  0  0  0  0  0  0
   36.0630   30.1170   48.7100 C   0  0  0  0  0  0  0  0  0  0  0  0
   35.8690   29.2360   49.7670 C   0  0  0  0  0  0  0  0  0  0  0  0
   34.8880   28.3070   49.5990 C   0  0  0  0  0  0  0  0  0  0  0  0
   34.2010   28.2960   48.4810 C   0  0  0  0  0  0  0  0  0  0  0  0
   34.8530   29.6500   47.4420 S   0  0  0  0  0  0  0  0  0  0  0  0
   37.9890   33.1430   49.5180 C   0  0  0  0  0  0  0  0  0  0  0  0
   38.9510   33.2000   48.5030 C   0  0  0  0  0  0  0  0  0  0  0  0
   38.9220   32.1990   47.5550 C   0  0  0  0  0  0  0  0  0  0  0  0
   37.9800   31.2190   47.6420 N   0  0  0  0  0  0  0  0  0  0  0  0
   37.0850   31.2230   48.6420 C   0  0  0  0  0  0  0  0  0  0  0  0
   37.0300   32.1740   49.6330 N   0  0  0  0  0  0  0  0  0  0  0  0
   33.0590   27.3900   46.5640 C   0  0  0  0  0  0  0  0  0  0  0  0
   31.8420   27.7880   48.7340 C   0  0  0  0  0  0  0  0  0  0  0  0
   30.9210   26.8000   48.7780 O   0  0  0  0  0  0  0  0  0  0  0  0
   29.7210   26.8770   48.0970 C   0  0  0  0  0  0  0  0  0  0  0  0
   29.2090   26.5980   46.8550 C   0  0  0  0  0  0  0  0  0  0  0  0
   27.8790   26.9450   46.8980 C   0  0  0  0  0  0  0  0  0  0  0  0
   27.6270   27.4190   48.1580 C   0  0  0  0  0  0  0  0  0  0  0  0
   28.7440   27.3610   48.8350 O   0  0  0  0  0  0  0  0  0  0  0  0
   26.2890   27.9130   48.6500 C   0  0  0  0  0  0  0  0  0  0  0  0
   26.1450   28.5070   49.9800 C   0  0  0  0  0  0  0  0  0  0  0  0
   26.1330   29.4170   48.7980 C   0  0  0  0  0  0  0  0  0  0  0  0
   33.3165   26.3450   48.2555 H   0  0  0  0  0  0  0  0  0  0  0  0
   36.4725   29.2862   50.6853 H   0  0  0  0  0  0  0  0  0  0  0  0
   34.6738   27.5743   50.3910 H   0  0  0  0  0  0  0  0  0  0  0  0
   38.0052   33.9362   50.2799 H   0  0  0  0  0  0  0  0  0  0  0  0
   39.6970   34.0074   48.4633 H   0  0  0  0  0  0  0  0  0  0  0  0
   39.6544   32.1920   46.7343 H   0  0  0  0  0  0  0  0  0  0  0  0
   32.0168   27.2434   46.2441 H   0  0  0  0  0  0  0  0  0  0  0  0
   33.4307   28.3492   46.1745 H   0  0  0  0  0  0  0  0  0  0  0  0
   33.6808   26.5705   46.1745 H   0  0  0  0  0  0  0  0  0  0  0  0
   32.0998   28.0687   49.7659 H   0  0  0  0  0  0  0  0  0  0  0  0
   31.3937   28.6207   48.1722 H   0  0  0  0  0  0  0  0  0  0  0  0
   29.7540   26.1799   45.9958 H   0  0  0  0  0  0  0  0  0  0  0  0
   27.1540   26.8582   46.0753 H   0  0  0  0  0  0  0  0  0  0  0  0
   25.7652   27.0970   48.1306 H   0  0  0  0  0  0  0  0  0  0  0  0
   25.2195   28.3446   50.5519 H   0  0  0  0  0  0  0  0  0  0  0  0
   26.7348   28.4626   50.9075 H   0  0  0  0  0  0  0  0  0  0  0  0
   26.9848   30.0852   48.6033 H   0  0  0  0  0  0  0  0  0  0  0  0
   25.4508   30.1820   48.3988 H   0  0  0  0  0  0  0  0  0  0  0  0
  1  5  1  0
  1 14  1  0
  2  3  2  0
  4  3  1  0
  5  4  2  0
  6  5  1  0
  6  2  1  0
  7 12  2  0
  8  7  1  0
  9 10  1  0
  9  8  2  0
 10 11  2  0
 11  2  1  0
 11 12  1  0
 13  1  1  0
 14 15  1  0
 16 15  1  0
 16 20  1  0
 17 18  1  0
 17 16  2  0
 18 19  2  0
 19 21  1  0
 19 20  1  0
 21 23  1  0
 21 22  1  0
 23 22  1  0
  1 24  1  1
  3 25  1  0
  4 26  1  0
  7 27  1  0
  8 28  1  0
  9 29  1  0
 13 30  1  0
 13 31  1  0
 13 32  1  0
 14 33  1  0
 14 34  1  0
 17 35  1  0
 18 36  1  0
 21 37  1  0
 22 38  1  0
 22 39  1  0
 23 40  1  0
 23 41  1  0
M  ISO  8  24   8  25  14  26  14  27  14  28  14  29  14  30   8  31   8
M  ISO  8  32   8  33   8  34   8  35  14  36  14  37  13  38  13  39  13
M  ISO  2  40  13  41  13
M  END
>  <minimizedAffinity>  (1) 
-6.03012323

>  <minimizedRMSD>  (1) 
2.62756777

$$$$
