
     RDKit          3D

 50 53  0  0  1  0  0  0  0  0999 V2000
   31.5940   28.0420   46.6380 C   0  0  2  0  0  0  0  0  0  0  0  0
   34.8810   29.4000   48.6170 C   0  0  0  0  0  0  0  0  0  0  0  0
   34.3330   28.2330   49.1700 C   0  0  0  0  0  0  0  0  0  0  0  0
   33.2340   27.7410   48.5630 C   0  0  0  0  0  0  0  0  0  0  0  0
   32.7500   28.3660   47.5150 C   0  0  0  0  0  0  0  0  0  0  0  0
   33.8250   29.8110   47.2150 S   0  0  0  0  0  0  0  0  0  0  0  0
   37.6430   30.5440   50.7630 C   0  0  0  0  0  0  0  0  0  0  0  0
   38.3520   31.4120   49.9320 C   0  0  0  0  0  0  0  0  0  0  0  0
   37.8740   31.6060   48.6380 C   0  0  0  0  0  0  0  0  0  0  0  0
   36.7500   30.9470   48.2510 N   0  0  0  0  0  0  0  0  0  0  0  0
   36.1140   30.1250   49.1010 C   0  0  0  0  0  0  0  0  0  0  0  0
   36.5150   29.8760   50.3910 N   0  0  0  0  0  0  0  0  0  0  0  0
   31.5650   28.9350   45.5010 C   0  0  0  0  0  0  0  0  0  0  0  0
   30.3420   28.0250   47.5070 C   0  0  0  0  0  0  0  0  0  0  0  0
   29.5880   26.9170   47.3450 O   0  0  0  0  0  0  0  0  0  0  0  0
   28.8190   26.7030   46.2160 C   0  0  0  0  0  0  0  0  0  0  0  0
   28.7370   25.8240   45.1580 C   0  0  0  0  0  0  0  0  0  0  0  0
   27.6670   26.2610   44.3920 C   0  0  0  0  0  0  0  0  0  0  0  0
   27.1520   27.3710   45.0080 C   0  0  0  0  0  0  0  0  0  0  0  0
   27.8740   27.5830   46.0810 O   0  0  0  0  0  0  0  0  0  0  0  0
   25.9800   28.1040   44.4490 C   0  0  0  0  0  0  0  0  0  0  0  0
   26.4410   29.3710   43.7790 C   0  0  0  0  0  0  0  0  0  0  0  0
   25.2590   29.8340   42.9220 C   0  0  0  0  0  0  0  0  0  0  0  0
   25.2900   28.8920   41.7180 C   0  0  0  0  0  0  0  0  0  0  0  0
   25.1010   27.4820   42.1600 C   0  0  0  0  0  0  0  0  0  0  0  0
   25.0610   27.2680   43.6400 C   0  0  0  0  0  0  0  0  0  0  0  0
   31.6716   27.0427   46.1849 H   0  0  0  0  0  0  0  0  0  0  0  0
   34.7759   27.7456   50.0511 H   0  0  0  0  0  0  0  0  0  0  0  0
   32.7497   26.8285   48.9408 H   0  0  0  0  0  0  0  0  0  0  0  0
   38.0191   30.3888   51.7850 H   0  0  0  0  0  0  0  0  0  0  0  0
   39.2577   31.9257   50.2866 H   0  0  0  0  0  0  0  0  0  0  0  0
   38.3962   32.2797   47.9427 H   0  0  0  0  0  0  0  0  0  0  0  0
   31.5312   29.9764   45.8535 H   0  0  0  0  0  0  0  0  0  0  0  0
   32.4686   28.7831   44.8923 H   0  0  0  0  0  0  0  0  0  0  0  0
   30.6732   28.7248   44.8923 H   0  0  0  0  0  0  0  0  0  0  0  0
   30.6494   28.0856   48.5614 H   0  0  0  0  0  0  0  0  0  0  0  0
   29.7251   28.8831   47.2018 H   0  0  0  0  0  0  0  0  0  0  0  0
   29.3849   24.9569   44.9621 H   0  0  0  0  0  0  0  0  0  0  0  0
   27.2999   25.8017   43.4623 H   0  0  0  0  0  0  0  0  0  0  0  0
   25.3346   28.3963   45.2904 H   0  0  0  0  0  0  0  0  0  0  0  0
   26.6930   30.1336   44.5306 H   0  0  0  0  0  0  0  0  0  0  0  0
   27.3446   29.2070   43.1735 H   0  0  0  0  0  0  0  0  0  0  0  0
   24.3124   29.7342   43.4734 H   0  0  0  0  0  0  0  0  0  0  0  0
   25.3310   30.8935   42.6350 H   0  0  0  0  0  0  0  0  0  0  0  0
   26.2605   28.9857   41.2088 H   0  0  0  0  0  0  0  0  0  0  0  0
   24.4758   29.1636   41.0300 H   0  0  0  0  0  0  0  0  0  0  0  0
   24.1509   27.1202   41.7400 H   0  0  0  0  0  0  0  0  0  0  0  0
   25.9840   26.9332   41.8006 H   0  0  0  0  0  0  0  0  0  0  0  0
   24.0351   27.4716   43.9806 H   0  0  0  0  0  0  0  0  0  0  0  0
   25.3935   26.2311   43.7958 H   0  0  0  0  0  0  0  0  0  0  0  0
  1 14  1  0
  1  5  1  0
  2 11  1  0
  2  3  2  0
  4  3  1  0
  5  4  2  0
  6  5  1  0
  6  2  1  0
  8  7  2  0
  9  8  1  0
 10  9  2  0
 10 11  1  0
 11 12  2  0
 12  7  1  0
 13  1  1  0
 15 14  1  0
 16 15  1  0
 17 16  2  0
 18 19  2  0
 18 17  1  0
 19 20  1  0
 20 16  1  0
 21 19  1  0
 22 21  1  0
 23 22  1  0
 24 25  1  0
 24 23  1  0
 25 26  1  0
 26 21  1  0
  1 27  1  6
  3 28  1  0
  4 29  1  0
  7 30  1  0
  8 31  1  0
  9 32  1  0
 13 33  1  0
 13 34  1  0
 13 35  1  0
 14 36  1  0
 14 37  1  0
 17 38  1  0
 18 39  1  0
 21 40  1  0
 22 41  1  0
 22 42  1  0
 23 43  1  0
 23 44  1  0
 24 45  1  0
 24 46  1  0
 25 47  1  0
 25 48  1  0
 26 49  1  0
 26 50  1  0
M  ISO  8  27   8  28  14  29  14  30  14  31  14  32  14  33   8  34   8
M  ISO  8  35   8  36   8  37   8  38  14  39  14  40  13  41  13  42  13
M  ISO  8  43  13  44  13  45  13  46  13  47  13  48  13  49  13  50  13
M  END
>  <minimizedAffinity>  (1) 
-5.3478837

>  <minimizedRMSD>  (1) 
0.712317109

$$$$
