
     RDKit          3D

 12 12  0  0  0  0  0  0  0  0999 V2000
   37.2870   30.2200   51.4610 C   0  0  0  0  0  0  0  0  0  0  0  0
   38.1220   30.7620   50.4630 C   0  0  0  0  0  0  0  0  0  0  0  0
   37.8460   30.4370   49.1340 C   0  0  0  0  0  0  0  0  0  0  0  0
   36.7810   29.6090   48.8670 N   0  0  0  0  0  0  0  0  0  0  0  0
   36.0060   29.1110   49.8480 C   0  0  0  0  0  0  0  0  0  0  0  0
   36.2590   29.4140   51.1300 N   0  0  0  0  0  0  0  0  0  0  0  0
   38.5950   30.9060   48.0160 N   0  0  0  0  0  0  0  0  0  0  0  0
   37.4760   30.4569   52.5184 H   0  0  0  0  0  0  0  0  0  0  0  0
   38.9642   31.4200   50.7233 H   0  0  0  0  0  0  0  0  0  0  0  0
   35.1612   28.4525   49.5975 H   0  0  0  0  0  0  0  0  0  0  0  0
   38.3294   30.6217   47.0623 H   0  0  0  0  0  0  0  0  0  0  0  0
   39.4020   31.5293   48.1616 H   0  0  0  0  0  0  0  0  0  0  0  0
  2  1  2  0
  3  2  1  0
  4  3  2  0
  4  5  1  0
  5  6  2  0
  6  1  1  0
  7  3  1  0
  1  8  1  0
  2  9  1  0
  5 10  1  0
  7 11  1  0
  7 12  1  0
M  ISO  3   8  14   9  14  10  14
M  END
>  <minimizedAffinity>  (1) 
-3.39705563

>  <minimizedRMSD>  (1) 
0.135426268

$$$$
