
     RDKit          3D

 47 50  0  0  1  0  0  0  0  0999 V2000
   31.7770   27.9480   46.8050 C   0  0  2  0  0  0  0  0  0  0  0  0
   35.1020   29.4920   48.5610 C   0  0  0  0  0  0  0  0  0  0  0  0
   34.6830   28.2950   49.1370 C   0  0  0  0  0  0  0  0  0  0  0  0
   33.5640   27.7330   48.6020 C   0  0  0  0  0  0  0  0  0  0  0  0
   32.9650   28.3340   47.6040 C   0  0  0  0  0  0  0  0  0  0  0  0
   33.9160   29.8450   47.2450 S   0  0  0  0  0  0  0  0  0  0  0  0
   37.9510   30.7750   50.5000 C   0  0  0  0  0  0  0  0  0  0  0  0
   38.5140   31.7250   49.6470 C   0  0  0  0  0  0  0  0  0  0  0  0
   37.9110   31.9230   48.4160 C   0  0  0  0  0  0  0  0  0  0  0  0
   36.8060   31.1930   48.0900 N   0  0  0  0  0  0  0  0  0  0  0  0
   36.3120   30.2940   48.9560 C   0  0  0  0  0  0  0  0  0  0  0  0
   36.8490   30.0370   50.1950 N   0  0  0  0  0  0  0  0  0  0  0  0
   31.6120   28.8300   45.6730 C   0  0  0  0  0  0  0  0  0  0  0  0
   30.5950   27.8390   47.7530 C   0  0  0  0  0  0  0  0  0  0  0  0
   29.8420   26.7310   47.5540 O   0  0  0  0  0  0  0  0  0  0  0  0
   29.0060   26.5880   46.4640 C   0  0  0  0  0  0  0  0  0  0  0  0
   28.6940   25.6630   45.5050 C   0  0  0  0  0  0  0  0  0  0  0  0
   27.7200   26.2450   44.7130 C   0  0  0  0  0  0  0  0  0  0  0  0
   27.4780   27.4940   45.2170 C   0  0  0  0  0  0  0  0  0  0  0  0
   28.2650   27.6420   46.2510 O   0  0  0  0  0  0  0  0  0  0  0  0
   26.5210   28.3720   44.6350 N   0  0  0  0  0  0  0  0  0  0  0  0
   26.5160   29.8180   44.4460 C   0  0  0  0  0  0  0  0  0  0  0  0
   26.4880   30.0950   42.9600 C   0  0  0  0  0  0  0  0  0  0  0  0
   25.5120   29.4090   42.2780 O   0  0  0  0  0  0  0  0  0  0  0  0
   25.3870   28.0790   42.5810 C   0  0  0  0  0  0  0  0  0  0  0  0
   25.2700   27.8310   44.0890 C   0  0  0  0  0  0  0  0  0  0  0  0
   31.8897   26.9594   46.3359 H   0  0  0  0  0  0  0  0  0  0  0  0
   35.2242   27.8310   49.9747 H   0  0  0  0  0  0  0  0  0  0  0  0
   33.1686   26.7877   49.0022 H   0  0  0  0  0  0  0  0  0  0  0  0
   38.4268   30.6128   51.4784 H   0  0  0  0  0  0  0  0  0  0  0  0
   39.4061   32.2970   49.9421 H   0  0  0  0  0  0  0  0  0  0  0  0
   38.3187   32.6607   47.7092 H   0  0  0  0  0  0  0  0  0  0  0  0
   31.4207   29.8528   46.0299 H   0  0  0  0  0  0  0  0  0  0  0  0
   32.5277   28.8196   45.0635 H   0  0  0  0  0  0  0  0  0  0  0  0
   30.7620   28.4893   45.0635 H   0  0  0  0  0  0  0  0  0  0  0  0
   30.9768   27.8196   48.7844 H   0  0  0  0  0  0  0  0  0  0  0  0
   29.9476   28.7079   47.5634 H   0  0  0  0  0  0  0  0  0  0  0  0
   29.1294   24.6597   45.3875 H   0  0  0  0  0  0  0  0  0  0  0  0
   27.2309   25.7883   43.8400 H   0  0  0  0  0  0  0  0  0  0  0  0
   25.6262   30.2538   44.9238 H   0  0  0  0  0  0  0  0  0  0  0  0
   27.4116   30.2659   44.9013 H   0  0  0  0  0  0  0  0  0  0  0  0
   26.3197   31.1720   42.8128 H   0  0  0  0  0  0  0  0  0  0  0  0
   27.4536   29.7559   42.5567 H   0  0  0  0  0  0  0  0  0  0  0  0
   24.4850   27.6877   42.0878 H   0  0  0  0  0  0  0  0  0  0  0  0
   26.2944   27.5679   42.2268 H   0  0  0  0  0  0  0  0  0  0  0  0
   24.4002   28.3597   44.5061 H   0  0  0  0  0  0  0  0  0  0  0  0
   25.1253   26.7684   44.3338 H   0  0  0  0  0  0  0  0  0  0  0  0
  1  5  1  0
  1 14  1  0
  2 11  1  0
  2  3  2  0
  4  3  1  0
  5  4  2  0
  6  5  1  0
  6  2  1  0
  8  7  2  0
  9  8  1  0
 10  9  2  0
 10 11  1  0
 11 12  2  0
 12  7  1  0
 13  1  1  0
 15 14  1  0
 16 15  1  0
 17 16  2  0
 18 19  2  0
 18 17  1  0
 19 20  1  0
 20 16  1  0
 21 19  1  0
 22 21  1  0
 23 22  1  0
 24 25  1  0
 24 23  1  0
 25 26  1  0
 26 21  1  0
  1 27  1  6
  3 28  1  0
  4 29  1  0
  7 30  1  0
  8 31  1  0
  9 32  1  0
 13 33  1  0
 13 34  1  0
 13 35  1  0
 14 36  1  0
 14 37  1  0
 17 38  1  0
 18 39  1  0
 22 40  1  0
 22 41  1  0
 23 42  1  0
 23 43  1  0
 25 44  1  0
 25 45  1  0
 26 46  1  0
 26 47  1  0
M  ISO  8  27   8  28  14  29  14  30  14  31  14  32  14  33   8  34   8
M  ISO  8  35   8  36   8  37   8  38  14  39  14  40  13  41  13  42  13
M  ISO  5  43  13  44  13  45  13  46  13  47  13
M  END
>  <minimizedAffinity>  (1) 
-5.11916113

>  <minimizedRMSD>  (1) 
0.571491539

$$$$
