
     RDKit          3D

 41 44  0  0  1  0  0  0  0  0999 V2000
   31.8100   27.9250   46.9760 C   0  0  2  0  0  0  0  0  0  0  0  0
   35.1530   29.5270   48.6570 C   0  0  0  0  0  0  0  0  0  0  0  0
   34.7330   28.3340   49.2630 C   0  0  0  0  0  0  0  0  0  0  0  0
   33.6230   27.7590   48.7590 C   0  0  0  0  0  0  0  0  0  0  0  0
   33.0090   28.3330   47.7520 C   0  0  0  0  0  0  0  0  0  0  0  0
   33.9530   29.8440   47.3500 S   0  0  0  0  0  0  0  0  0  0  0  0
   38.0370   30.8560   50.5090 C   0  0  0  0  0  0  0  0  0  0  0  0
   38.5790   31.8060   49.6150 C   0  0  0  0  0  0  0  0  0  0  0  0
   37.9380   31.9670   48.4110 C   0  0  0  0  0  0  0  0  0  0  0  0
   36.8410   31.2280   48.1320 N   0  0  0  0  0  0  0  0  0  0  0  0
   36.3700   30.3370   49.0230 C   0  0  0  0  0  0  0  0  0  0  0  0
   36.9280   30.0880   50.2640 N   0  0  0  0  0  0  0  0  0  0  0  0
   31.6360   28.7860   45.8280 C   0  0  0  0  0  0  0  0  0  0  0  0
   30.6370   27.8550   47.9470 C   0  0  0  0  0  0  0  0  0  0  0  0
   29.9320   26.7100   47.8610 O   0  0  0  0  0  0  0  0  0  0  0  0
   29.1890   26.3770   46.7440 C   0  0  0  0  0  0  0  0  0  0  0  0
   28.9840   25.3120   45.8920 C   0  0  0  0  0  0  0  0  0  0  0  0
   28.0490   25.7500   44.9680 C   0  0  0  0  0  0  0  0  0  0  0  0
   27.7300   27.0420   45.2900 C   0  0  0  0  0  0  0  0  0  0  0  0
   28.4350   27.3570   46.3480 O   0  0  0  0  0  0  0  0  0  0  0  0
   26.7850   27.7730   44.5150 N   0  0  0  0  0  0  0  0  0  0  0  0
   27.0550   29.0800   44.3840 N   0  0  0  0  0  0  0  0  0  0  0  0
   26.0820   29.6340   43.6340 C   0  0  0  0  0  0  0  0  0  0  0  0
   25.1770   28.6690   43.2780 C   0  0  0  0  0  0  0  0  0  0  0  0
   25.6530   27.4990   43.8540 C   0  0  0  0  0  0  0  0  0  0  0  0
   31.9104   26.9235   46.5323 H   0  0  0  0  0  0  0  0  0  0  0  0
   35.2816   27.8901   50.1068 H   0  0  0  0  0  0  0  0  0  0  0  0
   33.2374   26.8215   49.1862 H   0  0  0  0  0  0  0  0  0  0  0  0
   38.5437   30.7221   51.4761 H   0  0  0  0  0  0  0  0  0  0  0  0
   39.4746   32.3908   49.8717 H   0  0  0  0  0  0  0  0  0  0  0  0
   38.3156   32.6941   47.6770 H   0  0  0  0  0  0  0  0  0  0  0  0
   31.4287   29.8117   46.1670 H   0  0  0  0  0  0  0  0  0  0  0  0
   32.5538   28.7787   45.2217 H   0  0  0  0  0  0  0  0  0  0  0  0
   30.7931   28.4228   45.2217 H   0  0  0  0  0  0  0  0  0  0  0  0
   31.0277   27.9465   48.9712 H   0  0  0  0  0  0  0  0  0  0  0  0
   29.9525   28.6752   47.6849 H   0  0  0  0  0  0  0  0  0  0  0  0
   29.4624   24.3225   45.9367 H   0  0  0  0  0  0  0  0  0  0  0  0
   27.6386   25.1672   44.1302 H   0  0  0  0  0  0  0  0  0  0  0  0
   26.0235   30.6955   43.3517 H   0  0  0  0  0  0  0  0  0  0  0  0
   24.2701   28.7941   42.6682 H   0  0  0  0  0  0  0  0  0  0  0  0
   25.1783   26.5095   43.7797 H   0  0  0  0  0  0  0  0  0  0  0  0
  1  5  1  0
  1 14  1  0
  2 11  1  0
  2  3  2  0
  4  3  1  0
  5  4  2  0
  6  5  1  0
  6  2  1  0
  8  7  2  0
  9  8  1  0
 10  9  2  0
 10 11  1  0
 11 12  2  0
 12  7  1  0
 13  1  1  0
 15 14  1  0
 16 15  1  0
 17 16  2  0
 18 19  2  0
 18 17  1  0
 19 20  1  0
 20 16  1  0
 21 19  1  0
 22 21  1  0
 23 22  2  0
 24 23  1  0
 24 25  2  0
 25 21  1  0
  1 26  1  6
  3 27  1  0
  4 28  1  0
  7 29  1  0
  8 30  1  0
  9 31  1  0
 13 32  1  0
 13 33  1  0
 13 34  1  0
 14 35  1  0
 14 36  1  0
 17 37  1  0
 18 38  1  0
 23 39  1  0
 24 40  1  0
 25 41  1  0
M  ISO  8  26   8  27  14  28  14  29  14  30  14  31  14  32   8  33   8
M  ISO  8  34   8  35   8  36   8  37  14  38  14  39  14  40  14  41  14
M  END
>  <minimizedAffinity>  (1) 
-5.06937122

>  <minimizedRMSD>  (1) 
0.172544271

$$$$
