
     RDKit          3D

 37 39  0  0  1  0  0  0  0  0999 V2000
   31.8040   27.9910   46.9740 C   0  0  2  0  0  0  0  0  0  0  0  0
   35.1690   29.5460   48.6570 C   0  0  0  0  0  0  0  0  0  0  0  0
   34.7460   28.3490   49.2400 C   0  0  0  0  0  0  0  0  0  0  0  0
   33.6310   27.7820   48.7390 C   0  0  0  0  0  0  0  0  0  0  0  0
   33.0120   28.3780   47.7470 C   0  0  0  0  0  0  0  0  0  0  0  0
   33.9550   29.8930   47.3590 S   0  0  0  0  0  0  0  0  0  0  0  0
   38.0490   30.8610   50.5180 C   0  0  0  0  0  0  0  0  0  0  0  0
   38.5960   31.8140   49.6320 C   0  0  0  0  0  0  0  0  0  0  0  0
   37.9610   31.9880   48.4160 C   0  0  0  0  0  0  0  0  0  0  0  0
   36.8580   31.2480   48.1340 N   0  0  0  0  0  0  0  0  0  0  0  0
   36.3880   30.3570   49.0220 C   0  0  0  0  0  0  0  0  0  0  0  0
   36.9390   30.1020   50.2570 N   0  0  0  0  0  0  0  0  0  0  0  0
   31.5790   28.9140   45.8850 C   0  0  0  0  0  0  0  0  0  0  0  0
   30.6540   27.8330   47.9650 C   0  0  0  0  0  0  0  0  0  0  0  0
   29.9940   26.6550   47.8300 O   0  0  0  0  0  0  0  0  0  0  0  0
   29.2230   26.3620   46.7250 C   0  0  0  0  0  0  0  0  0  0  0  0
   29.0670   25.3630   45.7970 C   0  0  0  0  0  0  0  0  0  0  0  0
   28.0560   25.7890   44.9530 C   0  0  0  0  0  0  0  0  0  0  0  0
   27.6430   27.0170   45.3960 C   0  0  0  0  0  0  0  0  0  0  0  0
   28.3710   27.3000   46.4440 O   0  0  0  0  0  0  0  0  0  0  0  0
   26.5590   27.7570   44.7000 C   0  0  0  0  0  0  0  0  0  0  0  0
   31.9209   27.0218   46.4671 H   0  0  0  0  0  0  0  0  0  0  0  0
   35.2993   27.8892   50.0721 H   0  0  0  0  0  0  0  0  0  0  0  0
   33.2471   26.8381   49.1533 H   0  0  0  0  0  0  0  0  0  0  0  0
   38.5497   30.7177   51.4869 H   0  0  0  0  0  0  0  0  0  0  0  0
   39.4914   32.3949   49.8981 H   0  0  0  0  0  0  0  0  0  0  0  0
   38.3445   32.7165   47.6865 H   0  0  0  0  0  0  0  0  0  0  0  0
   31.3368   29.9075   46.2905 H   0  0  0  0  0  0  0  0  0  0  0  0
   32.4870   28.9813   45.2678 H   0  0  0  0  0  0  0  0  0  0  0  0
   30.7419   28.5558   45.2678 H   0  0  0  0  0  0  0  0  0  0  0  0
   31.0604   27.8918   48.9855 H   0  0  0  0  0  0  0  0  0  0  0  0
   29.9329   28.6385   47.7623 H   0  0  0  0  0  0  0  0  0  0  0  0
   29.6290   24.4193   45.7365 H   0  0  0  0  0  0  0  0  0  0  0  0
   27.6577   25.2417   44.0859 H   0  0  0  0  0  0  0  0  0  0  0  0
   25.8902   28.2136   45.4445 H   0  0  0  0  0  0  0  0  0  0  0  0
   26.9985   28.5445   44.0701 H   0  0  0  0  0  0  0  0  0  0  0  0
   25.9857   27.0609   44.0701 H   0  0  0  0  0  0  0  0  0  0  0  0
  1  5  1  0
  1 14  1  0
  2 11  1  0
  2  3  2  0
  4  3  1  0
  5  4  2  0
  6  5  1  0
  6  2  1  0
  8  7  2  0
  9  8  1  0
 10  9  2  0
 10 11  1  0
 11 12  2  0
 12  7  1  0
 13  1  1  0
 15 14  1  0
 16 15  1  0
 17 16  2  0
 18 19  2  0
 18 17  1  0
 19 20  1  0
 20 16  1  0
 21 19  1  0
  1 22  1  6
  3 23  1  0
  4 24  1  0
  7 25  1  0
  8 26  1  0
  9 27  1  0
 13 28  1  0
 13 29  1  0
 13 30  1  0
 14 31  1  0
 14 32  1  0
 17 33  1  0
 18 34  1  0
 21 35  1  0
 21 36  1  0
 21 37  1  0
M  ISO  8  22   8  23  14  24  14  25  14  26  14  27  14  28   8  29   8
M  ISO  8  30   8  31   8  32   8  33  14  34  14  35   8  36   8  37   8
M  END
>  <minimizedAffinity>  (1) 
-4.71537256

>  <minimizedRMSD>  (1) 
0.0521054491

$$$$
