
     RDKit          3D

 35 37  0  0  1  0  0  0  0  0999 V2000
   31.8270   27.9880   46.9800 C   0  0  2  0  0  0  0  0  0  0  0  0
   35.1840   29.5460   48.6570 C   0  0  0  0  0  0  0  0  0  0  0  0
   34.7820   28.3520   49.2430 C   0  0  0  0  0  0  0  0  0  0  0  0
   33.6550   27.7870   48.7340 C   0  0  0  0  0  0  0  0  0  0  0  0
   33.0270   28.3790   47.7480 C   0  0  0  0  0  0  0  0  0  0  0  0
   33.9660   29.8960   47.3640 S   0  0  0  0  0  0  0  0  0  0  0  0
   38.0600   30.8690   50.5290 C   0  0  0  0  0  0  0  0  0  0  0  0
   38.6060   31.8260   49.6450 C   0  0  0  0  0  0  0  0  0  0  0  0
   37.9730   31.9960   48.4340 C   0  0  0  0  0  0  0  0  0  0  0  0
   36.8690   31.2550   48.1370 N   0  0  0  0  0  0  0  0  0  0  0  0
   36.3970   30.3600   49.0200 C   0  0  0  0  0  0  0  0  0  0  0  0
   36.9540   30.1140   50.2520 N   0  0  0  0  0  0  0  0  0  0  0  0
   31.5890   28.9080   45.8910 C   0  0  0  0  0  0  0  0  0  0  0  0
   30.6760   27.8210   47.9610 C   0  0  0  0  0  0  0  0  0  0  0  0
   30.0160   26.6390   47.8130 O   0  0  0  0  0  0  0  0  0  0  0  0
   29.2330   26.3620   46.7160 C   0  0  0  0  0  0  0  0  0  0  0  0
   29.0640   25.3630   45.7970 C   0  0  0  0  0  0  0  0  0  0  0  0
   28.0560   25.7880   44.9530 C   0  0  0  0  0  0  0  0  0  0  0  0
   27.6550   27.0230   45.3920 C   0  0  0  0  0  0  0  0  0  0  0  0
   28.3840   27.3190   46.4400 O   0  0  0  0  0  0  0  0  0  0  0  0
   26.3550   27.9250   44.5620 S   0  0  0  0  0  0  0  0  0  0  0  0
   31.9603   27.0190   46.4767 H   0  0  0  0  0  0  0  0  0  0  0  0
   35.3424   27.8912   50.0698 H   0  0  0  0  0  0  0  0  0  0  0  0
   33.2737   26.8412   49.1463 H   0  0  0  0  0  0  0  0  0  0  0  0
   38.5551   30.7220   51.5002 H   0  0  0  0  0  0  0  0  0  0  0  0
   39.4987   32.4104   49.9126 H   0  0  0  0  0  0  0  0  0  0  0  0
   38.3576   32.7280   47.7085 H   0  0  0  0  0  0  0  0  0  0  0  0
   31.3329   29.8979   46.2966 H   0  0  0  0  0  0  0  0  0  0  0  0
   32.4960   28.9881   45.2738 H   0  0  0  0  0  0  0  0  0  0  0  0
   30.7570   28.5382   45.2738 H   0  0  0  0  0  0  0  0  0  0  0  0
   31.0774   27.8723   48.9839 H   0  0  0  0  0  0  0  0  0  0  0  0
   29.9547   28.6271   47.7611 H   0  0  0  0  0  0  0  0  0  0  0  0
   29.6179   24.4143   45.7413 H   0  0  0  0  0  0  0  0  0  0  0  0
   27.6512   25.2383   44.0905 H   0  0  0  0  0  0  0  0  0  0  0  0
   25.5298   28.4976   45.4937 H   0  0  0  0  0  0  0  0  0  0  0  0
  1  5  1  0
  1 14  1  0
  2 11  1  0
  2  3  2  0
  4  3  1  0
  5  4  2  0
  6  5  1  0
  6  2  1  0
  8  7  2  0
  9  8  1  0
 10  9  2  0
 10 11  1  0
 11 12  2  0
 12  7  1  0
 13  1  1  0
 15 14  1  0
 16 15  1  0
 17 16  2  0
 18 19  2  0
 18 17  1  0
 19 20  1  0
 20 16  1  0
 21 19  1  0
  1 22  1  6
  3 23  1  0
  4 24  1  0
  7 25  1  0
  8 26  1  0
  9 27  1  0
 13 28  1  0
 13 29  1  0
 13 30  1  0
 14 31  1  0
 14 32  1  0
 17 33  1  0
 18 34  1  0
 21 35  1  0
M  ISO  8  22   8  23  14  24  14  25  14  26  14  27  14  28   8  29   8
M  ISO  6  30   8  31   8  32   8  33  14  34  14  35  11
M  END
>  <minimizedAffinity>  (1) 
-4.70468521

>  <minimizedRMSD>  (1) 
0.0819616094

$$$$
