
     RDKit          3D

 26 27  0  0  0  0  0  0  0  0999 V2000
   38.1350   30.8380   50.2360 C   0  0  0  0  0  0  0  0  0  0  0  0
   37.6480   30.4330   48.9730 C   0  0  0  0  0  0  0  0  0  0  0  0
   36.5700   29.5570   48.9390 C   0  0  0  0  0  0  0  0  0  0  0  0
   36.0390   29.1340   50.1270 N   0  0  0  0  0  0  0  0  0  0  0  0
   36.5300   29.5430   51.3230 C   0  0  0  0  0  0  0  0  0  0  0  0
   37.5720   30.3910   51.3640 N   0  0  0  0  0  0  0  0  0  0  0  0
   38.2450   30.9070   47.7190 C   0  0  0  0  0  0  0  0  0  0  0  0
   38.7300   32.3150   47.7910 C   0  0  0  0  0  0  0  0  0  0  0  0
   39.5170   32.6040   46.5280 C   0  0  0  0  0  0  0  0  0  0  0  0
   38.6380   32.4520   45.3310 C   0  0  0  0  0  0  0  0  0  0  0  0
   37.8060   31.2050   45.2980 C   0  0  0  0  0  0  0  0  0  0  0  0
   37.1860   30.8710   46.6350 C   0  0  0  0  0  0  0  0  0  0  0  0
   38.9883   31.5299   50.2924 H   0  0  0  0  0  0  0  0  0  0  0  0
   36.1538   29.2122   47.9809 H   0  0  0  0  0  0  0  0  0  0  0  0
   36.0765   29.1815   52.2577 H   0  0  0  0  0  0  0  0  0  0  0  0
   39.1027   30.2499   47.5126 H   0  0  0  0  0  0  0  0  0  0  0  0
   37.8737   33.0017   47.8627 H   0  0  0  0  0  0  0  0  0  0  0  0
   39.3653   32.4557   48.6779 H   0  0  0  0  0  0  0  0  0  0  0  0
   39.9036   33.6331   46.5674 H   0  0  0  0  0  0  0  0  0  0  0  0
   40.3532   31.8932   46.4538 H   0  0  0  0  0  0  0  0  0  0  0  0
   37.9570   33.3152   45.2983 H   0  0  0  0  0  0  0  0  0  0  0  0
   39.3135   32.3886   44.4651 H   0  0  0  0  0  0  0  0  0  0  0  0
   36.9996   31.3414   44.5624 H   0  0  0  0  0  0  0  0  0  0  0  0
   38.4727   30.3727   45.0283 H   0  0  0  0  0  0  0  0  0  0  0  0
   36.4016   31.6064   46.8670 H   0  0  0  0  0  0  0  0  0  0  0  0
   36.7490   29.8626   46.5894 H   0  0  0  0  0  0  0  0  0  0  0  0
  1  6  2  0
  2  1  1  0
  3  2  2  0
  3  4  1  0
  4  5  2  0
  5  6  1  0
  7  8  1  0
  7  2  1  0
  9  8  1  0
 10  9  1  0
 11 10  1  0
 11 12  1  0
 12  7  1  0
  1 13  1  0
  3 14  1  0
  5 15  1  0
  7 16  1  0
  8 17  1  0
  8 18  1  0
  9 19  1  0
  9 20  1  0
 10 21  1  0
 10 22  1  0
 11 23  1  0
 11 24  1  0
 12 25  1  0
 12 26  1  0
M  ISO  8  13  14  14  14  15  14  16  13  17  13  18  13  19  13  20  13
M  ISO  6  21  13  22  13  23  13  24  13  25  13  26  13
M  END
>  <minimizedAffinity>  (1) 
-4.91695976

>  <minimizedRMSD>  (1) 
3.94510841

$$$$
