
     RDKit          3D

 39 41  0  0  1  0  0  0  0  0999 V2000
   38.6430   31.3200   47.0850 C   0  0  2  0  0  0  0  0  0  0  0  0
   39.0250   32.7220   47.4680 C   0  0  0  0  0  0  0  0  0  0  0  0
   40.1090   33.1680   46.4860 C   0  0  0  0  0  0  0  0  0  0  0  0
   39.5810   33.1710   45.1020 C   0  0  0  0  0  0  0  0  0  0  0  0
   38.2660   32.4940   44.8960 C   0  0  0  0  0  0  0  0  0  0  0  0
   38.1570   31.2060   45.7310 C   0  0  1  0  0  0  0  0  0  0  0  0
   38.1850   30.4590   49.4010 C   0  0  0  0  0  0  0  0  0  0  0  0
   37.7830   30.6850   48.0780 C   0  0  0  0  0  0  0  0  0  0  0  0
   36.5200   30.2710   47.7260 C   0  0  0  0  0  0  0  0  0  0  0  0
   35.7170   29.6700   48.6430 N   0  0  0  0  0  0  0  0  0  0  0  0
   36.1510   29.4700   49.9260 C   0  0  0  0  0  0  0  0  0  0  0  0
   37.3740   29.8650   50.2840 N   0  0  0  0  0  0  0  0  0  0  0  0
   38.9900   30.2350   44.8930 C   0  0  0  0  0  0  0  0  0  0  0  0
   38.2550   29.4850   43.8530 C   0  0  0  0  0  0  0  0  0  0  0  0
   39.4380   28.9030   43.0570 C   0  0  0  0  0  0  0  0  0  0  0  0
   40.3780   30.0800   42.9790 C   0  0  0  0  0  0  0  0  0  0  0  0
   40.1650   30.9190   44.2190 C   0  0  0  0  0  0  0  0  0  0  0  0
   39.5766   30.7382   47.0889 H   0  0  0  0  0  0  0  0  0  0  0  0
   38.1511   33.3861   47.3948 H   0  0  0  0  0  0  0  0  0  0  0  0
   39.3905   32.7624   48.5047 H   0  0  0  0  0  0  0  0  0  0  0  0
   40.4416   34.1829   46.7494 H   0  0  0  0  0  0  0  0  0  0  0  0
   40.9544   32.4666   46.5443 H   0  0  0  0  0  0  0  0  0  0  0  0
   39.4717   34.2192   44.7869 H   0  0  0  0  0  0  0  0  0  0  0  0
   40.3054   32.5929   44.5096 H   0  0  0  0  0  0  0  0  0  0  0  0
   37.4600   33.1813   45.1925 H   0  0  0  0  0  0  0  0  0  0  0  0
   38.1799   32.2242   43.8331 H   0  0  0  0  0  0  0  0  0  0  0  0
   37.1142   30.8982   45.8978 H   0  0  0  0  0  0  0  0  0  0  0  0
   39.1885   30.7766   49.7205 H   0  0  0  0  0  0  0  0  0  0  0  0
   36.1584   30.4267   46.6989 H   0  0  0  0  0  0  0  0  0  0  0  0
   35.4921   28.9842   50.6608 H   0  0  0  0  0  0  0  0  0  0  0  0
   39.3265   29.5082   45.6471 H   0  0  0  0  0  0  0  0  0  0  0  0
   37.6266   28.6936   44.2876 H   0  0  0  0  0  0  0  0  0  0  0  0
   37.5486   30.0853   43.2608 H   0  0  0  0  0  0  0  0  0  0  0  0
   39.8998   28.0582   43.5890 H   0  0  0  0  0  0  0  0  0  0  0  0
   39.1533   28.4989   42.0743 H   0  0  0  0  0  0  0  0  0  0  0  0
   41.4189   29.7266   42.9396 H   0  0  0  0  0  0  0  0  0  0  0  0
   40.1806   30.6724   42.0734 H   0  0  0  0  0  0  0  0  0  0  0  0
   41.0553   30.9040   44.8648 H   0  0  0  0  0  0  0  0  0  0  0  0
   39.9817   31.9810   43.9988 H   0  0  0  0  0  0  0  0  0  0  0  0
  1  2  1  0
  1  8  1  0
  3  2  1  0
  4  3  1  0
  5  4  1  0
  5  6  1  0
  6  1  1  0
  7 12  2  0
  8  7  1  0
  9  8  2  0
  9 10  1  0
 10 11  2  0
 11 12  1  0
 13  6  1  0
 14 13  1  0
 15 14  1  0
 16 15  1  0
 16 17  1  0
 17 13  1  0
  1 18  1  6
  2 19  1  0
  2 20  1  0
  3 21  1  0
  3 22  1  0
  4 23  1  0
  4 24  1  0
  5 25  1  0
  5 26  1  0
  6 27  1  1
  7 28  1  0
  9 29  1  0
 11 30  1  0
 13 31  1  0
 14 32  1  0
 14 33  1  0
 15 34  1  0
 15 35  1  0
 16 36  1  0
 16 37  1  0
 17 38  1  0
 17 39  1  0
M  ISO  8  18  13  19  13  20  13  21  13  22  13  23  13  24  13  25  13
M  ISO  8  26  13  27  13  28  14  29  14  30  14  31  13  32  13  33  13
M  ISO  6  34  13  35  13  36  13  37  13  38  13  39  13
M  END
>  <minimizedAffinity>  (1) 
-5.45291138

>  <minimizedRMSD>  (1) 
1.34168649

$$$$
