
     RDKit          3D

 27 28  0  0  1  0  0  0  0  0999 V2000
   38.3260   30.8570   47.7440 C   0  0  2  0  0  0  0  0  0  0  0  0
   38.6330   32.3330   47.7860 C   0  0  0  0  0  0  0  0  0  0  0  0
   39.4870   32.6540   46.5610 C   0  0  0  0  0  0  0  0  0  0  0  0
   38.6580   32.4170   45.3540 C   0  0  0  0  0  0  0  0  0  0  0  0
   37.9970   31.0740   45.2950 C   0  0  0  0  0  0  0  0  0  0  0  0
   37.4200   30.6180   46.6000 C   0  0  2  0  0  0  0  0  0  0  0  0
   38.1060   30.9020   50.2290 C   0  0  0  0  0  0  0  0  0  0  0  0
   37.6890   30.3990   48.9890 C   0  0  0  0  0  0  0  0  0  0  0  0
   36.6650   29.4460   48.9620 C   0  0  0  0  0  0  0  0  0  0  0  0
   36.1160   29.0460   50.1380 N   0  0  0  0  0  0  0  0  0  0  0  0
   36.5430   29.5540   51.3340 C   0  0  0  0  0  0  0  0  0  0  0  0
   37.5320   30.4760   51.3660 N   0  0  0  0  0  0  0  0  0  0  0  0
   36.1530   31.1510   46.8230 O   0  0  0  0  0  0  0  0  0  0  0  0
   39.2641   30.2935   47.6323 H   0  0  0  0  0  0  0  0  0  0  0  0
   37.6987   32.9129   47.7561 H   0  0  0  0  0  0  0  0  0  0  0  0
   39.1665   32.5938   48.7120 H   0  0  0  0  0  0  0  0  0  0  0  0
   39.8076   33.7057   46.5938 H   0  0  0  0  0  0  0  0  0  0  0  0
   40.3841   32.0178   46.5413 H   0  0  0  0  0  0  0  0  0  0  0  0
   37.8721   33.1860   45.3232 H   0  0  0  0  0  0  0  0  0  0  0  0
   39.3445   32.4603   44.4956 H   0  0  0  0  0  0  0  0  0  0  0  0
   37.1839   31.1214   44.5556 H   0  0  0  0  0  0  0  0  0  0  0  0
   38.7774   30.3483   45.0226 H   0  0  0  0  0  0  0  0  0  0  0  0
   37.3069   29.5268   46.5195 H   0  0  0  0  0  0  0  0  0  0  0  0
   38.9099   31.6517   50.2713 H   0  0  0  0  0  0  0  0  0  0  0  0
   36.3117   29.0291   48.0074 H   0  0  0  0  0  0  0  0  0  0  0  0
   36.0810   29.2119   52.2719 H   0  0  0  0  0  0  0  0  0  0  0  0
   35.9905   31.2193   47.7972 H   0  0  0  0  0  0  0  0  0  0  0  0
  1  2  1  0
  1  8  1  0
  3  2  1  0
  4  3  1  0
  5  4  1  0
  5  6  1  0
  6 13  1  0
  6  1  1  0
  7 12  2  0
  8  7  1  0
  9  8  2  0
  9 10  1  0
 10 11  2  0
 11 12  1  0
  1 14  1  6
  2 15  1  0
  2 16  1  0
  3 17  1  0
  3 18  1  0
  4 19  1  0
  4 20  1  0
  5 21  1  0
  5 22  1  0
  6 23  1  6
  7 24  1  0
  9 25  1  0
 11 26  1  0
 13 27  1  0
M  ISO  8  14  13  15  13  16  13  17  13  18  13  19  13  20  13  21  13
M  ISO  6  22  13  23  13  24  14  25  14  26  14  27   3
M  END
>  <minimizedAffinity>  (1) 
-4.98130894

>  <minimizedRMSD>  (1) 
0.150232226

$$$$
