
     RDKit          3D

 28 29  0  0  1  0  0  0  0  0999 V2000
   38.3470   30.9020   47.7650 C   0  0  2  0  0  0  0  0  0  0  0  0
   38.6780   32.3340   47.7770 C   0  0  0  0  0  0  0  0  0  0  0  0
   39.4920   32.6760   46.5570 C   0  0  0  0  0  0  0  0  0  0  0  0
   38.6920   32.3970   45.3240 C   0  0  0  0  0  0  0  0  0  0  0  0
   37.9760   31.1040   45.2990 C   0  0  0  0  0  0  0  0  0  0  0  0
   37.4160   30.6250   46.6010 C   0  0  2  0  0  0  0  0  0  0  0  0
   38.0380   30.9260   50.2920 C   0  0  0  0  0  0  0  0  0  0  0  0
   37.7250   30.4330   49.0030 C   0  0  0  0  0  0  0  0  0  0  0  0
   36.7640   29.4510   48.9210 C   0  0  0  0  0  0  0  0  0  0  0  0
   36.1760   29.0160   50.0710 N   0  0  0  0  0  0  0  0  0  0  0  0
   36.4940   29.5050   51.2870 C   0  0  0  0  0  0  0  0  0  0  0  0
   37.4380   30.4720   51.3870 N   0  0  0  0  0  0  0  0  0  0  0  0
   36.0640   31.0090   46.8630 N   0  0  0  0  0  0  0  0  0  0  0  0
   39.2952   30.3536   47.6640 H   0  0  0  0  0  0  0  0  0  0  0  0
   37.7497   32.9241   47.7746 H   0  0  0  0  0  0  0  0  0  0  0  0
   39.2604   32.5662   48.6809 H   0  0  0  0  0  0  0  0  0  0  0  0
   39.7621   33.7420   46.5844 H   0  0  0  0  0  0  0  0  0  0  0  0
   40.4060   32.0641   46.5450 H   0  0  0  0  0  0  0  0  0  0  0  0
   37.9455   33.1980   45.2179 H   0  0  0  0  0  0  0  0  0  0  0  0
   39.4198   32.3507   44.5005 H   0  0  0  0  0  0  0  0  0  0  0  0
   37.1400   31.1987   44.5904 H   0  0  0  0  0  0  0  0  0  0  0  0
   38.7330   30.3578   45.0159 H   0  0  0  0  0  0  0  0  0  0  0  0
   37.3555   29.5326   46.4866 H   0  0  0  0  0  0  0  0  0  0  0  0
   38.8028   31.7105   50.3906 H   0  0  0  0  0  0  0  0  0  0  0  0
   36.4766   29.0263   47.9478 H   0  0  0  0  0  0  0  0  0  0  0  0
   35.9923   29.1228   52.1882 H   0  0  0  0  0  0  0  0  0  0  0  0
   35.9105   31.0526   47.8806 H   0  0  0  0  0  0  0  0  0  0  0  0
   35.8835   31.9345   46.4486 H   0  0  0  0  0  0  0  0  0  0  0  0
  1  2  1  0
  1  8  1  0
  3  2  1  0
  4  3  1  0
  5  4  1  0
  5  6  1  0
  6 13  1  0
  6  1  1  0
  7 12  2  0
  8  7  1  0
  9  8  2  0
  9 10  1  0
 10 11  2  0
 11 12  1  0
  1 14  1  6
  2 15  1  0
  2 16  1  0
  3 17  1  0
  3 18  1  0
  4 19  1  0
  4 20  1  0
  5 21  1  0
  5 22  1  0
  6 23  1  6
  7 24  1  0
  9 25  1  0
 11 26  1  0
 13 27  1  0
 13 28  1  0
M  ISO  8  14  13  15  13  16  13  17  13  18  13  19  13  20  13  21  13
M  ISO  7  22  13  23  13  24  14  25  14  26  14  27   5  28   5
M  END
>  <minimizedAffinity>  (1) 
-4.93632269

>  <minimizedRMSD>  (1) 
0.23208572

$$$$
