
     RDKit          3D

 27 28  0  0  1  0  0  0  0  0999 V2000
   38.8320   31.2120   47.9610 C   0  0  2  0  0  0  0  0  0  0  0  0
   38.6480   32.6870   47.7320 C   0  0  0  0  0  0  0  0  0  0  0  0
   39.7930   33.2040   46.8850 C   0  0  0  0  0  0  0  0  0  0  0  0
   39.9390   32.4600   45.6340 C   0  0  0  0  0  0  0  0  0  0  0  0
   39.6400   31.0060   45.6370 C   0  0  0  0  0  0  0  0  0  0  0  0
   38.6410   30.5390   46.6450 C   0  0  2  0  0  0  0  0  0  0  0  0
   38.1000   31.0200   50.3200 C   0  0  0  0  0  0  0  0  0  0  0  0
   37.9470   30.6750   48.9710 C   0  0  0  0  0  0  0  0  0  0  0  0
   36.9560   29.7720   48.5950 C   0  0  0  0  0  0  0  0  0  0  0  0
   36.1460   29.2310   49.5600 N   0  0  0  0  0  0  0  0  0  0  0  0
   36.3190   29.5840   50.8630 C   0  0  0  0  0  0  0  0  0  0  0  0
   37.2740   30.4560   51.2230 N   0  0  0  0  0  0  0  0  0  0  0  0
   36.9510   30.9280   46.0820 S   0  0  0  0  0  0  0  0  0  0  0  0
   39.8420   31.0271   48.3556 H   0  0  0  0  0  0  0  0  0  0  0  0
   37.6955   32.8628   47.2106 H   0  0  0  0  0  0  0  0  0  0  0  0
   38.6347   33.2131   48.6979 H   0  0  0  0  0  0  0  0  0  0  0  0
   39.6077   34.2620   46.6477 H   0  0  0  0  0  0  0  0  0  0  0  0
   40.7213   33.0779   47.4615 H   0  0  0  0  0  0  0  0  0  0  0  0
   40.9826   32.5765   45.3065 H   0  0  0  0  0  0  0  0  0  0  0  0
   39.1734   32.8916   44.9725 H   0  0  0  0  0  0  0  0  0  0  0  0
   39.2598   30.7397   44.6397 H   0  0  0  0  0  0  0  0  0  0  0  0
   40.5846   30.5123   45.9089 H   0  0  0  0  0  0  0  0  0  0  0  0
   38.7854   29.4542   46.7565 H   0  0  0  0  0  0  0  0  0  0  0  0
   38.8755   31.7339   50.6345 H   0  0  0  0  0  0  0  0  0  0  0  0
   36.8247   29.4964   47.5382 H   0  0  0  0  0  0  0  0  0  0  0  0
   35.6660   29.1479   51.6333 H   0  0  0  0  0  0  0  0  0  0  0  0
   36.1390   31.1149   47.1695 H   0  0  0  0  0  0  0  0  0  0  0  0
  1  8  1  0
  2  1  1  0
  3  2  1  0
  4  5  1  0
  4  3  1  0
  5  6  1  0
  6  1  1  0
  7 12  2  0
  8  7  1  0
  9  8  2  0
  9 10  1  0
 10 11  2  0
 11 12  1  0
 13  6  1  0
  1 14  1  1
  2 15  1  0
  2 16  1  0
  3 17  1  0
  3 18  1  0
  4 19  1  0
  4 20  1  0
  5 21  1  0
  5 22  1  0
  6 23  1  1
  7 24  1  0
  9 25  1  0
 11 26  1  0
 13 27  1  0
M  ISO  8  14  13  15  13  16  13  17  13  18  13  19  13  20  13  21  13
M  ISO  6  22  13  23  13  24  14  25  14  26  14  27  11
M  END
>  <minimizedAffinity>  (1) 
-4.54624844

>  <minimizedRMSD>  (1) 
0.971945167

$$$$
