
     RDKit          3D

 36 38  0  0  1  0  0  0  0  0999 V2000
   39.4190   31.5090   46.6420 C   0  0  2  0  0  0  0  0  0  0  0  0
   39.6650   32.7360   45.9220 C   0  0  0  0  0  0  0  0  0  0  0  0
   40.6620   32.6010   44.8200 C   0  0  0  0  0  0  0  0  0  0  0  0
   40.4110   31.4380   43.9430 C   0  0  0  0  0  0  0  0  0  0  0  0
   40.0110   30.2020   44.6390 C   0  0  0  0  0  0  0  0  0  0  0  0
   38.9180   30.4480   45.7090 C   0  0  2  0  0  0  0  0  0  0  0  0
   38.3260   32.8480   48.5240 C   0  0  0  0  0  0  0  0  0  0  0  0
   38.5300   31.6410   47.7870 C   0  0  0  0  0  0  0  0  0  0  0  0
   37.8390   30.5260   48.1570 C   0  0  0  0  0  0  0  0  0  0  0  0
   36.9800   30.6160   49.2210 N   0  0  0  0  0  0  0  0  0  0  0  0
   36.8060   31.7930   49.9090 C   0  0  0  0  0  0  0  0  0  0  0  0
   37.4930   32.9150   49.5470 N   0  0  0  0  0  0  0  0  0  0  0  0
   37.7200   30.8850   44.9700 C   0  0  0  0  0  0  0  0  0  0  0  0
   36.7330   30.1640   44.6110 O   0  0  0  0  0  0  0  0  0  0  0  0
   37.7260   32.2140   44.6630 O   0  0  0  0  0  0  0  0  0  0  0  0
   37.1550   32.6580   43.4510 C   0  0  0  0  0  0  0  0  0  0  0  0
   37.8210   32.9400   42.2710 C   0  0  0  0  0  0  0  0  0  0  0  0
   36.8390   33.3420   41.3590 C   0  0  0  0  0  0  0  0  0  0  0  0
   35.6370   33.2720   42.0620 C   0  0  0  0  0  0  0  0  0  0  0  0
   35.8600   32.8670   43.2880 O   0  0  0  0  0  0  0  0  0  0  0  0
   40.3925   31.2164   47.0624 H   0  0  0  0  0  0  0  0  0  0  0  0
   38.7142   33.0798   45.4886 H   0  0  0  0  0  0  0  0  0  0  0  0
   40.0831   33.4520   46.6449 H   0  0  0  0  0  0  0  0  0  0  0  0
   40.6303   33.5138   44.2069 H   0  0  0  0  0  0  0  0  0  0  0  0
   41.6459   32.4496   45.2879 H   0  0  0  0  0  0  0  0  0  0  0  0
   41.3340   31.2293   43.3821 H   0  0  0  0  0  0  0  0  0  0  0  0
   39.5611   31.7164   43.3026 H   0  0  0  0  0  0  0  0  0  0  0  0
   39.6230   29.4893   43.8964 H   0  0  0  0  0  0  0  0  0  0  0  0
   40.8991   29.8075   45.1544 H   0  0  0  0  0  0  0  0  0  0  0  0
   38.6790   29.5575   46.3090 H   0  0  0  0  0  0  0  0  0  0  0  0
   38.8809   33.7511   48.2298 H   0  0  0  0  0  0  0  0  0  0  0  0
   37.9676   29.5774   47.6151 H   0  0  0  0  0  0  0  0  0  0  0  0
   36.1076   31.8308   50.7580 H   0  0  0  0  0  0  0  0  0  0  0  0
   38.9029   32.8636   42.0874 H   0  0  0  0  0  0  0  0  0  0  0  0
   36.9841   33.6476   40.3123 H   0  0  0  0  0  0  0  0  0  0  0  0
   34.6482   33.5200   41.6487 H   0  0  0  0  0  0  0  0  0  0  0  0
  1  8  1  0
  2  1  1  0
  3  2  1  0
  4  5  1  0
  4  3  1  0
  5  6  1  0
  6  1  1  0
  7 12  2  0
  8  9  2  0
  8  7  1  0
  9 10  1  0
 10 11  2  0
 12 11  1  0
 13  6  1  0
 14 13  2  0
 15 13  1  0
 16 15  1  0
 17 16  2  0
 18 19  2  0
 18 17  1  0
 19 20  1  0
 20 16  1  0
  1 21  1  1
  2 22  1  0
  2 23  1  0
  3 24  1  0
  3 25  1  0
  4 26  1  0
  4 27  1  0
  5 28  1  0
  5 29  1  0
  6 30  1  1
  7 31  1  0
  9 32  1  0
 11 33  1  0
 17 34  1  0
 18 35  1  0
 19 36  1  0
M  ISO  8  21  13  22  13  23  13  24  13  25  13  26  13  27  13  28  13
M  ISO  8  29  13  30  13  31  14  32  14  33  14  34  14  35  14  36  14
M  END
>  <minimizedAffinity>  (1) 
-5.18836784

>  <minimizedRMSD>  (1) 
1.34665215

$$$$
