
     RDKit          3D

 36 38  0  0  1  0  0  0  0  0999 V2000
   39.3440   31.4110   46.6920 C   0  0  2  0  0  0  0  0  0  0  0  0
   39.8340   32.6440   46.1220 C   0  0  0  0  0  0  0  0  0  0  0  0
   40.7960   32.4360   44.9970 C   0  0  0  0  0  0  0  0  0  0  0  0
   40.2890   31.4880   43.9720 C   0  0  0  0  0  0  0  0  0  0  0  0
   39.6500   30.2800   44.5260 C   0  0  0  0  0  0  0  0  0  0  0  0
   38.6310   30.6030   45.6490 C   0  0  2  0  0  0  0  0  0  0  0  0
   38.3130   32.8190   48.5610 C   0  0  0  0  0  0  0  0  0  0  0  0
   38.4900   31.5840   47.8620 C   0  0  0  0  0  0  0  0  0  0  0  0
   37.8140   30.4860   48.2940 C   0  0  0  0  0  0  0  0  0  0  0  0
   36.9900   30.6210   49.3860 N   0  0  0  0  0  0  0  0  0  0  0  0
   36.8400   31.8230   50.0390 C   0  0  0  0  0  0  0  0  0  0  0  0
   37.5160   32.9300   49.6100 N   0  0  0  0  0  0  0  0  0  0  0  0
   37.5550   31.3720   44.9920 C   0  0  0  0  0  0  0  0  0  0  0  0
   37.6030   32.5640   44.5430 O   0  0  0  0  0  0  0  0  0  0  0  0
   36.3770   30.6900   44.8730 O   0  0  0  0  0  0  0  0  0  0  0  0
   35.8410   30.3180   43.5900 C   0  0  0  0  0  0  0  0  0  0  0  0
   35.8690   28.8940   43.1850 C   0  0  0  0  0  0  0  0  0  0  0  0
   36.7040   29.9770   42.4600 C   0  0  0  0  0  0  0  0  0  0  0  0
   40.2360   30.8749   47.0483 H   0  0  0  0  0  0  0  0  0  0  0  0
   38.9756   33.2194   45.7451 H   0  0  0  0  0  0  0  0  0  0  0  0
   40.3747   33.1776   46.9176 H   0  0  0  0  0  0  0  0  0  0  0  0
   40.9870   33.4059   44.5144 H   0  0  0  0  0  0  0  0  0  0  0  0
   41.7135   32.0033   45.4224 H   0  0  0  0  0  0  0  0  0  0  0  0
   41.1362   31.1729   43.3451 H   0  0  0  0  0  0  0  0  0  0  0  0
   39.5131   32.0228   43.4047 H   0  0  0  0  0  0  0  0  0  0  0  0
   39.1244   29.7562   43.7140 H   0  0  0  0  0  0  0  0  0  0  0  0
   40.4427   29.6572   44.9661 H   0  0  0  0  0  0  0  0  0  0  0  0
   38.2096   29.7152   46.1431 H   0  0  0  0  0  0  0  0  0  0  0  0
   38.8594   33.7082   48.2135 H   0  0  0  0  0  0  0  0  0  0  0  0
   37.9234   29.5174   47.7842 H   0  0  0  0  0  0  0  0  0  0  0  0
   36.1726   31.8928   50.9106 H   0  0  0  0  0  0  0  0  0  0  0  0
   35.0503   31.0724   43.7148 H   0  0  0  0  0  0  0  0  0  0  0  0
   36.3624   28.1443   43.8211 H   0  0  0  0  0  0  0  0  0  0  0  0
   35.1238   28.1405   42.8902 H   0  0  0  0  0  0  0  0  0  0  0  0
   37.7980   29.9997   42.5729 H   0  0  0  0  0  0  0  0  0  0  0  0
   36.8085   30.3218   41.4207 H   0  0  0  0  0  0  0  0  0  0  0  0
  1  8  1  0
  2  1  1  0
  3  2  1  0
  4  5  1  0
  4  3  1  0
  5  6  1  0
  6  1  1  0
  7 12  2  0
  8  9  2  0
  8  7  1  0
  9 10  1  0
 10 11  2  0
 12 11  1  0
 13  6  1  0
 14 13  2  0
 15 13  1  0
 16 15  1  0
 17 16  1  0
 18 17  1  0
 18 16  1  0
  1 19  1  1
  2 20  1  0
  2 21  1  0
  3 22  1  0
  3 23  1  0
  4 24  1  0
  4 25  1  0
  5 26  1  0
  5 27  1  0
  6 28  1  1
  7 29  1  0
  9 30  1  0
 11 31  1  0
 16 32  1  0
 17 33  1  0
 17 34  1  0
 18 35  1  0
 18 36  1  0
M  ISO  8  19  13  20  13  21  13  22  13  23  13  24  13  25  13  26  13
M  ISO  8  27  13  28  13  29  14  30  14  31  14  32  13  33  13  34  13
M  ISO  2  35  13  36  13
M  END
>  <minimizedAffinity>  (1) 
-5.04515886

>  <minimizedRMSD>  (1) 
1.81688559

$$$$
