
     RDKit          3D

 31 32  0  0  1  0  0  0  0  0999 V2000
   39.3500   31.4840   46.6870 C   0  0  2  0  0  0  0  0  0  0  0  0
   39.7030   32.7240   46.0560 C   0  0  0  0  0  0  0  0  0  0  0  0
   40.6730   32.5830   44.9290 C   0  0  0  0  0  0  0  0  0  0  0  0
   40.3040   31.5170   43.9790 C   0  0  0  0  0  0  0  0  0  0  0  0
   39.7730   30.2800   44.5780 C   0  0  0  0  0  0  0  0  0  0  0  0
   38.7390   30.5380   45.7000 C   0  0  2  0  0  0  0  0  0  0  0  0
   38.2890   32.8330   48.5790 C   0  0  0  0  0  0  0  0  0  0  0  0
   38.5000   31.6120   47.8650 C   0  0  0  0  0  0  0  0  0  0  0  0
   37.8600   30.4870   48.2830 C   0  0  0  0  0  0  0  0  0  0  0  0
   37.0360   30.5780   49.3770 N   0  0  0  0  0  0  0  0  0  0  0  0
   36.8520   31.7670   50.0440 C   0  0  0  0  0  0  0  0  0  0  0  0
   37.4910   32.9000   49.6320 N   0  0  0  0  0  0  0  0  0  0  0  0
   37.5770   31.1380   45.0210 C   0  0  0  0  0  0  0  0  0  0  0  0
   36.3720   30.7200   45.0050 O   0  0  0  0  0  0  0  0  0  0  0  0
   37.8740   32.2810   44.3340 O   0  0  0  0  0  0  0  0  0  0  0  0
   37.0780   32.6490   43.2250 C   0  0  0  0  0  0  0  0  0  0  0  0
   37.6330   33.0970   42.2020 O   0  0  0  0  0  0  0  0  0  0  0  0
   40.3014   31.0755   47.0585 H   0  0  0  0  0  0  0  0  0  0  0  0
   38.7844   33.1858   45.6648 H   0  0  0  0  0  0  0  0  0  0  0  0
   40.1964   33.3396   46.8226 H   0  0  0  0  0  0  0  0  0  0  0  0
   40.7180   33.5375   44.3841 H   0  0  0  0  0  0  0  0  0  0  0  0
   41.6458   32.3119   45.3651 H   0  0  0  0  0  0  0  0  0  0  0  0
   41.2024   31.2537   43.4015 H   0  0  0  0  0  0  0  0  0  0  0  0
   39.4858   31.9293   43.3703 H   0  0  0  0  0  0  0  0  0  0  0  0
   39.2892   29.6886   43.7867 H   0  0  0  0  0  0  0  0  0  0  0  0
   40.6215   29.7481   45.0330 H   0  0  0  0  0  0  0  0  0  0  0  0
   38.4402   29.6318   46.2473 H   0  0  0  0  0  0  0  0  0  0  0  0
   38.8058   33.7439   48.2425 H   0  0  0  0  0  0  0  0  0  0  0  0
   37.9990   29.5301   47.7585 H   0  0  0  0  0  0  0  0  0  0  0  0
   36.1839   31.8047   50.9171 H   0  0  0  0  0  0  0  0  0  0  0  0
   35.9839   32.5416   43.2640 H   0  0  0  0  0  0  0  0  0  0  0  0
  1  8  1  0
  2  1  1  0
  3  2  1  0
  4  5  1  0
  4  3  1  0
  5  6  1  0
  6  1  1  0
  7 12  2  0
  8  9  2  0
  8  7  1  0
  9 10  1  0
 10 11  2  0
 12 11  1  0
 13  6  1  0
 14 13  2  0
 15 13  1  0
 16 15  1  0
 17 16  2  0
  1 18  1  1
  2 19  1  0
  2 20  1  0
  3 21  1  0
  3 22  1  0
  4 23  1  0
  4 24  1  0
  5 25  1  0
  5 26  1  0
  6 27  1  1
  7 28  1  0
  9 29  1  0
 11 30  1  0
 16 31  1  0
M  ISO  8  18  13  19  13  20  13  21  13  22  13  23  13  24  13  25  13
M  ISO  6  26  13  27  13  28  14  29  14  30  14  31   6
M  END
>  <minimizedAffinity>  (1) 
-4.95777416

>  <minimizedRMSD>  (1) 
0.772908211

$$$$
