
     RDKit          3D

 22 22  0  0  0  0  0  0  0  0999 V2000
   37.8170   32.6130   49.5450 C   0  0  0  0  0  0  0  0  0  0  0  0
   38.6030   32.8310   48.3920 C   0  0  0  0  0  0  0  0  0  0  0  0
   38.3440   32.0480   47.2540 C   0  0  0  0  0  0  0  0  0  0  0  0
   37.3390   31.1200   47.3380 N   0  0  0  0  0  0  0  0  0  0  0  0
   36.6140   30.9450   48.4540 C   0  0  0  0  0  0  0  0  0  0  0  0
   36.8410   31.6800   49.5560 N   0  0  0  0  0  0  0  0  0  0  0  0
   39.0920   32.1780   45.9930 C   0  0  0  0  0  0  0  0  0  0  0  0
   39.7690   30.8320   45.7420 C   0  0  0  0  0  0  0  0  0  0  0  0
   40.1080   33.2620   45.9740 C   0  0  0  0  0  0  0  0  0  0  0  0
   38.0930   32.4140   44.8830 C   0  0  0  0  0  0  0  0  0  0  0  0
   38.0029   33.2127   50.4482 H   0  0  0  0  0  0  0  0  0  0  0  0
   39.3963   33.5929   48.3849 H   0  0  0  0  0  0  0  0  0  0  0  0
   35.8186   30.1853   48.4668 H   0  0  0  0  0  0  0  0  0  0  0  0
   40.0081   30.3566   46.7047 H   0  0  0  0  0  0  0  0  0  0  0  0
   39.0909   30.1814   45.1702 H   0  0  0  0  0  0  0  0  0  0  0  0
   40.6956   30.9886   45.1702 H   0  0  0  0  0  0  0  0  0  0  0  0
   40.3678   33.5392   47.0063 H   0  0  0  0  0  0  0  0  0  0  0  0
   41.0095   32.9105   45.4508 H   0  0  0  0  0  0  0  0  0  0  0  0
   39.6989   34.1389   45.4508 H   0  0  0  0  0  0  0  0  0  0  0  0
   37.1097   32.6463   45.3179 H   0  0  0  0  0  0  0  0  0  0  0  0
   38.4277   33.2578   44.2617 H   0  0  0  0  0  0  0  0  0  0  0  0
   38.0147   31.5096   44.2617 H   0  0  0  0  0  0  0  0  0  0  0  0
  1  6  2  0
  2  1  1  0
  3  4  1  0
  3  2  2  0
  4  5  2  0
  5  6  1  0
  7  3  1  0
  8  7  1  0
  9  7  1  0
 10  7  1  0
  1 11  1  0
  2 12  1  0
  5 13  1  0
  8 14  1  0
  8 15  1  0
  8 16  1  0
  9 17  1  0
  9 18  1  0
  9 19  1  0
 10 20  1  0
 10 21  1  0
 10 22  1  0
M  ISO  8  11  14  12  14  13  14  14   8  15   8  16   8  17   8  18   8
M  ISO  4  19   8  20   8  21   8  22   8
M  END
>  <minimizedAffinity>  (1) 
-3.94306803

>  <minimizedRMSD>  (1) 
2.53386784

$$$$
