
     RDKit          3D

 43 46  0  0  1  0  0  0  0  0999 V2000
   39.3360   31.0190   46.5390 C   0  0  2  0  0  0  0  0  0  0  0  0
   40.1340   32.1260   46.0530 C   0  0  0  0  0  0  0  0  0  0  0  0
   41.0600   31.7800   44.9360 C   0  0  0  0  0  0  0  0  0  0  0  0
   40.4410   30.9630   43.8770 C   0  0  0  0  0  0  0  0  0  0  0  0
   39.5240   29.9270   44.3440 C   0  0  0  0  0  0  0  0  0  0  0  0
   38.5260   30.4400   45.4450 C   0  0  2  0  0  0  0  0  0  0  0  0
   38.4830   32.6180   48.3670 C   0  0  0  0  0  0  0  0  0  0  0  0
   38.4890   31.3530   47.6810 C   0  0  0  0  0  0  0  0  0  0  0  0
   37.6470   30.3790   48.0900 C   0  0  0  0  0  0  0  0  0  0  0  0
   36.8200   30.6550   49.1540 N   0  0  0  0  0  0  0  0  0  0  0  0
   36.8370   31.8770   49.7930 C   0  0  0  0  0  0  0  0  0  0  0  0
   37.6860   32.8650   49.3840 N   0  0  0  0  0  0  0  0  0  0  0  0
   37.6720   31.4040   44.7610 C   0  0  0  0  0  0  0  0  0  0  0  0
   37.5800   32.6560   45.0280 O   0  0  0  0  0  0  0  0  0  0  0  0
   36.9230   30.8790   43.7640 O   0  0  0  0  0  0  0  0  0  0  0  0
   35.8100   31.6190   43.2840 C   0  0  0  0  0  0  0  0  0  0  0  0
   34.4890   31.1650   43.4310 C   0  0  0  0  0  0  0  0  0  0  0  0
   33.7250   32.1420   42.8470 C   0  0  0  0  0  0  0  0  0  0  0  0
   34.5280   33.1390   42.3700 N   0  0  0  0  0  0  0  0  0  0  0  0
   35.7720   32.7900   42.6500 N   0  0  0  0  0  0  0  0  0  0  0  0
   34.1010   34.3210   41.7010 C   0  0  0  0  0  0  0  0  0  0  0  0
   34.7690   34.9970   40.7000 C   0  0  0  0  0  0  0  0  0  0  0  0
   33.9380   36.0600   40.4000 C   0  0  0  0  0  0  0  0  0  0  0  0
   32.8350   36.0340   41.1710 N   0  0  0  0  0  0  0  0  0  0  0  0
   32.9500   34.9740   41.9530 N   0  0  0  0  0  0  0  0  0  0  0  0
   40.0541   30.2700   46.9041 H   0  0  0  0  0  0  0  0  0  0  0  0
   39.4508   32.9131   45.7011 H   0  0  0  0  0  0  0  0  0  0  0  0
   40.7660   32.4478   46.8938 H   0  0  0  0  0  0  0  0  0  0  0  0
   41.4223   32.7153   44.4844 H   0  0  0  0  0  0  0  0  0  0  0  0
   41.8718   31.1777   45.3698 H   0  0  0  0  0  0  0  0  0  0  0  0
   41.2469   30.4734   43.3107 H   0  0  0  0  0  0  0  0  0  0  0  0
   39.8359   31.6553   43.2732 H   0  0  0  0  0  0  0  0  0  0  0  0
   38.9412   29.5620   43.4855 H   0  0  0  0  0  0  0  0  0  0  0  0
   40.1318   29.1298   44.7969 H   0  0  0  0  0  0  0  0  0  0  0  0
   37.8909   29.6671   45.9025 H   0  0  0  0  0  0  0  0  0  0  0  0
   39.1701   33.4075   48.0285 H   0  0  0  0  0  0  0  0  0  0  0  0
   37.6235   29.3996   47.5898 H   0  0  0  0  0  0  0  0  0  0  0  0
   36.1597   32.0575   50.6408 H   0  0  0  0  0  0  0  0  0  0  0  0
   34.1450   30.2351   43.9074 H   0  0  0  0  0  0  0  0  0  0  0  0
   32.6276   32.1256   42.7734 H   0  0  0  0  0  0  0  0  0  0  0  0
   35.7392   34.7473   40.2457 H   0  0  0  0  0  0  0  0  0  0  0  0
   34.1491   36.8226   39.6359 H   0  0  0  0  0  0  0  0  0  0  0  0
   32.0554   36.7069   41.1550 H   0  0  0  0  0  0  0  0  0  0  0  0
  1  8  1  0
  2  1  1  0
  3  2  1  0
  4  5  1  0
  4  3  1  0
  5  6  1  0
  6  1  1  0
  7 12  2  0
  8  9  2  0
  8  7  1  0
  9 10  1  0
 10 11  2  0
 12 11  1  0
 13 14  2  0
 13  6  1  0
 15 13  1  0
 16 17  1  0
 16 15  1  0
 18 17  2  0
 19 20  1  0
 19 18  1  0
 20 16  2  0
 21 25  2  0
 21 19  1  0
 22 21  1  0
 23 22  2  0
 23 24  1  0
 24 25  1  0
  1 26  1  1
  2 27  1  0
  2 28  1  0
  3 29  1  0
  3 30  1  0
  4 31  1  0
  4 32  1  0
  5 33  1  0
  5 34  1  0
  6 35  1  1
  7 36  1  0
  9 37  1  0
 11 38  1  0
 17 39  1  0
 18 40  1  0
 22 41  1  0
 23 42  1  0
 24 43  1  0
M  ISO  8  26  13  27  13  28  13  29  13  30  13  31  13  32  13  33  13
M  ISO  8  34  13  35  13  36  14  37  14  38  14  39  14  40  14  41  14
M  ISO  2  42  14  43   9
M  END
>  <minimizedAffinity>  (1) 
-5.69255829

>  <minimizedRMSD>  (1) 
1.58114696

$$$$
