
     RDKit          3D

 49 52  0  0  1  0  0  0  0  0999 V2000
   39.2610   30.8340   46.3430 C   0  0  2  0  0  0  0  0  0  0  0  0
   40.1940   31.8110   45.8250 C   0  0  0  0  0  0  0  0  0  0  0  0
   41.0210   31.3260   44.6810 C   0  0  0  0  0  0  0  0  0  0  0  0
   40.2450   30.6260   43.6390 C   0  0  0  0  0  0  0  0  0  0  0  0
   39.2110   29.7290   44.1470 C   0  0  0  0  0  0  0  0  0  0  0  0
   38.3360   30.3760   45.2830 C   0  0  2  0  0  0  0  0  0  0  0  0
   38.6780   32.5570   48.1620 C   0  0  0  0  0  0  0  0  0  0  0  0
   38.5140   31.2820   47.5150 C   0  0  0  0  0  0  0  0  0  0  0  0
   37.5970   30.4140   47.9960 C   0  0  0  0  0  0  0  0  0  0  0  0
   36.8610   30.8010   49.0910 N   0  0  0  0  0  0  0  0  0  0  0  0
   37.0390   32.0310   49.6900 C   0  0  0  0  0  0  0  0  0  0  0  0
   37.9650   32.9120   49.2100 N   0  0  0  0  0  0  0  0  0  0  0  0
   37.6070   31.4570   44.6290 C   0  0  0  0  0  0  0  0  0  0  0  0
   37.6520   32.6990   44.9410 O   0  0  0  0  0  0  0  0  0  0  0  0
   36.8190   31.0600   43.6040 O   0  0  0  0  0  0  0  0  0  0  0  0
   35.9420   32.0060   43.0060 C   0  0  0  0  0  0  0  0  0  0  0  0
   34.5450   31.8710   43.0650 C   0  0  0  0  0  0  0  0  0  0  0  0
   34.0720   32.9630   42.3840 C   0  0  0  0  0  0  0  0  0  0  0  0
   35.1150   33.7230   41.9350 N   0  0  0  0  0  0  0  0  0  0  0  0
   36.2240   33.1160   42.3270 N   0  0  0  0  0  0  0  0  0  0  0  0
   35.0840   34.9420   41.1830 C   0  0  0  0  0  0  0  0  0  0  0  0
   34.4220   34.8040   39.8450 C   0  0  0  0  0  0  0  0  0  0  0  0
   33.9210   36.1780   39.4810 C   0  0  0  0  0  0  0  0  0  0  0  0
   33.7780   36.9320   40.7800 C   0  0  0  0  0  0  0  0  0  0  0  0
   34.3540   36.0490   41.8710 C   0  0  0  0  0  0  0  0  0  0  0  0
   39.8784   29.9900   46.6842 H   0  0  0  0  0  0  0  0  0  0  0  0
   39.6223   32.6886   45.4888 H   0  0  0  0  0  0  0  0  0  0  0  0
   40.8928   32.0427   46.6423 H   0  0  0  0  0  0  0  0  0  0  0  0
   41.5175   32.1927   44.2201 H   0  0  0  0  0  0  0  0  0  0  0  0
   41.7374   30.5982   45.0898 H   0  0  0  0  0  0  0  0  0  0  0  0
   40.9444   30.0332   43.0312 H   0  0  0  0  0  0  0  0  0  0  0  0
   39.7244   31.4055   43.0633 H   0  0  0  0  0  0  0  0  0  0  0  0
   38.5505   29.4485   43.3133 H   0  0  0  0  0  0  0  0  0  0  0  0
   39.7192   28.8557   44.5818 H   0  0  0  0  0  0  0  0  0  0  0  0
   37.6144   29.6991   45.7637 H   0  0  0  0  0  0  0  0  0  0  0  0
   39.4259   33.2600   47.7666 H   0  0  0  0  0  0  0  0  0  0  0  0
   37.4444   29.4307   47.5272 H   0  0  0  0  0  0  0  0  0  0  0  0
   36.4286   32.3047   50.5632 H   0  0  0  0  0  0  0  0  0  0  0  0
   33.9633   31.0717   43.5474 H   0  0  0  0  0  0  0  0  0  0  0  0
   33.0086   33.1935   42.2227 H   0  0  0  0  0  0  0  0  0  0  0  0
   36.1525   35.1794   41.0737 H   0  0  0  0  0  0  0  0  0  0  0  0
   35.1460   34.4511   39.0958 H   0  0  0  0  0  0  0  0  0  0  0  0
   33.6007   34.0730   39.8773 H   0  0  0  0  0  0  0  0  0  0  0  0
   34.6424   36.6850   38.8233 H   0  0  0  0  0  0  0  0  0  0  0  0
   32.9643   36.1256   38.9407 H   0  0  0  0  0  0  0  0  0  0  0  0
   34.3329   37.8805   40.7293 H   0  0  0  0  0  0  0  0  0  0  0  0
   32.7230   37.1686   40.9825 H   0  0  0  0  0  0  0  0  0  0  0  0
   33.5455   35.6403   42.4949 H   0  0  0  0  0  0  0  0  0  0  0  0
   35.0265   36.6190   42.5289 H   0  0  0  0  0  0  0  0  0  0  0  0
  1  8  1  0
  2  1  1  0
  3  2  1  0
  4  5  1  0
  4  3  1  0
  5  6  1  0
  6  1  1  0
  7 12  2  0
  8  9  2  0
  8  7  1  0
  9 10  1  0
 10 11  2  0
 12 11  1  0
 13 14  2  0
 13  6  1  0
 15 13  1  0
 16 17  1  0
 16 15  1  0
 18 17  2  0
 19 20  1  0
 19 18  1  0
 20 16  2  0
 21 25  1  0
 21 19  1  0
 22 21  1  0
 23 22  1  0
 23 24  1  0
 24 25  1  0
  1 26  1  1
  2 27  1  0
  2 28  1  0
  3 29  1  0
  3 30  1  0
  4 31  1  0
  4 32  1  0
  5 33  1  0
  5 34  1  0
  6 35  1  1
  7 36  1  0
  9 37  1  0
 11 38  1  0
 17 39  1  0
 18 40  1  0
 21 41  1  0
 22 42  1  0
 22 43  1  0
 23 44  1  0
 23 45  1  0
 24 46  1  0
 24 47  1  0
 25 48  1  0
 25 49  1  0
M  ISO  8  26  13  27  13  28  13  29  13  30  13  31  13  32  13  33  13
M  ISO  8  34  13  35  13  36  14  37  14  38  14  39  14  40  14  41  13
M  ISO  8  42  13  43  13  44  13  45  13  46  13  47  13  48  13  49  13
M  END
>  <minimizedAffinity>  (1) 
-5.58750343

>  <minimizedRMSD>  (1) 
0.974949121

$$$$
