
     RDKit          3D

 46 49  0  0  1  0  0  0  0  0999 V2000
   39.2750   30.8490   46.3460 C   0  0  2  0  0  0  0  0  0  0  0  0
   40.1720   31.8450   45.8020 C   0  0  0  0  0  0  0  0  0  0  0  0
   41.0020   31.3730   44.6540 C   0  0  0  0  0  0  0  0  0  0  0  0
   40.2450   30.6170   43.6410 C   0  0  0  0  0  0  0  0  0  0  0  0
   39.2380   29.7010   44.1710 C   0  0  0  0  0  0  0  0  0  0  0  0
   38.3560   30.3450   45.3010 C   0  0  2  0  0  0  0  0  0  0  0  0
   38.6670   32.5790   48.1520 C   0  0  0  0  0  0  0  0  0  0  0  0
   38.5230   31.2970   47.5160 C   0  0  0  0  0  0  0  0  0  0  0  0
   37.6200   30.4170   48.0050 C   0  0  0  0  0  0  0  0  0  0  0  0
   36.8800   30.8020   49.0970 N   0  0  0  0  0  0  0  0  0  0  0  0
   37.0390   32.0380   49.6880 C   0  0  0  0  0  0  0  0  0  0  0  0
   37.9520   32.9320   49.1960 N   0  0  0  0  0  0  0  0  0  0  0  0
   37.5890   31.3900   44.6340 C   0  0  0  0  0  0  0  0  0  0  0  0
   37.5670   32.6330   44.9500 O   0  0  0  0  0  0  0  0  0  0  0  0
   36.8430   30.9530   43.5920 O   0  0  0  0  0  0  0  0  0  0  0  0
   35.8480   31.8130   43.0580 C   0  0  0  0  0  0  0  0  0  0  0  0
   34.4780   31.5810   43.2630 C   0  0  0  0  0  0  0  0  0  0  0  0
   33.8520   32.6090   42.6040 C   0  0  0  0  0  0  0  0  0  0  0  0
   34.7870   33.4230   42.0280 N   0  0  0  0  0  0  0  0  0  0  0  0
   35.9680   32.9130   42.3230 N   0  0  0  0  0  0  0  0  0  0  0  0
   34.5020   34.5890   41.2650 C   0  0  0  0  0  0  0  0  0  0  0  0
   34.1490   35.7990   41.8210 C   0  0  0  0  0  0  0  0  0  0  0  0
   33.8860   36.8920   41.0130 C   0  0  0  0  0  0  0  0  0  0  0  0
   33.9650   36.8150   39.6220 C   0  0  0  0  0  0  0  0  0  0  0  0
   34.3270   35.5680   39.0980 C   0  0  0  0  0  0  0  0  0  0  0  0
   34.5930   34.4700   39.8930 C   0  0  0  0  0  0  0  0  0  0  0  0
   39.9198   30.0302   46.6980 H   0  0  0  0  0  0  0  0  0  0  0  0
   39.5695   32.6999   45.4612 H   0  0  0  0  0  0  0  0  0  0  0  0
   40.8739   32.1059   46.6078 H   0  0  0  0  0  0  0  0  0  0  0  0
   41.4508   32.2513   44.1669 H   0  0  0  0  0  0  0  0  0  0  0  0
   41.7566   30.6871   45.0663 H   0  0  0  0  0  0  0  0  0  0  0  0
   40.9620   30.0288   43.0495 H   0  0  0  0  0  0  0  0  0  0  0  0
   39.6959   31.3648   43.0500 H   0  0  0  0  0  0  0  0  0  0  0  0
   38.5793   29.3894   43.3470 H   0  0  0  0  0  0  0  0  0  0  0  0
   39.7710   28.8477   44.6158 H   0  0  0  0  0  0  0  0  0  0  0  0
   37.6587   29.6568   45.8011 H   0  0  0  0  0  0  0  0  0  0  0  0
   39.4031   33.2903   47.7493 H   0  0  0  0  0  0  0  0  0  0  0  0
   37.4827   29.4275   47.5446 H   0  0  0  0  0  0  0  0  0  0  0  0
   36.4274   32.3077   50.5616 H   0  0  0  0  0  0  0  0  0  0  0  0
   34.0113   30.7592   43.8259 H   0  0  0  0  0  0  0  0  0  0  0  0
   32.7633   32.7557   42.5478 H   0  0  0  0  0  0  0  0  0  0  0  0
   34.0756   35.8974   42.9141 H   0  0  0  0  0  0  0  0  0  0  0  0
   33.6070   37.8478   41.4806 H   0  0  0  0  0  0  0  0  0  0  0  0
   33.7557   37.6809   38.9766 H   0  0  0  0  0  0  0  0  0  0  0  0
   34.4029   35.4579   38.0062 H   0  0  0  0  0  0  0  0  0  0  0  0
   34.8748   33.5096   39.4367 H   0  0  0  0  0  0  0  0  0  0  0  0
  1  8  1  0
  2  1  1  0
  3  2  1  0
  4  5  1  0
  4  3  1  0
  5  6  1  0
  6  1  1  0
  7 12  2  0
  8  9  2  0
  8  7  1  0
  9 10  1  0
 10 11  2  0
 12 11  1  0
 13 14  2  0
 13  6  1  0
 15 13  1  0
 16 17  1  0
 16 15  1  0
 18 17  2  0
 19 20  1  0
 19 18  1  0
 20 16  2  0
 21 22  2  0
 21 19  1  0
 23 22  1  0
 24 23  2  0
 25 24  1  0
 25 26  2  0
 26 21  1  0
  1 27  1  1
  2 28  1  0
  2 29  1  0
  3 30  1  0
  3 31  1  0
  4 32  1  0
  4 33  1  0
  5 34  1  0
  5 35  1  0
  6 36  1  1
  7 37  1  0
  9 38  1  0
 11 39  1  0
 17 40  1  0
 18 41  1  0
 22 42  1  0
 23 43  1  0
 24 44  1  0
 25 45  1  0
 26 46  1  0
M  ISO  8  27  13  28  13  29  13  30  13  31  13  32  13  33  13  34  13
M  ISO  8  35  13  36  13  37  14  38  14  39  14  40  14  41  14  42  14
M  ISO  4  43  14  44  14  45  14  46  14
M  END
>  <minimizedAffinity>  (1) 
-5.56810665

>  <minimizedRMSD>  (1) 
1.31614804

$$$$
