
     RDKit          3D

 44 47  0  0  1  0  0  0  0  0999 V2000
   39.3250   31.0350   46.5380 C   0  0  2  0  0  0  0  0  0  0  0  0
   40.1160   32.1470   46.0580 C   0  0  0  0  0  0  0  0  0  0  0  0
   41.0460   31.8070   44.9420 C   0  0  0  0  0  0  0  0  0  0  0  0
   40.4220   31.0000   43.8730 C   0  0  0  0  0  0  0  0  0  0  0  0
   39.5180   29.9520   44.3390 C   0  0  0  0  0  0  0  0  0  0  0  0
   38.5190   30.4520   45.4430 C   0  0  2  0  0  0  0  0  0  0  0  0
   38.4660   32.6130   48.3790 C   0  0  0  0  0  0  0  0  0  0  0  0
   38.4790   31.3520   47.6860 C   0  0  0  0  0  0  0  0  0  0  0  0
   37.6470   30.3680   48.0900 C   0  0  0  0  0  0  0  0  0  0  0  0
   36.8200   30.6300   49.1590 N   0  0  0  0  0  0  0  0  0  0  0  0
   36.8290   31.8470   49.8050 C   0  0  0  0  0  0  0  0  0  0  0  0
   37.6720   32.8510   49.3990 N   0  0  0  0  0  0  0  0  0  0  0  0
   37.6560   31.4150   44.7700 C   0  0  0  0  0  0  0  0  0  0  0  0
   37.5650   32.6660   45.0350 O   0  0  0  0  0  0  0  0  0  0  0  0
   36.8940   30.8860   43.7820 O   0  0  0  0  0  0  0  0  0  0  0  0
   35.9100   31.7060   43.1660 C   0  0  0  0  0  0  0  0  0  0  0  0
   34.5430   31.4200   43.2750 C   0  0  0  0  0  0  0  0  0  0  0  0
   33.9250   32.4250   42.5580 C   0  0  0  0  0  0  0  0  0  0  0  0
   34.8700   33.2680   42.0470 N   0  0  0  0  0  0  0  0  0  0  0  0
   36.0430   32.8040   42.4330 N   0  0  0  0  0  0  0  0  0  0  0  0
   34.6010   34.4160   41.2530 C   0  0  0  0  0  0  0  0  0  0  0  0
   34.7000   34.3590   39.8790 C   0  0  0  0  0  0  0  0  0  0  0  0
   34.4120   35.5500   39.2060 C   0  0  0  0  0  0  0  0  0  0  0  0
   34.0620   36.6870   39.8310 N   0  0  0  0  0  0  0  0  0  0  0  0
   33.9770   36.7020   41.1810 C   0  0  0  0  0  0  0  0  0  0  0  0
   34.2480   35.5650   41.8780 N   0  0  0  0  0  0  0  0  0  0  0  0
   40.0508   30.2909   46.8979 H   0  0  0  0  0  0  0  0  0  0  0  0
   39.4292   32.9310   45.7064 H   0  0  0  0  0  0  0  0  0  0  0  0
   40.7436   32.4721   46.9009 H   0  0  0  0  0  0  0  0  0  0  0  0
   41.4144   32.7442   44.4993 H   0  0  0  0  0  0  0  0  0  0  0  0
   41.8555   31.1991   45.3724 H   0  0  0  0  0  0  0  0  0  0  0  0
   41.2254   30.5240   43.2916 H   0  0  0  0  0  0  0  0  0  0  0  0
   39.8080   31.6951   43.2816 H   0  0  0  0  0  0  0  0  0  0  0  0
   38.9368   29.5829   43.4811 H   0  0  0  0  0  0  0  0  0  0  0  0
   40.1351   29.1594   44.7872 H   0  0  0  0  0  0  0  0  0  0  0  0
   37.8925   29.6686   45.8945 H   0  0  0  0  0  0  0  0  0  0  0  0
   39.1469   33.4085   48.0421 H   0  0  0  0  0  0  0  0  0  0  0  0
   37.6307   29.3919   47.5830 H   0  0  0  0  0  0  0  0  0  0  0  0
   36.1527   32.0158   50.6560 H   0  0  0  0  0  0  0  0  0  0  0  0
   34.0693   30.5841   43.8105 H   0  0  0  0  0  0  0  0  0  0  0  0
   32.8388   32.5304   42.4197 H   0  0  0  0  0  0  0  0  0  0  0  0
   34.9862   33.4389   39.3484 H   0  0  0  0  0  0  0  0  0  0  0  0
   34.4752   35.5568   38.1078 H   0  0  0  0  0  0  0  0  0  0  0  0
   33.6919   37.6235   41.7098 H   0  0  0  0  0  0  0  0  0  0  0  0
  1  8  1  0
  2  1  1  0
  3  2  1  0
  4  5  1  0
  4  3  1  0
  5  6  1  0
  6  1  1  0
  7 12  2  0
  8  9  2  0
  8  7  1  0
  9 10  1  0
 10 11  2  0
 12 11  1  0
 13 14  2  0
 13  6  1  0
 15 13  1  0
 16 17  1  0
 16 15  1  0
 18 17  2  0
 19 20  1  0
 19 18  1  0
 20 16  2  0
 21 26  1  0
 21 19  1  0
 22 21  2  0
 23 24  2  0
 23 22  1  0
 24 25  1  0
 25 26  2  0
  1 27  1  1
  2 28  1  0
  2 29  1  0
  3 30  1  0
  3 31  1  0
  4 32  1  0
  4 33  1  0
  5 34  1  0
  5 35  1  0
  6 36  1  1
  7 37  1  0
  9 38  1  0
 11 39  1  0
 17 40  1  0
 18 41  1  0
 22 42  1  0
 23 43  1  0
 25 44  1  0
M  ISO  8  27  13  28  13  29  13  30  13  31  13  32  13  33  13  34  13
M  ISO  8  35  13  36  13  37  14  38  14  39  14  40  14  41  14  42  14
M  ISO  2  43  14  44  14
M  END
>  <minimizedAffinity>  (1) 
-5.55203581

>  <minimizedRMSD>  (1) 
1.29038322

$$$$
