
     RDKit          3D

 45 48  0  0  1  0  0  0  0  0999 V2000
   39.1200   30.7830   46.4270 C   0  0  2  0  0  0  0  0  0  0  0  0
   40.1770   31.6720   46.0020 C   0  0  0  0  0  0  0  0  0  0  0  0
   40.9800   31.1750   44.8450 C   0  0  0  0  0  0  0  0  0  0  0  0
   40.1650   30.6250   43.7460 C   0  0  0  0  0  0  0  0  0  0  0  0
   39.0150   29.8290   44.1640 C   0  0  0  0  0  0  0  0  0  0  0  0
   38.1840   30.5070   45.3160 C   0  0  2  0  0  0  0  0  0  0  0  0
   38.6150   32.4970   48.2790 C   0  0  0  0  0  0  0  0  0  0  0  0
   38.3910   31.2440   47.6080 C   0  0  0  0  0  0  0  0  0  0  0  0
   37.4330   30.4130   48.0700 C   0  0  0  0  0  0  0  0  0  0  0  0
   36.7150   30.8170   49.1700 N   0  0  0  0  0  0  0  0  0  0  0  0
   36.9490   32.0230   49.7950 C   0  0  0  0  0  0  0  0  0  0  0  0
   37.9200   32.8690   49.3300 N   0  0  0  0  0  0  0  0  0  0  0  0
   37.6110   31.7060   44.7160 C   0  0  0  0  0  0  0  0  0  0  0  0
   37.9770   32.9150   44.9340 O   0  0  0  0  0  0  0  0  0  0  0  0
   36.5910   31.4630   43.8590 O   0  0  0  0  0  0  0  0  0  0  0  0
   36.3960   32.3460   42.7640 C   0  0  0  0  0  0  0  0  0  0  0  0
   35.2380   33.1300   42.6390 C   0  0  0  0  0  0  0  0  0  0  0  0
   35.4250   33.8320   41.4750 C   0  0  0  0  0  0  0  0  0  0  0  0
   36.6270   33.4990   40.9200 N   0  0  0  0  0  0  0  0  0  0  0  0
   37.1770   32.6060   41.7240 N   0  0  0  0  0  0  0  0  0  0  0  0
   37.2660   33.9500   39.7270 C   0  0  0  0  0  0  0  0  0  0  0  0
   38.5750   33.5940   39.4740 C   0  0  0  0  0  0  0  0  0  0  0  0
   39.1660   34.0560   38.2940 C   0  0  0  0  0  0  0  0  0  0  0  0
   38.4220   34.8500   37.4250 C   0  0  0  0  0  0  0  0  0  0  0  0
   37.0990   35.1910   37.7120 C   0  0  0  0  0  0  0  0  0  0  0  0
   36.5880   34.7130   38.8650 N   0  0  0  0  0  0  0  0  0  0  0  0
   39.6215   29.8505   46.7252 H   0  0  0  0  0  0  0  0  0  0  0  0
   39.7234   32.6328   45.7173 H   0  0  0  0  0  0  0  0  0  0  0  0
   40.8722   31.7574   46.8501 H   0  0  0  0  0  0  0  0  0  0  0  0
   41.5742   32.0123   44.4503 H   0  0  0  0  0  0  0  0  0  0  0  0
   41.6072   30.3530   45.2205 H   0  0  0  0  0  0  0  0  0  0  0  0
   40.8136   29.9874   43.1274 H   0  0  0  0  0  0  0  0  0  0  0  0
   39.7565   31.4915   43.2053 H   0  0  0  0  0  0  0  0  0  0  0  0
   38.3558   29.6826   43.2957 H   0  0  0  0  0  0  0  0  0  0  0  0
   39.3993   28.8747   44.5533 H   0  0  0  0  0  0  0  0  0  0  0  0
   37.3703   29.8944   45.7314 H   0  0  0  0  0  0  0  0  0  0  0  0
   39.3979   33.1689   47.8975 H   0  0  0  0  0  0  0  0  0  0  0  0
   37.2340   29.4468   47.5834 H   0  0  0  0  0  0  0  0  0  0  0  0
   36.3515   32.3078   50.6735 H   0  0  0  0  0  0  0  0  0  0  0  0
   34.3755   33.1720   43.3204 H   0  0  0  0  0  0  0  0  0  0  0  0
   34.7125   34.5554   41.0520 H   0  0  0  0  0  0  0  0  0  0  0  0
   39.1371   32.9651   40.1800 H   0  0  0  0  0  0  0  0  0  0  0  0
   40.2075   33.7950   38.0547 H   0  0  0  0  0  0  0  0  0  0  0  0
   38.8848   35.2149   36.4962 H   0  0  0  0  0  0  0  0  0  0  0  0
   36.5034   35.8179   37.0321 H   0  0  0  0  0  0  0  0  0  0  0  0
  1  8  1  0
  2  1  1  0
  3  2  1  0
  4  5  1  0
  4  3  1  0
  5  6  1  0
  6  1  1  0
  7 12  2  0
  8  9  2  0
  8  7  1  0
  9 10  1  0
 10 11  2  0
 12 11  1  0
 13 14  2  0
 13  6  1  0
 15 13  1  0
 16 15  1  0
 17 16  1  0
 18 17  2  0
 19 18  1  0
 19 20  1  0
 20 16  2  0
 21 19  1  0
 22 21  2  0
 23 22  1  0
 24 25  1  0
 24 23  2  0
 25 26  2  0
 26 21  1  0
  1 27  1  1
  2 28  1  0
  2 29  1  0
  3 30  1  0
  3 31  1  0
  4 32  1  0
  4 33  1  0
  5 34  1  0
  5 35  1  0
  6 36  1  1
  7 37  1  0
  9 38  1  0
 11 39  1  0
 17 40  1  0
 18 41  1  0
 22 42  1  0
 23 43  1  0
 24 44  1  0
 25 45  1  0
M  ISO  8  27  13  28  13  29  13  30  13  31  13  32  13  33  13  34  13
M  ISO  8  35  13  36  13  37  14  38  14  39  14  40  14  41  14  42  14
M  ISO  3  43  14  44  14  45  14
M  END
>  <minimizedAffinity>  (1) 
-5.40522528

>  <minimizedRMSD>  (1) 
1.31030703

$$$$
