
     RDKit          3D

 39 41  0  0  1  0  0  0  0  0999 V2000
   39.2670   30.8250   46.3220 C   0  0  2  0  0  0  0  0  0  0  0  0
   40.1880   31.8080   45.7930 C   0  0  0  0  0  0  0  0  0  0  0  0
   41.0180   31.3260   44.6510 C   0  0  0  0  0  0  0  0  0  0  0  0
   40.2490   30.6020   43.6200 C   0  0  0  0  0  0  0  0  0  0  0  0
   39.2270   29.6960   44.1380 C   0  0  0  0  0  0  0  0  0  0  0  0
   38.3460   30.3480   45.2680 C   0  0  2  0  0  0  0  0  0  0  0  0
   38.6720   32.5600   48.1280 C   0  0  0  0  0  0  0  0  0  0  0  0
   38.5160   31.2790   47.4900 C   0  0  0  0  0  0  0  0  0  0  0  0
   37.6040   30.4100   47.9760 C   0  0  0  0  0  0  0  0  0  0  0  0
   36.8640   30.8030   49.0660 N   0  0  0  0  0  0  0  0  0  0  0  0
   37.0340   32.0370   49.6580 C   0  0  0  0  0  0  0  0  0  0  0  0
   37.9630   32.9260   49.1670 N   0  0  0  0  0  0  0  0  0  0  0  0
   37.6040   31.4120   44.6030 C   0  0  0  0  0  0  0  0  0  0  0  0
   37.6120   32.6540   44.9220 O   0  0  0  0  0  0  0  0  0  0  0  0
   36.8460   30.9960   43.5600 O   0  0  0  0  0  0  0  0  0  0  0  0
   35.6980   31.7540   43.2090 C   0  0  0  0  0  0  0  0  0  0  0  0
   34.3990   31.2440   43.3570 C   0  0  0  0  0  0  0  0  0  0  0  0
   33.5790   32.2580   42.9160 C   0  0  0  0  0  0  0  0  0  0  0  0
   34.3390   33.3240   42.5230 N   0  0  0  0  0  0  0  0  0  0  0  0
   35.6000   32.9840   42.7120 N   0  0  0  0  0  0  0  0  0  0  0  0
   33.7810   34.5430   42.0100 C   0  0  0  0  0  0  0  0  0  0  0  0
   32.7140   34.9890   42.8000 F   0  0  0  0  0  0  0  0  0  0  0  0
   34.6930   35.6050   42.0440 F   0  0  0  0  0  0  0  0  0  0  0  0
   33.3380   34.4560   40.7070 F   0  0  0  0  0  0  0  0  0  0  0  0
   39.8929   29.9903   46.6707 H   0  0  0  0  0  0  0  0  0  0  0  0
   39.6052   32.6763   45.4518 H   0  0  0  0  0  0  0  0  0  0  0  0
   40.8868   32.0520   46.6067 H   0  0  0  0  0  0  0  0  0  0  0  0
   41.4973   32.1963   44.1789 H   0  0  0  0  0  0  0  0  0  0  0  0
   41.7491   30.6153   45.0637 H   0  0  0  0  0  0  0  0  0  0  0  0
   40.9557   30.0117   43.0183 H   0  0  0  0  0  0  0  0  0  0  0  0
   39.7157   31.3682   43.0381 H   0  0  0  0  0  0  0  0  0  0  0  0
   38.5692   29.3978   43.3083 H   0  0  0  0  0  0  0  0  0  0  0  0
   39.7451   28.8324   44.5805 H   0  0  0  0  0  0  0  0  0  0  0  0
   37.6311   29.6704   45.7576 H   0  0  0  0  0  0  0  0  0  0  0  0
   39.4181   33.2612   47.7261 H   0  0  0  0  0  0  0  0  0  0  0  0
   37.4581   29.4217   47.5157 H   0  0  0  0  0  0  0  0  0  0  0  0
   36.4222   32.3129   50.5296 H   0  0  0  0  0  0  0  0  0  0  0  0
   34.1027   30.2561   43.7394 H   0  0  0  0  0  0  0  0  0  0  0  0
   32.4802   32.2167   42.8847 H   0  0  0  0  0  0  0  0  0  0  0  0
  1  8  1  0
  2  1  1  0
  3  2  1  0
  4  5  1  0
  4  3  1  0
  5  6  1  0
  6  1  1  0
  7 12  2  0
  8  9  2  0
  8  7  1  0
  9 10  1  0
 10 11  2  0
 12 11  1  0
 13 14  2  0
 13  6  1  0
 15 13  1  0
 16 17  1  0
 16 15  1  0
 18 17  2  0
 19 20  1  0
 19 18  1  0
 20 16  2  0
 21 23  1  0
 21 19  1  0
 21 22  1  0
 24 21  1  0
  1 25  1  1
  2 26  1  0
  2 27  1  0
  3 28  1  0
  3 29  1  0
  4 30  1  0
  4 31  1  0
  5 32  1  0
  5 33  1  0
  6 34  1  1
  7 35  1  0
  9 36  1  0
 11 37  1  0
 17 38  1  0
 18 39  1  0
M  ISO  8  25  13  26  13  27  13  28  13  29  13  30  13  31  13  32  13
M  ISO  7  33  13  34  13  35  14  36  14  37  14  38  14  39  14
M  END
>  <minimizedAffinity>  (1) 
-5.33788395

>  <minimizedRMSD>  (1) 
1.45483088

$$$$
