
     RDKit          3D

 39 41  0  0  1  0  0  0  0  0999 V2000
   39.2560   30.8680   46.3810 C   0  0  2  0  0  0  0  0  0  0  0  0
   40.1530   31.8540   45.8180 C   0  0  0  0  0  0  0  0  0  0  0  0
   40.9620   31.3680   44.6640 C   0  0  0  0  0  0  0  0  0  0  0  0
   40.1820   30.6110   43.6640 C   0  0  0  0  0  0  0  0  0  0  0  0
   39.1780   29.7060   44.2160 C   0  0  0  0  0  0  0  0  0  0  0  0
   38.3160   30.3640   45.3530 C   0  0  2  0  0  0  0  0  0  0  0  0
   38.6840   32.6160   48.1810 C   0  0  0  0  0  0  0  0  0  0  0  0
   38.5270   31.3270   47.5600 C   0  0  0  0  0  0  0  0  0  0  0  0
   37.6330   30.4540   48.0730 C   0  0  0  0  0  0  0  0  0  0  0  0
   36.9130   30.8520   49.1750 N   0  0  0  0  0  0  0  0  0  0  0  0
   37.0840   32.0940   49.7510 C   0  0  0  0  0  0  0  0  0  0  0  0
   37.9890   32.9810   49.2350 N   0  0  0  0  0  0  0  0  0  0  0  0
   37.5480   31.4110   44.6940 C   0  0  0  0  0  0  0  0  0  0  0  0
   37.6400   32.6720   44.9060 O   0  0  0  0  0  0  0  0  0  0  0  0
   36.6590   30.9610   43.7770 O   0  0  0  0  0  0  0  0  0  0  0  0
   35.9950   31.8970   42.9470 C   0  0  0  0  0  0  0  0  0  0  0  0
   34.6050   32.0550   42.9780 C   0  0  0  0  0  0  0  0  0  0  0  0
   34.3560   33.0480   42.0360 C   0  0  0  0  0  0  0  0  0  0  0  0
   35.5320   33.4530   41.4790 N   0  0  0  0  0  0  0  0  0  0  0  0
   36.4890   32.7410   42.0510 N   0  0  0  0  0  0  0  0  0  0  0  0
   35.6420   34.4750   40.4610 C   0  0  0  0  0  0  0  0  0  0  0  0
   39.9003   30.0461   46.7266 H   0  0  0  0  0  0  0  0  0  0  0  0
   39.5523   32.7111   45.4795 H   0  0  0  0  0  0  0  0  0  0  0  0
   40.8676   32.1157   46.6122 H   0  0  0  0  0  0  0  0  0  0  0  0
   41.4123   32.2389   44.1653 H   0  0  0  0  0  0  0  0  0  0  0  0
   41.7161   30.6779   45.0703 H   0  0  0  0  0  0  0  0  0  0  0  0
   40.8851   30.0145   43.0641 H   0  0  0  0  0  0  0  0  0  0  0  0
   39.6295   31.3593   43.0768 H   0  0  0  0  0  0  0  0  0  0  0  0
   38.5057   29.3914   43.4042 H   0  0  0  0  0  0  0  0  0  0  0  0
   39.7127   28.8536   44.6605 H   0  0  0  0  0  0  0  0  0  0  0  0
   37.6196   29.6838   45.8652 H   0  0  0  0  0  0  0  0  0  0  0  0
   39.4132   33.3222   47.7574 H   0  0  0  0  0  0  0  0  0  0  0  0
   37.4861   29.4601   47.6252 H   0  0  0  0  0  0  0  0  0  0  0  0
   36.4879   32.3734   50.6323 H   0  0  0  0  0  0  0  0  0  0  0  0
   33.8768   31.5177   43.6033 H   0  0  0  0  0  0  0  0  0  0  0  0
   33.3626   33.4452   41.7801 H   0  0  0  0  0  0  0  0  0  0  0  0
   35.7480   35.4596   40.9399 H   0  0  0  0  0  0  0  0  0  0  0  0
   36.5238   34.2751   39.8345 H   0  0  0  0  0  0  0  0  0  0  0  0
   34.7378   34.4674   39.8345 H   0  0  0  0  0  0  0  0  0  0  0  0
  1  8  1  0
  2  1  1  0
  3  2  1  0
  4  5  1  0
  4  3  1  0
  5  6  1  0
  6  1  1  0
  7 12  2  0
  8  9  2  0
  8  7  1  0
  9 10  1  0
 10 11  2  0
 12 11  1  0
 13 14  2  0
 13  6  1  0
 15 13  1  0
 16 17  1  0
 16 15  1  0
 18 17  2  0
 19 18  1  0
 19 20  1  0
 20 16  2  0
 21 19  1  0
  1 22  1  1
  2 23  1  0
  2 24  1  0
  3 25  1  0
  3 26  1  0
  4 27  1  0
  4 28  1  0
  5 29  1  0
  5 30  1  0
  6 31  1  1
  7 32  1  0
  9 33  1  0
 11 34  1  0
 17 35  1  0
 18 36  1  0
 21 37  1  0
 21 38  1  0
 21 39  1  0
M  ISO  8  22  13  23  13  24  13  25  13  26  13  27  13  28  13  29  13
M  ISO  8  30  13  31  13  32  14  33  14  34  14  35  14  36  14  37   8
M  ISO  2  38   8  39   8
M  END
>  <minimizedAffinity>  (1) 
-5.05677938

>  <minimizedRMSD>  (1) 
0.437451363

$$$$
