
     RDKit          3D

 27 29  0  0  0  0  0  0  0  0999 V2000
   38.2350   31.0780   48.0020 C   0  0  0  0  0  0  0  0  0  0  0  0
   38.6960   32.4140   48.1100 C   0  0  0  0  0  0  0  0  0  0  0  0
   39.5180   32.7240   46.4870 S   0  0  0  0  0  0  0  0  0  0  0  0
   39.0840   30.9590   45.9440 C   0  0  0  0  0  0  0  0  0  0  0  0
   38.5400   30.5570   46.8450 N   0  0  0  0  0  0  0  0  0  0  0  0
   39.4250   30.3890   44.6580 N   0  0  0  0  0  0  0  0  0  0  0  0
   38.8390   29.2640   44.2740 C   0  0  0  0  0  0  0  0  0  0  0  0
   39.2080   28.7600   43.0240 C   0  0  0  0  0  0  0  0  0  0  0  0
   40.1530   29.4800   42.2950 C   0  0  0  0  0  0  0  0  0  0  0  0
   40.5770   29.0220   41.0070 N   0  0  0  0  0  0  0  0  0  0  0  0
   40.7010   30.6190   42.7600 N   0  0  0  0  0  0  0  0  0  0  0  0
   40.3280   31.0900   43.9770 C   0  0  0  0  0  0  0  0  0  0  0  0
   40.8500   32.1670   44.4120 O   0  0  0  0  0  0  0  0  0  0  0  0
   37.9100   30.7790   50.4440 C   0  0  0  0  0  0  0  0  0  0  0  0
   37.5170   30.4740   49.1270 C   0  0  0  0  0  0  0  0  0  0  0  0
   36.4550   29.6050   48.9760 C   0  0  0  0  0  0  0  0  0  0  0  0
   35.8690   29.1100   50.0970 N   0  0  0  0  0  0  0  0  0  0  0  0
   36.2610   29.4160   51.3360 C   0  0  0  0  0  0  0  0  0  0  0  0
   37.2890   30.2560   51.5030 N   0  0  0  0  0  0  0  0  0  0  0  0
   38.5891   33.1034   48.9605 H   0  0  0  0  0  0  0  0  0  0  0  0
   38.0993   28.7527   44.9075 H   0  0  0  0  0  0  0  0  0  0  0  0
   38.7697   27.8310   42.6305 H   0  0  0  0  0  0  0  0  0  0  0  0
   40.1834   28.1554   40.6133 H   0  0  0  0  0  0  0  0  0  0  0  0
   41.2757   29.5590   40.4738 H   0  0  0  0  0  0  0  0  0  0  0  0
   38.7526   31.4677   50.6046 H   0  0  0  0  0  0  0  0  0  0  0  0
   36.0937   29.3215   47.9765 H   0  0  0  0  0  0  0  0  0  0  0  0
   35.7463   28.9838   52.2068 H   0  0  0  0  0  0  0  0  0  0  0  0
  1  2  2  0
  1 15  1  0
  3  2  1  0
  4  3  1  0
  4  5  2  0
  5  1  1  0
  6  4  1  0
  7  6  1  0
  8  7  2  0
  9 11  2  0
  9  8  1  0
 10  9  1  0
 11 12  1  0
 12 13  2  0
 12  6  1  0
 14 19  2  0
 15 14  1  0
 16 15  2  0
 16 17  1  0
 17 18  2  0
 18 19  1  0
  2 20  1  0
  7 21  1  0
  8 22  1  0
 10 23  1  0
 10 24  1  0
 14 25  1  0
 16 26  1  0
 18 27  1  0
M  ISO  6  20  14  21  14  22  14  25  14  26  14  27  14
M  END
>  <minimizedAffinity>  (1) 
-5.98689651

>  <minimizedRMSD>  (1) 
0.317249715

$$$$
