
     RDKit          3D

 29 32  0  0  0  0  0  0  0  0999 V2000
   38.4110   31.2880   47.8760 C   0  0  0  0  0  0  0  0  0  0  0  0
   38.9100   32.6030   48.0180 C   0  0  0  0  0  0  0  0  0  0  0  0
   39.7120   32.9600   46.3980 S   0  0  0  0  0  0  0  0  0  0  0  0
   39.2220   31.2350   45.8040 C   0  0  0  0  0  0  0  0  0  0  0  0
   38.6800   30.7840   46.6760 N   0  0  0  0  0  0  0  0  0  0  0  0
   39.5140   30.6730   44.4870 N   0  0  0  0  0  0  0  0  0  0  0  0
   40.6830   30.9170   43.8930 C   0  0  0  0  0  0  0  0  0  0  0  0
   40.6500   30.2710   42.7130 N   0  0  0  0  0  0  0  0  0  0  0  0
   39.4800   29.6500   42.5990 C   0  0  0  0  0  0  0  0  0  0  0  0
   38.8770   28.8460   41.6350 C   0  0  0  0  0  0  0  0  0  0  0  0
   37.6440   28.3510   41.8180 N   0  0  0  0  0  0  0  0  0  0  0  0
   36.9530   28.6210   42.9460 C   0  0  0  0  0  0  0  0  0  0  0  0
   37.4900   29.4020   43.9260 N   0  0  0  0  0  0  0  0  0  0  0  0
   38.7270   29.8940   43.7340 C   0  0  0  0  0  0  0  0  0  0  0  0
   38.1050   30.9120   50.2930 C   0  0  0  0  0  0  0  0  0  0  0  0
   37.6970   30.6320   48.9750 C   0  0  0  0  0  0  0  0  0  0  0  0
   36.6420   29.7410   48.7970 C   0  0  0  0  0  0  0  0  0  0  0  0
   36.0610   29.1890   49.8900 N   0  0  0  0  0  0  0  0  0  0  0  0
   36.4720   29.4750   51.1270 C   0  0  0  0  0  0  0  0  0  0  0  0
   37.4800   30.3250   51.3310 N   0  0  0  0  0  0  0  0  0  0  0  0
   39.6180   28.5740   40.4580 N   0  0  0  0  0  0  0  0  0  0  0  0
   38.8363   33.2625   48.8953 H   0  0  0  0  0  0  0  0  0  0  0  0
   41.5096   31.5253   44.2889 H   0  0  0  0  0  0  0  0  0  0  0  0
   35.9430   28.2052   43.0761 H   0  0  0  0  0  0  0  0  0  0  0  0
   38.9349   31.6107   50.4748 H   0  0  0  0  0  0  0  0  0  0  0  0
   36.2863   29.4895   47.7870 H   0  0  0  0  0  0  0  0  0  0  0  0
   35.9743   29.0048   51.9879 H   0  0  0  0  0  0  0  0  0  0  0  0
   40.5632   28.9666   40.3423 H   0  0  0  0  0  0  0  0  0  0  0  0
   39.2114   27.9838   39.7183 H   0  0  0  0  0  0  0  0  0  0  0  0
  1  2  2  0
  1 16  1  0
  3  2  1  0
  4  3  1  0
  4  5  2  0
  5  1  1  0
  6  4  1  0
  7  6  1  0
  8  7  2  0
  9  8  1  0
  9 14  2  0
 10 11  2  0
 10  9  1  0
 11 12  1  0
 12 13  2  0
 14 13  1  0
 14  6  1  0
 15 20  2  0
 16 15  1  0
 17 16  2  0
 17 18  1  0
 18 19  2  0
 19 20  1  0
 21 10  1  0
  2 22  1  0
  7 23  1  0
 12 24  1  0
 15 25  1  0
 17 26  1  0
 19 27  1  0
 21 28  1  0
 21 29  1  0
M  ISO  6  22  14  23  14  24  14  25  14  26  14  27  14
M  END
>  <minimizedAffinity>  (1) 
-5.83830976

>  <minimizedRMSD>  (1) 
0.41779691

$$$$
