
     RDKit          3D

 30 33  0  0  0  0  0  0  0  0999 V2000
   38.3860   31.1460   47.8390 C   0  0  0  0  0  0  0  0  0  0  0  0
   38.8640   32.4810   47.9420 C   0  0  0  0  0  0  0  0  0  0  0  0
   39.6200   32.7710   46.2730 S   0  0  0  0  0  0  0  0  0  0  0  0
   39.1400   31.0200   45.7570 C   0  0  0  0  0  0  0  0  0  0  0  0
   38.6290   30.6120   46.6720 N   0  0  0  0  0  0  0  0  0  0  0  0
   39.5170   30.6290   44.3870 C   0  0  0  0  0  0  0  0  0  0  0  0
   40.7000   30.7850   43.7120 C   0  0  0  0  0  0  0  0  0  0  0  0
   40.5060   30.2530   42.4970 N   0  0  0  0  0  0  0  0  0  0  0  0
   39.2500   29.7760   42.3950 C   0  0  0  0  0  0  0  0  0  0  0  0
   38.5580   29.1460   41.3770 C   0  0  0  0  0  0  0  0  0  0  0  0
   37.2450   28.7370   41.5080 C   0  0  0  0  0  0  0  0  0  0  0  0
   36.6130   28.9740   42.7110 C   0  0  0  0  0  0  0  0  0  0  0  0
   37.2770   29.6010   43.7450 C   0  0  0  0  0  0  0  0  0  0  0  0
   38.5790   30.0010   43.5990 C   0  0  0  0  0  0  0  0  0  0  0  0
   38.1240   30.8810   50.2980 C   0  0  0  0  0  0  0  0  0  0  0  0
   37.7100   30.5570   48.9940 C   0  0  0  0  0  0  0  0  0  0  0  0
   36.6400   29.6590   48.8760 C   0  0  0  0  0  0  0  0  0  0  0  0
   36.0780   29.1670   50.0150 N   0  0  0  0  0  0  0  0  0  0  0  0
   36.5000   29.5000   51.2380 C   0  0  0  0  0  0  0  0  0  0  0  0
   37.5150   30.3510   51.3680 N   0  0  0  0  0  0  0  0  0  0  0  0
   38.8012   33.1697   48.7974 H   0  0  0  0  0  0  0  0  0  0  0  0
   41.6213   31.2519   44.0905 H   0  0  0  0  0  0  0  0  0  0  0  0
   41.2141   30.2145   41.7500 H   0  0  0  0  0  0  0  0  0  0  0  0
   39.0745   28.9629   40.4232 H   0  0  0  0  0  0  0  0  0  0  0  0
   36.7204   28.2384   40.6797 H   0  0  0  0  0  0  0  0  0  0  0  0
   35.5678   28.6595   42.8474 H   0  0  0  0  0  0  0  0  0  0  0  0
   36.7555   29.7816   44.6966 H   0  0  0  0  0  0  0  0  0  0  0  0
   38.9607   31.5803   50.4424 H   0  0  0  0  0  0  0  0  0  0  0  0
   36.2632   29.3588   47.8871 H   0  0  0  0  0  0  0  0  0  0  0  0
   36.0136   29.0752   52.1285 H   0  0  0  0  0  0  0  0  0  0  0  0
  1  2  2  0
  1 16  1  0
  3  2  1  0
  4  3  1  0
  4  5  2  0
  5  1  1  0
  6  4  1  0
  7  6  2  0
  8  7  1  0
  9  8  1  0
  9 14  2  0
 10 11  2  0
 10  9  1  0
 11 12  1  0
 12 13  2  0
 14 13  1  0
 14  6  1  0
 15 20  2  0
 16 15  1  0
 17 16  2  0
 17 18  1  0
 18 19  2  0
 19 20  1  0
  2 21  1  0
  7 22  1  0
  8 23  1  0
 10 24  1  0
 11 25  1  0
 12 26  1  0
 13 27  1  0
 15 28  1  0
 17 29  1  0
 19 30  1  0
M  ISO  8  21  14  22  14  23   9  24  14  25  14  26  14  27  14  28  14
M  ISO  2  29  14  30  14
M  END
>  <minimizedAffinity>  (1) 
-5.59072018

>  <minimizedRMSD>  (1) 
0.422886968

$$$$
