
     RDKit          3D

 31 33  0  0  0  0  0  0  0  0999 V2000
   38.4120   31.1910   47.8310 C   0  0  0  0  0  0  0  0  0  0  0  0
   38.8820   32.5360   47.9410 C   0  0  0  0  0  0  0  0  0  0  0  0
   39.6810   32.8430   46.3030 S   0  0  0  0  0  0  0  0  0  0  0  0
   39.2330   31.0970   45.7660 C   0  0  0  0  0  0  0  0  0  0  0  0
   38.6990   30.6720   46.6590 N   0  0  0  0  0  0  0  0  0  0  0  0
   39.5580   30.5340   44.4640 N   0  0  0  0  0  0  0  0  0  0  0  0
   40.4830   31.0520   43.5260 C   0  0  0  0  0  0  0  0  0  0  0  0
   39.9360   31.1680   42.1220 C   0  0  0  0  0  0  0  0  0  0  0  0
   39.0840   30.0110   41.7010 C   0  0  0  0  0  0  0  0  0  0  0  0
   38.0970   29.7130   42.7960 C   0  0  0  0  0  0  0  0  0  0  0  0
   38.8980   29.3210   44.0290 C   0  0  0  0  0  0  0  0  0  0  0  0
   38.1230   30.8870   50.2660 C   0  0  0  0  0  0  0  0  0  0  0  0
   37.7070   30.5710   48.9590 C   0  0  0  0  0  0  0  0  0  0  0  0
   36.6540   29.6910   48.8110 C   0  0  0  0  0  0  0  0  0  0  0  0
   36.0780   29.1790   49.9380 N   0  0  0  0  0  0  0  0  0  0  0  0
   36.4890   29.4940   51.1700 C   0  0  0  0  0  0  0  0  0  0  0  0
   37.5030   30.3410   51.3210 N   0  0  0  0  0  0  0  0  0  0  0  0
   38.7903   33.2232   48.7950 H   0  0  0  0  0  0  0  0  0  0  0  0
   40.7909   32.0535   43.8609 H   0  0  0  0  0  0  0  0  0  0  0  0
   41.3227   30.3427   43.4825 H   0  0  0  0  0  0  0  0  0  0  0  0
   39.3294   32.0837   42.0620 H   0  0  0  0  0  0  0  0  0  0  0  0
   40.8023   31.1875   41.4444 H   0  0  0  0  0  0  0  0  0  0  0  0
   38.5450   30.2657   40.7765 H   0  0  0  0  0  0  0  0  0  0  0  0
   39.7153   29.1293   41.5164 H   0  0  0  0  0  0  0  0  0  0  0  0
   37.4896   30.6050   43.0090 H   0  0  0  0  0  0  0  0  0  0  0  0
   37.4164   28.9018   42.4982 H   0  0  0  0  0  0  0  0  0  0  0  0
   38.2301   28.9431   44.8171 H   0  0  0  0  0  0  0  0  0  0  0  0
   39.6196   28.5205   43.8090 H   0  0  0  0  0  0  0  0  0  0  0  0
   38.9595   31.5842   50.4218 H   0  0  0  0  0  0  0  0  0  0  0  0
   36.2888   29.4098   47.8122 H   0  0  0  0  0  0  0  0  0  0  0  0
   35.9938   29.0573   52.0498 H   0  0  0  0  0  0  0  0  0  0  0  0
  1  2  2  0
  1 13  1  0
  3  2  1  0
  4  3  1  0
  4  5  2  0
  5  1  1  0
  6  4  1  0
  7  6  1  0
  8  7  1  0
  9  8  1  0
  9 10  1  0
 10 11  1  0
 11  6  1  0
 12 17  2  0
 13 12  1  0
 14 13  2  0
 14 15  1  0
 15 16  2  0
 16 17  1  0
  2 18  1  0
  7 19  1  0
  7 20  1  0
  8 21  1  0
  8 22  1  0
  9 23  1  0
  9 24  1  0
 10 25  1  0
 10 26  1  0
 11 27  1  0
 11 28  1  0
 12 29  1  0
 14 30  1  0
 16 31  1  0
M  ISO  8  18  14  19  13  20  13  21  13  22  13  23  13  24  13  25  13
M  ISO  6  26  13  27  13  28  13  29  14  30  14  31  14
M  END
>  <minimizedAffinity>  (1) 
-5.55218077

>  <minimizedRMSD>  (1) 
0.233040616

$$$$
