
     RDKit          3D

 26 28  0  0  0  0  0  0  0  0999 V2000
   38.3720   31.0860   47.8110 C   0  0  0  0  0  0  0  0  0  0  0  0
   38.8610   32.4200   47.8730 C   0  0  0  0  0  0  0  0  0  0  0  0
   39.6120   32.6570   46.1940 S   0  0  0  0  0  0  0  0  0  0  0  0
   39.1180   30.8980   45.7300 C   0  0  0  0  0  0  0  0  0  0  0  0
   38.6110   30.5250   46.6550 N   0  0  0  0  0  0  0  0  0  0  0  0
   38.1170   30.8640   50.2690 C   0  0  0  0  0  0  0  0  0  0  0  0
   37.6970   30.5250   48.9740 C   0  0  0  0  0  0  0  0  0  0  0  0
   36.6240   29.6430   48.9050 C   0  0  0  0  0  0  0  0  0  0  0  0
   36.0630   29.1790   50.0520 N   0  0  0  0  0  0  0  0  0  0  0  0
   36.5070   29.5380   51.2630 C   0  0  0  0  0  0  0  0  0  0  0  0
   37.5470   30.3920   51.3700 N   0  0  0  0  0  0  0  0  0  0  0  0
   39.4830   30.4530   44.3690 C   0  0  0  0  0  0  0  0  0  0  0  0
   40.2590   31.1940   43.5080 C   0  0  0  0  0  0  0  0  0  0  0  0
   40.5600   30.7310   42.2670 C   0  0  0  0  0  0  0  0  0  0  0  0
   40.0500   29.4810   41.9150 C   0  0  0  0  0  0  0  0  0  0  0  0
   39.2690   28.7300   42.7800 C   0  0  0  0  0  0  0  0  0  0  0  0
   38.9700   29.2270   44.0540 C   0  0  0  0  0  0  0  0  0  0  0  0
   38.8072   33.1334   48.7086 H   0  0  0  0  0  0  0  0  0  0  0  0
   38.9637   31.5578   50.3771 H   0  0  0  0  0  0  0  0  0  0  0  0
   36.2321   29.3232   47.9282 H   0  0  0  0  0  0  0  0  0  0  0  0
   36.0259   29.1383   52.1679 H   0  0  0  0  0  0  0  0  0  0  0  0
   40.6408   32.1745   43.8288 H   0  0  0  0  0  0  0  0  0  0  0  0
   41.1786   31.3158   41.5703 H   0  0  0  0  0  0  0  0  0  0  0  0
   40.2753   29.0774   40.9168 H   0  0  0  0  0  0  0  0  0  0  0  0
   38.8859   27.7477   42.4665 H   0  0  0  0  0  0  0  0  0  0  0  0
   38.3530   28.6588   44.7656 H   0  0  0  0  0  0  0  0  0  0  0  0
  1  2  2  0
  1  7  1  0
  3  2  1  0
  4  3  1  0
  4  5  2  0
  5  1  1  0
  6 11  2  0
  7  6  1  0
  8  7  2  0
  8  9  1  0
  9 10  2  0
 10 11  1  0
 12  4  1  0
 13 12  2  0
 14 13  1  0
 15 14  2  0
 15 16  1  0
 16 17  2  0
 17 12  1  0
  2 18  1  0
  6 19  1  0
  8 20  1  0
 10 21  1  0
 13 22  1  0
 14 23  1  0
 15 24  1  0
 16 25  1  0
 17 26  1  0
M  ISO  8  18  14  19  14  20  14  21  14  22  14  23  14  24  14  25  14
M  ISO  1  26  14
M  END
>  <minimizedAffinity>  (1) 
-5.45695543

>  <minimizedRMSD>  (1) 
0.674966991

$$$$
