
     RDKit          3D

 24 26  0  0  0  0  0  0  0  0999 V2000
   38.3800   31.0750   47.7920 C   0  0  0  0  0  0  0  0  0  0  0  0
   38.8310   32.4340   47.8130 C   0  0  0  0  0  0  0  0  0  0  0  0
   39.6130   32.6640   46.1620 S   0  0  0  0  0  0  0  0  0  0  0  0
   39.1850   30.8720   45.7400 C   0  0  0  0  0  0  0  0  0  0  0  0
   38.6630   30.4890   46.6580 N   0  0  0  0  0  0  0  0  0  0  0  0
   38.1370   30.8840   50.2520 C   0  0  0  0  0  0  0  0  0  0  0  0
   37.6940   30.5230   48.9640 C   0  0  0  0  0  0  0  0  0  0  0  0
   36.6210   29.6570   48.8890 C   0  0  0  0  0  0  0  0  0  0  0  0
   36.0490   29.1970   50.0290 N   0  0  0  0  0  0  0  0  0  0  0  0
   36.4980   29.5620   51.2400 C   0  0  0  0  0  0  0  0  0  0  0  0
   37.5380   30.4030   51.3480 N   0  0  0  0  0  0  0  0  0  0  0  0
   39.5640   30.2860   44.3820 C   0  0  0  0  0  0  0  0  0  0  0  0
   38.8180   29.2070   43.9880 C   0  0  0  0  0  0  0  0  0  0  0  0
   39.1580   28.6750   42.7650 C   0  0  0  0  0  0  0  0  0  0  0  0
   40.1700   29.2360   42.0570 N   0  0  0  0  0  0  0  0  0  0  0  0
   40.8550   30.2990   42.5160 C   0  0  0  0  0  0  0  0  0  0  0  0
   40.5620   30.8580   43.7120 N   0  0  0  0  0  0  0  0  0  0  0  0
   38.7331   33.1689   48.6257 H   0  0  0  0  0  0  0  0  0  0  0  0
   38.9886   31.5720   50.3584 H   0  0  0  0  0  0  0  0  0  0  0  0
   36.2323   29.3420   47.9094 H   0  0  0  0  0  0  0  0  0  0  0  0
   36.0123   29.1708   52.1461 H   0  0  0  0  0  0  0  0  0  0  0  0
   38.0055   28.7952   44.6047 H   0  0  0  0  0  0  0  0  0  0  0  0
   38.6155   27.8051   42.3664 H   0  0  0  0  0  0  0  0  0  0  0  0
   41.6682   30.7211   41.9074 H   0  0  0  0  0  0  0  0  0  0  0  0
  1  2  2  0
  1  7  1  0
  3  2  1  0
  4  3  1  0
  4  5  2  0
  5  1  1  0
  6 11  2  0
  7  6  1  0
  8  7  2  0
  8  9  1  0
  9 10  2  0
 10 11  1  0
 12  4  1  0
 13 12  2  0
 14 13  1  0
 15 16  1  0
 15 14  2  0
 16 17  2  0
 17 12  1  0
  2 18  1  0
  6 19  1  0
  8 20  1  0
 10 21  1  0
 13 22  1  0
 14 23  1  0
 16 24  1  0
M  ISO  7  18  14  19  14  20  14  21  14  22  14  23  14  24  14
M  END
>  <minimizedAffinity>  (1) 
-5.32944202

>  <minimizedRMSD>  (1) 
0.761740267

$$$$
