
     RDKit          3D

 22 24  0  0  0  0  0  0  0  0999 V2000
   38.2850   31.0340   47.8900 C   0  0  0  0  0  0  0  0  0  0  0  0
   38.7520   32.3670   47.9120 C   0  0  0  0  0  0  0  0  0  0  0  0
   39.5370   32.5870   46.2660 S   0  0  0  0  0  0  0  0  0  0  0  0
   39.0860   30.8010   45.8310 C   0  0  0  0  0  0  0  0  0  0  0  0
   38.5590   30.4460   46.7630 N   0  0  0  0  0  0  0  0  0  0  0  0
   38.0290   30.8580   50.3500 C   0  0  0  0  0  0  0  0  0  0  0  0
   37.5960   30.4880   49.0580 C   0  0  0  0  0  0  0  0  0  0  0  0
   36.5290   29.6130   48.9910 C   0  0  0  0  0  0  0  0  0  0  0  0
   35.9530   29.1540   50.1300 N   0  0  0  0  0  0  0  0  0  0  0  0
   36.3900   29.5230   51.3370 C   0  0  0  0  0  0  0  0  0  0  0  0
   37.4200   30.3700   51.4390 N   0  0  0  0  0  0  0  0  0  0  0  0
   39.4870   30.2990   44.4790 C   0  0  0  0  0  0  0  0  0  0  0  0
   40.4750   31.0290   43.8440 C   0  0  0  0  0  0  0  0  0  0  0  0
   40.6870   30.0970   42.2130 S   0  0  0  0  0  0  0  0  0  0  0  0
   39.3590   28.8840   42.7490 C   0  0  0  0  0  0  0  0  0  0  0  0
   39.0600   29.2740   43.7810 N   0  0  0  0  0  0  0  0  0  0  0  0
   38.6656   33.1022   48.7256 H   0  0  0  0  0  0  0  0  0  0  0  0
   38.8739   31.5532   50.4634 H   0  0  0  0  0  0  0  0  0  0  0  0
   36.1459   29.2880   48.0124 H   0  0  0  0  0  0  0  0  0  0  0  0
   35.9048   29.1319   52.2434 H   0  0  0  0  0  0  0  0  0  0  0  0
   41.0041   31.9258   44.1985 H   0  0  0  0  0  0  0  0  0  0  0  0
   38.9656   28.0129   42.2045 H   0  0  0  0  0  0  0  0  0  0  0  0
  1  2  2  0
  1  7  1  0
  3  2  1  0
  4  3  1  0
  4  5  2  0
  5  1  1  0
  6 11  2  0
  7  6  1  0
  8  7  2  0
  8  9  1  0
  9 10  2  0
 10 11  1  0
 12  4  1  0
 13 12  2  0
 14 15  1  0
 14 13  1  0
 15 16  2  0
 16 12  1  0
  2 17  1  0
  6 18  1  0
  8 19  1  0
 10 20  1  0
 13 21  1  0
 15 22  1  0
M  ISO  6  17  14  18  14  19  14  20  14  21  14  22  14
M  END
>  <minimizedAffinity>  (1) 
-5.16049147

>  <minimizedRMSD>  (1) 
0.433987439

$$$$
