
     RDKit          3D

 28 29  0  0  0  0  0  0  0  0999 V2000
   38.3500   31.1600   47.7150 C   0  0  0  0  0  0  0  0  0  0  0  0
   38.9730   32.4320   47.8530 C   0  0  0  0  0  0  0  0  0  0  0  0
   39.6550   32.7600   46.1690 S   0  0  0  0  0  0  0  0  0  0  0  0
   38.9640   31.0990   45.5830 C   0  0  0  0  0  0  0  0  0  0  0  0
   38.4650   30.6790   46.5050 N   0  0  0  0  0  0  0  0  0  0  0  0
   38.1230   30.8820   50.1690 C   0  0  0  0  0  0  0  0  0  0  0  0
   37.6820   30.5550   48.8720 C   0  0  0  0  0  0  0  0  0  0  0  0
   36.6250   29.6620   48.7800 C   0  0  0  0  0  0  0  0  0  0  0  0
   36.0770   29.1580   49.9040 N   0  0  0  0  0  0  0  0  0  0  0  0
   36.5230   29.4910   51.1270 C   0  0  0  0  0  0  0  0  0  0  0  0
   37.5360   30.3450   51.2430 N   0  0  0  0  0  0  0  0  0  0  0  0
   39.1360   30.5990   44.1590 C   0  0  0  0  0  0  0  0  0  0  0  0
   38.8910   29.1110   44.0980 C   0  0  0  0  0  0  0  0  0  0  0  0
   38.1630   31.3780   43.3210 C   0  0  0  0  0  0  0  0  0  0  0  0
   40.5560   30.9400   43.7710 C   0  0  0  0  0  0  0  0  0  0  0  0
   39.0337   33.0677   48.7487 H   0  0  0  0  0  0  0  0  0  0  0  0
   38.9582   31.5858   50.2993 H   0  0  0  0  0  0  0  0  0  0  0  0
   36.2356   29.3663   47.7947 H   0  0  0  0  0  0  0  0  0  0  0  0
   36.0544   29.0610   52.0245 H   0  0  0  0  0  0  0  0  0  0  0  0
   38.8247   28.7081   45.1194 H   0  0  0  0  0  0  0  0  0  0  0  0
   37.9487   28.9161   43.5651 H   0  0  0  0  0  0  0  0  0  0  0  0
   39.7211   28.6243   43.5651 H   0  0  0  0  0  0  0  0  0  0  0  0
   37.4738   31.9298   43.9771 H   0  0  0  0  0  0  0  0  0  0  0  0
   38.7126   32.0885   42.6861 H   0  0  0  0  0  0  0  0  0  0  0  0
   37.5900   30.6862   42.6861 H   0  0  0  0  0  0  0  0  0  0  0  0
   41.1595   31.0849   44.6792 H   0  0  0  0  0  0  0  0  0  0  0  0
   40.9808   30.1183   43.1757 H   0  0  0  0  0  0  0  0  0  0  0  0
   40.5614   31.8650   43.1757 H   0  0  0  0  0  0  0  0  0  0  0  0
  1  2  2  0
  1  7  1  0
  3  2  1  0
  4  3  1  0
  4  5  2  0
  5  1  1  0
  6 11  2  0
  7  6  1  0
  8  7  2  0
  8  9  1  0
  9 10  2  0
 10 11  1  0
 12  4  1  0
 13 12  1  0
 14 12  1  0
 15 12  1  0
  2 16  1  0
  6 17  1  0
  8 18  1  0
 10 19  1  0
 13 20  1  0
 13 21  1  0
 13 22  1  0
 14 23  1  0
 14 24  1  0
 14 25  1  0
 15 26  1  0
 15 27  1  0
 15 28  1  0
M  ISO  8  16  14  17  14  18  14  19  14  20   8  21   8  22   8  23   8
M  ISO  5  24   8  25   8  26   8  27   8  28   8
M  END
>  <minimizedAffinity>  (1) 
-4.88721561

>  <minimizedRMSD>  (1) 
0.425805479

$$$$
