
     RDKit          3D

 25 26  0  0  0  0  0  0  0  0999 V2000
   38.1200   30.8700   50.2650 C   0  0  0  0  0  0  0  0  0  0  0  0
   37.6750   30.5110   48.9770 C   0  0  0  0  0  0  0  0  0  0  0  0
   36.6110   29.6320   48.9150 C   0  0  0  0  0  0  0  0  0  0  0  0
   36.0630   29.1710   50.0590 N   0  0  0  0  0  0  0  0  0  0  0  0
   36.5110   29.5340   51.2650 C   0  0  0  0  0  0  0  0  0  0  0  0
   37.5490   30.3910   51.3710 N   0  0  0  0  0  0  0  0  0  0  0  0
   38.3590   31.0830   47.8120 C   0  0  0  0  0  0  0  0  0  0  0  0
   38.8570   32.4030   47.8530 C   0  0  0  0  0  0  0  0  0  0  0  0
   39.6130   32.6420   46.1900 S   0  0  0  0  0  0  0  0  0  0  0  0
   39.1040   30.8670   45.7280 C   0  0  0  0  0  0  0  0  0  0  0  0
   38.5930   30.4990   46.6530 N   0  0  0  0  0  0  0  0  0  0  0  0
   39.3860   30.2220   44.3880 C   0  0  0  0  0  0  0  0  0  0  0  0
   40.5170   31.0160   43.7700 C   0  0  0  0  0  0  0  0  0  0  0  0
   38.1490   30.3590   43.5310 C   0  0  0  0  0  0  0  0  0  0  0  0
   38.9652   31.5675   50.3612 H   0  0  0  0  0  0  0  0  0  0  0  0
   36.2136   29.3104   47.9410 H   0  0  0  0  0  0  0  0  0  0  0  0
   36.0336   29.1342   52.1718 H   0  0  0  0  0  0  0  0  0  0  0  0
   38.8057   33.1216   48.6842 H   0  0  0  0  0  0  0  0  0  0  0  0
   39.6494   29.1580   44.4801 H   0  0  0  0  0  0  0  0  0  0  0  0
   41.1375   31.4516   44.5670 H   0  0  0  0  0  0  0  0  0  0  0  0
   41.1337   30.3516   43.1469 H   0  0  0  0  0  0  0  0  0  0  0  0
   40.1016   31.8218   43.1469 H   0  0  0  0  0  0  0  0  0  0  0  0
   37.2642   30.4570   44.1772 H   0  0  0  0  0  0  0  0  0  0  0  0
   38.2400   31.2526   42.8960 H   0  0  0  0  0  0  0  0  0  0  0  0
   38.0423   29.4672   42.8960 H   0  0  0  0  0  0  0  0  0  0  0  0
  1  6  2  0
  2  1  1  0
  3  2  2  0
  3  4  1  0
  4  5  2  0
  5  6  1  0
  7  8  2  0
  7  2  1  0
  9  8  1  0
 10  9  1  0
 10 11  2  0
 11  7  1  0
 12 10  1  0
 13 12  1  0
 14 12  1  0
  1 15  1  0
  3 16  1  0
  5 17  1  0
  8 18  1  0
 12 19  1  0
 13 20  1  0
 13 21  1  0
 13 22  1  0
 14 23  1  0
 14 24  1  0
 14 25  1  0
M  ISO  8  15  14  16  14  17  14  18  14  19   8  20   8  21   8  22   8
M  ISO  3  23   8  24   8  25   8
M  END
>  <minimizedAffinity>  (1) 
-4.79835176

>  <minimizedRMSD>  (1) 
0.230702683

$$$$
