
     RDKit          3D

 41 44  0  0  1  0  0  0  0  0999 V2000
   39.3380   30.3240   44.3700 C   0  0  2  0  0  0  0  0  0  0  0  0
   38.3620   31.0780   47.8260 C   0  0  0  0  0  0  0  0  0  0  0  0
   38.8760   32.3910   47.8940 C   0  0  0  0  0  0  0  0  0  0  0  0
   39.6140   32.6510   46.2220 S   0  0  0  0  0  0  0  0  0  0  0  0
   39.0740   30.8800   45.7320 C   0  0  0  0  0  0  0  0  0  0  0  0
   38.5820   30.5340   46.6600 N   0  0  0  0  0  0  0  0  0  0  0  0
   38.1260   30.8590   50.2790 C   0  0  0  0  0  0  0  0  0  0  0  0
   37.6710   30.4970   48.9890 C   0  0  0  0  0  0  0  0  0  0  0  0
   36.5980   29.6300   48.9010 C   0  0  0  0  0  0  0  0  0  0  0  0
   36.0430   29.1750   50.0460 N   0  0  0  0  0  0  0  0  0  0  0  0
   36.4920   29.5310   51.2590 C   0  0  0  0  0  0  0  0  0  0  0  0
   37.5290   30.3690   51.3740 N   0  0  0  0  0  0  0  0  0  0  0  0
   40.5280   31.0180   43.7910 C   0  0  0  0  0  0  0  0  0  0  0  0
   38.1170   30.5260   43.5090 C   0  0  0  0  0  0  0  0  0  0  0  0
   37.3180   29.3450   43.2330 C   0  0  0  0  0  0  0  0  0  0  0  0
   37.6600   28.3480   42.3800 C   0  0  0  0  0  0  0  0  0  0  0  0
   36.8980   27.2110   42.1150 C   0  0  0  0  0  0  0  0  0  0  0  0
   35.6870   27.0730   42.7680 C   0  0  0  0  0  0  0  0  0  0  0  0
   35.3050   28.0690   43.6430 C   0  0  0  0  0  0  0  0  0  0  0  0
   34.0780   27.8380   44.2340 C   0  0  0  0  0  0  0  0  0  0  0  0
   33.6030   28.7980   45.1290 C   0  0  0  0  0  0  0  0  0  0  0  0
   34.3550   29.9420   45.4050 C   0  0  0  0  0  0  0  0  0  0  0  0
   35.5810   30.1250   44.7840 C   0  0  0  0  0  0  0  0  0  0  0  0
   36.0900   29.1850   43.8820 C   0  0  0  0  0  0  0  0  0  0  0  0
   39.5493   29.2458   44.4225 H   0  0  0  0  0  0  0  0  0  0  0  0
   38.8443   33.0919   48.7412 H   0  0  0  0  0  0  0  0  0  0  0  0
   38.9768   31.5483   50.3838 H   0  0  0  0  0  0  0  0  0  0  0  0
   36.2052   29.3178   47.9221 H   0  0  0  0  0  0  0  0  0  0  0  0
   36.0062   29.1328   52.1620 H   0  0  0  0  0  0  0  0  0  0  0  0
   41.1671   31.3907   44.6050 H   0  0  0  0  0  0  0  0  0  0  0  0
   41.0989   30.3112   43.1709 H   0  0  0  0  0  0  0  0  0  0  0  0
   40.1940   31.8629   43.1709 H   0  0  0  0  0  0  0  0  0  0  0  0
   37.4691   31.2578   44.0137 H   0  0  0  0  0  0  0  0  0  0  0  0
   38.5002   30.8541   42.5315 H   0  0  0  0  0  0  0  0  0  0  0  0
   38.6203   28.4445   41.8522 H   0  0  0  0  0  0  0  0  0  0  0  0
   37.2499   26.4461   41.4071 H   0  0  0  0  0  0  0  0  0  0  0  0
   35.0471   26.1951   42.5950 H   0  0  0  0  0  0  0  0  0  0  0  0
   33.4972   26.9317   44.0078 H   0  0  0  0  0  0  0  0  0  0  0  0
   32.6296   28.6525   45.6203 H   0  0  0  0  0  0  0  0  0  0  0  0
   33.9762   30.6947   46.1121 H   0  0  0  0  0  0  0  0  0  0  0  0
   36.1664   31.0295   45.0056 H   0  0  0  0  0  0  0  0  0  0  0  0
  1  5  1  0
  2  3  2  0
  2  8  1  0
  4  3  1  0
  5  4  1  0
  5  6  2  0
  6  2  1  0
  7 12  2  0
  8  7  1  0
  9  8  2  0
  9 10  1  0
 10 11  2  0
 11 12  1  0
 13  1  1  0
 14  1  1  0
 15 14  1  0
 15 24  1  0
 16 15  2  0
 17 16  1  0
 17 18  2  0
 18 19  1  0
 19 24  2  0
 19 20  1  0
 20 21  2  0
 21 22  1  0
 23 22  2  0
 24 23  1  0
  1 25  1  1
  3 26  1  0
  7 27  1  0
  9 28  1  0
 11 29  1  0
 13 30  1  0
 13 31  1  0
 13 32  1  0
 14 33  1  0
 14 34  1  0
 16 35  1  0
 17 36  1  0
 18 37  1  0
 20 38  1  0
 21 39  1  0
 22 40  1  0
 23 41  1  0
M  ISO  8  25   8  26  14  27  14  28  14  29  14  30   8  31   8  32   8
M  ISO  8  33   8  34   8  35  14  36  14  37  14  38  14  39  14  40  14
M  ISO  1  41  14
M  END
>  <minimizedAffinity>  (1) 
-5.5878768

>  <minimizedRMSD>  (1) 
1.47659826

$$$$
