
     RDKit          3D

 35 37  0  0  1  0  0  0  0  0999 V2000
   39.4770   30.3530   44.3770 C   0  0  2  0  0  0  0  0  0  0  0  0
   38.3860   31.1070   47.7960 C   0  0  0  0  0  0  0  0  0  0  0  0
   38.8580   32.4410   47.8750 C   0  0  0  0  0  0  0  0  0  0  0  0
   39.6320   32.7210   46.2220 S   0  0  0  0  0  0  0  0  0  0  0  0
   39.1620   30.9350   45.7190 C   0  0  0  0  0  0  0  0  0  0  0  0
   38.6450   30.5430   46.6300 N   0  0  0  0  0  0  0  0  0  0  0  0
   38.1080   30.8570   50.2450 C   0  0  0  0  0  0  0  0  0  0  0  0
   37.6940   30.5240   48.9510 C   0  0  0  0  0  0  0  0  0  0  0  0
   36.6260   29.6470   48.8500 C   0  0  0  0  0  0  0  0  0  0  0  0
   36.0510   29.1680   49.9690 N   0  0  0  0  0  0  0  0  0  0  0  0
   36.4870   29.5190   51.1970 C   0  0  0  0  0  0  0  0  0  0  0  0
   37.5190   30.3660   51.3320 N   0  0  0  0  0  0  0  0  0  0  0  0
   40.4310   31.2810   43.6980 C   0  0  0  0  0  0  0  0  0  0  0  0
   38.1780   30.2430   43.5890 C   0  0  0  0  0  0  0  0  0  0  0  0
   38.0090   28.8030   43.2620 C   0  0  0  0  0  0  0  0  0  0  0  0
   39.1290   27.9860   43.2660 C   0  0  0  0  0  0  0  0  0  0  0  0
   39.0690   26.6440   42.9760 C   0  0  0  0  0  0  0  0  0  0  0  0
   37.8650   26.0450   42.6640 C   0  0  0  0  0  0  0  0  0  0  0  0
   36.7790   26.8770   42.6690 C   0  0  0  0  0  0  0  0  0  0  0  0
   36.7940   28.2280   42.9530 C   0  0  0  0  0  0  0  0  0  0  0  0
   39.9296   29.3536   44.4568 H   0  0  0  0  0  0  0  0  0  0  0  0
   38.7816   33.1420   48.7192 H   0  0  0  0  0  0  0  0  0  0  0  0
   38.9524   31.5510   50.3684 H   0  0  0  0  0  0  0  0  0  0  0  0
   36.2503   29.3440   47.8615 H   0  0  0  0  0  0  0  0  0  0  0  0
   35.9943   29.1091   52.0910 H   0  0  0  0  0  0  0  0  0  0  0  0
   41.0030   31.8374   44.4552 H   0  0  0  0  0  0  0  0  0  0  0  0
   41.1225   30.7006   43.0695 H   0  0  0  0  0  0  0  0  0  0  0  0
   39.8700   31.9882   43.0695 H   0  0  0  0  0  0  0  0  0  0  0  0
   37.3325   30.5973   44.1970 H   0  0  0  0  0  0  0  0  0  0  0  0
   38.2097   30.8588   42.6780 H   0  0  0  0  0  0  0  0  0  0  0  0
   40.1052   28.4298   43.5112 H   0  0  0  0  0  0  0  0  0  0  0  0
   39.9891   26.0414   42.9926 H   0  0  0  0  0  0  0  0  0  0  0  0
   37.7845   24.9737   42.4279 H   0  0  0  0  0  0  0  0  0  0  0  0
   35.8048   26.4286   42.4244 H   0  0  0  0  0  0  0  0  0  0  0  0
   35.8700   28.8245   42.9335 H   0  0  0  0  0  0  0  0  0  0  0  0
  1  5  1  0
  2  3  2  0
  2  8  1  0
  4  3  1  0
  5  4  1  0
  5  6  2  0
  6  2  1  0
  7 12  2  0
  8  7  1  0
  9  8  2  0
  9 10  1  0
 10 11  2  0
 11 12  1  0
 13  1  1  0
 14  1  1  0
 15 16  2  0
 15 14  1  0
 17 16  1  0
 18 19  1  0
 18 17  2  0
 19 20  2  0
 20 15  1  0
  1 21  1  1
  3 22  1  0
  7 23  1  0
  9 24  1  0
 11 25  1  0
 13 26  1  0
 13 27  1  0
 13 28  1  0
 14 29  1  0
 14 30  1  0
 16 31  1  0
 17 32  1  0
 18 33  1  0
 19 34  1  0
 20 35  1  0
M  ISO  8  21   8  22  14  23  14  24  14  25  14  26   8  27   8  28   8
M  ISO  7  29   8  30   8  31  14  32  14  33  14  34  14  35  14
M  END
>  <minimizedAffinity>  (1) 
-5.39689541

>  <minimizedRMSD>  (1) 
1.64189875

$$$$
