
     RDKit          3D

 38 40  0  0  1  0  0  0  0  0999 V2000
   39.5330   30.3650   44.5160 C   0  0  2  0  0  0  0  0  0  0  0  0
   38.3460   31.1340   47.8980 C   0  0  0  0  0  0  0  0  0  0  0  0
   38.8010   32.4670   47.9610 C   0  0  0  0  0  0  0  0  0  0  0  0
   39.6050   32.7430   46.3410 S   0  0  0  0  0  0  0  0  0  0  0  0
   39.1710   30.9470   45.8490 C   0  0  0  0  0  0  0  0  0  0  0  0
   38.6410   30.5530   46.7390 N   0  0  0  0  0  0  0  0  0  0  0  0
   38.0210   30.8650   50.3280 C   0  0  0  0  0  0  0  0  0  0  0  0
   37.6280   30.5290   49.0270 C   0  0  0  0  0  0  0  0  0  0  0  0
   36.5750   29.6440   48.9100 C   0  0  0  0  0  0  0  0  0  0  0  0
   35.9760   29.1450   50.0000 N   0  0  0  0  0  0  0  0  0  0  0  0
   36.3790   29.4880   51.2380 C   0  0  0  0  0  0  0  0  0  0  0  0
   37.3980   30.3450   51.3900 N   0  0  0  0  0  0  0  0  0  0  0  0
   40.3210   31.4200   43.7680 C   0  0  0  0  0  0  0  0  0  0  0  0
   38.2940   29.9890   43.7760 C   0  0  0  0  0  0  0  0  0  0  0  0
   39.3340   26.8430   41.0430 C   0  0  0  0  0  0  0  0  0  0  0  0
   39.4590   26.6980   42.4070 C   0  0  0  0  0  0  0  0  0  0  0  0
   39.0890   27.7620   43.2010 C   0  0  0  0  0  0  0  0  0  0  0  0
   38.5920   28.9870   42.7390 C   0  0  0  0  0  0  0  0  0  0  0  0
   38.4810   29.0950   41.3700 C   0  0  0  0  0  0  0  0  0  0  0  0
   38.8470   28.0380   40.5640 C   0  0  0  0  0  0  0  0  0  0  0  0
   39.7660   25.5730   39.9190 S   0  0  0  0  0  0  0  0  0  0  0  0
   38.7130   25.5510   38.8340 O   0  0  0  0  0  0  0  0  0  0  0  0
   41.0320   26.0120   39.2250 O   0  0  0  0  0  0  0  0  0  0  0  0
   40.1376   29.4527   44.6264 H   0  0  0  0  0  0  0  0  0  0  0  0
   38.6965   33.1782   48.7936 H   0  0  0  0  0  0  0  0  0  0  0  0
   38.8544   31.5670   50.4783 H   0  0  0  0  0  0  0  0  0  0  0  0
   36.2238   29.3452   47.9113 H   0  0  0  0  0  0  0  0  0  0  0  0
   35.8744   29.0670   52.1201 H   0  0  0  0  0  0  0  0  0  0  0  0
   40.8183   32.0858   44.4887 H   0  0  0  0  0  0  0  0  0  0  0  0
   41.0781   30.9328   43.1360 H   0  0  0  0  0  0  0  0  0  0  0  0
   39.6389   32.0077   43.1360 H   0  0  0  0  0  0  0  0  0  0  0  0
   37.5636   29.5701   44.4838 H   0  0  0  0  0  0  0  0  0  0  0  0
   37.8840   30.8879   43.2923 H   0  0  0  0  0  0  0  0  0  0  0  0
   39.8410   25.7652   42.8474 H   0  0  0  0  0  0  0  0  0  0  0  0
   39.1928   27.6386   44.2891 H   0  0  0  0  0  0  0  0  0  0  0  0
   38.1006   30.0240   40.9203 H   0  0  0  0  0  0  0  0  0  0  0  0
   38.7439   28.1565   39.4753 H   0  0  0  0  0  0  0  0  0  0  0  0
   39.8912   24.3696   40.5617 H   0  0  0  0  0  0  0  0  0  0  0  0
  1  5  1  0
  2  3  2  0
  2  8  1  0
  4  3  1  0
  5  4  1  0
  5  6  2  0
  6  2  1  0
  7 12  2  0
  8  7  1  0
  9  8  2  0
  9 10  1  0
 10 11  2  0
 11 12  1  0
 13  1  1  0
 14  1  1  0
 15 16  2  0
 16 17  1  0
 18 17  2  0
 18 14  1  0
 19 18  1  0
 20 15  1  0
 20 19  2  0
 21 15  1  0
 22 21  2  0
 23 21  2  0
  1 24  1  1
  3 25  1  0
  7 26  1  0
  9 27  1  0
 11 28  1  0
 13 29  1  0
 13 30  1  0
 13 31  1  0
 14 32  1  0
 14 33  1  0
 16 34  1  0
 17 35  1  0
 19 36  1  0
 20 37  1  0
 21 38  1  0
M  ISO  8  24   8  25  14  26  14  27  14  28  14  29   8  30   8  31   8
M  ISO  7  32   8  33   8  34  14  35  14  36  14  37  14  38  11
M  END
>  <minimizedAffinity>  (1) 
-5.34026861

>  <minimizedRMSD>  (1) 
4.23689938

$$$$
