
     RDKit          3D

 40 42  0  0  1  0  0  0  0  0999 V2000
   39.3230   32.2320   45.8840 C   0  0  2  0  0  0  0  0  0  0  0  0
   36.8590   31.0320   48.3400 C   0  0  0  0  0  0  0  0  0  0  0  0
   37.2130   31.8790   49.4210 C   0  0  0  0  0  0  0  0  0  0  0  0
   38.6060   32.8760   48.7430 S   0  0  0  0  0  0  0  0  0  0  0  0
   38.4380   31.9300   47.0790 C   0  0  0  0  0  0  0  0  0  0  0  0
   37.6010   31.2320   47.2760 N   0  0  0  0  0  0  0  0  0  0  0  0
   35.7600   29.1930   49.5730 C   0  0  0  0  0  0  0  0  0  0  0  0
   35.7540   30.0770   48.4880 C   0  0  0  0  0  0  0  0  0  0  0  0
   34.6780   29.9650   47.6370 C   0  0  0  0  0  0  0  0  0  0  0  0
   33.7180   29.0530   47.8700 N   0  0  0  0  0  0  0  0  0  0  0  0
   33.7640   28.2290   48.9180 C   0  0  0  0  0  0  0  0  0  0  0  0
   34.7980   28.3080   49.7710 N   0  0  0  0  0  0  0  0  0  0  0  0
   40.1350   33.4420   46.2180 C   0  0  0  0  0  0  0  0  0  0  0  0
   38.4150   32.4990   44.6950 C   0  0  0  0  0  0  0  0  0  0  0  0
   38.2890   31.2350   43.9700 N   0  0  0  0  0  0  0  0  0  0  0  0
   37.6500   31.5450   42.6800 C   0  0  0  0  0  0  0  0  0  0  0  0
   37.9470   30.4270   41.7020 C   0  0  0  0  0  0  0  0  0  0  0  0
   39.4140   30.4710   41.2860 C   0  0  0  0  0  0  0  0  0  0  0  0
   40.1660   31.2410   42.3610 C   0  0  0  0  0  0  0  0  0  0  0  0
   39.6400   30.7170   43.6890 C   0  0  0  0  0  0  0  0  0  0  0  0
   39.9989   31.3987   45.6417 H   0  0  0  0  0  0  0  0  0  0  0  0
   36.7636   31.9287   50.4238 H   0  0  0  0  0  0  0  0  0  0  0  0
   36.5956   29.2361   50.2871 H   0  0  0  0  0  0  0  0  0  0  0  0
   34.6030   30.6258   46.7608 H   0  0  0  0  0  0  0  0  0  0  0  0
   32.9634   27.4926   49.0817 H   0  0  0  0  0  0  0  0  0  0  0  0
   40.2050   33.5464   47.3108 H   0  0  0  0  0  0  0  0  0  0  0  0
   41.1445   33.3345   45.7945 H   0  0  0  0  0  0  0  0  0  0  0  0
   39.6529   34.3354   45.7945 H   0  0  0  0  0  0  0  0  0  0  0  0
   37.4273   32.8377   45.0409 H   0  0  0  0  0  0  0  0  0  0  0  0
   38.8307   33.2860   44.0487 H   0  0  0  0  0  0  0  0  0  0  0  0
   36.5625   31.6343   42.8190 H   0  0  0  0  0  0  0  0  0  0  0  0
   38.0429   32.4952   42.2892 H   0  0  0  0  0  0  0  0  0  0  0  0
   37.7330   29.4594   42.1795 H   0  0  0  0  0  0  0  0  0  0  0  0
   37.3157   30.5516   40.8099 H   0  0  0  0  0  0  0  0  0  0  0  0
   39.8134   29.4492   41.2058 H   0  0  0  0  0  0  0  0  0  0  0  0
   39.5266   30.9589   40.3066 H   0  0  0  0  0  0  0  0  0  0  0  0
   41.2475   31.0579   42.2780 H   0  0  0  0  0  0  0  0  0  0  0  0
   40.0133   32.3261   42.2642 H   0  0  0  0  0  0  0  0  0  0  0  0
   39.6022   29.6183   43.6514 H   0  0  0  0  0  0  0  0  0  0  0  0
   40.3155   31.0551   44.4886 H   0  0  0  0  0  0  0  0  0  0  0  0
  1 13  1  0
  1  5  1  0
  2  8  1  0
  2  3  2  0
  4  3  1  0
  5  6  2  0
  5  4  1  0
  6  2  1  0
  7 12  2  0
  8  7  1  0
  9 10  1  0
  9  8  2  0
 10 11  2  0
 11 12  1  0
 14  1  1  0
 15 14  1  0
 16 15  1  0
 17 16  1  0
 18 17  1  0
 18 19  1  0
 19 20  1  0
 20 15  1  0
  1 21  1  6
  3 22  1  0
  7 23  1  0
  9 24  1  0
 11 25  1  0
 13 26  1  0
 13 27  1  0
 13 28  1  0
 14 29  1  0
 14 30  1  0
 16 31  1  0
 16 32  1  0
 17 33  1  0
 17 34  1  0
 18 35  1  0
 18 36  1  0
 19 37  1  0
 19 38  1  0
 20 39  1  0
 20 40  1  0
M  ISO  8  21   8  22  14  23  14  24  14  25  14  26   8  27   8  28   8
M  ISO  8  29   8  30   8  31  13  32  13  33  13  34  13  35  13  36  13
M  ISO  4  37  13  38  13  39  13  40  13
M  END
>  <minimizedAffinity>  (1) 
-5.17674828

>  <minimizedRMSD>  (1) 
3.19062209

$$$$
