
     RDKit          3D

 31 33  0  0  1  0  0  0  0  0999 V2000
   38.4050   31.1480   47.8390 C   0  0  0  0  0  0  0  0  0  0  0  0
   38.8480   32.4880   47.9190 C   0  0  0  0  0  0  0  0  0  0  0  0
   39.6390   32.7790   46.2870 S   0  0  0  0  0  0  0  0  0  0  0  0
   39.2150   30.9850   45.7830 C   0  0  0  0  0  0  0  0  0  0  0  0
   38.6960   30.5910   46.6810 N   0  0  0  0  0  0  0  0  0  0  0  0
   38.0990   30.8580   50.2740 C   0  0  0  0  0  0  0  0  0  0  0  0
   37.6980   30.5490   48.9730 C   0  0  0  0  0  0  0  0  0  0  0  0
   36.6210   29.6750   48.8460 C   0  0  0  0  0  0  0  0  0  0  0  0
   36.0270   29.1790   49.9580 N   0  0  0  0  0  0  0  0  0  0  0  0
   36.4510   29.5080   51.1860 C   0  0  0  0  0  0  0  0  0  0  0  0
   37.5000   30.3570   51.3530 N   0  0  0  0  0  0  0  0  0  0  0  0
   39.5650   30.4030   44.4340 C   0  0  2  0  0  0  0  0  0  0  0  0
   40.2300   31.4850   43.6440 C   0  0  0  0  0  0  0  0  0  0  0  0
   38.2690   29.9700   43.7560 C   0  0  0  0  0  0  0  0  0  0  0  0
   38.6190   28.8740   42.8170 C   0  0  0  0  0  0  0  0  0  0  0  0
   38.4160   28.9860   41.3350 C   0  0  0  0  0  0  0  0  0  0  0  0
   39.0550   27.2960   40.8100 S   0  0  0  0  0  0  0  0  0  0  0  0
   39.4480   26.8030   42.5890 C   0  0  0  0  0  0  0  0  0  0  0  0
   39.1310   27.7530   43.3040 N   0  0  0  0  0  0  0  0  0  0  0  0
   38.7437   33.1900   48.7594 H   0  0  0  0  0  0  0  0  0  0  0  0
   38.9465   31.5451   50.4141 H   0  0  0  0  0  0  0  0  0  0  0  0
   36.2549   29.3892   47.8488 H   0  0  0  0  0  0  0  0  0  0  0  0
   35.9454   29.0871   52.0676 H   0  0  0  0  0  0  0  0  0  0  0  0
   40.2352   29.5348   44.5176 H   0  0  0  0  0  0  0  0  0  0  0  0
   40.6798   32.2169   44.3310 H   0  0  0  0  0  0  0  0  0  0  0  0
   41.0148   31.0466   43.0100 H   0  0  0  0  0  0  0  0  0  0  0  0
   39.4844   31.9872   43.0100 H   0  0  0  0  0  0  0  0  0  0  0  0
   37.5510   29.6096   44.5074 H   0  0  0  0  0  0  0  0  0  0  0  0
   37.8032   30.8118   43.2227 H   0  0  0  0  0  0  0  0  0  0  0  0
   38.0123   29.8130   40.7324 H   0  0  0  0  0  0  0  0  0  0  0  0
   39.8787   25.8476   42.9233 H   0  0  0  0  0  0  0  0  0  0  0  0
  1  2  2  0
  1  7  1  0
  3  2  1  0
  4  3  1  0
  4  5  2  0
  5  1  1  0
  6 11  2  0
  7  6  1  0
  8  7  2  0
  8  9  1  0
  9 10  2  0
 10 11  1  0
 12  4  1  0
 13 12  1  0
 14 12  1  0
 15 19  1  0
 15 14  1  0
 16 15  2  0
 17 16  1  0
 17 18  1  0
 18 19  2  0
  2 20  1  0
  6 21  1  0
  8 22  1  0
 10 23  1  0
 12 24  1  1
 13 25  1  0
 13 26  1  0
 13 27  1  0
 14 28  1  0
 14 29  1  0
 16 30  1  0
 18 31  1  0
M  ISO  8  20  14  21  14  22  14  23  14  24   8  25   8  26   8  27   8
M  ISO  4  28   8  29   8  30  14  31  14
M  END
>  <minimizedAffinity>  (1) 
-5.1180234

>  <minimizedRMSD>  (1) 
1.07845569

$$$$
