
     RDKit          3D

 32 34  0  0  1  0  0  0  0  0999 V2000
   39.5650   30.3790   44.4330 C   0  0  2  0  0  0  0  0  0  0  0  0
   38.4000   31.1330   47.8280 C   0  0  0  0  0  0  0  0  0  0  0  0
   38.8500   32.4740   47.8960 C   0  0  0  0  0  0  0  0  0  0  0  0
   39.6420   32.7480   46.2640 S   0  0  0  0  0  0  0  0  0  0  0  0
   39.2100   30.9510   45.7700 C   0  0  0  0  0  0  0  0  0  0  0  0
   38.6900   30.5670   46.6710 N   0  0  0  0  0  0  0  0  0  0  0  0
   38.0930   30.8510   50.2620 C   0  0  0  0  0  0  0  0  0  0  0  0
   37.6900   30.5390   48.9600 C   0  0  0  0  0  0  0  0  0  0  0  0
   36.6090   29.6660   48.8430 C   0  0  0  0  0  0  0  0  0  0  0  0
   36.0220   29.1800   49.9530 N   0  0  0  0  0  0  0  0  0  0  0  0
   36.4490   29.5120   51.1770 C   0  0  0  0  0  0  0  0  0  0  0  0
   37.5010   30.3620   51.3430 N   0  0  0  0  0  0  0  0  0  0  0  0
   40.1980   31.4610   43.6190 C   0  0  0  0  0  0  0  0  0  0  0  0
   38.2930   29.8770   43.7650 C   0  0  0  0  0  0  0  0  0  0  0  0
   38.6850   28.7440   42.8850 C   0  0  0  0  0  0  0  0  0  0  0  0
   39.1810   27.4900   43.1760 C   0  0  0  0  0  0  0  0  0  0  0  0
   39.3940   26.7910   42.0040 C   0  0  0  0  0  0  0  0  0  0  0  0
   39.0160   27.6460   41.0100 N   0  0  0  0  0  0  0  0  0  0  0  0
   38.6000   28.7920   41.5290 N   0  0  0  0  0  0  0  0  0  0  0  0
   40.2681   29.5387   44.5308 H   0  0  0  0  0  0  0  0  0  0  0  0
   38.7486   33.1837   48.7303 H   0  0  0  0  0  0  0  0  0  0  0  0
   38.9432   31.5360   50.3962 H   0  0  0  0  0  0  0  0  0  0  0  0
   36.2377   29.3759   47.8490 H   0  0  0  0  0  0  0  0  0  0  0  0
   35.9444   29.0935   52.0603 H   0  0  0  0  0  0  0  0  0  0  0  0
   40.6385   32.2139   44.2891 H   0  0  0  0  0  0  0  0  0  0  0  0
   40.9859   31.0292   42.9844 H   0  0  0  0  0  0  0  0  0  0  0  0
   39.4355   31.9362   42.9844 H   0  0  0  0  0  0  0  0  0  0  0  0
   37.5761   29.5345   44.5258 H   0  0  0  0  0  0  0  0  0  0  0  0
   37.8109   30.6775   43.1847 H   0  0  0  0  0  0  0  0  0  0  0  0
   39.3771   27.1053   44.1877 H   0  0  0  0  0  0  0  0  0  0  0  0
   39.7835   25.7680   41.8955 H   0  0  0  0  0  0  0  0  0  0  0  0
   39.0492   27.4318   40.0031 H   0  0  0  0  0  0  0  0  0  0  0  0
  1  5  1  0
  2  3  2  0
  2  8  1  0
  4  3  1  0
  5  4  1  0
  5  6  2  0
  6  2  1  0
  7 12  2  0
  8  7  1  0
  9  8  2  0
  9 10  1  0
 10 11  2  0
 11 12  1  0
 13  1  1  0
 14  1  1  0
 15 16  1  0
 15 14  1  0
 17 16  2  0
 18 19  1  0
 18 17  1  0
 19 15  2  0
  1 20  1  1
  3 21  1  0
  7 22  1  0
  9 23  1  0
 11 24  1  0
 13 25  1  0
 13 26  1  0
 13 27  1  0
 14 28  1  0
 14 29  1  0
 16 30  1  0
 17 31  1  0
 18 32  1  0
M  ISO  8  20   8  21  14  22  14  23  14  24  14  25   8  26   8  27   8
M  ISO  5  28   8  29   8  30  14  31  14  32   9
M  END
>  <minimizedAffinity>  (1) 
-5.1166997

>  <minimizedRMSD>  (1) 
0.994235992

$$$$
