
     RDKit          3D

 32 34  0  0  1  0  0  0  0  0999 V2000
   39.3440   30.2910   44.3760 C   0  0  2  0  0  0  0  0  0  0  0  0
   38.3610   31.0720   47.8210 C   0  0  0  0  0  0  0  0  0  0  0  0
   38.8700   32.3950   47.8780 C   0  0  0  0  0  0  0  0  0  0  0  0
   39.6090   32.6520   46.2090 S   0  0  0  0  0  0  0  0  0  0  0  0
   39.0780   30.8750   45.7300 C   0  0  0  0  0  0  0  0  0  0  0  0
   38.5830   30.5160   46.6540 N   0  0  0  0  0  0  0  0  0  0  0  0
   38.1130   30.8570   50.2730 C   0  0  0  0  0  0  0  0  0  0  0  0
   37.6880   30.5100   48.9850 C   0  0  0  0  0  0  0  0  0  0  0  0
   36.6190   29.6280   48.9210 C   0  0  0  0  0  0  0  0  0  0  0  0
   36.0510   29.1570   50.0470 N   0  0  0  0  0  0  0  0  0  0  0  0
   36.5030   29.5270   51.2590 C   0  0  0  0  0  0  0  0  0  0  0  0
   37.5380   30.3800   51.3730 N   0  0  0  0  0  0  0  0  0  0  0  0
   40.5490   30.9850   43.8140 C   0  0  0  0  0  0  0  0  0  0  0  0
   38.1320   30.5470   43.4900 C   0  0  0  0  0  0  0  0  0  0  0  0
   37.4030   29.3220   43.2650 N   0  0  0  0  0  0  0  0  0  0  0  0
   37.9670   28.1980   42.8190 N   0  0  0  0  0  0  0  0  0  0  0  0
   37.0720   27.2160   42.6850 C   0  0  0  0  0  0  0  0  0  0  0  0
   35.8980   27.8140   43.0820 C   0  0  0  0  0  0  0  0  0  0  0  0
   36.0840   29.1320   43.4490 C   0  0  0  0  0  0  0  0  0  0  0  0
   39.5244   29.2073   44.4321 H   0  0  0  0  0  0  0  0  0  0  0  0
   38.8325   33.1015   48.7203 H   0  0  0  0  0  0  0  0  0  0  0  0
   38.9579   31.5533   50.3795 H   0  0  0  0  0  0  0  0  0  0  0  0
   36.2321   29.3107   47.9414 H   0  0  0  0  0  0  0  0  0  0  0  0
   36.0224   29.1289   52.1648 H   0  0  0  0  0  0  0  0  0  0  0  0
   41.1803   31.3486   44.6381 H   0  0  0  0  0  0  0  0  0  0  0  0
   41.1235   30.2794   43.1958 H   0  0  0  0  0  0  0  0  0  0  0  0
   40.2270   31.8360   43.1958 H   0  0  0  0  0  0  0  0  0  0  0  0
   37.4715   31.2762   43.9819 H   0  0  0  0  0  0  0  0  0  0  0  0
   38.4756   30.9396   42.5216 H   0  0  0  0  0  0  0  0  0  0  0  0
   37.2335   26.1835   42.3418 H   0  0  0  0  0  0  0  0  0  0  0  0
   34.9248   27.3017   43.1044 H   0  0  0  0  0  0  0  0  0  0  0  0
   35.3340   29.8532   43.8060 H   0  0  0  0  0  0  0  0  0  0  0  0
  1  5  1  0
  2  3  2  0
  2  8  1  0
  4  3  1  0
  5  4  1  0
  5  6  2  0
  6  2  1  0
  7 12  2  0
  8  7  1  0
  9  8  2  0
  9 10  1  0
 10 11  2  0
 11 12  1  0
 13  1  1  0
 14  1  1  0
 15 19  1  0
 15 14  1  0
 16 15  1  0
 17 16  2  0
 17 18  1  0
 18 19  2  0
  1 20  1  1
  3 21  1  0
  7 22  1  0
  9 23  1  0
 11 24  1  0
 13 25  1  0
 13 26  1  0
 13 27  1  0
 14 28  1  0
 14 29  1  0
 17 30  1  0
 18 31  1  0
 19 32  1  0
M  ISO  8  20   8  21  14  22  14  23  14  24  14  25   8  26   8  27   8
M  ISO  5  28   8  29   8  30  14  31  14  32  14
M  END
>  <minimizedAffinity>  (1) 
-4.88829994

>  <minimizedRMSD>  (1) 
1.16443729

$$$$
