
     RDKit          3D

 18 19  0  0  0  0  0  0  0  0999 V2000
   38.0570   33.0350   49.5040 C   0  0  0  0  0  0  0  0  0  0  0  0
   38.9740   33.1320   48.4330 C   0  0  0  0  0  0  0  0  0  0  0  0
   38.8410   32.2310   47.3760 C   0  0  0  0  0  0  0  0  0  0  0  0
   37.8430   31.3150   47.4360 N   0  0  0  0  0  0  0  0  0  0  0  0
   36.9830   31.2410   48.4670 C   0  0  0  0  0  0  0  0  0  0  0  0
   37.0960   32.1060   49.5000 N   0  0  0  0  0  0  0  0  0  0  0  0
   35.9060   30.2490   48.5270 C   0  0  0  0  0  0  0  0  0  0  0  0
   35.9080   29.2850   49.5260 C   0  0  0  0  0  0  0  0  0  0  0  0
   34.8920   28.3350   49.5960 C   0  0  0  0  0  0  0  0  0  0  0  0
   33.8810   28.3360   48.6870 N   0  0  0  0  0  0  0  0  0  0  0  0
   33.9330   29.2930   47.7440 C   0  0  0  0  0  0  0  0  0  0  0  0
   34.8980   30.2340   47.6370 N   0  0  0  0  0  0  0  0  0  0  0  0
   38.1351   33.7324   50.3511 H   0  0  0  0  0  0  0  0  0  0  0  0
   39.7675   33.8938   48.4327 H   0  0  0  0  0  0  0  0  0  0  0  0
   39.5274   32.2629   46.5170 H   0  0  0  0  0  0  0  0  0  0  0  0
   36.7192   29.2714   50.2688 H   0  0  0  0  0  0  0  0  0  0  0  0
   34.9077   27.5775   50.3935 H   0  0  0  0  0  0  0  0  0  0  0  0
   33.1243   29.3119   46.9986 H   0  0  0  0  0  0  0  0  0  0  0  0
  2  1  2  0
  3  4  2  0
  3  2  1  0
  4  5  1  0
  5  7  1  0
  5  6  2  0
  6  1  1  0
  7  8  2  0
  8  9  1  0
 10  9  2  0
 11 10  1  0
 12 11  2  0
 12  7  1  0
  1 13  1  0
  2 14  1  0
  3 15  1  0
  8 16  1  0
  9 17  1  0
 11 18  1  0
M  ISO  6  13  14  14  14  15  14  16  14  17  14  18  14
M  END
>  <minimizedAffinity>  (1) 
-4.30752563

>  <minimizedRMSD>  (1) 
2.97994256

$$$$
