
     RDKit          3D

 33 34  0  0  0  0  0  0  0  0999 V2000
   39.3880   32.1990   45.8170 C   0  0  0  0  0  0  0  0  0  0  0  0
   38.0910   32.7360   49.3580 C   0  0  0  0  0  0  0  0  0  0  0  0
   38.8940   32.9080   48.2120 C   0  0  0  0  0  0  0  0  0  0  0  0
   38.6270   32.1230   47.0860 C   0  0  0  0  0  0  0  0  0  0  0  0
   37.5930   31.2330   47.1820 N   0  0  0  0  0  0  0  0  0  0  0  0
   36.8510   31.0960   48.2850 C   0  0  0  0  0  0  0  0  0  0  0  0
   37.0930   31.8430   49.3780 N   0  0  0  0  0  0  0  0  0  0  0  0
   40.4990   31.1660   45.9120 C   0  0  0  0  0  0  0  0  0  0  0  0
   39.9800   33.5280   45.5510 C   0  0  0  0  0  0  0  0  0  0  0  0
   38.4570   31.8010   44.7100 C   0  0  0  0  0  0  0  0  0  0  0  0
   38.9780   30.8360   43.7920 N   0  0  0  0  0  0  0  0  0  0  0  0
   38.7230   29.5530   44.1620 C   0  0  0  0  0  0  0  0  0  0  0  0
   39.1540   28.4790   43.3910 C   0  0  0  0  0  0  0  0  0  0  0  0
   39.8470   28.8140   42.2450 C   0  0  0  0  0  0  0  0  0  0  0  0
   40.3510   27.8230   41.3560 N   0  0  0  0  0  0  0  0  0  0  0  0
   40.0960   30.0880   41.8860 N   0  0  0  0  0  0  0  0  0  0  0  0
   39.6580   31.1140   42.6650 C   0  0  0  0  0  0  0  0  0  0  0  0
   39.8600   32.3130   42.3820 O   0  0  0  0  0  0  0  0  0  0  0  0
   38.2877   33.3462   50.2518 H   0  0  0  0  0  0  0  0  0  0  0  0
   39.7122   33.6432   48.2038 H   0  0  0  0  0  0  0  0  0  0  0  0
   36.0313   30.3627   48.2997 H   0  0  0  0  0  0  0  0  0  0  0  0
   40.7195   30.9610   46.9700 H   0  0  0  0  0  0  0  0  0  0  0  0
   40.1792   30.2370   45.4174 H   0  0  0  0  0  0  0  0  0  0  0  0
   41.4023   31.5525   45.4174 H   0  0  0  0  0  0  0  0  0  0  0  0
   40.2027   34.0279   46.5052 H   0  0  0  0  0  0  0  0  0  0  0  0
   40.9092   33.4068   44.9750 H   0  0  0  0  0  0  0  0  0  0  0  0
   39.2684   34.1377   44.9750 H   0  0  0  0  0  0  0  0  0  0  0  0
   37.5476   31.3813   45.1648 H   0  0  0  0  0  0  0  0  0  0  0  0
   38.2747   32.7130   44.1226 H   0  0  0  0  0  0  0  0  0  0  0  0
   38.1645   29.3606   45.0899 H   0  0  0  0  0  0  0  0  0  0  0  0
   38.9564   27.4347   43.6746 H   0  0  0  0  0  0  0  0  0  0  0  0
   40.8644   28.1045   40.5086 H   0  0  0  0  0  0  0  0  0  0  0  0
   40.2023   26.8244   41.5602 H   0  0  0  0  0  0  0  0  0  0  0  0
  1  8  1  0
  1  4  1  0
  2  7  2  0
  3  2  1  0
  4  5  1  0
  4  3  2  0
  5  6  2  0
  6  7  1  0
  9  1  1  0
 10  1  1  0
 11 12  1  0
 11 10  1  0
 13 12  2  0
 14 13  1  0
 15 14  1  0
 16 14  2  0
 16 17  1  0
 17 11  1  0
 18 17  2  0
  2 19  1  0
  3 20  1  0
  6 21  1  0
  8 22  1  0
  8 23  1  0
  8 24  1  0
  9 25  1  0
  9 26  1  0
  9 27  1  0
 10 28  1  0
 10 29  1  0
 12 30  1  0
 13 31  1  0
 15 32  1  0
 15 33  1  0
M  ISO  8  19  14  20  14  21  14  22   8  23   8  24   8  25   8  26   8
M  ISO  5  27   8  28   8  29   8  30  14  31  14
M  END
>  <minimizedAffinity>  (1) 
-4.92406559

>  <minimizedRMSD>  (1) 
2.29061937

$$$$
