
     RDKit          3D

 51 55  0  0  1  0  0  0  0  0999 V2000
   38.5890   32.5550   44.5590 C   0  0  0  0  0  0  0  0  0  0  0  0
   37.9570   31.5440   43.7510 N   0  0  0  0  0  0  0  0  0  0  0  0
   36.6640   31.3140   43.4500 C   0  0  0  0  0  0  0  0  0  0  0  0
   36.6180   30.2370   42.6500 N   0  0  0  0  0  0  0  0  0  0  0  0
   37.8510   29.7680   42.4290 C   0  0  0  0  0  0  0  0  0  0  0  0
   38.3040   28.6930   41.6820 C   0  0  0  0  0  0  0  0  0  0  0  0
   37.5440   27.9260   41.0380 O   0  0  0  0  0  0  0  0  0  0  0  0
   39.6150   28.4310   41.6220 N   0  0  0  0  0  0  0  0  0  0  0  0
   40.4260   29.2490   42.3080 C   0  0  0  0  0  0  0  0  0  0  0  0
   41.8340   29.0100   42.2810 N   0  0  0  0  0  0  0  0  0  0  0  0
   40.0250   30.3080   43.0490 N   0  0  0  0  0  0  0  0  0  0  0  0
   38.7120   30.6000   43.1300 C   0  0  0  0  0  0  0  0  0  0  0  0
   39.5230   26.0630   41.2500 N   0  0  0  0  0  0  0  0  0  0  0  0
   40.0460   25.1960   40.2020 C   0  0  0  0  0  0  0  0  0  0  0  0
   39.7050   26.0320   38.9690 C   0  0  0  0  0  0  0  0  0  0  0  0
   40.0260   27.4530   39.3860 C   0  0  0  0  0  0  0  0  0  0  0  0
   40.1510   27.3390   40.8700 C   0  0  1  0  0  0  0  0  0  0  0  0
   39.4690   31.9630   45.6710 C   0  0  2  0  0  0  0  0  0  0  0  0
   37.0820   31.2000   48.3580 C   0  0  0  0  0  0  0  0  0  0  0  0
   37.4990   32.1990   49.2750 C   0  0  0  0  0  0  0  0  0  0  0  0
   38.8770   33.0550   48.4140 S   0  0  0  0  0  0  0  0  0  0  0  0
   38.6330   31.8680   46.9170 C   0  0  0  0  0  0  0  0  0  0  0  0
   37.7940   31.2290   47.2550 N   0  0  0  0  0  0  0  0  0  0  0  0
   35.8840   29.8090   50.0030 C   0  0  0  0  0  0  0  0  0  0  0  0
   35.9820   30.3230   48.7160 C   0  0  0  0  0  0  0  0  0  0  0  0
   34.9690   29.9450   47.8220 C   0  0  0  0  0  0  0  0  0  0  0  0
   33.9830   29.1280   48.2420 N   0  0  0  0  0  0  0  0  0  0  0  0
   33.9330   28.6590   49.4940 C   0  0  0  0  0  0  0  0  0  0  0  0
   34.8840   29.0010   50.3710 N   0  0  0  0  0  0  0  0  0  0  0  0
   40.6310   32.8250   45.9640 C   0  0  0  0  0  0  0  0  0  0  0  0
   37.8070   33.1749   45.0219 H   0  0  0  0  0  0  0  0  0  0  0  0
   39.2411   33.1468   43.8997 H   0  0  0  0  0  0  0  0  0  0  0  0
   35.8019   31.9024   43.7971 H   0  0  0  0  0  0  0  0  0  0  0  0
   42.4715   29.6286   42.8024 H   0  0  0  0  0  0  0  0  0  0  0  0
   42.2118   28.2190   41.7402 H   0  0  0  0  0  0  0  0  0  0  0  0
   38.4950   26.1200   41.2203 H   0  0  0  0  0  0  0  0  0  0  0  0
   41.1304   25.0420   40.3033 H   0  0  0  0  0  0  0  0  0  0  0  0
   39.6348   24.1757   40.1975 H   0  0  0  0  0  0  0  0  0  0  0  0
   38.6403   25.9317   38.7114 H   0  0  0  0  0  0  0  0  0  0  0  0
   40.2659   25.7168   38.0768 H   0  0  0  0  0  0  0  0  0  0  0  0
   40.9682   27.7959   38.9337 H   0  0  0  0  0  0  0  0  0  0  0  0
   39.2683   28.1836   39.0665 H   0  0  0  0  0  0  0  0  0  0  0  0
   41.2209   27.3715   41.1234 H   0  0  0  0  0  0  0  0  0  0  0  0
   39.8393   30.9809   45.3419 H   0  0  0  0  0  0  0  0  0  0  0  0
   37.0903   32.4122   50.2737 H   0  0  0  0  0  0  0  0  0  0  0  0
   36.6534   30.0751   50.7428 H   0  0  0  0  0  0  0  0  0  0  0  0
   34.9795   30.3130   46.7854 H   0  0  0  0  0  0  0  0  0  0  0  0
   33.1124   27.9941   49.8016 H   0  0  0  0  0  0  0  0  0  0  0  0
   40.7543   32.9165   47.0532 H   0  0  0  0  0  0  0  0  0  0  0  0
   41.5374   32.3791   45.5285 H   0  0  0  0  0  0  0  0  0  0  0  0
   40.4672   33.8218   45.5285 H   0  0  0  0  0  0  0  0  0  0  0  0
  1 18  1  0
  2  1  1  0
  3  2  1  0
  4  3  2  0
  5  4  1  0
  5 12  2  0
  6  5  1  0
  7  6  2  0
  8  6  1  0
  8  9  1  0
  9 11  2  0
 10  9  1  0
 11 12  1  0
 12  2  1  0
 14 13  1  0
 15 16  1  0
 15 14  1  0
 17 16  1  0
 17 13  1  0
 17  8  1  0
 18 30  1  0
 18 22  1  0
 19 25  1  0
 19 20  2  0
 21 20  1  0
 22 23  2  0
 22 21  1  0
 23 19  1  0
 24 29  2  0
 25 24  1  0
 26 27  1  0
 26 25  2  0
 27 28  2  0
 28 29  1  0
  1 31  1  0
  1 32  1  0
  3 33  1  0
 10 34  1  0
 10 35  1  0
 13 36  1  0
 14 37  1  0
 14 38  1  0
 15 39  1  0
 15 40  1  0
 16 41  1  0
 16 42  1  0
 17 43  1  6
 18 44  1  6
 20 45  1  0
 24 46  1  0
 26 47  1  0
 28 48  1  0
 30 49  1  0
 30 50  1  0
 30 51  1  0
M  ISO  8  31   8  32   8  33  14  36   5  37  13  38  13  39  13  40  13
M  ISO  8  41  13  42  13  43  13  44   8  45  14  46  14  47  14  48  14
M  ISO  3  49   8  50   8  51   8
M  END
>  <minimizedAffinity>  (1) 
-6.20342922

>  <minimizedRMSD>  (1) 
1.17146206

$$$$
