
     RDKit          3D

 46 50  0  0  1  0  0  0  0  0999 V2000
   38.7010   32.8330   44.6490 C   0  0  0  0  0  0  0  0  0  0  0  0
   37.9880   31.9850   43.7430 N   0  0  0  0  0  0  0  0  0  0  0  0
   36.7090   31.9910   43.3310 C   0  0  0  0  0  0  0  0  0  0  0  0
   36.5580   30.9670   42.4650 N   0  0  0  0  0  0  0  0  0  0  0  0
   37.7140   30.2990   42.3110 C   0  0  0  0  0  0  0  0  0  0  0  0
   38.0520   29.1960   41.5470 C   0  0  0  0  0  0  0  0  0  0  0  0
   37.2400   28.5950   40.8030 O   0  0  0  0  0  0  0  0  0  0  0  0
   39.2980   28.7350   41.5900 N   0  0  0  0  0  0  0  0  0  0  0  0
   40.1820   29.3630   42.3770 C   0  0  0  0  0  0  0  0  0  0  0  0
   41.5390   28.9020   42.4470 N   0  0  0  0  0  0  0  0  0  0  0  0
   39.8890   30.4450   43.1390 N   0  0  0  0  0  0  0  0  0  0  0  0
   38.6370   30.9450   43.1250 C   0  0  0  0  0  0  0  0  0  0  0  0
   39.6710   27.5940   40.8090 C   0  0  0  0  0  0  0  0  0  0  0  0
   39.4890   26.2710   41.0700 C   0  0  0  0  0  0  0  0  0  0  0  0
   39.9240   25.3270   40.1830 C   0  0  0  0  0  0  0  0  0  0  0  0
   40.5650   25.8390   39.0000 C   0  0  0  0  0  0  0  0  0  0  0  0
   40.4750   27.7130   39.2920 S   0  0  0  0  0  0  0  0  0  0  0  0
   39.4840   32.0670   45.7190 C   0  0  2  0  0  0  0  0  0  0  0  0
   36.9510   30.9890   48.1510 C   0  0  0  0  0  0  0  0  0  0  0  0
   37.2910   31.8980   49.1850 C   0  0  0  0  0  0  0  0  0  0  0  0
   38.6930   32.8630   48.5040 S   0  0  0  0  0  0  0  0  0  0  0  0
   38.5710   31.8300   46.8840 C   0  0  0  0  0  0  0  0  0  0  0  0
   37.7300   31.1450   47.1050 N   0  0  0  0  0  0  0  0  0  0  0  0
   35.9060   29.1160   49.3560 C   0  0  0  0  0  0  0  0  0  0  0  0
   35.8500   30.0630   48.3440 C   0  0  0  0  0  0  0  0  0  0  0  0
   34.6880   30.0630   47.5580 C   0  0  0  0  0  0  0  0  0  0  0  0
   33.7110   29.1740   47.8110 N   0  0  0  0  0  0  0  0  0  0  0  0
   33.8100   28.2750   48.8030 C   0  0  0  0  0  0  0  0  0  0  0  0
   34.9150   28.2480   49.5790 N   0  0  0  0  0  0  0  0  0  0  0  0
   40.6550   32.8330   46.1920 C   0  0  0  0  0  0  0  0  0  0  0  0
   37.9771   33.4908   45.1522 H   0  0  0  0  0  0  0  0  0  0  0  0
   39.4349   33.3960   44.0537 H   0  0  0  0  0  0  0  0  0  0  0  0
   35.9282   32.7005   43.6425 H   0  0  0  0  0  0  0  0  0  0  0  0
   42.2168   29.3863   43.0527 H   0  0  0  0  0  0  0  0  0  0  0  0
   41.8353   28.0868   41.8916 H   0  0  0  0  0  0  0  0  0  0  0  0
   38.9894   25.9600   41.9993 H   0  0  0  0  0  0  0  0  0  0  0  0
   39.7933   24.2494   40.3607 H   0  0  0  0  0  0  0  0  0  0  0  0
   40.9944   25.2888   38.1498 H   0  0  0  0  0  0  0  0  0  0  0  0
   39.8431   31.1235   45.2820 H   0  0  0  0  0  0  0  0  0  0  0  0
   36.8195   32.0009   50.1735 H   0  0  0  0  0  0  0  0  0  0  0  0
   36.7984   29.0783   49.9980 H   0  0  0  0  0  0  0  0  0  0  0  0
   34.5763   30.7874   46.7378 H   0  0  0  0  0  0  0  0  0  0  0  0
   32.9925   27.5615   48.9835 H   0  0  0  0  0  0  0  0  0  0  0  0
   40.6678   32.8413   47.2919 H   0  0  0  0  0  0  0  0  0  0  0  0
   41.5763   32.3624   45.8182 H   0  0  0  0  0  0  0  0  0  0  0  0
   40.5930   33.8657   45.8182 H   0  0  0  0  0  0  0  0  0  0  0  0
  1 18  1  0
  2  1  1  0
  3  2  1  0
  4  3  2  0
  5  4  1  0
  5 12  2  0
  6  8  1  0
  6  5  1  0
  7  6  2  0
  8  9  1  0
  9 10  1  0
  9 11  2  0
 12 11  1  0
 12  2  1  0
 13 14  2  0
 13  8  1  0
 15 14  1  0
 16 17  1  0
 16 15  2  0
 17 13  1  0
 18 30  1  0
 18 22  1  0
 19 25  1  0
 19 20  2  0
 21 20  1  0
 22 23  2  0
 22 21  1  0
 23 19  1  0
 24 29  2  0
 25 24  1  0
 26 27  1  0
 26 25  2  0
 27 28  2  0
 28 29  1  0
  1 31  1  0
  1 32  1  0
  3 33  1  0
 10 34  1  0
 10 35  1  0
 14 36  1  0
 15 37  1  0
 16 38  1  0
 18 39  1  6
 20 40  1  0
 24 41  1  0
 26 42  1  0
 28 43  1  0
 30 44  1  0
 30 45  1  0
 30 46  1  0
M  ISO  8  31   8  32   8  33  14  36  14  37  14  38  14  39   8  40  14
M  ISO  6  41  14  42  14  43  14  44   8  45   8  46   8
M  END
>  <minimizedAffinity>  (1) 
-6.08717585

>  <minimizedRMSD>  (1) 
1.60640132

$$$$
