
     RDKit          3D

 48 51  0  0  1  0  0  0  0  0999 V2000
   39.5900   32.3350   45.6710 C   0  0  2  0  0  0  0  0  0  0  0  0
   37.8150   31.8510   48.8530 C   0  0  0  0  0  0  0  0  0  0  0  0
   38.2660   33.0330   49.4970 C   0  0  0  0  0  0  0  0  0  0  0  0
   39.3530   33.8400   48.2710 S   0  0  0  0  0  0  0  0  0  0  0  0
   38.9990   32.3890   47.0530 C   0  0  0  0  0  0  0  0  0  0  0  0
   38.3160   31.7510   47.6460 N   0  0  0  0  0  0  0  0  0  0  0  0
   37.2720   30.3890   50.7670 C   0  0  0  0  0  0  0  0  0  0  0  0
   36.9090   30.9550   49.5520 C   0  0  0  0  0  0  0  0  0  0  0  0
   35.6410   30.6090   49.0700 C   0  0  0  0  0  0  0  0  0  0  0  0
   34.8650   29.7740   49.7840 N   0  0  0  0  0  0  0  0  0  0  0  0
   35.2600   29.2530   50.9510 C   0  0  0  0  0  0  0  0  0  0  0  0
   36.4680   29.5640   51.4410 N   0  0  0  0  0  0  0  0  0  0  0  0
   40.6430   33.3690   45.5850 C   0  0  0  0  0  0  0  0  0  0  0  0
   38.4560   32.5990   44.6680 C   0  0  0  0  0  0  0  0  0  0  0  0
   37.7390   31.4050   44.3100 N   0  0  0  0  0  0  0  0  0  0  0  0
   36.4390   31.0690   44.4290 C   0  0  0  0  0  0  0  0  0  0  0  0
   36.2940   29.8270   43.9310 N   0  0  0  0  0  0  0  0  0  0  0  0
   37.4690   29.3560   43.4950 C   0  0  0  0  0  0  0  0  0  0  0  0
   37.8220   28.1510   42.9120 C   0  0  0  0  0  0  0  0  0  0  0  0
   36.9830   27.2290   42.6900 O   0  0  0  0  0  0  0  0  0  0  0  0
   39.0880   27.9230   42.5620 N   0  0  0  0  0  0  0  0  0  0  0  0
   39.9640   28.9140   42.8060 C   0  0  0  0  0  0  0  0  0  0  0  0
   41.3430   28.7190   42.4480 N   0  0  0  0  0  0  0  0  0  0  0  0
   39.6600   30.0980   43.3690 N   0  0  0  0  0  0  0  0  0  0  0  0
   38.3890   30.3570   43.7350 C   0  0  0  0  0  0  0  0  0  0  0  0
   39.4750   26.6660   41.9510 C   0  0  0  0  0  0  0  0  0  0  0  0
   38.9160   26.5180   40.5560 C   0  0  0  0  0  0  0  0  0  0  0  0
   39.0680   25.4800   42.8080 C   0  0  0  0  0  0  0  0  0  0  0  0
   40.0412   31.3572   45.4468 H   0  0  0  0  0  0  0  0  0  0  0  0
   38.0164   33.3846   50.5090 H   0  0  0  0  0  0  0  0  0  0  0  0
   38.2587   30.6295   51.1896 H   0  0  0  0  0  0  0  0  0  0  0  0
   35.2817   31.0172   48.1138 H   0  0  0  0  0  0  0  0  0  0  0  0
   34.5968   28.5729   51.5056 H   0  0  0  0  0  0  0  0  0  0  0  0
   40.9472   33.6677   46.5990 H   0  0  0  0  0  0  0  0  0  0  0  0
   41.5119   32.9635   45.0460 H   0  0  0  0  0  0  0  0  0  0  0  0
   40.2534   34.2452   45.0460 H   0  0  0  0  0  0  0  0  0  0  0  0
   37.7489   33.3122   45.1168 H   0  0  0  0  0  0  0  0  0  0  0  0
   38.9121   32.9989   43.7504 H   0  0  0  0  0  0  0  0  0  0  0  0
   35.6419   31.6957   44.8554 H   0  0  0  0  0  0  0  0  0  0  0  0
   42.0315   29.4642   42.6255 H   0  0  0  0  0  0  0  0  0  0  0  0
   41.6422   27.8341   42.0140 H   0  0  0  0  0  0  0  0  0  0  0  0
   40.5723   26.6807   41.8761 H   0  0  0  0  0  0  0  0  0  0  0  0
   37.8541   26.2369   40.6144 H   0  0  0  0  0  0  0  0  0  0  0  0
   39.0135   27.4729   40.0187 H   0  0  0  0  0  0  0  0  0  0  0  0
   39.4732   25.7364   40.0187 H   0  0  0  0  0  0  0  0  0  0  0  0
   39.1597   25.7472   43.8711 H   0  0  0  0  0  0  0  0  0  0  0  0
   38.0253   25.2084   42.5868 H   0  0  0  0  0  0  0  0  0  0  0  0
   39.7243   24.6254   42.5868 H   0  0  0  0  0  0  0  0  0  0  0  0
  1  5  1  0
  2  3  2  0
  2  8  1  0
  4  3  1  0
  5  6  2  0
  5  4  1  0
  6  2  1  0
  7 12  2  0
  8  7  1  0
  9  8  2  0
  9 10  1  0
 10 11  2  0
 11 12  1  0
 13  1  1  0
 14  1  1  0
 15 16  1  0
 15 14  1  0
 17 16  2  0
 18 25  2  0
 18 17  1  0
 19 18  1  0
 20 19  2  0
 21 22  1  0
 21 19  1  0
 22 24  2  0
 23 22  1  0
 24 25  1  0
 25 15  1  0
 26 21  1  0
 26 28  1  0
 27 26  1  0
  1 29  1  6
  3 30  1  0
  7 31  1  0
  9 32  1  0
 11 33  1  0
 13 34  1  0
 13 35  1  0
 13 36  1  0
 14 37  1  0
 14 38  1  0
 16 39  1  0
 23 40  1  0
 23 41  1  0
 26 42  1  0
 27 43  1  0
 27 44  1  0
 27 45  1  0
 28 46  1  0
 28 47  1  0
 28 48  1  0
M  ISO  8  29   8  30  14  31  14  32  14  33  14  34   8  35   8  36   8
M  ISO  8  37   8  38   8  39  14  42   8  43   8  44   8  45   8  46   8
M  ISO  2  47   8  48   8
M  END
>  <minimizedAffinity>  (1) 
-6.07734776

>  <minimizedRMSD>  (1) 
0.645587444

$$$$
