
     RDKit          3D

 51 54  0  0  1  0  0  0  0  0999 V2000
   39.4530   32.4460   45.5510 C   0  0  2  0  0  0  0  0  0  0  0  0
   38.0100   31.9450   48.8910 C   0  0  0  0  0  0  0  0  0  0  0  0
   38.5410   33.1020   49.5140 C   0  0  0  0  0  0  0  0  0  0  0  0
   39.5140   33.9130   48.1870 S   0  0  0  0  0  0  0  0  0  0  0  0
   39.0090   32.4900   46.9890 C   0  0  0  0  0  0  0  0  0  0  0  0
   38.3780   31.8520   47.6380 N   0  0  0  0  0  0  0  0  0  0  0  0
   37.6100   30.5050   50.8630 C   0  0  0  0  0  0  0  0  0  0  0  0
   37.1600   31.0490   49.6670 C   0  0  0  0  0  0  0  0  0  0  0  0
   35.8630   30.6860   49.2740 C   0  0  0  0  0  0  0  0  0  0  0  0
   35.1450   29.8560   50.0520 N   0  0  0  0  0  0  0  0  0  0  0  0
   35.6260   29.3540   51.2040 C   0  0  0  0  0  0  0  0  0  0  0  0
   36.8570   29.6830   51.6000 N   0  0  0  0  0  0  0  0  0  0  0  0
   40.3170   33.6210   45.3080 C   0  0  0  0  0  0  0  0  0  0  0  0
   38.1890   32.4910   44.6760 C   0  0  0  0  0  0  0  0  0  0  0  0
   37.7990   31.2000   44.1840 N   0  0  0  0  0  0  0  0  0  0  0  0
   36.7930   30.3730   44.5270 C   0  0  0  0  0  0  0  0  0  0  0  0
   36.8840   29.2770   43.7460 N   0  0  0  0  0  0  0  0  0  0  0  0
   37.9340   29.3880   42.9060 C   0  0  0  0  0  0  0  0  0  0  0  0
   38.4140   28.5260   41.9380 C   0  0  0  0  0  0  0  0  0  0  0  0
   37.9070   27.4170   41.6650 O   0  0  0  0  0  0  0  0  0  0  0  0
   39.4860   28.8790   41.2340 N   0  0  0  0  0  0  0  0  0  0  0  0
   40.0480   30.0670   41.5080 C   0  0  0  0  0  0  0  0  0  0  0  0
   41.2030   30.5060   40.7660 N   0  0  0  0  0  0  0  0  0  0  0  0
   39.5990   30.9240   42.4460 N   0  0  0  0  0  0  0  0  0  0  0  0
   38.5230   30.6090   43.1790 C   0  0  0  0  0  0  0  0  0  0  0  0
   40.1080   28.0890   40.1920 C   0  0  0  0  0  0  0  0  0  0  0  0
   40.0270   26.6210   40.4100 C   0  0  0  0  0  0  0  0  0  0  0  0
   39.3880   28.3910   38.8870 C   0  0  0  0  0  0  0  0  0  0  0  0
   41.5870   28.4340   40.0260 C   0  0  0  0  0  0  0  0  0  0  0  0
   40.0217   31.5347   45.3141 H   0  0  0  0  0  0  0  0  0  0  0  0
   38.4019   33.4363   50.5527 H   0  0  0  0  0  0  0  0  0  0  0  0
   38.6204   30.7594   51.2156 H   0  0  0  0  0  0  0  0  0  0  0  0
   35.4370   31.0766   48.3381 H   0  0  0  0  0  0  0  0  0  0  0  0
   35.0094   28.6778   51.8144 H   0  0  0  0  0  0  0  0  0  0  0  0
   40.6322   34.0497   46.2707 H   0  0  0  0  0  0  0  0  0  0  0  0
   41.2044   33.3117   44.7362 H   0  0  0  0  0  0  0  0  0  0  0  0
   39.7572   34.3758   44.7362 H   0  0  0  0  0  0  0  0  0  0  0  0
   37.3629   32.9017   45.2750 H   0  0  0  0  0  0  0  0  0  0  0  0
   38.4165   33.1200   43.8028 H   0  0  0  0  0  0  0  0  0  0  0  0
   36.0352   30.5576   45.3027 H   0  0  0  0  0  0  0  0  0  0  0  0
   41.6342   31.4175   40.9762 H   0  0  0  0  0  0  0  0  0  0  0  0
   41.5972   29.9083   40.0256 H   0  0  0  0  0  0  0  0  0  0  0  0
   40.0154   26.4107   41.4897 H   0  0  0  0  0  0  0  0  0  0  0  0
   39.1060   26.2324   39.9508 H   0  0  0  0  0  0  0  0  0  0  0  0
   40.8996   26.1334   39.9508 H   0  0  0  0  0  0  0  0  0  0  0  0
   38.3937   28.8081   39.1048 H   0  0  0  0  0  0  0  0  0  0  0  0
   39.9721   29.1199   38.3061 H   0  0  0  0  0  0  0  0  0  0  0  0
   39.2773   27.4635   38.3061 H   0  0  0  0  0  0  0  0  0  0  0  0
   42.0517   28.5424   41.0171 H   0  0  0  0  0  0  0  0  0  0  0  0
   42.0911   27.6293   39.4707 H   0  0  0  0  0  0  0  0  0  0  0  0
   41.6831   29.3787   39.4707 H   0  0  0  0  0  0  0  0  0  0  0  0
  1  5  1  0
  2  3  2  0
  2  8  1  0
  4  3  1  0
  5  6  2  0
  5  4  1  0
  6  2  1  0
  7 12  2  0
  8  7  1  0
  9  8  2  0
  9 10  1  0
 10 11  2  0
 11 12  1  0
 13  1  1  0
 14  1  1  0
 15 16  1  0
 15 14  1  0
 17 16  2  0
 18 25  2  0
 18 17  1  0
 19 18  1  0
 20 19  2  0
 21 22  1  0
 21 19  1  0
 22 24  2  0
 23 22  1  0
 24 25  1  0
 25 15  1  0
 26 27  1  0
 26 21  1  0
 28 26  1  0
 29 26  1  0
  1 30  1  1
  3 31  1  0
  7 32  1  0
  9 33  1  0
 11 34  1  0
 13 35  1  0
 13 36  1  0
 13 37  1  0
 14 38  1  0
 14 39  1  0
 16 40  1  0
 23 41  1  0
 23 42  1  0
 27 43  1  0
 27 44  1  0
 27 45  1  0
 28 46  1  0
 28 47  1  0
 28 48  1  0
 29 49  1  0
 29 50  1  0
 29 51  1  0
M  ISO  8  30   8  31  14  32  14  33  14  34  14  35   8  36   8  37   8
M  ISO  8  38   8  39   8  40  14  43   8  44   8  45   8  46   8  47   8
M  ISO  4  48   8  49   8  50   8  51   8
M  END
>  <minimizedAffinity>  (1) 
-5.77457047

>  <minimizedRMSD>  (1) 
1.10065436

$$$$
