
     RDKit          3D

 37 38  0  0  0  0  0  0  0  0999 V2000
   39.2450   32.0540   45.9730 C   0  0  0  0  0  0  0  0  0  0  0  0
   38.3710   32.6180   49.6290 C   0  0  0  0  0  0  0  0  0  0  0  0
   38.8600   32.8970   48.3460 C   0  0  0  0  0  0  0  0  0  0  0  0
   38.7760   31.9070   47.3600 C   0  0  0  0  0  0  0  0  0  0  0  0
   38.2090   30.6970   47.7040 N   0  0  0  0  0  0  0  0  0  0  0  0
   37.7500   30.4770   48.9570 C   0  0  0  0  0  0  0  0  0  0  0  0
   37.8260   31.4200   49.9130 N   0  0  0  0  0  0  0  0  0  0  0  0
   39.8890   30.7460   45.5660 C   0  0  0  0  0  0  0  0  0  0  0  0
   40.2280   33.1600   45.7740 C   0  0  0  0  0  0  0  0  0  0  0  0
   38.0690   32.3790   45.1060 C   0  0  0  0  0  0  0  0  0  0  0  0
   37.8370   31.6040   43.9580 N   0  0  0  0  0  0  0  0  0  0  0  0
   38.7010   30.5380   43.6310 C   0  0  0  0  0  0  0  0  0  0  0  0
   39.1350   30.5520   42.1680 C   0  0  0  0  0  0  0  0  0  0  0  0
   39.6770   31.9080   41.7730 C   0  0  0  0  0  0  0  0  0  0  0  0
   38.8230   33.0330   42.3210 C   0  0  0  0  0  0  0  0  0  0  0  0
   37.5450   32.4390   42.8220 C   0  0  0  0  0  0  0  0  0  0  0  0
   38.4331   33.3867   50.4134 H   0  0  0  0  0  0  0  0  0  0  0  0
   39.3026   33.8777   48.1174 H   0  0  0  0  0  0  0  0  0  0  0  0
   37.3031   29.5018   49.2005 H   0  0  0  0  0  0  0  0  0  0  0  0
   40.1682   30.1790   46.4663 H   0  0  0  0  0  0  0  0  0  0  0  0
   39.1776   30.1575   44.9680 H   0  0  0  0  0  0  0  0  0  0  0  0
   40.7892   30.9510   44.9680 H   0  0  0  0  0  0  0  0  0  0  0  0
   40.5612   33.5349   46.7530 H   0  0  0  0  0  0  0  0  0  0  0  0
   41.0948   32.7833   45.2112 H   0  0  0  0  0  0  0  0  0  0  0  0
   39.7522   33.9766   45.2112 H   0  0  0  0  0  0  0  0  0  0  0  0
   37.1712   32.2987   45.7365 H   0  0  0  0  0  0  0  0  0  0  0  0
   38.3012   33.3780   44.7085 H   0  0  0  0  0  0  0  0  0  0  0  0
   39.5981   30.6067   44.2638 H   0  0  0  0  0  0  0  0  0  0  0  0
   38.1494   29.6019   43.8025 H   0  0  0  0  0  0  0  0  0  0  0  0
   39.9186   29.7946   42.0186 H   0  0  0  0  0  0  0  0  0  0  0  0
   38.2583   30.3305   41.5416 H   0  0  0  0  0  0  0  0  0  0  0  0
   40.6990   32.0120   42.1663 H   0  0  0  0  0  0  0  0  0  0  0  0
   39.6690   31.9744   40.6750 H   0  0  0  0  0  0  0  0  0  0  0  0
   39.3504   33.5347   43.1457 H   0  0  0  0  0  0  0  0  0  0  0  0
   38.6181   33.7755   41.5357 H   0  0  0  0  0  0  0  0  0  0  0  0
   36.8557   33.2425   43.1209 H   0  0  0  0  0  0  0  0  0  0  0  0
   37.0741   31.8402   42.0285 H   0  0  0  0  0  0  0  0  0  0  0  0
  1  4  1  0
  2  7  2  0
  3  2  1  0
  4  5  1  0
  4  3  2  0
  5  6  2  0
  6  7  1  0
  8  1  1  0
  9  1  1  0
 10  1  1  0
 11 10  1  0
 12 11  1  0
 13 12  1  0
 14 13  1  0
 14 15  1  0
 15 16  1  0
 16 11  1  0
  2 17  1  0
  3 18  1  0
  6 19  1  0
  8 20  1  0
  8 21  1  0
  8 22  1  0
  9 23  1  0
  9 24  1  0
  9 25  1  0
 10 26  1  0
 10 27  1  0
 12 28  1  0
 12 29  1  0
 13 30  1  0
 13 31  1  0
 14 32  1  0
 14 33  1  0
 15 34  1  0
 15 35  1  0
 16 36  1  0
 16 37  1  0
M  ISO  8  17  14  18  14  19  14  20   8  21   8  22   8  23   8  24   8
M  ISO  8  25   8  26   8  27   8  28  13  29  13  30  13  31  13  32  13
M  ISO  5  33  13  34  13  35  13  36  13  37  13
M  END
>  <minimizedAffinity>  (1) 
-4.69547749

>  <minimizedRMSD>  (1) 
2.68235421

$$$$
