
     RDKit          3D

 29 32  0  0  0  0  0  0  0  0999 V2000
   38.0520   31.5300   48.7130 C   0  0  0  0  0  0  0  0  0  0  0  0
   38.5740   32.7800   48.7670 N   0  0  0  0  0  0  0  0  0  0  0  0
   39.2120   33.0340   47.6590 O   0  0  0  0  0  0  0  0  0  0  0  0
   39.1180   31.9850   46.8920 C   0  0  0  0  0  0  0  0  0  0  0  0
   38.3960   31.0050   47.5070 N   0  0  0  0  0  0  0  0  0  0  0  0
   39.6400   31.7500   45.5760 N   0  0  0  0  0  0  0  0  0  0  0  0
   40.8110   31.2470   45.2150 C   0  0  0  0  0  0  0  0  0  0  0  0
   40.8940   31.1980   43.8690 N   0  0  0  0  0  0  0  0  0  0  0  0
   39.7450   31.6840   43.3680 C   0  0  0  0  0  0  0  0  0  0  0  0
   39.3120   31.8560   42.0900 C   0  0  0  0  0  0  0  0  0  0  0  0
   40.0890   31.5160   41.1460 O   0  0  0  0  0  0  0  0  0  0  0  0
   38.1010   32.3710   41.8090 N   0  0  0  0  0  0  0  0  0  0  0  0
   37.3660   32.6950   42.8890 C   0  0  0  0  0  0  0  0  0  0  0  0
   36.0620   33.2500   42.7480 N   0  0  0  0  0  0  0  0  0  0  0  0
   37.7530   32.5410   44.1710 N   0  0  0  0  0  0  0  0  0  0  0  0
   38.9600   32.0290   44.4440 C   0  0  0  0  0  0  0  0  0  0  0  0
   36.9030   29.6690   51.7710 C   0  0  0  0  0  0  0  0  0  0  0  0
   37.7530   30.4070   50.9220 C   0  0  0  0  0  0  0  0  0  0  0  0
   37.2640   30.7680   49.6720 C   0  0  0  0  0  0  0  0  0  0  0  0
   36.0020   30.3890   49.3420 N   0  0  0  0  0  0  0  0  0  0  0  0
   35.2110   29.6810   50.1770 C   0  0  0  0  0  0  0  0  0  0  0  0
   35.6600   29.3210   51.3900 N   0  0  0  0  0  0  0  0  0  0  0  0
   41.5985   30.9182   45.9091 H   0  0  0  0  0  0  0  0  0  0  0  0
   37.7637   32.5063   40.8452 H   0  0  0  0  0  0  0  0  0  0  0  0
   35.5123   33.4926   43.5846 H   0  0  0  0  0  0  0  0  0  0  0  0
   35.6686   33.4088   41.8094 H   0  0  0  0  0  0  0  0  0  0  0  0
   37.2637   29.3711   52.7666 H   0  0  0  0  0  0  0  0  0  0  0  0
   38.7686   30.6875   51.2381 H   0  0  0  0  0  0  0  0  0  0  0  0
   34.1956   29.3984   49.8622 H   0  0  0  0  0  0  0  0  0  0  0  0
  1  2  2  0
  1 19  1  0
  3  2  1  0
  4  5  2  0
  4  3  1  0
  5  1  1  0
  6  4  1  0
  7  6  1  0
  8  7  2  0
  9  8  1  0
  9 16  2  0
 10  9  1  0
 11 10  2  0
 12 10  1  0
 12 13  1  0
 13 15  2  0
 14 13  1  0
 15 16  1  0
 16  6  1  0
 18 17  2  0
 19 18  1  0
 20 19  2  0
 20 21  1  0
 21 22  2  0
 22 17  1  0
  7 23  1  0
 12 24  1  0
 14 25  1  0
 14 26  1  0
 17 27  1  0
 18 28  1  0
 21 29  1  0
M  ISO  5  23  14  24   9  27  14  28  14  29  14
M  END
>  <minimizedAffinity>  (1) 
-6.84186745

>  <minimizedRMSD>  (1) 
0.883390903

$$$$
