
     RDKit          3D

 28 30  0  0  0  0  0  0  0  0999 V2000
   38.0530   31.4880   48.4150 C   0  0  0  0  0  0  0  0  0  0  0  0
   38.8600   32.5750   48.4000 N   0  0  0  0  0  0  0  0  0  0  0  0
   39.1940   32.8470   47.1790 O   0  0  0  0  0  0  0  0  0  0  0  0
   38.6350   31.9770   46.3870 C   0  0  0  0  0  0  0  0  0  0  0  0
   37.9140   31.1120   47.1270 N   0  0  0  0  0  0  0  0  0  0  0  0
   38.8270   32.0300   44.9780 N   0  0  0  0  0  0  0  0  0  0  0  0
   37.9100   32.4910   44.1080 C   0  0  0  0  0  0  0  0  0  0  0  0
   38.1690   32.5140   42.7370 C   0  0  0  0  0  0  0  0  0  0  0  0
   37.1880   33.0110   41.7640 C   0  0  0  0  0  0  0  0  0  0  0  0
   39.3970   32.0430   42.3460 C   0  0  0  0  0  0  0  0  0  0  0  0
   39.6620   32.0510   41.1080 O   0  0  0  0  0  0  0  0  0  0  0  0
   40.3440   31.5730   43.1990 N   0  0  0  0  0  0  0  0  0  0  0  0
   40.0220   31.5820   44.5030 C   0  0  0  0  0  0  0  0  0  0  0  0
   40.8940   31.1440   45.3250 O   0  0  0  0  0  0  0  0  0  0  0  0
   37.2690   29.9430   51.7540 C   0  0  0  0  0  0  0  0  0  0  0  0
   37.9680   30.6450   50.7710 C   0  0  0  0  0  0  0  0  0  0  0  0
   37.4050   30.7750   49.5130 C   0  0  0  0  0  0  0  0  0  0  0  0
   36.1860   30.2110   49.2850 N   0  0  0  0  0  0  0  0  0  0  0  0
   35.5400   29.5390   50.2650 C   0  0  0  0  0  0  0  0  0  0  0  0
   36.0720   29.4040   51.4890 N   0  0  0  0  0  0  0  0  0  0  0  0
   36.9421   32.8551   44.4829 H   0  0  0  0  0  0  0  0  0  0  0  0
   36.3300   33.4457   42.2978 H   0  0  0  0  0  0  0  0  0  0  0  0
   37.6555   33.7810   41.1327 H   0  0  0  0  0  0  0  0  0  0  0  0
   36.8436   32.1786   41.1327 H   0  0  0  0  0  0  0  0  0  0  0  0
   41.2559   31.2297   42.8652 H   0  0  0  0  0  0  0  0  0  0  0  0
   37.7059   29.8312   52.7573 H   0  0  0  0  0  0  0  0  0  0  0  0
   38.9503   31.0878   50.9922 H   0  0  0  0  0  0  0  0  0  0  0  0
   34.5568   29.0934   50.0537 H   0  0  0  0  0  0  0  0  0  0  0  0
  1 17  1  0
  2  1  2  0
  3  2  1  0
  4  5  2  0
  4  3  1  0
  5  1  1  0
  6  4  1  0
  7  6  1  0
  8  7  2  0
  9  8  1  0
 10  8  1  0
 10 12  1  0
 11 10  2  0
 12 13  1  0
 13  6  1  0
 13 14  2  0
 16 15  2  0
 17 16  1  0
 18 17  2  0
 18 19  1  0
 19 20  2  0
 20 15  1  0
  7 21  1  0
  9 22  1  0
  9 23  1  0
  9 24  1  0
 12 25  1  0
 15 26  1  0
 16 27  1  0
 19 28  1  0
M  ISO  8  21  14  22   8  23   8  24   8  25   9  26  14  27  14  28  14
M  END
>  <minimizedAffinity>  (1) 
-6.28952789

>  <minimizedRMSD>  (1) 
1.20897698

$$$$
