
     RDKit          3D

 25 27  0  0  0  0  0  0  0  0999 V2000
   38.0670   31.6230   48.5420 C   0  0  0  0  0  0  0  0  0  0  0  0
   38.8330   32.7250   48.6190 N   0  0  0  0  0  0  0  0  0  0  0  0
   39.2820   33.0480   47.4600 O   0  0  0  0  0  0  0  0  0  0  0  0
   38.8300   32.1770   46.5980 C   0  0  0  0  0  0  0  0  0  0  0  0
   38.0520   31.2480   47.2290 N   0  0  0  0  0  0  0  0  0  0  0  0
   39.0630   32.1270   45.1950 N   0  0  0  0  0  0  0  0  0  0  0  0
   38.0940   32.5280   44.3210 C   0  0  0  0  0  0  0  0  0  0  0  0
   38.1930   32.5300   42.9480 C   0  0  0  0  0  0  0  0  0  0  0  0
   39.3720   32.0870   42.4170 C   0  0  0  0  0  0  0  0  0  0  0  0
   39.5070   32.0700   41.1790 O   0  0  0  0  0  0  0  0  0  0  0  0
   40.3370   31.6880   43.2650 N   0  0  0  0  0  0  0  0  0  0  0  0
   40.2050   31.7000   44.6220 C   0  0  0  0  0  0  0  0  0  0  0  0
   41.1340   31.3180   45.3760 O   0  0  0  0  0  0  0  0  0  0  0  0
   37.0640   29.8100   51.6660 C   0  0  0  0  0  0  0  0  0  0  0  0
   37.8660   30.5620   50.7990 C   0  0  0  0  0  0  0  0  0  0  0  0
   37.3300   30.8500   49.5360 C   0  0  0  0  0  0  0  0  0  0  0  0
   36.0880   30.3880   49.2440 N   0  0  0  0  0  0  0  0  0  0  0  0
   35.3500   29.6660   50.1130 C   0  0  0  0  0  0  0  0  0  0  0  0
   35.8410   29.3790   51.3230 N   0  0  0  0  0  0  0  0  0  0  0  0
   37.1468   32.8822   44.7538 H   0  0  0  0  0  0  0  0  0  0  0  0
   37.3645   32.8712   42.3099 H   0  0  0  0  0  0  0  0  0  0  0  0
   41.2263   31.3544   42.8665 H   0  0  0  0  0  0  0  0  0  0  0  0
   37.4513   29.5635   52.6656 H   0  0  0  0  0  0  0  0  0  0  0  0
   38.8670   30.9096   51.0942 H   0  0  0  0  0  0  0  0  0  0  0  0
   34.3477   29.3147   49.8267 H   0  0  0  0  0  0  0  0  0  0  0  0
  1  2  2  0
  1 16  1  0
  3  2  1  0
  4  5  2  0
  4  3  1  0
  5  1  1  0
  6  4  1  0
  7  6  1  0
  8  7  2  0
  9  8  1  0
  9 11  1  0
 10  9  2  0
 11 12  1  0
 12  6  1  0
 12 13  2  0
 15 14  2  0
 16 15  1  0
 17 16  2  0
 17 18  1  0
 18 19  2  0
 19 14  1  0
  7 20  1  0
  8 21  1  0
 11 22  1  0
 14 23  1  0
 15 24  1  0
 18 25  1  0
M  ISO  6  20  14  21  14  22   9  23  14  24  14  25  14
M  END
>  <minimizedAffinity>  (1) 
-6.23404074

>  <minimizedRMSD>  (1) 
1.07602429

$$$$
