
     RDKit          3D

 32 33  0  0  0  0  0  0  0  0999 V2000
   39.3980   32.3500   46.0040 C   0  0  0  0  0  0  0  0  0  0  0  0
   38.0540   32.8050   49.5410 C   0  0  0  0  0  0  0  0  0  0  0  0
   38.8550   33.0090   48.4080 C   0  0  0  0  0  0  0  0  0  0  0  0
   38.6260   32.2300   47.2560 C   0  0  0  0  0  0  0  0  0  0  0  0
   37.6200   31.3140   47.3300 N   0  0  0  0  0  0  0  0  0  0  0  0
   36.8730   31.1430   48.4290 C   0  0  0  0  0  0  0  0  0  0  0  0
   37.0800   31.8800   49.5360 N   0  0  0  0  0  0  0  0  0  0  0  0
   40.2060   31.0750   45.8640 C   0  0  0  0  0  0  0  0  0  0  0  0
   40.3070   33.5300   45.9700 C   0  0  0  0  0  0  0  0  0  0  0  0
   38.4140   32.4530   44.8760 C   0  0  0  0  0  0  0  0  0  0  0  0
   38.7880   31.6650   43.6750 C   0  0  0  0  0  0  0  0  0  0  0  0
   39.7560   32.0070   42.7530 C   0  0  0  0  0  0  0  0  0  0  0  0
   40.0390   31.2100   41.6610 C   0  0  0  0  0  0  0  0  0  0  0  0
   39.2980   30.0320   41.5270 C   0  0  0  0  0  0  0  0  0  0  0  0
   38.3260   29.6750   42.4400 C   0  0  0  0  0  0  0  0  0  0  0  0
   38.0720   30.4960   43.5180 C   0  0  0  0  0  0  0  0  0  0  0  0
   38.2253   33.4094   50.4440 H   0  0  0  0  0  0  0  0  0  0  0  0
   39.6518   33.7673   48.4183 H   0  0  0  0  0  0  0  0  0  0  0  0
   36.0752   30.3857   48.4265 H   0  0  0  0  0  0  0  0  0  0  0  0
   40.4527   30.6857   46.8628 H   0  0  0  0  0  0  0  0  0  0  0  0
   39.6172   30.3263   45.3138 H   0  0  0  0  0  0  0  0  0  0  0  0
   41.1344   31.2878   45.3138 H   0  0  0  0  0  0  0  0  0  0  0  0
   40.5451   33.8391   46.9985 H   0  0  0  0  0  0  0  0  0  0  0  0
   41.2350   33.2629   45.4432 H   0  0  0  0  0  0  0  0  0  0  0  0
   39.8120   34.3591   45.4432 H   0  0  0  0  0  0  0  0  0  0  0  0
   37.4378   32.0946   45.2347 H   0  0  0  0  0  0  0  0  0  0  0  0
   38.3908   33.5091   44.5693 H   0  0  0  0  0  0  0  0  0  0  0  0
   40.3188   32.9419   42.8918 H   0  0  0  0  0  0  0  0  0  0  0  0
   40.8121   31.4894   40.9301 H   0  0  0  0  0  0  0  0  0  0  0  0
   39.4950   29.3711   40.6700 H   0  0  0  0  0  0  0  0  0  0  0  0
   37.7582   28.7421   42.3083 H   0  0  0  0  0  0  0  0  0  0  0  0
   37.3002   30.2197   44.2514 H   0  0  0  0  0  0  0  0  0  0  0  0
  1  4  1  0
  3  2  2  0
  4  5  2  0
  4  3  1  0
  5  6  1  0
  6  7  2  0
  7  2  1  0
  8  1  1  0
  9  1  1  0
 10  1  1  0
 11 10  1  0
 12 11  2  0
 13 12  1  0
 14 13  2  0
 14 15  1  0
 15 16  2  0
 16 11  1  0
  2 17  1  0
  3 18  1  0
  6 19  1  0
  8 20  1  0
  8 21  1  0
  8 22  1  0
  9 23  1  0
  9 24  1  0
  9 25  1  0
 10 26  1  0
 10 27  1  0
 12 28  1  0
 13 29  1  0
 14 30  1  0
 15 31  1  0
 16 32  1  0
M  ISO  8  17  14  18  14  19  14  20   8  21   8  22   8  23   8  24   8
M  ISO  8  25   8  26   8  27   8  28  14  29  14  30  14  31  14  32  14
M  END
>  <minimizedAffinity>  (1) 
-4.68820143

>  <minimizedRMSD>  (1) 
1.35784614

$$$$
