
     RDKit          3D

 30 32  0  0  0  0  0  0  0  0999 V2000
   38.4930   31.6670   48.2890 C   0  0  0  0  0  0  0  0  0  0  0  0
   38.9560   32.9260   48.3530 N   0  0  0  0  0  0  0  0  0  0  0  0
   39.5520   33.2560   47.2420 O   0  0  0  0  0  0  0  0  0  0  0  0
   39.4880   32.2280   46.4450 C   0  0  0  0  0  0  0  0  0  0  0  0
   38.8380   31.2220   47.0600 N   0  0  0  0  0  0  0  0  0  0  0  0
   40.0410   32.2310   45.1340 N   0  0  0  0  0  0  0  0  0  0  0  0
   39.8090   33.3840   44.2810 C   0  0  0  0  0  0  0  0  0  0  0  0
   38.9830   32.8380   43.1100 C   0  0  0  0  0  0  0  0  0  0  0  0
   39.9050   31.8400   42.4020 C   0  0  0  0  0  0  0  0  0  0  0  0
   40.1620   30.6730   43.3170 C   0  0  0  0  0  0  0  0  0  0  0  0
   40.8280   31.1360   44.5960 C   0  0  0  0  0  0  0  0  0  0  0  0
   37.2320   30.0770   51.4510 C   0  0  0  0  0  0  0  0  0  0  0  0
   37.9680   30.9120   50.6150 C   0  0  0  0  0  0  0  0  0  0  0  0
   37.7690   30.8340   49.2400 C   0  0  0  0  0  0  0  0  0  0  0  0
   36.8590   29.9420   48.7590 N   0  0  0  0  0  0  0  0  0  0  0  0
   36.1580   29.1420   49.6120 C   0  0  0  0  0  0  0  0  0  0  0  0
   36.3390   29.2040   50.9430 N   0  0  0  0  0  0  0  0  0  0  0  0
   39.2493   34.1612   44.8221 H   0  0  0  0  0  0  0  0  0  0  0  0
   40.7469   33.8522   43.9478 H   0  0  0  0  0  0  0  0  0  0  0  0
   38.0777   32.3332   43.4783 H   0  0  0  0  0  0  0  0  0  0  0  0
   38.6462   33.6384   42.4348 H   0  0  0  0  0  0  0  0  0  0  0  0
   39.4240   31.4852   41.4785 H   0  0  0  0  0  0  0  0  0  0  0  0
   40.8570   32.3296   42.1492 H   0  0  0  0  0  0  0  0  0  0  0  0
   39.2055   30.1883   43.5623 H   0  0  0  0  0  0  0  0  0  0  0  0
   40.8286   29.9621   42.8069 H   0  0  0  0  0  0  0  0  0  0  0  0
   40.8631   30.3090   45.3204 H   0  0  0  0  0  0  0  0  0  0  0  0
   41.8584   31.4650   44.3957 H   0  0  0  0  0  0  0  0  0  0  0  0
   37.3809   30.1301   52.5396 H   0  0  0  0  0  0  0  0  0  0  0  0
   38.6955   31.6223   51.0348 H   0  0  0  0  0  0  0  0  0  0  0  0
   35.4274   28.4293   49.2018 H   0  0  0  0  0  0  0  0  0  0  0  0
  1  2  2  0
  1 14  1  0
  3  2  1  0
  4  5  2  0
  4  3  1  0
  5  1  1  0
  6  4  1  0
  7  6  1  0
  8  7  1  0
  9  8  1  0
  9 10  1  0
 10 11  1  0
 11  6  1  0
 13 12  2  0
 14 13  1  0
 15 14  2  0
 15 16  1  0
 16 17  2  0
 17 12  1  0
  7 18  1  0
  7 19  1  0
  8 20  1  0
  8 21  1  0
  9 22  1  0
  9 23  1  0
 10 24  1  0
 10 25  1  0
 11 26  1  0
 11 27  1  0
 12 28  1  0
 13 29  1  0
 16 30  1  0
M  ISO  8  18  13  19  13  20  13  21  13  22  13  23  13  24  13  25  13
M  ISO  5  26  13  27  13  28  14  29  14  30  14
M  END
>  <minimizedAffinity>  (1) 
-5.98618507

>  <minimizedRMSD>  (1) 
0.527052164

$$$$
