
     RDKit          3D

 28 30  0  0  0  0  0  0  0  0999 V2000
   38.0200   31.6360   48.6730 C   0  0  0  0  0  0  0  0  0  0  0  0
   38.7460   32.7630   48.8410 N   0  0  0  0  0  0  0  0  0  0  0  0
   39.2890   33.1100   47.7090 O   0  0  0  0  0  0  0  0  0  0  0  0
   38.9340   32.2370   46.8110 C   0  0  0  0  0  0  0  0  0  0  0  0
   38.1360   31.2870   47.3630 N   0  0  0  0  0  0  0  0  0  0  0  0
   39.3390   32.2930   45.4580 N   0  0  0  0  0  0  0  0  0  0  0  0
   40.6950   31.9220   45.1030 C   0  0  0  0  0  0  0  0  0  0  0  0
   40.6530   31.1510   43.8220 C   0  0  0  0  0  0  0  0  0  0  0  0
   40.0590   31.7880   42.7630 O   0  0  0  0  0  0  0  0  0  0  0  0
   39.3180   32.9000   43.1300 C   0  0  0  0  0  0  0  0  0  0  0  0
   38.4860   32.7030   44.3680 C   0  0  0  0  0  0  0  0  0  0  0  0
   36.8650   29.6730   51.6600 C   0  0  0  0  0  0  0  0  0  0  0  0
   37.7180   30.4380   50.8480 C   0  0  0  0  0  0  0  0  0  0  0  0
   37.2250   30.8390   49.5980 C   0  0  0  0  0  0  0  0  0  0  0  0
   35.9560   30.4740   49.2280 N   0  0  0  0  0  0  0  0  0  0  0  0
   35.1760   29.7320   50.0550 C   0  0  0  0  0  0  0  0  0  0  0  0
   35.6280   29.3310   51.2710 N   0  0  0  0  0  0  0  0  0  0  0  0
   41.3057   32.8274   44.9719 H   0  0  0  0  0  0  0  0  0  0  0  0
   41.1398   31.3077   45.8997 H   0  0  0  0  0  0  0  0  0  0  0  0
   41.6885   30.9142   43.5361 H   0  0  0  0  0  0  0  0  0  0  0  0
   40.0324   30.2659   44.0254 H   0  0  0  0  0  0  0  0  0  0  0  0
   40.0125   33.7339   43.3097 H   0  0  0  0  0  0  0  0  0  0  0  0
   38.6175   33.1003   42.3058 H   0  0  0  0  0  0  0  0  0  0  0  0
   37.9860   33.6475   44.6284 H   0  0  0  0  0  0  0  0  0  0  0  0
   37.7283   31.9275   44.1823 H   0  0  0  0  0  0  0  0  0  0  0  0
   37.2229   29.3438   52.6467 H   0  0  0  0  0  0  0  0  0  0  0  0
   38.7309   30.7113   51.1788 H   0  0  0  0  0  0  0  0  0  0  0  0
   34.1617   29.4512   49.7350 H   0  0  0  0  0  0  0  0  0  0  0  0
  1  2  2  0
  1 14  1  0
  3  2  1  0
  4  5  2  0
  4  3  1  0
  5  1  1  0
  6  4  1  0
  7  6  1  0
  8  7  1  0
  9 10  1  0
  9  8  1  0
 10 11  1  0
 11  6  1  0
 13 12  2  0
 14 13  1  0
 15 14  2  0
 15 16  1  0
 16 17  2  0
 17 12  1  0
  7 18  1  0
  7 19  1  0
  8 20  1  0
  8 21  1  0
 10 22  1  0
 10 23  1  0
 11 24  1  0
 11 25  1  0
 12 26  1  0
 13 27  1  0
 16 28  1  0
M  ISO  8  18  13  19  13  20  13  21  13  22  13  23  13  24  13  25  13
M  ISO  3  26  14  27  14  28  14
M  END
>  <minimizedAffinity>  (1) 
-5.87272596

>  <minimizedRMSD>  (1) 
1.05346584

$$$$
