
     RDKit          3D

 31 33  0  0  0  0  0  0  0  0999 V2000
   38.0240   31.7860   48.9540 C   0  0  0  0  0  0  0  0  0  0  0  0
   38.5850   32.9880   49.2050 N   0  0  0  0  0  0  0  0  0  0  0  0
   39.2490   33.4030   48.1710 O   0  0  0  0  0  0  0  0  0  0  0  0
   39.1320   32.4820   47.2290 C   0  0  0  0  0  0  0  0  0  0  0  0
   38.3740   31.4660   47.6920 N   0  0  0  0  0  0  0  0  0  0  0  0
   36.7500   29.5660   51.7010 C   0  0  0  0  0  0  0  0  0  0  0  0
   37.6200   30.3860   50.9870 C   0  0  0  0  0  0  0  0  0  0  0  0
   37.1950   30.9170   49.7810 C   0  0  0  0  0  0  0  0  0  0  0  0
   35.9330   30.6160   49.3320 N   0  0  0  0  0  0  0  0  0  0  0  0
   35.1080   29.8120   50.0540 C   0  0  0  0  0  0  0  0  0  0  0  0
   35.5070   29.2860   51.2320 N   0  0  0  0  0  0  0  0  0  0  0  0
   39.7080   32.4860   45.8580 C   0  0  0  0  0  0  0  0  0  0  0  0
   38.6810   32.8200   44.8130 C   0  0  0  0  0  0  0  0  0  0  0  0
   39.3610   32.8390   43.4770 C   0  0  0  0  0  0  0  0  0  0  0  0
   40.0730   31.5800   43.1220 C   0  0  0  0  0  0  0  0  0  0  0  0
   40.8700   30.9630   44.2420 C   0  0  0  0  0  0  0  0  0  0  0  0
   40.1870   31.0830   45.5770 C   0  0  0  0  0  0  0  0  0  0  0  0
   37.0752   29.1381   52.6608 H   0  0  0  0  0  0  0  0  0  0  0  0
   38.6256   30.6076   51.3737 H   0  0  0  0  0  0  0  0  0  0  0  0
   34.1009   29.5867   49.6731 H   0  0  0  0  0  0  0  0  0  0  0  0
   40.5077   33.2400   45.8152 H   0  0  0  0  0  0  0  0  0  0  0  0
   37.8863   32.0595   44.8155 H   0  0  0  0  0  0  0  0  0  0  0  0
   38.2298   33.8008   45.0236 H   0  0  0  0  0  0  0  0  0  0  0  0
   38.5986   33.0299   42.7074 H   0  0  0  0  0  0  0  0  0  0  0  0
   40.1287   33.6249   43.5308 H   0  0  0  0  0  0  0  0  0  0  0  0
   39.3238   30.8456   42.7912 H   0  0  0  0  0  0  0  0  0  0  0  0
   40.7979   31.8465   42.3387 H   0  0  0  0  0  0  0  0  0  0  0  0
   41.0220   29.8965   44.0194 H   0  0  0  0  0  0  0  0  0  0  0  0
   41.8246   31.5057   44.3079 H   0  0  0  0  0  0  0  0  0  0  0  0
   39.3209   30.4051   45.5921 H   0  0  0  0  0  0  0  0  0  0  0  0
   40.9212   30.8193   46.3525 H   0  0  0  0  0  0  0  0  0  0  0  0
  1  2  2  0
  1  8  1  0
  3  2  1  0
  4  5  2  0
  4  3  1  0
  5  1  1  0
  7  6  2  0
  8  7  1  0
  9  8  2  0
  9 10  1  0
 10 11  2  0
 11  6  1  0
 12  4  1  0
 13 12  1  0
 14 13  1  0
 15 14  1  0
 15 16  1  0
 16 17  1  0
 17 12  1  0
  6 18  1  0
  7 19  1  0
 10 20  1  0
 12 21  1  0
 13 22  1  0
 13 23  1  0
 14 24  1  0
 14 25  1  0
 15 26  1  0
 15 27  1  0
 16 28  1  0
 16 29  1  0
 17 30  1  0
 17 31  1  0
M  ISO  8  18  14  19  14  20  14  21  13  22  13  23  13  24  13  25  13
M  ISO  6  26  13  27  13  28  13  29  13  30  13  31  13
M  END
>  <minimizedAffinity>  (1) 
-5.86301517

>  <minimizedRMSD>  (1) 
1.60198748

$$$$
