
     RDKit          3D

 23 25  0  0  0  0  0  0  0  0999 V2000
   38.3700   31.4840   48.1760 C   0  0  0  0  0  0  0  0  0  0  0  0
   39.0050   32.6710   48.1540 N   0  0  0  0  0  0  0  0  0  0  0  0
   39.4350   32.9380   46.9750 O   0  0  0  0  0  0  0  0  0  0  0  0
   39.0970   31.9380   46.1800 C   0  0  0  0  0  0  0  0  0  0  0  0
   38.4260   31.0070   46.9050 N   0  0  0  0  0  0  0  0  0  0  0  0
   37.3220   30.1190   51.5010 C   0  0  0  0  0  0  0  0  0  0  0  0
   38.0190   30.9140   50.5730 C   0  0  0  0  0  0  0  0  0  0  0  0
   37.7040   30.7100   49.2250 C   0  0  0  0  0  0  0  0  0  0  0  0
   36.7700   29.7860   48.8850 N   0  0  0  0  0  0  0  0  0  0  0  0
   36.1340   29.0500   49.8250 C   0  0  0  0  0  0  0  0  0  0  0  0
   36.4040   29.2140   51.1260 N   0  0  0  0  0  0  0  0  0  0  0  0
   39.4150   31.8800   44.7580 C   0  0  0  0  0  0  0  0  0  0  0  0
   40.0870   30.7720   44.2880 C   0  0  0  0  0  0  0  0  0  0  0  0
   40.3580   30.7790   42.9230 C   0  0  0  0  0  0  0  0  0  0  0  0
   39.9970   31.7940   42.0920 N   0  0  0  0  0  0  0  0  0  0  0  0
   39.3430   32.8490   42.6040 C   0  0  0  0  0  0  0  0  0  0  0  0
   39.0570   32.8840   43.9370 N   0  0  0  0  0  0  0  0  0  0  0  0
   37.5369   30.2434   52.5726 H   0  0  0  0  0  0  0  0  0  0  0  0
   38.7690   31.6540   50.8891 H   0  0  0  0  0  0  0  0  0  0  0  0
   35.3845   28.3064   49.5162 H   0  0  0  0  0  0  0  0  0  0  0  0
   40.3874   29.9421   44.9445 H   0  0  0  0  0  0  0  0  0  0  0  0
   40.8921   29.9187   42.4934 H   0  0  0  0  0  0  0  0  0  0  0  0
   39.0394   33.6809   41.9515 H   0  0  0  0  0  0  0  0  0  0  0  0
  1  8  1  0
  2  1  2  0
  3  2  1  0
  4  5  2  0
  4  3  1  0
  5  1  1  0
  7  6  2  0
  8  7  1  0
  9  8  2  0
  9 10  1  0
 10 11  2  0
 11  6  1  0
 12  4  1  0
 13 12  2  0
 14 13  1  0
 15 16  1  0
 15 14  2  0
 16 17  2  0
 17 12  1  0
  6 18  1  0
  7 19  1  0
 10 20  1  0
 13 21  1  0
 14 22  1  0
 16 23  1  0
M  ISO  6  18  14  19  14  20  14  21  14  22  14  23  14
M  END
>  <minimizedAffinity>  (1) 
-5.49452639

>  <minimizedRMSD>  (1) 
0.500587463

$$$$
