
     RDKit          3D

 36 37  0  0  0  0  0  0  0  0999 V2000
   39.0580   32.1250   45.8760 C   0  0  0  0  0  0  0  0  0  0  0  0
   38.2160   32.7900   49.5290 C   0  0  0  0  0  0  0  0  0  0  0  0
   38.8620   32.9060   48.2940 C   0  0  0  0  0  0  0  0  0  0  0  0
   38.4430   32.0910   47.2250 C   0  0  0  0  0  0  0  0  0  0  0  0
   37.4170   31.2310   47.4650 N   0  0  0  0  0  0  0  0  0  0  0  0
   36.8160   31.1460   48.6640 C   0  0  0  0  0  0  0  0  0  0  0  0
   37.2100   31.9190   49.6940 N   0  0  0  0  0  0  0  0  0  0  0  0
   39.6490   30.7510   45.6520 C   0  0  0  0  0  0  0  0  0  0  0  0
   40.1250   33.1600   45.7050 C   0  0  0  0  0  0  0  0  0  0  0  0
   37.9620   32.3920   44.8900 C   0  0  0  0  0  0  0  0  0  0  0  0
   38.2230   32.1280   43.5330 N   0  0  0  0  0  0  0  0  0  0  0  0
   39.4200   32.5160   42.9310 C   0  0  0  0  0  0  0  0  0  0  0  0
   40.1010   31.4410   42.1080 C   0  0  0  0  0  0  0  0  0  0  0  0
   39.2070   30.5310   41.4690 N   0  0  0  0  0  0  0  0  0  0  0  0
   38.3760   29.9210   42.4760 C   0  0  0  0  0  0  0  0  0  0  0  0
   37.4820   31.0460   43.0040 C   0  0  0  0  0  0  0  0  0  0  0  0
   38.5361   33.4190   50.3727 H   0  0  0  0  0  0  0  0  0  0  0  0
   39.6851   33.6232   48.1598 H   0  0  0  0  0  0  0  0  0  0  0  0
   35.9896   30.4341   48.8063 H   0  0  0  0  0  0  0  0  0  0  0  0
   39.8530   30.2768   46.6233 H   0  0  0  0  0  0  0  0  0  0  0  0
   38.9369   30.1336   45.0849 H   0  0  0  0  0  0  0  0  0  0  0  0
   40.5870   30.8433   45.0849 H   0  0  0  0  0  0  0  0  0  0  0  0
   40.4715   33.4961   46.6934 H   0  0  0  0  0  0  0  0  0  0  0  0
   40.9693   32.7277   45.1479 H   0  0  0  0  0  0  0  0  0  0  0  0
   39.7186   34.0170   45.1479 H   0  0  0  0  0  0  0  0  0  0  0  0
   37.0989   31.7768   45.1840 H   0  0  0  0  0  0  0  0  0  0  0  0
   37.8063   33.4800   44.9360 H   0  0  0  0  0  0  0  0  0  0  0  0
   39.2085   33.3693   42.2698 H   0  0  0  0  0  0  0  0  0  0  0  0
   40.1116   32.7597   43.7510 H   0  0  0  0  0  0  0  0  0  0  0  0
   40.7039   31.9334   41.3308 H   0  0  0  0  0  0  0  0  0  0  0  0
   40.7057   30.8462   42.8084 H   0  0  0  0  0  0  0  0  0  0  0  0
   38.6180   31.0393   40.7940 H   0  0  0  0  0  0  0  0  0  0  0  0
   37.7653   29.1187   42.0363 H   0  0  0  0  0  0  0  0  0  0  0  0
   38.9747   29.4646   43.2780 H   0  0  0  0  0  0  0  0  0  0  0  0
   36.8581   31.4172   42.1776 H   0  0  0  0  0  0  0  0  0  0  0  0
   36.8714   30.6308   43.8193 H   0  0  0  0  0  0  0  0  0  0  0  0
  1  4  1  0
  2  7  2  0
  3  2  1  0
  4  5  1  0
  4  3  2  0
  5  6  2  0
  6  7  1  0
  8  1  1  0
  9  1  1  0
 10  1  1  0
 11 10  1  0
 12 11  1  0
 13 12  1  0
 14 13  1  0
 14 15  1  0
 15 16  1  0
 16 11  1  0
  2 17  1  0
  3 18  1  0
  6 19  1  0
  8 20  1  0
  8 21  1  0
  8 22  1  0
  9 23  1  0
  9 24  1  0
  9 25  1  0
 10 26  1  0
 10 27  1  0
 12 28  1  0
 12 29  1  0
 13 30  1  0
 13 31  1  0
 14 32  1  0
 15 33  1  0
 15 34  1  0
 16 35  1  0
 16 36  1  0
M  ISO  8  17  14  18  14  19  14  20   8  21   8  22   8  23   8  24   8
M  ISO  8  25   8  26   8  27   8  28  13  29  13  30  13  31  13  32   5
M  ISO  4  33  13  34  13  35  13  36  13
M  END
>  <minimizedAffinity>  (1) 
-4.63529396

>  <minimizedRMSD>  (1) 
0.636525214

$$$$
