
     RDKit          3D

 22 24  0  0  0  0  0  0  0  0999 V2000
   38.2130   31.2350   48.3150 C   0  0  0  0  0  0  0  0  0  0  0  0
   38.7590   32.4620   48.1770 N   0  0  0  0  0  0  0  0  0  0  0  0
   39.3320   32.5720   47.0190 O   0  0  0  0  0  0  0  0  0  0  0  0
   39.1790   31.4470   46.3830 C   0  0  0  0  0  0  0  0  0  0  0  0
   38.4790   30.5660   47.1570 N   0  0  0  0  0  0  0  0  0  0  0  0
   37.1360   29.9820   51.6820 C   0  0  0  0  0  0  0  0  0  0  0  0
   37.9210   30.6060   50.7160 C   0  0  0  0  0  0  0  0  0  0  0  0
   37.4720   30.6120   49.3990 C   0  0  0  0  0  0  0  0  0  0  0  0
   36.2780   30.0040   49.1090 N   0  0  0  0  0  0  0  0  0  0  0  0
   35.5440   29.4070   50.0800 C   0  0  0  0  0  0  0  0  0  0  0  0
   35.9720   29.3950   51.3650 N   0  0  0  0  0  0  0  0  0  0  0  0
   39.6440   31.0680   45.0410 C   0  0  0  0  0  0  0  0  0  0  0  0
   40.3480   31.7980   44.1090 C   0  0  0  0  0  0  0  0  0  0  0  0
   40.5110   30.9350   43.0200 C   0  0  0  0  0  0  0  0  0  0  0  0
   39.9320   29.7610   43.3020 N   0  0  0  0  0  0  0  0  0  0  0  0
   39.4110   29.8380   44.5120 N   0  0  0  0  0  0  0  0  0  0  0  0
   37.4776   29.9701   52.7276 H   0  0  0  0  0  0  0  0  0  0  0  0
   38.8741   31.0832   50.9877 H   0  0  0  0  0  0  0  0  0  0  0  0
   34.5890   28.9264   49.8210 H   0  0  0  0  0  0  0  0  0  0  0  0
   40.7046   32.8345   44.2010 H   0  0  0  0  0  0  0  0  0  0  0  0
   41.0313   31.1813   42.0826 H   0  0  0  0  0  0  0  0  0  0  0  0
   39.8990   28.9395   42.6815 H   0  0  0  0  0  0  0  0  0  0  0  0
  1  8  1  0
  2  1  2  0
  3  2  1  0
  4  3  1  0
  4  5  2  0
  5  1  1  0
  7  6  2  0
  8  7  1  0
  9  8  2  0
  9 10  1  0
 10 11  2  0
 11  6  1  0
 12  4  1  0
 13 12  1  0
 14 15  1  0
 14 13  2  0
 15 16  1  0
 16 12  2  0
  6 17  1  0
  7 18  1  0
 10 19  1  0
 13 20  1  0
 14 21  1  0
 15 22  1  0
M  ISO  6  17  14  18  14  19  14  20  14  21  14  22   9
M  END
>  <minimizedAffinity>  (1) 
-5.28468037

>  <minimizedRMSD>  (1) 
0.642116189

$$$$
