
     RDKit          3D

 20 22  0  0  0  0  0  0  0  0999 V2000
   38.4180   31.5340   48.2140 C   0  0  0  0  0  0  0  0  0  0  0  0
   38.9940   32.7590   48.2290 N   0  0  0  0  0  0  0  0  0  0  0  0
   39.4770   33.0380   47.0730 O   0  0  0  0  0  0  0  0  0  0  0  0
   39.2410   32.0310   46.2810 C   0  0  0  0  0  0  0  0  0  0  0  0
   38.5700   31.0430   46.9470 N   0  0  0  0  0  0  0  0  0  0  0  0
   37.2940   30.1040   51.4890 C   0  0  0  0  0  0  0  0  0  0  0  0
   38.0080   30.9190   50.6000 C   0  0  0  0  0  0  0  0  0  0  0  0
   37.7290   30.7350   49.2370 C   0  0  0  0  0  0  0  0  0  0  0  0
   36.8160   29.8140   48.8530 N   0  0  0  0  0  0  0  0  0  0  0  0
   36.1540   29.0520   49.7620 C   0  0  0  0  0  0  0  0  0  0  0  0
   36.3960   29.1990   51.0780 N   0  0  0  0  0  0  0  0  0  0  0  0
   39.6090   31.9040   44.8720 C   0  0  0  0  0  0  0  0  0  0  0  0
   40.4970   31.1130   44.2270 N   0  0  0  0  0  0  0  0  0  0  0  0
   40.4770   31.3570   42.9580 O   0  0  0  0  0  0  0  0  0  0  0  0
   39.5840   32.3100   42.7280 C   0  0  0  0  0  0  0  0  0  0  0  0
   39.0280   32.6670   43.9120 N   0  0  0  0  0  0  0  0  0  0  0  0
   37.4785   30.2119   52.5680 H   0  0  0  0  0  0  0  0  0  0  0  0
   38.7432   31.6587   50.9497 H   0  0  0  0  0  0  0  0  0  0  0  0
   35.4162   28.3108   49.4209 H   0  0  0  0  0  0  0  0  0  0  0  0
   39.3367   32.7376   41.7451 H   0  0  0  0  0  0  0  0  0  0  0  0
  1  2  2  0
  1  8  1  0
  3  2  1  0
  4  5  2  0
  4  3  1  0
  5  1  1  0
  7  6  2  0
  8  7  1  0
  9  8  2  0
  9 10  1  0
 10 11  2  0
 11  6  1  0
 12  4  1  0
 13 12  2  0
 14 13  1  0
 15 14  1  0
 15 16  2  0
 16 12  1  0
  6 17  1  0
  7 18  1  0
 10 19  1  0
 15 20  1  0
M  ISO  4  17  14  18  14  19  14  20  14
M  END
>  <minimizedAffinity>  (1) 
-5.27519131

>  <minimizedRMSD>  (1) 
0.569553852

$$$$
