
     RDKit          3D

 21 23  0  0  0  0  0  0  0  0999 V2000
   38.3820   31.4810   48.2210 C   0  0  0  0  0  0  0  0  0  0  0  0
   38.9650   32.6900   48.2190 N   0  0  0  0  0  0  0  0  0  0  0  0
   39.4410   32.9420   47.0290 O   0  0  0  0  0  0  0  0  0  0  0  0
   39.1790   31.9250   46.2610 C   0  0  0  0  0  0  0  0  0  0  0  0
   38.5190   30.9950   46.9730 N   0  0  0  0  0  0  0  0  0  0  0  0
   37.3050   30.1150   51.5550 C   0  0  0  0  0  0  0  0  0  0  0  0
   38.0050   30.8790   50.6260 C   0  0  0  0  0  0  0  0  0  0  0  0
   37.7040   30.7260   49.2740 C   0  0  0  0  0  0  0  0  0  0  0  0
   36.7290   29.8320   48.8950 N   0  0  0  0  0  0  0  0  0  0  0  0
   36.0740   29.1090   49.8500 C   0  0  0  0  0  0  0  0  0  0  0  0
   36.3580   29.2490   51.1700 N   0  0  0  0  0  0  0  0  0  0  0  0
   39.5090   31.7410   44.8530 C   0  0  0  0  0  0  0  0  0  0  0  0
   38.8700   32.6620   43.9390 C   0  0  0  0  0  0  0  0  0  0  0  0
   39.5230   32.1260   42.2530 S   0  0  0  0  0  0  0  0  0  0  0  0
   40.5300   30.7670   43.1140 C   0  0  0  0  0  0  0  0  0  0  0  0
   40.2850   30.8960   44.2100 N   0  0  0  0  0  0  0  0  0  0  0  0
   37.5335   30.2242   52.6255 H   0  0  0  0  0  0  0  0  0  0  0  0
   38.7796   31.5887   50.9521 H   0  0  0  0  0  0  0  0  0  0  0  0
   35.2962   28.3947   49.5420 H   0  0  0  0  0  0  0  0  0  0  0  0
   38.1710   33.4789   44.1715 H   0  0  0  0  0  0  0  0  0  0  0  0
   41.1981   30.0248   42.6528 H   0  0  0  0  0  0  0  0  0  0  0  0
  1  8  1  0
  2  1  2  0
  3  2  1  0
  4  5  2  0
  4  3  1  0
  5  1  1  0
  7  6  2  0
  8  7  1  0
  9  8  2  0
  9 10  1  0
 10 11  2  0
 11  6  1  0
 12  4  1  0
 13 12  2  0
 14 15  1  0
 14 13  1  0
 15 16  2  0
 16 12  1  0
  6 17  1  0
  7 18  1  0
 10 19  1  0
 13 20  1  0
 15 21  1  0
M  ISO  5  17  14  18  14  19  14  20  14  21  14
M  END
>  <minimizedAffinity>  (1) 
-5.26099205

>  <minimizedRMSD>  (1) 
0.380970538

$$$$
