
     RDKit          3D

 21 22  0  0  0  0  0  0  0  0999 V2000
   37.0950   29.8610   51.2760 C   0  0  0  0  0  0  0  0  0  0  0  0
   37.8810   30.8430   50.6470 C   0  0  0  0  0  0  0  0  0  0  0  0
   37.7500   30.9480   49.2540 C   0  0  0  0  0  0  0  0  0  0  0  0
   36.8980   30.1280   48.5760 N   0  0  0  0  0  0  0  0  0  0  0  0
   36.1680   29.2010   49.2440 C   0  0  0  0  0  0  0  0  0  0  0  0
   36.2640   29.0660   50.5890 N   0  0  0  0  0  0  0  0  0  0  0  0
   38.5200   31.9370   48.4860 C   0  0  0  0  0  0  0  0  0  0  0  0
   38.9310   33.1940   48.7800 N   0  0  0  0  0  0  0  0  0  0  0  0
   39.5900   33.6950   47.7860 O   0  0  0  0  0  0  0  0  0  0  0  0
   39.6250   32.7860   46.8330 C   0  0  0  0  0  0  0  0  0  0  0  0
   38.9620   31.6620   47.2320 N   0  0  0  0  0  0  0  0  0  0  0  0
   40.2790   32.9010   45.4810 C   0  0  0  0  0  0  0  0  0  0  0  0
   40.8580   31.5970   45.0260 C   0  0  0  0  0  0  0  0  0  0  0  0
   37.1648   29.7419   52.3673 H   0  0  0  0  0  0  0  0  0  0  0  0
   38.5615   31.4934   51.2161 H   0  0  0  0  0  0  0  0  0  0  0  0
   35.4848   28.5460   48.6835 H   0  0  0  0  0  0  0  0  0  0  0  0
   39.5266   33.2303   44.7492 H   0  0  0  0  0  0  0  0  0  0  0  0
   41.1004   33.6283   45.5613 H   0  0  0  0  0  0  0  0  0  0  0  0
   41.1276   30.9897   45.9027 H   0  0  0  0  0  0  0  0  0  0  0  0
   40.1150   31.0572   44.4206 H   0  0  0  0  0  0  0  0  0  0  0  0
   41.7567   31.7862   44.4206 H   0  0  0  0  0  0  0  0  0  0  0  0
  2  1  2  0
  3  2  1  0
  4  5  1  0
  4  3  2  0
  5  6  2  0
  6  1  1  0
  7  8  2  0
  7  3  1  0
  9  8  1  0
 10 11  2  0
 10  9  1  0
 11  7  1  0
 12 10  1  0
 13 12  1  0
  1 14  1  0
  2 15  1  0
  5 16  1  0
 12 17  1  0
 12 18  1  0
 13 19  1  0
 13 20  1  0
 13 21  1  0
M  ISO  8  14  14  15  14  16  14  17   8  18   8  19   8  20   8  21   8
M  END
>  <minimizedAffinity>  (1) 
-4.79118443

>  <minimizedRMSD>  (1) 
0.86082989

$$$$
