
     RDKit          3D

 22 24  0  0  0  0  0  0  0  0999 V2000
   38.4180   31.5470   48.1900 C   0  0  0  0  0  0  0  0  0  0  0  0
   39.0350   32.7500   48.2210 N   0  0  0  0  0  0  0  0  0  0  0  0
   39.4930   33.0400   47.0350 O   0  0  0  0  0  0  0  0  0  0  0  0
   39.1910   32.0570   46.2340 C   0  0  0  0  0  0  0  0  0  0  0  0
   38.5120   31.0870   46.9110 N   0  0  0  0  0  0  0  0  0  0  0  0
   39.4930   31.9380   44.8360 N   0  0  0  0  0  0  0  0  0  0  0  0
   38.9400   32.7410   43.9230 N   0  0  0  0  0  0  0  0  0  0  0  0
   39.3970   32.4080   42.7000 C   0  0  0  0  0  0  0  0  0  0  0  0
   40.2760   31.3390   42.8990 C   0  0  0  0  0  0  0  0  0  0  0  0
   40.3240   31.0540   44.2550 C   0  0  0  0  0  0  0  0  0  0  0  0
   37.3110   30.1160   51.4830 C   0  0  0  0  0  0  0  0  0  0  0  0
   38.0130   30.9270   50.5770 C   0  0  0  0  0  0  0  0  0  0  0  0
   37.7390   30.7510   49.2180 C   0  0  0  0  0  0  0  0  0  0  0  0
   36.8210   29.8210   48.8240 N   0  0  0  0  0  0  0  0  0  0  0  0
   36.1740   29.0670   49.7390 C   0  0  0  0  0  0  0  0  0  0  0  0
   36.4120   29.2080   51.0680 N   0  0  0  0  0  0  0  0  0  0  0  0
   39.1329   32.8800   41.7421 H   0  0  0  0  0  0  0  0  0  0  0  0
   40.8356   30.8125   42.1118 H   0  0  0  0  0  0  0  0  0  0  0  0
   40.9163   30.2708   44.7508 H   0  0  0  0  0  0  0  0  0  0  0  0
   37.5021   30.2270   52.5606 H   0  0  0  0  0  0  0  0  0  0  0  0
   38.7475   31.6695   50.9223 H   0  0  0  0  0  0  0  0  0  0  0  0
   35.4384   28.3227   49.4000 H   0  0  0  0  0  0  0  0  0  0  0  0
  1  2  2  0
  1 13  1  0
  3  2  1  0
  4  5  2  0
  4  3  1  0
  5  1  1  0
  6  4  1  0
  7  6  1  0
  8  9  1  0
  8  7  2  0
  9 10  2  0
 10  6  1  0
 12 11  2  0
 13 12  1  0
 14 13  2  0
 14 15  1  0
 15 16  2  0
 16 11  1  0
  8 17  1  0
  9 18  1  0
 10 19  1  0
 11 20  1  0
 12 21  1  0
 15 22  1  0
M  ISO  6  17  14  18  14  19  14  20  14  21  14  22  14
M  END
>  <minimizedAffinity>  (1) 
-5.54190302

>  <minimizedRMSD>  (1) 
0.439354569

$$$$
