
     RDKit          3D

 38 41  0  0  0  0  0  0  0  0999 V2000
   37.3020   30.1840   51.1990 C   0  0  0  0  0  0  0  0  0  0  0  0
   38.0420   30.9460   50.2890 C   0  0  0  0  0  0  0  0  0  0  0  0
   37.7380   30.8570   48.9400 C   0  0  0  0  0  0  0  0  0  0  0  0
   36.7230   30.0270   48.5360 N   0  0  0  0  0  0  0  0  0  0  0  0
   36.0390   29.3150   49.4570 C   0  0  0  0  0  0  0  0  0  0  0  0
   36.3150   29.3820   50.7790 N   0  0  0  0  0  0  0  0  0  0  0  0
   38.4550   31.6130   47.9170 C   0  0  0  0  0  0  0  0  0  0  0  0
   39.1670   32.7690   47.9790 N   0  0  0  0  0  0  0  0  0  0  0  0
   39.6300   33.0590   46.7940 O   0  0  0  0  0  0  0  0  0  0  0  0
   39.2340   32.1160   45.9720 C   0  0  0  0  0  0  0  0  0  0  0  0
   38.4950   31.1880   46.6260 N   0  0  0  0  0  0  0  0  0  0  0  0
   39.5070   32.0160   44.5600 N   0  0  0  0  0  0  0  0  0  0  0  0
   39.0000   32.8840   43.6790 N   0  0  0  0  0  0  0  0  0  0  0  0
   39.4130   32.5570   42.4420 C   0  0  0  0  0  0  0  0  0  0  0  0
   40.2200   31.4170   42.5990 C   0  0  0  0  0  0  0  0  0  0  0  0
   40.2640   31.0940   43.9550 C   0  0  0  0  0  0  0  0  0  0  0  0
   34.9510   28.4290   48.9930 C   0  0  0  0  0  0  0  0  0  0  0  0
   34.6770   28.8300   47.5370 C   0  0  0  0  0  0  0  0  0  0  0  0
   33.8930   27.6870   46.9390 C   0  0  0  0  0  0  0  0  0  0  0  0
   32.8480   27.1430   47.8730 C   0  0  0  0  0  0  0  0  0  0  0  0
   32.4960   28.0780   48.9900 C   0  0  0  0  0  0  0  0  0  0  0  0
   33.6810   28.5910   49.7520 C   0  0  0  0  0  0  0  0  0  0  0  0
   37.5335   30.2442   52.2727 H   0  0  0  0  0  0  0  0  0  0  0  0
   38.8511   31.6044   50.6381 H   0  0  0  0  0  0  0  0  0  0  0  0
   39.1698   33.0743   41.5022 H   0  0  0  0  0  0  0  0  0  0  0  0
   40.7298   30.8726   41.7905 H   0  0  0  0  0  0  0  0  0  0  0  0
   40.8051   30.2600   44.4259 H   0  0  0  0  0  0  0  0  0  0  0  0
   35.2694   27.3847   49.1273 H   0  0  0  0  0  0  0  0  0  0  0  0
   34.0895   29.7592   47.4992 H   0  0  0  0  0  0  0  0  0  0  0  0
   35.6100   29.0152   46.9845 H   0  0  0  0  0  0  0  0  0  0  0  0
   33.3956   28.0429   46.0247 H   0  0  0  0  0  0  0  0  0  0  0  0
   34.6032   26.8738   46.7284 H   0  0  0  0  0  0  0  0  0  0  0  0
   31.9368   26.9360   47.2926 H   0  0  0  0  0  0  0  0  0  0  0  0
   33.2670   26.2354   48.3321 H   0  0  0  0  0  0  0  0  0  0  0  0
   31.9593   28.9388   48.5645 H   0  0  0  0  0  0  0  0  0  0  0  0
   31.8827   27.5065   49.7022 H   0  0  0  0  0  0  0  0  0  0  0  0
   33.7608   28.0361   50.6984 H   0  0  0  0  0  0  0  0  0  0  0  0
   33.5286   29.6658   49.9295 H   0  0  0  0  0  0  0  0  0  0  0  0
  2  1  2  0
  3  2  1  0
  4  3  2  0
  4  5  1  0
  5  6  2  0
  6  1  1  0
  7  8  2  0
  7  3  1  0
  9  8  1  0
 10 11  2  0
 10  9  1  0
 11  7  1  0
 12 10  1  0
 13 12  1  0
 14 15  1  0
 14 13  2  0
 15 16  2  0
 16 12  1  0
 17  5  1  0
 17 22  1  0
 18 17  1  0
 19 18  1  0
 19 20  1  0
 20 21  1  0
 21 22  1  0
  1 23  1  0
  2 24  1  0
 14 25  1  0
 15 26  1  0
 16 27  1  0
 17 28  1  0
 18 29  1  0
 18 30  1  0
 19 31  1  0
 19 32  1  0
 20 33  1  0
 20 34  1  0
 21 35  1  0
 21 36  1  0
 22 37  1  0
 22 38  1  0
M  ISO  8  23  14  24  14  25  14  26  14  27  14  28  13  29  13  30  13
M  ISO  8  31  13  32  13  33  13  34  13  35  13  36  13  37  13  38  13
M  END
>  <minimizedAffinity>  (1) 
-6.83110189

>  <minimizedRMSD>  (1) 
0.54525876

$$$$
