
     RDKit          3D

 29 32  0  0  0  0  0  0  0  0999 V2000
   37.3100   30.0920   51.4130 C   0  0  0  0  0  0  0  0  0  0  0  0
   38.0920   30.8610   50.5220 C   0  0  0  0  0  0  0  0  0  0  0  0
   37.6540   30.9170   49.2060 C   0  0  0  0  0  0  0  0  0  0  0  0
   36.5250   30.2480   48.8480 N   0  0  0  0  0  0  0  0  0  0  0  0
   35.8150   29.5300   49.7310 C   0  0  0  0  0  0  0  0  0  0  0  0
   36.2080   29.4510   51.0190 N   0  0  0  0  0  0  0  0  0  0  0  0
   34.6680   28.9070   49.1540 N   0  0  0  0  0  0  0  0  0  0  0  0
   33.5000   28.5040   49.6510 N   0  0  0  0  0  0  0  0  0  0  0  0
   32.7520   27.9680   48.6650 C   0  0  0  0  0  0  0  0  0  0  0  0
   33.4700   28.0290   47.4800 C   0  0  0  0  0  0  0  0  0  0  0  0
   34.6860   28.6310   47.8220 C   0  0  0  0  0  0  0  0  0  0  0  0
   38.3880   31.6870   48.1870 C   0  0  0  0  0  0  0  0  0  0  0  0
   39.0720   32.8420   48.2140 N   0  0  0  0  0  0  0  0  0  0  0  0
   39.5480   33.1090   47.0310 O   0  0  0  0  0  0  0  0  0  0  0  0
   39.1850   32.1450   46.2250 C   0  0  0  0  0  0  0  0  0  0  0  0
   38.4550   31.2260   46.9010 N   0  0  0  0  0  0  0  0  0  0  0  0
   39.4830   32.0170   44.8260 N   0  0  0  0  0  0  0  0  0  0  0  0
   38.9960   32.8400   43.9080 N   0  0  0  0  0  0  0  0  0  0  0  0
   39.4410   32.4820   42.6880 C   0  0  0  0  0  0  0  0  0  0  0  0
   40.2470   31.3690   42.8980 C   0  0  0  0  0  0  0  0  0  0  0  0
   40.2720   31.0770   44.2570 C   0  0  0  0  0  0  0  0  0  0  0  0
   37.6199   30.0194   52.4660 H   0  0  0  0  0  0  0  0  0  0  0  0
   38.9993   31.3871   50.8535 H   0  0  0  0  0  0  0  0  0  0  0  0
   31.7405   27.5516   48.7814 H   0  0  0  0  0  0  0  0  0  0  0  0
   33.1524   27.6798   46.4864 H   0  0  0  0  0  0  0  0  0  0  0  0
   35.5152   28.8447   47.1315 H   0  0  0  0  0  0  0  0  0  0  0  0
   39.2143   32.9681   41.7276 H   0  0  0  0  0  0  0  0  0  0  0  0
   40.7794   30.8093   42.1148 H   0  0  0  0  0  0  0  0  0  0  0  0
   40.8137   30.2617   44.7588 H   0  0  0  0  0  0  0  0  0  0  0  0
  2  1  2  0
  3  2  1  0
  4  3  2  0
  4  5  1  0
  5  6  2  0
  6  1  1  0
  7  8  1  0
  7  5  1  0
  9  8  2  0
 10 11  2  0
 10  9  1  0
 11  7  1  0
 12 13  2  0
 12  3  1  0
 14 13  1  0
 15 16  2  0
 15 14  1  0
 16 12  1  0
 17 15  1  0
 18 17  1  0
 19 20  1  0
 19 18  2  0
 20 21  2  0
 21 17  1  0
  1 22  1  0
  2 23  1  0
  9 24  1  0
 10 25  1  0
 11 26  1  0
 19 27  1  0
 20 28  1  0
 21 29  1  0
M  ISO  8  22  14  23  14  24  14  25  14  26  14  27  14  28  14  29  14
M  END
>  <minimizedAffinity>  (1) 
-6.65433645

>  <minimizedRMSD>  (1) 
0.663609624

$$$$
