
     RDKit          3D

 25 27  0  0  0  0  0  0  0  0999 V2000
   38.3040   31.6990   48.5570 C   0  0  0  0  0  0  0  0  0  0  0  0
   38.9350   32.9030   48.6000 N   0  0  0  0  0  0  0  0  0  0  0  0
   39.4440   33.1860   47.4400 O   0  0  0  0  0  0  0  0  0  0  0  0
   39.1650   32.1990   46.6330 C   0  0  0  0  0  0  0  0  0  0  0  0
   38.4520   31.2410   47.2870 N   0  0  0  0  0  0  0  0  0  0  0  0
   39.5210   32.0660   45.2490 N   0  0  0  0  0  0  0  0  0  0  0  0
   38.9920   32.8640   44.3050 N   0  0  0  0  0  0  0  0  0  0  0  0
   39.5020   32.5160   43.1050 C   0  0  0  0  0  0  0  0  0  0  0  0
   40.3840   31.4480   43.3570 C   0  0  0  0  0  0  0  0  0  0  0  0
   40.3730   31.1870   44.7180 C   0  0  0  0  0  0  0  0  0  0  0  0
   37.3590   29.9470   51.7370 C   0  0  0  0  0  0  0  0  0  0  0  0
   38.1090   30.6910   50.8210 C   0  0  0  0  0  0  0  0  0  0  0  0
   37.5830   30.9290   49.5600 C   0  0  0  0  0  0  0  0  0  0  0  0
   36.3520   30.4350   49.2390 N   0  0  0  0  0  0  0  0  0  0  0  0
   35.6550   29.7170   50.1570 C   0  0  0  0  0  0  0  0  0  0  0  0
   36.1530   29.4710   51.4040 N   0  0  0  0  0  0  0  0  0  0  0  0
   34.3290   29.2100   49.7500 C   0  0  0  0  0  0  0  0  0  0  0  0
   34.2930   27.8280   49.6250 F   0  0  0  0  0  0  0  0  0  0  0  0
   33.9150   29.7280   48.5500 F   0  0  0  0  0  0  0  0  0  0  0  0
   33.3620   29.6060   50.6830 F   0  0  0  0  0  0  0  0  0  0  0  0
   39.2752   32.9729   42.1304 H   0  0  0  0  0  0  0  0  0  0  0  0
   40.9797   30.9126   42.6030 H   0  0  0  0  0  0  0  0  0  0  0  0
   40.9478   30.4149   45.2504 H   0  0  0  0  0  0  0  0  0  0  0  0
   37.7639   29.7510   52.7408 H   0  0  0  0  0  0  0  0  0  0  0  0
   39.1000   31.0812   51.0960 H   0  0  0  0  0  0  0  0  0  0  0  0
  1  2  2  0
  1 13  1  0
  3  2  1  0
  4  5  2  0
  4  3  1  0
  5  1  1  0
  6  4  1  0
  7  6  1  0
  8  9  1  0
  8  7  2  0
  9 10  2  0
 10  6  1  0
 12 11  2  0
 13 12  1  0
 14 13  2  0
 14 15  1  0
 15 16  2  0
 16 11  1  0
 17 15  1  0
 17 20  1  0
 18 17  1  0
 19 17  1  0
  8 21  1  0
  9 22  1  0
 10 23  1  0
 11 24  1  0
 12 25  1  0
M  ISO  5  21  14  22  14  23  14  24  14  25  14
M  END
>  <minimizedAffinity>  (1) 
-6.61999846

>  <minimizedRMSD>  (1) 
0.985921621

$$$$
