
     RDKit          3D

 32 35  0  0  0  0  0  0  0  0999 V2000
   36.8640   29.8070   51.5560 C   0  0  0  0  0  0  0  0  0  0  0  0
   37.6950   30.6060   50.7480 C   0  0  0  0  0  0  0  0  0  0  0  0
   37.3620   30.6620   49.3900 C   0  0  0  0  0  0  0  0  0  0  0  0
   36.2820   29.9710   48.8920 N   0  0  0  0  0  0  0  0  0  0  0  0
   35.5350   29.2260   49.7430 C   0  0  0  0  0  0  0  0  0  0  0  0
   35.8090   29.1340   51.0610 N   0  0  0  0  0  0  0  0  0  0  0  0
   38.1400   31.4620   48.4350 C   0  0  0  0  0  0  0  0  0  0  0  0
   38.8190   32.6350   48.5840 N   0  0  0  0  0  0  0  0  0  0  0  0
   39.3610   32.9700   47.4500 O   0  0  0  0  0  0  0  0  0  0  0  0
   39.0550   32.0520   46.5740 C   0  0  0  0  0  0  0  0  0  0  0  0
   38.2860   31.0800   47.1480 N   0  0  0  0  0  0  0  0  0  0  0  0
   39.4330   32.0020   45.1930 N   0  0  0  0  0  0  0  0  0  0  0  0
   38.9910   32.8670   44.2900 N   0  0  0  0  0  0  0  0  0  0  0  0
   39.4940   32.5990   43.0790 C   0  0  0  0  0  0  0  0  0  0  0  0
   40.3110   31.4690   43.2800 C   0  0  0  0  0  0  0  0  0  0  0  0
   40.2510   31.1200   44.6120 C   0  0  0  0  0  0  0  0  0  0  0  0
   34.3900   28.4940   49.2130 C   0  0  0  0  0  0  0  0  0  0  0  0
   33.1100   28.7620   49.6540 C   0  0  0  0  0  0  0  0  0  0  0  0
   32.0110   28.0630   49.1490 C   0  0  0  0  0  0  0  0  0  0  0  0
   32.2210   27.0910   48.1920 C   0  0  0  0  0  0  0  0  0  0  0  0
   33.4840   26.7920   47.7250 C   0  0  0  0  0  0  0  0  0  0  0  0
   34.5500   27.5130   48.2560 C   0  0  0  0  0  0  0  0  0  0  0  0
   37.0850   29.7300   52.6308 H   0  0  0  0  0  0  0  0  0  0  0  0
   38.5553   31.1540   51.1598 H   0  0  0  0  0  0  0  0  0  0  0  0
   39.3108   33.1394   42.1386 H   0  0  0  0  0  0  0  0  0  0  0  0
   40.8972   30.9529   42.5054 H   0  0  0  0  0  0  0  0  0  0  0  0
   40.7723   30.2828   45.0992 H   0  0  0  0  0  0  0  0  0  0  0  0
   32.9525   29.5393   50.4162 H   0  0  0  0  0  0  0  0  0  0  0  0
   30.9950   28.2837   49.5082 H   0  0  0  0  0  0  0  0  0  0  0  0
   31.3578   26.5398   47.7908 H   0  0  0  0  0  0  0  0  0  0  0  0
   33.6427   26.0146   46.9631 H   0  0  0  0  0  0  0  0  0  0  0  0
   35.5655   27.2906   47.8964 H   0  0  0  0  0  0  0  0  0  0  0  0
  2  1  2  0
  3  2  1  0
  4  3  2  0
  4  5  1  0
  5  6  2  0
  6  1  1  0
  7  8  2  0
  7  3  1  0
  9  8  1  0
 10 11  2  0
 10  9  1  0
 11  7  1  0
 12 10  1  0
 13 12  1  0
 14 15  1  0
 14 13  2  0
 15 16  2  0
 16 12  1  0
 17 18  2  0
 17  5  1  0
 19 18  1  0
 20 19  2  0
 21 20  1  0
 21 22  2  0
 22 17  1  0
  1 23  1  0
  2 24  1  0
 14 25  1  0
 15 26  1  0
 16 27  1  0
 18 28  1  0
 19 29  1  0
 20 30  1  0
 21 31  1  0
 22 32  1  0
M  ISO  8  23  14  24  14  25  14  26  14  27  14  28  14  29  14  30  14
M  ISO  2  31  14  32  14
M  END
>  <minimizedAffinity>  (1) 
-6.52750158

>  <minimizedRMSD>  (1) 
0.749228001

$$$$
