
     RDKit          3D

 29 32  0  0  0  0  0  0  0  0999 V2000
   38.4180   31.6680   48.0140 C   0  0  0  0  0  0  0  0  0  0  0  0
   39.1430   32.8200   48.0670 N   0  0  0  0  0  0  0  0  0  0  0  0
   39.6290   33.0840   46.8860 O   0  0  0  0  0  0  0  0  0  0  0  0
   39.2500   32.1510   46.0750 C   0  0  0  0  0  0  0  0  0  0  0  0
   38.4790   31.2250   46.7330 N   0  0  0  0  0  0  0  0  0  0  0  0
   39.5370   32.0150   44.6800 N   0  0  0  0  0  0  0  0  0  0  0  0
   39.0590   32.8770   43.7650 N   0  0  0  0  0  0  0  0  0  0  0  0
   39.5030   32.4780   42.5530 C   0  0  0  0  0  0  0  0  0  0  0  0
   40.2750   31.3390   42.7330 C   0  0  0  0  0  0  0  0  0  0  0  0
   40.2750   31.0760   44.0840 C   0  0  0  0  0  0  0  0  0  0  0  0
   37.2960   30.1660   51.2720 C   0  0  0  0  0  0  0  0  0  0  0  0
   38.0850   30.8880   50.3630 C   0  0  0  0  0  0  0  0  0  0  0  0
   37.6770   30.9460   49.0390 C   0  0  0  0  0  0  0  0  0  0  0  0
   36.5240   30.3020   48.6580 N   0  0  0  0  0  0  0  0  0  0  0  0
   35.7980   29.6190   49.5790 C   0  0  0  0  0  0  0  0  0  0  0  0
   36.1770   29.5480   50.8780 N   0  0  0  0  0  0  0  0  0  0  0  0
   34.6210   29.0050   49.0140 N   0  0  0  0  0  0  0  0  0  0  0  0
   33.5020   28.3860   49.4400 C   0  0  0  0  0  0  0  0  0  0  0  0
   32.7750   28.0350   48.3130 C   0  0  0  0  0  0  0  0  0  0  0  0
   33.4610   28.4400   47.2330 N   0  0  0  0  0  0  0  0  0  0  0  0
   34.6090   29.0440   47.6540 C   0  0  0  0  0  0  0  0  0  0  0  0
   39.2900   32.9696   41.5923 H   0  0  0  0  0  0  0  0  0  0  0  0
   40.7864   30.7601   41.9499 H   0  0  0  0  0  0  0  0  0  0  0  0
   40.7904   30.2420   44.5828 H   0  0  0  0  0  0  0  0  0  0  0  0
   37.6032   30.1074   52.3266 H   0  0  0  0  0  0  0  0  0  0  0  0
   39.0038   31.3950   50.6926 H   0  0  0  0  0  0  0  0  0  0  0  0
   33.2188   28.1952   50.4856 H   0  0  0  0  0  0  0  0  0  0  0  0
   31.8055   27.5154   48.3053 H   0  0  0  0  0  0  0  0  0  0  0  0
   35.3852   29.4834   47.0102 H   0  0  0  0  0  0  0  0  0  0  0  0
  1  2  2  0
  1 13  1  0
  3  2  1  0
  4  5  2  0
  4  3  1  0
  5  1  1  0
  6  4  1  0
  7  6  1  0
  8  9  1  0
  8  7  2  0
  9 10  2  0
 10  6  1  0
 12 11  2  0
 13 12  1  0
 14 13  2  0
 14 15  1  0
 15 16  2  0
 16 11  1  0
 17 18  1  0
 17 15  1  0
 19 18  2  0
 20 21  2  0
 20 19  1  0
 21 17  1  0
  8 22  1  0
  9 23  1  0
 10 24  1  0
 11 25  1  0
 12 26  1  0
 18 27  1  0
 19 28  1  0
 21 29  1  0
M  ISO  8  22  14  23  14  24  14  25  14  26  14  27  14  28  14  29  14
M  END
>  <minimizedAffinity>  (1) 
-6.50042248

>  <minimizedRMSD>  (1) 
0.749920189

$$$$
