
     RDKit          3D

 27 30  0  0  0  0  0  0  0  0999 V2000
   37.2870   30.0540   51.3420 C   0  0  0  0  0  0  0  0  0  0  0  0
   38.0660   30.8130   50.4580 C   0  0  0  0  0  0  0  0  0  0  0  0
   37.6250   30.8710   49.1250 C   0  0  0  0  0  0  0  0  0  0  0  0
   36.4950   30.2130   48.7390 N   0  0  0  0  0  0  0  0  0  0  0  0
   35.7860   29.4970   49.6370 C   0  0  0  0  0  0  0  0  0  0  0  0
   36.1750   29.4160   50.9250 N   0  0  0  0  0  0  0  0  0  0  0  0
   38.3760   31.6430   48.1220 C   0  0  0  0  0  0  0  0  0  0  0  0
   39.0880   32.7970   48.1820 N   0  0  0  0  0  0  0  0  0  0  0  0
   39.5730   33.0740   47.0040 O   0  0  0  0  0  0  0  0  0  0  0  0
   39.2000   32.1380   46.1840 C   0  0  0  0  0  0  0  0  0  0  0  0
   38.4430   31.2080   46.8290 N   0  0  0  0  0  0  0  0  0  0  0  0
   39.4990   32.0260   44.7800 N   0  0  0  0  0  0  0  0  0  0  0  0
   39.0170   32.8940   43.8850 N   0  0  0  0  0  0  0  0  0  0  0  0
   39.4680   32.5310   42.6580 C   0  0  0  0  0  0  0  0  0  0  0  0
   40.2600   31.3880   42.8410 C   0  0  0  0  0  0  0  0  0  0  0  0
   40.2650   31.0890   44.1860 C   0  0  0  0  0  0  0  0  0  0  0  0
   34.5710   28.7740   49.2780 C   0  0  0  0  0  0  0  0  0  0  0  0
   33.3320   28.8010   49.8080 N   0  0  0  0  0  0  0  0  0  0  0  0
   32.5550   27.9740   49.1490 O   0  0  0  0  0  0  0  0  0  0  0  0
   33.2660   27.4030   48.1920 C   0  0  0  0  0  0  0  0  0  0  0  0
   34.5180   27.8940   48.2640 N   0  0  0  0  0  0  0  0  0  0  0  0
   37.5889   29.9774   52.3970 H   0  0  0  0  0  0  0  0  0  0  0  0
   38.9750   31.3359   50.7902 H   0  0  0  0  0  0  0  0  0  0  0  0
   39.2539   33.0355   41.7042 H   0  0  0  0  0  0  0  0  0  0  0  0
   40.7839   30.8296   42.0513 H   0  0  0  0  0  0  0  0  0  0  0  0
   40.7881   30.2546   44.6760 H   0  0  0  0  0  0  0  0  0  0  0  0
   32.9008   26.6605   47.4673 H   0  0  0  0  0  0  0  0  0  0  0  0
  2  1  2  0
  3  2  1  0
  4  3  2  0
  4  5  1  0
  5  6  2  0
  6  1  1  0
  7  8  2  0
  7  3  1  0
  9  8  1  0
 10 11  2  0
 10  9  1  0
 11  7  1  0
 12 10  1  0
 13 12  1  0
 14 15  1  0
 14 13  2  0
 15 16  2  0
 16 12  1  0
 17  5  1  0
 17 18  2  0
 19 18  1  0
 20 21  2  0
 20 19  1  0
 21 17  1  0
  1 22  1  0
  2 23  1  0
 14 24  1  0
 15 25  1  0
 16 26  1  0
 20 27  1  0
M  ISO  6  22  14  23  14  24  14  25  14  26  14  27  14
M  END
>  <minimizedAffinity>  (1) 
-6.26999092

>  <minimizedRMSD>  (1) 
0.662330389

$$$$
