
     RDKit          3D

 30 33  0  0  0  0  0  0  0  0999 V2000
   37.4380   30.8970   50.5810 C   0  0  0  0  0  0  0  0  0  0  0  0
   38.2650   31.4400   49.5960 C   0  0  0  0  0  0  0  0  0  0  0  0
   37.8890   31.3190   48.2670 C   0  0  0  0  0  0  0  0  0  0  0  0
   36.7260   30.6740   47.9670 N   0  0  0  0  0  0  0  0  0  0  0  0
   35.9510   30.1610   48.9480 C   0  0  0  0  0  0  0  0  0  0  0  0
   36.2930   30.2650   50.2480 N   0  0  0  0  0  0  0  0  0  0  0  0
   38.7100   31.8660   47.1810 C   0  0  0  0  0  0  0  0  0  0  0  0
   39.5420   32.9150   47.1000 N   0  0  0  0  0  0  0  0  0  0  0  0
   40.0430   32.9870   45.8990 O   0  0  0  0  0  0  0  0  0  0  0  0
   39.5530   32.0060   45.1930 C   0  0  0  0  0  0  0  0  0  0  0  0
   38.7010   31.2590   45.9510 N   0  0  0  0  0  0  0  0  0  0  0  0
   39.8200   31.6890   43.8170 N   0  0  0  0  0  0  0  0  0  0  0  0
   39.4200   32.4780   42.8190 N   0  0  0  0  0  0  0  0  0  0  0  0
   39.8080   31.9300   41.6490 C   0  0  0  0  0  0  0  0  0  0  0  0
   40.4790   30.7490   41.9740 C   0  0  0  0  0  0  0  0  0  0  0  0
   40.4810   30.6050   43.3600 C   0  0  0  0  0  0  0  0  0  0  0  0
   34.7080   29.4760   48.5500 C   0  0  0  0  0  0  0  0  0  0  0  0
   34.1160   28.5590   49.3790 C   0  0  0  0  0  0  0  0  0  0  0  0
   32.9580   27.9770   48.9130 C   0  0  0  0  0  0  0  0  0  0  0  0
   32.4480   28.2980   47.7160 N   0  0  0  0  0  0  0  0  0  0  0  0
   33.0500   29.2060   46.9160 C   0  0  0  0  0  0  0  0  0  0  0  0
   34.1960   29.8020   47.3400 N   0  0  0  0  0  0  0  0  0  0  0  0
   37.7227   30.9852   51.6399 H   0  0  0  0  0  0  0  0  0  0  0  0
   39.1980   31.9545   49.8694 H   0  0  0  0  0  0  0  0  0  0  0  0
   39.6313   32.3327   40.6407 H   0  0  0  0  0  0  0  0  0  0  0  0
   40.9307   30.0491   41.2556 H   0  0  0  0  0  0  0  0  0  0  0  0
   40.9232   29.7890   43.9504 H   0  0  0  0  0  0  0  0  0  0  0  0
   34.5415   28.3025   50.3604 H   0  0  0  0  0  0  0  0  0  0  0  0
   32.4408   27.2329   49.5365 H   0  0  0  0  0  0  0  0  0  0  0  0
   32.6190   29.4591   45.9361 H   0  0  0  0  0  0  0  0  0  0  0  0
  2  1  2  0
  3  2  1  0
  4  3  2  0
  4  5  1  0
  5  6  2  0
  6  1  1  0
  7  3  1  0
  8  7  2  0
  9  8  1  0
 10  9  1  0
 10 11  2  0
 11  7  1  0
 12 10  1  0
 13 12  1  0
 14 15  1  0
 14 13  2  0
 15 16  2  0
 16 12  1  0
 17  5  1  0
 17 18  2  0
 19 18  1  0
 20 19  2  0
 21 22  2  0
 21 20  1  0
 22 17  1  0
  1 23  1  0
  2 24  1  0
 14 25  1  0
 15 26  1  0
 16 27  1  0
 18 28  1  0
 19 29  1  0
 21 30  1  0
M  ISO  8  23  14  24  14  25  14  26  14  27  14  28  14  29  14  30  14
M  END
>  <minimizedAffinity>  (1) 
-6.20346928

>  <minimizedRMSD>  (1) 
1.4330039

$$$$
