
     RDKit          3D

 29 30  0  0  0  0  0  0  0  0999 V2000
   39.0900   32.1880   46.0580 C   0  0  0  0  0  0  0  0  0  0  0  0
   37.7950   32.6190   49.5910 C   0  0  0  0  0  0  0  0  0  0  0  0
   38.5960   32.8500   48.4440 C   0  0  0  0  0  0  0  0  0  0  0  0
   38.3500   32.0710   47.3130 C   0  0  0  0  0  0  0  0  0  0  0  0
   37.3500   31.1400   47.3950 N   0  0  0  0  0  0  0  0  0  0  0  0
   36.6090   30.9470   48.4980 C   0  0  0  0  0  0  0  0  0  0  0  0
   36.8250   31.6850   49.6050 N   0  0  0  0  0  0  0  0  0  0  0  0
   39.7620   30.8470   45.7940 C   0  0  0  0  0  0  0  0  0  0  0  0
   40.1110   33.2810   46.0340 C   0  0  0  0  0  0  0  0  0  0  0  0
   38.0930   32.4230   44.9360 C   0  0  0  0  0  0  0  0  0  0  0  0
   38.6070   31.9010   43.6430 C   0  0  0  0  0  0  0  0  0  0  0  0
   39.3760   32.6850   42.7760 C   0  0  0  0  0  0  0  0  0  0  0  0
   39.7020   31.9450   41.6780 N   0  0  0  0  0  0  0  0  0  0  0  0
   39.1480   30.7250   41.8550 C   0  0  0  0  0  0  0  0  0  0  0  0
   38.4960   30.7100   43.0340 N   0  0  0  0  0  0  0  0  0  0  0  0
   37.9710   33.2200   50.4953 H   0  0  0  0  0  0  0  0  0  0  0  0
   39.3844   33.6171   48.4458 H   0  0  0  0  0  0  0  0  0  0  0  0
   35.8197   30.1808   48.4982 H   0  0  0  0  0  0  0  0  0  0  0  0
   40.0043   30.3634   46.7518 H   0  0  0  0  0  0  0  0  0  0  0  0
   39.0806   30.2021   45.2197 H   0  0  0  0  0  0  0  0  0  0  0  0
   40.6865   31.0069   45.2197 H   0  0  0  0  0  0  0  0  0  0  0  0
   40.3726   33.5611   47.0651 H   0  0  0  0  0  0  0  0  0  0  0  0
   41.0119   32.9297   45.5096 H   0  0  0  0  0  0  0  0  0  0  0  0
   39.6993   34.1559   45.5096 H   0  0  0  0  0  0  0  0  0  0  0  0
   37.1504   31.9113   45.1804 H   0  0  0  0  0  0  0  0  0  0  0  0
   37.9310   33.5063   44.8349 H   0  0  0  0  0  0  0  0  0  0  0  0
   39.6703   33.7302   42.9518 H   0  0  0  0  0  0  0  0  0  0  0  0
   39.2180   29.8822   41.1516 H   0  0  0  0  0  0  0  0  0  0  0  0
   37.9853   29.9002   43.4138 H   0  0  0  0  0  0  0  0  0  0  0  0
  1  4  1  0
  2  7  2  0
  3  2  1  0
  4  5  1  0
  4  3  2  0
  5  6  2  0
  6  7  1  0
  8  1  1  0
  9  1  1  0
 10  1  1  0
 11 10  1  0
 12 11  2  0
 13 14  2  0
 13 12  1  0
 14 15  1  0
 15 11  1  0
  2 16  1  0
  3 17  1  0
  6 18  1  0
  8 19  1  0
  8 20  1  0
  8 21  1  0
  9 22  1  0
  9 23  1  0
  9 24  1  0
 10 25  1  0
 10 26  1  0
 12 27  1  0
 14 28  1  0
 15 29  1  0
M  ISO  8  16  14  17  14  18  14  19   8  20   8  21   8  22   8  23   8
M  ISO  6  24   8  25   8  26   8  27  14  28  14  29   9
M  END
>  <minimizedAffinity>  (1) 
-4.49702263

>  <minimizedRMSD>  (1) 
0.7795977

$$$$
