
     RDKit          3D

 48 52  0  0  0  0  0  0  0  0999 V2000
   37.8580   32.7740   49.7790 C   0  0  0  0  0  0  0  0  0  0  0  0
   38.5920   33.1340   48.6380 C   0  0  0  0  0  0  0  0  0  0  0  0
   38.4030   32.3560   47.4830 C   0  0  0  0  0  0  0  0  0  0  0  0
   37.5350   31.2990   47.4950 N   0  0  0  0  0  0  0  0  0  0  0  0
   36.8640   31.0150   48.6370 C   0  0  0  0  0  0  0  0  0  0  0  0
   37.0040   31.7230   49.7690 N   0  0  0  0  0  0  0  0  0  0  0  0
   35.9700   29.9000   48.5990 N   0  0  0  0  0  0  0  0  0  0  0  0
   35.0650   29.7550   47.4770 C   0  0  0  0  0  0  0  0  0  0  0  0
   33.6800   29.6340   48.0940 C   0  0  0  0  0  0  0  0  0  0  0  0
   33.6470   28.7990   49.1950 O   0  0  0  0  0  0  0  0  0  0  0  0
   34.7790   27.9940   49.3060 C   0  0  0  0  0  0  0  0  0  0  0  0
   35.9390   28.9070   49.6520 C   0  0  0  0  0  0  0  0  0  0  0  0
   39.1260   32.6580   46.2490 C   0  0  0  0  0  0  0  0  0  0  0  0
   40.2120   33.3930   45.9730 N   0  0  0  0  0  0  0  0  0  0  0  0
   40.4800   33.3600   44.7010 O   0  0  0  0  0  0  0  0  0  0  0  0
   39.5890   32.6140   44.1290 C   0  0  0  0  0  0  0  0  0  0  0  0
   38.7080   32.1450   45.0650 N   0  0  0  0  0  0  0  0  0  0  0  0
   39.4590   32.2700   42.7320 N   0  0  0  0  0  0  0  0  0  0  0  0
   39.1450   33.1820   41.8190 N   0  0  0  0  0  0  0  0  0  0  0  0
   39.0970   32.5670   40.6090 C   0  0  0  0  0  0  0  0  0  0  0  0
   39.3970   31.2330   40.8360 C   0  0  0  0  0  0  0  0  0  0  0  0
   39.6230   31.0580   42.1720 C   0  0  0  0  0  0  0  0  0  0  0  0
   39.9790   29.8450   42.9540 C   0  0  0  0  0  0  0  0  0  0  0  0
   40.7990   28.9290   42.0910 C   0  0  0  0  0  0  0  0  0  0  0  0
   40.1070   27.5810   42.1250 C   0  0  0  0  0  0  0  0  0  0  0  0
   38.6590   27.9490   42.4360 C   0  0  0  0  0  0  0  0  0  0  0  0
   38.8220   29.0590   43.4360 C   0  0  0  0  0  0  0  0  0  0  0  0
   37.9792   33.3590   50.7026 H   0  0  0  0  0  0  0  0  0  0  0  0
   39.2851   33.9881   48.6475 H   0  0  0  0  0  0  0  0  0  0  0  0
   35.3096   28.8520   46.8984 H   0  0  0  0  0  0  0  0  0  0  0  0
   35.1324   30.6051   46.7822 H   0  0  0  0  0  0  0  0  0  0  0  0
   33.3464   30.6353   48.4041 H   0  0  0  0  0  0  0  0  0  0  0  0
   33.0187   29.1968   47.3314 H   0  0  0  0  0  0  0  0  0  0  0  0
   34.6354   27.2475   50.1011 H   0  0  0  0  0  0  0  0  0  0  0  0
   34.9706   27.4539   48.3671 H   0  0  0  0  0  0  0  0  0  0  0  0
   36.8816   28.3405   49.6754 H   0  0  0  0  0  0  0  0  0  0  0  0
   35.8186   29.3652   50.6447 H   0  0  0  0  0  0  0  0  0  0  0  0
   38.8658   33.0349   39.6407 H   0  0  0  0  0  0  0  0  0  0  0  0
   39.4451   30.4464   40.0685 H   0  0  0  0  0  0  0  0  0  0  0  0
   40.5209   30.2154   43.8367 H   0  0  0  0  0  0  0  0  0  0  0  0
   41.8205   28.8430   42.4898 H   0  0  0  0  0  0  0  0  0  0  0  0
   40.8781   29.3123   41.0630 H   0  0  0  0  0  0  0  0  0  0  0  0
   40.1858   27.0710   41.1535 H   0  0  0  0  0  0  0  0  0  0  0  0
   40.5453   26.8860   42.8563 H   0  0  0  0  0  0  0  0  0  0  0  0
   38.1337   28.2979   41.5347 H   0  0  0  0  0  0  0  0  0  0  0  0
   38.0585   27.1052   42.8066 H   0  0  0  0  0  0  0  0  0  0  0  0
   39.0229   28.6503   44.4373 H   0  0  0  0  0  0  0  0  0  0  0  0
   37.9135   29.6732   43.5219 H   0  0  0  0  0  0  0  0  0  0  0  0
  2  1  2  0
  3  4  2  0
  3  2  1  0
  4  5  1  0
  5  6  2  0
  6  1  1  0
  7  5  1  0
  7 12  1  0
  8  9  1  0
  8  7  1  0
  9 10  1  0
 10 11  1  0
 11 12  1  0
 13  3  1  0
 14 13  2  0
 15 14  1  0
 16 15  1  0
 16 17  2  0
 17 13  1  0
 18 16  1  0
 19 18  1  0
 20 21  1  0
 20 19  2  0
 21 22  2  0
 22 18  1  0
 22 23  1  0
 23 27  1  0
 24 25  1  0
 24 23  1  0
 25 26  1  0
 26 27  1  0
  1 28  1  0
  2 29  1  0
  8 30  1  0
  8 31  1  0
  9 32  1  0
  9 33  1  0
 11 34  1  0
 11 35  1  0
 12 36  1  0
 12 37  1  0
 20 38  1  0
 21 39  1  0
 23 40  1  0
 24 41  1  0
 24 42  1  0
 25 43  1  0
 25 44  1  0
 26 45  1  0
 26 46  1  0
 27 47  1  0
 27 48  1  0
M  ISO  8  28  14  29  14  30  13  31  13  32  13  33  13  34  13  35  13
M  ISO  8  36  13  37  13  38  14  39  14  40  13  41  13  42  13  43  13
M  ISO  5  44  13  45  13  46  13  47  13  48  13
M  END
>  <minimizedAffinity>  (1) 
-6.97320652

>  <minimizedRMSD>  (1) 
1.87862337

$$$$
