
     RDKit          3D

 29 30  0  0  0  0  0  0  0  0999 V2000
   39.1930   32.2450   46.0050 C   0  0  0  0  0  0  0  0  0  0  0  0
   37.9700   32.6510   49.5690 C   0  0  0  0  0  0  0  0  0  0  0  0
   38.7370   32.8520   48.4150 C   0  0  0  0  0  0  0  0  0  0  0  0
   38.4390   32.0970   47.2570 C   0  0  0  0  0  0  0  0  0  0  0  0
   37.4110   31.2100   47.3430 N   0  0  0  0  0  0  0  0  0  0  0  0
   36.6940   31.0440   48.4710 C   0  0  0  0  0  0  0  0  0  0  0  0
   36.9650   31.7540   49.5780 N   0  0  0  0  0  0  0  0  0  0  0  0
   39.8930   30.8990   45.7740 C   0  0  0  0  0  0  0  0  0  0  0  0
   40.1900   33.3370   45.9710 C   0  0  0  0  0  0  0  0  0  0  0  0
   38.1860   32.4290   44.8900 C   0  0  0  0  0  0  0  0  0  0  0  0
   38.6140   31.8850   43.6270 N   0  0  0  0  0  0  0  0  0  0  0  0
   38.4100   30.7010   43.0210 C   0  0  0  0  0  0  0  0  0  0  0  0
   39.0740   30.7350   41.7930 C   0  0  0  0  0  0  0  0  0  0  0  0
   39.6700   31.9190   41.6580 N   0  0  0  0  0  0  0  0  0  0  0  0
   39.3870   32.5990   42.7610 C   0  0  0  0  0  0  0  0  0  0  0  0
   38.1902   33.2312   50.4772 H   0  0  0  0  0  0  0  0  0  0  0  0
   39.5574   33.5847   48.4092 H   0  0  0  0  0  0  0  0  0  0  0  0
   35.8716   30.3136   48.4857 H   0  0  0  0  0  0  0  0  0  0  0  0
   40.1323   30.4389   46.7441 H   0  0  0  0  0  0  0  0  0  0  0  0
   39.2274   30.2323   45.2062 H   0  0  0  0  0  0  0  0  0  0  0  0
   40.8211   31.0610   45.2062 H   0  0  0  0  0  0  0  0  0  0  0  0
   40.4532   33.6253   46.9994 H   0  0  0  0  0  0  0  0  0  0  0  0
   41.0924   32.9933   45.4442 H   0  0  0  0  0  0  0  0  0  0  0  0
   39.7658   34.2045   45.4442 H   0  0  0  0  0  0  0  0  0  0  0  0
   37.2494   31.9319   45.1826 H   0  0  0  0  0  0  0  0  0  0  0  0
   38.0596   33.5123   44.7469 H   0  0  0  0  0  0  0  0  0  0  0  0
   37.8260   29.8588   43.4206 H   0  0  0  0  0  0  0  0  0  0  0  0
   39.1007   29.9177   41.0572 H   0  0  0  0  0  0  0  0  0  0  0  0
   39.7368   33.6237   42.9549 H   0  0  0  0  0  0  0  0  0  0  0  0
  1  4  1  0
  2  7  2  0
  3  2  1  0
  4  5  1  0
  4  3  2  0
  5  6  2  0
  6  7  1  0
  8  1  1  0
  9  1  1  0
 10  1  1  0
 11 10  1  0
 12 11  1  0
 13 12  2  0
 14 13  1  0
 14 15  2  0
 15 11  1  0
  2 16  1  0
  3 17  1  0
  6 18  1  0
  8 19  1  0
  8 20  1  0
  8 21  1  0
  9 22  1  0
  9 23  1  0
  9 24  1  0
 10 25  1  0
 10 26  1  0
 12 27  1  0
 13 28  1  0
 15 29  1  0
M  ISO  8  16  14  17  14  18  14  19   8  20   8  21   8  22   8  23   8
M  ISO  6  24   8  25   8  26   8  27  14  28  14  29  14
M  END
>  <minimizedAffinity>  (1) 
-4.49585485

>  <minimizedRMSD>  (1) 
0.837217271

$$$$
