
     RDKit          3D

 37 40  0  0  0  0  0  0  0  0999 V2000
   37.7670   32.6820   49.6520 C   0  0  0  0  0  0  0  0  0  0  0  0
   38.5530   33.0150   48.5250 C   0  0  0  0  0  0  0  0  0  0  0  0
   38.3960   32.2210   47.3750 C   0  0  0  0  0  0  0  0  0  0  0  0
   37.5070   31.1700   47.3790 N   0  0  0  0  0  0  0  0  0  0  0  0
   36.7880   30.9110   48.4970 C   0  0  0  0  0  0  0  0  0  0  0  0
   36.9040   31.6500   49.6280 N   0  0  0  0  0  0  0  0  0  0  0  0
   35.8880   29.8210   48.4470 N   0  0  0  0  0  0  0  0  0  0  0  0
   35.0210   29.6530   47.3010 C   0  0  0  0  0  0  0  0  0  0  0  0
   33.6130   29.5710   47.8650 C   0  0  0  0  0  0  0  0  0  0  0  0
   33.5170   28.7550   48.9670 O   0  0  0  0  0  0  0  0  0  0  0  0
   34.6260   27.9420   49.1510 C   0  0  0  0  0  0  0  0  0  0  0  0
   35.8060   28.8500   49.5260 C   0  0  0  0  0  0  0  0  0  0  0  0
   39.1660   32.4880   46.1630 C   0  0  0  0  0  0  0  0  0  0  0  0
   40.1380   33.3670   45.8670 N   0  0  0  0  0  0  0  0  0  0  0  0
   40.5140   33.2140   44.6310 O   0  0  0  0  0  0  0  0  0  0  0  0
   39.8080   32.2510   44.1040 C   0  0  0  0  0  0  0  0  0  0  0  0
   38.9440   31.7650   45.0420 N   0  0  0  0  0  0  0  0  0  0  0  0
   39.8660   31.7290   42.7770 N   0  0  0  0  0  0  0  0  0  0  0  0
   39.5040   32.4530   41.7240 N   0  0  0  0  0  0  0  0  0  0  0  0
   39.6560   31.7270   40.5990 C   0  0  0  0  0  0  0  0  0  0  0  0
   40.1380   30.4980   41.0070 C   0  0  0  0  0  0  0  0  0  0  0  0
   40.2580   30.5320   42.3710 C   0  0  0  0  0  0  0  0  0  0  0  0
   40.7220   29.4650   43.1790 N   0  0  0  0  0  0  0  0  0  0  0  0
   37.8632   33.2806   50.5699 H   0  0  0  0  0  0  0  0  0  0  0  0
   39.2576   33.8595   48.5468 H   0  0  0  0  0  0  0  0  0  0  0  0
   35.2730   28.7286   46.7607 H   0  0  0  0  0  0  0  0  0  0  0  0
   35.1260   30.4817   46.5853 H   0  0  0  0  0  0  0  0  0  0  0  0
   33.2915   30.5834   48.1508 H   0  0  0  0  0  0  0  0  0  0  0  0
   32.9723   29.1391   47.0821 H   0  0  0  0  0  0  0  0  0  0  0  0
   34.4339   27.2221   49.9602 H   0  0  0  0  0  0  0  0  0  0  0  0
   34.8483   27.3762   48.2342 H   0  0  0  0  0  0  0  0  0  0  0  0
   36.7365   28.2673   49.5939 H   0  0  0  0  0  0  0  0  0  0  0  0
   35.6643   29.3301   50.5055 H   0  0  0  0  0  0  0  0  0  0  0  0
   39.4408   32.0467   39.5687 H   0  0  0  0  0  0  0  0  0  0  0  0
   40.3813   29.6465   40.3545 H   0  0  0  0  0  0  0  0  0  0  0  0
   40.7795   29.5801   44.2009 H   0  0  0  0  0  0  0  0  0  0  0  0
   41.0019   28.5740   42.7446 H   0  0  0  0  0  0  0  0  0  0  0  0
  2  1  2  0
  3  4  2  0
  3  2  1  0
  4  5  1  0
  5  6  2  0
  6  1  1  0
  7  5  1  0
  7 12  1  0
  8  9  1  0
  8  7  1  0
  9 10  1  0
 10 11  1  0
 11 12  1  0
 13  3  1  0
 14 13  2  0
 15 14  1  0
 16 15  1  0
 16 17  2  0
 17 13  1  0
 18 16  1  0
 19 18  1  0
 20 21  1  0
 20 19  2  0
 21 22  2  0
 22 18  1  0
 22 23  1  0
  1 24  1  0
  2 25  1  0
  8 26  1  0
  8 27  1  0
  9 28  1  0
  9 29  1  0
 11 30  1  0
 11 31  1  0
 12 32  1  0
 12 33  1  0
 20 34  1  0
 21 35  1  0
 23 36  1  0
 23 37  1  0
M  ISO  8  24  14  25  14  26  13  27  13  28  13  29  13  30  13  31  13
M  ISO  4  32  13  33  13  34  14  35  14
M  END
>  <minimizedAffinity>  (1) 
-6.6742239

>  <minimizedRMSD>  (1) 
0.454994589

$$$$
