
     RDKit          3D

 44 47  0  0  0  0  0  0  0  0999 V2000
   38.1910   32.7070   49.6260 C   0  0  0  0  0  0  0  0  0  0  0  0
   38.8690   33.0890   48.4460 C   0  0  0  0  0  0  0  0  0  0  0  0
   38.5780   32.3660   47.2830 C   0  0  0  0  0  0  0  0  0  0  0  0
   37.6700   31.3380   47.3150 N   0  0  0  0  0  0  0  0  0  0  0  0
   37.0600   31.0310   48.4890 C   0  0  0  0  0  0  0  0  0  0  0  0
   37.3050   31.6960   49.6390 N   0  0  0  0  0  0  0  0  0  0  0  0
   36.1250   29.9550   48.4780 N   0  0  0  0  0  0  0  0  0  0  0  0
   35.1390   29.8790   47.4030 C   0  0  0  0  0  0  0  0  0  0  0  0
   33.7900   29.7980   48.0980 C   0  0  0  0  0  0  0  0  0  0  0  0
   33.7950   28.9320   49.1740 O   0  0  0  0  0  0  0  0  0  0  0  0
   34.8820   28.0760   49.1890 C   0  0  0  0  0  0  0  0  0  0  0  0
   36.1190   28.9350   49.4970 C   0  0  0  0  0  0  0  0  0  0  0  0
   39.2320   32.6910   46.0150 C   0  0  0  0  0  0  0  0  0  0  0  0
   40.1880   33.5600   45.6740 N   0  0  0  0  0  0  0  0  0  0  0  0
   40.4280   33.4690   44.3930 O   0  0  0  0  0  0  0  0  0  0  0  0
   39.6500   32.5600   43.8900 C   0  0  0  0  0  0  0  0  0  0  0  0
   38.8720   32.0360   44.8730 N   0  0  0  0  0  0  0  0  0  0  0  0
   39.5630   32.1190   42.5350 N   0  0  0  0  0  0  0  0  0  0  0  0
   39.1150   32.9120   41.5670 N   0  0  0  0  0  0  0  0  0  0  0  0
   39.1450   32.2300   40.4010 C   0  0  0  0  0  0  0  0  0  0  0  0
   39.6320   30.9660   40.6740 C   0  0  0  0  0  0  0  0  0  0  0  0
   39.8870   30.9260   42.0250 C   0  0  0  0  0  0  0  0  0  0  0  0
   40.4210   29.7620   42.7560 C   0  0  0  0  0  0  0  0  0  0  0  0
   39.3580   28.7440   43.1210 C   0  0  0  0  0  0  0  0  0  0  0  0
   41.4800   29.0310   41.9290 C   0  0  0  0  0  0  0  0  0  0  0  0
   38.3940   33.2521   50.5596 H   0  0  0  0  0  0  0  0  0  0  0  0
   39.5929   33.9173   48.4417 H   0  0  0  0  0  0  0  0  0  0  0  0
   35.3091   28.9835   46.7873 H   0  0  0  0  0  0  0  0  0  0  0  0
   35.2007   30.7462   46.7291 H   0  0  0  0  0  0  0  0  0  0  0  0
   33.5178   30.8019   48.4558 H   0  0  0  0  0  0  0  0  0  0  0  0
   33.0626   29.4150   47.3671 H   0  0  0  0  0  0  0  0  0  0  0  0
   34.7499   27.3096   49.9669 H   0  0  0  0  0  0  0  0  0  0  0  0
   34.9907   27.5588   48.2243 H   0  0  0  0  0  0  0  0  0  0  0  0
   37.0349   28.3282   49.4427 H   0  0  0  0  0  0  0  0  0  0  0  0
   36.0850   29.3619   50.5102 H   0  0  0  0  0  0  0  0  0  0  0  0
   38.8382   32.6109   39.4157 H   0  0  0  0  0  0  0  0  0  0  0  0
   39.7858   30.1507   39.9517 H   0  0  0  0  0  0  0  0  0  0  0  0
   40.8509   30.1792   43.6785 H   0  0  0  0  0  0  0  0  0  0  0  0
   39.2813   28.6705   44.2159 H   0  0  0  0  0  0  0  0  0  0  0  0
   38.3896   29.0602   42.7060 H   0  0  0  0  0  0  0  0  0  0  0  0
   39.6320   27.7629   42.7060 H   0  0  0  0  0  0  0  0  0  0  0  0
   42.1953   28.5372   42.6032 H   0  0  0  0  0  0  0  0  0  0  0  0
   40.9929   28.2759   41.2945 H   0  0  0  0  0  0  0  0  0  0  0  0
   42.0133   29.7542   41.2945 H   0  0  0  0  0  0  0  0  0  0  0  0
  1  6  2  0
  2  1  1  0
  3  4  1  0
  3  2  2  0
  4  5  2  0
  5  6  1  0
  7  5  1  0
  7 12  1  0
  8  9  1  0
  8  7  1  0
  9 10  1  0
 10 11  1  0
 11 12  1  0
 13  3  1  0
 14 13  2  0
 15 14  1  0
 16 15  1  0
 16 17  2  0
 17 13  1  0
 18 16  1  0
 19 18  1  0
 20 21  1  0
 20 19  2  0
 21 22  2  0
 22 18  1  0
 22 23  1  0
 23 24  1  0
 25 23  1  0
  1 26  1  0
  2 27  1  0
  8 28  1  0
  8 29  1  0
  9 30  1  0
  9 31  1  0
 11 32  1  0
 11 33  1  0
 12 34  1  0
 12 35  1  0
 20 36  1  0
 21 37  1  0
 23 38  1  0
 24 39  1  0
 24 40  1  0
 24 41  1  0
 25 42  1  0
 25 43  1  0
 25 44  1  0
M  ISO  8  26  14  27  14  28  13  29  13  30  13  31  13  32  13  33  13
M  ISO  8  34  13  35  13  36  14  37  14  38   8  39   8  40   8  41   8
M  ISO  3  42   8  43   8  44   8
M  END
>  <minimizedAffinity>  (1) 
-6.65854454

>  <minimizedRMSD>  (1) 
1.14232755

$$$$
