
     RDKit          3D

 25 26  0  0  0  0  0  0  0  0999 V2000
   37.9460   30.4750   47.6920 C   0  0  0  0  0  0  0  0  0  0  0  0
   37.3180   30.1930   51.4240 C   0  0  0  0  0  0  0  0  0  0  0  0
   37.9630   30.5640   50.2490 C   0  0  0  0  0  0  0  0  0  0  0  0
   37.3870   30.1640   49.0380 C   0  0  0  0  0  0  0  0  0  0  0  0
   36.2300   29.4360   49.0810 N   0  0  0  0  0  0  0  0  0  0  0  0
   35.6280   29.0910   50.2240 C   0  0  0  0  0  0  0  0  0  0  0  0
   36.1800   29.4750   51.3980 N   0  0  0  0  0  0  0  0  0  0  0  0
   38.2380   31.9500   47.5620 C   0  0  0  0  0  0  0  0  0  0  0  0
   38.6140   32.3420   46.1860 C   0  0  0  0  0  0  0  0  0  0  0  0
   39.9090   32.8420   46.0910 C   0  0  0  0  0  0  0  0  0  0  0  0
   40.3850   33.2480   44.8520 C   0  0  0  0  0  0  0  0  0  0  0  0
   39.5030   33.1120   43.7900 C   0  0  0  0  0  0  0  0  0  0  0  0
   38.2260   32.6220   43.8710 C   0  0  0  0  0  0  0  0  0  0  0  0
   37.8280   32.2470   45.1080 N   0  0  0  0  0  0  0  0  0  0  0  0
   38.8780   29.9086   47.5487 H   0  0  0  0  0  0  0  0  0  0  0  0
   37.2060   30.1929   46.9286 H   0  0  0  0  0  0  0  0  0  0  0  0
   37.7458   30.4919   52.3923 H   0  0  0  0  0  0  0  0  0  0  0  0
   38.8930   31.1511   50.2708 H   0  0  0  0  0  0  0  0  0  0  0  0
   34.6979   28.5038   50.2100 H   0  0  0  0  0  0  0  0  0  0  0  0
   37.3394   32.5131   47.8545 H   0  0  0  0  0  0  0  0  0  0  0  0
   39.0931   32.1767   48.2158 H   0  0  0  0  0  0  0  0  0  0  0  0
   40.5462   32.9145   46.9847 H   0  0  0  0  0  0  0  0  0  0  0  0
   41.3993   33.6527   44.7203 H   0  0  0  0  0  0  0  0  0  0  0  0
   39.8595   33.4244   42.7974 H   0  0  0  0  0  0  0  0  0  0  0  0
   37.5704   32.5394   42.9916 H   0  0  0  0  0  0  0  0  0  0  0  0
  1  4  1  0
  3  2  2  0
  4  5  2  0
  4  3  1  0
  5  6  1  0
  6  7  2  0
  7  2  1  0
  8  1  1  0
  9  8  1  0
 10  9  2  0
 11 10  1  0
 12 13  1  0
 12 11  2  0
 13 14  2  0
 14  9  1  0
  1 15  1  0
  1 16  1  0
  2 17  1  0
  3 18  1  0
  6 19  1  0
  8 20  1  0
  8 21  1  0
 10 22  1  0
 11 23  1  0
 12 24  1  0
 13 25  1  0
M  ISO  8  15   8  16   8  17  14  18  14  19  14  20   8  21   8  22  14
M  ISO  3  23  14  24  14  25  14
M  END
>  <minimizedAffinity>  (1) 
-5.19769287

>  <minimizedRMSD>  (1) 
1.14243424

$$$$
