
     RDKit          3D

 24 25  0  0  0  0  0  0  0  0999 V2000
   37.6330   32.4630   49.0510 C   0  0  0  0  0  0  0  0  0  0  0  0
   35.2410   29.7560   50.2260 C   0  0  0  0  0  0  0  0  0  0  0  0
   35.7540   30.8120   49.4440 C   0  0  0  0  0  0  0  0  0  0  0  0
   36.9800   31.3580   49.7780 C   0  0  0  0  0  0  0  0  0  0  0  0
   37.6240   30.8370   50.8540 N   0  0  0  0  0  0  0  0  0  0  0  0
   37.1310   29.8380   51.5900 C   0  0  0  0  0  0  0  0  0  0  0  0
   35.9430   29.2960   51.2770 N   0  0  0  0  0  0  0  0  0  0  0  0
   38.8910   32.0230   48.3550 C   0  0  0  0  0  0  0  0  0  0  0  0
   38.9900   32.3950   46.9480 C   0  0  0  0  0  0  0  0  0  0  0  0
   39.9650   33.0710   46.2740 C   0  0  0  0  0  0  0  0  0  0  0  0
   39.8920   33.3400   44.9230 C   0  0  0  0  0  0  0  0  0  0  0  0
   38.8150   32.9180   44.2420 N   0  0  0  0  0  0  0  0  0  0  0  0
   37.8470   32.2500   44.8940 C   0  0  0  0  0  0  0  0  0  0  0  0
   37.9040   31.9770   46.2310 N   0  0  0  0  0  0  0  0  0  0  0  0
   36.9318   32.8554   48.2998 H   0  0  0  0  0  0  0  0  0  0  0  0
   37.9070   33.2341   49.7861 H   0  0  0  0  0  0  0  0  0  0  0  0
   34.2674   29.3090   49.9764 H   0  0  0  0  0  0  0  0  0  0  0  0
   35.1879   31.1951   48.5822 H   0  0  0  0  0  0  0  0  0  0  0  0
   37.6981   29.4589   52.4529 H   0  0  0  0  0  0  0  0  0  0  0  0
   39.7457   32.4687   48.8849 H   0  0  0  0  0  0  0  0  0  0  0  0
   38.8815   30.9233   48.3780 H   0  0  0  0  0  0  0  0  0  0  0  0
   40.8476   33.4165   46.8323 H   0  0  0  0  0  0  0  0  0  0  0  0
   40.6988   33.8884   44.4148 H   0  0  0  0  0  0  0  0  0  0  0  0
   36.9699   31.9081   44.3250 H   0  0  0  0  0  0  0  0  0  0  0  0
  1  4  1  0
  2  7  2  0
  3  4  2  0
  3  2  1  0
  4  5  1  0
  5  6  2  0
  7  6  1  0
  8  1  1  0
  9  8  1  0
 10  9  2  0
 11 10  1  0
 12 13  1  0
 12 11  2  0
 13 14  2  0
 14  9  1  0
  1 15  1  0
  1 16  1  0
  2 17  1  0
  3 18  1  0
  6 19  1  0
  8 20  1  0
  8 21  1  0
 10 22  1  0
 11 23  1  0
 13 24  1  0
M  ISO  8  15   8  16   8  17  14  18  14  19  14  20   8  21   8  22  14
M  ISO  2  23  14  24  14
M  END
>  <minimizedAffinity>  (1) 
-4.99042368

>  <minimizedRMSD>  (1) 
3.28813052

$$$$
