
     RDKit          3D

 30 31  0  0  0  0  0  0  0  0999 V2000
   38.0540   30.5800   47.6770 C   0  0  0  0  0  0  0  0  0  0  0  0
   37.3430   30.2050   51.3950 C   0  0  0  0  0  0  0  0  0  0  0  0
   37.9960   30.6100   50.2200 C   0  0  0  0  0  0  0  0  0  0  0  0
   37.4630   30.2210   49.0050 C   0  0  0  0  0  0  0  0  0  0  0  0
   36.3250   29.4580   49.0080 N   0  0  0  0  0  0  0  0  0  0  0  0
   35.7240   29.0860   50.1410 C   0  0  0  0  0  0  0  0  0  0  0  0
   36.2270   29.4550   51.3330 N   0  0  0  0  0  0  0  0  0  0  0  0
   38.6890   31.9480   47.7110 C   0  0  0  0  0  0  0  0  0  0  0  0
   38.6710   32.6030   46.4080 N   0  0  0  0  0  0  0  0  0  0  0  0
   40.0140   32.9520   46.0570 C   0  0  0  0  0  0  0  0  0  0  0  0
   40.3990   32.5860   44.6400 C   0  0  0  0  0  0  0  0  0  0  0  0
   39.3820   32.9000   43.6840 N   0  0  0  0  0  0  0  0  0  0  0  0
   38.0550   32.5690   44.1080 C   0  0  0  0  0  0  0  0  0  0  0  0
   38.0100   31.7900   45.4140 C   0  0  0  0  0  0  0  0  0  0  0  0
   37.2586   30.5730   46.9172 H   0  0  0  0  0  0  0  0  0  0  0  0
   38.8323   29.8421   47.4326 H   0  0  0  0  0  0  0  0  0  0  0  0
   37.7466   30.5029   52.3740 H   0  0  0  0  0  0  0  0  0  0  0  0
   38.9091   31.2217   50.2649 H   0  0  0  0  0  0  0  0  0  0  0  0
   34.8112   28.4735   50.0994 H   0  0  0  0  0  0  0  0  0  0  0  0
   38.1393   32.5746   48.4288 H   0  0  0  0  0  0  0  0  0  0  0  0
   39.7406   31.8218   48.0079 H   0  0  0  0  0  0  0  0  0  0  0  0
   40.1305   34.0393   46.1764 H   0  0  0  0  0  0  0  0  0  0  0  0
   40.6746   32.3774   46.7229 H   0  0  0  0  0  0  0  0  0  0  0  0
   41.3132   33.1361   44.3723 H   0  0  0  0  0  0  0  0  0  0  0  0
   40.5510   31.4969   44.6119 H   0  0  0  0  0  0  0  0  0  0  0  0
   39.5827   32.3816   42.8169 H   0  0  0  0  0  0  0  0  0  0  0  0
   37.4890   33.5029   44.2403 H   0  0  0  0  0  0  0  0  0  0  0  0
   37.6198   31.9228   43.3315 H   0  0  0  0  0  0  0  0  0  0  0  0
   36.9665   31.6052   45.7089 H   0  0  0  0  0  0  0  0  0  0  0  0
   38.5065   30.8141   45.3087 H   0  0  0  0  0  0  0  0  0  0  0  0
  1  8  1  0
  1  4  1  0
  3  2  2  0
  4  5  2  0
  4  3  1  0
  5  6  1  0
  6  7  2  0
  7  2  1  0
  9  8  1  0
 10  9  1  0
 11 10  1  0
 12 13  1  0
 12 11  1  0
 13 14  1  0
 14  9  1  0
  1 15  1  0
  1 16  1  0
  2 17  1  0
  3 18  1  0
  6 19  1  0
  8 20  1  0
  8 21  1  0
 10 22  1  0
 10 23  1  0
 11 24  1  0
 11 25  1  0
 12 26  1  0
 13 27  1  0
 13 28  1  0
 14 29  1  0
 14 30  1  0
M  ISO  8  15   8  16   8  17  14  18  14  19  14  20   8  21   8  22  13
M  ISO  8  23  13  24  13  25  13  26   5  27  13  28  13  29  13  30  13
M  END
>  <minimizedAffinity>  (1) 
-4.82542419

>  <minimizedRMSD>  (1) 
1.43142903

$$$$
