
     RDKit          3D

 18 18  0  0  0  0  0  0  0  0999 V2000
   37.3520   30.2130   51.4180 C   0  0  0  0  0  0  0  0  0  0  0  0
   38.0510   30.8860   50.3950 C   0  0  0  0  0  0  0  0  0  0  0  0
   37.7290   30.6140   49.0790 C   0  0  0  0  0  0  0  0  0  0  0  0
   36.7480   29.7020   48.8630 N   0  0  0  0  0  0  0  0  0  0  0  0
   36.0860   29.0660   49.8310 C   0  0  0  0  0  0  0  0  0  0  0  0
   36.3900   29.3230   51.1180 N   0  0  0  0  0  0  0  0  0  0  0  0
   38.3660   31.2310   47.9000 C   0  0  0  0  0  0  0  0  0  0  0  0
   38.7660   32.6790   48.1890 C   0  0  0  0  0  0  0  0  0  0  0  0
   39.4060   33.1370   46.9450 N   0  0  0  0  0  0  0  0  0  0  0  0
   37.5959   30.4179   52.4709 H   0  0  0  0  0  0  0  0  0  0  0  0
   38.8382   31.6142   50.6400 H   0  0  0  0  0  0  0  0  0  0  0  0
   35.2995   28.3388   49.5807 H   0  0  0  0  0  0  0  0  0  0  0  0
   37.6579   31.2144   47.0584 H   0  0  0  0  0  0  0  0  0  0  0  0
   39.2725   30.6595   47.6517 H   0  0  0  0  0  0  0  0  0  0  0  0
   37.8800   33.2892   48.4185 H   0  0  0  0  0  0  0  0  0  0  0  0
   39.4328   32.7641   49.0597 H   0  0  0  0  0  0  0  0  0  0  0  0
   40.2226   33.7214   47.1740 H   0  0  0  0  0  0  0  0  0  0  0  0
   39.7110   32.3211   46.3953 H   0  0  0  0  0  0  0  0  0  0  0  0
  2  1  2  0
  3  2  1  0
  4  3  2  0
  4  5  1  0
  5  6  2  0
  6  1  1  0
  7  8  1  0
  7  3  1  0
  9  8  1  0
  1 10  1  0
  2 11  1  0
  5 12  1  0
  7 13  1  0
  7 14  1  0
  8 15  1  0
  8 16  1  0
  9 17  1  0
  9 18  1  0
M  ISO  8  10  14  11  14  12  14  13   8  14   8  15   8  16   8  17   5
M  ISO  1  18   5
M  END
>  <minimizedAffinity>  (1) 
-3.86184359

>  <minimizedRMSD>  (1) 
0.238454536

$$$$
