
     RDKit          3D

 29 30  0  0  0  0  0  0  0  0999 V2000
   35.1060   29.8740   46.8810 C   0  0  0  0  0  0  0  0  0  0  0  0
   32.5130   27.7460   48.6590 C   0  0  0  0  0  0  0  0  0  0  0  0
   33.6990   28.3880   48.3650 C   0  0  0  0  0  0  0  0  0  0  0  0
   33.8840   29.1570   47.2460 C   0  0  0  0  0  0  0  0  0  0  0  0
   32.8190   29.2600   46.4230 N   0  0  0  0  0  0  0  0  0  0  0  0
   31.6390   28.6510   46.6690 C   0  0  0  0  0  0  0  0  0  0  0  0
   31.4880   27.9020   47.7760 N   0  0  0  0  0  0  0  0  0  0  0  0
   35.7580   30.5600   48.0440 C   0  0  0  0  0  0  0  0  0  0  0  0
   37.0760   30.1770   48.3720 N   0  0  0  0  0  0  0  0  0  0  0  0
   38.1200   30.8570   47.6500 C   0  0  0  0  0  0  0  0  0  0  0  0
   38.5410   32.1420   48.3400 C   0  0  0  0  0  0  0  0  0  0  0  0
   38.0420   32.2400   49.6430 O   0  0  0  0  0  0  0  0  0  0  0  0
   38.3510   31.0390   50.2810 C   0  0  0  0  0  0  0  0  0  0  0  0
   37.3700   30.0100   49.7700 C   0  0  0  0  0  0  0  0  0  0  0  0
   35.8199   29.1538   46.4549 H   0  0  0  0  0  0  0  0  0  0  0  0
   34.8241   30.6534   46.1578 H   0  0  0  0  0  0  0  0  0  0  0  0
   32.4007   27.1351   49.5668 H   0  0  0  0  0  0  0  0  0  0  0  0
   34.5396   28.2765   49.0656 H   0  0  0  0  0  0  0  0  0  0  0  0
   30.8021   28.7674   45.9647 H   0  0  0  0  0  0  0  0  0  0  0  0
   35.7733   31.6377   47.8243 H   0  0  0  0  0  0  0  0  0  0  0  0
   35.1558   30.2655   48.9161 H   0  0  0  0  0  0  0  0  0  0  0  0
   37.7553   31.0983   46.6407 H   0  0  0  0  0  0  0  0  0  0  0  0
   38.9943   30.1909   47.6070 H   0  0  0  0  0  0  0  0  0  0  0  0
   39.6397   32.1772   48.3797 H   0  0  0  0  0  0  0  0  0  0  0  0
   38.1295   32.9819   47.7610 H   0  0  0  0  0  0  0  0  0  0  0  0
   39.3799   30.7349   50.0385 H   0  0  0  0  0  0  0  0  0  0  0  0
   38.2817   31.1427   51.3739 H   0  0  0  0  0  0  0  0  0  0  0  0
   36.4340   30.1007   50.3408 H   0  0  0  0  0  0  0  0  0  0  0  0
   37.8277   29.0181   49.8995 H   0  0  0  0  0  0  0  0  0  0  0  0
  1  4  1  0
  1  8  1  0
  3  2  2  0
  4  3  1  0
  5  6  1  0
  5  4  2  0
  6  7  2  0
  7  2  1  0
  8  9  1  0
  9 14  1  0
 10 11  1  0
 10  9  1  0
 11 12  1  0
 12 13  1  0
 14 13  1  0
  1 15  1  0
  1 16  1  0
  2 17  1  0
  3 18  1  0
  6 19  1  0
  8 20  1  0
  8 21  1  0
 10 22  1  0
 10 23  1  0
 11 24  1  0
 11 25  1  0
 13 26  1  0
 13 27  1  0
 14 28  1  0
 14 29  1  0
M  ISO  8  15   8  16   8  17  14  18  14  19  14  20   8  21   8  22  13
M  ISO  7  23  13  24  13  25  13  26  13  27  13  28  13  29  13
M  END
>  <minimizedAffinity>  (1) 
-3.86039877

>  <minimizedRMSD>  (1) 
4.43865156

$$$$
