
     RDKit          3D

 17 17  0  0  0  0  0  0  0  0999 V2000
   37.3740   30.2150   51.3280 C   0  0  0  0  0  0  0  0  0  0  0  0
   38.0190   30.6600   50.1790 C   0  0  0  0  0  0  0  0  0  0  0  0
   37.4670   30.2730   48.9510 C   0  0  0  0  0  0  0  0  0  0  0  0
   36.3440   29.4950   48.9490 N   0  0  0  0  0  0  0  0  0  0  0  0
   35.7560   29.0900   50.0840 C   0  0  0  0  0  0  0  0  0  0  0  0
   36.2670   29.4490   51.2710 N   0  0  0  0  0  0  0  0  0  0  0  0
   38.0120   30.6470   47.6140 C   0  0  0  0  0  0  0  0  0  0  0  0
   38.9820   31.8060   47.7370 C   0  0  0  0  0  0  0  0  0  0  0  0
   38.3490   33.0240   47.5890 O   0  0  0  0  0  0  0  0  0  0  0  0
   37.7791   30.4964   52.3112 H   0  0  0  0  0  0  0  0  0  0  0  0
   38.9212   31.2871   50.2320 H   0  0  0  0  0  0  0  0  0  0  0  0
   34.8535   28.4626   50.0416 H   0  0  0  0  0  0  0  0  0  0  0  0
   37.1817   30.9392   46.9542 H   0  0  0  0  0  0  0  0  0  0  0  0
   38.5457   29.7815   47.1944 H   0  0  0  0  0  0  0  0  0  0  0  0
   39.4559   31.7696   48.7290 H   0  0  0  0  0  0  0  0  0  0  0  0
   39.7306   31.7109   46.9366 H   0  0  0  0  0  0  0  0  0  0  0  0
   38.1516   33.4039   48.4816 H   0  0  0  0  0  0  0  0  0  0  0  0
  2  1  2  0
  3  2  1  0
  4  3  2  0
  4  5  1  0
  5  6  2  0
  6  1  1  0
  7  8  1  0
  7  3  1  0
  9  8  1  0
  1 10  1  0
  2 11  1  0
  5 12  1  0
  7 13  1  0
  7 14  1  0
  8 15  1  0
  8 16  1  0
  9 17  1  0
M  ISO  8  10  14  11  14  12  14  13   8  14   8  15   8  16   8  17   3
M  END
>  <minimizedAffinity>  (1) 
-3.7584939

>  <minimizedRMSD>  (1) 
0.465592951

$$$$
