
     RDKit          3D

 23 24  0  0  0  0  0  0  0  0999 V2000
   37.8460   30.1840   49.0290 C   0  0  0  0  0  0  0  0  0  0  0  0
   34.1770   30.4790   49.8840 C   0  0  0  0  0  0  0  0  0  0  0  0
   35.5040   30.8960   49.6150 C   0  0  0  0  0  0  0  0  0  0  0  0
   36.4320   29.9190   49.3170 C   0  0  0  0  0  0  0  0  0  0  0  0
   36.0370   28.6040   49.2940 N   0  0  0  0  0  0  0  0  0  0  0  0
   34.7840   28.2340   49.5510 C   0  0  0  0  0  0  0  0  0  0  0  0
   33.8430   29.1620   49.8480 N   0  0  0  0  0  0  0  0  0  0  0  0
   38.0470   30.8220   47.6690 C   0  0  0  0  0  0  0  0  0  0  0  0
   38.7250   32.1260   47.8360 C   0  0  0  0  0  0  0  0  0  0  0  0
   39.5500   32.7200   46.9250 C   0  0  0  0  0  0  0  0  0  0  0  0
   40.1110   33.9270   47.2080 C   0  0  0  0  0  0  0  0  0  0  0  0
   39.7950   34.4850   48.4400 C   0  0  0  0  0  0  0  0  0  0  0  0
   38.6610   33.2330   49.2000 S   0  0  0  0  0  0  0  0  0  0  0  0
   38.2429   30.8614   49.7995 H   0  0  0  0  0  0  0  0  0  0  0  0
   38.3757   29.2199   49.0297 H   0  0  0  0  0  0  0  0  0  0  0  0
   33.4090   31.2289   50.1245 H   0  0  0  0  0  0  0  0  0  0  0  0
   35.7843   31.9593   49.6427 H   0  0  0  0  0  0  0  0  0  0  0  0
   34.5115   27.1687   49.5220 H   0  0  0  0  0  0  0  0  0  0  0  0
   37.0702   30.9748   47.1869 H   0  0  0  0  0  0  0  0  0  0  0  0
   38.6647   30.1634   47.0407 H   0  0  0  0  0  0  0  0  0  0  0  0
   39.7605   32.2248   45.9656 H   0  0  0  0  0  0  0  0  0  0  0  0
   40.7802   34.4346   46.4977 H   0  0  0  0  0  0  0  0  0  0  0  0
   40.1364   35.4413   48.8630 H   0  0  0  0  0  0  0  0  0  0  0  0
  1  4  1  0
  3  2  2  0
  4  3  1  0
  5  4  2  0
  5  6  1  0
  6  7  2  0
  7  2  1  0
  8  9  1  0
  8  1  1  0
  9 13  1  0
 10 11  1  0
 10  9  2  0
 11 12  2  0
 12 13  1  0
  1 14  1  0
  1 15  1  0
  2 16  1  0
  3 17  1  0
  6 18  1  0
  8 19  1  0
  8 20  1  0
 10 21  1  0
 11 22  1  0
 12 23  1  0
M  ISO  8  14   8  15   8  16  14  17  14  18  14  19   8  20   8  21  14
M  ISO  2  22  14  23  14
M  END
>  <minimizedAffinity>  (1) 
-3.69813013

>  <minimizedRMSD>  (1) 
2.65763831

$$$$
