
     RDKit          3D

 40 43  0  0  0  0  0  0  0  0999 V2000
   38.2050   31.8180   46.4800 N   0  0  0  0  0  0  0  0  0  0  0  0
   39.1210   32.6340   46.9480 C   0  0  0  0  0  0  0  0  0  0  0  0
   39.9550   33.4260   46.2020 C   0  0  0  0  0  0  0  0  0  0  0  0
   39.8600   33.3940   44.8400 C   0  0  0  0  0  0  0  0  0  0  0  0
   40.5820   34.0830   44.0820 O   0  0  0  0  0  0  0  0  0  0  0  0
   38.9480   32.5840   44.3240 N   0  0  0  0  0  0  0  0  0  0  0  0
   38.1560   31.8290   45.1000 C   0  0  0  0  0  0  0  0  0  0  0  0
   37.3170   31.0880   44.5060 O   0  0  0  0  0  0  0  0  0  0  0  0
   38.8220   32.5250   42.9050 C   0  0  0  0  0  0  0  0  0  0  0  0
   38.0170   33.3180   42.1620 N   0  0  0  0  0  0  0  0  0  0  0  0
   37.9650   33.1890   40.8260 C   0  0  0  0  0  0  0  0  0  0  0  0
   38.7100   32.2690   40.1890 N   0  0  0  0  0  0  0  0  0  0  0  0
   39.5140   31.4740   40.9110 C   0  0  0  0  0  0  0  0  0  0  0  0
   40.2870   30.5190   40.2430 C   0  0  0  0  0  0  0  0  0  0  0  0
   41.1440   29.6580   40.9090 C   0  0  0  0  0  0  0  0  0  0  0  0
   41.1770   29.8130   42.2790 C   0  0  0  0  0  0  0  0  0  0  0  0
   40.4480   30.7280   43.0090 C   0  0  0  0  0  0  0  0  0  0  0  0
   39.6000   31.5730   42.2930 C   0  0  0  0  0  0  0  0  0  0  0  0
   37.3060   30.9730   47.1550 C   0  0  0  0  0  0  0  0  0  0  0  0
   37.7220   30.2710   48.3760 C   0  0  0  0  0  0  0  0  0  0  0  0
   34.4050   28.8700   49.5680 C   0  0  0  0  0  0  0  0  0  0  0  0
   35.4440   29.3180   48.7170 C   0  0  0  0  0  0  0  0  0  0  0  0
   36.6190   29.7980   49.2270 C   0  0  0  0  0  0  0  0  0  0  0  0
   36.7310   29.8210   50.5820 N   0  0  0  0  0  0  0  0  0  0  0  0
   35.7700   29.4070   51.3940 C   0  0  0  0  0  0  0  0  0  0  0  0
   34.6170   28.9350   50.8980 N   0  0  0  0  0  0  0  0  0  0  0  0
   39.2294   32.6871   48.0414 H   0  0  0  0  0  0  0  0  0  0  0  0
   40.6911   34.0787   46.6940 H   0  0  0  0  0  0  0  0  0  0  0  0
   37.3024   33.8465   40.2440 H   0  0  0  0  0  0  0  0  0  0  0  0
   40.2117   30.4488   39.1478 H   0  0  0  0  0  0  0  0  0  0  0  0
   41.7527   28.9069   40.3843 H   0  0  0  0  0  0  0  0  0  0  0  0
   41.8465   29.1453   42.8411 H   0  0  0  0  0  0  0  0  0  0  0  0
   40.5313   30.7887   44.1042 H   0  0  0  0  0  0  0  0  0  0  0  0
   36.4359   31.5892   47.4258 H   0  0  0  0  0  0  0  0  0  0  0  0
   37.1482   30.1537   46.4382 H   0  0  0  0  0  0  0  0  0  0  0  0
   38.3232   29.3986   48.0802 H   0  0  0  0  0  0  0  0  0  0  0  0
   38.2816   31.0033   48.9764 H   0  0  0  0  0  0  0  0  0  0  0  0
   33.4598   28.4832   49.1593 H   0  0  0  0  0  0  0  0  0  0  0  0
   35.3039   29.2794   47.6266 H   0  0  0  0  0  0  0  0  0  0  0  0
   35.9187   29.4507   52.4830 H   0  0  0  0  0  0  0  0  0  0  0  0
  1  2  1  0
  1 19  1  0
  3  2  2  0
  4  3  1  0
  5  4  2  0
  6  4  1  0
  6  7  1  0
  7  1  1  0
  8  7  2  0
  9  6  1  0
 10  9  2  0
 11 10  1  0
 12 11  2  0
 12 13  1  0
 13 18  2  0
 14 15  2  0
 14 13  1  0
 15 16  1  0
 16 17  2  0
 18  9  1  0
 18 17  1  0
 19 20  1  0
 20 23  1  0
 21 26  2  0
 22 23  2  0
 22 21  1  0
 23 24  1  0
 24 25  2  0
 26 25  1  0
  2 27  1  0
  3 28  1  0
 11 29  1  0
 14 30  1  0
 15 31  1  0
 16 32  1  0
 17 33  1  0
 19 34  1  0
 19 35  1  0
 20 36  1  0
 20 37  1  0
 21 38  1  0
 22 39  1  0
 25 40  1  0
M  ISO  8  27  14  28  14  29  14  30  14  31  14  32  14  33  14  34   8
M  ISO  6  35   8  36   8  37   8  38  14  39  14  40  14
M  END
>  <minimizedAffinity>  (1) 
-6.02597666

>  <minimizedRMSD>  (1) 
1.07067907

$$$$
