
     RDKit          3D

 33 35  0  0  0  0  0  0  0  0999 V2000
   39.1420   32.0220   46.4920 N   0  0  0  0  0  0  0  0  0  0  0  0
   40.1640   32.7570   46.0780 C   0  0  0  0  0  0  0  0  0  0  0  0
   40.2810   33.3280   44.8350 C   0  0  0  0  0  0  0  0  0  0  0  0
   39.2880   33.1510   43.9180 C   0  0  0  0  0  0  0  0  0  0  0  0
   39.3170   33.6360   42.7660 O   0  0  0  0  0  0  0  0  0  0  0  0
   38.2540   32.4240   44.2990 N   0  0  0  0  0  0  0  0  0  0  0  0
   38.1730   31.8810   45.5240 C   0  0  0  0  0  0  0  0  0  0  0  0
   37.1370   31.2000   45.7860 O   0  0  0  0  0  0  0  0  0  0  0  0
   37.1880   32.2130   43.3620 C   0  0  0  0  0  0  0  0  0  0  0  0
   36.9530   31.2910   42.3600 C   0  0  0  0  0  0  0  0  0  0  0  0
   35.7760   31.5560   41.7760 N   0  0  0  0  0  0  0  0  0  0  0  0
   35.2430   32.6360   42.3820 C   0  0  0  0  0  0  0  0  0  0  0  0
   36.0890   33.0230   43.3250 N   0  0  0  0  0  0  0  0  0  0  0  0
   38.9290   31.4020   47.7330 C   0  0  0  0  0  0  0  0  0  0  0  0
   38.0950   32.0430   48.7520 C   0  0  0  0  0  0  0  0  0  0  0  0
   35.3950   29.7900   50.1600 C   0  0  0  0  0  0  0  0  0  0  0  0
   36.1010   30.6700   49.2940 C   0  0  0  0  0  0  0  0  0  0  0  0
   37.3440   31.1350   49.6270 C   0  0  0  0  0  0  0  0  0  0  0  0
   37.8600   30.7170   50.8130 N   0  0  0  0  0  0  0  0  0  0  0  0
   37.2120   29.8990   51.6280 C   0  0  0  0  0  0  0  0  0  0  0  0
   35.9880   29.4300   51.3170 N   0  0  0  0  0  0  0  0  0  0  0  0
   40.9866   32.9234   46.7891 H   0  0  0  0  0  0  0  0  0  0  0  0
   41.1698   33.9242   44.5808 H   0  0  0  0  0  0  0  0  0  0  0  0
   37.6275   30.4670   42.0843 H   0  0  0  0  0  0  0  0  0  0  0  0
   34.2807   33.1096   42.1378 H   0  0  0  0  0  0  0  0  0  0  0  0
   35.9379   33.8289   43.9484 H   0  0  0  0  0  0  0  0  0  0  0  0
   38.4723   30.4238   47.5220 H   0  0  0  0  0  0  0  0  0  0  0  0
   39.9296   31.4139   48.1898 H   0  0  0  0  0  0  0  0  0  0  0  0
   38.7503   32.6579   49.3865 H   0  0  0  0  0  0  0  0  0  0  0  0
   37.3382   32.6190   48.1994 H   0  0  0  0  0  0  0  0  0  0  0  0
   34.3958   29.4144   49.8944 H   0  0  0  0  0  0  0  0  0  0  0  0
   35.6417   30.9809   48.3440 H   0  0  0  0  0  0  0  0  0  0  0  0
   37.6815   29.5970   52.5759 H   0  0  0  0  0  0  0  0  0  0  0  0
  1 14  1  0
  2  1  1  0
  3  2  2  0
  4  6  1  0
  4  3  1  0
  5  4  2  0
  6  7  1  0
  7  8  2  0
  7  1  1  0
  9  6  1  0
 10  9  2  0
 11 10  1  0
 11 12  2  0
 12 13  1  0
 13  9  1  0
 14 15  1  0
 15 18  1  0
 16 21  2  0
 17 18  2  0
 17 16  1  0
 18 19  1  0
 19 20  2  0
 21 20  1  0
  2 22  1  0
  3 23  1  0
 10 24  1  0
 12 25  1  0
 13 26  1  0
 14 27  1  0
 14 28  1  0
 15 29  1  0
 15 30  1  0
 16 31  1  0
 17 32  1  0
 20 33  1  0
M  ISO  8  22  14  23  14  24  14  25  14  26   9  27   8  28   8  29   8
M  ISO  4  30   8  31  14  32  14  33  14
M  END
>  <minimizedAffinity>  (1) 
-5.79725552

>  <minimizedRMSD>  (1) 
1.52861881

$$$$
