
     RDKit          3D

 36 38  0  0  0  0  0  0  0  0999 V2000
   38.7790   32.3360   46.6610 N   0  0  0  0  0  0  0  0  0  0  0  0
   39.8840   32.9430   46.2510 C   0  0  0  0  0  0  0  0  0  0  0  0
   40.5290   32.7150   45.0660 C   0  0  0  0  0  0  0  0  0  0  0  0
   40.0280   31.7870   44.1960 C   0  0  0  0  0  0  0  0  0  0  0  0
   40.5580   31.5210   43.0960 O   0  0  0  0  0  0  0  0  0  0  0  0
   38.9320   31.1620   44.5680 N   0  0  0  0  0  0  0  0  0  0  0  0
   38.3240   31.4140   45.7420 C   0  0  0  0  0  0  0  0  0  0  0  0
   37.2760   30.7590   46.0040 O   0  0  0  0  0  0  0  0  0  0  0  0
   38.3720   30.1830   43.6880 C   0  0  0  0  0  0  0  0  0  0  0  0
   37.3450   30.3050   42.7780 C   0  0  0  0  0  0  0  0  0  0  0  0
   36.9820   29.2040   42.0350 C   0  0  0  0  0  0  0  0  0  0  0  0
   37.6240   27.9930   42.1870 C   0  0  0  0  0  0  0  0  0  0  0  0
   38.6540   27.8420   43.0900 C   0  0  0  0  0  0  0  0  0  0  0  0
   39.0190   28.9520   43.8370 C   0  0  0  0  0  0  0  0  0  0  0  0
   38.0520   32.5050   47.8500 C   0  0  0  0  0  0  0  0  0  0  0  0
   38.5560   31.9550   49.1170 C   0  0  0  0  0  0  0  0  0  0  0  0
   35.5120   29.9150   50.0470 C   0  0  0  0  0  0  0  0  0  0  0  0
   36.3810   30.7710   49.3280 C   0  0  0  0  0  0  0  0  0  0  0  0
   37.6190   31.0710   49.8280 C   0  0  0  0  0  0  0  0  0  0  0  0
   37.9600   30.5180   51.0250 N   0  0  0  0  0  0  0  0  0  0  0  0
   37.1510   29.7170   51.7020 C   0  0  0  0  0  0  0  0  0  0  0  0
   35.9310   29.4060   51.2330 N   0  0  0  0  0  0  0  0  0  0  0  0
   40.3209   33.6965   46.9228 H   0  0  0  0  0  0  0  0  0  0  0  0
   41.4429   33.2736   44.8155 H   0  0  0  0  0  0  0  0  0  0  0  0
   36.8241   31.2650   42.6472 H   0  0  0  0  0  0  0  0  0  0  0  0
   36.1634   29.2922   41.3055 H   0  0  0  0  0  0  0  0  0  0  0  0
   37.3087   27.1334   41.5774 H   0  0  0  0  0  0  0  0  0  0  0  0
   39.1675   26.8771   43.2137 H   0  0  0  0  0  0  0  0  0  0  0  0
   39.8384   28.8619   44.5654 H   0  0  0  0  0  0  0  0  0  0  0  0
   37.9397   33.5890   47.9994 H   0  0  0  0  0  0  0  0  0  0  0  0
   37.1411   31.9154   47.6691 H   0  0  0  0  0  0  0  0  0  0  0  0
   39.4690   31.3810   48.9005 H   0  0  0  0  0  0  0  0  0  0  0  0
   38.7281   32.8164   49.7790 H   0  0  0  0  0  0  0  0  0  0  0  0
   34.5159   29.6673   49.6515 H   0  0  0  0  0  0  0  0  0  0  0  0
   36.0602   31.1958   48.3654 H   0  0  0  0  0  0  0  0  0  0  0  0
   37.4834   29.2996   52.6639 H   0  0  0  0  0  0  0  0  0  0  0  0
  1 15  1  0
  2  1  1  0
  3  2  2  0
  4  6  1  0
  4  3  1  0
  5  4  2  0
  6  7  1  0
  7  8  2  0
  7  1  1  0
  9 14  1  0
  9  6  1  0
 10  9  2  0
 11 12  2  0
 11 10  1  0
 12 13  1  0
 13 14  2  0
 15 16  1  0
 16 19  1  0
 17 22  2  0
 18 19  2  0
 18 17  1  0
 19 20  1  0
 20 21  2  0
 22 21  1  0
  2 23  1  0
  3 24  1  0
 10 25  1  0
 11 26  1  0
 12 27  1  0
 13 28  1  0
 14 29  1  0
 15 30  1  0
 15 31  1  0
 16 32  1  0
 16 33  1  0
 17 34  1  0
 18 35  1  0
 21 36  1  0
M  ISO  8  23  14  24  14  25  14  26  14  27  14  28  14  29  14  30   8
M  ISO  6  31   8  32   8  33   8  34  14  35  14  36  14
M  END
>  <minimizedAffinity>  (1) 
-5.65638304

>  <minimizedRMSD>  (1) 
2.72062397

$$$$
