
     RDKit          3D

 38 40  0  0  1  0  0  0  0  0999 V2000
   39.0680   32.1740   46.6750 N   0  0  0  0  0  0  0  0  0  0  0  0
   39.9840   33.0050   46.2360 C   0  0  0  0  0  0  0  0  0  0  0  0
   40.0680   33.4610   44.9580 C   0  0  0  0  0  0  0  0  0  0  0  0
   39.1670   33.0650   44.0180 C   0  0  0  0  0  0  0  0  0  0  0  0
   39.2220   33.4700   42.8340 O   0  0  0  0  0  0  0  0  0  0  0  0
   38.2160   32.2220   44.4030 N   0  0  0  0  0  0  0  0  0  0  0  0
   38.1920   31.8140   45.6790 C   0  0  0  0  0  0  0  0  0  0  0  0
   37.2510   31.0170   45.9480 O   0  0  0  0  0  0  0  0  0  0  0  0
   38.0450   30.9660   42.4680 N   0  0  0  0  0  0  0  0  0  0  0  0
   37.2200   29.8250   42.1730 C   0  0  0  0  0  0  0  0  0  0  0  0
   36.4280   29.6750   43.4810 C   0  0  0  0  0  0  0  0  0  0  0  0
   36.0630   31.1580   43.6290 C   0  0  0  0  0  0  0  0  0  0  0  0
   37.2940   31.8310   43.3940 C   0  0  1  0  0  0  0  0  0  0  0  0
   38.8430   31.6180   47.9550 C   0  0  0  0  0  0  0  0  0  0  0  0
   37.7970   32.1900   48.8110 C   0  0  0  0  0  0  0  0  0  0  0  0
   35.2060   29.7940   50.2040 C   0  0  0  0  0  0  0  0  0  0  0  0
   35.8340   30.7280   49.3600 C   0  0  0  0  0  0  0  0  0  0  0  0
   37.0810   31.2140   49.6450 C   0  0  0  0  0  0  0  0  0  0  0  0
   37.6750   30.7460   50.7810 N   0  0  0  0  0  0  0  0  0  0  0  0
   37.1010   29.8680   51.5880 C   0  0  0  0  0  0  0  0  0  0  0  0
   35.8810   29.3910   51.3120 N   0  0  0  0  0  0  0  0  0  0  0  0
   40.7386   33.3582   46.9542 H   0  0  0  0  0  0  0  0  0  0  0  0
   40.8729   34.1576   44.6807 H   0  0  0  0  0  0  0  0  0  0  0  0
   38.2567   31.4800   41.6009 H   0  0  0  0  0  0  0  0  0  0  0  0
   36.5538   30.0204   41.3198 H   0  0  0  0  0  0  0  0  0  0  0  0
   37.7839   28.9259   41.8839 H   0  0  0  0  0  0  0  0  0  0  0  0
   35.5438   29.0303   43.3692 H   0  0  0  0  0  0  0  0  0  0  0  0
   36.9480   29.2026   44.3274 H   0  0  0  0  0  0  0  0  0  0  0  0
   35.3067   31.4522   42.8865 H   0  0  0  0  0  0  0  0  0  0  0  0
   35.6273   31.3948   44.6109 H   0  0  0  0  0  0  0  0  0  0  0  0
   36.9251   32.8198   43.0839 H   0  0  0  0  0  0  0  0  0  0  0  0
   38.5912   30.5578   47.8050 H   0  0  0  0  0  0  0  0  0  0  0  0
   39.7737   31.8330   48.5006 H   0  0  0  0  0  0  0  0  0  0  0  0
   38.2659   32.9299   49.4763 H   0  0  0  0  0  0  0  0  0  0  0  0
   37.0482   32.6277   48.1345 H   0  0  0  0  0  0  0  0  0  0  0  0
   34.2035   29.4036   49.9748 H   0  0  0  0  0  0  0  0  0  0  0  0
   35.3133   31.0738   48.4548 H   0  0  0  0  0  0  0  0  0  0  0  0
   37.6295   29.5282   52.4909 H   0  0  0  0  0  0  0  0  0  0  0  0
  1 14  1  0
  2  1  1  0
  3  2  2  0
  4  6  1  0
  4  3  1  0
  5  4  2  0
  6  7  1  0
  7  8  2  0
  7  1  1  0
  9 13  1  0
 10  9  1  0
 10 11  1  0
 11 12  1  0
 13 12  1  0
 13  6  1  0
 14 15  1  0
 15 18  1  0
 16 21  2  0
 17 18  2  0
 17 16  1  0
 18 19  1  0
 19 20  2  0
 21 20  1  0
  2 22  1  0
  3 23  1  0
  9 24  1  0
 10 25  1  0
 10 26  1  0
 11 27  1  0
 11 28  1  0
 12 29  1  0
 12 30  1  0
 13 31  1  6
 14 32  1  0
 14 33  1  0
 15 34  1  0
 15 35  1  0
 16 36  1  0
 17 37  1  0
 20 38  1  0
M  ISO  8  22  14  23  14  24   5  25  13  26  13  27  13  28  13  29  13
M  ISO  8  30  13  31  13  32   8  33   8  34   8  35   8  36  14  37  14
M  ISO  1  38  14
M  END
>  <minimizedAffinity>  (1) 
-5.54128313

>  <minimizedRMSD>  (1) 
2.20711422

$$$$
