
     RDKit          3D

 44 46  0  0  0  0  0  0  0  0999 V2000
   37.4040   31.5830   48.5230 C   0  0  0  0  0  0  0  0  0  0  0  0
   35.5060   29.2950   50.8610 C   0  0  0  0  0  0  0  0  0  0  0  0
   36.4130   30.2630   50.3920 C   0  0  0  0  0  0  0  0  0  0  0  0
   36.4780   30.5830   49.0610 C   0  0  0  0  0  0  0  0  0  0  0  0
   35.6310   29.9250   48.2230 N   0  0  0  0  0  0  0  0  0  0  0  0
   34.7790   29.0160   48.6630 C   0  0  0  0  0  0  0  0  0  0  0  0
   34.6910   28.6830   49.9490 N   0  0  0  0  0  0  0  0  0  0  0  0
   33.9360   28.3850   47.7100 N   0  0  0  0  0  0  0  0  0  0  0  0
   33.7250   26.9460   47.7210 C   0  0  0  0  0  0  0  0  0  0  0  0
   32.2770   26.6340   48.0230 C   0  0  0  0  0  0  0  0  0  0  0  0
   31.4560   27.8930   47.8450 C   0  0  0  0  0  0  0  0  0  0  0  0
   31.8240   28.6050   46.5680 C   0  0  0  0  0  0  0  0  0  0  0  0
   33.2350   29.1440   46.6680 C   0  0  0  0  0  0  0  0  0  0  0  0
   38.4210   31.0450   47.5930 C   0  0  0  0  0  0  0  0  0  0  0  0
   38.7820   31.7720   46.4550 N   0  0  0  0  0  0  0  0  0  0  0  0
   39.7870   32.6310   46.2900 C   0  0  0  0  0  0  0  0  0  0  0  0
   40.0680   33.3050   45.1260 C   0  0  0  0  0  0  0  0  0  0  0  0
   39.2740   33.1070   44.0190 C   0  0  0  0  0  0  0  0  0  0  0  0
   39.4670   33.6830   42.9300 O   0  0  0  0  0  0  0  0  0  0  0  0
   38.2740   32.2590   44.1690 N   0  0  0  0  0  0  0  0  0  0  0  0
   38.0180   31.6140   45.3090 C   0  0  0  0  0  0  0  0  0  0  0  0
   37.0370   30.8260   45.3410 O   0  0  0  0  0  0  0  0  0  0  0  0
   37.4080   32.0250   43.0100 C   0  0  0  0  0  0  0  0  0  0  0  0
   36.2460   31.4010   43.4060 F   0  0  0  0  0  0  0  0  0  0  0  0
   38.0960   31.1720   42.1570 F   0  0  0  0  0  0  0  0  0  0  0  0
   37.1740   33.2390   42.4090 F   0  0  0  0  0  0  0  0  0  0  0  0
   36.8155   32.3415   47.9860 H   0  0  0  0  0  0  0  0  0  0  0  0
   37.9543   31.9922   49.3831 H   0  0  0  0  0  0  0  0  0  0  0  0
   35.4539   29.0381   51.9293 H   0  0  0  0  0  0  0  0  0  0  0  0
   37.0800   30.7706   51.1044 H   0  0  0  0  0  0  0  0  0  0  0  0
   33.9883   26.5324   46.7363 H   0  0  0  0  0  0  0  0  0  0  0  0
   34.3594   26.4957   48.4987 H   0  0  0  0  0  0  0  0  0  0  0  0
   31.9153   25.8569   47.3336 H   0  0  0  0  0  0  0  0  0  0  0  0
   32.1822   26.2707   49.0569 H   0  0  0  0  0  0  0  0  0  0  0  0
   30.3897   27.6249   47.8124 H   0  0  0  0  0  0  0  0  0  0  0  0
   31.6599   28.5656   48.6912 H   0  0  0  0  0  0  0  0  0  0  0  0
   31.1260   29.4385   46.4008 H   0  0  0  0  0  0  0  0  0  0  0  0
   31.7650   27.8970   45.7282 H   0  0  0  0  0  0  0  0  0  0  0  0
   33.7513   29.0204   45.7046 H   0  0  0  0  0  0  0  0  0  0  0  0
   33.2188   30.2147   46.9198 H   0  0  0  0  0  0  0  0  0  0  0  0
   39.3398   30.8957   48.1791 H   0  0  0  0  0  0  0  0  0  0  0  0
   37.9351   30.1499   47.1774 H   0  0  0  0  0  0  0  0  0  0  0  0
   40.4433   32.8151   47.1533 H   0  0  0  0  0  0  0  0  0  0  0  0
   40.9212   33.9977   45.0791 H   0  0  0  0  0  0  0  0  0  0  0  0
  1  4  1  0
  3  2  2  0
  4  3  1  0
  5  6  1  0
  5  4  2  0
  6  7  2  0
  7  2  1  0
  8  9  1  0
  8  6  1  0
  9 10  1  0
 11 10  1  0
 12 13  1  0
 12 11  1  0
 13  8  1  0
 14  1  1  0
 15 14  1  0
 16 15  1  0
 17 16  2  0
 18 20  1  0
 18 17  1  0
 19 18  2  0
 20 21  1  0
 21 22  2  0
 21 15  1  0
 23 24  1  0
 23 20  1  0
 25 23  1  0
 26 23  1  0
  1 27  1  0
  1 28  1  0
  2 29  1  0
  3 30  1  0
  9 31  1  0
  9 32  1  0
 10 33  1  0
 10 34  1  0
 11 35  1  0
 11 36  1  0
 12 37  1  0
 12 38  1  0
 13 39  1  0
 13 40  1  0
 14 41  1  0
 14 42  1  0
 16 43  1  0
 17 44  1  0
M  ISO  8  27   8  28   8  29  14  30  14  31  13  32  13  33  13  34  13
M  ISO  8  35  13  36  13  37  13  38  13  39  13  40  13  41   8  42   8
M  ISO  2  43  14  44  14
M  END
>  <minimizedAffinity>  (1) 
-6.01255655

>  <minimizedRMSD>  (1) 
4.54177904

$$$$
