
     RDKit          3D

 42 44  0  0  0  0  0  0  0  0999 V2000
   37.6130   30.8450   45.3970 C   0  0  0  0  0  0  0  0  0  0  0  0
   36.7700   30.6690   46.5060 N   0  0  0  0  0  0  0  0  0  0  0  0
   35.5690   30.1310   46.5780 C   0  0  0  0  0  0  0  0  0  0  0  0
   34.8220   30.0080   47.7170 C   0  0  0  0  0  0  0  0  0  0  0  0
   35.3270   30.4700   48.9060 C   0  0  0  0  0  0  0  0  0  0  0  0
   34.7060   30.3940   49.9850 O   0  0  0  0  0  0  0  0  0  0  0  0
   36.5170   31.0080   48.8620 N   0  0  0  0  0  0  0  0  0  0  0  0
   37.2340   31.1190   47.7340 C   0  0  0  0  0  0  0  0  0  0  0  0
   38.3710   31.6540   47.8000 O   0  0  0  0  0  0  0  0  0  0  0  0
   37.0910   31.5140   50.1110 C   0  0  0  0  0  0  0  0  0  0  0  0
   38.4620   31.5310   50.0300 F   0  0  0  0  0  0  0  0  0  0  0  0
   36.7290   30.5980   51.1040 F   0  0  0  0  0  0  0  0  0  0  0  0
   36.5760   32.7480   50.3620 F   0  0  0  0  0  0  0  0  0  0  0  0
   37.3510   30.1010   44.1420 C   0  0  0  0  0  0  0  0  0  0  0  0
   40.1570   31.4020   41.9940 C   0  0  0  0  0  0  0  0  0  0  0  0
   39.1880   31.3580   43.0250 C   0  0  0  0  0  0  0  0  0  0  0  0
   38.3810   30.2560   43.1180 C   0  0  0  0  0  0  0  0  0  0  0  0
   38.5580   29.2610   42.2090 N   0  0  0  0  0  0  0  0  0  0  0  0
   39.4620   29.3120   41.2530 C   0  0  0  0  0  0  0  0  0  0  0  0
   40.2690   30.3570   41.1200 N   0  0  0  0  0  0  0  0  0  0  0  0
   39.6270   28.2600   40.3160 N   0  0  0  0  0  0  0  0  0  0  0  0
   39.4840   28.3130   38.8760 C   0  0  0  0  0  0  0  0  0  0  0  0
   40.8810   28.1500   38.3090 C   0  0  0  0  0  0  0  0  0  0  0  0
   41.4160   26.9700   38.7360 O   0  0  0  0  0  0  0  0  0  0  0  0
   40.6440   26.1740   39.5300 C   0  0  0  0  0  0  0  0  0  0  0  0
   39.9830   26.9020   40.6770 C   0  0  0  0  0  0  0  0  0  0  0  0
   37.5853   31.9151   45.1436 H   0  0  0  0  0  0  0  0  0  0  0  0
   38.5728   30.4317   45.7406 H   0  0  0  0  0  0  0  0  0  0  0  0
   35.1309   29.7490   45.6441 H   0  0  0  0  0  0  0  0  0  0  0  0
   33.8258   29.5431   47.6801 H   0  0  0  0  0  0  0  0  0  0  0  0
   37.2691   29.0319   44.3875 H   0  0  0  0  0  0  0  0  0  0  0  0
   36.4252   30.5182   43.7192 H   0  0  0  0  0  0  0  0  0  0  0  0
   40.8185   32.2754   41.8964 H   0  0  0  0  0  0  0  0  0  0  0  0
   39.0857   32.1911   43.7360 H   0  0  0  0  0  0  0  0  0  0  0  0
   38.8326   27.4983   38.5267 H   0  0  0  0  0  0  0  0  0  0  0  0
   39.0264   29.2593   38.5519 H   0  0  0  0  0  0  0  0  0  0  0  0
   41.5135   28.9828   38.6501 H   0  0  0  0  0  0  0  0  0  0  0  0
   40.8304   28.1504   37.2102 H   0  0  0  0  0  0  0  0  0  0  0  0
   39.8569   25.7241   38.9070 H   0  0  0  0  0  0  0  0  0  0  0  0
   41.3146   25.4240   39.9748 H   0  0  0  0  0  0  0  0  0  0  0  0
   40.6780   26.9302   41.5292 H   0  0  0  0  0  0  0  0  0  0  0  0
   39.0602   26.3636   40.9386 H   0  0  0  0  0  0  0  0  0  0  0  0
  1  2  1  0
  2  3  1  0
  2  8  1  0
  3  4  2  0
  4  5  1  0
  5  6  2  0
  7  5  1  0
  7 10  1  0
  8  9  2  0
  8  7  1  0
 10 13  1  0
 10 12  1  0
 11 10  1  0
 14  1  1  0
 15 16  2  0
 16 17  1  0
 17 14  1  0
 18 17  2  0
 19 18  1  0
 20 19  2  0
 20 15  1  0
 21 26  1  0
 21 19  1  0
 22 21  1  0
 23 24  1  0
 23 22  1  0
 24 25  1  0
 25 26  1  0
  1 27  1  0
  1 28  1  0
  3 29  1  0
  4 30  1  0
 14 31  1  0
 14 32  1  0
 15 33  1  0
 16 34  1  0
 22 35  1  0
 22 36  1  0
 23 37  1  0
 23 38  1  0
 25 39  1  0
 25 40  1  0
 26 41  1  0
 26 42  1  0
M  ISO  8  27   8  28   8  29  14  30  14  31   8  32   8  33  14  34  14
M  ISO  8  35  13  36  13  37  13  38  13  39  13  40  13  41  13  42  13
M  END
>  <minimizedAffinity>  (1) 
-5.75163746

>  <minimizedRMSD>  (1) 
9.79897118

$$$$
