
     RDKit          3D

 32 33  0  0  0  0  0  0  0  0999 V2000
   37.2630   30.9490   46.3290 C   0  0  0  0  0  0  0  0  0  0  0  0
   37.9240   31.6950   45.3400 N   0  0  0  0  0  0  0  0  0  0  0  0
   39.0980   32.2900   45.3700 C   0  0  0  0  0  0  0  0  0  0  0  0
   39.6610   33.0040   44.3330 C   0  0  0  0  0  0  0  0  0  0  0  0
   38.9700   33.1300   43.1520 C   0  0  0  0  0  0  0  0  0  0  0  0
   39.4210   33.7620   42.1770 O   0  0  0  0  0  0  0  0  0  0  0  0
   37.7980   32.5420   43.1090 N   0  0  0  0  0  0  0  0  0  0  0  0
   37.2720   31.8560   44.1240 C   0  0  0  0  0  0  0  0  0  0  0  0
   36.1370   31.3360   43.9610 O   0  0  0  0  0  0  0  0  0  0  0  0
   37.0400   32.6610   41.8630 C   0  0  0  0  0  0  0  0  0  0  0  0
   36.1870   31.5880   41.7250 F   0  0  0  0  0  0  0  0  0  0  0  0
   37.9530   32.6220   40.8240 F   0  0  0  0  0  0  0  0  0  0  0  0
   36.3670   33.8450   41.8760 F   0  0  0  0  0  0  0  0  0  0  0  0
   37.9890   30.5800   47.5670 C   0  0  0  0  0  0  0  0  0  0  0  0
   35.0770   29.2600   49.5810 C   0  0  0  0  0  0  0  0  0  0  0  0
   35.8390   29.6870   48.4630 C   0  0  0  0  0  0  0  0  0  0  0  0
   37.1330   30.1240   48.6550 C   0  0  0  0  0  0  0  0  0  0  0  0
   37.6200   30.1210   49.9450 N   0  0  0  0  0  0  0  0  0  0  0  0
   36.8900   29.7190   50.9650 C   0  0  0  0  0  0  0  0  0  0  0  0
   35.6370   29.2910   50.8230 N   0  0  0  0  0  0  0  0  0  0  0  0
   37.5190   29.7590   52.3100 C   0  0  0  0  0  0  0  0  0  0  0  0
   36.9355   30.0107   45.8576 H   0  0  0  0  0  0  0  0  0  0  0  0
   36.4738   31.6285   46.6832 H   0  0  0  0  0  0  0  0  0  0  0  0
   39.6789   32.2110   46.3007 H   0  0  0  0  0  0  0  0  0  0  0  0
   40.6518   33.4673   44.4500 H   0  0  0  0  0  0  0  0  0  0  0  0
   38.6953   29.7726   47.3237 H   0  0  0  0  0  0  0  0  0  0  0  0
   38.4874   31.4940   47.9223 H   0  0  0  0  0  0  0  0  0  0  0  0
   34.0438   28.9072   49.4465 H   0  0  0  0  0  0  0  0  0  0  0  0
   35.4023   29.6697   47.4535 H   0  0  0  0  0  0  0  0  0  0  0  0
   36.7371   29.7093   53.0821 H   0  0  0  0  0  0  0  0  0  0  0  0
   38.1999   28.9023   52.4220 H   0  0  0  0  0  0  0  0  0  0  0  0
   38.0859   30.6950   52.4220 H   0  0  0  0  0  0  0  0  0  0  0  0
  1 14  1  0
  2  3  1  0
  2  1  1  0
  4  3  2  0
  5  4  1  0
  6  5  2  0
  7  5  1  0
  7  8  1  0
  8  2  1  0
  9  8  2  0
 10 13  1  0
 10  7  1  0
 11 10  1  0
 12 10  1  0
 14 17  1  0
 15 20  2  0
 16 17  2  0
 16 15  1  0
 17 18  1  0
 18 19  2  0
 19 21  1  0
 20 19  1  0
  1 22  1  0
  1 23  1  0
  3 24  1  0
  4 25  1  0
 14 26  1  0
 14 27  1  0
 15 28  1  0
 16 29  1  0
 21 30  1  0
 21 31  1  0
 21 32  1  0
M  ISO  8  22   8  23   8  24  14  25  14  26   8  27   8  28  14  29  14
M  ISO  3  30   8  31   8  32   8
M  END
>  <minimizedAffinity>  (1) 
-4.95887089

>  <minimizedRMSD>  (1) 
0.717137039

$$$$
