
     RDKit          3D

 30 31  0  0  0  0  0  0  0  0999 V2000
   38.3290   30.4780   45.6000 C   0  0  0  0  0  0  0  0  0  0  0  0
   38.5810   31.3610   44.5270 N   0  0  0  0  0  0  0  0  0  0  0  0
   39.7270   31.8490   44.0820 C   0  0  0  0  0  0  0  0  0  0  0  0
   39.8640   32.7070   43.0230 C   0  0  0  0  0  0  0  0  0  0  0  0
   38.7570   33.1220   42.3350 C   0  0  0  0  0  0  0  0  0  0  0  0
   38.8010   33.8980   41.3630 O   0  0  0  0  0  0  0  0  0  0  0  0
   37.6020   32.6430   42.7650 N   0  0  0  0  0  0  0  0  0  0  0  0
   37.4860   31.8080   43.7990 C   0  0  0  0  0  0  0  0  0  0  0  0
   36.3320   31.4160   44.1200 O   0  0  0  0  0  0  0  0  0  0  0  0
   36.3970   33.0660   42.0510 C   0  0  0  0  0  0  0  0  0  0  0  0
   35.3460   33.1970   42.9420 F   0  0  0  0  0  0  0  0  0  0  0  0
   36.0810   32.0570   41.1510 F   0  0  0  0  0  0  0  0  0  0  0  0
   36.6600   34.2370   41.4070 F   0  0  0  0  0  0  0  0  0  0  0  0
   38.5610   30.9300   46.9840 C   0  0  0  0  0  0  0  0  0  0  0  0
   35.1730   30.2120   48.4640 C   0  0  0  0  0  0  0  0  0  0  0  0
   36.1740   30.5230   47.5070 C   0  0  0  0  0  0  0  0  0  0  0  0
   37.4850   30.6140   47.9220 C   0  0  0  0  0  0  0  0  0  0  0  0
   37.7710   30.3990   49.2540 N   0  0  0  0  0  0  0  0  0  0  0  0
   36.8120   30.1130   50.1120 C   0  0  0  0  0  0  0  0  0  0  0  0
   35.5280   30.0090   49.7790 N   0  0  0  0  0  0  0  0  0  0  0  0
   37.3270   29.8600   51.8050 S   0  0  0  0  0  0  0  0  0  0  0  0
   38.9637   29.5936   45.4420 H   0  0  0  0  0  0  0  0  0  0  0  0
   37.2404   30.3256   45.5579 H   0  0  0  0  0  0  0  0  0  0  0  0
   40.6445   31.5408   44.6047 H   0  0  0  0  0  0  0  0  0  0  0  0
   40.8622   33.0615   42.7265 H   0  0  0  0  0  0  0  0  0  0  0  0
   39.4834   30.4545   47.3489 H   0  0  0  0  0  0  0  0  0  0  0  0
   38.6240   32.0275   46.9443 H   0  0  0  0  0  0  0  0  0  0  0  0
   34.1196   30.1336   48.1570 H   0  0  0  0  0  0  0  0  0  0  0  0
   35.9080   30.6885   46.4526 H   0  0  0  0  0  0  0  0  0  0  0  0
   36.3606   30.3348   52.6521 H   0  0  0  0  0  0  0  0  0  0  0  0
  1 14  1  0
  2  1  1  0
  3  2  1  0
  4  3  2  0
  5  7  1  0
  5  4  1  0
  6  5  2  0
  7  8  1  0
  8  9  2  0
  8  2  1  0
 10  7  1  0
 10 11  1  0
 12 10  1  0
 13 10  1  0
 14 17  1  0
 15 20  2  0
 16 17  2  0
 16 15  1  0
 17 18  1  0
 18 19  2  0
 19 21  1  0
 20 19  1  0
  1 22  1  0
  1 23  1  0
  3 24  1  0
  4 25  1  0
 14 26  1  0
 14 27  1  0
 15 28  1  0
 16 29  1  0
 21 30  1  0
M  ISO  8  22   8  23   8  24  14  25  14  26   8  27   8  28  14  29  14
M  ISO  1  30  11
M  END
>  <minimizedAffinity>  (1) 
-4.71540356

>  <minimizedRMSD>  (1) 
1.53727853

$$$$
