
     RDKit          3D

 51 53  0  0  0  0  0  0  0  0999 V2000
   38.3220   33.1780   43.4720 C   0  0  0  0  0  0  0  0  0  0  0  0
   36.5900   30.4430   45.3910 C   0  0  0  0  0  0  0  0  0  0  0  0
   36.9890   31.3120   44.3330 C   0  0  0  0  0  0  0  0  0  0  0  0
   37.9090   32.2960   44.5340 C   0  0  0  0  0  0  0  0  0  0  0  0
   38.4180   32.3980   45.8020 N   0  0  0  0  0  0  0  0  0  0  0  0
   38.0480   31.5940   46.7770 C   0  0  0  0  0  0  0  0  0  0  0  0
   37.1590   30.6310   46.6140 N   0  0  0  0  0  0  0  0  0  0  0  0
   38.6410   31.7610   48.1450 C   0  0  0  0  0  0  0  0  0  0  0  0
   37.8090   32.7120   48.9520 C   0  0  0  0  0  0  0  0  0  0  0  0
   37.1820   31.9250   50.1080 C   0  0  0  0  0  0  0  0  0  0  0  0
   38.0800   30.7660   50.4950 C   0  0  0  0  0  0  0  0  0  0  0  0
   37.4350   30.0650   51.6720 C   0  0  0  0  0  0  0  0  0  0  0  0
   36.2170   29.3230   51.1480 C   0  0  0  0  0  0  0  0  0  0  0  0
   35.7900   29.8790   49.8050 C   0  0  0  0  0  0  0  0  0  0  0  0
   35.8390   31.3850   49.7450 C   0  0  0  0  0  0  0  0  0  0  0  0
   39.5800   32.8320   42.7810 C   0  0  0  0  0  0  0  0  0  0  0  0
   39.5950   31.8140   41.8170 N   0  0  0  0  0  0  0  0  0  0  0  0
   39.0780   31.8270   40.6000 C   0  0  0  0  0  0  0  0  0  0  0  0
   39.1280   30.7900   39.6860 C   0  0  0  0  0  0  0  0  0  0  0  0
   39.7620   29.6300   40.0430 C   0  0  0  0  0  0  0  0  0  0  0  0
   39.8540   28.6470   39.2870 O   0  0  0  0  0  0  0  0  0  0  0  0
   40.2800   29.5970   41.2460 N   0  0  0  0  0  0  0  0  0  0  0  0
   40.2160   30.6130   42.1030 C   0  0  0  0  0  0  0  0  0  0  0  0
   40.7520   30.4850   43.2510 O   0  0  0  0  0  0  0  0  0  0  0  0
   40.9630   28.3700   41.6530 C   0  0  0  0  0  0  0  0  0  0  0  0
   40.2370   27.7160   42.6320 F   0  0  0  0  0  0  0  0  0  0  0  0
   42.1780   28.7400   42.1880 F   0  0  0  0  0  0  0  0  0  0  0  0
   41.1080   27.5790   40.5500 F   0  0  0  0  0  0  0  0  0  0  0  0
   37.5202   33.1931   42.7191 H   0  0  0  0  0  0  0  0  0  0  0  0
   38.5123   34.1474   43.9557 H   0  0  0  0  0  0  0  0  0  0  0  0
   35.8480   29.6481   45.2250 H   0  0  0  0  0  0  0  0  0  0  0  0
   36.5449   31.1851   43.3347 H   0  0  0  0  0  0  0  0  0  0  0  0
   38.6715   30.7845   48.6505 H   0  0  0  0  0  0  0  0  0  0  0  0
   39.6601   32.1640   48.0500 H   0  0  0  0  0  0  0  0  0  0  0  0
   38.4427   33.5185   49.3493 H   0  0  0  0  0  0  0  0  0  0  0  0
   37.0251   33.1622   48.3252 H   0  0  0  0  0  0  0  0  0  0  0  0
   37.0668   32.6213   50.9517 H   0  0  0  0  0  0  0  0  0  0  0  0
   38.1784   30.0685   49.6501 H   0  0  0  0  0  0  0  0  0  0  0  0
   39.0848   31.1260   50.7611 H   0  0  0  0  0  0  0  0  0  0  0  0
   38.1442   29.3538   52.1206 H   0  0  0  0  0  0  0  0  0  0  0  0
   37.1440   30.7918   52.4447 H   0  0  0  0  0  0  0  0  0  0  0  0
   36.4639   28.2570   51.0358 H   0  0  0  0  0  0  0  0  0  0  0  0
   35.3905   29.4494   51.8628 H   0  0  0  0  0  0  0  0  0  0  0  0
   36.4592   29.4759   49.0306 H   0  0  0  0  0  0  0  0  0  0  0  0
   34.7443   29.5784   49.6433 H   0  0  0  0  0  0  0  0  0  0  0  0
   35.5939   31.7060   48.7218 H   0  0  0  0  0  0  0  0  0  0  0  0
   35.1128   31.7737   50.4741 H   0  0  0  0  0  0  0  0  0  0  0  0
   39.9295   33.7474   42.2811 H   0  0  0  0  0  0  0  0  0  0  0  0
   40.2069   32.4244   43.5878 H   0  0  0  0  0  0  0  0  0  0  0  0
   38.5613   32.7459   40.2860 H   0  0  0  0  0  0  0  0  0  0  0  0
   38.6678   30.8951   38.6924 H   0  0  0  0  0  0  0  0  0  0  0  0
  1  4  1  0
  2  7  2  0
  3  4  2  0
  3  2  1  0
  4  5  1  0
  5  6  2  0
  6  8  1  0
  7  6  1  0
  8  9  1  0
  9 10  1  0
 10 11  1  0
 11 12  1  0
 13 12  1  0
 14 13  1  0
 15 14  1  0
 15 10  1  0
 16  1  1  0
 17 23  1  0
 17 16  1  0
 18 17  1  0
 19 20  1  0
 19 18  2  0
 20 22  1  0
 21 20  2  0
 22 25  1  0
 22 23  1  0
 23 24  2  0
 25 27  1  0
 25 26  1  0
 28 25  1  0
  1 29  1  0
  1 30  1  0
  2 31  1  0
  3 32  1  0
  8 33  1  0
  8 34  1  0
  9 35  1  0
  9 36  1  0
 10 37  1  0
 11 38  1  0
 11 39  1  0
 12 40  1  0
 12 41  1  0
 13 42  1  0
 13 43  1  0
 14 44  1  0
 14 45  1  0
 15 46  1  0
 15 47  1  0
 16 48  1  0
 16 49  1  0
 18 50  1  0
 19 51  1  0
M  ISO  8  29   8  30   8  31  14  32  14  33   8  34   8  35   8  36   8
M  ISO  8  37  13  38  13  39  13  40  13  41  13  42  13  43  13  44  13
M  ISO  7  45  13  46  13  47  13  48   8  49   8  50  14  51  14
M  END
>  <minimizedAffinity>  (1) 
-6.33643532

>  <minimizedRMSD>  (1) 
4.66877079

$$$$
