
     RDKit          3D

 40 42  0  0  0  0  0  0  0  0999 V2000
   37.3160   29.8380   48.8470 C   0  0  0  0  0  0  0  0  0  0  0  0
   38.5850   33.3310   49.4200 C   0  0  0  0  0  0  0  0  0  0  0  0
   37.9410   32.0720   49.6150 C   0  0  0  0  0  0  0  0  0  0  0  0
   37.9670   31.1090   48.6530 C   0  0  0  0  0  0  0  0  0  0  0  0
   38.6420   31.4160   47.4950 N   0  0  0  0  0  0  0  0  0  0  0  0
   39.2350   32.5770   47.3190 C   0  0  0  0  0  0  0  0  0  0  0  0
   39.2340   33.5380   48.2270 N   0  0  0  0  0  0  0  0  0  0  0  0
   39.9610   32.8680   46.0360 C   0  0  0  0  0  0  0  0  0  0  0  0
   40.6200   31.5920   45.5220 C   0  0  0  0  0  0  0  0  0  0  0  0
   40.3570   31.4990   44.0620 C   0  0  0  0  0  0  0  0  0  0  0  0
   40.7090   30.4980   43.2070 N   0  0  0  0  0  0  0  0  0  0  0  0
   40.2930   30.7920   42.0070 O   0  0  0  0  0  0  0  0  0  0  0  0
   39.6750   31.9510   42.0120 C   0  0  0  0  0  0  0  0  0  0  0  0
   39.7110   32.3940   43.2840 N   0  0  0  0  0  0  0  0  0  0  0  0
   35.9140   29.8780   49.2920 C   0  0  0  0  0  0  0  0  0  0  0  0
   34.8770   29.6750   48.3610 N   0  0  0  0  0  0  0  0  0  0  0  0
   34.5080   30.4400   47.3500 C   0  0  0  0  0  0  0  0  0  0  0  0
   33.4860   30.1880   46.4730 C   0  0  0  0  0  0  0  0  0  0  0  0
   32.7510   29.0340   46.6320 C   0  0  0  0  0  0  0  0  0  0  0  0
   31.8090   28.7240   45.8880 O   0  0  0  0  0  0  0  0  0  0  0  0
   33.1010   28.2560   47.6330 N   0  0  0  0  0  0  0  0  0  0  0  0
   34.0960   28.5340   48.4610 C   0  0  0  0  0  0  0  0  0  0  0  0
   34.3620   27.7180   49.4040 O   0  0  0  0  0  0  0  0  0  0  0  0
   32.3390   27.0240   47.8270 C   0  0  0  0  0  0  0  0  0  0  0  0
   31.5580   27.1180   48.9650 F   0  0  0  0  0  0  0  0  0  0  0  0
   33.2360   26.0000   47.9970 F   0  0  0  0  0  0  0  0  0  0  0  0
   31.5620   26.8230   46.7220 F   0  0  0  0  0  0  0  0  0  0  0  0
   37.8901   29.2805   49.6017 H   0  0  0  0  0  0  0  0  0  0  0  0
   37.2917   29.3693   47.8522 H   0  0  0  0  0  0  0  0  0  0  0  0
   38.5624   34.1084   50.1979 H   0  0  0  0  0  0  0  0  0  0  0  0
   37.4138   31.8762   50.5604 H   0  0  0  0  0  0  0  0  0  0  0  0
   39.2462   33.2387   45.2865 H   0  0  0  0  0  0  0  0  0  0  0  0
   40.7324   33.6310   46.2170 H   0  0  0  0  0  0  0  0  0  0  0  0
   41.7040   31.6312   45.7049 H   0  0  0  0  0  0  0  0  0  0  0  0
   40.2113   30.7131   46.0420 H   0  0  0  0  0  0  0  0  0  0  0  0
   39.2189   32.4589   41.1495 H   0  0  0  0  0  0  0  0  0  0  0  0
   35.8034   29.1037   50.0655 H   0  0  0  0  0  0  0  0  0  0  0  0
   35.7755   30.9240   49.6031 H   0  0  0  0  0  0  0  0  0  0  0  0
   35.0761   31.3695   47.1971 H   0  0  0  0  0  0  0  0  0  0  0  0
   33.2574   30.8921   45.6594 H   0  0  0  0  0  0  0  0  0  0  0  0
  1 15  1  0
  2  3  2  0
  4  1  1  0
  4  3  1  0
  5  4  2  0
  6  5  1  0
  6  7  2  0
  7  2  1  0
  8  6  1  0
  9  8  1  0
 10  9  1  0
 11 10  2  0
 12 13  1  0
 12 11  1  0
 13 14  2  0
 14 10  1  0
 16 22  1  0
 16 15  1  0
 17 16  1  0
 18 19  1  0
 18 17  2  0
 19 21  1  0
 20 19  2  0
 21 24  1  0
 21 22  1  0
 22 23  2  0
 24 26  1  0
 24 25  1  0
 27 24  1  0
  1 28  1  0
  1 29  1  0
  2 30  1  0
  3 31  1  0
  8 32  1  0
  8 33  1  0
  9 34  1  0
  9 35  1  0
 13 36  1  0
 15 37  1  0
 15 38  1  0
 17 39  1  0
 18 40  1  0
M  ISO  8  28   8  29   8  30  14  31  14  32   8  33   8  34   8  35   8
M  ISO  5  36  14  37   8  38   8  39  14  40  14
M  END
>  <minimizedAffinity>  (1) 
-5.94478035

>  <minimizedRMSD>  (1) 
8.28285217

$$$$
