
     RDKit          3D

 43 45  0  0  0  0  0  0  0  0999 V2000
   36.8220   30.9670   44.5550 C   0  0  0  0  0  0  0  0  0  0  0  0
   37.8030   30.9520   43.5290 C   0  0  0  0  0  0  0  0  0  0  0  0
   39.1220   31.1260   43.8220 C   0  0  0  0  0  0  0  0  0  0  0  0
   39.4450   31.3160   45.1470 N   0  0  0  0  0  0  0  0  0  0  0  0
   38.5150   31.3280   46.0950 C   0  0  0  0  0  0  0  0  0  0  0  0
   37.2320   31.1610   45.8380 N   0  0  0  0  0  0  0  0  0  0  0  0
   40.1430   31.1150   42.7980 C   0  0  0  0  0  0  0  0  0  0  0  0
   41.0360   29.9420   42.7950 C   0  0  0  0  0  0  0  0  0  0  0  0
   40.8830   28.9510   41.8150 N   0  0  0  0  0  0  0  0  0  0  0  0
   41.4260   28.8930   40.5940 C   0  0  0  0  0  0  0  0  0  0  0  0
   41.2370   27.8850   39.6920 C   0  0  0  0  0  0  0  0  0  0  0  0
   40.4410   26.8290   40.0140 C   0  0  0  0  0  0  0  0  0  0  0  0
   40.2230   25.8760   39.2480 O   0  0  0  0  0  0  0  0  0  0  0  0
   39.8890   26.8580   41.2190 N   0  0  0  0  0  0  0  0  0  0  0  0
   40.0940   27.8550   42.0690 C   0  0  0  0  0  0  0  0  0  0  0  0
   39.5190   27.7920   43.2030 O   0  0  0  0  0  0  0  0  0  0  0  0
   39.0350   25.7430   41.5910 C   0  0  0  0  0  0  0  0  0  0  0  0
   39.1750   25.4680   42.9380 F   0  0  0  0  0  0  0  0  0  0  0  0
   39.4390   24.6430   40.8720 F   0  0  0  0  0  0  0  0  0  0  0  0
   37.7410   26.0870   41.2970 F   0  0  0  0  0  0  0  0  0  0  0  0
   38.9230   31.5420   47.5230 C   0  0  0  0  0  0  0  0  0  0  0  0
   37.7590   32.0480   48.3240 C   0  0  0  0  0  0  0  0  0  0  0  0
   37.3750   31.1860   49.4360 C   0  0  0  0  0  0  0  0  0  0  0  0
   36.1110   30.6140   49.2620 C   0  0  0  0  0  0  0  0  0  0  0  0
   35.5210   29.7740   50.1700 C   0  0  0  0  0  0  0  0  0  0  0  0
   36.1980   29.4830   51.2900 N   0  0  0  0  0  0  0  0  0  0  0  0
   37.4160   30.0050   51.5040 C   0  0  0  0  0  0  0  0  0  0  0  0
   37.9590   30.8250   50.5910 N   0  0  0  0  0  0  0  0  0  0  0  0
   35.7570   30.8253   44.3188 H   0  0  0  0  0  0  0  0  0  0  0  0
   37.4943   30.7980   42.4845 H   0  0  0  0  0  0  0  0  0  0  0  0
   39.6409   31.1594   41.8203 H   0  0  0  0  0  0  0  0  0  0  0  0
   40.7877   31.9808   43.0096 H   0  0  0  0  0  0  0  0  0  0  0  0
   42.0633   30.3243   42.7033 H   0  0  0  0  0  0  0  0  0  0  0  0
   40.7742   29.4204   43.7274 H   0  0  0  0  0  0  0  0  0  0  0  0
   42.0783   29.7255   40.2915 H   0  0  0  0  0  0  0  0  0  0  0  0
   41.7268   27.9265   38.7079 H   0  0  0  0  0  0  0  0  0  0  0  0
   39.2701   30.5889   47.9485 H   0  0  0  0  0  0  0  0  0  0  0  0
   39.7329   32.2855   47.5575 H   0  0  0  0  0  0  0  0  0  0  0  0
   38.0233   33.0359   48.7293 H   0  0  0  0  0  0  0  0  0  0  0  0
   36.8978   32.0825   47.6405 H   0  0  0  0  0  0  0  0  0  0  0  0
   35.5574   30.8524   48.3418 H   0  0  0  0  0  0  0  0  0  0  0  0
   34.5223   29.3514   49.9855 H   0  0  0  0  0  0  0  0  0  0  0  0
   37.9670   29.7615   52.4244 H   0  0  0  0  0  0  0  0  0  0  0  0
  1  6  2  0
  2  3  2  0
  2  1  1  0
  3  4  1  0
  4  5  2  0
  5 21  1  0
  6  5  1  0
  7  3  1  0
  8  7  1  0
  9 15  1  0
  9  8  1  0
 10  9  1  0
 11 12  1  0
 11 10  2  0
 12 14  1  0
 13 12  2  0
 14 17  1  0
 14 15  1  0
 15 16  2  0
 17 18  1  0
 19 17  1  0
 20 17  1  0
 21 22  1  0
 22 23  1  0
 23 28  1  0
 24 23  2  0
 24 25  1  0
 25 26  2  0
 26 27  1  0
 28 27  2  0
  1 29  1  0
  2 30  1  0
  7 31  1  0
  7 32  1  0
  8 33  1  0
  8 34  1  0
 10 35  1  0
 11 36  1  0
 21 37  1  0
 21 38  1  0
 22 39  1  0
 22 40  1  0
 24 41  1  0
 25 42  1  0
 27 43  1  0
M  ISO  8  29  14  30  14  31   8  32   8  33   8  34   8  35  14  36  14
M  ISO  7  37   8  38   8  39   8  40   8  41  14  42  14  43  14
M  END
>  <minimizedAffinity>  (1) 
-5.36647081

>  <minimizedRMSD>  (1) 
5.65879393

$$$$
