
     RDKit          3D

 42 43  0  0  0  0  0  0  0  0999 V2000
   34.5490   29.3920   47.7990 C   0  0  0  0  0  0  0  0  0  0  0  0
   35.2570   30.0490   46.7510 C   0  0  0  0  0  0  0  0  0  0  0  0
   36.5660   30.3950   46.8930 C   0  0  0  0  0  0  0  0  0  0  0  0
   37.1750   30.0820   48.0950 N   0  0  0  0  0  0  0  0  0  0  0  0
   36.5140   29.4740   49.0610 C   0  0  0  0  0  0  0  0  0  0  0  0
   35.2310   29.1190   48.9590 N   0  0  0  0  0  0  0  0  0  0  0  0
   37.2910   31.0600   45.8380 C   0  0  0  0  0  0  0  0  0  0  0  0
   36.6750   31.0300   44.5000 C   0  0  0  0  0  0  0  0  0  0  0  0
   37.1970   31.8350   43.4730 N   0  0  0  0  0  0  0  0  0  0  0  0
   38.4620   32.0010   43.1120 C   0  0  0  0  0  0  0  0  0  0  0  0
   38.9150   32.8050   42.0840 C   0  0  0  0  0  0  0  0  0  0  0  0
   38.0020   33.5090   41.3520 C   0  0  0  0  0  0  0  0  0  0  0  0
   38.3190   34.2580   40.4090 O   0  0  0  0  0  0  0  0  0  0  0  0
   36.7420   33.3610   41.6910 N   0  0  0  0  0  0  0  0  0  0  0  0
   36.3370   32.5790   42.6870 C   0  0  0  0  0  0  0  0  0  0  0  0
   35.0910   32.4990   42.9420 O   0  0  0  0  0  0  0  0  0  0  0  0
   35.7460   34.1020   40.9240 C   0  0  0  0  0  0  0  0  0  0  0  0
   34.6260   33.3190   40.7060 F   0  0  0  0  0  0  0  0  0  0  0  0
   36.3070   34.4100   39.7050 F   0  0  0  0  0  0  0  0  0  0  0  0
   35.4220   35.2280   41.6220 F   0  0  0  0  0  0  0  0  0  0  0  0
   37.1800   29.1430   50.3450 C   0  0  0  0  0  0  0  0  0  0  0  0
   37.5720   30.4260   51.0730 C   0  0  0  0  0  0  0  0  0  0  0  0
   38.5970   31.1380   50.3620 N   0  0  0  0  0  0  0  0  0  0  0  0
   38.2150   32.4080   49.8100 C   0  0  0  0  0  0  0  0  0  0  0  0
   37.0300   32.9010   49.8850 N   0  0  0  0  0  0  0  0  0  0  0  0
   39.1970   33.1750   49.1380 N   0  0  0  0  0  0  0  0  0  0  0  0
   36.7580   33.8150   49.4860 H   0  0  0  0  0  0  0  0  0  0  0  0
   33.4914   29.1129   47.6824 H   0  0  0  0  0  0  0  0  0  0  0  0
   34.7362   30.2808   45.8102 H   0  0  0  0  0  0  0  0  0  0  0  0
   37.4111   32.1144   46.1276 H   0  0  0  0  0  0  0  0  0  0  0  0
   38.2353   30.5048   45.7374 H   0  0  0  0  0  0  0  0  0  0  0  0
   36.7289   29.9893   44.1477 H   0  0  0  0  0  0  0  0  0  0  0  0
   35.6734   31.4515   44.6706 H   0  0  0  0  0  0  0  0  0  0  0  0
   39.2210   31.4472   43.6840 H   0  0  0  0  0  0  0  0  0  0  0  0
   39.9895   32.8767   41.8596 H   0  0  0  0  0  0  0  0  0  0  0  0
   36.4898   28.5626   50.9749 H   0  0  0  0  0  0  0  0  0  0  0  0
   38.0847   28.5513   50.1416 H   0  0  0  0  0  0  0  0  0  0  0  0
   36.6856   31.0709   51.1646 H   0  0  0  0  0  0  0  0  0  0  0  0
   37.9618   30.1563   52.0656 H   0  0  0  0  0  0  0  0  0  0  0  0
   39.5492   30.7604   50.2543 H   0  0  0  0  0  0  0  0  0  0  0  0
   40.1599   32.8191   49.0539 H   0  0  0  0  0  0  0  0  0  0  0  0
   38.9486   34.0890   48.7332 H   0  0  0  0  0  0  0  0  0  0  0  0
  1  6  2  0
  2  3  2  0
  2  1  1  0
  3  4  1  0
  4  5  2  0
  5 21  1  0
  6  5  1  0
  7  3  1  0
  8  7  1  0
  9  8  1  0
 10  9  1  0
 11 10  2  0
 12 14  1  0
 12 11  1  0
 13 12  2  0
 14 15  1  0
 15 16  2  0
 15  9  1  0
 17 20  1  0
 17 14  1  0
 18 17  1  0
 19 17  1  0
 21 22  1  0
 23 22  1  0
 24 25  2  0
 24 23  1  0
 26 24  1  0
 27 25  1  0
  1 28  1  0
  2 29  1  0
  7 30  1  0
  7 31  1  0
  8 32  1  0
  8 33  1  0
 10 34  1  0
 11 35  1  0
 21 36  1  0
 21 37  1  0
 22 38  1  0
 22 39  1  0
 23 40  1  0
 26 41  1  0
 26 42  1  0
M  ISO  8  28  14  29  14  30   8  31   8  32   8  33   8  34  14  35  14
M  ISO  4  36   8  37   8  38   8  39   8
M  END
>  <minimizedAffinity>  (1) 
-5.10715961

>  <minimizedRMSD>  (1) 
0.91932112

$$$$
