
     RDKit          3D

 46 49  0  0  0  0  0  0  0  0999 V2000
   31.0310   30.7360   44.6930 C   0  0  0  0  0  0  0  0  0  0  0  0
   31.7610   30.8090   43.4800 C   0  0  0  0  0  0  0  0  0  0  0  0
   33.1250   30.7130   43.5000 C   0  0  0  0  0  0  0  0  0  0  0  0
   33.7470   30.5480   44.7290 N   0  0  0  0  0  0  0  0  0  0  0  0
   33.0370   30.4840   45.8410 C   0  0  0  0  0  0  0  0  0  0  0  0
   31.7080   30.5730   45.8660 N   0  0  0  0  0  0  0  0  0  0  0  0
   33.8860   30.7890   42.2840 C   0  0  0  0  0  0  0  0  0  0  0  0
   33.3720   31.6630   41.2260 C   0  0  0  0  0  0  0  0  0  0  0  0
   33.6480   33.0450   41.2600 N   0  0  0  0  0  0  0  0  0  0  0  0
   34.8140   33.6530   41.4370 C   0  0  0  0  0  0  0  0  0  0  0  0
   35.0130   35.0220   41.4530 C   0  0  0  0  0  0  0  0  0  0  0  0
   33.9400   35.8480   41.2740 C   0  0  0  0  0  0  0  0  0  0  0  0
   34.0240   37.0880   41.2740 O   0  0  0  0  0  0  0  0  0  0  0  0
   32.7840   35.2630   41.0980 N   0  0  0  0  0  0  0  0  0  0  0  0
   32.6170   33.9500   41.0880 C   0  0  0  0  0  0  0  0  0  0  0  0
   31.4540   33.4730   40.9110 O   0  0  0  0  0  0  0  0  0  0  0  0
   31.6120   36.1210   40.9000 C   0  0  0  0  0  0  0  0  0  0  0  0
   31.0180   35.8480   39.6790 F   0  0  0  0  0  0  0  0  0  0  0  0
   32.0580   37.4230   40.8660 F   0  0  0  0  0  0  0  0  0  0  0  0
   30.7350   35.9020   41.9220 F   0  0  0  0  0  0  0  0  0  0  0  0
   33.7260   30.3060   47.1580 C   0  0  0  0  0  0  0  0  0  0  0  0
   35.0090   29.5080   46.9510 C   0  0  0  0  0  0  0  0  0  0  0  0
   36.1500   30.1930   47.5080 N   0  0  0  0  0  0  0  0  0  0  0  0
   37.0510   30.9750   46.9330 C   0  0  0  0  0  0  0  0  0  0  0  0
   37.9380   31.3840   47.8810 N   0  0  0  0  0  0  0  0  0  0  0  0
   37.5680   30.8360   49.0710 C   0  0  0  0  0  0  0  0  0  0  0  0
   38.1530   30.9530   50.3370 C   0  0  0  0  0  0  0  0  0  0  0  0
   37.5280   30.2680   51.3370 N   0  0  0  0  0  0  0  0  0  0  0  0
   36.4280   29.5380   51.0870 C   0  0  0  0  0  0  0  0  0  0  0  0
   35.8630   29.4240   49.8720 N   0  0  0  0  0  0  0  0  0  0  0  0
   36.4240   30.0710   48.8390 C   0  0  0  0  0  0  0  0  0  0  0  0
   29.9335   30.8098   44.6884 H   0  0  0  0  0  0  0  0  0  0  0  0
   31.2316   30.9425   42.5251 H   0  0  0  0  0  0  0  0  0  0  0  0
   34.8937   31.1438   42.5459 H   0  0  0  0  0  0  0  0  0  0  0  0
   33.8443   29.7751   41.8595 H   0  0  0  0  0  0  0  0  0  0  0  0
   32.2771   31.5572   41.2301 H   0  0  0  0  0  0  0  0  0  0  0  0
   33.9086   31.3190   40.3295 H   0  0  0  0  0  0  0  0  0  0  0  0
   35.6975   33.0143   41.5835 H   0  0  0  0  0  0  0  0  0  0  0  0
   36.0193   35.4386   41.6074 H   0  0  0  0  0  0  0  0  0  0  0  0
   33.9703   31.2915   47.5812 H   0  0  0  0  0  0  0  0  0  0  0  0
   33.0636   29.7662   47.8507 H   0  0  0  0  0  0  0  0  0  0  0  0
   34.9047   28.5289   47.4415 H   0  0  0  0  0  0  0  0  0  0  0  0
   35.1713   29.3873   45.8697 H   0  0  0  0  0  0  0  0  0  0  0  0
   37.0780   31.2482   45.8678 H   0  0  0  0  0  0  0  0  0  0  0  0
   39.0556   31.5565   50.5135 H   0  0  0  0  0  0  0  0  0  0  0  0
   35.9617   29.0015   51.9265 H   0  0  0  0  0  0  0  0  0  0  0  0
  1  6  2  0
  2  3  2  0
  2  1  1  0
  3  4  1  0
  4  5  2  0
  5  6  1  0
  5 21  1  0
  7  3  1  0
  8  9  1  0
  8  7  1  0
  9 10  1  0
 10 11  2  0
 12 13  2  0
 12 11  1  0
 14 12  1  0
 15 14  1  0
 15  9  1  0
 16 15  2  0
 17 14  1  0
 17 20  1  0
 18 17  1  0
 19 17  1  0
 22 21  1  0
 22 23  1  0
 23 31  1  0
 24 23  1  0
 24 25  2  0
 25 26  1  0
 26 27  2  0
 27 28  1  0
 29 28  2  0
 30 29  1  0
 31 26  1  0
 31 30  2  0
  1 32  1  0
  2 33  1  0
  7 34  1  0
  7 35  1  0
  8 36  1  0
  8 37  1  0
 10 38  1  0
 11 39  1  0
 21 40  1  0
 21 41  1  0
 22 42  1  0
 22 43  1  0
 24 44  1  0
 27 45  1  0
 29 46  1  0
M  ISO  8  32  14  33  14  34   8  35   8  36   8  37   8  38  14  39  14
M  ISO  7  40   8  41   8  42   8  43   8  44  14  45  14  46  14
M  END
>  <minimizedAffinity>  (1) 
-5.05240726

>  <minimizedRMSD>  (1) 
5.45874786

$$$$
