
     RDKit          3D

 49 52  0  0  0  0  0  0  0  0999 V2000
   35.2570   29.9650   50.3760 C   0  0  0  0  0  0  0  0  0  0  0  0
   35.8560   30.9450   49.5470 C   0  0  0  0  0  0  0  0  0  0  0  0
   37.2210   31.0470   49.4790 C   0  0  0  0  0  0  0  0  0  0  0  0
   37.9850   30.1710   50.2380 N   0  0  0  0  0  0  0  0  0  0  0  0
   37.3960   29.2650   51.0040 C   0  0  0  0  0  0  0  0  0  0  0  0
   36.0840   29.1300   51.1010 N   0  0  0  0  0  0  0  0  0  0  0  0
   37.8430   32.0370   48.6500 C   0  0  0  0  0  0  0  0  0  0  0  0
   38.9590   31.6110   47.8000 C   0  0  0  0  0  0  0  0  0  0  0  0
   39.0890   32.1610   46.5040 N   0  0  0  0  0  0  0  0  0  0  0  0
   40.0130   32.9770   46.0240 C   0  0  0  0  0  0  0  0  0  0  0  0
   40.0730   33.4660   44.7410 C   0  0  0  0  0  0  0  0  0  0  0  0
   39.1050   33.0990   43.8470 C   0  0  0  0  0  0  0  0  0  0  0  0
   39.0780   33.4920   42.6670 O   0  0  0  0  0  0  0  0  0  0  0  0
   38.1760   32.2900   44.2980 N   0  0  0  0  0  0  0  0  0  0  0  0
   38.1410   31.8330   45.5420 C   0  0  0  0  0  0  0  0  0  0  0  0
   37.2000   31.0530   45.8870 O   0  0  0  0  0  0  0  0  0  0  0  0
   37.1290   31.8780   43.3650 C   0  0  0  0  0  0  0  0  0  0  0  0
   36.5240   30.7130   43.8080 F   0  0  0  0  0  0  0  0  0  0  0  0
   37.7310   31.6180   42.1560 F   0  0  0  0  0  0  0  0  0  0  0  0
   36.2170   32.8890   43.2670 F   0  0  0  0  0  0  0  0  0  0  0  0
   38.1970   28.3190   51.8170 C   0  0  0  0  0  0  0  0  0  0  0  0
   38.7480   27.2050   50.9380 C   0  0  0  0  0  0  0  0  0  0  0  0
   39.4890   26.2640   51.7880 N   0  0  0  0  0  0  0  0  0  0  0  0
   39.5590   26.1440   53.1300 C   0  0  0  0  0  0  0  0  0  0  0  0
   40.3620   25.1370   53.4660 N   0  0  0  0  0  0  0  0  0  0  0  0
   40.8510   24.5600   52.3790 C   0  0  0  0  0  0  0  0  0  0  0  0
   41.6880   23.5300   52.0040 C   0  0  0  0  0  0  0  0  0  0  0  0
   42.2030   22.8660   52.9630 O   0  0  0  0  0  0  0  0  0  0  0  0
   41.9780   23.2020   50.7320 N   0  0  0  0  0  0  0  0  0  0  0  0
   41.4230   23.9170   49.7420 C   0  0  0  0  0  0  0  0  0  0  0  0
   41.6270   23.7010   48.3560 N   0  0  0  0  0  0  0  0  0  0  0  0
   40.6010   24.9290   50.0620 N   0  0  0  0  0  0  0  0  0  0  0  0
   40.2990   25.2720   51.3290 C   0  0  0  0  0  0  0  0  0  0  0  0
   34.1629   29.8717   50.4405 H   0  0  0  0  0  0  0  0  0  0  0  0
   35.2245   31.6253   48.9568 H   0  0  0  0  0  0  0  0  0  0  0  0
   37.0653   32.4481   47.9895 H   0  0  0  0  0  0  0  0  0  0  0  0
   38.2894   32.7513   49.3575 H   0  0  0  0  0  0  0  0  0  0  0  0
   39.8855   31.8476   48.3438 H   0  0  0  0  0  0  0  0  0  0  0  0
   38.7532   30.5468   47.6127 H   0  0  0  0  0  0  0  0  0  0  0  0
   40.8072   33.2936   46.7162 H   0  0  0  0  0  0  0  0  0  0  0  0
   40.8864   34.1417   44.4379 H   0  0  0  0  0  0  0  0  0  0  0  0
   39.0330   28.8597   52.2847 H   0  0  0  0  0  0  0  0  0  0  0  0
   37.5532   27.8786   52.5926 H   0  0  0  0  0  0  0  0  0  0  0  0
   39.4220   27.6298   50.1796 H   0  0  0  0  0  0  0  0  0  0  0  0
   37.9238   26.6842   50.4287 H   0  0  0  0  0  0  0  0  0  0  0  0
   39.0272   26.7879   53.8459 H   0  0  0  0  0  0  0  0  0  0  0  0
   42.6128   22.4184   50.5227 H   0  0  0  0  0  0  0  0  0  0  0  0
   42.2458   22.9412   48.0388 H   0  0  0  0  0  0  0  0  0  0  0  0
   41.1564   24.3039   47.6661 H   0  0  0  0  0  0  0  0  0  0  0  0
  1  6  2  0
  2  1  1  0
  3  2  2  0
  3  4  1  0
  4  5  2  0
  5  6  1  0
  5 21  1  0
  7  3  1  0
  8  7  1  0
  9  8  1  0
 10  9  1  0
 11 10  2  0
 12 14  1  0
 12 11  1  0
 13 12  2  0
 14 15  1  0
 15 16  2  0
 15  9  1  0
 17 18  1  0
 17 14  1  0
 19 17  1  0
 20 17  1  0
 22 23  1  0
 22 21  1  0
 23 24  1  0
 24 25  2  0
 26 25  1  0
 27 26  1  0
 27 28  2  0
 29 27  1  0
 30 32  2  0
 30 29  1  0
 31 30  1  0
 32 33  1  0
 33 23  1  0
 33 26  2  0
  1 34  1  0
  2 35  1  0
  7 36  1  0
  7 37  1  0
  8 38  1  0
  8 39  1  0
 10 40  1  0
 11 41  1  0
 21 42  1  0
 21 43  1  0
 22 44  1  0
 22 45  1  0
 24 46  1  0
 29 47  1  0
 31 48  1  0
 31 49  1  0
M  ISO  8  34  14  35  14  36   8  37   8  38   8  39   8  40  14  41  14
M  ISO  6  42   8  43   8  44   8  45   8  46  14  47   9
M  END
>  <minimizedAffinity>  (1) 
-4.53154659

>  <minimizedRMSD>  (1) 
3.36308908

$$$$
