
     RDKit          3D

 33 36  0  0  0  0  0  0  0  0999 V2000
   33.6090   28.6030   48.4050 C   0  0  0  0  0  0  0  0  0  0  0  0
   33.7770   28.7310   49.7890 C   0  0  0  0  0  0  0  0  0  0  0  0
   34.7790   29.4480   50.3870 C   0  0  0  0  0  0  0  0  0  0  0  0
   35.6970   30.0990   49.6190 C   0  0  0  0  0  0  0  0  0  0  0  0
   35.5960   30.0190   48.2650 C   0  0  0  0  0  0  0  0  0  0  0  0
   36.5440   30.6900   47.5250 C   0  0  0  0  0  0  0  0  0  0  0  0
   36.5070   30.6570   46.1620 C   0  0  0  0  0  0  0  0  0  0  0  0
   35.4900   29.9280   45.5560 C   0  0  0  0  0  0  0  0  0  0  0  0
   34.5690   29.2760   46.3370 C   0  0  0  0  0  0  0  0  0  0  0  0
   34.5740   29.2880   47.6950 C   0  0  0  0  0  0  0  0  0  0  0  0
   31.9490   25.5890   47.3710 C   0  0  0  0  0  0  0  0  0  0  0  0
   30.7520   25.9670   46.7570 C   0  0  0  0  0  0  0  0  0  0  0  0
   30.4970   27.3360   46.6910 C   0  0  0  0  0  0  0  0  0  0  0  0
   31.4100   28.1550   47.2180 N   0  0  0  0  0  0  0  0  0  0  0  0
   32.5390   27.8380   47.8000 C   0  0  0  0  0  0  0  0  0  0  0  0
   32.7470   26.5320   47.8430 N   0  0  0  0  0  0  0  0  0  0  0  0
   36.7790   30.8730   50.2750 C   0  0  0  0  0  0  0  0  0  0  0  0
   37.3590   30.2220   51.5100 C   0  0  0  0  0  0  0  0  0  0  0  0
   38.1730   30.3750   50.2910 C   0  0  0  0  0  0  0  0  0  0  0  0
   33.0538   28.2201   50.4416 H   0  0  0  0  0  0  0  0  0  0  0  0
   34.8424   29.4981   51.4840 H   0  0  0  0  0  0  0  0  0  0  0  0
   37.3362   31.2563   48.0365 H   0  0  0  0  0  0  0  0  0  0  0  0
   37.2582   31.1904   45.5611 H   0  0  0  0  0  0  0  0  0  0  0  0
   35.4241   29.8743   44.4593 H   0  0  0  0  0  0  0  0  0  0  0  0
   33.7756   28.7070   45.8304 H   0  0  0  0  0  0  0  0  0  0  0  0
   32.2223   24.5272   47.4600 H   0  0  0  0  0  0  0  0  0  0  0  0
   30.0498   25.2254   46.3484 H   0  0  0  0  0  0  0  0  0  0  0  0
   29.5806   27.7255   46.2236 H   0  0  0  0  0  0  0  0  0  0  0  0
   36.3335   31.8366   49.9868 H   0  0  0  0  0  0  0  0  0  0  0  0
   37.5804   30.8282   52.4008 H   0  0  0  0  0  0  0  0  0  0  0  0
   37.0721   29.3800   52.1571 H   0  0  0  0  0  0  0  0  0  0  0  0
   38.4421   29.4874   49.6996 H   0  0  0  0  0  0  0  0  0  0  0  0
   39.1525   30.8253   50.0725 H   0  0  0  0  0  0  0  0  0  0  0  0
  1  2  2  0
  2  3  1  0
  4 17  1  0
  4  3  2  0
  5  4  1  0
  6  5  2  0
  7  6  1  0
  8  7  2  0
  8  9  1  0
  9 10  2  0
 10  5  1  0
 10  1  1  0
 11 16  2  0
 12 11  1  0
 13 12  2  0
 13 14  1  0
 14 15  2  0
 15 16  1  0
 15  1  1  0
 17 19  1  0
 17 18  1  0
 19 18  1  0
  2 20  1  0
  3 21  1  0
  6 22  1  0
  7 23  1  0
  8 24  1  0
  9 25  1  0
 11 26  1  0
 12 27  1  0
 13 28  1  0
 17 29  1  0
 18 30  1  0
 18 31  1  0
 19 32  1  0
 19 33  1  0
M  ISO  8  20  14  21  14  22  14  23  14  24  14  25  14  26  14  27  14
M  ISO  6  28  14  29  13  30  13  31  13  32  13  33  13
M  END
>  <minimizedAffinity>  (1) 
-5.96053982

>  <minimizedRMSD>  (1) 
2.63396811

$$$$
