
     RDKit          3D

 32 34  0  0  0  0  0  0  0  0999 V2000
   34.5960   30.0790   47.7410 C   0  0  0  0  0  0  0  0  0  0  0  0
   34.4560   30.0120   49.1330 C   0  0  0  0  0  0  0  0  0  0  0  0
   35.4800   30.1830   50.0290 C   0  0  0  0  0  0  0  0  0  0  0  0
   36.7500   30.4410   49.5800 C   0  0  0  0  0  0  0  0  0  0  0  0
   36.9560   30.5210   48.2190 C   0  0  0  0  0  0  0  0  0  0  0  0
   38.2470   30.7860   47.8130 C   0  0  0  0  0  0  0  0  0  0  0  0
   38.5440   30.8880   46.4830 C   0  0  0  0  0  0  0  0  0  0  0  0
   37.5000   30.7110   45.5800 C   0  0  0  0  0  0  0  0  0  0  0  0
   36.2350   30.4480   46.0490 C   0  0  0  0  0  0  0  0  0  0  0  0
   35.8960   30.3420   47.3650 C   0  0  0  0  0  0  0  0  0  0  0  0
   32.3150   28.1800   45.7330 C   0  0  0  0  0  0  0  0  0  0  0  0
   31.4890   29.0690   45.0690 C   0  0  0  0  0  0  0  0  0  0  0  0
   31.7230   30.4250   45.3190 C   0  0  0  0  0  0  0  0  0  0  0  0
   32.7110   30.7190   46.1660 N   0  0  0  0  0  0  0  0  0  0  0  0
   33.5110   29.9020   46.8130 C   0  0  0  0  0  0  0  0  0  0  0  0
   33.2610   28.6160   46.5510 N   0  0  0  0  0  0  0  0  0  0  0  0
   37.8270   30.6140   50.5750 C   0  0  0  0  0  0  0  0  0  0  0  0
   37.4610   29.9570   51.9090 C   0  0  0  0  0  0  0  0  0  0  0  0
   33.4532   29.8077   49.5363 H   0  0  0  0  0  0  0  0  0  0  0  0
   35.2826   30.1132   51.1089 H   0  0  0  0  0  0  0  0  0  0  0  0
   39.0412   30.9158   48.5630 H   0  0  0  0  0  0  0  0  0  0  0  0
   39.5671   31.1014   46.1400 H   0  0  0  0  0  0  0  0  0  0  0  0
   37.6859   30.7811   44.4981 H   0  0  0  0  0  0  0  0  0  0  0  0
   35.4354   30.3128   45.3058 H   0  0  0  0  0  0  0  0  0  0  0  0
   32.1847   27.0985   45.5799 H   0  0  0  0  0  0  0  0  0  0  0  0
   30.6963   28.7300   44.3859 H   0  0  0  0  0  0  0  0  0  0  0  0
   31.1212   31.2115   44.8402 H   0  0  0  0  0  0  0  0  0  0  0  0
   38.7487   30.1536   50.1895 H   0  0  0  0  0  0  0  0  0  0  0  0
   37.9728   31.6908   50.7461 H   0  0  0  0  0  0  0  0  0  0  0  0
   37.8130   30.5889   52.7377 H   0  0  0  0  0  0  0  0  0  0  0  0
   36.3689   29.8422   51.9737 H   0  0  0  0  0  0  0  0  0  0  0  0
   37.9382   28.9680   51.9737 H   0  0  0  0  0  0  0  0  0  0  0  0
  1  2  2  0
  2  3  1  0
  4  3  2  0
  4 17  1  0
  5  4  1  0
  6  5  2  0
  7  6  1  0
  8  9  1  0
  8  7  2  0
  9 10  2  0
 10  1  1  0
 10  5  1  0
 11 16  2  0
 12 13  2  0
 12 11  1  0
 13 14  1  0
 14 15  2  0
 15  1  1  0
 16 15  1  0
 17 18  1  0
  2 19  1  0
  3 20  1  0
  6 21  1  0
  7 22  1  0
  8 23  1  0
  9 24  1  0
 11 25  1  0
 12 26  1  0
 13 27  1  0
 17 28  1  0
 17 29  1  0
 18 30  1  0
 18 31  1  0
 18 32  1  0
M  ISO  8  19  14  20  14  21  14  22  14  23  14  24  14  25  14  26  14
M  ISO  6  27  14  28   8  29   8  30   8  31   8  32   8
M  END
>  <minimizedAffinity>  (1) 
-5.89233732

>  <minimizedRMSD>  (1) 
2.00876045

$$$$
