
     RDKit          3D

 39 42  0  0  0  0  0  0  0  0999 V2000
   34.0300   30.0010   46.8200 C   0  0  0  0  0  0  0  0  0  0  0  0
   34.4900   30.2240   48.1130 C   0  0  0  0  0  0  0  0  0  0  0  0
   35.7990   30.5080   48.4130 C   0  0  0  0  0  0  0  0  0  0  0  0
   36.7430   30.5880   47.4190 C   0  0  0  0  0  0  0  0  0  0  0  0
   36.3350   30.3750   46.1420 C   0  0  0  0  0  0  0  0  0  0  0  0
   37.3120   30.4670   45.1680 C   0  0  0  0  0  0  0  0  0  0  0  0
   36.9960   30.2720   43.8480 C   0  0  0  0  0  0  0  0  0  0  0  0
   35.6650   29.9810   43.5300 C   0  0  0  0  0  0  0  0  0  0  0  0
   34.7490   29.9060   44.5460 C   0  0  0  0  0  0  0  0  0  0  0  0
   35.0160   30.0910   45.8570 C   0  0  0  0  0  0  0  0  0  0  0  0
   31.0350   28.0090   46.8110 C   0  0  0  0  0  0  0  0  0  0  0  0
   30.0500   28.7200   46.1480 C   0  0  0  0  0  0  0  0  0  0  0  0
   30.4280   29.9570   45.6730 C   0  0  0  0  0  0  0  0  0  0  0  0
   31.6860   30.3760   45.8790 N   0  0  0  0  0  0  0  0  0  0  0  0
   32.6400   29.7010   46.5140 C   0  0  0  0  0  0  0  0  0  0  0  0
   32.2450   28.5240   46.9540 N   0  0  0  0  0  0  0  0  0  0  0  0
   38.1340   30.8930   47.8370 C   0  0  0  0  0  0  0  0  0  0  0  0
   38.4680   32.3560   47.6620 C   0  0  0  0  0  0  0  0  0  0  0  0
   38.2010   33.0130   48.9980 C   0  0  0  0  0  0  0  0  0  0  0  0
   38.3520   31.9230   50.0370 C   0  0  0  0  0  0  0  0  0  0  0  0
   38.3720   30.6200   49.3090 C   0  0  0  0  0  0  0  0  0  0  0  0
   33.7663   30.1700   48.9396 H   0  0  0  0  0  0  0  0  0  0  0  0
   36.0946   30.6731   49.4596 H   0  0  0  0  0  0  0  0  0  0  0  0
   38.3488   30.6980   45.4537 H   0  0  0  0  0  0  0  0  0  0  0  0
   37.7645   30.3421   43.0641 H   0  0  0  0  0  0  0  0  0  0  0  0
   35.3603   29.8159   42.4860 H   0  0  0  0  0  0  0  0  0  0  0  0
   33.7091   29.6759   44.2710 H   0  0  0  0  0  0  0  0  0  0  0  0
   30.8111   27.0128   47.2202 H   0  0  0  0  0  0  0  0  0  0  0  0
   29.0331   28.3240   46.0095 H   0  0  0  0  0  0  0  0  0  0  0  0
   29.7095   30.5913   45.1332 H   0  0  0  0  0  0  0  0  0  0  0  0
   38.7549   30.2459   47.2001 H   0  0  0  0  0  0  0  0  0  0  0  0
   39.5254   32.4749   47.3832 H   0  0  0  0  0  0  0  0  0  0  0  0
   37.8643   32.8120   46.8635 H   0  0  0  0  0  0  0  0  0  0  0  0
   38.9283   33.8179   49.1801 H   0  0  0  0  0  0  0  0  0  0  0  0
   37.1987   33.4651   49.0313 H   0  0  0  0  0  0  0  0  0  0  0  0
   39.2917   32.0591   50.5923 H   0  0  0  0  0  0  0  0  0  0  0  0
   37.5231   31.9543   50.7595 H   0  0  0  0  0  0  0  0  0  0  0  0
   37.5794   29.9642   49.6985 H   0  0  0  0  0  0  0  0  0  0  0  0
   39.3428   30.1223   49.4498 H   0  0  0  0  0  0  0  0  0  0  0  0
  1  2  2  0
  2  3  1  0
  4 17  1  0
  4  3  2  0
  5  4  1  0
  6  5  2  0
  7  6  1  0
  8  7  2  0
  8  9  1  0
  9 10  2  0
 10  5  1  0
 10  1  1  0
 11 16  2  0
 12 11  1  0
 13 14  1  0
 13 12  2  0
 14 15  2  0
 15  1  1  0
 15 16  1  0
 17 21  1  0
 18 17  1  0
 18 19  1  0
 19 20  1  0
 21 20  1  0
  2 22  1  0
  3 23  1  0
  6 24  1  0
  7 25  1  0
  8 26  1  0
  9 27  1  0
 11 28  1  0
 12 29  1  0
 13 30  1  0
 17 31  1  0
 18 32  1  0
 18 33  1  0
 19 34  1  0
 19 35  1  0
 20 36  1  0
 20 37  1  0
 21 38  1  0
 21 39  1  0
M  ISO  8  22  14  23  14  24  14  25  14  26  14  27  14  28  14  29  14
M  ISO  8  30  14  31  13  32  13  33  13  34  13  35  13  36  13  37  13
M  ISO  2  38  13  39  13
M  END
>  <minimizedAffinity>  (1) 
-5.88887787

>  <minimizedRMSD>  (1) 
3.9409616

$$$$
