
     RDKit          3D

 28 30  0  0  0  0  0  0  0  0999 V2000
   34.4820   29.5750   48.0110 C   0  0  0  0  0  0  0  0  0  0  0  0
   34.2110   29.0610   49.2790 C   0  0  0  0  0  0  0  0  0  0  0  0
   35.1130   29.0140   50.2960 C   0  0  0  0  0  0  0  0  0  0  0  0
   36.3790   29.4920   50.1040 C   0  0  0  0  0  0  0  0  0  0  0  0
   36.7120   30.0060   48.8950 C   0  0  0  0  0  0  0  0  0  0  0  0
   38.0000   30.4800   48.7380 C   0  0  0  0  0  0  0  0  0  0  0  0
   38.4080   31.0140   47.5510 C   0  0  0  0  0  0  0  0  0  0  0  0
   37.4900   31.0630   46.5090 C   0  0  0  0  0  0  0  0  0  0  0  0
   36.2230   30.5740   46.7310 C   0  0  0  0  0  0  0  0  0  0  0  0
   35.7750   30.0380   47.8890 C   0  0  0  0  0  0  0  0  0  0  0  0
   32.4130   28.1820   45.4180 C   0  0  0  0  0  0  0  0  0  0  0  0
   31.6940   29.2170   44.8480 C   0  0  0  0  0  0  0  0  0  0  0  0
   31.9230   30.4680   45.3740 C   0  0  0  0  0  0  0  0  0  0  0  0
   32.8050   30.5780   46.3740 N   0  0  0  0  0  0  0  0  0  0  0  0
   33.5060   29.6160   46.9390 C   0  0  0  0  0  0  0  0  0  0  0  0
   33.2590   28.4150   46.4050 N   0  0  0  0  0  0  0  0  0  0  0  0
   37.2390   29.3730   51.2550 C   0  0  0  0  0  0  0  0  0  0  0  0
   37.4750   30.0420   52.2680 O   0  0  0  0  0  0  0  0  0  0  0  0
   33.2014   28.6678   49.4690 H   0  0  0  0  0  0  0  0  0  0  0  0
   34.8244   28.5925   51.2702 H   0  0  0  0  0  0  0  0  0  0  0  0
   38.7052   30.4262   49.5805 H   0  0  0  0  0  0  0  0  0  0  0  0
   39.4322   31.3941   47.4226 H   0  0  0  0  0  0  0  0  0  0  0  0
   37.7691   31.4822   45.5311 H   0  0  0  0  0  0  0  0  0  0  0  0
   35.5122   30.6234   45.8930 H   0  0  0  0  0  0  0  0  0  0  0  0
   32.2790   27.1556   45.0459 H   0  0  0  0  0  0  0  0  0  0  0  0
   30.9832   29.0506   44.0252 H   0  0  0  0  0  0  0  0  0  0  0  0
   31.3964   31.3514   44.9837 H   0  0  0  0  0  0  0  0  0  0  0  0
   37.8387   28.4513   51.2243 H   0  0  0  0  0  0  0  0  0  0  0  0
  1  2  2  0
  2  3  1  0
  4  3  2  0
  4 17  1  0
  5  4  1  0
  6  5  2  0
  7  6  1  0
  8  9  1  0
  8  7  2  0
  9 10  2  0
 10  1  1  0
 10  5  1  0
 11 16  2  0
 12 13  2  0
 12 11  1  0
 13 14  1  0
 14 15  2  0
 15  1  1  0
 16 15  1  0
 17 18  2  0
  2 19  1  0
  3 20  1  0
  6 21  1  0
  7 22  1  0
  8 23  1  0
  9 24  1  0
 11 25  1  0
 12 26  1  0
 13 27  1  0
 17 28  1  0
M  ISO  8  19  14  20  14  21  14  22  14  23  14  24  14  25  14  26  14
M  ISO  2  27  14  28   6
M  END
>  <minimizedAffinity>  (1) 
-5.82181406

>  <minimizedRMSD>  (1) 
1.79606104

$$$$
