
     RDKit          3D

 32 34  0  0  0  0  0  0  0  0999 V2000
   37.3930   30.9990   46.7650 C   0  0  0  0  0  0  0  0  0  0  0  0
   36.2680   30.5610   46.0460 C   0  0  0  0  0  0  0  0  0  0  0  0
   35.1450   30.0290   46.6050 C   0  0  0  0  0  0  0  0  0  0  0  0
   35.0490   29.8860   47.9530 C   0  0  0  0  0  0  0  0  0  0  0  0
   36.1050   30.2900   48.7090 C   0  0  0  0  0  0  0  0  0  0  0  0
   35.9990   30.1410   50.0740 C   0  0  0  0  0  0  0  0  0  0  0  0
   37.0120   30.5200   50.9140 C   0  0  0  0  0  0  0  0  0  0  0  0
   38.1470   31.0580   50.3450 C   0  0  0  0  0  0  0  0  0  0  0  0
   38.2130   31.1890   48.9850 C   0  0  0  0  0  0  0  0  0  0  0  0
   37.2400   30.8290   48.1390 C   0  0  0  0  0  0  0  0  0  0  0  0
   40.7160   30.9330   45.4450 C   0  0  0  0  0  0  0  0  0  0  0  0
   41.0170   32.2040   44.9800 C   0  0  0  0  0  0  0  0  0  0  0  0
   40.0110   33.1390   45.1310 C   0  0  0  0  0  0  0  0  0  0  0  0
   38.8760   32.7450   45.6960 N   0  0  0  0  0  0  0  0  0  0  0  0
   38.5640   31.5560   46.1430 C   0  0  0  0  0  0  0  0  0  0  0  0
   39.5360   30.6830   45.9870 N   0  0  0  0  0  0  0  0  0  0  0  0
   40.0610   34.5050   44.7420 N   0  0  0  0  0  0  0  0  0  0  0  0
   33.9010   29.3450   48.4920 O   0  0  0  0  0  0  0  0  0  0  0  0
   33.7090   27.9530   48.5250 C   0  0  0  0  0  0  0  0  0  0  0  0
   34.6770   27.2600   49.2140 F   0  0  0  0  0  0  0  0  0  0  0  0
   32.5130   27.7210   49.1990 F   0  0  0  0  0  0  0  0  0  0  0  0
   33.6300   27.5270   47.2060 F   0  0  0  0  0  0  0  0  0  0  0  0
   36.2960   30.6546   44.9503 H   0  0  0  0  0  0  0  0  0  0  0  0
   34.3109   29.7133   45.9611 H   0  0  0  0  0  0  0  0  0  0  0  0
   35.0811   29.7083   50.4986 H   0  0  0  0  0  0  0  0  0  0  0  0
   36.9234   30.3995   52.0038 H   0  0  0  0  0  0  0  0  0  0  0  0
   38.9888   31.3778   50.9768 H   0  0  0  0  0  0  0  0  0  0  0  0
   39.1297   31.6203   48.5565 H   0  0  0  0  0  0  0  0  0  0  0  0
   41.4621   30.1289   45.3627 H   0  0  0  0  0  0  0  0  0  0  0  0
   41.9871   32.4503   44.5236 H   0  0  0  0  0  0  0  0  0  0  0  0
   39.2479   35.1164   44.9030 H   0  0  0  0  0  0  0  0  0  0  0  0
   40.9103   34.8836   44.2991 H   0  0  0  0  0  0  0  0  0  0  0  0
  1 10  2  0
  2  3  2  0
  2  1  1  0
  3  4  1  0
  4 18  1  0
  4  5  2  0
  5  6  1  0
  6  7  2  0
  8  7  1  0
  9  8  2  0
 10  5  1  0
 10  9  1  0
 11 16  2  0
 12 13  2  0
 12 11  1  0
 13 14  1  0
 14 15  2  0
 15  1  1  0
 16 15  1  0
 17 13  1  0
 18 19  1  0
 19 21  1  0
 19 20  1  0
 22 19  1  0
  2 23  1  0
  3 24  1  0
  6 25  1  0
  7 26  1  0
  8 27  1  0
  9 28  1  0
 11 29  1  0
 12 30  1  0
 17 31  1  0
 17 32  1  0
M  ISO  8  23  14  24  14  25  14  26  14  27  14  28  14  29  14  30  14
M  END
>  <minimizedAffinity>  (1) 
-7.09319639

>  <minimizedRMSD>  (1) 
0.389244914

$$$$
