
     RDKit          3D

 39 41  0  0  0  0  0  0  0  0999 V2000
   35.8040   30.1360   46.8330 C   0  0  0  0  0  0  0  0  0  0  0  0
   34.5520   29.6980   46.4010 C   0  0  0  0  0  0  0  0  0  0  0  0
   33.6150   29.1200   47.1950 C   0  0  0  0  0  0  0  0  0  0  0  0
   33.8620   28.9270   48.5290 C   0  0  0  0  0  0  0  0  0  0  0  0
   35.0530   29.3270   49.0120 C   0  0  0  0  0  0  0  0  0  0  0  0
   35.2960   29.1310   50.3590 C   0  0  0  0  0  0  0  0  0  0  0  0
   36.4770   29.5040   50.9450 C   0  0  0  0  0  0  0  0  0  0  0  0
   37.4260   30.0900   50.1370 C   0  0  0  0  0  0  0  0  0  0  0  0
   37.1590   30.2740   48.8020 C   0  0  0  0  0  0  0  0  0  0  0  0
   35.9980   29.9140   48.1990 C   0  0  0  0  0  0  0  0  0  0  0  0
   37.2040   31.1330   43.6810 C   0  0  0  0  0  0  0  0  0  0  0  0
   38.4060   31.7930   43.9550 C   0  0  0  0  0  0  0  0  0  0  0  0
   38.7460   31.8960   45.2880 C   0  0  0  0  0  0  0  0  0  0  0  0
   37.9240   31.3730   46.1770 N   0  0  0  0  0  0  0  0  0  0  0  0
   36.7890   30.7480   45.9760 C   0  0  0  0  0  0  0  0  0  0  0  0
   36.4720   30.6550   44.6810 N   0  0  0  0  0  0  0  0  0  0  0  0
   39.9890   32.5660   45.7530 C   0  0  0  0  0  0  0  0  0  0  0  0
   40.2370   33.7850   44.9050 C   0  0  0  0  0  0  0  0  0  0  0  0
   41.1140   31.5730   45.4300 C   0  0  0  0  0  0  0  0  0  0  0  0
   32.8850   28.3370   49.3040 O   0  0  0  0  0  0  0  0  0  0  0  0
   31.8240   27.6240   48.7010 C   0  0  0  0  0  0  0  0  0  0  0  0
   32.1470   26.3830   48.2530 F   0  0  0  0  0  0  0  0  0  0  0  0
   30.8560   27.4540   49.6910 F   0  0  0  0  0  0  0  0  0  0  0  0
   31.3380   28.4220   47.6780 F   0  0  0  0  0  0  0  0  0  0  0  0
   34.3056   29.8310   45.3372 H   0  0  0  0  0  0  0  0  0  0  0  0
   32.6526   28.8049   46.7655 H   0  0  0  0  0  0  0  0  0  0  0  0
   34.5178   28.6615   50.9787 H   0  0  0  0  0  0  0  0  0  0  0  0
   36.6598   29.3420   52.0175 H   0  0  0  0  0  0  0  0  0  0  0  0
   38.3912   30.4085   50.5577 H   0  0  0  0  0  0  0  0  0  0  0  0
   37.9367   30.7436   48.1818 H   0  0  0  0  0  0  0  0  0  0  0  0
   36.8660   31.0102   42.6414 H   0  0  0  0  0  0  0  0  0  0  0  0
   39.0412   32.2047   43.1569 H   0  0  0  0  0  0  0  0  0  0  0  0
   39.9288   32.8474   46.8147 H   0  0  0  0  0  0  0  0  0  0  0  0
   40.4139   34.6543   45.5554 H   0  0  0  0  0  0  0  0  0  0  0  0
   41.1193   33.6166   44.2700 H   0  0  0  0  0  0  0  0  0  0  0  0
   39.3591   33.9747   44.2700 H   0  0  0  0  0  0  0  0  0  0  0  0
   41.5464   31.1914   46.3667 H   0  0  0  0  0  0  0  0  0  0  0  0
   40.7066   30.7346   44.8459 H   0  0  0  0  0  0  0  0  0  0  0  0
   41.8953   32.0814   44.8459 H   0  0  0  0  0  0  0  0  0  0  0  0
  1 10  1  0
  2  1  2  0
  2  3  1  0
  3  4  2  0
  4  5  1  0
  4 20  1  0
  5  6  2  0
  6  7  1  0
  8  7  2  0
  9  8  1  0
 10  9  2  0
 10  5  1  0
 11 12  2  0
 11 16  1  0
 12 13  1  0
 13 17  1  0
 13 14  2  0
 15 14  1  0
 15  1  1  0
 16 15  2  0
 18 17  1  0
 19 17  1  0
 21 20  1  0
 21 23  1  0
 22 21  1  0
 24 21  1  0
  2 25  1  0
  3 26  1  0
  6 27  1  0
  7 28  1  0
  8 29  1  0
  9 30  1  0
 11 31  1  0
 12 32  1  0
 17 33  1  0
 18 34  1  0
 18 35  1  0
 18 36  1  0
 19 37  1  0
 19 38  1  0
 19 39  1  0
M  ISO  8  25  14  26  14  27  14  28  14  29  14  30  14  31  14  32  14
M  ISO  7  33   8  34   8  35   8  36   8  37   8  38   8  39   8
M  END
>  <minimizedAffinity>  (1) 
-6.79679251

>  <minimizedRMSD>  (1) 
2.13054824

$$$$
