
     RDKit          3D

 33 35  0  0  0  0  0  0  0  0999 V2000
   37.1820   30.8670   46.5390 C   0  0  0  0  0  0  0  0  0  0  0  0
   35.9930   30.4270   45.9420 C   0  0  0  0  0  0  0  0  0  0  0  0
   34.9030   29.9660   46.6150 C   0  0  0  0  0  0  0  0  0  0  0  0
   34.9120   29.9040   47.9870 C   0  0  0  0  0  0  0  0  0  0  0  0
   36.0290   30.3140   48.6290 C   0  0  0  0  0  0  0  0  0  0  0  0
   36.0250   30.2470   49.9960 C   0  0  0  0  0  0  0  0  0  0  0  0
   37.1060   30.6390   50.7350 C   0  0  0  0  0  0  0  0  0  0  0  0
   38.2200   31.1090   50.0450 C   0  0  0  0  0  0  0  0  0  0  0  0
   38.1740   31.1570   48.6740 C   0  0  0  0  0  0  0  0  0  0  0  0
   37.1260   30.7780   47.9350 C   0  0  0  0  0  0  0  0  0  0  0  0
   40.1780   30.5270   44.6200 C   0  0  0  0  0  0  0  0  0  0  0  0
   40.6380   31.8120   44.3120 C   0  0  0  0  0  0  0  0  0  0  0  0
   39.8680   32.8380   44.7960 C   0  0  0  0  0  0  0  0  0  0  0  0
   38.7820   32.5280   45.4960 N   0  0  0  0  0  0  0  0  0  0  0  0
   38.3180   31.3480   45.8060 C   0  0  0  0  0  0  0  0  0  0  0  0
   39.0750   30.3600   45.3290 N   0  0  0  0  0  0  0  0  0  0  0  0
   40.2250   34.2410   44.5540 C   0  0  0  0  0  0  0  0  0  0  0  0
   33.7890   29.4310   48.6300 O   0  0  0  0  0  0  0  0  0  0  0  0
   33.5370   28.0650   48.7300 C   0  0  0  0  0  0  0  0  0  0  0  0
   34.4920   27.3450   49.4120 F   0  0  0  0  0  0  0  0  0  0  0  0
   32.3460   27.9140   49.4560 F   0  0  0  0  0  0  0  0  0  0  0  0
   33.3900   27.5890   47.4380 F   0  0  0  0  0  0  0  0  0  0  0  0
   35.9359   30.4564   44.8439 H   0  0  0  0  0  0  0  0  0  0  0  0
   34.0117   29.6419   46.0578 H   0  0  0  0  0  0  0  0  0  0  0  0
   35.1304   29.8686   50.5123 H   0  0  0  0  0  0  0  0  0  0  0  0
   37.0961   30.5851   51.8336 H   0  0  0  0  0  0  0  0  0  0  0  0
   39.1193   31.4355   50.5878 H   0  0  0  0  0  0  0  0  0  0  0  0
   39.0622   31.5340   48.1458 H   0  0  0  0  0  0  0  0  0  0  0  0
   40.7390   29.6483   44.2691 H   0  0  0  0  0  0  0  0  0  0  0  0
   41.5512   31.9864   43.7241 H   0  0  0  0  0  0  0  0  0  0  0  0
   40.3563   34.7572   45.5164 H   0  0  0  0  0  0  0  0  0  0  0  0
   41.1635   34.2871   43.9821 H   0  0  0  0  0  0  0  0  0  0  0  0
   39.4227   34.7301   43.9821 H   0  0  0  0  0  0  0  0  0  0  0  0
  1 10  1  0
  2  1  2  0
  2  3  1  0
  3  4  2  0
  4  5  1  0
  4 18  1  0
  5  6  1  0
  6  7  2  0
  8  7  1  0
  9  8  2  0
 10  5  2  0
 10  9  1  0
 11 16  2  0
 12 11  1  0
 12 13  2  0
 13 14  1  0
 14 15  2  0
 15  1  1  0
 16 15  1  0
 17 13  1  0
 18 19  1  0
 19 20  1  0
 19 21  1  0
 22 19  1  0
  2 23  1  0
  3 24  1  0
  6 25  1  0
  7 26  1  0
  8 27  1  0
  9 28  1  0
 11 29  1  0
 12 30  1  0
 17 31  1  0
 17 32  1  0
 17 33  1  0
M  ISO  8  23  14  24  14  25  14  26  14  27  14  28  14  29  14  30  14
M  ISO  3  31   8  32   8  33   8
M  END
>  <minimizedAffinity>  (1) 
-6.7049551

>  <minimizedRMSD>  (1) 
0.649048626

$$$$
