
     RDKit          3D

 41 43  0  0  0  0  0  0  0  0999 V2000
   38.3630   32.4490   44.9200 C   0  0  0  0  0  0  0  0  0  0  0  0
   38.8480   31.6640   43.7400 C   0  0  0  0  0  0  0  0  0  0  0  0
   39.5640   32.3410   42.6940 C   0  0  0  0  0  0  0  0  0  0  0  0
   39.9110   30.9620   41.5420 S   0  0  0  0  0  0  0  0  0  0  0  0
   39.0330   29.7190   42.6720 C   0  0  0  0  0  0  0  0  0  0  0  0
   38.7000   30.3740   43.5260 N   0  0  0  0  0  0  0  0  0  0  0  0
   38.8190   28.2550   42.5110 N   0  0  0  0  0  0  0  0  0  0  0  0
   37.6470   27.7180   42.8440 C   0  0  0  0  0  0  0  0  0  0  0  0
   37.5210   26.3380   42.6650 C   0  0  0  0  0  0  0  0  0  0  0  0
   36.2430   25.6620   43.0140 C   0  0  0  0  0  0  0  0  0  0  0  0
   38.6130   25.6590   42.1630 C   0  0  0  0  0  0  0  0  0  0  0  0
   38.4850   24.4030   42.0050 O   0  0  0  0  0  0  0  0  0  0  0  0
   39.7690   26.3090   41.8550 N   0  0  0  0  0  0  0  0  0  0  0  0
   39.8930   27.6280   42.0240 C   0  0  0  0  0  0  0  0  0  0  0  0
   40.9650   28.1860   41.7310 O   0  0  0  0  0  0  0  0  0  0  0  0
   39.2450   32.3350   46.1110 C   0  0  0  0  0  0  0  0  0  0  0  0
   37.6840   32.4350   49.5670 C   0  0  0  0  0  0  0  0  0  0  0  0
   38.5530   32.7570   48.5170 C   0  0  0  0  0  0  0  0  0  0  0  0
   38.4070   32.0980   47.2950 C   0  0  0  0  0  0  0  0  0  0  0  0
   37.4130   31.1690   47.2000 N   0  0  0  0  0  0  0  0  0  0  0  0
   36.5860   30.8720   48.2220 C   0  0  0  0  0  0  0  0  0  0  0  0
   36.7120   31.4960   49.4050 N   0  0  0  0  0  0  0  0  0  0  0  0
   40.1380   31.0990   45.9520 C   0  0  0  0  0  0  0  0  0  0  0  0
   40.1130   33.5460   46.2080 C   0  0  0  0  0  0  0  0  0  0  0  0
   37.3613   32.0850   45.1924 H   0  0  0  0  0  0  0  0  0  0  0  0
   38.3556   33.5081   44.6231 H   0  0  0  0  0  0  0  0  0  0  0  0
   39.8320   33.4044   42.6086 H   0  0  0  0  0  0  0  0  0  0  0  0
   36.8216   28.3285   43.2391 H   0  0  0  0  0  0  0  0  0  0  0  0
   36.1431   25.6091   44.1082 H   0  0  0  0  0  0  0  0  0  0  0  0
   35.4004   26.2324   42.5960 H   0  0  0  0  0  0  0  0  0  0  0  0
   36.2403   24.6445   42.5960 H   0  0  0  0  0  0  0  0  0  0  0  0
   40.5654   25.7717   41.4835 H   0  0  0  0  0  0  0  0  0  0  0  0
   37.7883   32.9474   50.5348 H   0  0  0  0  0  0  0  0  0  0  0  0
   39.3373   33.5163   48.6529 H   0  0  0  0  0  0  0  0  0  0  0  0
   35.8017   30.1127   48.0864 H   0  0  0  0  0  0  0  0  0  0  0  0
   40.4146   30.7162   46.9455 H   0  0  0  0  0  0  0  0  0  0  0  0
   39.5921   30.3210   45.3982 H   0  0  0  0  0  0  0  0  0  0  0  0
   41.0481   31.3730   45.3982 H   0  0  0  0  0  0  0  0  0  0  0  0
   40.2869   33.7886   47.2667 H   0  0  0  0  0  0  0  0  0  0  0  0
   41.0758   33.3475   45.7144 H   0  0  0  0  0  0  0  0  0  0  0  0
   39.6158   34.3940   45.7144 H   0  0  0  0  0  0  0  0  0  0  0  0
  1 16  1  0
  2  1  1  0
  3  2  2  0
  4  5  1  0
  4  3  1  0
  5  6  2  0
  6  2  1  0
  7  5  1  0
  7  8  1  0
  9  8  2  0
  9 10  1  0
 11  9  1  0
 12 11  2  0
 13 14  1  0
 13 11  1  0
 14  7  1  0
 15 14  2  0
 16 24  1  0
 16 19  1  0
 18 17  2  0
 19 18  1  0
 20 19  2  0
 20 21  1  0
 21 22  2  0
 22 17  1  0
 23 16  1  0
  1 25  1  0
  1 26  1  0
  3 27  1  0
  8 28  1  0
 10 29  1  0
 10 30  1  0
 10 31  1  0
 13 32  1  0
 17 33  1  0
 18 34  1  0
 21 35  1  0
 23 36  1  0
 23 37  1  0
 23 38  1  0
 24 39  1  0
 24 40  1  0
 24 41  1  0
M  ISO  8  25   8  26   8  27  14  28  14  29   8  30   8  31   8  32   9
M  ISO  8  33  14  34  14  35  14  36   8  37   8  38   8  39   8  40   8
M  ISO  1  41   8
M  END
>  <minimizedAffinity>  (1) 
-5.85993671

>  <minimizedRMSD>  (1) 
0.785970509

$$$$
