
     RDKit          3D

 42 45  0  0  0  0  0  0  0  0999 V2000
   38.2460   32.4790   44.9540 C   0  0  0  0  0  0  0  0  0  0  0  0
   38.7150   31.9030   43.6700 C   0  0  0  0  0  0  0  0  0  0  0  0
   39.3120   32.7700   42.6850 C   0  0  0  0  0  0  0  0  0  0  0  0
   39.6990   31.5810   41.3370 S   0  0  0  0  0  0  0  0  0  0  0  0
   38.9880   30.1430   42.3430 C   0  0  0  0  0  0  0  0  0  0  0  0
   38.6530   30.6430   43.2950 N   0  0  0  0  0  0  0  0  0  0  0  0
   38.8630   28.6230   42.0040 N   0  0  0  0  0  0  0  0  0  0  0  0
   38.0080   27.7880   42.5680 C   0  0  0  0  0  0  0  0  0  0  0  0
   38.2340   26.6160   42.0020 N   0  0  0  0  0  0  0  0  0  0  0  0
   39.2250   26.7750   41.1060 C   0  0  0  0  0  0  0  0  0  0  0  0
   39.7810   25.8050   40.2850 C   0  0  0  0  0  0  0  0  0  0  0  0
   39.4290   24.5980   40.2590 O   0  0  0  0  0  0  0  0  0  0  0  0
   40.7680   26.2420   39.4760 N   0  0  0  0  0  0  0  0  0  0  0  0
   41.2080   27.5240   39.4400 C   0  0  0  0  0  0  0  0  0  0  0  0
   42.2630   27.8640   38.5370 N   0  0  0  0  0  0  0  0  0  0  0  0
   40.6390   28.4570   40.2600 N   0  0  0  0  0  0  0  0  0  0  0  0
   39.6560   28.0780   41.0850 C   0  0  0  0  0  0  0  0  0  0  0  0
   39.2460   32.3540   46.0600 C   0  0  0  0  0  0  0  0  0  0  0  0
   38.0490   32.7400   49.6380 C   0  0  0  0  0  0  0  0  0  0  0  0
   38.7990   32.9550   48.4790 C   0  0  0  0  0  0  0  0  0  0  0  0
   38.5250   32.2180   47.3390 C   0  0  0  0  0  0  0  0  0  0  0  0
   37.5050   31.2940   47.4130 N   0  0  0  0  0  0  0  0  0  0  0  0
   36.7930   31.1000   48.5380 C   0  0  0  0  0  0  0  0  0  0  0  0
   37.0490   31.8050   49.6410 N   0  0  0  0  0  0  0  0  0  0  0  0
   40.0330   31.0390   45.8650 C   0  0  0  0  0  0  0  0  0  0  0  0
   40.2140   33.4760   46.0140 C   0  0  0  0  0  0  0  0  0  0  0  0
   37.3256   31.9572   45.2551 H   0  0  0  0  0  0  0  0  0  0  0  0
   38.0782   33.5532   44.7868 H   0  0  0  0  0  0  0  0  0  0  0  0
   39.4890   33.8548   42.7284 H   0  0  0  0  0  0  0  0  0  0  0  0
   37.2648   28.0200   43.3450 H   0  0  0  0  0  0  0  0  0  0  0  0
   41.2149   25.5598   38.8469 H   0  0  0  0  0  0  0  0  0  0  0  0
   42.6120   28.8321   38.4939 H   0  0  0  0  0  0  0  0  0  0  0  0
   42.6741   27.1408   37.9296 H   0  0  0  0  0  0  0  0  0  0  0  0
   38.2618   33.3214   50.5472 H   0  0  0  0  0  0  0  0  0  0  0  0
   39.6029   33.7058   48.4720 H   0  0  0  0  0  0  0  0  0  0  0  0
   35.9887   30.3497   48.5483 H   0  0  0  0  0  0  0  0  0  0  0  0
   40.2870   30.6146   46.8475 H   0  0  0  0  0  0  0  0  0  0  0  0
   39.4155   30.3218   45.3043 H   0  0  0  0  0  0  0  0  0  0  0  0
   40.9568   31.2443   45.3043 H   0  0  0  0  0  0  0  0  0  0  0  0
   40.4744   33.7779   47.0392 H   0  0  0  0  0  0  0  0  0  0  0  0
   41.1229   33.1546   45.4843 H   0  0  0  0  0  0  0  0  0  0  0  0
   39.7629   34.3280   45.4843 H   0  0  0  0  0  0  0  0  0  0  0  0
  1 18  1  0
  2  1  1  0
  3  2  2  0
  4  5  1  0
  4  3  1  0
  5  6  2  0
  6  2  1  0
  7  5  1  0
  7  8  1  0
  9  8  2  0
 10  9  1  0
 11 10  1  0
 12 11  2  0
 13 11  1  0
 14 13  1  0
 14 16  2  0
 15 14  1  0
 16 17  1  0
 17 10  2  0
 17  7  1  0
 18 21  1  0
 19 24  2  0
 20 19  1  0
 21 22  1  0
 21 20  2  0
 22 23  2  0
 23 24  1  0
 25 18  1  0
 26 18  1  0
  1 27  1  0
  1 28  1  0
  3 29  1  0
  8 30  1  0
 13 31  1  0
 15 32  1  0
 15 33  1  0
 19 34  1  0
 20 35  1  0
 23 36  1  0
 25 37  1  0
 25 38  1  0
 25 39  1  0
 26 40  1  0
 26 41  1  0
 26 42  1  0
M  ISO  8  27   8  28   8  29  14  30  14  31   9  34  14  35  14  36  14
M  ISO  6  37   8  38   8  39   8  40   8  41   8  42   8
M  END
>  <minimizedAffinity>  (1) 
-5.80047894

>  <minimizedRMSD>  (1) 
0.584262192

$$$$
