
     RDKit          3D

 34 35  0  0  1  0  0  0  0  0999 V2000
   36.5170   30.8920   48.2660 N   0  0  0  0  0  0  0  0  0  0  0  0
   37.9210   31.2070   48.1180 C   0  0  0  0  0  0  0  0  0  0  0  0
   38.0130   32.5480   48.8010 C   0  0  0  0  0  0  0  0  0  0  0  0
   37.2420   32.2660   50.0690 C   0  0  0  0  0  0  0  0  0  0  0  0
   36.3400   31.1260   49.6670 C   0  0  2  0  0  0  0  0  0  0  0  0
   35.6010   30.4690   47.2460 C   0  0  0  0  0  0  0  0  0  0  0  0
   36.0360   30.2370   45.9310 C   0  0  0  0  0  0  0  0  0  0  0  0
   35.0720   29.8270   44.9800 C   0  0  0  0  0  0  0  0  0  0  0  0
   33.7960   29.6850   45.4060 N   0  0  0  0  0  0  0  0  0  0  0  0
   33.4080   29.9200   46.6950 C   0  0  0  0  0  0  0  0  0  0  0  0
   34.3120   30.3110   47.6120 N   0  0  0  0  0  0  0  0  0  0  0  0
   36.4210   29.9470   50.5580 C   0  0  0  0  0  0  0  0  0  0  0  0
   37.0640   28.7800   49.7970 C   0  0  0  0  0  0  0  0  0  0  0  0
   35.1340   29.4170   51.0820 C   0  0  0  0  0  0  0  0  0  0  0  0
   37.3320   30.2350   51.7250 C   0  0  0  0  0  0  0  0  0  0  0  0
   38.5537   30.4590   48.6183 H   0  0  0  0  0  0  0  0  0  0  0  0
   38.2667   31.2156   47.0738 H   0  0  0  0  0  0  0  0  0  0  0  0
   39.0563   32.8246   49.0133 H   0  0  0  0  0  0  0  0  0  0  0  0
   37.6276   33.3910   48.2086 H   0  0  0  0  0  0  0  0  0  0  0  0
   37.9170   31.9681   50.8849 H   0  0  0  0  0  0  0  0  0  0  0  0
   36.6940   33.1411   50.4485 H   0  0  0  0  0  0  0  0  0  0  0  0
   35.2861   31.4032   49.8166 H   0  0  0  0  0  0  0  0  0  0  0  0
   37.0911   30.3696   45.6497 H   0  0  0  0  0  0  0  0  0  0  0  0
   35.3496   29.6311   43.9338 H   0  0  0  0  0  0  0  0  0  0  0  0
   32.3546   29.7893   46.9836 H   0  0  0  0  0  0  0  0  0  0  0  0
   37.4659   28.0506   50.5157 H   0  0  0  0  0  0  0  0  0  0  0  0
   36.3069   28.2929   49.1649 H   0  0  0  0  0  0  0  0  0  0  0  0
   37.8802   29.1598   49.1649 H   0  0  0  0  0  0  0  0  0  0  0  0
   35.1546   29.4255   52.1818 H   0  0  0  0  0  0  0  0  0  0  0  0
   34.3058   30.0472   50.7259 H   0  0  0  0  0  0  0  0  0  0  0  0
   34.9898   28.3863   50.7259 H   0  0  0  0  0  0  0  0  0  0  0  0
   36.7883   30.0631   52.6657 H   0  0  0  0  0  0  0  0  0  0  0  0
   38.2068   29.5696   51.6802 H   0  0  0  0  0  0  0  0  0  0  0  0
   37.6653   31.2823   51.6802 H   0  0  0  0  0  0  0  0  0  0  0  0
  1  5  1  0
  2  1  1  0
  2  3  1  0
  3  4  1  0
  5  4  1  0
  5 12  1  0
  6 11  1  0
  6  1  1  0
  7  6  2  0
  8  9  2  0
  8  7  1  0
  9 10  1  0
 10 11  2  0
 12 14  1  0
 12 15  1  0
 13 12  1  0
  2 16  1  0
  2 17  1  0
  3 18  1  0
  3 19  1  0
  4 20  1  0
  4 21  1  0
  5 22  1  6
  7 23  1  0
  8 24  1  0
 10 25  1  0
 13 26  1  0
 13 27  1  0
 13 28  1  0
 14 29  1  0
 14 30  1  0
 14 31  1  0
 15 32  1  0
 15 33  1  0
 15 34  1  0
M  ISO  8  16  13  17  13  18  13  19  13  20  13  21  13  22  13  23  14
M  ISO  8  24  14  25  14  26   8  27   8  28   8  29   8  30   8  31   8
M  ISO  3  32   8  33   8  34   8
M  END
>  <minimizedAffinity>  (1) 
-4.65358305

>  <minimizedRMSD>  (1) 
2.35328031

$$$$
