
     RDKit          3D

 25 26  0  0  1  0  0  0  0  0999 V2000
   37.1430   30.2270   48.8410 N   0  0  0  0  0  0  0  0  0  0  0  0
   38.0190   30.9000   47.9000 C   0  0  0  0  0  0  0  0  0  0  0  0
   38.3260   32.1730   48.6280 C   0  0  0  0  0  0  0  0  0  0  0  0
   38.6440   31.6440   50.0120 C   0  0  0  0  0  0  0  0  0  0  0  0
   37.8890   30.3330   50.0520 C   0  0  1  0  0  0  0  0  0  0  0  0
   35.8760   29.6330   48.5680 C   0  0  0  0  0  0  0  0  0  0  0  0
   34.9990   30.1940   47.6020 C   0  0  0  0  0  0  0  0  0  0  0  0
   33.7640   29.5820   47.3630 C   0  0  0  0  0  0  0  0  0  0  0  0
   33.4710   28.4660   48.0840 N   0  0  0  0  0  0  0  0  0  0  0  0
   34.3310   27.9570   48.9980 C   0  0  0  0  0  0  0  0  0  0  0  0
   35.5220   28.5270   49.2460 N   0  0  0  0  0  0  0  0  0  0  0  0
   37.1500   30.2440   51.3280 C   0  0  0  0  0  0  0  0  0  0  0  0
   37.5075   31.0968   46.9462 H   0  0  0  0  0  0  0  0  0  0  0  0
   38.9102   30.3172   47.6242 H   0  0  0  0  0  0  0  0  0  0  0  0
   39.1886   32.6933   48.1862 H   0  0  0  0  0  0  0  0  0  0  0  0
   37.5166   32.9174   48.6016 H   0  0  0  0  0  0  0  0  0  0  0  0
   39.7250   31.4825   50.1356 H   0  0  0  0  0  0  0  0  0  0  0  0
   38.3586   32.3355   50.8185 H   0  0  0  0  0  0  0  0  0  0  0  0
   38.5297   29.4390   50.0663 H   0  0  0  0  0  0  0  0  0  0  0  0
   35.2876   31.0995   47.0480 H   0  0  0  0  0  0  0  0  0  0  0  0
   33.0585   29.9866   46.6223 H   0  0  0  0  0  0  0  0  0  0  0  0
   34.0462   27.0511   49.5531 H   0  0  0  0  0  0  0  0  0  0  0  0
   37.8560   30.3290   52.1673 H   0  0  0  0  0  0  0  0  0  0  0  0
   36.4145   31.0601   51.3834 H   0  0  0  0  0  0  0  0  0  0  0  0
   36.6293   29.2767   51.3834 H   0  0  0  0  0  0  0  0  0  0  0  0
  1  5  1  0
  2  3  1  0
  2  1  1  0
  3  4  1  0
  4  5  1  0
  5 12  1  0
  6  1  1  0
  6 11  1  0
  7  6  2  0
  8  7  1  0
  8  9  2  0
  9 10  1  0
 10 11  2  0
  2 13  1  0
  2 14  1  0
  3 15  1  0
  3 16  1  0
  4 17  1  0
  4 18  1  0
  5 19  1  1
  7 20  1  0
  8 21  1  0
 10 22  1  0
 12 23  1  0
 12 24  1  0
 12 25  1  0
M  ISO  8  13  13  14  13  15  13  16  13  17  13  18  13  19  13  20  14
M  ISO  5  21  14  22  14  23   8  24   8  25   8
M  END
>  <minimizedAffinity>  (1) 
-4.57059574

>  <minimizedRMSD>  (1) 
1.36429262

$$$$
