
     RDKit          3D

 37 39  0  0  1  0  0  0  0  0999 V2000
   39.1340   30.9210   45.3050 N   0  0  0  0  0  0  0  0  0  0  0  0
   40.5550   31.0700   45.5210 C   0  0  0  0  0  0  0  0  0  0  0  0
   40.7100   32.5780   45.4670 C   0  0  0  0  0  0  0  0  0  0  0  0
   39.6010   32.9860   46.4160 C   0  0  0  0  0  0  0  0  0  0  0  0
   38.6260   31.8390   46.2680 C   0  0  2  0  0  0  0  0  0  0  0  0
   38.4800   30.0780   44.3750 C   0  0  0  0  0  0  0  0  0  0  0  0
   39.1450   29.0050   43.7480 C   0  0  0  0  0  0  0  0  0  0  0  0
   38.4030   28.2120   42.8320 C   0  0  0  0  0  0  0  0  0  0  0  0
   37.0950   28.5320   42.6090 N   0  0  0  0  0  0  0  0  0  0  0  0
   36.4970   29.5700   43.2310 C   0  0  0  0  0  0  0  0  0  0  0  0
   37.1940   30.3360   44.1100 N   0  0  0  0  0  0  0  0  0  0  0  0
   38.2710   31.3540   47.5410 N   0  0  0  0  0  0  0  0  0  0  0  0
   38.6410   32.2810   48.5520 C   0  0  0  0  0  0  0  0  0  0  0  0
   38.4060   31.6030   49.9020 C   0  0  0  0  0  0  0  0  0  0  0  0
   36.8920   31.5710   50.0160 C   0  0  0  0  0  0  0  0  0  0  0  0
   36.2460   30.8520   48.8690 C   0  0  0  0  0  0  0  0  0  0  0  0
   37.1380   30.5620   47.7140 C   0  0  0  0  0  0  0  0  0  0  0  0
   40.8573   30.6694   46.4998 H   0  0  0  0  0  0  0  0  0  0  0  0
   41.1792   30.5277   44.7955 H   0  0  0  0  0  0  0  0  0  0  0  0
   41.6973   32.9009   45.8288 H   0  0  0  0  0  0  0  0  0  0  0  0
   40.6453   33.0164   44.4602 H   0  0  0  0  0  0  0  0  0  0  0  0
   39.9687   33.0677   47.4495 H   0  0  0  0  0  0  0  0  0  0  0  0
   39.1654   33.9712   46.1932 H   0  0  0  0  0  0  0  0  0  0  0  0
   37.6553   32.1381   45.8457 H   0  0  0  0  0  0  0  0  0  0  0  0
   40.2024   28.7890   43.9606 H   0  0  0  0  0  0  0  0  0  0  0  0
   38.8711   27.3612   42.3153 H   0  0  0  0  0  0  0  0  0  0  0  0
   35.4405   29.7966   43.0252 H   0  0  0  0  0  0  0  0  0  0  0  0
   39.7024   32.5494   48.4458 H   0  0  0  0  0  0  0  0  0  0  0  0
   38.0454   33.2023   48.4711 H   0  0  0  0  0  0  0  0  0  0  0  0
   38.8237   30.5854   49.9103 H   0  0  0  0  0  0  0  0  0  0  0  0
   38.8903   32.1282   50.7384 H   0  0  0  0  0  0  0  0  0  0  0  0
   36.6191   31.0605   50.9514 H   0  0  0  0  0  0  0  0  0  0  0  0
   36.5333   32.6108   50.0041 H   0  0  0  0  0  0  0  0  0  0  0  0
   35.8556   29.8948   49.2450 H   0  0  0  0  0  0  0  0  0  0  0  0
   35.4665   31.5281   48.4878 H   0  0  0  0  0  0  0  0  0  0  0  0
   36.5312   30.6574   46.8015 H   0  0  0  0  0  0  0  0  0  0  0  0
   37.5369   29.5585   47.9235 H   0  0  0  0  0  0  0  0  0  0  0  0
  1  2  1  0
  1  5  1  0
  3  2  1  0
  3  4  1  0
  5  4  1  0
  5 12  1  0
  6  1  1  0
  7  6  2  0
  8  7  1  0
  9  8  2  0
  9 10  1  0
 10 11  2  0
 11  6  1  0
 12 17  1  0
 12 13  1  0
 13 14  1  0
 14 15  1  0
 16 15  1  0
 17 16  1  0
  2 18  1  0
  2 19  1  0
  3 20  1  0
  3 21  1  0
  4 22  1  0
  4 23  1  0
  5 24  1  6
  7 25  1  0
  8 26  1  0
 10 27  1  0
 13 28  1  0
 13 29  1  0
 14 30  1  0
 14 31  1  0
 15 32  1  0
 15 33  1  0
 16 34  1  0
 16 35  1  0
 17 36  1  0
 17 37  1  0
M  ISO  8  18  13  19  13  20  13  21  13  22  13  23  13  24  13  25  14
M  ISO  8  26  14  27  14  28  13  29  13  30  13  31  13  32  13  33  13
M  ISO  4  34  13  35  13  36  13  37  13
M  END
>  <minimizedAffinity>  (1) 
-5.19635391

>  <minimizedRMSD>  (1) 
5.48067808

$$$$
