
     RDKit          3D

 46 49  0  0  1  0  0  0  0  0999 V2000
   37.0070   30.8260   49.1850 N   0  0  0  0  0  0  0  0  0  0  0  0
   37.5230   30.7540   50.5010 C   0  0  0  0  0  0  0  0  0  0  0  0
   37.2630   29.3830   51.1130 C   0  0  0  0  0  0  0  0  0  0  0  0
   35.7660   29.2660   51.1550 C   0  0  0  0  0  0  0  0  0  0  0  0
   35.2060   29.3790   49.7900 C   0  0  0  0  0  0  0  0  0  0  0  0
   36.2080   29.8240   48.7090 C   0  0  1  0  0  0  0  0  0  0  0  0
   38.4700   32.0650   47.6740 N   0  0  0  0  0  0  0  0  0  0  0  0
   39.5170   32.5360   48.5440 C   0  0  0  0  0  0  0  0  0  0  0  0
   38.8560   33.7380   49.1810 C   0  0  0  0  0  0  0  0  0  0  0  0
   37.4870   33.1440   49.5310 C   0  0  0  0  0  0  0  0  0  0  0  0
   37.3610   32.0200   48.5810 C   0  0  2  0  0  0  0  0  0  0  0  0
   38.5780   31.7530   46.3090 C   0  0  0  0  0  0  0  0  0  0  0  0
   39.2700   30.6160   45.8190 C   0  0  0  0  0  0  0  0  0  0  0  0
   39.2840   30.4250   44.4010 C   0  0  0  0  0  0  0  0  0  0  0  0
   38.6360   31.3430   43.6070 N   0  0  0  0  0  0  0  0  0  0  0  0
   37.9910   32.4100   44.1240 C   0  0  0  0  0  0  0  0  0  0  0  0
   38.0010   32.5540   45.4500 N   0  0  0  0  0  0  0  0  0  0  0  0
   35.2720   29.8050   47.6330 C   0  0  0  0  0  0  0  0  0  0  0  0
   35.6320   30.0220   46.3160 C   0  0  0  0  0  0  0  0  0  0  0  0
   34.7380   29.9400   45.2850 C   0  0  0  0  0  0  0  0  0  0  0  0
   33.4380   29.6330   45.5400 C   0  0  0  0  0  0  0  0  0  0  0  0
   33.0490   29.4100   46.8510 C   0  0  0  0  0  0  0  0  0  0  0  0
   33.9560   29.4980   47.8680 N   0  0  0  0  0  0  0  0  0  0  0  0
   38.6075   30.9361   50.4730 H   0  0  0  0  0  0  0  0  0  0  0  0
   37.0213   31.5147   51.1172 H   0  0  0  0  0  0  0  0  0  0  0  0
   37.6974   28.5894   50.4872 H   0  0  0  0  0  0  0  0  0  0  0  0
   37.7184   29.2769   52.1087 H   0  0  0  0  0  0  0  0  0  0  0  0
   35.4896   28.2904   51.5815 H   0  0  0  0  0  0  0  0  0  0  0  0
   35.3600   30.0768   51.7777 H   0  0  0  0  0  0  0  0  0  0  0  0
   34.8085   28.3946   49.5020 H   0  0  0  0  0  0  0  0  0  0  0  0
   34.4372   30.1643   49.8378 H   0  0  0  0  0  0  0  0  0  0  0  0
   37.0994   29.2928   48.3440 H   0  0  0  0  0  0  0  0  0  0  0  0
   39.7866   31.7794   49.2956 H   0  0  0  0  0  0  0  0  0  0  0  0
   40.4623   32.7624   48.0291 H   0  0  0  0  0  0  0  0  0  0  0  0
   39.3966   34.0715   50.0791 H   0  0  0  0  0  0  0  0  0  0  0  0
   38.8199   34.6347   48.5449 H   0  0  0  0  0  0  0  0  0  0  0  0
   37.4650   32.7870   50.5712 H   0  0  0  0  0  0  0  0  0  0  0  0
   36.6657   33.8716   49.4537 H   0  0  0  0  0  0  0  0  0  0  0  0
   36.4809   32.1225   47.9292 H   0  0  0  0  0  0  0  0  0  0  0  0
   39.7733   29.9126   46.4986 H   0  0  0  0  0  0  0  0  0  0  0  0
   39.8017   29.5628   43.9553 H   0  0  0  0  0  0  0  0  0  0  0  0
   37.4760   33.1342   43.4756 H   0  0  0  0  0  0  0  0  0  0  0  0
   36.6792   30.2705   46.0887 H   0  0  0  0  0  0  0  0  0  0  0  0
   35.0693   30.1219   44.2520 H   0  0  0  0  0  0  0  0  0  0  0  0
   32.7082   29.5629   44.7200 H   0  0  0  0  0  0  0  0  0  0  0  0
   32.0013   29.1601   47.0743 H   0  0  0  0  0  0  0  0  0  0  0  0
  1  2  1  0
  2  3  1  0
  3  4  1  0
  5  4  1  0
  6  1  1  0
  6  5  1  0
  7  8  1  0
  7 11  1  0
  8  9  1  0
  9 10  1  0
 11  1  1  0
 11 10  1  0
 12  7  1  0
 13 12  2  0
 14 13  1  0
 15 16  1  0
 15 14  2  0
 16 17  2  0
 17 12  1  0
 18 23  1  0
 18  6  1  0
 19 18  2  0
 20 21  2  0
 20 19  1  0
 21 22  1  0
 22 23  2  0
  2 24  1  0
  2 25  1  0
  3 26  1  0
  3 27  1  0
  4 28  1  0
  4 29  1  0
  5 30  1  0
  5 31  1  0
  6 32  1  6
  8 33  1  0
  8 34  1  0
  9 35  1  0
  9 36  1  0
 10 37  1  0
 10 38  1  0
 11 39  1  6
 13 40  1  0
 14 41  1  0
 16 42  1  0
 19 43  1  0
 20 44  1  0
 21 45  1  0
 22 46  1  0
M  ISO  8  24  13  25  13  26  13  27  13  28  13  29  13  30  13  31  13
M  ISO  8  32  13  33  13  34  13  35  13  36  13  37  13  38  13  39  13
M  ISO  7  40  14  41  14  42  14  43  14  44  14  45  14  46  14
M  END
>  <minimizedAffinity>  (1) 
-5.9661994

>  <minimizedRMSD>  (1) 
2.59470797

$$$$
