
     RDKit          3D

 44 47  0  0  1  0  0  0  0  0999 V2000
   37.9290   31.8140   47.1060 N   0  0  0  0  0  0  0  0  0  0  0  0
   39.2780   31.9950   47.5820 C   0  0  0  0  0  0  0  0  0  0  0  0
   39.1350   33.2490   48.4190 C   0  0  0  0  0  0  0  0  0  0  0  0
   37.8520   32.9110   49.1880 C   0  0  0  0  0  0  0  0  0  0  0  0
   37.2050   31.9070   48.3350 C   0  0  2  0  0  0  0  0  0  0  0  0
   36.9070   30.7210   49.0180 N   0  0  0  0  0  0  0  0  0  0  0  0
   37.8700   30.4390   50.0040 C   0  0  0  0  0  0  0  0  0  0  0  0
   37.5050   29.1880   50.7540 C   0  0  0  0  0  0  0  0  0  0  0  0
   36.1960   29.3980   51.4170 C   0  0  0  0  0  0  0  0  0  0  0  0
   35.1380   30.0440   50.5750 C   0  0  0  0  0  0  0  0  0  0  0  0
   35.5940   30.2330   49.1370 C   0  0  2  0  0  0  0  0  0  0  0  0
   35.3710   28.8760   48.5050 C   0  0  0  0  0  0  0  0  0  0  0  0
   34.3430   28.6040   47.5170 C   0  0  0  0  0  0  0  0  0  0  0  0
   34.1100   28.1540   48.9780 C   0  0  0  0  0  0  0  0  0  0  0  0
   37.5010   31.6030   45.7690 C   0  0  0  0  0  0  0  0  0  0  0  0
   37.9140   32.4350   44.7210 C   0  0  0  0  0  0  0  0  0  0  0  0
   37.4340   32.1370   43.4170 C   0  0  0  0  0  0  0  0  0  0  0  0
   36.6040   31.0680   43.2560 N   0  0  0  0  0  0  0  0  0  0  0  0
   36.2370   30.2990   44.2960 C   0  0  0  0  0  0  0  0  0  0  0  0
   36.6940   30.5810   45.5340 N   0  0  0  0  0  0  0  0  0  0  0  0
   39.6076   31.1404   48.1911 H   0  0  0  0  0  0  0  0  0  0  0  0
   40.0299   32.0716   46.7828 H   0  0  0  0  0  0  0  0  0  0  0  0
   39.9914   33.3884   49.0951 H   0  0  0  0  0  0  0  0  0  0  0  0
   39.0980   34.1870   47.8456 H   0  0  0  0  0  0  0  0  0  0  0  0
   38.0843   32.4955   50.1797 H   0  0  0  0  0  0  0  0  0  0  0  0
   37.2180   33.7898   49.3772 H   0  0  0  0  0  0  0  0  0  0  0  0
   36.1911   32.2214   48.0465 H   0  0  0  0  0  0  0  0  0  0  0  0
   38.8499   30.3003   49.5238 H   0  0  0  0  0  0  0  0  0  0  0  0
   37.9105   31.2795   50.7125 H   0  0  0  0  0  0  0  0  0  0  0  0
   37.4339   28.3433   50.0530 H   0  0  0  0  0  0  0  0  0  0  0  0
   38.2752   28.9632   51.5065 H   0  0  0  0  0  0  0  0  0  0  0  0
   35.8189   28.4162   51.7393 H   0  0  0  0  0  0  0  0  0  0  0  0
   36.3877   30.0957   52.2455 H   0  0  0  0  0  0  0  0  0  0  0  0
   34.2403   29.4084   50.5827 H   0  0  0  0  0  0  0  0  0  0  0  0
   34.9250   31.0368   50.9981 H   0  0  0  0  0  0  0  0  0  0  0  0
   35.0257   31.0197   48.6191 H   0  0  0  0  0  0  0  0  0  0  0  0
   36.4547   28.6909   48.4687 H   0  0  0  0  0  0  0  0  0  0  0  0
   33.7528   29.4332   47.0997 H   0  0  0  0  0  0  0  0  0  0  0  0
   34.3265   28.0952   46.5419 H   0  0  0  0  0  0  0  0  0  0  0  0
   34.1430   27.0880   49.2475 H   0  0  0  0  0  0  0  0  0  0  0  0
   33.3415   28.3111   49.7492 H   0  0  0  0  0  0  0  0  0  0  0  0
   38.5852   33.2878   44.9005 H   0  0  0  0  0  0  0  0  0  0  0  0
   37.7261   32.7560   42.5559 H   0  0  0  0  0  0  0  0  0  0  0  0
   35.5658   29.4420   44.1381 H   0  0  0  0  0  0  0  0  0  0  0  0
  1  2  1  0
  1  5  1  0
  2  3  1  0
  3  4  1  0
  5  6  1  0
  5  4  1  0
  6 11  1  0
  6  7  1  0
  7  8  1  0
  8  9  1  0
 10  9  1  0
 11 10  1  0
 12 14  1  0
 12 11  1  0
 13 12  1  0
 13 14  1  0
 15  1  1  0
 16 15  2  0
 17 16  1  0
 18 17  2  0
 18 19  1  0
 19 20  2  0
 20 15  1  0
  2 21  1  0
  2 22  1  0
  3 23  1  0
  3 24  1  0
  4 25  1  0
  4 26  1  0
  5 27  1  6
  7 28  1  0
  7 29  1  0
  8 30  1  0
  8 31  1  0
  9 32  1  0
  9 33  1  0
 10 34  1  0
 10 35  1  0
 11 36  1  6
 12 37  1  0
 13 38  1  0
 13 39  1  0
 14 40  1  0
 14 41  1  0
 16 42  1  0
 17 43  1  0
 19 44  1  0
M  ISO  8  21  13  22  13  23  13  24  13  25  13  26  13  27  13  28  13
M  ISO  8  29  13  30  13  31  13  32  13  33  13  34  13  35  13  36  13
M  ISO  8  37  13  38  13  39  13  40  13  41  13  42  14  43  14  44  14
M  END
>  <minimizedAffinity>  (1) 
-5.63423967

>  <minimizedRMSD>  (1) 
2.88381505

$$$$
