
     RDKit          3D

 46 48  0  0  1  0  0  0  0  0999 V2000
   37.9780   30.8010   45.5820 N   0  0  0  0  0  0  0  0  0  0  0  0
   39.4010   30.5960   45.7180 C   0  0  0  0  0  0  0  0  0  0  0  0
   39.8910   31.9710   46.0530 C   0  0  0  0  0  0  0  0  0  0  0  0
   38.8370   32.4040   47.0780 C   0  0  0  0  0  0  0  0  0  0  0  0
   37.7160   31.5030   46.7900 C   0  0  2  0  0  0  0  0  0  0  0  0
   37.3110   30.7180   47.9170 N   0  0  0  0  0  0  0  0  0  0  0  0
   38.3680   30.6860   48.8460 C   0  0  0  0  0  0  0  0  0  0  0  0
   37.9270   29.9210   50.0630 C   0  0  0  0  0  0  0  0  0  0  0  0
   36.8280   30.6690   50.7140 C   0  0  0  0  0  0  0  0  0  0  0  0
   35.7670   31.1660   49.7940 C   0  0  0  0  0  0  0  0  0  0  0  0
   35.9840   30.7490   48.3490 C   0  0  2  0  0  0  0  0  0  0  0  0
   35.3220   29.3990   48.2450 C   0  0  0  0  0  0  0  0  0  0  0  0
   34.3280   29.2000   49.4030 C   0  0  0  0  0  0  0  0  0  0  0  0
   34.6570   29.1050   46.9410 C   0  0  0  0  0  0  0  0  0  0  0  0
   37.1340   30.3930   44.5260 C   0  0  0  0  0  0  0  0  0  0  0  0
   37.4920   29.3110   43.6790 C   0  0  0  0  0  0  0  0  0  0  0  0
   36.5800   28.9600   42.6510 C   0  0  0  0  0  0  0  0  0  0  0  0
   35.4230   29.6710   42.5300 N   0  0  0  0  0  0  0  0  0  0  0  0
   35.1290   30.6980   43.3680 C   0  0  0  0  0  0  0  0  0  0  0  0
   35.9910   31.0480   44.3590 N   0  0  0  0  0  0  0  0  0  0  0  0
   39.6255   29.8850   46.5268 H   0  0  0  0  0  0  0  0  0  0  0  0
   39.8719   30.1669   44.8212 H   0  0  0  0  0  0  0  0  0  0  0  0
   40.8988   31.9465   46.4931 H   0  0  0  0  0  0  0  0  0  0  0  0
   39.9919   32.6438   45.1886 H   0  0  0  0  0  0  0  0  0  0  0  0
   39.2032   32.2652   48.1059 H   0  0  0  0  0  0  0  0  0  0  0  0
   38.5702   33.4687   47.0058 H   0  0  0  0  0  0  0  0  0  0  0  0
   36.8035   32.0893   46.6069 H   0  0  0  0  0  0  0  0  0  0  0  0
   39.2405   30.1906   48.3951 H   0  0  0  0  0  0  0  0  0  0  0  0
   38.6431   31.7121   49.1315 H   0  0  0  0  0  0  0  0  0  0  0  0
   37.5719   28.9232   49.7658 H   0  0  0  0  0  0  0  0  0  0  0  0
   38.7692   29.8042   50.7609 H   0  0  0  0  0  0  0  0  0  0  0  0
   36.3547   30.0047   51.4520 H   0  0  0  0  0  0  0  0  0  0  0  0
   37.2891   31.5629   51.1594 H   0  0  0  0  0  0  0  0  0  0  0  0
   34.7981   30.7687   50.1308 H   0  0  0  0  0  0  0  0  0  0  0  0
   35.7962   32.2652   49.8249 H   0  0  0  0  0  0  0  0  0  0  0  0
   35.5512   31.5046   47.6768 H   0  0  0  0  0  0  0  0  0  0  0  0
   36.1490   28.6767   48.3109 H   0  0  0  0  0  0  0  0  0  0  0  0
   34.8563   29.3058   50.3620 H   0  0  0  0  0  0  0  0  0  0  0  0
   33.5323   29.9567   49.3373 H   0  0  0  0  0  0  0  0  0  0  0  0
   33.8849   28.1953   49.3373 H   0  0  0  0  0  0  0  0  0  0  0  0
   33.6652   28.6665   47.1258 H   0  0  0  0  0  0  0  0  0  0  0  0
   34.5447   30.0374   46.3682 H   0  0  0  0  0  0  0  0  0  0  0  0
   35.2711   28.3945   46.3682 H   0  0  0  0  0  0  0  0  0  0  0  0
   38.4384   28.7670   43.8146 H   0  0  0  0  0  0  0  0  0  0  0  0
   36.8020   28.1298   41.9643 H   0  0  0  0  0  0  0  0  0  0  0  0
   34.1862   31.2509   43.2440 H   0  0  0  0  0  0  0  0  0  0  0  0
  1  2  1  0
  1  5  1  0
  2  3  1  0
  3  4  1  0
  5  4  1  0
  5  6  1  0
  6 11  1  0
  6  7  1  0
  7  8  1  0
  8  9  1  0
 10  9  1  0
 11 10  1  0
 12 11  1  0
 12 13  1  0
 14 12  1  0
 15  1  1  0
 16 15  2  0
 17 16  1  0
 18 17  2  0
 18 19  1  0
 19 20  2  0
 20 15  1  0
  2 21  1  0
  2 22  1  0
  3 23  1  0
  3 24  1  0
  4 25  1  0
  4 26  1  0
  5 27  1  6
  7 28  1  0
  7 29  1  0
  8 30  1  0
  8 31  1  0
  9 32  1  0
  9 33  1  0
 10 34  1  0
 10 35  1  0
 11 36  1  6
 12 37  1  0
 13 38  1  0
 13 39  1  0
 13 40  1  0
 14 41  1  0
 14 42  1  0
 14 43  1  0
 16 44  1  0
 17 45  1  0
 19 46  1  0
M  ISO  8  21  13  22  13  23  13  24  13  25  13  26  13  27  13  28  13
M  ISO  8  29  13  30  13  31  13  32  13  33  13  34  13  35  13  36  13
M  ISO  8  37   8  38   8  39   8  40   8  41   8  42   8  43   8  44  14
M  ISO  2  45  14  46  14
M  END
>  <minimizedAffinity>  (1) 
-5.11072493

>  <minimizedRMSD>  (1) 
1.97382116

$$$$
