
     RDKit          3D

 26 28  0  0  0  0  0  0  0  0999 V2000
   35.3900   29.0510   50.4790 C   0  0  0  0  0  0  0  0  0  0  0  0
   36.0260   30.1350   49.8540 C   0  0  0  0  0  0  0  0  0  0  0  0
   35.5420   30.5100   48.5880 C   0  0  0  0  0  0  0  0  0  0  0  0
   34.4970   29.8140   48.0390 N   0  0  0  0  0  0  0  0  0  0  0  0
   33.9230   28.7760   48.6880 C   0  0  0  0  0  0  0  0  0  0  0  0
   34.3730   28.4110   49.8890 N   0  0  0  0  0  0  0  0  0  0  0  0
   32.8630   28.1870   47.9620 N   0  0  0  0  0  0  0  0  0  0  0  0
   33.0360   27.9200   46.6460 C   0  0  0  0  0  0  0  0  0  0  0  0
   31.8990   27.3580   46.1470 N   0  0  0  0  0  0  0  0  0  0  0  0
   31.0020   27.2640   47.1340 C   0  0  0  0  0  0  0  0  0  0  0  0
   29.7280   26.8190   47.3010 C   0  0  0  0  0  0  0  0  0  0  0  0
   29.1380   26.8930   48.4870 N   0  0  0  0  0  0  0  0  0  0  0  0
   29.7410   27.4040   49.5980 C   0  0  0  0  0  0  0  0  0  0  0  0
   31.0200   27.8650   49.4820 N   0  0  0  0  0  0  0  0  0  0  0  0
   31.6190   27.7890   48.2750 C   0  0  0  0  0  0  0  0  0  0  0  0
   37.1590   30.8880   50.4530 C   0  0  0  0  0  0  0  0  0  0  0  0
   38.3590   30.6470   49.8440 F   0  0  0  0  0  0  0  0  0  0  0  0
   37.3030   30.5840   51.7830 F   0  0  0  0  0  0  0  0  0  0  0  0
   36.9090   32.2520   50.3390 F   0  0  0  0  0  0  0  0  0  0  0  0
   29.0840   26.2800   46.1480 N   0  0  0  0  0  0  0  0  0  0  0  0
   35.7332   28.7217   51.4708 H   0  0  0  0  0  0  0  0  0  0  0  0
   35.9967   31.3517   48.0451 H   0  0  0  0  0  0  0  0  0  0  0  0
   33.9505   28.1245   46.0700 H   0  0  0  0  0  0  0  0  0  0  0  0
   29.2111   27.4435   50.5611 H   0  0  0  0  0  0  0  0  0  0  0  0
   28.1185   25.9276   46.2149 H   0  0  0  0  0  0  0  0  0  0  0  0
   29.5845   26.2432   45.2485 H   0  0  0  0  0  0  0  0  0  0  0  0
  2 16  1  0
  2  1  2  0
  3  2  1  0
  4  3  2  0
  4  5  1  0
  5  6  2  0
  6  1  1  0
  7 15  1  0
  7  5  1  0
  8  7  1  0
  9  8  2  0
  9 10  1  0
 10 11  2  0
 10 15  1  0
 11 12  1  0
 12 13  2  0
 14 13  1  0
 15 14  2  0
 16 18  1  0
 17 16  1  0
 19 16  1  0
 20 11  1  0
  1 21  1  0
  3 22  1  0
  8 23  1  0
 13 24  1  0
 20 25  1  0
 20 26  1  0
M  ISO  4  21  14  22  14  23  14  24  14
M  END
>  <minimizedAffinity>  (1) 
-5.89635563

>  <minimizedRMSD>  (1) 
1.14340639

$$$$
