
     RDKit          3D

 24 26  0  0  0  0  0  0  0  0999 V2000
   35.1130   29.1470   50.4480 C   0  0  0  0  0  0  0  0  0  0  0  0
   35.9970   30.0340   49.8330 C   0  0  0  0  0  0  0  0  0  0  0  0
   35.8270   30.2720   48.4730 C   0  0  0  0  0  0  0  0  0  0  0  0
   34.8080   29.6280   47.8070 N   0  0  0  0  0  0  0  0  0  0  0  0
   33.9800   28.7770   48.4520 C   0  0  0  0  0  0  0  0  0  0  0  0
   34.1410   28.5490   49.7520 N   0  0  0  0  0  0  0  0  0  0  0  0
   32.9400   28.1300   47.7380 N   0  0  0  0  0  0  0  0  0  0  0  0
   32.9290   27.7080   46.4610 C   0  0  0  0  0  0  0  0  0  0  0  0
   31.7590   27.1350   46.1280 N   0  0  0  0  0  0  0  0  0  0  0  0
   30.9920   27.1910   47.2290 C   0  0  0  0  0  0  0  0  0  0  0  0
   29.6970   26.7830   47.5520 C   0  0  0  0  0  0  0  0  0  0  0  0
   29.1700   26.9750   48.7770 N   0  0  0  0  0  0  0  0  0  0  0  0
   29.9330   27.5810   49.7010 C   0  0  0  0  0  0  0  0  0  0  0  0
   31.1900   27.9880   49.4200 N   0  0  0  0  0  0  0  0  0  0  0  0
   31.7270   27.8050   48.2150 C   0  0  0  0  0  0  0  0  0  0  0  0
   37.1000   30.7330   50.5450 C   0  0  0  0  0  0  0  0  0  0  0  0
   38.3440   30.4760   50.0370 F   0  0  0  0  0  0  0  0  0  0  0  0
   37.1240   30.3990   51.8800 F   0  0  0  0  0  0  0  0  0  0  0  0
   36.9120   32.1140   50.4660 F   0  0  0  0  0  0  0  0  0  0  0  0
   35.2175   28.9364   51.5226 H   0  0  0  0  0  0  0  0  0  0  0  0
   36.4953   30.9631   47.9384 H   0  0  0  0  0  0  0  0  0  0  0  0
   33.7777   27.8186   45.7700 H   0  0  0  0  0  0  0  0  0  0  0  0
   29.0869   26.2887   46.7816 H   0  0  0  0  0  0  0  0  0  0  0  0
   29.5255   27.7497   50.7087 H   0  0  0  0  0  0  0  0  0  0  0  0
  2  1  2  0
  2 16  1  0
  3  2  1  0
  4  5  1  0
  4  3  2  0
  5  6  2  0
  6  1  1  0
  7 15  1  0
  7  5  1  0
  8  7  1  0
  9  8  2  0
  9 10  1  0
 10 11  2  0
 10 15  1  0
 11 12  1  0
 12 13  2  0
 14 13  1  0
 15 14  2  0
 16 18  1  0
 17 16  1  0
 19 16  1  0
  1 20  1  0
  3 21  1  0
  8 22  1  0
 11 23  1  0
 13 24  1  0
M  ISO  5  20  14  21  14  22  14  23  14  24  14
M  END
>  <minimizedAffinity>  (1) 
-5.82287312

>  <minimizedRMSD>  (1) 
0.830054164

$$$$
