
     RDKit          3D

 26 27  0  0  0  0  0  0  0  0999 V2000
   35.6250   29.2080   50.4530 C   0  0  0  0  0  0  0  0  0  0  0  0
   36.1400   30.2740   49.7060 C   0  0  0  0  0  0  0  0  0  0  0  0
   35.5280   30.5550   48.4710 C   0  0  0  0  0  0  0  0  0  0  0  0
   34.4700   29.7790   48.0650 N   0  0  0  0  0  0  0  0  0  0  0  0
   34.0130   28.7620   48.8260 C   0  0  0  0  0  0  0  0  0  0  0  0
   34.5880   28.4930   49.9940 N   0  0  0  0  0  0  0  0  0  0  0  0
   32.9140   28.0660   48.2560 N   0  0  0  0  0  0  0  0  0  0  0  0
   31.8820   27.9320   49.1070 C   0  0  0  0  0  0  0  0  0  0  0  0
   30.7310   27.2750   48.7020 C   0  0  0  0  0  0  0  0  0  0  0  0
   29.5680   27.1030   49.6080 C   0  0  0  0  0  0  0  0  0  0  0  0
   30.7170   26.7830   47.4070 C   0  0  0  0  0  0  0  0  0  0  0  0
   29.6910   26.1850   47.0120 O   0  0  0  0  0  0  0  0  0  0  0  0
   31.7700   26.9470   46.6100 N   0  0  0  0  0  0  0  0  0  0  0  0
   32.8960   27.5870   47.0000 C   0  0  0  0  0  0  0  0  0  0  0  0
   33.9250   27.7780   46.3030 O   0  0  0  0  0  0  0  0  0  0  0  0
   37.2920   31.1240   50.1390 C   0  0  0  0  0  0  0  0  0  0  0  0
   38.3440   31.1130   49.2960 F   0  0  0  0  0  0  0  0  0  0  0  0
   37.7360   30.7290   51.3880 F   0  0  0  0  0  0  0  0  0  0  0  0
   36.8530   32.4510   50.2550 F   0  0  0  0  0  0  0  0  0  0  0  0
   36.0748   28.9550   51.4244 H   0  0  0  0  0  0  0  0  0  0  0  0
   35.8902   31.3813   47.8418 H   0  0  0  0  0  0  0  0  0  0  0  0
   31.9512   28.3438   50.1247 H   0  0  0  0  0  0  0  0  0  0  0  0
   29.9069   27.1531   50.6533 H   0  0  0  0  0  0  0  0  0  0  0  0
   28.8362   27.9027   49.4211 H   0  0  0  0  0  0  0  0  0  0  0  0
   29.0990   26.1257   49.4211 H   0  0  0  0  0  0  0  0  0  0  0  0
   31.7256   26.5695   45.6527 H   0  0  0  0  0  0  0  0  0  0  0  0
  2 16  1  0
  2  1  2  0
  3  2  1  0
  4  3  2  0
  4  5  1  0
  5  6  2  0
  6  1  1  0
  7  5  1  0
  7  8  1  0
  9  8  2  0
  9 10  1  0
 11  9  1  0
 12 11  2  0
 13 14  1  0
 13 11  1  0
 14  7  1  0
 15 14  2  0
 16 19  1  0
 16 18  1  0
 17 16  1  0
  1 20  1  0
  3 21  1  0
  8 22  1  0
 10 23  1  0
 10 24  1  0
 10 25  1  0
 13 26  1  0
M  ISO  7  20  14  21  14  22  14  23   8  24   8  25   8  26   9
M  END
>  <minimizedAffinity>  (1) 
-5.68240023

>  <minimizedRMSD>  (1) 
1.34990203

$$$$
