
     RDKit          3D

 24 25  0  0  0  0  0  0  0  0999 V2000
   35.3820   29.1390   50.3630 C   0  0  0  0  0  0  0  0  0  0  0  0
   36.1320   30.1660   49.7740 C   0  0  0  0  0  0  0  0  0  0  0  0
   35.8080   30.5030   48.4630 C   0  0  0  0  0  0  0  0  0  0  0  0
   34.7960   29.8360   47.8190 N   0  0  0  0  0  0  0  0  0  0  0  0
   34.1060   28.8500   48.4430 C   0  0  0  0  0  0  0  0  0  0  0  0
   34.4090   28.5190   49.7020 N   0  0  0  0  0  0  0  0  0  0  0  0
   33.0520   28.1380   47.8060 N   0  0  0  0  0  0  0  0  0  0  0  0
   32.1040   27.6920   48.6680 C   0  0  0  0  0  0  0  0  0  0  0  0
   31.0100   26.9830   48.2300 C   0  0  0  0  0  0  0  0  0  0  0  0
   30.9030   26.7360   46.8680 C   0  0  0  0  0  0  0  0  0  0  0  0
   29.7940   26.0100   46.3760 N   0  0  0  0  0  0  0  0  0  0  0  0
   31.8570   27.1930   46.0510 N   0  0  0  0  0  0  0  0  0  0  0  0
   32.9250   27.8860   46.4850 C   0  0  0  0  0  0  0  0  0  0  0  0
   33.8530   28.3400   45.7600 O   0  0  0  0  0  0  0  0  0  0  0  0
   37.2310   30.8900   50.4740 C   0  0  0  0  0  0  0  0  0  0  0  0
   38.4670   30.6560   49.9560 F   0  0  0  0  0  0  0  0  0  0  0  0
   37.2690   30.5780   51.8030 F   0  0  0  0  0  0  0  0  0  0  0  0
   37.0080   32.2620   50.3630 F   0  0  0  0  0  0  0  0  0  0  0  0
   35.6037   28.8384   51.3976 H   0  0  0  0  0  0  0  0  0  0  0  0
   36.3608   31.3007   47.9451 H   0  0  0  0  0  0  0  0  0  0  0  0
   32.2129   27.9024   49.7422 H   0  0  0  0  0  0  0  0  0  0  0  0
   30.2457   26.6238   48.9349 H   0  0  0  0  0  0  0  0  0  0  0  0
   29.7077   25.8228   45.3668 H   0  0  0  0  0  0  0  0  0  0  0  0
   29.0724   25.6683   47.0267 H   0  0  0  0  0  0  0  0  0  0  0  0
  2  1  2  0
  2 15  1  0
  3  2  1  0
  4  5  1  0
  4  3  2  0
  5  6  2  0
  6  1  1  0
  7  5  1  0
  7  8  1  0
  9  8  2  0
 10  9  1  0
 11 10  1  0
 12 13  1  0
 12 10  2  0
 13  7  1  0
 14 13  2  0
 15 17  1  0
 16 15  1  0
 18 15  1  0
  1 19  1  0
  3 20  1  0
  8 21  1  0
  9 22  1  0
 11 23  1  0
 11 24  1  0
M  ISO  4  19  14  20  14  21  14  22  14
M  END
>  <minimizedAffinity>  (1) 
-5.50931692

>  <minimizedRMSD>  (1) 
0.66800034

$$$$
