
     RDKit          3D

 23 24  0  0  0  0  0  0  0  0999 V2000
   35.4170   29.0480   50.3850 C   0  0  0  0  0  0  0  0  0  0  0  0
   36.0750   30.1550   49.8030 C   0  0  0  0  0  0  0  0  0  0  0  0
   35.6470   30.5690   48.5390 C   0  0  0  0  0  0  0  0  0  0  0  0
   34.6270   29.9070   47.9170 N   0  0  0  0  0  0  0  0  0  0  0  0
   34.0250   28.8390   48.5290 C   0  0  0  0  0  0  0  0  0  0  0  0
   34.4190   28.4310   49.7310 N   0  0  0  0  0  0  0  0  0  0  0  0
   32.9680   28.1190   47.9320 N   0  0  0  0  0  0  0  0  0  0  0  0
   31.9370   27.6850   48.6670 C   0  0  0  0  0  0  0  0  0  0  0  0
   30.9150   26.9770   48.0330 C   0  0  0  0  0  0  0  0  0  0  0  0
   30.9630   26.7270   46.6720 C   0  0  0  0  0  0  0  0  0  0  0  0
   29.9930   26.0780   46.1840 O   0  0  0  0  0  0  0  0  0  0  0  0
   32.0150   27.1780   45.9660 N   0  0  0  0  0  0  0  0  0  0  0  0
   32.9840   27.8580   46.6110 C   0  0  0  0  0  0  0  0  0  0  0  0
   33.9510   28.2570   45.8830 O   0  0  0  0  0  0  0  0  0  0  0  0
   37.1900   30.8780   50.4810 C   0  0  0  0  0  0  0  0  0  0  0  0
   38.4160   30.6120   49.9350 F   0  0  0  0  0  0  0  0  0  0  0  0
   37.2550   30.5570   51.8110 F   0  0  0  0  0  0  0  0  0  0  0  0
   36.9870   32.2420   50.3630 F   0  0  0  0  0  0  0  0  0  0  0  0
   35.7237   28.6897   51.3788 H   0  0  0  0  0  0  0  0  0  0  0  0
   36.1301   31.4256   48.0462 H   0  0  0  0  0  0  0  0  0  0  0  0
   31.8961   27.8823   49.7484 H   0  0  0  0  0  0  0  0  0  0  0  0
   30.0604   26.6129   48.6221 H   0  0  0  0  0  0  0  0  0  0  0  0
   32.0791   27.0072   44.9523 H   0  0  0  0  0  0  0  0  0  0  0  0
  2  1  2  0
  2 15  1  0
  3  2  1  0
  4  5  1  0
  4  3  2  0
  5  6  2  0
  6  1  1  0
  7  5  1  0
  7  8  1  0
  9  8  2  0
 10  9  1  0
 11 10  2  0
 12 13  1  0
 12 10  1  0
 13  7  1  0
 14 13  2  0
 15 17  1  0
 16 15  1  0
 18 15  1  0
  1 19  1  0
  3 20  1  0
  8 21  1  0
  9 22  1  0
 12 23  1  0
M  ISO  5  19  14  20  14  21  14  22  14  23   9
M  END
>  <minimizedAffinity>  (1) 
-5.43784428

>  <minimizedRMSD>  (1) 
0.798596203

$$$$
