
     RDKit          3D

 28 29  0  0  0  0  0  0  0  0999 V2000
   35.3950   29.1460   50.4230 C   0  0  0  0  0  0  0  0  0  0  0  0
   36.1480   30.1740   49.8160 C   0  0  0  0  0  0  0  0  0  0  0  0
   35.7760   30.5630   48.5340 C   0  0  0  0  0  0  0  0  0  0  0  0
   34.7180   29.9510   47.9190 N   0  0  0  0  0  0  0  0  0  0  0  0
   34.0260   28.9630   48.5510 C   0  0  0  0  0  0  0  0  0  0  0  0
   34.3630   28.5740   49.7760 N   0  0  0  0  0  0  0  0  0  0  0  0
   32.9490   28.3960   47.8250 N   0  0  0  0  0  0  0  0  0  0  0  0
   32.6490   28.8800   46.4920 C   0  0  0  0  0  0  0  0  0  0  0  0
   31.9610   27.7910   45.6930 C   0  0  0  0  0  0  0  0  0  0  0  0
   30.5670   27.6480   46.3200 C   0  0  0  0  0  0  0  0  0  0  0  0
   30.6660   27.7100   47.8280 C   0  0  0  0  0  0  0  0  0  0  0  0
   32.0860   27.3530   48.2820 C   0  0  0  0  0  0  0  0  0  0  0  0
   37.2970   30.8380   50.4850 C   0  0  0  0  0  0  0  0  0  0  0  0
   38.5090   30.5220   49.9660 F   0  0  0  0  0  0  0  0  0  0  0  0
   37.3260   30.5480   51.8330 F   0  0  0  0  0  0  0  0  0  0  0  0
   37.1400   32.2250   50.3610 F   0  0  0  0  0  0  0  0  0  0  0  0
   35.6549   28.8084   51.4371 H   0  0  0  0  0  0  0  0  0  0  0  0
   36.3302   31.3597   48.0162 H   0  0  0  0  0  0  0  0  0  0  0  0
   31.9867   29.7555   46.5618 H   0  0  0  0  0  0  0  0  0  0  0  0
   33.5855   29.1629   45.9890 H   0  0  0  0  0  0  0  0  0  0  0  0
   32.5176   26.8455   45.7714 H   0  0  0  0  0  0  0  0  0  0  0  0
   31.9059   28.0400   44.6230 H   0  0  0  0  0  0  0  0  0  0  0  0
   29.9224   28.4651   45.9639 H   0  0  0  0  0  0  0  0  0  0  0  0
   30.1385   26.6782   46.0271 H   0  0  0  0  0  0  0  0  0  0  0  0
   30.4218   28.7278   48.1663 H   0  0  0  0  0  0  0  0  0  0  0  0
   29.9587   26.9888   48.2634 H   0  0  0  0  0  0  0  0  0  0  0  0
   32.3915   26.3915   47.8436 H   0  0  0  0  0  0  0  0  0  0  0  0
   32.1341   27.2572   49.3768 H   0  0  0  0  0  0  0  0  0  0  0  0
  2  1  2  0
  2 13  1  0
  3  2  1  0
  4  3  2  0
  4  5  1  0
  5  6  2  0
  6  1  1  0
  7 12  1  0
  7  5  1  0
  8  7  1  0
  9 10  1  0
  9  8  1  0
 10 11  1  0
 11 12  1  0
 13 15  1  0
 14 13  1  0
 16 13  1  0
  1 17  1  0
  3 18  1  0
  8 19  1  0
  8 20  1  0
  9 21  1  0
  9 22  1  0
 10 23  1  0
 10 24  1  0
 11 25  1  0
 11 26  1  0
 12 27  1  0
 12 28  1  0
M  ISO  8  17  14  18  14  19  13  20  13  21  13  22  13  23  13  24  13
M  ISO  4  25  13  26  13  27  13  28  13
M  END
>  <minimizedAffinity>  (1) 
-5.1530242

>  <minimizedRMSD>  (1) 
0.803947866

$$$$
