
     RDKit          3D

 20 21  0  0  0  0  0  0  0  0999 V2000
   35.2540   29.2490   50.4290 C   0  0  0  0  0  0  0  0  0  0  0  0
   36.1020   30.1800   49.8130 C   0  0  0  0  0  0  0  0  0  0  0  0
   35.8290   30.4910   48.4780 C   0  0  0  0  0  0  0  0  0  0  0  0
   34.7680   29.8820   47.8480 N   0  0  0  0  0  0  0  0  0  0  0  0
   33.9870   28.9910   48.4970 C   0  0  0  0  0  0  0  0  0  0  0  0
   34.2410   28.6840   49.7860 N   0  0  0  0  0  0  0  0  0  0  0  0
   32.8870   28.3540   47.8590 N   0  0  0  0  0  0  0  0  0  0  0  0
   32.1010   27.5580   48.6020 N   0  0  0  0  0  0  0  0  0  0  0  0
   31.1240   27.0550   47.8180 C   0  0  0  0  0  0  0  0  0  0  0  0
   31.3440   27.5770   46.5500 C   0  0  0  0  0  0  0  0  0  0  0  0
   32.4620   28.4010   46.5830 C   0  0  0  0  0  0  0  0  0  0  0  0
   37.2500   30.8400   50.4910 C   0  0  0  0  0  0  0  0  0  0  0  0
   38.4630   30.4970   49.9770 F   0  0  0  0  0  0  0  0  0  0  0  0
   37.2690   30.5410   51.8290 F   0  0  0  0  0  0  0  0  0  0  0  0
   37.1260   32.2170   50.3580 F   0  0  0  0  0  0  0  0  0  0  0  0
   35.4347   28.9783   51.4798 H   0  0  0  0  0  0  0  0  0  0  0  0
   36.4557   31.2150   47.9366 H   0  0  0  0  0  0  0  0  0  0  0  0
   30.3178   26.3710   48.1216 H   0  0  0  0  0  0  0  0  0  0  0  0
   30.7304   27.3707   45.6607 H   0  0  0  0  0  0  0  0  0  0  0  0
   32.9029   28.9673   45.7494 H   0  0  0  0  0  0  0  0  0  0  0  0
  2  1  2  0
  2 12  1  0
  3  2  1  0
  4  3  2  0
  4  5  1  0
  5  6  2  0
  6  1  1  0
  7  5  1  0
  7  8  1  0
  9  8  2  0
 10 11  2  0
 10  9  1  0
 11  7  1  0
 12 14  1  0
 13 12  1  0
 15 12  1  0
  1 16  1  0
  3 17  1  0
  9 18  1  0
 10 19  1  0
 11 20  1  0
M  ISO  5  16  14  17  14  18  14  19  14  20  14
M  END
>  <minimizedAffinity>  (1) 
-5.0092454

>  <minimizedRMSD>  (1) 
0.754772723

$$$$
