
     RDKit          3D

 20 21  0  0  0  0  0  0  0  0999 V2000
   35.4710   29.0800   50.4600 C   0  0  0  0  0  0  0  0  0  0  0  0
   36.2510   30.0680   49.8420 C   0  0  0  0  0  0  0  0  0  0  0  0
   36.0560   30.2670   48.4660 C   0  0  0  0  0  0  0  0  0  0  0  0
   35.1380   29.5120   47.7930 N   0  0  0  0  0  0  0  0  0  0  0  0
   34.4070   28.5620   48.4480 C   0  0  0  0  0  0  0  0  0  0  0  0
   34.5860   28.3700   49.7510 N   0  0  0  0  0  0  0  0  0  0  0  0
   33.4150   27.7340   47.7690 C   0  0  0  0  0  0  0  0  0  0  0  0
   33.3320   26.3770   47.5270 C   0  0  0  0  0  0  0  0  0  0  0  0
   32.1390   26.2010   46.8290 C   0  0  0  0  0  0  0  0  0  0  0  0
   31.5410   27.3950   46.6640 N   0  0  0  0  0  0  0  0  0  0  0  0
   32.3220   28.3130   47.2370 N   0  0  0  0  0  0  0  0  0  0  0  0
   37.2590   30.9040   50.5570 C   0  0  0  0  0  0  0  0  0  0  0  0
   38.5220   30.8000   50.0610 F   0  0  0  0  0  0  0  0  0  0  0  0
   37.3110   30.5550   51.8940 F   0  0  0  0  0  0  0  0  0  0  0  0
   36.8880   32.2430   50.4780 F   0  0  0  0  0  0  0  0  0  0  0  0
   35.5877   28.8871   51.5366 H   0  0  0  0  0  0  0  0  0  0  0  0
   36.6413   31.0294   47.9310 H   0  0  0  0  0  0  0  0  0  0  0  0
   34.0535   25.6009   47.8222 H   0  0  0  0  0  0  0  0  0  0  0  0
   31.7477   25.2378   46.4695 H   0  0  0  0  0  0  0  0  0  0  0  0
   30.6462   27.5684   46.1843 H   0  0  0  0  0  0  0  0  0  0  0  0
  2  1  2  0
  2 12  1  0
  3  2  1  0
  4  5  1  0
  4  3  2  0
  5  6  2  0
  6  1  1  0
  7  5  1  0
  8  7  1  0
  9  8  2  0
 10  9  1  0
 10 11  1  0
 11  7  2  0
 12 14  1  0
 13 12  1  0
 15 12  1  0
  1 16  1  0
  3 17  1  0
  8 18  1  0
  9 19  1  0
 10 20  1  0
M  ISO  5  16  14  17  14  18  14  19  14  20   9
M  END
>  <minimizedAffinity>  (1) 
-4.76923037

>  <minimizedRMSD>  (1) 
0.448193759

$$$$
