
     RDKit          3D

 19 20  0  0  0  0  0  0  0  0999 V2000
   35.3910   29.1320   50.4000 C   0  0  0  0  0  0  0  0  0  0  0  0
   36.1290   30.1570   49.8040 C   0  0  0  0  0  0  0  0  0  0  0  0
   35.7900   30.5230   48.4860 C   0  0  0  0  0  0  0  0  0  0  0  0
   34.7630   29.8620   47.8660 N   0  0  0  0  0  0  0  0  0  0  0  0
   34.0810   28.8720   48.4970 C   0  0  0  0  0  0  0  0  0  0  0  0
   34.4010   28.5220   49.7440 N   0  0  0  0  0  0  0  0  0  0  0  0
   32.9790   28.1800   47.7960 C   0  0  0  0  0  0  0  0  0  0  0  0
   32.6790   28.4360   46.5110 C   0  0  0  0  0  0  0  0  0  0  0  0
   31.2630   27.3170   46.1740 S   0  0  0  0  0  0  0  0  0  0  0  0
   31.3520   26.6640   47.9750 C   0  0  0  0  0  0  0  0  0  0  0  0
   32.2430   27.2770   48.4120 N   0  0  0  0  0  0  0  0  0  0  0  0
   37.2430   30.8800   50.4660 C   0  0  0  0  0  0  0  0  0  0  0  0
   38.4780   30.5890   49.9570 F   0  0  0  0  0  0  0  0  0  0  0  0
   37.2900   30.5820   51.8090 F   0  0  0  0  0  0  0  0  0  0  0  0
   37.0630   32.2480   50.3480 F   0  0  0  0  0  0  0  0  0  0  0  0
   35.6296   28.8218   51.4280 H   0  0  0  0  0  0  0  0  0  0  0  0
   36.3384   31.3224   47.9663 H   0  0  0  0  0  0  0  0  0  0  0  0
   33.1653   29.1458   45.8256 H   0  0  0  0  0  0  0  0  0  0  0  0
   30.7248   25.9069   48.4684 H   0  0  0  0  0  0  0  0  0  0  0  0
  2  1  2  0
  2 12  1  0
  3  2  1  0
  4  3  2  0
  4  5  1  0
  5  6  2  0
  6  1  1  0
  7 11  1  0
  7  5  1  0
  8  7  2  0
  9  8  1  0
  9 10  1  0
 10 11  2  0
 12 14  1  0
 13 12  1  0
 15 12  1  0
  1 16  1  0
  3 17  1  0
  8 18  1  0
 10 19  1  0
M  ISO  4  16  14  17  14  18  14  19  14
M  END
>  <minimizedAffinity>  (1) 
-4.76291418

>  <minimizedRMSD>  (1) 
0.644703448

$$$$
