
     RDKit          3D

 18 19  0  0  0  0  0  0  0  0999 V2000
   35.3600   29.1490   50.4150 C   0  0  0  0  0  0  0  0  0  0  0  0
   36.1270   30.1540   49.8070 C   0  0  0  0  0  0  0  0  0  0  0  0
   35.8010   30.5260   48.4990 C   0  0  0  0  0  0  0  0  0  0  0  0
   34.7450   29.8890   47.8750 N   0  0  0  0  0  0  0  0  0  0  0  0
   34.0410   28.9270   48.5110 C   0  0  0  0  0  0  0  0  0  0  0  0
   34.3540   28.5730   49.7620 N   0  0  0  0  0  0  0  0  0  0  0  0
   32.9300   28.2750   47.8210 C   0  0  0  0  0  0  0  0  0  0  0  0
   32.2800   27.1710   48.2390 N   0  0  0  0  0  0  0  0  0  0  0  0
   31.3520   26.8710   47.3830 O   0  0  0  0  0  0  0  0  0  0  0  0
   31.3480   27.7460   46.3820 C   0  0  0  0  0  0  0  0  0  0  0  0
   32.3440   28.6290   46.6620 N   0  0  0  0  0  0  0  0  0  0  0  0
   37.2680   30.8420   50.4790 C   0  0  0  0  0  0  0  0  0  0  0  0
   38.4850   30.5520   49.9700 F   0  0  0  0  0  0  0  0  0  0  0  0
   37.2980   30.5520   51.8230 F   0  0  0  0  0  0  0  0  0  0  0  0
   37.1030   32.2300   50.3450 F   0  0  0  0  0  0  0  0  0  0  0  0
   35.5928   28.8337   51.4428 H   0  0  0  0  0  0  0  0  0  0  0  0
   36.3725   31.3084   47.9782 H   0  0  0  0  0  0  0  0  0  0  0  0
   30.6786   27.7542   45.5092 H   0  0  0  0  0  0  0  0  0  0  0  0
  2  1  2  0
  2 12  1  0
  3  2  1  0
  4  3  2  0
  4  5  1  0
  5  6  2  0
  6  1  1  0
  7  8  2  0
  7  5  1  0
  9  8  1  0
 10 11  2  0
 10  9  1  0
 11  7  1  0
 12 14  1  0
 13 12  1  0
 15 12  1  0
  1 16  1  0
  3 17  1  0
 10 18  1  0
M  ISO  3  16  14  17  14  18  14
M  END
>  <minimizedAffinity>  (1) 
-4.69743061

>  <minimizedRMSD>  (1) 
0.687824845

$$$$
