
     RDKit          3D

 29 30  0  0  0  0  0  0  0  0999 V2000
   32.8500   27.8550   48.5740 C   0  0  0  0  0  0  0  0  0  0  0  0
   31.7390   28.2300   49.2660 C   0  0  0  0  0  0  0  0  0  0  0  0
   30.5190   27.5840   49.1920 C   0  0  0  0  0  0  0  0  0  0  0  0
   30.4710   26.4900   48.3460 C   0  0  0  0  0  0  0  0  0  0  0  0
   31.5700   26.0740   47.6270 C   0  0  0  0  0  0  0  0  0  0  0  0
   32.7650   26.7560   47.7360 C   0  0  0  0  0  0  0  0  0  0  0  0
   36.1700   28.9570   49.6840 C   0  0  0  0  0  0  0  0  0  0  0  0
   36.4540   30.0090   48.7870 C   0  0  0  0  0  0  0  0  0  0  0  0
   35.4930   30.3050   47.8290 C   0  0  0  0  0  0  0  0  0  0  0  0
   34.3280   29.5730   47.7960 N   0  0  0  0  0  0  0  0  0  0  0  0
   34.1100   28.5700   48.6870 C   0  0  0  0  0  0  0  0  0  0  0  0
   35.0220   28.2810   49.6060 N   0  0  0  0  0  0  0  0  0  0  0  0
   37.7130   30.7910   48.8310 C   0  0  0  0  0  0  0  0  0  0  0  0
   38.5350   30.5690   47.7620 F   0  0  0  0  0  0  0  0  0  0  0  0
   38.4440   30.5100   49.9690 F   0  0  0  0  0  0  0  0  0  0  0  0
   37.4160   32.1590   48.8450 F   0  0  0  0  0  0  0  0  0  0  0  0
   33.9620   26.3560   46.9940 C   0  0  0  0  0  0  0  0  0  0  0  0
   34.1000   24.8920   46.7180 C   0  0  0  0  0  0  0  0  0  0  0  0
   31.8174   29.1051   49.9279 H   0  0  0  0  0  0  0  0  0  0  0  0
   29.6434   27.9179   49.7681 H   0  0  0  0  0  0  0  0  0  0  0  0
   29.5264   25.9355   48.2445 H   0  0  0  0  0  0  0  0  0  0  0  0
   31.4951   25.1981   46.9658 H   0  0  0  0  0  0  0  0  0  0  0  0
   36.9049   28.6907   50.4579 H   0  0  0  0  0  0  0  0  0  0  0  0
   35.6611   31.1155   47.1046 H   0  0  0  0  0  0  0  0  0  0  0  0
   33.9512   26.8817   46.0278 H   0  0  0  0  0  0  0  0  0  0  0  0
   34.8138   26.6194   47.6382 H   0  0  0  0  0  0  0  0  0  0  0  0
   34.1518   24.3428   47.6697 H   0  0  0  0  0  0  0  0  0  0  0  0
   33.2307   24.5442   46.1407 H   0  0  0  0  0  0  0  0  0  0  0  0
   35.0190   24.7127   46.1407 H   0  0  0  0  0  0  0  0  0  0  0  0
  1 11  1  0
  1  2  2  0
  3  2  1  0
  4  3  2  0
  5  6  2  0
  5  4  1  0
  6  1  1  0
  8 13  1  0
  8  7  2  0
  9  8  1  0
 10  9  2  0
 10 11  1  0
 11 12  2  0
 12  7  1  0
 13 16  1  0
 13 15  1  0
 14 13  1  0
 17  6  1  0
 18 17  1  0
  2 19  1  0
  3 20  1  0
  4 21  1  0
  5 22  1  0
  7 23  1  0
  9 24  1  0
 17 25  1  0
 17 26  1  0
 18 27  1  0
 18 28  1  0
 18 29  1  0
M  ISO  8  19  14  20  14  21  14  22  14  23  14  24  14  25   8  26   8
M  ISO  3  27   8  28   8  29   8
M  END
>  <minimizedAffinity>  (1) 
-4.99440813

>  <minimizedRMSD>  (1) 
1.15647018

$$$$
