
     RDKit          3D

 43 46  0  0  0  0  0  0  0  0999 V2000
   32.8080   27.8090   48.5360 C   0  0  0  0  0  0  0  0  0  0  0  0
   31.7140   28.2050   49.2340 C   0  0  0  0  0  0  0  0  0  0  0  0
   30.4860   27.5620   49.1800 C   0  0  0  0  0  0  0  0  0  0  0  0
   30.4250   26.4590   48.3510 C   0  0  0  0  0  0  0  0  0  0  0  0
   31.5080   26.0340   47.6340 C   0  0  0  0  0  0  0  0  0  0  0  0
   32.7120   26.7070   47.7200 C   0  0  0  0  0  0  0  0  0  0  0  0
   36.1320   28.9180   49.6270 C   0  0  0  0  0  0  0  0  0  0  0  0
   36.4440   29.9300   48.6870 C   0  0  0  0  0  0  0  0  0  0  0  0
   35.4870   30.1960   47.7010 C   0  0  0  0  0  0  0  0  0  0  0  0
   34.3130   29.4810   47.6850 N   0  0  0  0  0  0  0  0  0  0  0  0
   34.0800   28.5180   48.6250 C   0  0  0  0  0  0  0  0  0  0  0  0
   34.9770   28.2550   49.5650 N   0  0  0  0  0  0  0  0  0  0  0  0
   37.7120   30.6990   48.7070 C   0  0  0  0  0  0  0  0  0  0  0  0
   38.5000   30.4890   47.6100 F   0  0  0  0  0  0  0  0  0  0  0  0
   38.4560   30.4000   49.8280 F   0  0  0  0  0  0  0  0  0  0  0  0
   37.4240   32.0710   48.7480 F   0  0  0  0  0  0  0  0  0  0  0  0
   33.9000   26.2780   46.9590 C   0  0  0  0  0  0  0  0  0  0  0  0
   33.7570   25.0370   46.1580 C   0  0  0  0  0  0  0  0  0  0  0  0
   34.5640   23.9440   46.7470 C   0  0  0  0  0  0  0  0  0  0  0  0
   34.1990   23.3250   47.9070 N   0  0  0  0  0  0  0  0  0  0  0  0
   34.9910   22.3470   48.4080 C   0  0  0  0  0  0  0  0  0  0  0  0
   36.1340   21.9230   47.8440 N   0  0  0  0  0  0  0  0  0  0  0  0
   36.5360   22.5120   46.6860 C   0  0  0  0  0  0  0  0  0  0  0  0
   37.7090   22.1200   46.0370 C   0  0  0  0  0  0  0  0  0  0  0  0
   38.1230   22.6950   44.8690 C   0  0  0  0  0  0  0  0  0  0  0  0
   37.3500   23.6950   44.3200 C   0  0  0  0  0  0  0  0  0  0  0  0
   36.1940   24.0670   44.9780 C   0  0  0  0  0  0  0  0  0  0  0  0
   35.7480   23.5150   46.1490 C   0  0  0  0  0  0  0  0  0  0  0  0
   31.8064   29.0892   49.8818 H   0  0  0  0  0  0  0  0  0  0  0  0
   29.6175   27.9080   49.7596 H   0  0  0  0  0  0  0  0  0  0  0  0
   29.4775   25.9068   48.2654 H   0  0  0  0  0  0  0  0  0  0  0  0
   31.4209   25.1506   46.9843 H   0  0  0  0  0  0  0  0  0  0  0  0
   36.8538   28.6751   50.4207 H   0  0  0  0  0  0  0  0  0  0  0  0
   35.6730   30.9720   46.9439 H   0  0  0  0  0  0  0  0  0  0  0  0
   34.1681   27.0923   46.2698 H   0  0  0  0  0  0  0  0  0  0  0  0
   34.6657   26.0513   47.7155 H   0  0  0  0  0  0  0  0  0  0  0  0
   34.1007   25.2276   45.1306 H   0  0  0  0  0  0  0  0  0  0  0  0
   32.6990   24.7359   46.1541 H   0  0  0  0  0  0  0  0  0  0  0  0
   34.6752   21.8649   49.3449 H   0  0  0  0  0  0  0  0  0  0  0  0
   38.3204   21.3209   46.4816 H   0  0  0  0  0  0  0  0  0  0  0  0
   39.0514   22.3675   44.3784 H   0  0  0  0  0  0  0  0  0  0  0  0
   37.6463   24.1850   43.3808 H   0  0  0  0  0  0  0  0  0  0  0  0
   35.5866   24.8660   44.5279 H   0  0  0  0  0  0  0  0  0  0  0  0
  1 11  1  0
  1  2  2  0
  3  2  1  0
  4  3  2  0
  5  6  2  0
  5  4  1  0
  6  1  1  0
  8 13  1  0
  8  7  2  0
  9  8  1  0
 10  9  2  0
 10 11  1  0
 11 12  2  0
 12  7  1  0
 13 16  1  0
 13 15  1  0
 14 13  1  0
 17  6  1  0
 18 19  1  0
 18 17  1  0
 19 20  2  0
 20 21  1  0
 22 21  2  0
 23 22  1  0
 24 23  2  0
 25 24  1  0
 26 25  2  0
 26 27  1  0
 27 28  2  0
 28 23  1  0
 28 19  1  0
  2 29  1  0
  3 30  1  0
  4 31  1  0
  5 32  1  0
  7 33  1  0
  9 34  1  0
 17 35  1  0
 17 36  1  0
 18 37  1  0
 18 38  1  0
 21 39  1  0
 24 40  1  0
 25 41  1  0
 26 42  1  0
 27 43  1  0
M  ISO  8  29  14  30  14  31  14  32  14  33  14  34  14  35   8  36   8
M  ISO  7  37   8  38   8  39  14  40  14  41  14  42  14  43  14
M  END
>  <minimizedAffinity>  (1) 
-5.74688053

>  <minimizedRMSD>  (1) 
2.25477719

$$$$
