
     RDKit          3D

 34 36  0  0  0  0  0  0  0  0999 V2000
   31.6750   26.3890   47.7490 C   0  0  0  0  0  0  0  0  0  0  0  0
   31.4830   25.2310   47.0610 C   0  0  0  0  0  0  0  0  0  0  0  0
   32.4900   24.4520   46.5440 C   0  0  0  0  0  0  0  0  0  0  0  0
   33.7790   24.9190   46.7600 C   0  0  0  0  0  0  0  0  0  0  0  0
   34.0260   26.0790   47.4450 C   0  0  0  0  0  0  0  0  0  0  0  0
   32.9810   26.8320   47.9500 C   0  0  0  0  0  0  0  0  0  0  0  0
   29.1240   27.8040   49.9740 C   0  0  0  0  0  0  0  0  0  0  0  0
   28.4790   28.7460   49.1340 C   0  0  0  0  0  0  0  0  0  0  0  0
   28.9480   28.8570   47.8390 C   0  0  0  0  0  0  0  0  0  0  0  0
   29.9950   28.0660   47.4300 N   0  0  0  0  0  0  0  0  0  0  0  0
   30.5770   27.1780   48.2770 C   0  0  0  0  0  0  0  0  0  0  0  0
   30.1380   27.0610   49.5210 N   0  0  0  0  0  0  0  0  0  0  0  0
   27.3520   29.5940   49.5830 C   0  0  0  0  0  0  0  0  0  0  0  0
   27.7470   30.7500   50.2110 F   0  0  0  0  0  0  0  0  0  0  0  0
   26.5310   28.9130   50.4620 F   0  0  0  0  0  0  0  0  0  0  0  0
   26.5780   29.9750   48.4850 F   0  0  0  0  0  0  0  0  0  0  0  0
   33.1970   28.0710   48.6850 C   0  0  0  0  0  0  0  0  0  0  0  0
   34.3300   28.9260   48.2110 C   0  0  0  0  0  0  0  0  0  0  0  0
   35.2910   29.1650   49.3110 C   0  0  0  0  0  0  0  0  0  0  0  0
   36.6060   29.3760   49.1080 N   0  0  0  0  0  0  0  0  0  0  0  0
   37.2110   29.5560   50.2470 O   0  0  0  0  0  0  0  0  0  0  0  0
   36.3120   29.4670   51.2220 C   0  0  0  0  0  0  0  0  0  0  0  0
   35.1320   29.2260   50.6440 N   0  0  0  0  0  0  0  0  0  0  0  0
   30.4471   24.8942   46.9076 H   0  0  0  0  0  0  0  0  0  0  0  0
   32.2879   23.5202   45.9954 H   0  0  0  0  0  0  0  0  0  0  0  0
   34.6284   24.3396   46.3690 H   0  0  0  0  0  0  0  0  0  0  0  0
   35.0629   26.4144   47.5947 H   0  0  0  0  0  0  0  0  0  0  0  0
   28.7851   27.6829   51.0134 H   0  0  0  0  0  0  0  0  0  0  0  0
   28.4875   29.5721   47.1415 H   0  0  0  0  0  0  0  0  0  0  0  0
   32.2749   28.6670   48.6183 H   0  0  0  0  0  0  0  0  0  0  0  0
   33.4632   27.7664   49.7079 H   0  0  0  0  0  0  0  0  0  0  0  0
   34.8459   28.4178   47.3830 H   0  0  0  0  0  0  0  0  0  0  0  0
   33.9297   29.8924   47.8705 H   0  0  0  0  0  0  0  0  0  0  0  0
   36.5033   29.5719   52.3001 H   0  0  0  0  0  0  0  0  0  0  0  0
  1  6  1  0
  1 11  1  0
  2  1  2  0
  3  4  2  0
  3  2  1  0
  4  5  1  0
  5  6  2  0
  6 17  1  0
  8 13  1  0
  8  7  2  0
  9  8  1  0
 10  9  2  0
 10 11  1  0
 11 12  2  0
 12  7  1  0
 13 14  1  0
 13 15  1  0
 16 13  1  0
 18 17  1  0
 18 19  1  0
 19 23  1  0
 20 19  2  0
 20 21  1  0
 21 22  1  0
 23 22  2  0
  2 24  1  0
  3 25  1  0
  4 26  1  0
  5 27  1  0
  7 28  1  0
  9 29  1  0
 17 30  1  0
 17 31  1  0
 18 32  1  0
 18 33  1  0
 22 34  1  0
M  ISO  8  24  14  25  14  26  14  27  14  28  14  29  14  30   8  31   8
M  ISO  3  32   8  33   8  34  14
M  END
>  <minimizedAffinity>  (1) 
-5.58452988

>  <minimizedRMSD>  (1) 
6.74943066

$$$$
