
     RDKit          3D

 19 19  0  0  0  0  0  0  0  0999 V2000
   38.7310   32.8110   49.0250 C   0  0  0  0  0  0  0  0  0  0  0  0
   38.8110   32.5890   47.6410 C   0  0  0  0  0  0  0  0  0  0  0  0
   38.4150   31.3350   47.1740 C   0  0  0  0  0  0  0  0  0  0  0  0
   37.9760   30.3970   48.0680 N   0  0  0  0  0  0  0  0  0  0  0  0
   37.9180   30.6660   49.4050 C   0  0  0  0  0  0  0  0  0  0  0  0
   38.2950   31.8640   49.8680 N   0  0  0  0  0  0  0  0  0  0  0  0
   37.4250   29.5710   50.2840 C   0  0  0  0  0  0  0  0  0  0  0  0
   37.3350   30.0300   51.7330 C   0  0  0  0  0  0  0  0  0  0  0  0
   36.0730   29.0480   49.8980 C   0  0  0  0  0  0  0  0  0  0  0  0
   39.0342   33.7883   49.4286 H   0  0  0  0  0  0  0  0  0  0  0  0
   39.1703   33.3698   46.9545 H   0  0  0  0  0  0  0  0  0  0  0  0
   38.4554   31.1034   46.0994 H   0  0  0  0  0  0  0  0  0  0  0  0
   38.1624   28.7638   50.1625 H   0  0  0  0  0  0  0  0  0  0  0  0
   37.5032   29.1720   52.4005 H   0  0  0  0  0  0  0  0  0  0  0  0
   38.0997   30.7976   51.9226 H   0  0  0  0  0  0  0  0  0  0  0  0
   36.3370   30.4520   51.9226 H   0  0  0  0  0  0  0  0  0  0  0  0
   35.4937   28.8239   50.8058 H   0  0  0  0  0  0  0  0  0  0  0  0
   35.5429   29.8060   49.3026 H   0  0  0  0  0  0  0  0  0  0  0  0
   36.1910   28.1306   49.3026 H   0  0  0  0  0  0  0  0  0  0  0  0
  1  6  2  0
  2  1  1  0
  3  2  2  0
  3  4  1  0
  4  5  2  0
  5  6  1  0
  5  7  1  0
  7  8  1  0
  9  7  1  0
  1 10  1  0
  2 11  1  0
  3 12  1  0
  7 13  1  0
  8 14  1  0
  8 15  1  0
  8 16  1  0
  9 17  1  0
  9 18  1  0
  9 19  1  0
M  ISO  8  10  14  11  14  12  14  13   8  14   8  15   8  16   8  17   8
M  ISO  2  18   8  19   8
M  END
>  <minimizedAffinity>  (1) 
-4.14030361

>  <minimizedRMSD>  (1) 
3.10748863

$$$$
