
     RDKit          3D

 36 38  0  0  0  0  0  0  0  0999 V2000
   31.7180   26.3090   47.6370 C   0  0  0  0  0  0  0  0  0  0  0  0
   31.4730   25.1530   46.9410 C   0  0  0  0  0  0  0  0  0  0  0  0
   32.4570   24.3910   46.3410 C   0  0  0  0  0  0  0  0  0  0  0  0
   33.7480   24.8620   46.4790 C   0  0  0  0  0  0  0  0  0  0  0  0
   34.0360   26.0170   47.1700 C   0  0  0  0  0  0  0  0  0  0  0  0
   33.0260   26.7450   47.7510 C   0  0  0  0  0  0  0  0  0  0  0  0
   29.2650   27.6300   50.0150 C   0  0  0  0  0  0  0  0  0  0  0  0
   28.5940   28.6080   49.2500 C   0  0  0  0  0  0  0  0  0  0  0  0
   29.0080   28.7820   47.9370 C   0  0  0  0  0  0  0  0  0  0  0  0
   30.0350   28.0060   47.4540 N   0  0  0  0  0  0  0  0  0  0  0  0
   30.6450   27.0740   48.2480 C   0  0  0  0  0  0  0  0  0  0  0  0
   30.2570   26.9040   49.4940 N   0  0  0  0  0  0  0  0  0  0  0  0
   27.4880   29.4390   49.7830 C   0  0  0  0  0  0  0  0  0  0  0  0
   27.8990   30.6560   50.2660 F   0  0  0  0  0  0  0  0  0  0  0  0
   26.8290   28.8100   50.8120 F   0  0  0  0  0  0  0  0  0  0  0  0
   26.5620   29.7090   48.7770 F   0  0  0  0  0  0  0  0  0  0  0  0
   33.2670   27.9740   48.4980 C   0  0  0  0  0  0  0  0  0  0  0  0
   34.1260   28.9900   47.8090 C   0  0  0  0  0  0  0  0  0  0  0  0
   35.0670   29.5350   48.7340 N   0  0  0  0  0  0  0  0  0  0  0  0
   35.6190   30.7370   48.8200 N   0  0  0  0  0  0  0  0  0  0  0  0
   36.4650   30.8100   49.8660 C   0  0  0  0  0  0  0  0  0  0  0  0
   36.4620   29.5830   50.4970 C   0  0  0  0  0  0  0  0  0  0  0  0
   35.5810   28.8110   49.7670 C   0  0  0  0  0  0  0  0  0  0  0  0
   30.4307   24.8121   46.8553 H   0  0  0  0  0  0  0  0  0  0  0  0
   32.2269   23.4680   45.7886 H   0  0  0  0  0  0  0  0  0  0  0  0
   34.5728   24.2957   46.0218 H   0  0  0  0  0  0  0  0  0  0  0  0
   35.0781   26.3583   47.2573 H   0  0  0  0  0  0  0  0  0  0  0  0
   28.9651   27.4628   51.0600 H   0  0  0  0  0  0  0  0  0  0  0  0
   28.5220   29.5293   47.2926 H   0  0  0  0  0  0  0  0  0  0  0  0
   32.2928   28.4399   48.7072 H   0  0  0  0  0  0  0  0  0  0  0  0
   33.8188   27.6749   49.4014 H   0  0  0  0  0  0  0  0  0  0  0  0
   34.6656   28.5097   46.9795 H   0  0  0  0  0  0  0  0  0  0  0  0
   33.4903   29.7985   47.4189 H   0  0  0  0  0  0  0  0  0  0  0  0
   37.0531   31.6906   50.1638 H   0  0  0  0  0  0  0  0  0  0  0  0
   37.0360   29.2853   51.3869 H   0  0  0  0  0  0  0  0  0  0  0  0
   35.3303   27.7629   49.9875 H   0  0  0  0  0  0  0  0  0  0  0  0
  1  6  1  0
  1 11  1  0
  2  1  2  0
  3  4  2  0
  3  2  1  0
  4  5  1  0
  5  6  2  0
  6 17  1  0
  8 13  1  0
  8  7  2  0
  9  8  1  0
 10  9  2  0
 10 11  1  0
 11 12  2  0
 12  7  1  0
 13 14  1  0
 13 15  1  0
 16 13  1  0
 18 17  1  0
 18 19  1  0
 19 20  1  0
 19 23  1  0
 20 21  2  0
 21 22  1  0
 23 22  2  0
  2 24  1  0
  3 25  1  0
  4 26  1  0
  5 27  1  0
  7 28  1  0
  9 29  1  0
 17 30  1  0
 17 31  1  0
 18 32  1  0
 18 33  1  0
 21 34  1  0
 22 35  1  0
 23 36  1  0
M  ISO  8  24  14  25  14  26  14  27  14  28  14  29  14  30   8  31   8
M  ISO  5  32   8  33   8  34  14  35  14  36  14
M  END
>  <minimizedAffinity>  (1) 
-5.47589731

>  <minimizedRMSD>  (1) 
6.71786261

$$$$
