
     RDKit          3D

 36 38  0  0  0  0  0  0  0  0999 V2000
   31.7710   26.2810   47.6760 C   0  0  0  0  0  0  0  0  0  0  0  0
   31.5120   25.0870   47.0770 C   0  0  0  0  0  0  0  0  0  0  0  0
   32.4860   24.2840   46.5070 C   0  0  0  0  0  0  0  0  0  0  0  0
   33.7750   24.7660   46.5770 C   0  0  0  0  0  0  0  0  0  0  0  0
   34.0740   25.9680   47.1730 C   0  0  0  0  0  0  0  0  0  0  0  0
   33.0690   26.7390   47.7310 C   0  0  0  0  0  0  0  0  0  0  0  0
   29.3700   27.7560   50.0330 C   0  0  0  0  0  0  0  0  0  0  0  0
   28.6870   28.6890   49.2330 C   0  0  0  0  0  0  0  0  0  0  0  0
   29.0750   28.7800   47.9120 C   0  0  0  0  0  0  0  0  0  0  0  0
   30.0860   27.9740   47.4520 N   0  0  0  0  0  0  0  0  0  0  0  0
   30.7130   27.0900   48.2610 C   0  0  0  0  0  0  0  0  0  0  0  0
   30.3420   27.0040   49.5230 N   0  0  0  0  0  0  0  0  0  0  0  0
   27.5960   29.5500   49.7580 C   0  0  0  0  0  0  0  0  0  0  0  0
   28.0510   30.6370   50.4590 F   0  0  0  0  0  0  0  0  0  0  0  0
   26.7550   28.8480   50.5980 F   0  0  0  0  0  0  0  0  0  0  0  0
   26.8460   30.0480   48.6920 F   0  0  0  0  0  0  0  0  0  0  0  0
   33.3360   28.0240   48.3780 C   0  0  0  0  0  0  0  0  0  0  0  0
   33.6760   29.1510   47.4450 C   0  0  0  0  0  0  0  0  0  0  0  0
   34.7970   29.9190   48.0680 C   0  0  0  0  0  0  0  0  0  0  0  0
   35.9750   30.4410   47.5790 C   0  0  0  0  0  0  0  0  0  0  0  0
   36.6430   31.0540   48.5710 N   0  0  0  0  0  0  0  0  0  0  0  0
   35.9170   30.9420   49.7080 C   0  0  0  0  0  0  0  0  0  0  0  0
   34.8000   30.2500   49.3850 N   0  0  0  0  0  0  0  0  0  0  0  0
   30.4689   24.7394   47.0435 H   0  0  0  0  0  0  0  0  0  0  0  0
   32.2459   23.3228   46.0289 H   0  0  0  0  0  0  0  0  0  0  0  0
   34.5907   24.1699   46.1421 H   0  0  0  0  0  0  0  0  0  0  0  0
   35.1161   26.3186   47.2066 H   0  0  0  0  0  0  0  0  0  0  0  0
   29.0975   27.6465   51.0931 H   0  0  0  0  0  0  0  0  0  0  0  0
   28.5792   29.4910   47.2348 H   0  0  0  0  0  0  0  0  0  0  0  0
   32.4394   28.3116   48.9466 H   0  0  0  0  0  0  0  0  0  0  0  0
   34.2247   27.8701   49.0076 H   0  0  0  0  0  0  0  0  0  0  0  0
   32.8016   29.8044   47.3091 H   0  0  0  0  0  0  0  0  0  0  0  0
   33.9691   28.7650   46.4575 H   0  0  0  0  0  0  0  0  0  0  0  0
   36.3164   30.3672   46.5359 H   0  0  0  0  0  0  0  0  0  0  0  0
   36.1829   31.3362   50.6999 H   0  0  0  0  0  0  0  0  0  0  0  0
   34.0516   30.0067   50.0496 H   0  0  0  0  0  0  0  0  0  0  0  0
  1  6  1  0
  1 11  1  0
  2  1  2  0
  3  4  2  0
  3  2  1  0
  4  5  1  0
  5  6  2  0
  6 17  1  0
  8 13  1  0
  8  7  2  0
  9  8  1  0
 10  9  2  0
 10 11  1  0
 11 12  2  0
 12  7  1  0
 13 14  1  0
 13 15  1  0
 16 13  1  0
 18 19  1  0
 18 17  1  0
 19 23  1  0
 20 19  2  0
 20 21  1  0
 21 22  2  0
 23 22  1  0
  2 24  1  0
  3 25  1  0
  4 26  1  0
  5 27  1  0
  7 28  1  0
  9 29  1  0
 17 30  1  0
 17 31  1  0
 18 32  1  0
 18 33  1  0
 20 34  1  0
 22 35  1  0
 23 36  1  0
M  ISO  8  24  14  25  14  26  14  27  14  28  14  29  14  30   8  31   8
M  ISO  5  32   8  33   8  34  14  35  14  36   9
M  END
>  <minimizedAffinity>  (1) 
-5.37732935

>  <minimizedRMSD>  (1) 
6.7065587

$$$$
