
     RDKit          3D

 41 43  0  0  0  0  0  0  0  0999 V2000
   32.8390   27.8200   48.5450 C   0  0  0  0  0  0  0  0  0  0  0  0
   31.7230   28.2120   49.2300 C   0  0  0  0  0  0  0  0  0  0  0  0
   30.5060   27.5650   49.1750 C   0  0  0  0  0  0  0  0  0  0  0  0
   30.4530   26.4580   48.3670 C   0  0  0  0  0  0  0  0  0  0  0  0
   31.5530   26.0110   47.6480 C   0  0  0  0  0  0  0  0  0  0  0  0
   32.7540   26.6950   47.7350 C   0  0  0  0  0  0  0  0  0  0  0  0
   36.1480   28.9400   49.6440 C   0  0  0  0  0  0  0  0  0  0  0  0
   36.4550   29.9480   48.7220 C   0  0  0  0  0  0  0  0  0  0  0  0
   35.5070   30.2100   47.7470 C   0  0  0  0  0  0  0  0  0  0  0  0
   34.3300   29.4890   47.7210 N   0  0  0  0  0  0  0  0  0  0  0  0
   34.0960   28.5300   48.6400 C   0  0  0  0  0  0  0  0  0  0  0  0
   34.9960   28.2760   49.5710 N   0  0  0  0  0  0  0  0  0  0  0  0
   37.7140   30.7300   48.7410 C   0  0  0  0  0  0  0  0  0  0  0  0
   38.5130   30.5210   47.6590 F   0  0  0  0  0  0  0  0  0  0  0  0
   38.4700   30.4130   49.8660 F   0  0  0  0  0  0  0  0  0  0  0  0
   37.4250   32.0940   48.7860 F   0  0  0  0  0  0  0  0  0  0  0  0
   33.9430   26.2760   46.9950 C   0  0  0  0  0  0  0  0  0  0  0  0
   33.8400   24.9700   46.2810 C   0  0  0  0  0  0  0  0  0  0  0  0
   35.0900   24.3320   46.1060 N   0  0  0  0  0  0  0  0  0  0  0  0
   35.6040   24.2350   44.7850 C   0  0  0  0  0  0  0  0  0  0  0  0
   36.9480   23.5780   45.0160 C   0  0  0  0  0  0  0  0  0  0  0  0
   36.6370   22.6370   46.1610 C   0  0  0  0  0  0  0  0  0  0  0  0
   35.2640   23.0380   46.6670 C   0  0  0  0  0  0  0  0  0  0  0  0
   31.8007   29.1042   49.8687 H   0  0  0  0  0  0  0  0  0  0  0  0
   29.6321   27.9152   49.7439 H   0  0  0  0  0  0  0  0  0  0  0  0
   29.5056   25.9050   48.2859 H   0  0  0  0  0  0  0  0  0  0  0  0
   31.4711   25.1173   47.0119 H   0  0  0  0  0  0  0  0  0  0  0  0
   36.8675   28.6935   50.4387 H   0  0  0  0  0  0  0  0  0  0  0  0
   35.6915   30.9911   46.9948 H   0  0  0  0  0  0  0  0  0  0  0  0
   34.1656   27.0519   46.2477 H   0  0  0  0  0  0  0  0  0  0  0  0
   34.7312   26.1408   47.7503 H   0  0  0  0  0  0  0  0  0  0  0  0
   33.1857   24.3040   46.8626 H   0  0  0  0  0  0  0  0  0  0  0  0
   33.4342   25.1755   45.2795 H   0  0  0  0  0  0  0  0  0  0  0  0
   35.7186   25.2286   44.3270 H   0  0  0  0  0  0  0  0  0  0  0  0
   34.9517   23.6788   44.0957 H   0  0  0  0  0  0  0  0  0  0  0  0
   37.2838   23.0277   44.1247 H   0  0  0  0  0  0  0  0  0  0  0  0
   37.7611   24.2875   45.2294 H   0  0  0  0  0  0  0  0  0  0  0  0
   36.6255   21.5953   45.8079 H   0  0  0  0  0  0  0  0  0  0  0  0
   37.3953   22.7025   46.9552 H   0  0  0  0  0  0  0  0  0  0  0  0
   35.2418   23.0759   47.7661 H   0  0  0  0  0  0  0  0  0  0  0  0
   34.4709   22.3298   46.3851 H   0  0  0  0  0  0  0  0  0  0  0  0
  1 11  1  0
  1  2  2  0
  3  2  1  0
  4  3  2  0
  5  6  2  0
  5  4  1  0
  6  1  1  0
  8 13  1  0
  8  7  2  0
  9  8  1  0
 10  9  2  0
 10 11  1  0
 11 12  2  0
 12  7  1  0
 13 16  1  0
 13 15  1  0
 14 13  1  0
 17  6  1  0
 18 17  1  0
 19 18  1  0
 19 23  1  0
 20 21  1  0
 20 19  1  0
 21 22  1  0
 22 23  1  0
  2 24  1  0
  3 25  1  0
  4 26  1  0
  5 27  1  0
  7 28  1  0
  9 29  1  0
 17 30  1  0
 17 31  1  0
 18 32  1  0
 18 33  1  0
 20 34  1  0
 20 35  1  0
 21 36  1  0
 21 37  1  0
 22 38  1  0
 22 39  1  0
 23 40  1  0
 23 41  1  0
M  ISO  8  24  14  25  14  26  14  27  14  28  14  29  14  30   8  31   8
M  ISO  8  32   8  33   8  34  13  35  13  36  13  37  13  38  13  39  13
M  ISO  2  40  13  41  13
M  END
>  <minimizedAffinity>  (1) 
-5.14941978

>  <minimizedRMSD>  (1) 
0.442223907

$$$$
