
     RDKit          3D

 30 31  0  0  0  0  0  0  0  0999 V2000
   32.8040   27.8170   48.5750 C   0  0  0  0  0  0  0  0  0  0  0  0
   31.6930   28.2230   49.2390 C   0  0  0  0  0  0  0  0  0  0  0  0
   30.4650   27.5750   49.1740 C   0  0  0  0  0  0  0  0  0  0  0  0
   30.4170   26.4520   48.3750 C   0  0  0  0  0  0  0  0  0  0  0  0
   31.5240   26.0070   47.6840 C   0  0  0  0  0  0  0  0  0  0  0  0
   32.7240   26.6820   47.7780 C   0  0  0  0  0  0  0  0  0  0  0  0
   36.1210   28.9370   49.6810 C   0  0  0  0  0  0  0  0  0  0  0  0
   36.4250   29.9490   48.7360 C   0  0  0  0  0  0  0  0  0  0  0  0
   35.4760   30.2150   47.7470 C   0  0  0  0  0  0  0  0  0  0  0  0
   34.3040   29.4930   47.7320 N   0  0  0  0  0  0  0  0  0  0  0  0
   34.0690   28.5260   48.6720 C   0  0  0  0  0  0  0  0  0  0  0  0
   34.9640   28.2740   49.6070 N   0  0  0  0  0  0  0  0  0  0  0  0
   37.6780   30.7240   48.7490 C   0  0  0  0  0  0  0  0  0  0  0  0
   38.4880   30.4910   47.6790 F   0  0  0  0  0  0  0  0  0  0  0  0
   38.4290   30.4410   49.8830 F   0  0  0  0  0  0  0  0  0  0  0  0
   37.3950   32.0860   48.7760 F   0  0  0  0  0  0  0  0  0  0  0  0
   33.9220   26.2490   47.0670 C   0  0  0  0  0  0  0  0  0  0  0  0
   34.0400   24.7630   46.8680 C   0  0  0  0  0  0  0  0  0  0  0  0
   35.0330   24.4790   45.9590 O   0  0  0  0  0  0  0  0  0  0  0  0
   31.7686   29.1218   49.8686 H   0  0  0  0  0  0  0  0  0  0  0  0
   29.5849   27.9360   49.7264 H   0  0  0  0  0  0  0  0  0  0  0  0
   29.4713   25.8971   48.2867 H   0  0  0  0  0  0  0  0  0  0  0  0
   31.4502   25.1084   47.0539 H   0  0  0  0  0  0  0  0  0  0  0  0
   36.8404   28.6970   50.4778 H   0  0  0  0  0  0  0  0  0  0  0  0
   35.6623   30.9910   46.9900 H   0  0  0  0  0  0  0  0  0  0  0  0
   33.9226   26.7272   46.0764 H   0  0  0  0  0  0  0  0  0  0  0  0
   34.7758   26.5442   47.6946 H   0  0  0  0  0  0  0  0  0  0  0  0
   34.2815   24.2864   47.8295 H   0  0  0  0  0  0  0  0  0  0  0  0
   33.0839   24.3769   46.4848 H   0  0  0  0  0  0  0  0  0  0  0  0
   35.8641   24.2413   46.4416 H   0  0  0  0  0  0  0  0  0  0  0  0
  1 11  1  0
  1  2  2  0
  3  2  1  0
  4  3  2  0
  5  6  2  0
  5  4  1  0
  6  1  1  0
  8 13  1  0
  8  7  2  0
  9  8  1  0
 10  9  2  0
 10 11  1  0
 11 12  2  0
 12  7  1  0
 13 16  1  0
 13 15  1  0
 14 13  1  0
 17  6  1  0
 18 17  1  0
 19 18  1  0
  2 20  1  0
  3 21  1  0
  4 22  1  0
  5 23  1  0
  7 24  1  0
  9 25  1  0
 17 26  1  0
 17 27  1  0
 18 28  1  0
 18 29  1  0
 19 30  1  0
M  ISO  8  20  14  21  14  22  14  23  14  24  14  25  14  26   8  27   8
M  ISO  3  28   8  29   8  30   3
M  END
>  <minimizedAffinity>  (1) 
-4.80975628

>  <minimizedRMSD>  (1) 
0.11643482

$$$$
