
     RDKit          3D

 31 32  0  0  0  0  0  0  0  0999 V2000
   32.8410   27.8480   48.5830 C   0  0  0  0  0  0  0  0  0  0  0  0
   31.7260   28.2320   49.2520 C   0  0  0  0  0  0  0  0  0  0  0  0
   30.5060   27.5880   49.1860 C   0  0  0  0  0  0  0  0  0  0  0  0
   30.4640   26.4730   48.3640 C   0  0  0  0  0  0  0  0  0  0  0  0
   31.5730   26.0430   47.6620 C   0  0  0  0  0  0  0  0  0  0  0  0
   32.7590   26.7260   47.7690 C   0  0  0  0  0  0  0  0  0  0  0  0
   36.1580   28.9470   49.7070 C   0  0  0  0  0  0  0  0  0  0  0  0
   36.4600   29.9770   48.8030 C   0  0  0  0  0  0  0  0  0  0  0  0
   35.5070   30.2600   47.8310 C   0  0  0  0  0  0  0  0  0  0  0  0
   34.3330   29.5390   47.7920 N   0  0  0  0  0  0  0  0  0  0  0  0
   34.0960   28.5600   48.6870 C   0  0  0  0  0  0  0  0  0  0  0  0
   35.0060   28.2850   49.6210 N   0  0  0  0  0  0  0  0  0  0  0  0
   37.7200   30.7570   48.8370 C   0  0  0  0  0  0  0  0  0  0  0  0
   38.5250   30.5500   47.7660 F   0  0  0  0  0  0  0  0  0  0  0  0
   38.4460   30.4760   49.9810 F   0  0  0  0  0  0  0  0  0  0  0  0
   37.4190   32.1310   48.8900 F   0  0  0  0  0  0  0  0  0  0  0  0
   33.9560   26.3110   47.0470 C   0  0  0  0  0  0  0  0  0  0  0  0
   33.8200   25.0950   46.1820 C   0  0  0  0  0  0  0  0  0  0  0  0
   34.5200   23.9890   46.8010 N   0  0  0  0  0  0  0  0  0  0  0  0
   31.7984   29.1219   49.8946 H   0  0  0  0  0  0  0  0  0  0  0  0
   29.6270   27.9366   49.7480 H   0  0  0  0  0  0  0  0  0  0  0  0
   29.5210   25.9148   48.2680 H   0  0  0  0  0  0  0  0  0  0  0  0
   31.5060   25.1540   47.0177 H   0  0  0  0  0  0  0  0  0  0  0  0
   36.8799   28.6840   50.4942 H   0  0  0  0  0  0  0  0  0  0  0  0
   35.6895   31.0571   47.0952 H   0  0  0  0  0  0  0  0  0  0  0  0
   34.2663   27.1474   46.4034 H   0  0  0  0  0  0  0  0  0  0  0  0
   34.6876   26.0397   47.8224 H   0  0  0  0  0  0  0  0  0  0  0  0
   34.2546   25.2974   45.1920 H   0  0  0  0  0  0  0  0  0  0  0  0
   32.7560   24.8407   46.0670 H   0  0  0  0  0  0  0  0  0  0  0  0
   34.4640   24.0775   47.8257 H   0  0  0  0  0  0  0  0  0  0  0  0
   34.0864   23.1016   46.5088 H   0  0  0  0  0  0  0  0  0  0  0  0
  1 11  1  0
  1  2  2  0
  3  2  1  0
  4  3  2  0
  5  6  2  0
  5  4  1  0
  6  1  1  0
  8 13  1  0
  8  7  2  0
  9  8  1  0
 10  9  2  0
 10 11  1  0
 11 12  2  0
 12  7  1  0
 13 16  1  0
 13 15  1  0
 14 13  1  0
 17  6  1  0
 18 19  1  0
 18 17  1  0
  2 20  1  0
  3 21  1  0
  4 22  1  0
  5 23  1  0
  7 24  1  0
  9 25  1  0
 17 26  1  0
 17 27  1  0
 18 28  1  0
 18 29  1  0
 19 30  1  0
 19 31  1  0
M  ISO  8  20  14  21  14  22  14  23  14  24  14  25  14  26   8  27   8
M  ISO  4  28   8  29   8  30   5  31   5
M  END
>  <minimizedAffinity>  (1) 
-4.76084709

>  <minimizedRMSD>  (1) 
0.326619208

$$$$
