
     RDKit          3D

 38 40  0  0  0  0  0  0  0  0999 V2000
   39.2100   32.3220   46.0890 C   0  0  0  0  0  0  0  0  0  0  0  0
   37.7100   32.4450   49.5730 C   0  0  0  0  0  0  0  0  0  0  0  0
   38.5640   32.7610   48.5020 C   0  0  0  0  0  0  0  0  0  0  0  0
   38.4030   32.1040   47.2910 C   0  0  0  0  0  0  0  0  0  0  0  0
   37.3910   31.1640   47.2160 N   0  0  0  0  0  0  0  0  0  0  0  0
   36.5870   30.8790   48.2560 C   0  0  0  0  0  0  0  0  0  0  0  0
   36.7340   31.5070   49.4260 N   0  0  0  0  0  0  0  0  0  0  0  0
   40.0930   31.0730   45.9280 C   0  0  0  0  0  0  0  0  0  0  0  0
   40.1050   33.5140   46.1820 C   0  0  0  0  0  0  0  0  0  0  0  0
   38.3140   32.4300   44.9080 C   0  0  0  0  0  0  0  0  0  0  0  0
   38.8470   31.7590   43.6910 C   0  0  0  0  0  0  0  0  0  0  0  0
   39.4930   32.5430   42.6650 C   0  0  0  0  0  0  0  0  0  0  0  0
   39.9350   31.2390   41.4460 S   0  0  0  0  0  0  0  0  0  0  0  0
   39.1740   29.8910   42.5350 C   0  0  0  0  0  0  0  0  0  0  0  0
   38.7980   30.4720   43.4240 N   0  0  0  0  0  0  0  0  0  0  0  0
   39.1820   28.4490   42.1140 C   0  0  0  0  0  0  0  0  0  0  0  0
   39.1180   27.5330   43.1350 C   0  0  0  0  0  0  0  0  0  0  0  0
   39.1260   26.2160   42.7510 C   0  0  0  0  0  0  0  0  0  0  0  0
   39.1930   25.8300   41.4250 C   0  0  0  0  0  0  0  0  0  0  0  0
   39.2560   26.7940   40.4400 C   0  0  0  0  0  0  0  0  0  0  0  0
   39.2520   28.1400   40.7690 C   0  0  0  0  0  0  0  0  0  0  0  0
   37.8312   32.9597   50.5376 H   0  0  0  0  0  0  0  0  0  0  0  0
   39.3506   33.5203   48.6229 H   0  0  0  0  0  0  0  0  0  0  0  0
   35.7991   30.1199   48.1418 H   0  0  0  0  0  0  0  0  0  0  0  0
   40.3662   30.6866   46.9210 H   0  0  0  0  0  0  0  0  0  0  0  0
   39.5388   30.3011   45.3739 H   0  0  0  0  0  0  0  0  0  0  0  0
   41.0056   31.3380   45.3739 H   0  0  0  0  0  0  0  0  0  0  0  0
   40.2860   33.7550   47.2399 H   0  0  0  0  0  0  0  0  0  0  0  0
   41.0623   33.2932   45.6873 H   0  0  0  0  0  0  0  0  0  0  0  0
   39.6259   34.3717   45.6873 H   0  0  0  0  0  0  0  0  0  0  0  0
   37.3470   31.9715   45.1623 H   0  0  0  0  0  0  0  0  0  0  0  0
   38.2209   33.5002   44.6711 H   0  0  0  0  0  0  0  0  0  0  0  0
   39.6723   33.6275   42.6237 H   0  0  0  0  0  0  0  0  0  0  0  0
   39.0639   27.8353   44.1913 H   0  0  0  0  0  0  0  0  0  0  0  0
   39.0773   25.4380   43.5271 H   0  0  0  0  0  0  0  0  0  0  0  0
   39.1960   24.7630   41.1576 H   0  0  0  0  0  0  0  0  0  0  0  0
   39.3099   26.4913   39.3838 H   0  0  0  0  0  0  0  0  0  0  0  0
   39.3020   28.9232   39.9982 H   0  0  0  0  0  0  0  0  0  0  0  0
  1  9  1  0
  1  4  1  0
  3  2  2  0
  4  3  1  0
  5  4  2  0
  5  6  1  0
  6  7  2  0
  7  2  1  0
  8  1  1  0
 10  1  1  0
 11 10  1  0
 12 11  2  0
 13 14  1  0
 13 12  1  0
 14 15  2  0
 15 11  1  0
 16 14  1  0
 16 17  2  0
 18 17  1  0
 19 18  2  0
 20 21  2  0
 20 19  1  0
 21 16  1  0
  2 22  1  0
  3 23  1  0
  6 24  1  0
  8 25  1  0
  8 26  1  0
  8 27  1  0
  9 28  1  0
  9 29  1  0
  9 30  1  0
 10 31  1  0
 10 32  1  0
 12 33  1  0
 17 34  1  0
 18 35  1  0
 19 36  1  0
 20 37  1  0
 21 38  1  0
M  ISO  8  22  14  23  14  24  14  25   8  26   8  27   8  28   8  29   8
M  ISO  8  30   8  31   8  32   8  33  14  34  14  35  14  36  14  37  14
M  ISO  1  38  14
M  END
>  <minimizedAffinity>  (1) 
-5.20663118

>  <minimizedRMSD>  (1) 
0.674354732

$$$$
