
     RDKit          3D

 43 46  0  0  0  0  0  0  0  0999 V2000
   31.7190   26.2560   47.6020 C   0  0  0  0  0  0  0  0  0  0  0  0
   31.4420   25.1360   46.9030 C   0  0  0  0  0  0  0  0  0  0  0  0
   32.4080   24.3460   46.3160 C   0  0  0  0  0  0  0  0  0  0  0  0
   33.7170   24.7600   46.4770 C   0  0  0  0  0  0  0  0  0  0  0  0
   34.0200   25.8930   47.1810 C   0  0  0  0  0  0  0  0  0  0  0  0
   33.0300   26.6600   47.7540 C   0  0  0  0  0  0  0  0  0  0  0  0
   29.3130   27.6810   50.0020 C   0  0  0  0  0  0  0  0  0  0  0  0
   28.6520   28.6550   49.2280 C   0  0  0  0  0  0  0  0  0  0  0  0
   29.0540   28.7900   47.9060 C   0  0  0  0  0  0  0  0  0  0  0  0
   30.0580   27.9860   47.4190 N   0  0  0  0  0  0  0  0  0  0  0  0
   30.6600   27.0660   48.2090 C   0  0  0  0  0  0  0  0  0  0  0  0
   30.2770   26.9340   49.4750 N   0  0  0  0  0  0  0  0  0  0  0  0
   27.5710   29.5060   49.7780 C   0  0  0  0  0  0  0  0  0  0  0  0
   28.0340   30.6090   50.4450 F   0  0  0  0  0  0  0  0  0  0  0  0
   26.7590   28.8080   50.6510 F   0  0  0  0  0  0  0  0  0  0  0  0
   26.7630   29.9600   48.7150 F   0  0  0  0  0  0  0  0  0  0  0  0
   33.3110   27.8870   48.5210 C   0  0  0  0  0  0  0  0  0  0  0  0
   33.8740   29.0090   47.7230 C   0  0  0  0  0  0  0  0  0  0  0  0
   35.1100   29.5010   48.3300 C   0  0  0  0  0  0  0  0  0  0  0  0
   35.7540   28.8720   49.3820 C   0  0  0  0  0  0  0  0  0  0  0  0
   36.8800   29.5860   49.7260 C   0  0  0  0  0  0  0  0  0  0  0  0
   36.8800   30.6460   48.8520 N   0  0  0  0  0  0  0  0  0  0  0  0
   35.8440   30.5990   48.0330 N   0  0  0  0  0  0  0  0  0  0  0  0
   37.7840   31.7480   48.6920 C   0  0  0  0  0  0  0  0  0  0  0  0
   38.1350   32.7480   49.4890 C   0  0  0  0  0  0  0  0  0  0  0  0
   39.0360   33.6940   49.1000 C   0  0  0  0  0  0  0  0  0  0  0  0
   39.5540   33.4950   47.7650 C   0  0  0  0  0  0  0  0  0  0  0  0
   38.6560   31.9220   47.2060 S   0  0  0  0  0  0  0  0  0  0  0  0
   30.3890   24.8368   46.7954 H   0  0  0  0  0  0  0  0  0  0  0  0
   32.1513   23.4375   45.7514 H   0  0  0  0  0  0  0  0  0  0  0  0
   34.5296   24.1677   46.0310 H   0  0  0  0  0  0  0  0  0  0  0  0
   35.0716   26.1965   47.2913 H   0  0  0  0  0  0  0  0  0  0  0  0
   29.0277   27.5374   51.0546 H   0  0  0  0  0  0  0  0  0  0  0  0
   28.5735   29.5338   47.2535 H   0  0  0  0  0  0  0  0  0  0  0  0
   32.3694   28.2294   48.9751 H   0  0  0  0  0  0  0  0  0  0  0  0
   34.0791   27.6190   49.2614 H   0  0  0  0  0  0  0  0  0  0  0  0
   33.1403   29.8276   47.6819 H   0  0  0  0  0  0  0  0  0  0  0  0
   34.0962   28.6468   46.7084 H   0  0  0  0  0  0  0  0  0  0  0  0
   35.4178   27.9444   49.8683 H   0  0  0  0  0  0  0  0  0  0  0  0
   37.6102   29.3601   50.5171 H   0  0  0  0  0  0  0  0  0  0  0  0
   37.6869   32.8160   50.4913 H   0  0  0  0  0  0  0  0  0  0  0  0
   39.3412   34.5325   49.7433 H   0  0  0  0  0  0  0  0  0  0  0  0
   40.2853   34.1034   47.2126 H   0  0  0  0  0  0  0  0  0  0  0  0
  1  6  1  0
  1 11  1  0
  2  1  2  0
  3  4  2  0
  3  2  1  0
  4  5  1  0
  5  6  2  0
  6 17  1  0
  8 13  1  0
  8  7  2  0
  9  8  1  0
 10  9  2  0
 10 11  1  0
 11 12  2  0
 12  7  1  0
 13 14  1  0
 13 15  1  0
 16 13  1  0
 18 19  1  0
 18 17  1  0
 19 20  1  0
 20 21  2  0
 22 21  1  0
 23 19  2  0
 23 22  1  0
 24 22  1  0
 24 25  2  0
 26 25  1  0
 27 26  2  0
 28 27  1  0
 28 24  1  0
  2 29  1  0
  3 30  1  0
  4 31  1  0
  5 32  1  0
  7 33  1  0
  9 34  1  0
 17 35  1  0
 17 36  1  0
 18 37  1  0
 18 38  1  0
 20 39  1  0
 21 40  1  0
 25 41  1  0
 26 42  1  0
 27 43  1  0
M  ISO  8  29  14  30  14  31  14  32  14  33  14  34  14  35   8  36   8
M  ISO  7  37   8  38   8  39  14  40  14  41  14  42  14  43  14
M  END
>  <minimizedAffinity>  (1) 
-6.86502075

>  <minimizedRMSD>  (1) 
1.07582676

$$$$
