
     RDKit          3D

 49 52  0  0  0  0  0  0  0  0999 V2000
   31.4750   27.3250   47.7420 C   0  0  0  0  0  0  0  0  0  0  0  0
   29.3990   26.3380   46.8680 C   0  0  0  0  0  0  0  0  0  0  0  0
   28.7380   25.3620   46.2150 C   0  0  0  0  0  0  0  0  0  0  0  0
   29.3460   24.2490   45.6760 C   0  0  0  0  0  0  0  0  0  0  0  0
   30.7160   24.1720   45.8400 C   0  0  0  0  0  0  0  0  0  0  0  0
   31.4090   25.1480   46.4970 C   0  0  0  0  0  0  0  0  0  0  0  0
   30.7660   26.2470   47.0230 C   0  0  0  0  0  0  0  0  0  0  0  0
   27.6620   28.6170   49.1850 C   0  0  0  0  0  0  0  0  0  0  0  0
   27.4090   29.7450   48.3690 C   0  0  0  0  0  0  0  0  0  0  0  0
   27.8490   29.6840   47.0400 C   0  0  0  0  0  0  0  0  0  0  0  0
   28.4930   28.5510   46.6020 N   0  0  0  0  0  0  0  0  0  0  0  0
   28.7060   27.5040   47.4250 C   0  0  0  0  0  0  0  0  0  0  0  0
   28.2920   27.5510   48.6910 N   0  0  0  0  0  0  0  0  0  0  0  0
   26.7120   30.9550   48.8630 C   0  0  0  0  0  0  0  0  0  0  0  0
   27.3630   31.5740   49.8940 F   0  0  0  0  0  0  0  0  0  0  0  0
   25.4280   30.6610   49.2870 F   0  0  0  0  0  0  0  0  0  0  0  0
   26.6150   31.8930   47.8190 F   0  0  0  0  0  0  0  0  0  0  0  0
   32.3680   28.1570   46.8920 C   0  0  0  0  0  0  0  0  0  0  0  0
   33.5320   28.6070   47.6550 C   0  0  0  0  0  0  0  0  0  0  0  0
   34.1510   27.8380   48.6240 C   0  0  0  0  0  0  0  0  0  0  0  0
   35.2110   28.5400   49.1590 C   0  0  0  0  0  0  0  0  0  0  0  0
   35.2030   29.7390   48.4820 N   0  0  0  0  0  0  0  0  0  0  0  0
   34.2150   29.7680   47.6030 N   0  0  0  0  0  0  0  0  0  0  0  0
   38.0530   32.8390   48.8760 C   0  0  0  0  0  0  0  0  0  0  0  0
   37.9270   32.0650   47.7330 C   0  0  0  0  0  0  0  0  0  0  0  0
   36.9840   31.0600   47.6400 C   0  0  0  0  0  0  0  0  0  0  0  0
   36.1380   30.8070   48.7030 C   0  0  0  0  0  0  0  0  0  0  0  0
   36.2350   31.5590   49.8570 C   0  0  0  0  0  0  0  0  0  0  0  0
   37.1900   32.5540   49.9120 C   0  0  0  0  0  0  0  0  0  0  0  0
   39.2350   34.1300   49.0500 S   0  0  0  0  0  0  0  0  0  0  0  0
   40.2610   34.1280   47.9800 O   0  0  0  0  0  0  0  0  0  0  0  0
   39.9570   33.9360   50.3730 O   0  0  0  0  0  0  0  0  0  0  0  0
   30.7225   27.9856   48.1973 H   0  0  0  0  0  0  0  0  0  0  0  0
   32.1222   26.8312   48.4818 H   0  0  0  0  0  0  0  0  0  0  0  0
   27.6478   25.4596   46.1057 H   0  0  0  0  0  0  0  0  0  0  0  0
   28.7762   23.4702   45.1480 H   0  0  0  0  0  0  0  0  0  0  0  0
   31.2594   23.3066   45.4329 H   0  0  0  0  0  0  0  0  0  0  0  0
   32.4994   25.0552   46.6082 H   0  0  0  0  0  0  0  0  0  0  0  0
   27.3362   28.6197   50.2356 H   0  0  0  0  0  0  0  0  0  0  0  0
   27.6816   30.5301   46.3573 H   0  0  0  0  0  0  0  0  0  0  0  0
   31.8104   29.0343   46.5322 H   0  0  0  0  0  0  0  0  0  0  0  0
   32.7139   27.5511   46.0416 H   0  0  0  0  0  0  0  0  0  0  0  0
   33.8454   26.8241   48.9217 H   0  0  0  0  0  0  0  0  0  0  0  0
   35.9055   28.2155   49.9479 H   0  0  0  0  0  0  0  0  0  0  0  0
   38.5941   32.2557   46.8794 H   0  0  0  0  0  0  0  0  0  0  0  0
   36.9065   30.4614   46.7204 H   0  0  0  0  0  0  0  0  0  0  0  0
   35.5680   31.3699   50.7110 H   0  0  0  0  0  0  0  0  0  0  0  0
   37.2664   33.1517   50.8323 H   0  0  0  0  0  0  0  0  0  0  0  0
   38.5539   35.3167   48.9814 H   0  0  0  0  0  0  0  0  0  0  0  0
  2  7  1  0
  2 12  1  0
  3  2  2  0
  4  5  2  0
  4  3  1  0
  5  6  1  0
  6  7  2  0
  7  1  1  0
  9 14  1  0
  9  8  2  0
 10  9  1  0
 11 10  2  0
 11 12  1  0
 12 13  2  0
 13  8  1  0
 14 16  1  0
 14 15  1  0
 17 14  1  0
 18 19  1  0
 18  1  1  0
 19 20  1  0
 20 21  2  0
 22 27  1  0
 22 21  1  0
 23 19  2  0
 23 22  1  0
 24 30  1  0
 24 29  2  0
 25 24  1  0
 26 25  2  0
 26 27  1  0
 27 28  2  0
 28 29  1  0
 30 32  2  0
 31 30  2  0
  1 33  1  0
  1 34  1  0
  3 35  1  0
  4 36  1  0
  5 37  1  0
  6 38  1  0
  8 39  1  0
 10 40  1  0
 18 41  1  0
 18 42  1  0
 20 43  1  0
 21 44  1  0
 25 45  1  0
 26 46  1  0
 28 47  1  0
 29 48  1  0
 30 49  1  0
M  ISO  8  33   8  34   8  35  14  36  14  37  14  38  14  39  14  40  14
M  ISO  8  41   8  42   8  43  14  44  14  45  14  46  14  47  14  48  14
M  ISO  1  49  11
M  END
>  <minimizedAffinity>  (1) 
-6.77199984

>  <minimizedRMSD>  (1) 
2.47059178

$$$$
