
     RDKit          3D

 45 47  0  0  0  0  0  0  0  0999 V2000
   31.7300   26.5490   47.8520 C   0  0  0  0  0  0  0  0  0  0  0  0
   31.4980   25.3450   47.2900 C   0  0  0  0  0  0  0  0  0  0  0  0
   32.5000   24.4990   46.8560 C   0  0  0  0  0  0  0  0  0  0  0  0
   33.7920   24.9550   47.0310 C   0  0  0  0  0  0  0  0  0  0  0  0
   34.0540   26.1720   47.5980 C   0  0  0  0  0  0  0  0  0  0  0  0
   33.0260   26.9870   48.0170 C   0  0  0  0  0  0  0  0  0  0  0  0
   29.2090   28.2440   49.9370 C   0  0  0  0  0  0  0  0  0  0  0  0
   28.5680   29.0860   49.0200 C   0  0  0  0  0  0  0  0  0  0  0  0
   29.0190   29.0540   47.6930 C   0  0  0  0  0  0  0  0  0  0  0  0
   30.0540   28.2080   47.3670 N   0  0  0  0  0  0  0  0  0  0  0  0
   30.6340   27.4170   48.2990 C   0  0  0  0  0  0  0  0  0  0  0  0
   30.2030   27.4530   49.5450 N   0  0  0  0  0  0  0  0  0  0  0  0
   27.4520   29.9880   49.3960 C   0  0  0  0  0  0  0  0  0  0  0  0
   27.7930   30.9050   50.3510 F   0  0  0  0  0  0  0  0  0  0  0  0
   26.3660   29.2820   49.8750 F   0  0  0  0  0  0  0  0  0  0  0  0
   27.0310   30.7040   48.2570 F   0  0  0  0  0  0  0  0  0  0  0  0
   33.2600   28.3050   48.6330 C   0  0  0  0  0  0  0  0  0  0  0  0
   33.9820   29.2820   47.7810 C   0  0  0  0  0  0  0  0  0  0  0  0
   35.2540   29.6640   48.3970 C   0  0  0  0  0  0  0  0  0  0  0  0
   35.8220   28.9950   49.4670 C   0  0  0  0  0  0  0  0  0  0  0  0
   37.0070   29.6040   49.8110 C   0  0  0  0  0  0  0  0  0  0  0  0
   37.1220   30.6440   48.9190 N   0  0  0  0  0  0  0  0  0  0  0  0
   36.0940   30.6810   48.0890 N   0  0  0  0  0  0  0  0  0  0  0  0
   38.2500   31.5850   48.9070 C   0  0  0  0  0  0  0  0  0  0  0  0
   38.7300   31.7130   47.4770 C   0  0  0  0  0  0  0  0  0  0  0  0
   37.8080   32.9140   49.4340 C   0  0  0  0  0  0  0  0  0  0  0  0
   30.4542   25.0191   47.1708 H   0  0  0  0  0  0  0  0  0  0  0  0
   32.2824   23.5223   46.3992 H   0  0  0  0  0  0  0  0  0  0  0  0
   34.6318   24.3233   46.7061 H   0  0  0  0  0  0  0  0  0  0  0  0
   35.0959   26.5029   47.7205 H   0  0  0  0  0  0  0  0  0  0  0  0
   28.8879   28.2370   50.9891 H   0  0  0  0  0  0  0  0  0  0  0  0
   28.5545   29.6928   46.9273 H   0  0  0  0  0  0  0  0  0  0  0  0
   32.2825   28.7374   48.8929 H   0  0  0  0  0  0  0  0  0  0  0  0
   33.9065   28.1239   49.5044 H   0  0  0  0  0  0  0  0  0  0  0  0
   33.3588   30.1793   47.6528 H   0  0  0  0  0  0  0  0  0  0  0  0
   34.1867   28.8174   46.8052 H   0  0  0  0  0  0  0  0  0  0  0  0
   35.3928   28.1132   49.9652 H   0  0  0  0  0  0  0  0  0  0  0  0
   37.7028   29.3232   50.6153 H   0  0  0  0  0  0  0  0  0  0  0  0
   39.0673   31.2212   49.5470 H   0  0  0  0  0  0  0  0  0  0  0  0
   39.7928   31.9964   47.4710 H   0  0  0  0  0  0  0  0  0  0  0  0
   38.6044   30.7500   46.9605 H   0  0  0  0  0  0  0  0  0  0  0  0
   38.1416   32.4856   46.9605 H   0  0  0  0  0  0  0  0  0  0  0  0
   37.8150   32.8931   50.5338 H   0  0  0  0  0  0  0  0  0  0  0  0
   38.4943   33.6964   49.0778 H   0  0  0  0  0  0  0  0  0  0  0  0
   36.7898   33.1295   49.0778 H   0  0  0  0  0  0  0  0  0  0  0  0
  1  6  1  0
  1 11  1  0
  2  1  2  0
  3  4  2  0
  3  2  1  0
  4  5  1  0
  5  6  2  0
  6 17  1  0
  8 13  1  0
  8  7  2  0
  9  8  1  0
 10  9  2  0
 10 11  1  0
 11 12  2  0
 12  7  1  0
 13 15  1  0
 13 14  1  0
 16 13  1  0
 18 19  1  0
 18 17  1  0
 19 20  1  0
 20 21  2  0
 22 21  1  0
 23 19  2  0
 23 22  1  0
 24 22  1  0
 24 26  1  0
 25 24  1  0
  2 27  1  0
  3 28  1  0
  4 29  1  0
  5 30  1  0
  7 31  1  0
  9 32  1  0
 17 33  1  0
 17 34  1  0
 18 35  1  0
 18 36  1  0
 20 37  1  0
 21 38  1  0
 24 39  1  0
 25 40  1  0
 25 41  1  0
 25 42  1  0
 26 43  1  0
 26 44  1  0
 26 45  1  0
M  ISO  8  27  14  28  14  29  14  30  14  31  14  32  14  33   8  34   8
M  ISO  8  35   8  36   8  37  14  38  14  39   8  40   8  41   8  42   8
M  ISO  3  43   8  44   8  45   8
M  END
>  <minimizedAffinity>  (1) 
-6.49405241

>  <minimizedRMSD>  (1) 
0.879120827

$$$$
