
     RDKit          3D

 27 29  0  0  0  0  0  0  0  0999 V2000
   36.5910   29.9020   49.9740 C   0  0  0  0  0  0  0  0  0  0  0  0
   37.5940   30.6950   49.3810 C   0  0  0  0  0  0  0  0  0  0  0  0
   37.3820   31.1070   48.0570 C   0  0  0  0  0  0  0  0  0  0  0  0
   36.2440   30.7220   47.4400 N   0  0  0  0  0  0  0  0  0  0  0  0
   35.3020   29.9590   48.0440 C   0  0  0  0  0  0  0  0  0  0  0  0
   35.4930   29.5590   49.3090 N   0  0  0  0  0  0  0  0  0  0  0  0
   38.4010   31.9280   47.4150 C   0  0  0  0  0  0  0  0  0  0  0  0
   38.9290   33.1350   47.8250 C   0  0  0  0  0  0  0  0  0  0  0  0
   39.8500   33.5340   46.9180 N   0  0  0  0  0  0  0  0  0  0  0  0
   39.9490   32.6170   45.9110 C   0  0  0  0  0  0  0  0  0  0  0  0
   40.7160   32.5360   44.7680 C   0  0  0  0  0  0  0  0  0  0  0  0
   40.5550   31.4370   43.9510 C   0  0  0  0  0  0  0  0  0  0  0  0
   39.6650   30.3900   44.1970 C   0  0  0  0  0  0  0  0  0  0  0  0
   38.9270   30.5440   45.3720 C   0  0  0  0  0  0  0  0  0  0  0  0
   39.0400   31.6180   46.2330 C   0  0  0  0  0  0  0  0  0  0  0  0
   36.7850   29.4410   51.3960 C   0  0  0  0  0  0  0  0  0  0  0  0
   35.5800   29.1260   51.9670 F   0  0  0  0  0  0  0  0  0  0  0  0
   37.7040   28.4280   51.3820 F   0  0  0  0  0  0  0  0  0  0  0  0
   37.3090   30.5260   52.1050 F   0  0  0  0  0  0  0  0  0  0  0  0
   38.5029   30.9783   49.9321 H   0  0  0  0  0  0  0  0  0  0  0  0
   34.3894   29.6705   47.5019 H   0  0  0  0  0  0  0  0  0  0  0  0
   38.6479   33.6817   48.7372 H   0  0  0  0  0  0  0  0  0  0  0  0
   40.3977   34.4042   46.9783 H   0  0  0  0  0  0  0  0  0  0  0  0
   41.4371   33.3271   44.5147 H   0  0  0  0  0  0  0  0  0  0  0  0
   41.1711   31.3813   43.0415 H   0  0  0  0  0  0  0  0  0  0  0  0
   39.5554   29.5242   43.5273 H   0  0  0  0  0  0  0  0  0  0  0  0
   38.2052   29.7550   45.6301 H   0  0  0  0  0  0  0  0  0  0  0  0
  1 16  1  0
  2  1  2  0
  3  2  1  0
  4  5  1  0
  4  3  2  0
  5  6  2  0
  6  1  1  0
  7  8  2  0
  7  3  1  0
  9  8  1  0
 10 15  2  0
 10  9  1  0
 11 10  1  0
 12 13  1  0
 12 11  2  0
 13 14  2  0
 14 15  1  0
 15  7  1  0
 16 17  1  0
 16 19  1  0
 18 16  1  0
  2 20  1  0
  5 21  1  0
  8 22  1  0
  9 23  1  0
 11 24  1  0
 12 25  1  0
 13 26  1  0
 14 27  1  0
M  ISO  8  20  14  21  14  22  14  23   9  24  14  25  14  26  14  27  14
M  END
>  <minimizedAffinity>  (1) 
-6.76795387

>  <minimizedRMSD>  (1) 
2.67172813

$$$$
