
     RDKit          3D

 27 29  0  0  0  0  0  0  0  0999 V2000
   36.6240   29.8160   49.7070 C   0  0  0  0  0  0  0  0  0  0  0  0
   37.5200   30.5630   48.9230 C   0  0  0  0  0  0  0  0  0  0  0  0
   37.1490   30.8700   47.6000 C   0  0  0  0  0  0  0  0  0  0  0  0
   35.9470   30.4220   47.1670 N   0  0  0  0  0  0  0  0  0  0  0  0
   35.0970   29.6970   47.9560 C   0  0  0  0  0  0  0  0  0  0  0  0
   35.4600   29.4120   49.2080 N   0  0  0  0  0  0  0  0  0  0  0  0
   37.9580   31.6080   46.7230 N   0  0  0  0  0  0  0  0  0  0  0  0
   39.0410   32.2620   47.1570 C   0  0  0  0  0  0  0  0  0  0  0  0
   39.6380   32.8860   46.1290 N   0  0  0  0  0  0  0  0  0  0  0  0
   38.9580   32.6550   44.9870 C   0  0  0  0  0  0  0  0  0  0  0  0
   39.0470   32.9950   43.6380 C   0  0  0  0  0  0  0  0  0  0  0  0
   40.0140   33.7280   43.3060 O   0  0  0  0  0  0  0  0  0  0  0  0
   38.1130   32.5360   42.7540 N   0  0  0  0  0  0  0  0  0  0  0  0
   37.1080   31.7550   43.1900 C   0  0  0  0  0  0  0  0  0  0  0  0
   36.1130   31.2510   42.3190 N   0  0  0  0  0  0  0  0  0  0  0  0
   37.0120   31.4160   44.5070 N   0  0  0  0  0  0  0  0  0  0  0  0
   37.9180   31.8530   45.4050 C   0  0  0  0  0  0  0  0  0  0  0  0
   37.0260   29.4920   51.1150 C   0  0  0  0  0  0  0  0  0  0  0  0
   35.8970   29.3330   51.8880 F   0  0  0  0  0  0  0  0  0  0  0  0
   37.8260   28.3810   51.0890 F   0  0  0  0  0  0  0  0  0  0  0  0
   37.7250   30.5780   51.6140 F   0  0  0  0  0  0  0  0  0  0  0  0
   38.4845   30.8985   49.3318 H   0  0  0  0  0  0  0  0  0  0  0  0
   34.1282   29.3538   47.5641 H   0  0  0  0  0  0  0  0  0  0  0  0
   39.3902   32.2851   48.1998 H   0  0  0  0  0  0  0  0  0  0  0  0
   38.1776   32.7868   41.7571 H   0  0  0  0  0  0  0  0  0  0  0  0
   35.3582   30.6557   42.6889 H   0  0  0  0  0  0  0  0  0  0  0  0
   36.1436   31.4795   41.3151 H   0  0  0  0  0  0  0  0  0  0  0  0
  1 18  1  0
  2  1  2  0
  3  2  1  0
  4  3  2  0
  4  5  1  0
  5  6  2  0
  6  1  1  0
  7  8  1  0
  7  3  1  0
  9  8  2  0
 10 17  2  0
 10  9  1  0
 11 10  1  0
 12 11  2  0
 13 14  1  0
 13 11  1  0
 14 16  2  0
 15 14  1  0
 16 17  1  0
 17  7  1  0
 18 21  1  0
 18 19  1  0
 20 18  1  0
  2 22  1  0
  5 23  1  0
  8 24  1  0
 13 25  1  0
 15 26  1  0
 15 27  1  0
M  ISO  4  22  14  23  14  24  14  25   9
M  END
>  <minimizedAffinity>  (1) 
-6.53479862

>  <minimizedRMSD>  (1) 
3.46083999

$$$$
