
     RDKit          3D

 26 28  0  0  0  0  0  0  0  0999 V2000
   36.5810   29.8040   49.7230 C   0  0  0  0  0  0  0  0  0  0  0  0
   37.4460   30.5190   48.8770 C   0  0  0  0  0  0  0  0  0  0  0  0
   36.9910   30.8250   47.6000 C   0  0  0  0  0  0  0  0  0  0  0  0
   35.7520   30.4200   47.2430 N   0  0  0  0  0  0  0  0  0  0  0  0
   34.9410   29.7300   48.0900 C   0  0  0  0  0  0  0  0  0  0  0  0
   35.3710   29.4340   49.3160 N   0  0  0  0  0  0  0  0  0  0  0  0
   37.7880   31.5440   46.6650 N   0  0  0  0  0  0  0  0  0  0  0  0
   38.8020   32.3990   46.8850 C   0  0  0  0  0  0  0  0  0  0  0  0
   39.2880   32.8640   45.6960 N   0  0  0  0  0  0  0  0  0  0  0  0
   38.5710   32.2950   44.7270 C   0  0  0  0  0  0  0  0  0  0  0  0
   38.5600   32.3470   43.3410 C   0  0  0  0  0  0  0  0  0  0  0  0
   37.6730   31.6210   42.6220 N   0  0  0  0  0  0  0  0  0  0  0  0
   36.7820   30.8360   43.2400 C   0  0  0  0  0  0  0  0  0  0  0  0
   36.7870   30.7820   44.5820 N   0  0  0  0  0  0  0  0  0  0  0  0
   37.6490   31.4840   45.3280 C   0  0  0  0  0  0  0  0  0  0  0  0
   37.0550   29.4640   51.1100 C   0  0  0  0  0  0  0  0  0  0  0  0
   35.9680   29.3470   51.9620 F   0  0  0  0  0  0  0  0  0  0  0  0
   37.8520   28.3710   51.0490 F   0  0  0  0  0  0  0  0  0  0  0  0
   37.7940   30.5570   51.5740 F   0  0  0  0  0  0  0  0  0  0  0  0
   39.4780   33.1590   42.6610 N   0  0  0  0  0  0  0  0  0  0  0  0
   38.4474   30.8255   49.2136 H   0  0  0  0  0  0  0  0  0  0  0  0
   33.9373   29.4187   47.7649 H   0  0  0  0  0  0  0  0  0  0  0  0
   39.1842   32.6825   47.8768 H   0  0  0  0  0  0  0  0  0  0  0  0
   36.0584   30.2455   42.6589 H   0  0  0  0  0  0  0  0  0  0  0  0
   39.4686   33.1966   41.6317 H   0  0  0  0  0  0  0  0  0  0  0  0
   40.1620   33.7181   43.1906 H   0  0  0  0  0  0  0  0  0  0  0  0
  1 16  1  0
  2  1  2  0
  3  2  1  0
  4  3  2  0
  4  5  1  0
  5  6  2  0
  6  1  1  0
  7  8  1  0
  7  3  1  0
  9  8  2  0
 10 15  2  0
 10  9  1  0
 11 10  1  0
 12 13  1  0
 12 11  2  0
 13 14  2  0
 14 15  1  0
 15  7  1  0
 16 19  1  0
 16 17  1  0
 18 16  1  0
 20 11  1  0
  2 21  1  0
  5 22  1  0
  8 23  1  0
 13 24  1  0
 20 25  1  0
 20 26  1  0
M  ISO  4  21  14  22  14  23  14  24  14
M  END
>  <minimizedAffinity>  (1) 
-6.28688431

>  <minimizedRMSD>  (1) 
3.58627439

$$$$
