
     RDKit          3D

 33 35  0  0  0  0  0  0  0  0999 V2000
   39.2650   32.3520   46.1930 C   0  0  0  0  0  0  0  0  0  0  0  0
   37.6730   32.4530   49.6370 C   0  0  0  0  0  0  0  0  0  0  0  0
   38.5430   32.7780   48.5830 C   0  0  0  0  0  0  0  0  0  0  0  0
   38.4200   32.1090   47.3730 C   0  0  0  0  0  0  0  0  0  0  0  0
   37.4360   31.1520   47.2820 N   0  0  0  0  0  0  0  0  0  0  0  0
   36.6120   30.8570   48.3090 C   0  0  0  0  0  0  0  0  0  0  0  0
   36.7220   31.4950   49.4770 N   0  0  0  0  0  0  0  0  0  0  0  0
   40.1250   31.0920   46.0110 C   0  0  0  0  0  0  0  0  0  0  0  0
   40.1650   33.5180   46.3140 C   0  0  0  0  0  0  0  0  0  0  0  0
   38.3700   32.5050   44.9950 C   0  0  0  0  0  0  0  0  0  0  0  0
   38.9170   31.8410   43.7760 C   0  0  0  0  0  0  0  0  0  0  0  0
   39.4410   32.6270   42.7090 C   0  0  0  0  0  0  0  0  0  0  0  0
   39.9570   31.3410   41.5120 S   0  0  0  0  0  0  0  0  0  0  0  0
   39.3680   29.9450   42.6720 C   0  0  0  0  0  0  0  0  0  0  0  0
   38.9770   30.5360   43.5500 N   0  0  0  0  0  0  0  0  0  0  0  0
   39.4530   28.5090   42.3820 C   0  0  0  0  0  0  0  0  0  0  0  0
   39.9030   27.8080   41.3250 N   0  0  0  0  0  0  0  0  0  0  0  0
   39.7510   26.5390   41.5830 O   0  0  0  0  0  0  0  0  0  0  0  0
   39.2180   26.3490   42.7670 C   0  0  0  0  0  0  0  0  0  0  0  0
   39.0300   27.5900   43.2730 N   0  0  0  0  0  0  0  0  0  0  0  0
   37.7620   32.9780   50.5995 H   0  0  0  0  0  0  0  0  0  0  0  0
   39.3123   33.5531   48.7149 H   0  0  0  0  0  0  0  0  0  0  0  0
   35.8412   30.0825   48.1827 H   0  0  0  0  0  0  0  0  0  0  0  0
   40.3995   30.6898   46.9974 H   0  0  0  0  0  0  0  0  0  0  0  0
   39.5538   30.3357   45.4527 H   0  0  0  0  0  0  0  0  0  0  0  0
   41.0374   31.3483   45.4527 H   0  0  0  0  0  0  0  0  0  0  0  0
   40.3364   33.7401   47.3776 H   0  0  0  0  0  0  0  0  0  0  0  0
   41.1252   33.2921   45.8272 H   0  0  0  0  0  0  0  0  0  0  0  0
   39.7032   34.3897   45.8272 H   0  0  0  0  0  0  0  0  0  0  0  0
   37.3914   32.0602   45.2283 H   0  0  0  0  0  0  0  0  0  0  0  0
   38.2882   33.5803   44.7779 H   0  0  0  0  0  0  0  0  0  0  0  0
   39.5160   33.7213   42.6261 H   0  0  0  0  0  0  0  0  0  0  0  0
   38.9762   25.3883   43.2451 H   0  0  0  0  0  0  0  0  0  0  0  0
  1  9  1  0
  1  4  1  0
  3  2  2  0
  4  3  1  0
  5  4  2  0
  5  6  1  0
  6  7  2  0
  7  2  1  0
  8  1  1  0
 10  1  1  0
 11 10  1  0
 12 11  2  0
 13 14  1  0
 13 12  1  0
 14 15  2  0
 15 11  1  0
 16 14  1  0
 16 20  1  0
 17 18  1  0
 17 16  2  0
 18 19  1  0
 19 20  2  0
  2 21  1  0
  3 22  1  0
  6 23  1  0
  8 24  1  0
  8 25  1  0
  8 26  1  0
  9 27  1  0
  9 28  1  0
  9 29  1  0
 10 30  1  0
 10 31  1  0
 12 32  1  0
 19 33  1  0
M  ISO  8  21  14  22  14  23  14  24   8  25   8  26   8  27   8  28   8
M  ISO  5  29   8  30   8  31   8  32  14  33  14
M  END
>  <minimizedAffinity>  (1) 
-5.12961531

>  <minimizedRMSD>  (1) 
0.877201736

$$$$
