
     RDKit          3D

 20 21  0  0  0  0  0  0  0  0999 V2000
   36.9230   29.9390   49.4270 C   0  0  0  0  0  0  0  0  0  0  0  0
   37.9980   30.4710   48.7120 C   0  0  0  0  0  0  0  0  0  0  0  0
   37.7890   30.8210   47.3790 C   0  0  0  0  0  0  0  0  0  0  0  0
   36.5530   30.6260   46.8440 N   0  0  0  0  0  0  0  0  0  0  0  0
   35.5340   30.1070   47.5680 C   0  0  0  0  0  0  0  0  0  0  0  0
   35.7200   29.7690   48.8440 N   0  0  0  0  0  0  0  0  0  0  0  0
   38.8810   31.3630   46.6470 N   0  0  0  0  0  0  0  0  0  0  0  0
   39.6780   30.6480   45.8870 N   0  0  0  0  0  0  0  0  0  0  0  0
   40.6180   31.4380   45.3240 C   0  0  0  0  0  0  0  0  0  0  0  0
   40.3660   32.7150   45.7780 C   0  0  0  0  0  0  0  0  0  0  0  0
   39.2720   32.6500   46.6090 C   0  0  0  0  0  0  0  0  0  0  0  0
   37.1180   29.5530   50.8650 C   0  0  0  0  0  0  0  0  0  0  0  0
   35.8920   29.4470   51.4990 F   0  0  0  0  0  0  0  0  0  0  0  0
   37.8690   28.4240   50.9090 F   0  0  0  0  0  0  0  0  0  0  0  0
   37.7860   30.6170   51.4800 F   0  0  0  0  0  0  0  0  0  0  0  0
   38.9806   30.6098   49.1866 H   0  0  0  0  0  0  0  0  0  0  0  0
   34.5482   29.9635   47.1015 H   0  0  0  0  0  0  0  0  0  0  0  0
   41.4220   31.1255   44.6413 H   0  0  0  0  0  0  0  0  0  0  0  0
   40.9358   33.6205   45.5224 H   0  0  0  0  0  0  0  0  0  0  0  0
   38.8049   33.4913   47.1419 H   0  0  0  0  0  0  0  0  0  0  0  0
  1 12  1  0
  2  1  2  0
  3  2  1  0
  4  3  2  0
  4  5  1  0
  5  6  2  0
  6  1  1  0
  7  3  1  0
  8  7  1  0
  9 10  1  0
  9  8  2  0
 10 11  2  0
 11  7  1  0
 12 14  1  0
 12 15  1  0
 12 13  1  0
  2 16  1  0
  5 17  1  0
  9 18  1  0
 10 19  1  0
 11 20  1  0
M  ISO  5  16  14  17  14  18  14  19  14  20  14
M  END
>  <minimizedAffinity>  (1) 
-5.73763657

>  <minimizedRMSD>  (1) 
2.40112424

$$$$
