
     RDKit          3D

 19 20  0  0  0  0  0  0  0  0999 V2000
   36.6860   29.8720   49.4820 C   0  0  0  0  0  0  0  0  0  0  0  0
   37.7490   30.4110   48.7670 C   0  0  0  0  0  0  0  0  0  0  0  0
   37.5890   30.7630   47.4350 C   0  0  0  0  0  0  0  0  0  0  0  0
   36.3710   30.5560   46.8900 N   0  0  0  0  0  0  0  0  0  0  0  0
   35.3450   30.0290   47.6030 C   0  0  0  0  0  0  0  0  0  0  0  0
   35.5150   29.6940   48.8890 N   0  0  0  0  0  0  0  0  0  0  0  0
   38.6980   31.3400   46.6370 C   0  0  0  0  0  0  0  0  0  0  0  0
   39.3210   30.5940   45.6470 C   0  0  0  0  0  0  0  0  0  0  0  0
   40.5940   31.7590   44.9860 S   0  0  0  0  0  0  0  0  0  0  0  0
   40.0270   33.0840   46.2140 C   0  0  0  0  0  0  0  0  0  0  0  0
   39.1820   32.5720   46.7860 N   0  0  0  0  0  0  0  0  0  0  0  0
   36.8920   29.5030   50.9170 C   0  0  0  0  0  0  0  0  0  0  0  0
   35.6690   29.1680   51.4860 F   0  0  0  0  0  0  0  0  0  0  0  0
   37.8330   28.5240   50.9790 F   0  0  0  0  0  0  0  0  0  0  0  0
   37.3550   30.6440   51.5760 F   0  0  0  0  0  0  0  0  0  0  0  0
   38.7213   30.5591   49.2596 H   0  0  0  0  0  0  0  0  0  0  0  0
   34.3674   29.8756   47.1227 H   0  0  0  0  0  0  0  0  0  0  0  0
   39.1090   29.5615   45.3324 H   0  0  0  0  0  0  0  0  0  0  0  0
   40.4183   34.1037   46.3450 H   0  0  0  0  0  0  0  0  0  0  0  0
  1 12  1  0
  2  1  2  0
  3  2  1  0
  4  3  2  0
  4  5  1  0
  5  6  2  0
  6  1  1  0
  7 11  1  0
  7  3  1  0
  8  7  2  0
  9  8  1  0
  9 10  1  0
 10 11  2  0
 12 14  1  0
 12 13  1  0
 12 15  1  0
  2 16  1  0
  5 17  1  0
  8 18  1  0
 10 19  1  0
M  ISO  4  16  14  17  14  18  14  19  14
M  END
>  <minimizedAffinity>  (1) 
-5.41283417

>  <minimizedRMSD>  (1) 
2.5314095

$$$$
