
     RDKit          3D

 18 19  0  0  0  0  0  0  0  0999 V2000
   36.9440   30.0450   49.9730 C   0  0  0  0  0  0  0  0  0  0  0  0
   37.8590   31.0830   49.7410 C   0  0  0  0  0  0  0  0  0  0  0  0
   37.8790   31.6600   48.4660 C   0  0  0  0  0  0  0  0  0  0  0  0
   37.0130   31.1810   47.5310 N   0  0  0  0  0  0  0  0  0  0  0  0
   36.1490   30.1790   47.7980 C   0  0  0  0  0  0  0  0  0  0  0  0
   36.1220   29.6230   49.0080 N   0  0  0  0  0  0  0  0  0  0  0  0
   38.8150   32.7410   48.1860 C   0  0  0  0  0  0  0  0  0  0  0  0
   39.4490   32.8020   46.9840 N   0  0  0  0  0  0  0  0  0  0  0  0
   40.2260   33.8330   46.9550 O   0  0  0  0  0  0  0  0  0  0  0  0
   40.1510   34.4950   48.1060 C   0  0  0  0  0  0  0  0  0  0  0  0
   39.2720   33.8210   48.8830 N   0  0  0  0  0  0  0  0  0  0  0  0
   36.9100   29.4150   51.3340 C   0  0  0  0  0  0  0  0  0  0  0  0
   35.5980   29.0970   51.6680 F   0  0  0  0  0  0  0  0  0  0  0  0
   37.7520   28.3570   51.3420 F   0  0  0  0  0  0  0  0  0  0  0  0
   37.3370   30.3880   52.2480 F   0  0  0  0  0  0  0  0  0  0  0  0
   38.5373   31.4313   50.5338 H   0  0  0  0  0  0  0  0  0  0  0  0
   35.4654   29.8207   47.0142 H   0  0  0  0  0  0  0  0  0  0  0  0
   40.6970   35.4116   48.3740 H   0  0  0  0  0  0  0  0  0  0  0  0
  1 12  1  0
  2  1  2  0
  3  2  1  0
  4  5  1  0
  4  3  2  0
  5  6  2  0
  6  1  1  0
  7  3  1  0
  7 11  1  0
  8  7  2  0
  9  8  1  0
  9 10  1  0
 10 11  2  0
 12 14  1  0
 12 13  1  0
 12 15  1  0
  2 16  1  0
  5 17  1  0
 10 18  1  0
M  ISO  3  16  14  17  14  18  14
M  END
>  <minimizedAffinity>  (1) 
-5.20279646

>  <minimizedRMSD>  (1) 
1.15523696

$$$$
