
     RDKit          3D

 25 25  0  0  0  0  0  0  0  0999 V2000
   36.7740   29.8740   49.4460 C   0  0  0  0  0  0  0  0  0  0  0  0
   37.7480   30.5590   48.6950 C   0  0  0  0  0  0  0  0  0  0  0  0
   37.4440   30.8830   47.3640 C   0  0  0  0  0  0  0  0  0  0  0  0
   36.2360   30.5180   46.8810 N   0  0  0  0  0  0  0  0  0  0  0  0
   35.3220   29.8610   47.6260 C   0  0  0  0  0  0  0  0  0  0  0  0
   35.6050   29.5500   48.8950 N   0  0  0  0  0  0  0  0  0  0  0  0
   37.0890   29.5230   50.8710 C   0  0  0  0  0  0  0  0  0  0  0  0
   35.9100   29.3900   51.5800 F   0  0  0  0  0  0  0  0  0  0  0  0
   37.8650   28.4160   50.8740 F   0  0  0  0  0  0  0  0  0  0  0  0
   37.7590   30.6170   51.4150 F   0  0  0  0  0  0  0  0  0  0  0  0
   38.4640   31.6100   46.5510 C   0  0  0  0  0  0  0  0  0  0  0  0
   37.7790   32.1900   45.3210 C   0  0  0  0  0  0  0  0  0  0  0  0
   39.1810   32.6570   47.3350 C   0  0  0  0  0  0  0  0  0  0  0  0
   39.4310   30.5550   46.0240 C   0  0  0  0  0  0  0  0  0  0  0  0
   38.7173   30.8318   49.1379 H   0  0  0  0  0  0  0  0  0  0  0  0
   34.3503   29.5832   47.1916 H   0  0  0  0  0  0  0  0  0  0  0  0
   36.9747   32.8710   45.6361 H   0  0  0  0  0  0  0  0  0  0  0  0
   38.5141   32.7444   44.7191 H   0  0  0  0  0  0  0  0  0  0  0  0
   37.3533   31.3736   44.7191 H   0  0  0  0  0  0  0  0  0  0  0  0
   39.0493   32.4646   48.4100 H   0  0  0  0  0  0  0  0  0  0  0  0
   40.2523   32.6318   47.0866 H   0  0  0  0  0  0  0  0  0  0  0  0
   38.7702   33.6467   47.0866 H   0  0  0  0  0  0  0  0  0  0  0  0
   39.9056   30.0372   46.8705 H   0  0  0  0  0  0  0  0  0  0  0  0
   38.8803   29.8266   45.4107 H   0  0  0  0  0  0  0  0  0  0  0  0
   40.2045   31.0403   45.4107 H   0  0  0  0  0  0  0  0  0  0  0  0
  1  7  1  0
  2  1  2  0
  3  2  1  0
  4  3  2  0
  4  5  1  0
  5  6  2  0
  6  1  1  0
  7  9  1  0
  7 10  1  0
  7  8  1  0
 11 13  1  0
 11  3  1  0
 12 11  1  0
 14 11  1  0
  2 15  1  0
  5 16  1  0
 12 17  1  0
 12 18  1  0
 12 19  1  0
 13 20  1  0
 13 21  1  0
 13 22  1  0
 14 23  1  0
 14 24  1  0
 14 25  1  0
M  ISO  8  15  14  16  14  17   8  18   8  19   8  20   8  21   8  22   8
M  ISO  3  23   8  24   8  25   8
M  END
>  <minimizedAffinity>  (1) 
-5.10101843

>  <minimizedRMSD>  (1) 
2.15158725

$$$$
