
     RDKit          3D

 22 22  0  0  0  0  0  0  0  0999 V2000
   36.8660   29.9760   49.8510 C   0  0  0  0  0  0  0  0  0  0  0  0
   37.9450   30.7870   49.4510 C   0  0  0  0  0  0  0  0  0  0  0  0
   37.9270   31.2900   48.1380 C   0  0  0  0  0  0  0  0  0  0  0  0
   36.8830   30.9680   47.3430 N   0  0  0  0  0  0  0  0  0  0  0  0
   35.8650   30.1830   47.7780 C   0  0  0  0  0  0  0  0  0  0  0  0
   35.8640   29.6950   49.0200 N   0  0  0  0  0  0  0  0  0  0  0  0
   36.8790   29.4320   51.2580 C   0  0  0  0  0  0  0  0  0  0  0  0
   35.5820   29.1310   51.6410 F   0  0  0  0  0  0  0  0  0  0  0  0
   37.7470   28.3940   51.2970 F   0  0  0  0  0  0  0  0  0  0  0  0
   37.3100   30.4760   52.0920 F   0  0  0  0  0  0  0  0  0  0  0  0
   39.0420   32.1290   47.7220 C   0  0  0  0  0  0  0  0  0  0  0  0
   39.0040   33.3960   48.5850 C   0  0  0  0  0  0  0  0  0  0  0  0
   39.0450   32.5530   46.2900 C   0  0  0  0  0  0  0  0  0  0  0  0
   38.7710   31.0185   50.1396 H   0  0  0  0  0  0  0  0  0  0  0  0
   35.0320   29.9465   47.0997 H   0  0  0  0  0  0  0  0  0  0  0  0
   39.9468   31.5163   47.8486 H   0  0  0  0  0  0  0  0  0  0  0  0
   39.0124   33.1156   49.6486 H   0  0  0  0  0  0  0  0  0  0  0  0
   39.8839   34.0176   48.3627 H   0  0  0  0  0  0  0  0  0  0  0  0
   38.0884   33.9637   48.3627 H   0  0  0  0  0  0  0  0  0  0  0  0
   39.0528   33.6515   46.2329 H   0  0  0  0  0  0  0  0  0  0  0  0
   39.9403   32.1535   45.7912 H   0  0  0  0  0  0  0  0  0  0  0  0
   38.1441   32.1663   45.7912 H   0  0  0  0  0  0  0  0  0  0  0  0
  1  7  1  0
  2  1  2  0
  3  2  1  0
  4  5  1  0
  4  3  2  0
  5  6  2  0
  6  1  1  0
  7  9  1  0
  7  8  1  0
  7 10  1  0
 11  3  1  0
 11 12  1  0
 13 11  1  0
  2 14  1  0
  5 15  1  0
 11 16  1  0
 12 17  1  0
 12 18  1  0
 12 19  1  0
 13 20  1  0
 13 21  1  0
 13 22  1  0
M  ISO  8  14  14  15  14  16   8  17   8  18   8  19   8  20   8  21   8
M  ISO  1  22   8
M  END
>  <minimizedAffinity>  (1) 
-5.09591436

>  <minimizedRMSD>  (1) 
1.10297573

$$$$
