
     RDKit          3D

 15 15  0  0  0  0  0  0  0  0999 V2000
   37.4450   30.5040   49.6960 C   0  0  0  0  0  0  0  0  0  0  0  0
   38.0260   31.7640   49.8690 C   0  0  0  0  0  0  0  0  0  0  0  0
   38.3320   32.5210   48.7440 C   0  0  0  0  0  0  0  0  0  0  0  0
   38.0430   31.9840   47.5190 N   0  0  0  0  0  0  0  0  0  0  0  0
   37.4790   30.7620   47.3810 C   0  0  0  0  0  0  0  0  0  0  0  0
   37.1870   30.0360   48.4660 N   0  0  0  0  0  0  0  0  0  0  0  0
   38.9270   33.8130   48.8490 N   0  0  0  0  0  0  0  0  0  0  0  0
   37.1150   29.6800   50.9130 C   0  0  0  0  0  0  0  0  0  0  0  0
   35.7570   29.5330   51.0180 F   0  0  0  0  0  0  0  0  0  0  0  0
   37.7980   28.4970   50.8090 F   0  0  0  0  0  0  0  0  0  0  0  0
   37.5690   30.3870   52.0120 F   0  0  0  0  0  0  0  0  0  0  0  0
   38.2372   32.1494   50.8774 H   0  0  0  0  0  0  0  0  0  0  0  0
   37.2609   30.3660   46.3782 H   0  0  0  0  0  0  0  0  0  0  0  0
   39.1428   34.3513   47.9978 H   0  0  0  0  0  0  0  0  0  0  0  0
   39.1409   34.2077   49.7760 H   0  0  0  0  0  0  0  0  0  0  0  0
  1  2  2  0
  1  8  1  0
  3  7  1  0
  3  2  1  0
  4  3  2  0
  5  4  1  0
  5  6  2  0
  6  1  1  0
  8  9  1  0
  8 11  1  0
 10  8  1  0
  2 12  1  0
  5 13  1  0
  7 14  1  0
  7 15  1  0
M  ISO  2  12  14  13  14
M  END
>  <minimizedAffinity>  (1) 
-4.84243202

>  <minimizedRMSD>  (1) 
0.543794453

$$$$
