
     RDKit          3D

 14 14  0  0  0  0  0  0  0  0999 V2000
   37.3700   30.2890   49.9730 C   0  0  0  0  0  0  0  0  0  0  0  0
   38.1390   31.4530   50.1070 C   0  0  0  0  0  0  0  0  0  0  0  0
   38.3510   32.2320   48.9590 C   0  0  0  0  0  0  0  0  0  0  0  0
   37.8050   31.8210   47.7960 N   0  0  0  0  0  0  0  0  0  0  0  0
   37.0640   30.6850   47.7010 C   0  0  0  0  0  0  0  0  0  0  0  0
   36.8540   29.9320   48.7950 N   0  0  0  0  0  0  0  0  0  0  0  0
   37.1310   29.4440   51.1820 C   0  0  0  0  0  0  0  0  0  0  0  0
   35.7950   29.1960   51.3390 F   0  0  0  0  0  0  0  0  0  0  0  0
   37.9020   28.3210   51.0830 F   0  0  0  0  0  0  0  0  0  0  0  0
   37.5410   30.2000   52.2890 F   0  0  0  0  0  0  0  0  0  0  0  0
   39.0980   33.3820   49.0360 O   0  0  0  0  0  0  0  0  0  0  0  0
   38.5621   31.7461   51.0791 H   0  0  0  0  0  0  0  0  0  0  0  0
   36.6379   30.3831   46.7328 H   0  0  0  0  0  0  0  0  0  0  0  0
   39.2469   33.9307   48.2256 H   0  0  0  0  0  0  0  0  0  0  0  0
  1  2  2  0
  1  7  1  0
  3 11  1  0
  3  2  1  0
  4  3  2  0
  5  4  1  0
  5  6  2  0
  6  1  1  0
  7  8  1  0
  7 10  1  0
  9  7  1  0
  2 12  1  0
  5 13  1  0
 11 14  1  0
M  ISO  3  12  14  13  14  14   3
M  END
>  <minimizedAffinity>  (1) 
-4.72674751

>  <minimizedRMSD>  (1) 
0.203501955

$$$$
