
     RDKit          3D

 22 22  0  0  0  0  0  0  0  0999 V2000
   37.9300   32.9320   49.3290 C   0  0  0  0  0  0  0  0  0  0  0  0
   38.7050   32.5920   48.2010 C   0  0  0  0  0  0  0  0  0  0  0  0
   38.5030   31.3250   47.6270 C   0  0  0  0  0  0  0  0  0  0  0  0
   37.5790   30.5060   48.1880 N   0  0  0  0  0  0  0  0  0  0  0  0
   36.8450   30.8600   49.2790 C   0  0  0  0  0  0  0  0  0  0  0  0
   37.0350   32.0820   49.8370 N   0  0  0  0  0  0  0  0  0  0  0  0
   35.8530   29.9460   49.8580 C   0  0  0  0  0  0  0  0  0  0  0  0
   34.4920   30.6360   49.9540 C   0  0  0  0  0  0  0  0  0  0  0  0
   36.2870   29.5490   51.2570 C   0  0  0  0  0  0  0  0  0  0  0  0
   35.6360   28.7000   49.0220 C   0  0  0  0  0  0  0  0  0  0  0  0
   38.0657   33.9170   49.7995 H   0  0  0  0  0  0  0  0  0  0  0  0
   39.4423   33.2942   47.7847 H   0  0  0  0  0  0  0  0  0  0  0  0
   39.0792   31.0061   46.7459 H   0  0  0  0  0  0  0  0  0  0  0  0
   34.2237   30.7720   51.0121 H   0  0  0  0  0  0  0  0  0  0  0  0
   34.5427   31.6173   49.4595 H   0  0  0  0  0  0  0  0  0  0  0  0
   33.7304   30.0151   49.4595 H   0  0  0  0  0  0  0  0  0  0  0  0
   35.6864   30.0984   51.9970 H   0  0  0  0  0  0  0  0  0  0  0  0
   36.1384   28.4677   51.3940 H   0  0  0  0  0  0  0  0  0  0  0  0
   37.3508   29.7931   51.3940 H   0  0  0  0  0  0  0  0  0  0  0  0
   35.4854   27.8353   49.6850 H   0  0  0  0  0  0  0  0  0  0  0  0
   34.7478   28.8344   48.3872 H   0  0  0  0  0  0  0  0  0  0  0  0
   36.5174   28.5262   48.3872 H   0  0  0  0  0  0  0  0  0  0  0  0
  1  6  2  0
  2  1  1  0
  3  4  1  0
  3  2  2  0
  4  5  2  0
  5  6  1  0
  5  7  1  0
  7  8  1  0
  7  9  1  0
 10  7  1  0
  1 11  1  0
  2 12  1  0
  3 13  1  0
  8 14  1  0
  8 15  1  0
  8 16  1  0
  9 17  1  0
  9 18  1  0
  9 19  1  0
 10 20  1  0
 10 21  1  0
 10 22  1  0
M  ISO  8  11  14  12  14  13  14  14   8  15   8  16   8  17   8  18   8
M  ISO  4  19   8  20   8  21   8  22   8
M  END
>  <minimizedAffinity>  (1) 
-4.12520504

>  <minimizedRMSD>  (1) 
2.49055004

$$$$
