
     RDKit          3D

 14 14  0  0  0  0  0  0  0  0999 V2000
   37.3570   30.2810   49.9850 C   0  0  0  0  0  0  0  0  0  0  0  0
   38.0570   31.4850   50.1310 C   0  0  0  0  0  0  0  0  0  0  0  0
   38.2680   32.2750   49.0030 C   0  0  0  0  0  0  0  0  0  0  0  0
   37.7800   31.8320   47.8150 N   0  0  0  0  0  0  0  0  0  0  0  0
   37.1030   30.6590   47.7010 C   0  0  0  0  0  0  0  0  0  0  0  0
   36.9080   29.9100   48.7910 N   0  0  0  0  0  0  0  0  0  0  0  0
   37.1250   29.4260   51.1960 C   0  0  0  0  0  0  0  0  0  0  0  0
   35.7640   29.1790   51.3270 F   0  0  0  0  0  0  0  0  0  0  0  0
   37.8900   28.3190   51.0920 F   0  0  0  0  0  0  0  0  0  0  0  0
   37.5080   30.1920   52.3060 F   0  0  0  0  0  0  0  0  0  0  0  0
   39.1590   33.8160   49.1550 S   0  0  0  0  0  0  0  0  0  0  0  0
   38.4324   31.8004   51.1157 H   0  0  0  0  0  0  0  0  0  0  0  0
   36.7202   30.3299   46.7237 H   0  0  0  0  0  0  0  0  0  0  0  0
   39.3317   34.1148   50.4808 H   0  0  0  0  0  0  0  0  0  0  0  0
  1  2  2  0
  1  7  1  0
  3 11  1  0
  3  2  1  0
  4  3  2  0
  5  4  1  0
  5  6  2  0
  6  1  1  0
  7  8  1  0
  7 10  1  0
  9  7  1  0
  2 12  1  0
  5 13  1  0
 11 14  1  0
M  ISO  3  12  14  13  14  14  11
M  END
>  <minimizedAffinity>  (1) 
-4.68245411

>  <minimizedRMSD>  (1) 
0.289538741

$$$$
