
     RDKit          3D

 34 36  0  0  0  0  0  0  0  0999 V2000
   36.8060   29.9610   49.7740 C   0  0  0  0  0  0  0  0  0  0  0  0
   37.9470   30.5070   49.2270 C   0  0  0  0  0  0  0  0  0  0  0  0
   37.9000   30.9340   47.9010 C   0  0  0  0  0  0  0  0  0  0  0  0
   36.7610   30.7970   47.2240 N   0  0  0  0  0  0  0  0  0  0  0  0
   35.6330   30.2530   47.7780 C   0  0  0  0  0  0  0  0  0  0  0  0
   35.6990   29.8460   49.0640 N   0  0  0  0  0  0  0  0  0  0  0  0
   39.0160   31.4970   47.2690 N   0  0  0  0  0  0  0  0  0  0  0  0
   38.9260   32.2820   46.1140 C   0  0  0  0  0  0  0  0  0  0  0  0
   37.7880   32.4100   45.5510 N   0  0  0  0  0  0  0  0  0  0  0  0
   40.0650   32.9240   45.5720 N   0  0  0  0  0  0  0  0  0  0  0  0
   37.7280   32.8210   44.5810 H   0  0  0  0  0  0  0  0  0  0  0  0
   34.3040   29.9580   47.2200 C   0  0  0  0  0  0  0  0  0  0  0  0
   33.5620   30.8910   46.6090 N   0  0  0  0  0  0  0  0  0  0  0  0
   32.3730   30.6960   46.1020 C   0  0  0  0  0  0  0  0  0  0  0  0
   31.7680   29.5000   46.1530 N   0  0  0  0  0  0  0  0  0  0  0  0
   32.4100   28.4630   46.7470 C   0  0  0  0  0  0  0  0  0  0  0  0
   31.8110   27.2290   46.8310 C   0  0  0  0  0  0  0  0  0  0  0  0
   32.4550   26.1820   47.4540 C   0  0  0  0  0  0  0  0  0  0  0  0
   33.7250   26.4320   47.9860 C   0  0  0  0  0  0  0  0  0  0  0  0
   34.2560   27.6940   47.8610 C   0  0  0  0  0  0  0  0  0  0  0  0
   33.6520   28.7510   47.2540 C   0  0  0  0  0  0  0  0  0  0  0  0
   36.8330   29.4810   51.2020 C   0  0  0  0  0  0  0  0  0  0  0  0
   35.5520   29.1370   51.5990 F   0  0  0  0  0  0  0  0  0  0  0  0
   37.7220   28.4530   51.2940 F   0  0  0  0  0  0  0  0  0  0  0  0
   37.2580   30.5510   51.9730 F   0  0  0  0  0  0  0  0  0  0  0  0
   38.8685   30.6031   49.8199 H   0  0  0  0  0  0  0  0  0  0  0  0
   39.9474   31.3250   47.6737 H   0  0  0  0  0  0  0  0  0  0  0  0
   39.9768   33.4974   44.7209 H   0  0  0  0  0  0  0  0  0  0  0  0
   40.9821   32.8178   46.0287 H   0  0  0  0  0  0  0  0  0  0  0  0
   31.8536   31.5371   45.6196 H   0  0  0  0  0  0  0  0  0  0  0  0
   30.8113   27.0761   46.3983 H   0  0  0  0  0  0  0  0  0  0  0  0
   31.9890   25.1885   47.5302 H   0  0  0  0  0  0  0  0  0  0  0  0
   34.2872   25.6347   48.4941 H   0  0  0  0  0  0  0  0  0  0  0  0
   35.2552   27.8636   48.2886 H   0  0  0  0  0  0  0  0  0  0  0  0
  1 22  1  0
  2  1  2  0
  3  2  1  0
  4  5  1  0
  4  3  2  0
  5  6  2  0
  6  1  1  0
  7  3  1  0
  8  7  1  0
  9  8  2  0
 10  8  1  0
 11  9  1  0
 12 21  1  0
 12  5  1  0
 13 12  2  0
 14 15  2  0
 14 13  1  0
 15 16  1  0
 16 17  1  0
 16 21  2  0
 17 18  2  0
 18 19  1  0
 20 19  2  0
 21 20  1  0
 22 24  1  0
 22 23  1  0
 22 25  1  0
  2 26  1  0
  7 27  1  0
 10 28  1  0
 10 29  1  0
 14 30  1  0
 17 31  1  0
 18 32  1  0
 19 33  1  0
 20 34  1  0
M  ISO  6  26  14  30  14  31  14  32  14  33  14  34  14
M  END
>  <minimizedAffinity>  (1) 
-7.29508257

>  <minimizedRMSD>  (1) 
0.48963517

$$$$
