
     RDKit          3D

 41 43  0  0  0  0  0  0  0  0999 V2000
   39.0930   32.2300   46.0410 C   0  0  0  0  0  0  0  0  0  0  0  0
   37.7630   32.5540   49.5790 C   0  0  0  0  0  0  0  0  0  0  0  0
   38.5600   32.8030   48.4540 C   0  0  0  0  0  0  0  0  0  0  0  0
   38.3320   32.0730   47.2970 C   0  0  0  0  0  0  0  0  0  0  0  0
   37.3210   31.1340   47.3270 N   0  0  0  0  0  0  0  0  0  0  0  0
   36.5710   30.9130   48.4170 C   0  0  0  0  0  0  0  0  0  0  0  0
   36.7870   31.6190   49.5450 N   0  0  0  0  0  0  0  0  0  0  0  0
   39.7920   30.8760   45.7900 C   0  0  0  0  0  0  0  0  0  0  0  0
   40.1220   33.2920   46.0960 C   0  0  0  0  0  0  0  0  0  0  0  0
   38.1250   32.4800   44.9240 C   0  0  0  0  0  0  0  0  0  0  0  0
   38.5760   31.9190   43.6260 C   0  0  0  0  0  0  0  0  0  0  0  0
   39.3940   32.7090   42.7510 C   0  0  0  0  0  0  0  0  0  0  0  0
   39.6480   31.5560   41.3440 S   0  0  0  0  0  0  0  0  0  0  0  0
   38.6010   30.2180   42.1940 C   0  0  0  0  0  0  0  0  0  0  0  0
   38.3020   30.7210   43.1550 N   0  0  0  0  0  0  0  0  0  0  0  0
   38.3060   28.8400   41.6200 C   0  0  0  0  0  0  0  0  0  0  0  0
   37.9960   27.9870   42.7930 C   0  0  0  0  0  0  0  0  0  0  0  0
   39.2180   27.0960   43.0200 C   0  0  0  0  0  0  0  0  0  0  0  0
   39.6640   26.8520   41.5930 C   0  0  0  0  0  0  0  0  0  0  0  0
   39.5430   28.2420   40.9980 C   0  0  0  0  0  0  0  0  0  0  0  0
   37.9336   33.1269   50.5024 H   0  0  0  0  0  0  0  0  0  0  0  0
   39.3531   33.5645   48.4878 H   0  0  0  0  0  0  0  0  0  0  0  0
   35.7765   30.1527   48.3903 H   0  0  0  0  0  0  0  0  0  0  0  0
   40.0353   30.4047   46.7537 H   0  0  0  0  0  0  0  0  0  0  0  0
   39.1212   30.2174   45.2188 H   0  0  0  0  0  0  0  0  0  0  0  0
   40.7174   31.0414   45.2188 H   0  0  0  0  0  0  0  0  0  0  0  0
   40.3501   33.5275   47.1460 H   0  0  0  0  0  0  0  0  0  0  0  0
   41.0354   32.9440   45.5914 H   0  0  0  0  0  0  0  0  0  0  0  0
   39.7454   34.1940   45.5914 H   0  0  0  0  0  0  0  0  0  0  0  0
   37.1605   32.0213   45.1874 H   0  0  0  0  0  0  0  0  0  0  0  0
   38.0425   33.5698   44.7993 H   0  0  0  0  0  0  0  0  0  0  0  0
   39.7696   33.7339   42.8869 H   0  0  0  0  0  0  0  0  0  0  0  0
   37.5054   28.9057   40.8685 H   0  0  0  0  0  0  0  0  0  0  0  0
   37.8123   28.6123   43.6791 H   0  0  0  0  0  0  0  0  0  0  0  0
   37.0926   27.3844   42.6178 H   0  0  0  0  0  0  0  0  0  0  0  0
   39.9936   27.6142   43.6030 H   0  0  0  0  0  0  0  0  0  0  0  0
   39.0125   26.1808   43.5946 H   0  0  0  0  0  0  0  0  0  0  0  0
   40.7006   26.4863   41.5527 H   0  0  0  0  0  0  0  0  0  0  0  0
   39.0789   26.0849   41.0646 H   0  0  0  0  0  0  0  0  0  0  0  0
   40.4285   28.8452   41.2469 H   0  0  0  0  0  0  0  0  0  0  0  0
   39.4742   28.2117   39.9006 H   0  0  0  0  0  0  0  0  0  0  0  0
  1  9  1  0
  1  4  1  0
  3  2  2  0
  4  5  2  0
  4  3  1  0
  5  6  1  0
  6  7  2  0
  7  2  1  0
  8  1  1  0
 10  1  1  0
 11 10  1  0
 12 11  2  0
 13 14  1  0
 13 12  1  0
 14 15  2  0
 15 11  1  0
 16 14  1  0
 16 17  1  0
 17 18  1  0
 19 18  1  0
 20 19  1  0
 20 16  1  0
  2 21  1  0
  3 22  1  0
  6 23  1  0
  8 24  1  0
  8 25  1  0
  8 26  1  0
  9 27  1  0
  9 28  1  0
  9 29  1  0
 10 30  1  0
 10 31  1  0
 12 32  1  0
 16 33  1  0
 17 34  1  0
 17 35  1  0
 18 36  1  0
 18 37  1  0
 19 38  1  0
 19 39  1  0
 20 40  1  0
 20 41  1  0
M  ISO  8  21  14  22  14  23  14  24   8  25   8  26   8  27   8  28   8
M  ISO  8  29   8  30   8  31   8  32  14  33  13  34  13  35  13  36  13
M  ISO  5  37  13  38  13  39  13  40  13  41  13
M  END
>  <minimizedAffinity>  (1) 
-5.08901691

>  <minimizedRMSD>  (1) 
0.316299975

$$$$
