
     RDKit          3D

 27 27  0  0  0  0  0  0  0  0999 V2000
   36.9380   29.9540   49.8530 C   0  0  0  0  0  0  0  0  0  0  0  0
   38.0220   30.7040   49.4330 C   0  0  0  0  0  0  0  0  0  0  0  0
   38.0450   31.1760   48.1230 C   0  0  0  0  0  0  0  0  0  0  0  0
   37.0030   30.8750   47.3280 N   0  0  0  0  0  0  0  0  0  0  0  0
   35.9470   30.1340   47.7680 C   0  0  0  0  0  0  0  0  0  0  0  0
   35.9490   29.6970   49.0170 N   0  0  0  0  0  0  0  0  0  0  0  0
   39.1340   31.9500   47.6570 N   0  0  0  0  0  0  0  0  0  0  0  0
   39.0480   32.6580   46.4270 C   0  0  0  0  0  0  0  0  0  0  0  0
   37.9880   32.5180   45.7060 N   0  0  0  0  0  0  0  0  0  0  0  0
   40.1280   33.4930   46.0390 N   0  0  0  0  0  0  0  0  0  0  0  0
   37.9500   33.0250   44.7900 H   0  0  0  0  0  0  0  0  0  0  0  0
   34.9060   29.8860   46.8380 N   0  0  0  0  0  0  0  0  0  0  0  0
   33.5860   29.7200   47.3060 C   0  0  0  0  0  0  0  0  0  0  0  0
   33.3340   29.0940   48.3960 N   0  0  0  0  0  0  0  0  0  0  0  0
   32.4660   30.2510   46.5690 N   0  0  0  0  0  0  0  0  0  0  0  0
   34.0110   28.6590   49.0320 H   0  0  0  0  0  0  0  0  0  0  0  0
   36.9000   29.4370   51.2610 C   0  0  0  0  0  0  0  0  0  0  0  0
   35.6000   29.1420   51.6180 F   0  0  0  0  0  0  0  0  0  0  0  0
   37.7810   28.4040   51.3700 F   0  0  0  0  0  0  0  0  0  0  0  0
   37.3370   30.4950   52.0830 F   0  0  0  0  0  0  0  0  0  0  0  0
   38.8511   30.9236   50.1217 H   0  0  0  0  0  0  0  0  0  0  0  0
   39.9983   32.0011   48.2149 H   0  0  0  0  0  0  0  0  0  0  0  0
   40.0834   34.0136   45.1514 H   0  0  0  0  0  0  0  0  0  0  0  0
   40.9564   33.5784   46.6451 H   0  0  0  0  0  0  0  0  0  0  0  0
   35.1117   29.8276   45.8304 H   0  0  0  0  0  0  0  0  0  0  0  0
   31.5078   30.1214   46.9240 H   0  0  0  0  0  0  0  0  0  0  0  0
   32.6242   30.7598   45.6876 H   0  0  0  0  0  0  0  0  0  0  0  0
  1 17  1  0
  2  1  2  0
  3  2  1  0
  4  5  1  0
  4  3  2  0
  5  6  2  0
  6  1  1  0
  7  3  1  0
  8  7  1  0
  9  8  2  0
 10  8  1  0
 11  9  1  0
 12 13  1  0
 12  5  1  0
 13 14  2  0
 14 16  1  0
 15 13  1  0
 17 19  1  0
 17 18  1  0
 17 20  1  0
  2 21  1  0
  7 22  1  0
 10 23  1  0
 10 24  1  0
 12 25  1  0
 15 26  1  0
 15 27  1  0
M  ISO  1  21  14
M  END
>  <minimizedAffinity>  (1) 
-7.11495352

>  <minimizedRMSD>  (1) 
0.133370504

$$$$
