
     RDKit          3D

 35 36  0  0  0  0  0  0  0  0999 V2000
   36.9360   29.9170   49.8650 C   0  0  0  0  0  0  0  0  0  0  0  0
   38.0340   30.6790   49.4510 C   0  0  0  0  0  0  0  0  0  0  0  0
   38.0130   31.1250   48.1150 C   0  0  0  0  0  0  0  0  0  0  0  0
   36.9650   30.8010   47.3370 N   0  0  0  0  0  0  0  0  0  0  0  0
   35.9330   30.0600   47.7970 C   0  0  0  0  0  0  0  0  0  0  0  0
   35.9250   29.6220   49.0600 N   0  0  0  0  0  0  0  0  0  0  0  0
   39.0800   31.8990   47.6170 N   0  0  0  0  0  0  0  0  0  0  0  0
   38.9690   32.6240   46.4070 C   0  0  0  0  0  0  0  0  0  0  0  0
   37.9610   32.3900   45.6570 N   0  0  0  0  0  0  0  0  0  0  0  0
   39.9570   33.5810   46.0540 N   0  0  0  0  0  0  0  0  0  0  0  0
   37.8680   32.9010   44.7450 H   0  0  0  0  0  0  0  0  0  0  0  0
   34.8660   29.7590   46.9190 N   0  0  0  0  0  0  0  0  0  0  0  0
   35.0210   29.9470   45.4840 C   0  0  0  0  0  0  0  0  0  0  0  0
   34.3780   28.7370   44.8390 C   0  0  0  0  0  0  0  0  0  0  0  0
   32.9050   28.7220   45.1030 C   0  0  0  0  0  0  0  0  0  0  0  0
   32.5090   29.2750   46.4360 C   0  0  0  0  0  0  0  0  0  0  0  0
   33.6090   29.2590   47.4600 C   0  0  0  0  0  0  0  0  0  0  0  0
   36.9340   29.4340   51.2920 C   0  0  0  0  0  0  0  0  0  0  0  0
   35.6170   29.1680   51.6790 F   0  0  0  0  0  0  0  0  0  0  0  0
   37.7770   28.3980   51.4220 F   0  0  0  0  0  0  0  0  0  0  0  0
   37.3340   30.5300   52.0830 F   0  0  0  0  0  0  0  0  0  0  0  0
   38.8662   30.9163   50.1301 H   0  0  0  0  0  0  0  0  0  0  0  0
   39.9624   31.9380   48.1468 H   0  0  0  0  0  0  0  0  0  0  0  0
   39.8729   34.1069   45.1724 H   0  0  0  0  0  0  0  0  0  0  0  0
   40.7578   33.7493   46.6796 H   0  0  0  0  0  0  0  0  0  0  0  0
   34.5140   30.8683   45.1611 H   0  0  0  0  0  0  0  0  0  0  0  0
   36.0792   30.0437   45.1997 H   0  0  0  0  0  0  0  0  0  0  0  0
   34.8292   27.8234   45.2535 H   0  0  0  0  0  0  0  0  0  0  0  0
   34.5439   28.7831   43.7526 H   0  0  0  0  0  0  0  0  0  0  0  0
   32.4097   29.3183   44.3225 H   0  0  0  0  0  0  0  0  0  0  0  0
   32.5964   27.6662   45.0975 H   0  0  0  0  0  0  0  0  0  0  0  0
   32.1839   30.3164   46.2949 H   0  0  0  0  0  0  0  0  0  0  0  0
   31.7078   28.6275   46.8219 H   0  0  0  0  0  0  0  0  0  0  0  0
   33.7574   28.2253   47.8056 H   0  0  0  0  0  0  0  0  0  0  0  0
   33.3105   29.9171   48.2894 H   0  0  0  0  0  0  0  0  0  0  0  0
  1 18  1  0
  2  1  2  0
  3  2  1  0
  4  5  1  0
  4  3  2  0
  5  6  2  0
  6  1  1  0
  7  3  1  0
  8  7  1  0
  9  8  2  0
 10  8  1  0
 11  9  1  0
 12 17  1  0
 12  5  1  0
 13 12  1  0
 14 15  1  0
 14 13  1  0
 15 16  1  0
 16 17  1  0
 18 20  1  0
 18 19  1  0
 18 21  1  0
  2 22  1  0
  7 23  1  0
 10 24  1  0
 10 25  1  0
 13 26  1  0
 13 27  1  0
 14 28  1  0
 14 29  1  0
 15 30  1  0
 15 31  1  0
 16 32  1  0
 16 33  1  0
 17 34  1  0
 17 35  1  0
M  ISO  8  22  14  26  13  27  13  28  13  29  13  30  13  31  13  32  13
M  ISO  3  33  13  34  13  35  13
M  END
>  <minimizedAffinity>  (1) 
-6.91483879

>  <minimizedRMSD>  (1) 
0.24972795

$$$$
