
     RDKit          3D

 34 35  0  0  0  0  0  0  0  0999 V2000
   36.9610   29.9770   49.7680 C   0  0  0  0  0  0  0  0  0  0  0  0
   38.0640   30.7210   49.3940 C   0  0  0  0  0  0  0  0  0  0  0  0
   38.1150   31.2270   48.0890 C   0  0  0  0  0  0  0  0  0  0  0  0
   37.0860   30.9610   47.2690 N   0  0  0  0  0  0  0  0  0  0  0  0
   36.0170   30.2300   47.6690 C   0  0  0  0  0  0  0  0  0  0  0  0
   35.9790   29.7550   48.9090 N   0  0  0  0  0  0  0  0  0  0  0  0
   39.2340   31.9960   47.6740 N   0  0  0  0  0  0  0  0  0  0  0  0
   39.1830   32.7370   46.4620 C   0  0  0  0  0  0  0  0  0  0  0  0
   38.1760   32.5670   45.6770 N   0  0  0  0  0  0  0  0  0  0  0  0
   40.2310   33.6340   46.1540 N   0  0  0  0  0  0  0  0  0  0  0  0
   38.1370   33.1380   44.7960 H   0  0  0  0  0  0  0  0  0  0  0  0
   34.9780   30.0070   46.7210 N   0  0  0  0  0  0  0  0  0  0  0  0
   35.3040   29.9460   45.3200 C   0  0  0  0  0  0  0  0  0  0  0  0
   34.0890   29.9460   44.4460 C   0  0  0  0  0  0  0  0  0  0  0  0
   33.0220   30.7890   44.8890 N   0  0  0  0  0  0  0  0  0  0  0  0
   32.7750   30.7930   46.2950 C   0  0  0  0  0  0  0  0  0  0  0  0
   33.6100   29.8380   47.0930 C   0  0  0  0  0  0  0  0  0  0  0  0
   36.9020   29.4310   51.1730 C   0  0  0  0  0  0  0  0  0  0  0  0
   35.5780   29.1310   51.4850 F   0  0  0  0  0  0  0  0  0  0  0  0
   37.7510   28.3960   51.2760 F   0  0  0  0  0  0  0  0  0  0  0  0
   37.2870   30.4880   52.0220 F   0  0  0  0  0  0  0  0  0  0  0  0
   38.8822   30.9112   50.1042 H   0  0  0  0  0  0  0  0  0  0  0  0
   40.0856   32.0170   48.2530 H   0  0  0  0  0  0  0  0  0  0  0  0
   40.2044   34.1760   45.2786 H   0  0  0  0  0  0  0  0  0  0  0  0
   41.0214   33.7456   46.8050 H   0  0  0  0  0  0  0  0  0  0  0  0
   35.9223   30.8189   45.0638 H   0  0  0  0  0  0  0  0  0  0  0  0
   35.8413   29.0025   45.1437 H   0  0  0  0  0  0  0  0  0  0  0  0
   33.7086   28.9153   44.3916 H   0  0  0  0  0  0  0  0  0  0  0  0
   34.4116   30.3463   43.4736 H   0  0  0  0  0  0  0  0  0  0  0  0
   33.2428   31.7539   44.6044 H   0  0  0  0  0  0  0  0  0  0  0  0
   32.9667   31.8088   46.6712 H   0  0  0  0  0  0  0  0  0  0  0  0
   31.7324   30.4663   46.4224 H   0  0  0  0  0  0  0  0  0  0  0  0
   33.2940   28.8054   46.8835 H   0  0  0  0  0  0  0  0  0  0  0  0
   33.4857   30.0381   48.1675 H   0  0  0  0  0  0  0  0  0  0  0  0
  1 18  1  0
  2  1  2  0
  3  2  1  0
  4  5  1  0
  4  3  2  0
  5  6  2  0
  6  1  1  0
  7  3  1  0
  8  7  1  0
  9  8  2  0
 10  8  1  0
 11  9  1  0
 12 17  1  0
 12  5  1  0
 13 12  1  0
 14 15  1  0
 14 13  1  0
 15 16  1  0
 16 17  1  0
 18 20  1  0
 18 19  1  0
 18 21  1  0
  2 22  1  0
  7 23  1  0
 10 24  1  0
 10 25  1  0
 13 26  1  0
 13 27  1  0
 14 28  1  0
 14 29  1  0
 15 30  1  0
 16 31  1  0
 16 32  1  0
 17 33  1  0
 17 34  1  0
M  ISO  8  22  14  26  13  27  13  28  13  29  13  30   5  31  13  32  13
M  ISO  2  33  13  34  13
M  END
>  <minimizedAffinity>  (1) 
-6.87468147

>  <minimizedRMSD>  (1) 
0.290136158

$$$$
