
     RDKit          3D

 33 34  0  0  0  0  0  0  0  0999 V2000
   36.9160   29.9360   49.8490 C   0  0  0  0  0  0  0  0  0  0  0  0
   38.0000   30.7010   49.4340 C   0  0  0  0  0  0  0  0  0  0  0  0
   38.0350   31.1340   48.1120 C   0  0  0  0  0  0  0  0  0  0  0  0
   37.0070   30.7870   47.2920 N   0  0  0  0  0  0  0  0  0  0  0  0
   35.9630   30.0350   47.7430 C   0  0  0  0  0  0  0  0  0  0  0  0
   35.9470   29.6310   49.0060 N   0  0  0  0  0  0  0  0  0  0  0  0
   39.1080   31.9150   47.6230 N   0  0  0  0  0  0  0  0  0  0  0  0
   39.0030   32.6350   46.4220 C   0  0  0  0  0  0  0  0  0  0  0  0
   37.9540   32.4940   45.6960 N   0  0  0  0  0  0  0  0  0  0  0  0
   40.0500   33.5060   46.0210 N   0  0  0  0  0  0  0  0  0  0  0  0
   37.9190   32.9490   44.7570 H   0  0  0  0  0  0  0  0  0  0  0  0
   34.9120   29.7040   46.8280 N   0  0  0  0  0  0  0  0  0  0  0  0
   33.6960   29.2110   47.3980 C   0  0  0  0  0  0  0  0  0  0  0  0
   32.5190   29.4820   46.5000 C   0  0  0  0  0  0  0  0  0  0  0  0
   32.8490   29.3880   45.1530 O   0  0  0  0  0  0  0  0  0  0  0  0
   33.8350   30.2860   44.7840 C   0  0  0  0  0  0  0  0  0  0  0  0
   35.1580   29.8930   45.4070 C   0  0  0  0  0  0  0  0  0  0  0  0
   36.8770   29.4640   51.2860 C   0  0  0  0  0  0  0  0  0  0  0  0
   35.5700   29.1600   51.6260 F   0  0  0  0  0  0  0  0  0  0  0  0
   37.7340   28.4120   51.4080 F   0  0  0  0  0  0  0  0  0  0  0  0
   37.3010   30.5300   52.0710 F   0  0  0  0  0  0  0  0  0  0  0  0
   38.8097   30.9576   50.1330 H   0  0  0  0  0  0  0  0  0  0  0  0
   39.9861   31.9566   48.1598 H   0  0  0  0  0  0  0  0  0  0  0  0
   39.9719   34.0336   45.1399 H   0  0  0  0  0  0  0  0  0  0  0  0
   40.8877   33.6103   46.6112 H   0  0  0  0  0  0  0  0  0  0  0  0
   33.7868   28.1255   47.5511 H   0  0  0  0  0  0  0  0  0  0  0  0
   33.5277   29.7275   48.3545 H   0  0  0  0  0  0  0  0  0  0  0  0
   31.7288   28.7498   46.7223 H   0  0  0  0  0  0  0  0  0  0  0  0
   32.1799   30.5107   46.6918 H   0  0  0  0  0  0  0  0  0  0  0  0
   33.9348   30.2865   43.6885 H   0  0  0  0  0  0  0  0  0  0  0  0
   33.5563   31.2904   45.1355 H   0  0  0  0  0  0  0  0  0  0  0  0
   35.5253   28.9582   44.9584 H   0  0  0  0  0  0  0  0  0  0  0  0
   35.9204   30.6676   45.2374 H   0  0  0  0  0  0  0  0  0  0  0  0
  1 18  1  0
  2  1  2  0
  3  2  1  0
  4  5  1  0
  4  3  2  0
  5  6  2  0
  6  1  1  0
  7  3  1  0
  8  7  1  0
  9  8  2  0
 10  8  1  0
 11  9  1  0
 12 13  1  0
 12  5  1  0
 14 13  1  0
 15 14  1  0
 16 15  1  0
 16 17  1  0
 17 12  1  0
 18 20  1  0
 18 19  1  0
 18 21  1  0
  2 22  1  0
  7 23  1  0
 10 24  1  0
 10 25  1  0
 13 26  1  0
 13 27  1  0
 14 28  1  0
 14 29  1  0
 16 30  1  0
 16 31  1  0
 17 32  1  0
 17 33  1  0
M  ISO  8  22  14  26  13  27  13  28  13  29  13  30  13  31  13  32  13
M  ISO  1  33  13
M  END
>  <minimizedAffinity>  (1) 
-6.8606143

>  <minimizedRMSD>  (1) 
0.242842659

$$$$
