
     RDKit          3D

 30 31  0  0  0  0  0  0  0  0999 V2000
   36.9480   29.9190   49.9030 C   0  0  0  0  0  0  0  0  0  0  0  0
   38.0380   30.6920   49.4790 C   0  0  0  0  0  0  0  0  0  0  0  0
   38.0190   31.1510   48.1530 C   0  0  0  0  0  0  0  0  0  0  0  0
   36.9610   30.8270   47.3730 N   0  0  0  0  0  0  0  0  0  0  0  0
   35.9360   30.0780   47.8290 C   0  0  0  0  0  0  0  0  0  0  0  0
   35.9370   29.6330   49.0850 N   0  0  0  0  0  0  0  0  0  0  0  0
   39.0760   31.9290   47.6580 N   0  0  0  0  0  0  0  0  0  0  0  0
   38.9860   32.6190   46.4380 C   0  0  0  0  0  0  0  0  0  0  0  0
   37.9530   32.4010   45.6890 N   0  0  0  0  0  0  0  0  0  0  0  0
   40.0210   33.5230   46.0660 N   0  0  0  0  0  0  0  0  0  0  0  0
   37.9400   32.8350   44.7360 H   0  0  0  0  0  0  0  0  0  0  0  0
   34.8240   29.7630   46.9320 C   0  0  0  0  0  0  0  0  0  0  0  0
   33.6630   29.2250   47.4480 C   0  0  0  0  0  0  0  0  0  0  0  0
   32.5760   28.9020   46.6670 C   0  0  0  0  0  0  0  0  0  0  0  0
   32.7450   29.1650   45.3130 C   0  0  0  0  0  0  0  0  0  0  0  0
   33.8730   29.7020   44.7170 C   0  0  0  0  0  0  0  0  0  0  0  0
   34.9140   29.9930   45.5810 C   0  0  0  0  0  0  0  0  0  0  0  0
   36.9450   29.4350   51.3210 C   0  0  0  0  0  0  0  0  0  0  0  0
   35.6280   29.1620   51.7010 F   0  0  0  0  0  0  0  0  0  0  0  0
   37.7780   28.3960   51.4500 F   0  0  0  0  0  0  0  0  0  0  0  0
   37.3480   30.5280   52.1100 F   0  0  0  0  0  0  0  0  0  0  0  0
   38.8719   30.9285   50.1563 H   0  0  0  0  0  0  0  0  0  0  0  0
   39.9453   31.9964   48.2063 H   0  0  0  0  0  0  0  0  0  0  0  0
   39.9629   34.0331   45.1731 H   0  0  0  0  0  0  0  0  0  0  0  0
   40.8279   33.6669   46.6898 H   0  0  0  0  0  0  0  0  0  0  0  0
   33.6031   29.0461   48.5317 H   0  0  0  0  0  0  0  0  0  0  0  0
   31.6516   28.4720   47.0801 H   0  0  0  0  0  0  0  0  0  0  0  0
   31.9007   28.9230   44.6508 H   0  0  0  0  0  0  0  0  0  0  0  0
   33.9373   29.8844   43.6341 H   0  0  0  0  0  0  0  0  0  0  0  0
   35.8415   30.4214   45.1735 H   0  0  0  0  0  0  0  0  0  0  0  0
  1 18  1  0
  2  1  2  0
  3  2  1  0
  4  5  1  0
  4  3  2  0
  5  6  2  0
  6  1  1  0
  7  3  1  0
  8  7  1  0
  9  8  2  0
 10  8  1  0
 11  9  1  0
 12 13  2  0
 12  5  1  0
 14 13  1  0
 15 14  2  0
 16 15  1  0
 16 17  2  0
 17 12  1  0
 18 20  1  0
 18 19  1  0
 18 21  1  0
  2 22  1  0
  7 23  1  0
 10 24  1  0
 10 25  1  0
 13 26  1  0
 14 27  1  0
 15 28  1  0
 16 29  1  0
 17 30  1  0
M  ISO  6  22  14  26  14  27  14  28  14  29  14  30  14
M  END
>  <minimizedAffinity>  (1) 
-6.70106983

>  <minimizedRMSD>  (1) 
0.320520014

$$$$
