
     RDKit          3D

 34 36  0  0  0  0  0  0  0  0999 V2000
   39.2740   32.3630   46.1320 C   0  0  0  0  0  0  0  0  0  0  0  0
   37.6850   32.4510   49.5730 C   0  0  0  0  0  0  0  0  0  0  0  0
   38.5560   32.7740   48.5270 C   0  0  0  0  0  0  0  0  0  0  0  0
   38.4340   32.1270   47.3090 C   0  0  0  0  0  0  0  0  0  0  0  0
   37.4340   31.1800   47.2020 N   0  0  0  0  0  0  0  0  0  0  0  0
   36.6040   30.8830   48.2210 C   0  0  0  0  0  0  0  0  0  0  0  0
   36.7220   31.5110   49.4050 N   0  0  0  0  0  0  0  0  0  0  0  0
   40.2060   31.1630   46.0100 C   0  0  0  0  0  0  0  0  0  0  0  0
   40.1010   33.6000   46.2220 C   0  0  0  0  0  0  0  0  0  0  0  0
   38.4020   32.4070   44.9140 C   0  0  0  0  0  0  0  0  0  0  0  0
   38.9420   31.6320   43.7590 C   0  0  0  0  0  0  0  0  0  0  0  0
   39.6350   32.3050   42.7200 C   0  0  0  0  0  0  0  0  0  0  0  0
   40.0510   30.9080   41.6140 S   0  0  0  0  0  0  0  0  0  0  0  0
   39.2080   29.6610   42.7650 C   0  0  0  0  0  0  0  0  0  0  0  0
   38.8380   30.3350   43.5960 N   0  0  0  0  0  0  0  0  0  0  0  0
   39.2080   28.2130   42.3790 C   0  0  0  0  0  0  0  0  0  0  0  0
   39.2640   27.9410   41.0450 C   0  0  0  0  0  0  0  0  0  0  0  0
   39.2450   26.0940   40.9860 S   0  0  0  0  0  0  0  0  0  0  0  0
   39.1600   26.0300   42.8730 C   0  0  0  0  0  0  0  0  0  0  0  0
   39.1620   27.1270   43.1200 N   0  0  0  0  0  0  0  0  0  0  0  0
   37.7822   32.9644   50.5410 H   0  0  0  0  0  0  0  0  0  0  0  0
   39.3339   33.5382   48.6715 H   0  0  0  0  0  0  0  0  0  0  0  0
   35.8232   30.1205   48.0837 H   0  0  0  0  0  0  0  0  0  0  0  0
   40.4811   30.8088   47.0144 H   0  0  0  0  0  0  0  0  0  0  0  0
   39.6954   30.3562   45.4638 H   0  0  0  0  0  0  0  0  0  0  0  0
   41.1141   31.4580   45.4638 H   0  0  0  0  0  0  0  0  0  0  0  0
   40.2696   33.8522   47.2793 H   0  0  0  0  0  0  0  0  0  0  0  0
   41.0685   33.4311   45.7265 H   0  0  0  0  0  0  0  0  0  0  0  0
   39.5752   34.4295   45.7265 H   0  0  0  0  0  0  0  0  0  0  0  0
   37.4167   31.9952   45.1777 H   0  0  0  0  0  0  0  0  0  0  0  0
   38.3473   33.4588   44.5968 H   0  0  0  0  0  0  0  0  0  0  0  0
   39.8609   33.3759   42.6094 H   0  0  0  0  0  0  0  0  0  0  0  0
   39.3096   28.6501   40.2053 H   0  0  0  0  0  0  0  0  0  0  0  0
   39.1197   25.1596   43.5445 H   0  0  0  0  0  0  0  0  0  0  0  0
  1  9  1  0
  1  4  1  0
  3  2  2  0
  4  3  1  0
  5  4  2  0
  5  6  1  0
  6  7  2  0
  7  2  1  0
  8  1  1  0
 10  1  1  0
 11 10  1  0
 12 11  2  0
 13 12  1  0
 13 14  1  0
 14 15  2  0
 15 11  1  0
 16 14  1  0
 16 20  1  0
 17 16  2  0
 18 17  1  0
 18 19  1  0
 19 20  2  0
  2 21  1  0
  3 22  1  0
  6 23  1  0
  8 24  1  0
  8 25  1  0
  8 26  1  0
  9 27  1  0
  9 28  1  0
  9 29  1  0
 10 30  1  0
 10 31  1  0
 12 32  1  0
 17 33  1  0
 19 34  1  0
M  ISO  8  21  14  22  14  23  14  24   8  25   8  26   8  27   8  28   8
M  ISO  6  29   8  30   8  31   8  32  14  33  14  34  14
M  END
>  <minimizedAffinity>  (1) 
-5.01833916

>  <minimizedRMSD>  (1) 
0.814911604

$$$$
