
     RDKit          3D

 27 28  0  0  0  0  0  0  0  0999 V2000
   36.9310   29.9290   49.8780 C   0  0  0  0  0  0  0  0  0  0  0  0
   38.0140   30.7040   49.4720 C   0  0  0  0  0  0  0  0  0  0  0  0
   38.0260   31.1500   48.1410 C   0  0  0  0  0  0  0  0  0  0  0  0
   36.9960   30.8030   47.3380 N   0  0  0  0  0  0  0  0  0  0  0  0
   35.9610   30.0430   47.7870 C   0  0  0  0  0  0  0  0  0  0  0  0
   35.9450   29.6190   49.0460 N   0  0  0  0  0  0  0  0  0  0  0  0
   39.0790   31.9330   47.6570 N   0  0  0  0  0  0  0  0  0  0  0  0
   39.0030   32.6300   46.4390 C   0  0  0  0  0  0  0  0  0  0  0  0
   37.9590   32.4500   45.6920 N   0  0  0  0  0  0  0  0  0  0  0  0
   40.0580   33.5100   46.0540 N   0  0  0  0  0  0  0  0  0  0  0  0
   37.9130   32.9650   44.7900 H   0  0  0  0  0  0  0  0  0  0  0  0
   36.9150   29.4460   51.3130 C   0  0  0  0  0  0  0  0  0  0  0  0
   35.5940   29.1620   51.6700 F   0  0  0  0  0  0  0  0  0  0  0  0
   37.7640   28.4060   51.4330 F   0  0  0  0  0  0  0  0  0  0  0  0
   37.3210   30.5280   52.1010 F   0  0  0  0  0  0  0  0  0  0  0  0
   34.8600   29.7020   46.8400 C   0  0  0  0  0  0  0  0  0  0  0  0
   33.6550   28.9450   47.3730 C   0  0  0  0  0  0  0  0  0  0  0  0
   33.5350   30.3930   46.9350 C   0  0  0  0  0  0  0  0  0  0  0  0
   38.8283   30.9569   50.1669 H   0  0  0  0  0  0  0  0  0  0  0  0
   39.9426   32.0014   48.2142 H   0  0  0  0  0  0  0  0  0  0  0  0
   40.0025   34.0209   45.1614 H   0  0  0  0  0  0  0  0  0  0  0  0
   40.8751   33.6343   46.6687 H   0  0  0  0  0  0  0  0  0  0  0  0
   35.5873   29.5535   46.0282 H   0  0  0  0  0  0  0  0  0  0  0  0
   33.1946   28.1463   46.7730 H   0  0  0  0  0  0  0  0  0  0  0  0
   33.4263   28.3827   48.2904 H   0  0  0  0  0  0  0  0  0  0  0  0
   33.3805   31.1821   47.6856 H   0  0  0  0  0  0  0  0  0  0  0  0
   32.8928   30.9376   46.2272 H   0  0  0  0  0  0  0  0  0  0  0  0
  1 12  1  0
  2  1  2  0
  3  2  1  0
  4  5  1  0
  4  3  2  0
  5  6  2  0
  6  1  1  0
  7  3  1  0
  8  7  1  0
  9  8  2  0
 10  8  1  0
 11  9  1  0
 12 14  1  0
 12 13  1  0
 12 15  1  0
 16 18  1  0
 16 17  1  0
 16  5  1  0
 18 17  1  0
  2 19  1  0
  7 20  1  0
 10 21  1  0
 10 22  1  0
 16 23  1  0
 17 24  1  0
 17 25  1  0
 18 26  1  0
 18 27  1  0
M  ISO  6  19  14  23  13  24  13  25  13  26  13  27  13
M  END
>  <minimizedAffinity>  (1) 
-6.29723978

>  <minimizedRMSD>  (1) 
0.159352735

$$$$
