
     RDKit          3D

 22 22  0  0  0  0  0  0  0  0999 V2000
   36.9020   29.9420   49.8510 C   0  0  0  0  0  0  0  0  0  0  0  0
   37.9920   30.6620   49.3980 C   0  0  0  0  0  0  0  0  0  0  0  0
   37.9890   31.1360   48.0890 C   0  0  0  0  0  0  0  0  0  0  0  0
   36.9210   30.8720   47.3200 N   0  0  0  0  0  0  0  0  0  0  0  0
   35.8600   30.1590   47.7990 C   0  0  0  0  0  0  0  0  0  0  0  0
   35.8750   29.7130   49.0480 N   0  0  0  0  0  0  0  0  0  0  0  0
   39.0940   31.8780   47.5970 N   0  0  0  0  0  0  0  0  0  0  0  0
   38.9880   32.6010   46.3780 C   0  0  0  0  0  0  0  0  0  0  0  0
   37.9350   32.4350   45.6530 N   0  0  0  0  0  0  0  0  0  0  0  0
   40.0300   33.4800   45.9870 N   0  0  0  0  0  0  0  0  0  0  0  0
   37.8750   32.9560   44.7480 H   0  0  0  0  0  0  0  0  0  0  0  0
   36.9120   29.4350   51.2630 C   0  0  0  0  0  0  0  0  0  0  0  0
   35.6070   29.1290   51.6460 F   0  0  0  0  0  0  0  0  0  0  0  0
   37.7640   28.4030   51.3680 F   0  0  0  0  0  0  0  0  0  0  0  0
   37.3340   30.5060   52.0740 F   0  0  0  0  0  0  0  0  0  0  0  0
   34.7270   29.9030   46.9170 C   0  0  0  0  0  0  0  0  0  0  0  0
   33.6340   30.4920   47.1240 O   0  0  0  0  0  0  0  0  0  0  0  0
   38.8477   30.8571   50.0611 H   0  0  0  0  0  0  0  0  0  0  0  0
   39.9776   31.8927   48.1261 H   0  0  0  0  0  0  0  0  0  0  0  0
   39.9564   34.0055   45.1042 H   0  0  0  0  0  0  0  0  0  0  0  0
   40.8604   33.5929   46.5858 H   0  0  0  0  0  0  0  0  0  0  0  0
   34.8269   29.2001   46.0768 H   0  0  0  0  0  0  0  0  0  0  0  0
  1 12  1  0
  2  1  2  0
  3  2  1  0
  4  5  1  0
  4  3  2  0
  5  6  2  0
  6  1  1  0
  7  3  1  0
  8  7  1  0
  9  8  2  0
 10  8  1  0
 11  9  1  0
 12 14  1  0
 12 13  1  0
 12 15  1  0
 16 17  2  0
 16  5  1  0
  2 18  1  0
  7 19  1  0
 10 20  1  0
 10 21  1  0
 16 22  1  0
M  ISO  2  18  14  22   6
M  END
>  <minimizedAffinity>  (1) 
-6.08759928

>  <minimizedRMSD>  (1) 
0.120586179

$$$$
