
     RDKit          3D

 14 14  0  0  0  0  0  0  0  0999 V2000
   37.2710   31.5130   49.1570 C   0  0  0  0  0  0  0  0  0  0  0  0
   38.2960   32.4800   49.3350 C   0  0  0  0  0  0  0  0  0  0  0  0
   38.9530   32.9160   48.1810 C   0  0  0  0  0  0  0  0  0  0  0  0
   38.5780   32.3960   46.9750 N   0  0  0  0  0  0  0  0  0  0  0  0
   37.6010   31.4840   46.8620 C   0  0  0  0  0  0  0  0  0  0  0  0
   36.9450   31.0390   47.9450 N   0  0  0  0  0  0  0  0  0  0  0  0
   36.6030   31.0650   50.2920 O   0  0  0  0  0  0  0  0  0  0  0  0
   37.1430   29.9570   50.9650 C   0  0  0  0  0  0  0  0  0  0  0  0
   37.0640   28.8160   50.4410 O   0  0  0  0  0  0  0  0  0  0  0  0
   37.7940   29.8750   52.1880 O   0  0  0  0  0  0  0  0  0  0  0  0
   38.5594   32.8662   50.3307 H   0  0  0  0  0  0  0  0  0  0  0  0
   39.7571   33.6640   48.2429 H   0  0  0  0  0  0  0  0  0  0  0  0
   37.3338   31.0955   45.8682 H   0  0  0  0  0  0  0  0  0  0  0  0
   38.1163   28.9996   52.5195 H   0  0  0  0  0  0  0  0  0  0  0  0
  1  2  2  0
  1  7  1  0
  3  2  1  0
  4  3  2  0
  5  4  1  0
  5  6  2  0
  6  1  1  0
  7  8  1  0
  8 10  1  0
  9  8  2  0
  2 11  1  0
  3 12  1  0
  5 13  1  0
 10 14  1  0
M  ISO  4  11  14  12  14  13  14  14   3
M  END
>  <minimizedAffinity>  (1) 
-3.80222988

>  <minimizedRMSD>  (1) 
2.61595488

$$$$
