
     RDKit          3D

 27 28  0  0  0  0  0  0  0  0999 V2000
   37.9330   30.9420   49.4440 C   0  0  0  0  0  0  0  0  0  0  0  0
   38.1100   32.2330   50.0200 C   0  0  0  0  0  0  0  0  0  0  0  0
   38.6810   33.2260   49.2390 C   0  0  0  0  0  0  0  0  0  0  0  0
   39.0390   32.9050   47.9690 N   0  0  0  0  0  0  0  0  0  0  0  0
   38.8600   31.6800   47.4550 C   0  0  0  0  0  0  0  0  0  0  0  0
   38.3120   30.6990   48.1790 N   0  0  0  0  0  0  0  0  0  0  0  0
   39.2660   31.4330   46.1130 N   0  0  0  0  0  0  0  0  0  0  0  0
   38.9640   30.2740   45.5000 C   0  0  0  0  0  0  0  0  0  0  0  0
   39.4030   30.1230   44.1870 C   0  0  0  0  0  0  0  0  0  0  0  0
   39.1340   28.8950   43.4090 C   0  0  0  0  0  0  0  0  0  0  0  0
   40.1190   31.1260   43.5460 C   0  0  0  0  0  0  0  0  0  0  0  0
   40.5220   30.9910   42.3450 O   0  0  0  0  0  0  0  0  0  0  0  0
   40.4070   32.2690   44.1740 N   0  0  0  0  0  0  0  0  0  0  0  0
   39.9710   32.3820   45.4340 C   0  0  0  0  0  0  0  0  0  0  0  0
   40.2250   33.4450   46.0550 O   0  0  0  0  0  0  0  0  0  0  0  0
   37.3620   29.9610   50.2310 O   0  0  0  0  0  0  0  0  0  0  0  0
   36.0030   29.6640   50.2880 C   0  0  0  0  0  0  0  0  0  0  0  0
   35.5750   29.2500   51.5350 F   0  0  0  0  0  0  0  0  0  0  0  0
   35.1930   30.6690   49.8080 F   0  0  0  0  0  0  0  0  0  0  0  0
   35.8170   28.5840   49.4290 F   0  0  0  0  0  0  0  0  0  0  0  0
   37.8020   32.4364   51.0562 H   0  0  0  0  0  0  0  0  0  0  0  0
   38.8388   34.2401   49.6349 H   0  0  0  0  0  0  0  0  0  0  0  0
   38.3968   29.4827   46.0120 H   0  0  0  0  0  0  0  0  0  0  0  0
   38.9505   28.0573   44.0979 H   0  0  0  0  0  0  0  0  0  0  0  0
   38.2483   29.0492   42.7751 H   0  0  0  0  0  0  0  0  0  0  0  0
   40.0030   28.6648   42.7751 H   0  0  0  0  0  0  0  0  0  0  0  0
   40.9363   33.0230   43.7132 H   0  0  0  0  0  0  0  0  0  0  0  0
  1  2  2  0
  1 16  1  0
  3  2  1  0
  4  3  2  0
  5  4  1  0
  5  6  2  0
  6  1  1  0
  7  5  1  0
  8  7  1  0
  9  8  2  0
 10  9  1  0
 11 13  1  0
 11  9  1  0
 12 11  2  0
 13 14  1  0
 14 15  2  0
 14  7  1  0
 16 17  1  0
 17 18  1  0
 19 17  1  0
 20 17  1  0
  2 21  1  0
  3 22  1  0
  8 23  1  0
 10 24  1  0
 10 25  1  0
 10 26  1  0
 13 27  1  0
M  ISO  7  21  14  22  14  23  14  24   8  25   8  26   8  27   9
M  END
>  <minimizedAffinity>  (1) 
-6.67839336

>  <minimizedRMSD>  (1) 
1.09831345

$$$$
