
     RDKit          3D

 28 30  0  0  0  0  0  0  0  0999 V2000
   37.4590   30.4480   49.0180 C   0  0  0  0  0  0  0  0  0  0  0  0
   37.4560   31.6230   49.8220 C   0  0  0  0  0  0  0  0  0  0  0  0
   38.1340   32.7420   49.3290 C   0  0  0  0  0  0  0  0  0  0  0  0
   38.7490   32.6420   48.1220 N   0  0  0  0  0  0  0  0  0  0  0  0
   38.7230   31.5170   47.4040 C   0  0  0  0  0  0  0  0  0  0  0  0
   38.0860   30.4160   47.8360 N   0  0  0  0  0  0  0  0  0  0  0  0
   39.3990   31.4550   46.1100 C   0  0  0  0  0  0  0  0  0  0  0  0
   40.7030   31.0270   45.8520 C   0  0  0  0  0  0  0  0  0  0  0  0
   40.8970   31.1420   44.5090 N   0  0  0  0  0  0  0  0  0  0  0  0
   39.7920   31.6170   43.9100 C   0  0  0  0  0  0  0  0  0  0  0  0
   39.6020   31.8690   42.5660 C   0  0  0  0  0  0  0  0  0  0  0  0
   38.3480   32.3670   42.1970 C   0  0  0  0  0  0  0  0  0  0  0  0
   37.3530   32.5900   43.1490 C   0  0  0  0  0  0  0  0  0  0  0  0
   37.6200   32.3110   44.4890 C   0  0  0  0  0  0  0  0  0  0  0  0
   38.8400   31.8220   44.8870 C   0  0  0  0  0  0  0  0  0  0  0  0
   36.7920   29.3430   49.4990 O   0  0  0  0  0  0  0  0  0  0  0  0
   35.5460   29.3670   50.1350 C   0  0  0  0  0  0  0  0  0  0  0  0
   35.6350   29.3820   51.5190 F   0  0  0  0  0  0  0  0  0  0  0  0
   34.7120   30.3520   49.7050 F   0  0  0  0  0  0  0  0  0  0  0  0
   34.9230   28.1620   49.7910 F   0  0  0  0  0  0  0  0  0  0  0  0
   36.9403   31.6494   50.7933 H   0  0  0  0  0  0  0  0  0  0  0  0
   38.1685   33.6792   49.9038 H   0  0  0  0  0  0  0  0  0  0  0  0
   41.4331   30.6663   46.5915 H   0  0  0  0  0  0  0  0  0  0  0  0
   41.7702   30.8985   44.0199 H   0  0  0  0  0  0  0  0  0  0  0  0
   40.3944   31.6878   41.8249 H   0  0  0  0  0  0  0  0  0  0  0  0
   38.1431   32.5864   41.1388 H   0  0  0  0  0  0  0  0  0  0  0  0
   36.3703   32.9809   42.8465 H   0  0  0  0  0  0  0  0  0  0  0  0
   36.8377   32.4861   45.2423 H   0  0  0  0  0  0  0  0  0  0  0  0
  1 16  1  0
  1  2  2  0
  3  2  1  0
  4  3  2  0
  5  6  2  0
  5  4  1  0
  6  1  1  0
  7  5  1  0
  8  7  2  0
  9  8  1  0
 10  9  1  0
 10 15  2  0
 11 10  1  0
 12 11  2  0
 12 13  1  0
 13 14  2  0
 14 15  1  0
 15  7  1  0
 16 17  1  0
 17 18  1  0
 19 17  1  0
 20 17  1  0
  2 21  1  0
  3 22  1  0
  8 23  1  0
  9 24  1  0
 11 25  1  0
 12 26  1  0
 13 27  1  0
 14 28  1  0
M  ISO  8  21  14  22  14  23  14  24   9  25  14  26  14  27  14  28  14
M  END
>  <minimizedAffinity>  (1) 
-6.3742609

>  <minimizedRMSD>  (1) 
1.25191271

$$$$
