
     RDKit          3D

 21 22  0  0  0  0  0  0  0  0999 V2000
   37.3640   30.5760   49.1310 C   0  0  0  0  0  0  0  0  0  0  0  0
   37.1830   31.7240   49.9320 C   0  0  0  0  0  0  0  0  0  0  0  0
   37.7940   32.9120   49.5400 C   0  0  0  0  0  0  0  0  0  0  0  0
   38.5380   32.9150   48.4010 N   0  0  0  0  0  0  0  0  0  0  0  0
   38.6850   31.8090   47.6710 C   0  0  0  0  0  0  0  0  0  0  0  0
   38.1120   30.6530   48.0190 N   0  0  0  0  0  0  0  0  0  0  0  0
   39.4470   31.7220   46.4620 N   0  0  0  0  0  0  0  0  0  0  0  0
   39.8460   30.7970   45.5730 C   0  0  0  0  0  0  0  0  0  0  0  0
   40.5890   31.4400   44.6070 C   0  0  0  0  0  0  0  0  0  0  0  0
   40.6330   32.7670   44.9250 N   0  0  0  0  0  0  0  0  0  0  0  0
   39.9250   32.9370   46.0720 C   0  0  0  0  0  0  0  0  0  0  0  0
   36.7600   29.4030   49.5180 O   0  0  0  0  0  0  0  0  0  0  0  0
   35.5120   29.3160   50.1430 C   0  0  0  0  0  0  0  0  0  0  0  0
   35.6010   29.3040   51.5240 F   0  0  0  0  0  0  0  0  0  0  0  0
   34.6150   30.2800   49.7430 F   0  0  0  0  0  0  0  0  0  0  0  0
   34.9710   28.0880   49.7670 F   0  0  0  0  0  0  0  0  0  0  0  0
   36.5725   31.6810   50.8460 H   0  0  0  0  0  0  0  0  0  0  0  0
   37.6778   33.8279   50.1380 H   0  0  0  0  0  0  0  0  0  0  0  0
   39.6203   29.7210   45.6097 H   0  0  0  0  0  0  0  0  0  0  0  0
   41.0629   30.9676   43.7339 H   0  0  0  0  0  0  0  0  0  0  0  0
   39.7652   33.8911   46.5956 H   0  0  0  0  0  0  0  0  0  0  0  0
  1 12  1  0
  1  2  2  0
  3  2  1  0
  4  3  2  0
  5  6  2  0
  5  4  1  0
  6  1  1  0
  7  5  1  0
  8  7  1  0
  9 10  1  0
  9  8  2  0
 10 11  2  0
 11  7  1  0
 12 13  1  0
 13 14  1  0
 15 13  1  0
 16 13  1  0
  2 17  1  0
  3 18  1  0
  8 19  1  0
  9 20  1  0
 11 21  1  0
M  ISO  5  17  14  18  14  19  14  20  14  21  14
M  END
>  <minimizedAffinity>  (1) 
-6.01182079

>  <minimizedRMSD>  (1) 
1.59434092

$$$$
