
     RDKit          3D

 21 22  0  0  0  0  0  0  0  0999 V2000
   37.2470   30.5230   49.1510 C   0  0  0  0  0  0  0  0  0  0  0  0
   37.0480   31.6720   49.9470 C   0  0  0  0  0  0  0  0  0  0  0  0
   37.6890   32.8510   49.5830 C   0  0  0  0  0  0  0  0  0  0  0  0
   38.4780   32.8360   48.4720 N   0  0  0  0  0  0  0  0  0  0  0  0
   38.6440   31.7310   47.7410 C   0  0  0  0  0  0  0  0  0  0  0  0
   38.0460   30.5750   48.0560 N   0  0  0  0  0  0  0  0  0  0  0  0
   39.5030   31.7800   46.5630 C   0  0  0  0  0  0  0  0  0  0  0  0
   39.7200   32.8710   45.7310 C   0  0  0  0  0  0  0  0  0  0  0  0
   40.5870   32.5150   44.7410 N   0  0  0  0  0  0  0  0  0  0  0  0
   40.9220   31.2110   44.9350 C   0  0  0  0  0  0  0  0  0  0  0  0
   40.2500   30.8180   46.0320 N   0  0  0  0  0  0  0  0  0  0  0  0
   36.6200   29.3580   49.5000 O   0  0  0  0  0  0  0  0  0  0  0  0
   35.4010   29.2550   50.1550 C   0  0  0  0  0  0  0  0  0  0  0  0
   35.5230   29.2370   51.5350 F   0  0  0  0  0  0  0  0  0  0  0  0
   34.4800   30.1970   49.7760 F   0  0  0  0  0  0  0  0  0  0  0  0
   34.8640   28.0270   49.7720 F   0  0  0  0  0  0  0  0  0  0  0  0
   36.4003   31.6353   50.8353 H   0  0  0  0  0  0  0  0  0  0  0  0
   37.5628   33.7695   50.1749 H   0  0  0  0  0  0  0  0  0  0  0  0
   39.2644   33.8649   45.8518 H   0  0  0  0  0  0  0  0  0  0  0  0
   41.6026   30.6029   44.3210 H   0  0  0  0  0  0  0  0  0  0  0  0
   40.3087   29.8663   46.4215 H   0  0  0  0  0  0  0  0  0  0  0  0
  1 12  1  0
  1  2  2  0
  3  2  1  0
  4  3  2  0
  5  6  2  0
  5  4  1  0
  6  1  1  0
  7  5  1  0
  8  7  2  0
  9 10  2  0
  9  8  1  0
 10 11  1  0
 11  7  1  0
 12 13  1  0
 13 14  1  0
 15 13  1  0
 16 13  1  0
  2 17  1  0
  3 18  1  0
  8 19  1  0
 10 20  1  0
 11 21  1  0
M  ISO  5  17  14  18  14  19  14  20  14  21   9
M  END
>  <minimizedAffinity>  (1) 
-5.92628241

>  <minimizedRMSD>  (1) 
1.68317628

$$$$
