
     RDKit          3D

 21 21  0  0  0  0  0  0  0  0999 V2000
   38.0610   30.8460   49.1360 C   0  0  0  0  0  0  0  0  0  0  0  0
   38.3490   32.0980   49.7250 C   0  0  0  0  0  0  0  0  0  0  0  0
   38.8180   33.1130   48.8980 C   0  0  0  0  0  0  0  0  0  0  0  0
   38.9790   32.8630   47.5700 N   0  0  0  0  0  0  0  0  0  0  0  0
   38.6920   31.6560   47.0560 C   0  0  0  0  0  0  0  0  0  0  0  0
   38.2380   30.6510   47.8150 N   0  0  0  0  0  0  0  0  0  0  0  0
   38.8660   31.4060   45.6570 N   0  0  0  0  0  0  0  0  0  0  0  0
   40.1620   31.2200   45.0690 C   0  0  0  0  0  0  0  0  0  0  0  0
   41.0630   30.7150   45.8460 N   0  0  0  0  0  0  0  0  0  0  0  0
   40.4010   31.5820   43.7160 N   0  0  0  0  0  0  0  0  0  0  0  0
   42.0150   30.5660   45.4520 H   0  0  0  0  0  0  0  0  0  0  0  0
   37.5980   29.8480   49.9590 O   0  0  0  0  0  0  0  0  0  0  0  0
   36.2770   29.6550   50.3370 C   0  0  0  0  0  0  0  0  0  0  0  0
   36.0880   29.4670   51.6880 F   0  0  0  0  0  0  0  0  0  0  0  0
   35.4200   30.6230   49.8670 F   0  0  0  0  0  0  0  0  0  0  0  0
   35.8780   28.4530   49.7170 F   0  0  0  0  0  0  0  0  0  0  0  0
   38.2068   32.2643   50.8030 H   0  0  0  0  0  0  0  0  0  0  0  0
   39.0555   34.1042   49.3116 H   0  0  0  0  0  0  0  0  0  0  0  0
   38.0334   31.3580   45.0525 H   0  0  0  0  0  0  0  0  0  0  0  0
   41.3346   31.4445   43.3033 H   0  0  0  0  0  0  0  0  0  0  0  0
   39.6406   31.9819   43.1479 H   0  0  0  0  0  0  0  0  0  0  0  0
  1  2  2  0
  1 12  1  0
  3  2  1  0
  4  3  2  0
  5  4  1  0
  5  6  2  0
  6  1  1  0
  7  5  1  0
  8  7  1  0
  8  9  2  0
 10  8  1  0
 11  9  1  0
 12 13  1  0
 13 14  1  0
 15 13  1  0
 16 13  1  0
  2 17  1  0
  3 18  1  0
  7 19  1  0
 10 20  1  0
 10 21  1  0
M  ISO  2  17  14  18  14
M  END
>  <minimizedAffinity>  (1) 
-5.76362181

>  <minimizedRMSD>  (1) 
0.577279449

$$$$
