
     RDKit          3D

 35 37  0  0  0  0  0  0  0  0999 V2000
   39.2240   32.3140   46.0950 C   0  0  0  0  0  0  0  0  0  0  0  0
   37.7020   32.4300   49.5650 C   0  0  0  0  0  0  0  0  0  0  0  0
   38.5590   32.7420   48.4990 C   0  0  0  0  0  0  0  0  0  0  0  0
   38.3900   32.0770   47.2860 C   0  0  0  0  0  0  0  0  0  0  0  0
   37.3840   31.1450   47.2030 N   0  0  0  0  0  0  0  0  0  0  0  0
   36.5730   30.8620   48.2390 C   0  0  0  0  0  0  0  0  0  0  0  0
   36.7180   31.4890   49.4110 N   0  0  0  0  0  0  0  0  0  0  0  0
   40.0950   31.0640   45.9130 C   0  0  0  0  0  0  0  0  0  0  0  0
   40.1140   33.5030   46.1940 C   0  0  0  0  0  0  0  0  0  0  0  0
   38.3140   32.4350   44.9100 C   0  0  0  0  0  0  0  0  0  0  0  0
   38.8120   31.7040   43.7130 C   0  0  0  0  0  0  0  0  0  0  0  0
   39.5990   32.3930   42.7190 C   0  0  0  0  0  0  0  0  0  0  0  0
   39.9250   31.0480   41.5170 S   0  0  0  0  0  0  0  0  0  0  0  0
   38.9480   29.8080   42.5630 C   0  0  0  0  0  0  0  0  0  0  0  0
   38.6100   30.4330   43.4370 N   0  0  0  0  0  0  0  0  0  0  0  0
   38.8450   28.3840   42.0460 C   0  0  0  0  0  0  0  0  0  0  0  0
   39.1190   27.3350   43.0580 C   0  0  0  0  0  0  0  0  0  0  0  0
   40.0990   27.6270   41.9790 C   0  0  0  0  0  0  0  0  0  0  0  0
   37.8207   32.9439   50.5303 H   0  0  0  0  0  0  0  0  0  0  0  0
   39.3496   33.4974   48.6184 H   0  0  0  0  0  0  0  0  0  0  0  0
   35.7822   30.1066   48.1203 H   0  0  0  0  0  0  0  0  0  0  0  0
   40.3735   30.6644   46.8993 H   0  0  0  0  0  0  0  0  0  0  0  0
   39.5311   30.3023   45.3546 H   0  0  0  0  0  0  0  0  0  0  0  0
   41.0049   31.3292   45.3546 H   0  0  0  0  0  0  0  0  0  0  0  0
   40.2919   33.7407   47.2532 H   0  0  0  0  0  0  0  0  0  0  0  0
   41.0729   33.2853   45.7010 H   0  0  0  0  0  0  0  0  0  0  0  0
   39.6349   34.3617   45.7010 H   0  0  0  0  0  0  0  0  0  0  0  0
   37.3286   32.0294   45.1828 H   0  0  0  0  0  0  0  0  0  0  0  0
   38.2621   33.5012   44.6445 H   0  0  0  0  0  0  0  0  0  0  0  0
   39.9183   33.4452   42.6902 H   0  0  0  0  0  0  0  0  0  0  0  0
   38.0351   28.5929   41.3316 H   0  0  0  0  0  0  0  0  0  0  0  0
   39.3425   27.6157   44.0978 H   0  0  0  0  0  0  0  0  0  0  0  0
   38.5941   26.4373   43.4166 H   0  0  0  0  0  0  0  0  0  0  0  0
   40.2584   26.8988   41.1701 H   0  0  0  0  0  0  0  0  0  0  0  0
   41.1659   27.8935   41.9509 H   0  0  0  0  0  0  0  0  0  0  0  0
  1  9  1  0
  1  4  1  0
  3  2  2  0
  4  3  1  0
  5  4  2  0
  5  6  1  0
  6  7  2  0
  7  2  1  0
  8  1  1  0
 10  1  1  0
 11 10  1  0
 12 11  2  0
 13 14  1  0
 13 12  1  0
 14 15  2  0
 15 11  1  0
 16 14  1  0
 16 17  1  0
 18 16  1  0
 18 17  1  0
  2 19  1  0
  3 20  1  0
  6 21  1  0
  8 22  1  0
  8 23  1  0
  8 24  1  0
  9 25  1  0
  9 26  1  0
  9 27  1  0
 10 28  1  0
 10 29  1  0
 12 30  1  0
 16 31  1  0
 17 32  1  0
 17 33  1  0
 18 34  1  0
 18 35  1  0
M  ISO  8  19  14  20  14  21  14  22   8  23   8  24   8  25   8  26   8
M  ISO  8  27   8  28   8  29   8  30  14  31  13  32  13  33  13  34  13
M  ISO  1  35  13
M  END
>  <minimizedAffinity>  (1) 
-4.88721609

>  <minimizedRMSD>  (1) 
1.09880877

$$$$
