
     RDKit          3D

 20 20  0  0  0  0  0  0  0  0999 V2000
   37.5280   30.3560   49.4070 C   0  0  0  0  0  0  0  0  0  0  0  0
   37.8410   31.5290   50.1300 C   0  0  0  0  0  0  0  0  0  0  0  0
   38.4960   32.5590   49.4540 C   0  0  0  0  0  0  0  0  0  0  0  0
   38.7990   32.3830   48.1360 N   0  0  0  0  0  0  0  0  0  0  0  0
   38.4770   31.2480   47.5020 C   0  0  0  0  0  0  0  0  0  0  0  0
   37.8550   30.2450   48.1070 N   0  0  0  0  0  0  0  0  0  0  0  0
   36.8870   29.3550   50.0840 O   0  0  0  0  0  0  0  0  0  0  0  0
   35.5120   29.3090   50.3560 C   0  0  0  0  0  0  0  0  0  0  0  0
   35.2400   29.1570   51.7080 F   0  0  0  0  0  0  0  0  0  0  0  0
   34.8180   30.3610   49.8350 F   0  0  0  0  0  0  0  0  0  0  0  0
   35.0320   28.1600   49.7280 F   0  0  0  0  0  0  0  0  0  0  0  0
   38.8040   31.0320   46.0460 C   0  0  0  0  0  0  0  0  0  0  0  0
   40.2710   31.1990   45.7940 C   0  0  0  0  0  0  0  0  0  0  0  0
   37.5764   31.6271   51.1932 H   0  0  0  0  0  0  0  0  0  0  0  0
   38.7620   33.4920   49.9725 H   0  0  0  0  0  0  0  0  0  0  0  0
   38.5031   30.0142   45.7571 H   0  0  0  0  0  0  0  0  0  0  0  0
   38.2591   31.7791   45.4502 H   0  0  0  0  0  0  0  0  0  0  0  0
   40.8035   31.2596   46.7546 H   0  0  0  0  0  0  0  0  0  0  0  0
   40.6450   30.3376   45.2212 H   0  0  0  0  0  0  0  0  0  0  0  0
   40.4419   32.1224   45.2212 H   0  0  0  0  0  0  0  0  0  0  0  0
  1  7  1  0
  1  2  2  0
  3  2  1  0
  4  3  2  0
  5  6  2  0
  5  4  1  0
  6  1  1  0
  7  8  1  0
  8  9  1  0
 10  8  1  0
 11  8  1  0
 12  5  1  0
 13 12  1  0
  2 14  1  0
  3 15  1  0
 12 16  1  0
 12 17  1  0
 13 18  1  0
 13 19  1  0
 13 20  1  0
M  ISO  7  14  14  15  14  16   8  17   8  18   8  19   8  20   8
M  END
>  <minimizedAffinity>  (1) 
-4.86610508

>  <minimizedRMSD>  (1) 
0.912358046

$$$$
