
     RDKit          3D

 17 18  0  0  0  0  0  0  0  0999 V2000
   38.8390   32.9610   48.4170 C   0  0  0  0  0  0  0  0  0  0  0  0
   39.2490   32.5100   47.1550 C   0  0  0  0  0  0  0  0  0  0  0  0
   38.8150   31.2470   46.7270 C   0  0  0  0  0  0  0  0  0  0  0  0
   38.0200   30.5250   47.5570 N   0  0  0  0  0  0  0  0  0  0  0  0
   37.6380   30.9830   48.7680 C   0  0  0  0  0  0  0  0  0  0  0  0
   38.0430   32.1900   49.1950 N   0  0  0  0  0  0  0  0  0  0  0  0
   36.8050   30.2490   49.6580 N   0  0  0  0  0  0  0  0  0  0  0  0
   35.8090   29.5340   49.0680 C   0  0  0  0  0  0  0  0  0  0  0  0
   35.1110   28.8930   50.0920 C   0  0  0  0  0  0  0  0  0  0  0  0
   35.6830   29.2250   51.2490 N   0  0  0  0  0  0  0  0  0  0  0  0
   36.7100   30.0480   50.9870 C   0  0  0  0  0  0  0  0  0  0  0  0
   39.1659   33.9474   48.7777 H   0  0  0  0  0  0  0  0  0  0  0  0
   39.8947   33.1308   46.5165 H   0  0  0  0  0  0  0  0  0  0  0  0
   39.1112   30.8517   45.7441 H   0  0  0  0  0  0  0  0  0  0  0  0
   35.5952   29.4730   47.9907 H   0  0  0  0  0  0  0  0  0  0  0  0
   34.2419   28.2305   49.9665 H   0  0  0  0  0  0  0  0  0  0  0  0
   37.3742   30.4917   51.7432 H   0  0  0  0  0  0  0  0  0  0  0  0
  1  6  2  0
  2  1  1  0
  3  2  2  0
  3  4  1  0
  4  5  2  0
  5  6  1  0
  5  7  1  0
  7 11  1  0
  8  7  1  0
  8  9  2  0
  9 10  1  0
 11 10  2  0
  1 12  1  0
  2 13  1  0
  3 14  1  0
  8 15  1  0
  9 16  1  0
 11 17  1  0
M  ISO  6  12  14  13  14  14  14  15  14  16  14  17  14
M  END
>  <minimizedAffinity>  (1) 
-4.0737009

>  <minimizedRMSD>  (1) 
3.26021647

$$$$
