
     RDKit          3D

 15 15  0  0  0  0  0  0  0  0999 V2000
   37.9910   30.9800   49.3360 C   0  0  0  0  0  0  0  0  0  0  0  0
   38.3460   32.3080   49.6600 C   0  0  0  0  0  0  0  0  0  0  0  0
   38.8530   33.1320   48.6680 C   0  0  0  0  0  0  0  0  0  0  0  0
   38.9820   32.6020   47.4140 N   0  0  0  0  0  0  0  0  0  0  0  0
   38.6390   31.3440   47.1380 C   0  0  0  0  0  0  0  0  0  0  0  0
   38.1460   30.5220   48.0700 N   0  0  0  0  0  0  0  0  0  0  0  0
   38.7960   30.6230   45.5090 S   0  0  0  0  0  0  0  0  0  0  0  0
   37.4880   30.1720   50.3320 O   0  0  0  0  0  0  0  0  0  0  0  0
   36.1590   29.7540   50.4380 C   0  0  0  0  0  0  0  0  0  0  0  0
   35.7890   29.4070   51.7130 F   0  0  0  0  0  0  0  0  0  0  0  0
   35.2510   30.6480   49.9120 F   0  0  0  0  0  0  0  0  0  0  0  0
   36.0570   28.6040   49.6580 F   0  0  0  0  0  0  0  0  0  0  0  0
   38.2216   32.6833   50.6865 H   0  0  0  0  0  0  0  0  0  0  0  0
   39.1406   34.1722   48.8810 H   0  0  0  0  0  0  0  0  0  0  0  0
   39.0864   29.2893   45.6260 H   0  0  0  0  0  0  0  0  0  0  0  0
  1  2  2  0
  1  8  1  0
  3  2  1  0
  4  3  2  0
  5  4  1  0
  5  6  2  0
  6  1  1  0
  7  5  1  0
  8  9  1  0
  9 10  1  0
 11  9  1  0
 12  9  1  0
  2 13  1  0
  3 14  1  0
  7 15  1  0
M  ISO  3  13  14  14  14  15  11
M  END
>  <minimizedAffinity>  (1) 
-4.56145144

>  <minimizedRMSD>  (1) 
0.134907112

$$$$
