
     RDKit          3D

 15 15  0  0  0  0  0  0  0  0999 V2000
   37.9520   30.9300   49.2830 C   0  0  0  0  0  0  0  0  0  0  0  0
   38.3610   32.2700   49.5640 C   0  0  0  0  0  0  0  0  0  0  0  0
   38.8680   33.0330   48.5110 C   0  0  0  0  0  0  0  0  0  0  0  0
   38.9440   32.4640   47.2830 N   0  0  0  0  0  0  0  0  0  0  0  0
   38.5450   31.1950   47.0590 C   0  0  0  0  0  0  0  0  0  0  0  0
   38.0580   30.4330   48.0280 N   0  0  0  0  0  0  0  0  0  0  0  0
   38.6900   30.7670   45.7460 O   0  0  0  0  0  0  0  0  0  0  0  0
   37.4600   30.2040   50.3290 O   0  0  0  0  0  0  0  0  0  0  0  0
   36.1380   29.7500   50.4470 C   0  0  0  0  0  0  0  0  0  0  0  0
   35.8000   29.4270   51.7490 F   0  0  0  0  0  0  0  0  0  0  0  0
   35.2200   30.6120   49.9250 F   0  0  0  0  0  0  0  0  0  0  0  0
   36.0530   28.5860   49.6890 F   0  0  0  0  0  0  0  0  0  0  0  0
   38.2788   32.6872   50.5785 H   0  0  0  0  0  0  0  0  0  0  0  0
   39.1976   34.0698   48.6735 H   0  0  0  0  0  0  0  0  0  0  0  0
   38.4218   29.8484   45.4923 H   0  0  0  0  0  0  0  0  0  0  0  0
  1  2  2  0
  1  8  1  0
  3  2  1  0
  4  3  2  0
  5  4  1  0
  5  6  2  0
  6  1  1  0
  7  5  1  0
  8  9  1  0
  9 10  1  0
 11  9  1  0
 12  9  1  0
  2 13  1  0
  3 14  1  0
  7 15  1  0
M  ISO  3  13  14  14  14  15   3
M  END
>  <minimizedAffinity>  (1) 
-4.51743269

>  <minimizedRMSD>  (1) 
0.0578013323

$$$$
