
     RDKit          3D

 24 25  0  0  0  0  0  0  0  0999 V2000
   39.1650   31.1760   46.4100 C   0  0  0  0  0  0  0  0  0  0  0  0
   38.0300   30.3850   46.7350 C   0  0  0  0  0  0  0  0  0  0  0  0
   37.2670   30.7540   47.8300 C   0  0  0  0  0  0  0  0  0  0  0  0
   37.6430   31.8410   48.5270 N   0  0  0  0  0  0  0  0  0  0  0  0
   38.7120   32.5750   48.2090 C   0  0  0  0  0  0  0  0  0  0  0  0
   39.4390   32.2260   47.1680 N   0  0  0  0  0  0  0  0  0  0  0  0
   36.0980   30.0070   48.2300 C   0  0  0  0  0  0  0  0  0  0  0  0
   34.8670   29.7530   47.6790 C   0  0  0  0  0  0  0  0  0  0  0  0
   33.9820   28.9850   48.3500 C   0  0  0  0  0  0  0  0  0  0  0  0
   34.3650   28.4760   49.5960 C   0  0  0  0  0  0  0  0  0  0  0  0
   36.0390   29.1000   49.8380 S   0  0  0  0  0  0  0  0  0  0  0  0
   38.9930   33.7470   49.0800 C   0  0  0  0  0  0  0  0  0  0  0  0
   37.8140   34.4070   49.3950 F   0  0  0  0  0  0  0  0  0  0  0  0
   39.5170   33.3090   50.2750 F   0  0  0  0  0  0  0  0  0  0  0  0
   39.9150   34.6190   48.5100 F   0  0  0  0  0  0  0  0  0  0  0  0
   39.9070   30.7920   45.3190 O   0  0  0  0  0  0  0  0  0  0  0  0
   40.3040   31.6350   44.2800 C   0  0  0  0  0  0  0  0  0  0  0  0
   39.2310   32.1550   43.5820 F   0  0  0  0  0  0  0  0  0  0  0  0
   41.1820   32.6100   44.6500 F   0  0  0  0  0  0  0  0  0  0  0  0
   41.0040   30.8100   43.3810 F   0  0  0  0  0  0  0  0  0  0  0  0
   37.7648   29.5034   46.1330 H   0  0  0  0  0  0  0  0  0  0  0  0
   34.6030   30.1724   46.6970 H   0  0  0  0  0  0  0  0  0  0  0  0
   32.9894   28.7659   47.9296 H   0  0  0  0  0  0  0  0  0  0  0  0
   33.7777   27.8394   50.2741 H   0  0  0  0  0  0  0  0  0  0  0  0
  1  2  2  0
  1  6  1  0
  2  3  1  0
  3  7  1  0
  3  4  2  0
  5  4  1  0
  5 12  1  0
  6  5  2  0
  7 11  1  0
  8  7  2  0
  8  9  1  0
  9 10  2  0
 10 11  1  0
 12 13  1  0
 12 14  1  0
 15 12  1  0
 16  1  1  0
 17 19  1  0
 17 16  1  0
 18 17  1  0
 20 17  1  0
  2 21  1  0
  8 22  1  0
  9 23  1  0
 10 24  1  0
M  ISO  4  21  14  22  14  23  14  24  14
M  END
>  <minimizedAffinity>  (1) 
-5.94290066

>  <minimizedRMSD>  (1) 
6.06029654

$$$$
