
     RDKit          3D

 29 30  0  0  0  0  0  0  0  0999 V2000
   36.8580   30.0420   48.4850 C   0  0  0  0  0  0  0  0  0  0  0  0
   37.9340   30.6330   47.7700 C   0  0  0  0  0  0  0  0  0  0  0  0
   37.7200   30.9460   46.4290 C   0  0  0  0  0  0  0  0  0  0  0  0
   36.5120   30.6720   45.8930 N   0  0  0  0  0  0  0  0  0  0  0  0
   35.5100   30.1100   46.5990 C   0  0  0  0  0  0  0  0  0  0  0  0
   35.6980   29.8060   47.8740 N   0  0  0  0  0  0  0  0  0  0  0  0
   38.7120   31.5400   45.5980 N   0  0  0  0  0  0  0  0  0  0  0  0
   39.0650   31.1620   44.2420 C   0  0  0  0  0  0  0  0  0  0  0  0
   40.5820   31.1530   44.3930 C   0  0  0  0  0  0  0  0  0  0  0  0
   40.7750   32.5330   44.9850 C   0  0  0  0  0  0  0  0  0  0  0  0
   39.5900   32.6510   45.9110 C   0  0  0  0  0  0  0  0  0  0  0  0
   34.2500   29.8760   45.8590 C   0  0  0  0  0  0  0  0  0  0  0  0
   33.1890   30.5080   46.4870 F   0  0  0  0  0  0  0  0  0  0  0  0
   34.3310   30.4560   44.6020 F   0  0  0  0  0  0  0  0  0  0  0  0
   33.9970   28.5250   45.6670 F   0  0  0  0  0  0  0  0  0  0  0  0
   37.0830   29.7360   49.8100 O   0  0  0  0  0  0  0  0  0  0  0  0
   37.3570   30.6580   50.8100 C   0  0  0  0  0  0  0  0  0  0  0  0
   38.7060   30.9530   50.9360 F   0  0  0  0  0  0  0  0  0  0  0  0
   36.6230   31.8250   50.7260 F   0  0  0  0  0  0  0  0  0  0  0  0
   36.9760   30.0480   52.0100 F   0  0  0  0  0  0  0  0  0  0  0  0
   38.8995   30.8359   48.2565 H   0  0  0  0  0  0  0  0  0  0  0  0
   38.7270   31.9045   43.5042 H   0  0  0  0  0  0  0  0  0  0  0  0
   38.6173   30.2259   43.8768 H   0  0  0  0  0  0  0  0  0  0  0  0
   40.9229   30.3609   45.0759 H   0  0  0  0  0  0  0  0  0  0  0  0
   41.1460   30.9535   43.4699 H   0  0  0  0  0  0  0  0  0  0  0  0
   41.7227   32.6002   45.5394 H   0  0  0  0  0  0  0  0  0  0  0  0
   40.8284   33.3330   44.2319 H   0  0  0  0  0  0  0  0  0  0  0  0
   39.0699   33.6056   45.7432 H   0  0  0  0  0  0  0  0  0  0  0  0
   39.9041   32.6257   46.9649 H   0  0  0  0  0  0  0  0  0  0  0  0
  1 16  1  0
  2  1  2  0
  3  2  1  0
  4  3  2  0
  4  5  1  0
  5  6  2  0
  6  1  1  0
  7 11  1  0
  7  3  1  0
  8  9  1  0
  8  7  1  0
  9 10  1  0
 10 11  1  0
 12 13  1  0
 12  5  1  0
 14 12  1  0
 15 12  1  0
 16 17  1  0
 17 18  1  0
 17 20  1  0
 19 17  1  0
  2 21  1  0
  8 22  1  0
  8 23  1  0
  9 24  1  0
  9 25  1  0
 10 26  1  0
 10 27  1  0
 11 28  1  0
 11 29  1  0
M  ISO  8  21  14  22  13  23  13  24  13  25  13  26  13  27  13  28  13
M  ISO  1  29  13
M  END
>  <minimizedAffinity>  (1) 
-5.91197729

>  <minimizedRMSD>  (1) 
4.77351761

$$$$
