
     RDKit          3D

 31 32  0  0  0  0  0  0  0  0999 V2000
   39.1530   32.2590   46.0390 C   0  0  0  0  0  0  0  0  0  0  0  0
   37.7570   32.5600   49.5590 C   0  0  0  0  0  0  0  0  0  0  0  0
   38.5720   32.8140   48.4470 C   0  0  0  0  0  0  0  0  0  0  0  0
   38.3700   32.0900   47.2740 C   0  0  0  0  0  0  0  0  0  0  0  0
   37.3630   31.1530   47.2840 N   0  0  0  0  0  0  0  0  0  0  0  0
   36.5920   30.9250   48.3600 C   0  0  0  0  0  0  0  0  0  0  0  0
   36.7750   31.6140   49.4980 N   0  0  0  0  0  0  0  0  0  0  0  0
   39.9030   30.9420   45.8230 C   0  0  0  0  0  0  0  0  0  0  0  0
   40.1410   33.3630   46.0960 C   0  0  0  0  0  0  0  0  0  0  0  0
   38.2010   32.4610   44.9040 C   0  0  0  0  0  0  0  0  0  0  0  0
   38.6670   31.8380   43.6260 C   0  0  0  0  0  0  0  0  0  0  0  0
   39.4960   32.5800   42.7240 C   0  0  0  0  0  0  0  0  0  0  0  0
   39.7420   31.3570   41.3870 S   0  0  0  0  0  0  0  0  0  0  0  0
   38.6830   30.0640   42.2820 C   0  0  0  0  0  0  0  0  0  0  0  0
   38.3850   30.6190   43.2170 N   0  0  0  0  0  0  0  0  0  0  0  0
   38.4500   28.7160   41.6910 C   0  0  0  0  0  0  0  0  0  0  0  0
   37.9102   33.1279   50.4885 H   0  0  0  0  0  0  0  0  0  0  0  0
   39.3627   33.5769   48.5001 H   0  0  0  0  0  0  0  0  0  0  0  0
   35.7999   30.1635   48.3083 H   0  0  0  0  0  0  0  0  0  0  0  0
   40.1550   30.4994   46.7980 H   0  0  0  0  0  0  0  0  0  0  0  0
   39.2660   30.2457   45.2579 H   0  0  0  0  0  0  0  0  0  0  0  0
   40.8269   31.1346   45.2579 H   0  0  0  0  0  0  0  0  0  0  0  0
   40.3587   33.6063   47.1464 H   0  0  0  0  0  0  0  0  0  0  0  0
   41.0679   33.0519   45.5919 H   0  0  0  0  0  0  0  0  0  0  0  0
   39.7294   34.2498   45.5919 H   0  0  0  0  0  0  0  0  0  0  0  0
   37.2324   32.0166   45.1768 H   0  0  0  0  0  0  0  0  0  0  0  0
   38.1242   33.5445   44.7306 H   0  0  0  0  0  0  0  0  0  0  0  0
   39.8804   33.6069   42.8117 H   0  0  0  0  0  0  0  0  0  0  0  0
   38.3226   27.9790   42.4976 H   0  0  0  0  0  0  0  0  0  0  0  0
   37.5427   28.7399   41.0696 H   0  0  0  0  0  0  0  0  0  0  0  0
   39.3127   28.4340   41.0696 H   0  0  0  0  0  0  0  0  0  0  0  0
  1  9  1  0
  1  4  1  0
  3  2  2  0
  4  5  2  0
  4  3  1  0
  5  6  1  0
  6  7  2  0
  7  2  1  0
  8  1  1  0
 10  1  1  0
 11 10  1  0
 12 11  2  0
 13 14  1  0
 13 12  1  0
 14 15  2  0
 15 11  1  0
 16 14  1  0
  2 17  1  0
  3 18  1  0
  6 19  1  0
  8 20  1  0
  8 21  1  0
  8 22  1  0
  9 23  1  0
  9 24  1  0
  9 25  1  0
 10 26  1  0
 10 27  1  0
 12 28  1  0
 16 29  1  0
 16 30  1  0
 16 31  1  0
M  ISO  8  17  14  18  14  19  14  20   8  21   8  22   8  23   8  24   8
M  ISO  7  25   8  26   8  27   8  28  14  29   8  30   8  31   8
M  END
>  <minimizedAffinity>  (1) 
-4.59732676

>  <minimizedRMSD>  (1) 
0.00813016947

$$$$
