
     RDKit          3D

 22 23  0  0  0  0  0  0  0  0999 V2000
   38.8190   31.2150   46.1330 C   0  0  0  0  0  0  0  0  0  0  0  0
   37.5560   30.5560   45.9960 C   0  0  0  0  0  0  0  0  0  0  0  0
   36.6650   30.6750   47.0470 C   0  0  0  0  0  0  0  0  0  0  0  0
   37.0250   31.3960   48.1320 N   0  0  0  0  0  0  0  0  0  0  0  0
   38.2250   32.0040   48.2270 C   0  0  0  0  0  0  0  0  0  0  0  0
   39.1060   31.9120   47.2380 N   0  0  0  0  0  0  0  0  0  0  0  0
   35.3580   30.0480   47.0100 C   0  0  0  0  0  0  0  0  0  0  0  0
   34.6520   29.6940   48.0770 N   0  0  0  0  0  0  0  0  0  0  0  0
   33.5350   29.1610   47.6950 O   0  0  0  0  0  0  0  0  0  0  0  0
   33.4990   29.1610   46.3980 C   0  0  0  0  0  0  0  0  0  0  0  0
   34.6490   29.7200   45.9390 N   0  0  0  0  0  0  0  0  0  0  0  0
   38.4710   32.7620   49.4870 C   0  0  0  0  0  0  0  0  0  0  0  0
   37.2760   33.3220   49.9420 F   0  0  0  0  0  0  0  0  0  0  0  0
   38.8830   31.8970   50.4690 F   0  0  0  0  0  0  0  0  0  0  0  0
   39.4500   33.7300   49.3380 F   0  0  0  0  0  0  0  0  0  0  0  0
   39.7200   31.0990   45.0820 O   0  0  0  0  0  0  0  0  0  0  0  0
   40.1500   32.1690   44.2890 C   0  0  0  0  0  0  0  0  0  0  0  0
   40.5360   31.7790   43.0260 F   0  0  0  0  0  0  0  0  0  0  0  0
   39.2760   33.2240   44.2230 F   0  0  0  0  0  0  0  0  0  0  0  0
   41.3000   32.6580   44.9110 F   0  0  0  0  0  0  0  0  0  0  0  0
   37.3047   29.9796   45.0935 H   0  0  0  0  0  0  0  0  0  0  0  0
   32.6779   28.7745   45.7764 H   0  0  0  0  0  0  0  0  0  0  0  0
  1  6  2  0
  2  1  1  0
  2  3  2  0
  3  4  1  0
  4  5  2  0
  5 12  1  0
  6  5  1  0
  7  3  1  0
  7  8  2  0
  9  8  1  0
 10  9  1  0
 11 10  2  0
 11  7  1  0
 12 13  1  0
 12 14  1  0
 15 12  1  0
 16  1  1  0
 17 20  1  0
 17 16  1  0
 18 17  1  0
 19 17  1  0
  2 21  1  0
 10 22  1  0
M  ISO  2  21  14  22  14
M  END
>  <minimizedAffinity>  (1) 
-5.66317987

>  <minimizedRMSD>  (1) 
6.38100576

$$$$
