
     RDKit          3D

 26 26  0  0  0  0  0  0  0  0999 V2000
   37.6150   30.5930   49.2470 C   0  0  0  0  0  0  0  0  0  0  0  0
   38.1260   31.8760   49.6440 C   0  0  0  0  0  0  0  0  0  0  0  0
   38.6460   32.6960   48.6370 C   0  0  0  0  0  0  0  0  0  0  0  0
   38.6350   32.2260   47.3630 N   0  0  0  0  0  0  0  0  0  0  0  0
   38.1510   31.0240   47.0320 C   0  0  0  0  0  0  0  0  0  0  0  0
   37.6520   30.2270   47.9620 N   0  0  0  0  0  0  0  0  0  0  0  0
   38.2190   30.6740   45.5880 C   0  0  0  0  0  0  0  0  0  0  0  0
   36.9740   30.1760   45.1640 F   0  0  0  0  0  0  0  0  0  0  0  0
   38.4330   31.8030   44.8400 F   0  0  0  0  0  0  0  0  0  0  0  0
   39.2260   29.7630   45.3100 F   0  0  0  0  0  0  0  0  0  0  0  0
   39.1960   34.0280   48.9190 C   0  0  0  0  0  0  0  0  0  0  0  0
   39.7800   34.1390   50.3100 C   0  0  0  0  0  0  0  0  0  0  0  0
   40.2660   34.4410   47.9470 C   0  0  0  0  0  0  0  0  0  0  0  0
   37.1060   29.7940   50.2370 O   0  0  0  0  0  0  0  0  0  0  0  0
   35.7620   29.4970   50.4190 C   0  0  0  0  0  0  0  0  0  0  0  0
   35.4390   29.1680   51.7210 F   0  0  0  0  0  0  0  0  0  0  0  0
   34.8970   30.4560   49.9280 F   0  0  0  0  0  0  0  0  0  0  0  0
   35.5340   28.3350   49.6660 F   0  0  0  0  0  0  0  0  0  0  0  0
   38.1090   32.1996   50.6952 H   0  0  0  0  0  0  0  0  0  0  0  0
   38.3291   34.6981   48.8219 H   0  0  0  0  0  0  0  0  0  0  0  0
   38.9847   33.9878   51.0547 H   0  0  0  0  0  0  0  0  0  0  0  0
   40.5577   33.3726   50.4434 H   0  0  0  0  0  0  0  0  0  0  0  0
   40.2223   35.1373   50.4434 H   0  0  0  0  0  0  0  0  0  0  0  0
   41.1525   34.7832   48.5011 H   0  0  0  0  0  0  0  0  0  0  0  0
   40.5376   33.5831   47.3143 H   0  0  0  0  0  0  0  0  0  0  0  0
   39.8908   35.2589   47.3143 H   0  0  0  0  0  0  0  0  0  0  0  0
  1  2  2  0
  1 14  1  0
  3 11  1  0
  3  2  1  0
  4  3  2  0
  5  4  1  0
  5  6  2  0
  6  1  1  0
  7  5  1  0
  8  7  1  0
  9  7  1  0
 10  7  1  0
 11 12  1  0
 13 11  1  0
 14 15  1  0
 15 16  1  0
 17 15  1  0
 18 15  1  0
  2 19  1  0
 11 20  1  0
 12 21  1  0
 12 22  1  0
 12 23  1  0
 13 24  1  0
 13 25  1  0
 13 26  1  0
M  ISO  8  19  14  20   8  21   8  22   8  23   8  24   8  25   8  26   8
M  END
>  <minimizedAffinity>  (1) 
-5.53034401

>  <minimizedRMSD>  (1) 
1.26904452

$$$$
