
     RDKit          3D

 28 30  0  0  0  0  0  0  0  0999 V2000
   34.9600   29.3530   48.0200 C   0  0  0  0  0  0  0  0  0  0  0  0
   36.2170   30.0110   47.8710 C   0  0  0  0  0  0  0  0  0  0  0  0
   36.5190   30.5370   46.6100 C   0  0  0  0  0  0  0  0  0  0  0  0
   35.6090   30.3900   45.6200 N   0  0  0  0  0  0  0  0  0  0  0  0
   34.4280   29.7590   45.8050 C   0  0  0  0  0  0  0  0  0  0  0  0
   34.1300   29.2590   46.9870 N   0  0  0  0  0  0  0  0  0  0  0  0
   37.7640   31.2020   46.4180 N   0  0  0  0  0  0  0  0  0  0  0  0
   38.3040   32.2090   47.1140 C   0  0  0  0  0  0  0  0  0  0  0  0
   39.5000   32.5380   46.5940 N   0  0  0  0  0  0  0  0  0  0  0  0
   39.7480   31.7230   45.5270 C   0  0  0  0  0  0  0  0  0  0  0  0
   40.8460   31.6960   44.6920 C   0  0  0  0  0  0  0  0  0  0  0  0
   40.7840   30.7560   43.7160 N   0  0  0  0  0  0  0  0  0  0  0  0
   39.7180   29.9340   43.6050 C   0  0  0  0  0  0  0  0  0  0  0  0
   38.6620   29.9870   44.4390 N   0  0  0  0  0  0  0  0  0  0  0  0
   38.6410   30.9040   45.4500 C   0  0  0  0  0  0  0  0  0  0  0  0
   33.5510   29.6910   44.6100 C   0  0  0  0  0  0  0  0  0  0  0  0
   33.1350   30.9660   44.2460 F   0  0  0  0  0  0  0  0  0  0  0  0
   34.2540   29.2040   43.5420 F   0  0  0  0  0  0  0  0  0  0  0  0
   32.4640   28.8490   44.8090 F   0  0  0  0  0  0  0  0  0  0  0  0
   34.6550   28.8300   49.2650 O   0  0  0  0  0  0  0  0  0  0  0  0
   34.3350   29.5850   50.3800 C   0  0  0  0  0  0  0  0  0  0  0  0
   35.0880   29.2760   51.5020 F   0  0  0  0  0  0  0  0  0  0  0  0
   34.3260   30.9460   50.1680 F   0  0  0  0  0  0  0  0  0  0  0  0
   33.0110   29.2280   50.6980 F   0  0  0  0  0  0  0  0  0  0  0  0
   36.9197   30.1011   48.7125 H   0  0  0  0  0  0  0  0  0  0  0  0
   37.8384   32.6961   47.9835 H   0  0  0  0  0  0  0  0  0  0  0  0
   41.7001   32.3794   44.8080 H   0  0  0  0  0  0  0  0  0  0  0  0
   39.7122   29.1876   42.7970 H   0  0  0  0  0  0  0  0  0  0  0  0
  1 20  1  0
  2  1  2  0
  3  2  1  0
  4  5  1  0
  4  3  2  0
  5  6  2  0
  6  1  1  0
  7  3  1  0
  7  8  1  0
  9  8  2  0
 10  9  1  0
 11 10  2  0
 12 11  1  0
 13 12  2  0
 13 14  1  0
 14 15  2  0
 15 10  1  0
 15  7  1  0
 16 19  1  0
 16  5  1  0
 17 16  1  0
 18 16  1  0
 20 21  1  0
 21 24  1  0
 21 22  1  0
 23 21  1  0
  2 25  1  0
  8 26  1  0
 11 27  1  0
 13 28  1  0
M  ISO  4  25  14  26  14  27  14  28  14
M  END
>  <minimizedAffinity>  (1) 
-5.47761965

>  <minimizedRMSD>  (1) 
5.47127342

$$$$
