
     RDKit          3D

 18 18  0  0  0  0  0  0  0  0999 V2000
   37.8620   30.6240   49.0470 C   0  0  0  0  0  0  0  0  0  0  0  0
   38.2970   31.7520   49.8050 C   0  0  0  0  0  0  0  0  0  0  0  0
   38.8410   32.8180   49.0990 C   0  0  0  0  0  0  0  0  0  0  0  0
   38.9240   32.7210   47.7480 N   0  0  0  0  0  0  0  0  0  0  0  0
   38.5000   31.6360   47.0750 C   0  0  0  0  0  0  0  0  0  0  0  0
   37.9800   30.6120   47.7240 N   0  0  0  0  0  0  0  0  0  0  0  0
   38.6670   31.6960   45.5890 C   0  0  0  0  0  0  0  0  0  0  0  0
   37.7330   32.6010   45.0500 F   0  0  0  0  0  0  0  0  0  0  0  0
   39.8990   32.2040   45.2820 F   0  0  0  0  0  0  0  0  0  0  0  0
   38.5490   30.4610   45.0030 F   0  0  0  0  0  0  0  0  0  0  0  0
   39.2770   33.9370   49.7990 O   0  0  0  0  0  0  0  0  0  0  0  0
   37.3200   29.5640   49.7520 O   0  0  0  0  0  0  0  0  0  0  0  0
   36.0310   29.5310   50.2710 C   0  0  0  0  0  0  0  0  0  0  0  0
   35.9900   29.4110   51.6450 F   0  0  0  0  0  0  0  0  0  0  0  0
   35.2290   30.5520   49.8530 F   0  0  0  0  0  0  0  0  0  0  0  0
   35.4560   28.3560   49.7630 F   0  0  0  0  0  0  0  0  0  0  0  0
   38.2056   31.7766   50.9009 H   0  0  0  0  0  0  0  0  0  0  0  0
   39.6670   34.7051   49.3112 H   0  0  0  0  0  0  0  0  0  0  0  0
  1 12  1  0
  1  2  2  0
  3 11  1  0
  3  2  1  0
  4  3  2  0
  5  6  2  0
  5  4  1  0
  6  1  1  0
  7  5  1  0
  8  7  1  0
  9  7  1  0
 10  7  1  0
 12 13  1  0
 13 14  1  0
 15 13  1  0
 16 13  1  0
  2 17  1  0
 11 18  1  0
M  ISO  2  17  14  18   3
M  END
>  <minimizedAffinity>  (1) 
-5.43997669

>  <minimizedRMSD>  (1) 
0.610937297

$$$$
