
     RDKit          3D

 19 19  0  0  0  0  0  0  0  0999 V2000
   37.9100   30.6810   48.9530 C   0  0  0  0  0  0  0  0  0  0  0  0
   38.3400   31.8230   49.6850 C   0  0  0  0  0  0  0  0  0  0  0  0
   38.9000   32.8820   48.9820 C   0  0  0  0  0  0  0  0  0  0  0  0
   39.0050   32.7700   47.6410 N   0  0  0  0  0  0  0  0  0  0  0  0
   38.5890   31.6750   46.9660 C   0  0  0  0  0  0  0  0  0  0  0  0
   38.0530   30.6560   47.6200 N   0  0  0  0  0  0  0  0  0  0  0  0
   39.3420   34.0390   49.6800 N   0  0  0  0  0  0  0  0  0  0  0  0
   38.7780   31.7140   45.4930 C   0  0  0  0  0  0  0  0  0  0  0  0
   38.0510   32.7630   44.9450 F   0  0  0  0  0  0  0  0  0  0  0  0
   40.0900   31.9680   45.1960 F   0  0  0  0  0  0  0  0  0  0  0  0
   38.4430   30.5130   44.8830 F   0  0  0  0  0  0  0  0  0  0  0  0
   37.3540   29.6270   49.6440 O   0  0  0  0  0  0  0  0  0  0  0  0
   36.1390   29.6830   50.3370 C   0  0  0  0  0  0  0  0  0  0  0  0
   36.2920   29.6900   51.7140 F   0  0  0  0  0  0  0  0  0  0  0  0
   35.3120   30.7070   49.9380 F   0  0  0  0  0  0  0  0  0  0  0  0
   35.4880   28.4960   50.0260 F   0  0  0  0  0  0  0  0  0  0  0  0
   38.2318   31.8660   50.7788 H   0  0  0  0  0  0  0  0  0  0  0  0
   39.7577   34.8259   49.1614 H   0  0  0  0  0  0  0  0  0  0  0  0
   39.2466   34.0903   50.7043 H   0  0  0  0  0  0  0  0  0  0  0  0
  1 12  1  0
  1  2  2  0
  3  7  1  0
  3  2  1  0
  4  3  2  0
  5  6  2  0
  5  4  1  0
  6  1  1  0
  8  5  1  0
  9  8  1  0
 10  8  1  0
 11  8  1  0
 12 13  1  0
 13 14  1  0
 15 13  1  0
 16 13  1  0
  2 17  1  0
  7 18  1  0
  7 19  1  0
M  ISO  1  17  14
M  END
>  <minimizedAffinity>  (1) 
-5.40370703

>  <minimizedRMSD>  (1) 
0.723706841

$$$$
