
     RDKit          3D

 30 31  0  0  0  0  0  0  0  0999 V2000
   39.1580   32.2520   46.0460 C   0  0  0  0  0  0  0  0  0  0  0  0
   37.7600   32.5750   49.5560 C   0  0  0  0  0  0  0  0  0  0  0  0
   38.5860   32.8340   48.4450 C   0  0  0  0  0  0  0  0  0  0  0  0
   38.3690   32.0870   47.2820 C   0  0  0  0  0  0  0  0  0  0  0  0
   37.3590   31.1400   47.2900 N   0  0  0  0  0  0  0  0  0  0  0  0
   36.5980   30.9310   48.3790 C   0  0  0  0  0  0  0  0  0  0  0  0
   36.7830   31.6320   49.5040 N   0  0  0  0  0  0  0  0  0  0  0  0
   39.8930   30.9210   45.8300 C   0  0  0  0  0  0  0  0  0  0  0  0
   40.1330   33.3640   46.0850 C   0  0  0  0  0  0  0  0  0  0  0  0
   38.2120   32.4520   44.9040 C   0  0  0  0  0  0  0  0  0  0  0  0
   38.6730   31.8330   43.6290 C   0  0  0  0  0  0  0  0  0  0  0  0
   39.5030   32.5720   42.7350 C   0  0  0  0  0  0  0  0  0  0  0  0
   39.7540   31.3650   41.3810 S   0  0  0  0  0  0  0  0  0  0  0  0
   38.6830   30.0610   42.2700 C   0  0  0  0  0  0  0  0  0  0  0  0
   38.3840   30.6170   43.2150 N   0  0  0  0  0  0  0  0  0  0  0  0
   38.4220   28.7580   41.7420 N   0  0  0  0  0  0  0  0  0  0  0  0
   37.9086   33.1471   50.4837 H   0  0  0  0  0  0  0  0  0  0  0  0
   39.3757   33.5984   48.4901 H   0  0  0  0  0  0  0  0  0  0  0  0
   35.8067   30.1677   48.3443 H   0  0  0  0  0  0  0  0  0  0  0  0
   40.1390   30.4755   46.8052 H   0  0  0  0  0  0  0  0  0  0  0  0
   39.2470   30.2329   45.2650 H   0  0  0  0  0  0  0  0  0  0  0  0
   40.8195   31.1012   45.2650 H   0  0  0  0  0  0  0  0  0  0  0  0
   40.3566   33.6190   47.1314 H   0  0  0  0  0  0  0  0  0  0  0  0
   41.0590   33.0578   45.5763 H   0  0  0  0  0  0  0  0  0  0  0  0
   39.7083   34.2420   45.5763 H   0  0  0  0  0  0  0  0  0  0  0  0
   37.2423   32.0088   45.1746 H   0  0  0  0  0  0  0  0  0  0  0  0
   38.1437   33.5358   44.7290 H   0  0  0  0  0  0  0  0  0  0  0  0
   39.8903   33.5969   42.8330 H   0  0  0  0  0  0  0  0  0  0  0  0
   37.8348   28.0966   42.2698 H   0  0  0  0  0  0  0  0  0  0  0  0
   38.8212   28.4809   40.8338 H   0  0  0  0  0  0  0  0  0  0  0  0
  1  9  1  0
  1  4  1  0
  3  2  2  0
  4  5  2  0
  4  3  1  0
  5  6  1  0
  6  7  2  0
  7  2  1  0
  8  1  1  0
 10  1  1  0
 11 10  1  0
 12 11  2  0
 13 14  1  0
 13 12  1  0
 14 15  2  0
 15 11  1  0
 16 14  1  0
  2 17  1  0
  3 18  1  0
  6 19  1  0
  8 20  1  0
  8 21  1  0
  8 22  1  0
  9 23  1  0
  9 24  1  0
  9 25  1  0
 10 26  1  0
 10 27  1  0
 12 28  1  0
 16 29  1  0
 16 30  1  0
M  ISO  8  17  14  18  14  19  14  20   8  21   8  22   8  23   8  24   8
M  ISO  4  25   8  26   8  27   8  28  14
M  END
>  <minimizedAffinity>  (1) 
-4.58827543

>  <minimizedRMSD>  (1) 
0.0145558901

$$$$
