
     RDKit          3D

 33 35  0  0  0  0  0  0  0  0999 V2000
   37.0130   29.8060   48.9590 C   0  0  0  0  0  0  0  0  0  0  0  0
   38.0460   30.6160   48.3600 C   0  0  0  0  0  0  0  0  0  0  0  0
   37.7870   31.1530   47.1110 C   0  0  0  0  0  0  0  0  0  0  0  0
   36.5870   30.8860   46.5300 N   0  0  0  0  0  0  0  0  0  0  0  0
   35.6510   30.1260   47.1190 C   0  0  0  0  0  0  0  0  0  0  0  0
   35.8640   29.6010   48.3060 N   0  0  0  0  0  0  0  0  0  0  0  0
   34.4020   29.9420   46.3370 C   0  0  0  0  0  0  0  0  0  0  0  0
   34.6200   30.2890   44.9970 F   0  0  0  0  0  0  0  0  0  0  0  0
   34.0260   28.6290   46.3510 F   0  0  0  0  0  0  0  0  0  0  0  0
   33.3410   30.6940   46.8510 F   0  0  0  0  0  0  0  0  0  0  0  0
   38.8000   31.9840   46.4570 C   0  0  0  0  0  0  0  0  0  0  0  0
   39.5240   32.7230   47.1600 O   0  0  0  0  0  0  0  0  0  0  0  0
   39.0940   32.0710   45.0310 C   0  0  0  0  0  0  0  0  0  0  0  0
   39.3270   33.1800   44.2570 C   0  0  0  0  0  0  0  0  0  0  0  0
   39.5600   32.7780   42.9730 N   0  0  0  0  0  0  0  0  0  0  0  0
   39.4780   31.4290   42.9190 C   0  0  0  0  0  0  0  0  0  0  0  0
   39.6170   30.4900   41.9180 C   0  0  0  0  0  0  0  0  0  0  0  0
   39.4750   29.1250   42.1600 C   0  0  0  0  0  0  0  0  0  0  0  0
   39.1830   28.6720   43.4480 C   0  0  0  0  0  0  0  0  0  0  0  0
   39.0490   29.6290   44.4320 C   0  0  0  0  0  0  0  0  0  0  0  0
   39.1910   30.9700   44.1820 C   0  0  0  0  0  0  0  0  0  0  0  0
   37.2710   29.2680   50.2100 O   0  0  0  0  0  0  0  0  0  0  0  0
   36.9890   29.8890   51.4140 C   0  0  0  0  0  0  0  0  0  0  0  0
   37.8640   29.5700   52.4340 F   0  0  0  0  0  0  0  0  0  0  0  0
   36.8600   31.2620   51.3290 F   0  0  0  0  0  0  0  0  0  0  0  0
   35.7370   29.3830   51.7990 F   0  0  0  0  0  0  0  0  0  0  0  0
   39.0005   30.7992   48.8751 H   0  0  0  0  0  0  0  0  0  0  0  0
   39.3262   34.2210   44.6123 H   0  0  0  0  0  0  0  0  0  0  0  0
   39.7644   33.3992   42.1773 H   0  0  0  0  0  0  0  0  0  0  0  0
   39.8470   30.8292   40.8972 H   0  0  0  0  0  0  0  0  0  0  0  0
   39.5929   28.4049   41.3368 H   0  0  0  0  0  0  0  0  0  0  0  0
   39.0652   27.6007   43.6679 H   0  0  0  0  0  0  0  0  0  0  0  0
   38.8192   29.3040   45.4575 H   0  0  0  0  0  0  0  0  0  0  0  0
  1 22  1  0
  2  1  2  0
  3  2  1  0
  4  3  2  0
  4  5  1  0
  5  6  2  0
  6  1  1  0
  7  9  1  0
  7 10  1  0
  7  5  1  0
  8  7  1  0
 11  3  1  0
 11 12  2  0
 13 11  1  0
 14 13  2  0
 15 14  1  0
 16 15  1  0
 16 21  2  0
 17 18  2  0
 17 16  1  0
 18 19  1  0
 19 20  2  0
 21 20  1  0
 21 13  1  0
 22 23  1  0
 23 26  1  0
 23 24  1  0
 25 23  1  0
  2 27  1  0
 14 28  1  0
 15 29  1  0
 17 30  1  0
 18 31  1  0
 19 32  1  0
 20 33  1  0
M  ISO  7  27  14  28  14  29   9  30  14  31  14  32  14  33  14
M  END
>  <minimizedAffinity>  (1) 
-6.38693571

>  <minimizedRMSD>  (1) 
4.37847996

$$$$
