
     RDKit          3D

 27 28  0  0  0  0  0  0  0  0999 V2000
   37.0950   29.7750   49.1210 C   0  0  0  0  0  0  0  0  0  0  0  0
   38.1160   30.6220   48.5890 C   0  0  0  0  0  0  0  0  0  0  0  0
   37.8970   31.2070   47.3470 C   0  0  0  0  0  0  0  0  0  0  0  0
   36.7150   30.9290   46.7250 N   0  0  0  0  0  0  0  0  0  0  0  0
   35.7830   30.1390   47.2410 C   0  0  0  0  0  0  0  0  0  0  0  0
   35.9650   29.5700   48.4160 N   0  0  0  0  0  0  0  0  0  0  0  0
   34.5580   29.9530   46.4140 C   0  0  0  0  0  0  0  0  0  0  0  0
   34.8140   30.3320   45.0900 F   0  0  0  0  0  0  0  0  0  0  0  0
   34.2480   28.6060   46.3520 F   0  0  0  0  0  0  0  0  0  0  0  0
   33.4580   30.6100   46.9290 F   0  0  0  0  0  0  0  0  0  0  0  0
   38.8860   32.0850   46.7280 C   0  0  0  0  0  0  0  0  0  0  0  0
   39.3810   33.0060   47.4460 O   0  0  0  0  0  0  0  0  0  0  0  0
   39.3150   31.9490   45.3560 C   0  0  0  0  0  0  0  0  0  0  0  0
   38.8580   32.8710   44.4360 C   0  0  0  0  0  0  0  0  0  0  0  0
   39.3010   32.6900   43.1390 C   0  0  0  0  0  0  0  0  0  0  0  0
   40.1260   31.6900   42.7710 N   0  0  0  0  0  0  0  0  0  0  0  0
   40.5500   30.8130   43.6910 C   0  0  0  0  0  0  0  0  0  0  0  0
   40.1380   30.9500   44.9860 N   0  0  0  0  0  0  0  0  0  0  0  0
   37.3240   29.1990   50.3520 O   0  0  0  0  0  0  0  0  0  0  0  0
   37.0740   29.8170   51.5650 C   0  0  0  0  0  0  0  0  0  0  0  0
   37.9230   29.3920   52.5900 F   0  0  0  0  0  0  0  0  0  0  0  0
   37.0660   31.1810   51.5230 F   0  0  0  0  0  0  0  0  0  0  0  0
   35.7810   29.3950   51.9300 F   0  0  0  0  0  0  0  0  0  0  0  0
   39.0470   30.8055   49.1455 H   0  0  0  0  0  0  0  0  0  0  0  0
   38.1857   33.6953   44.7163 H   0  0  0  0  0  0  0  0  0  0  0  0
   38.9629   33.3982   42.3682 H   0  0  0  0  0  0  0  0  0  0  0  0
   41.2231   29.9909   43.4062 H   0  0  0  0  0  0  0  0  0  0  0  0
  1 19  1  0
  2  1  2  0
  3  2  1  0
  4  5  1  0
  4  3  2  0
  5  6  2  0
  6  1  1  0
  7 10  1  0
  7  5  1  0
  8  7  1  0
  9  7  1  0
 11  3  1  0
 11 12  2  0
 13 11  1  0
 14 13  2  0
 15 14  1  0
 16 15  2  0
 16 17  1  0
 17 18  2  0
 18 13  1  0
 19 20  1  0
 20 23  1  0
 20 21  1  0
 22 20  1  0
  2 24  1  0
 14 25  1  0
 15 26  1  0
 17 27  1  0
M  ISO  4  24  14  25  14  26  14  27  14
M  END
>  <minimizedAffinity>  (1) 
-5.98106718

>  <minimizedRMSD>  (1) 
3.8849175

$$$$
