
     RDKit          3D

 29 30  0  0  0  0  0  0  0  0999 V2000
   39.1380   32.2600   46.0420 C   0  0  0  0  0  0  0  0  0  0  0  0
   37.7690   32.5770   49.5660 C   0  0  0  0  0  0  0  0  0  0  0  0
   38.5660   32.8200   48.4490 C   0  0  0  0  0  0  0  0  0  0  0  0
   38.3720   32.1030   47.2770 C   0  0  0  0  0  0  0  0  0  0  0  0
   37.3610   31.1570   47.2950 N   0  0  0  0  0  0  0  0  0  0  0  0
   36.6080   30.9430   48.3850 C   0  0  0  0  0  0  0  0  0  0  0  0
   36.7960   31.6350   49.5140 N   0  0  0  0  0  0  0  0  0  0  0  0
   39.8980   30.9270   45.8410 C   0  0  0  0  0  0  0  0  0  0  0  0
   40.1300   33.3710   46.0950 C   0  0  0  0  0  0  0  0  0  0  0  0
   38.1990   32.4580   44.9070 C   0  0  0  0  0  0  0  0  0  0  0  0
   38.6730   31.8170   43.6370 C   0  0  0  0  0  0  0  0  0  0  0  0
   39.4880   32.5700   42.7330 C   0  0  0  0  0  0  0  0  0  0  0  0
   39.7830   31.3770   41.3970 S   0  0  0  0  0  0  0  0  0  0  0  0
   38.7530   30.0560   42.2840 C   0  0  0  0  0  0  0  0  0  0  0  0
   38.4250   30.5920   43.2260 N   0  0  0  0  0  0  0  0  0  0  0  0
   38.2840   28.2490   41.8580 S   0  0  0  0  0  0  0  0  0  0  0  0
   37.9298   33.1504   50.4909 H   0  0  0  0  0  0  0  0  0  0  0  0
   39.3544   33.5856   48.4967 H   0  0  0  0  0  0  0  0  0  0  0  0
   35.8167   30.1797   48.3490 H   0  0  0  0  0  0  0  0  0  0  0  0
   40.1448   30.4942   46.8217 H   0  0  0  0  0  0  0  0  0  0  0  0
   39.2645   30.2248   45.2792 H   0  0  0  0  0  0  0  0  0  0  0  0
   40.8250   31.1145   45.2792 H   0  0  0  0  0  0  0  0  0  0  0  0
   40.3495   33.6168   47.1445 H   0  0  0  0  0  0  0  0  0  0  0  0
   41.0563   33.0599   45.5898 H   0  0  0  0  0  0  0  0  0  0  0  0
   39.7164   34.2563   45.5898 H   0  0  0  0  0  0  0  0  0  0  0  0
   37.2255   32.0230   45.1773 H   0  0  0  0  0  0  0  0  0  0  0  0
   38.1279   33.5402   44.7232 H   0  0  0  0  0  0  0  0  0  0  0  0
   39.8445   33.6066   42.8244 H   0  0  0  0  0  0  0  0  0  0  0  0
   38.1000   27.5399   43.0157 H   0  0  0  0  0  0  0  0  0  0  0  0
  1  9  1  0
  1  4  1  0
  3  2  2  0
  4  5  2  0
  4  3  1  0
  5  6  1  0
  6  7  2  0
  7  2  1  0
  8  1  1  0
 10  1  1  0
 11 10  1  0
 12 11  2  0
 13 14  1  0
 13 12  1  0
 14 15  2  0
 15 11  1  0
 16 14  1  0
  2 17  1  0
  3 18  1  0
  6 19  1  0
  8 20  1  0
  8 21  1  0
  8 22  1  0
  9 23  1  0
  9 24  1  0
  9 25  1  0
 10 26  1  0
 10 27  1  0
 12 28  1  0
 16 29  1  0
M  ISO  8  17  14  18  14  19  14  20   8  21   8  22   8  23   8  24   8
M  ISO  5  25   8  26   8  27   8  28  14  29  11
M  END
>  <minimizedAffinity>  (1) 
-4.58736563

>  <minimizedRMSD>  (1) 
0.0334568433

$$$$
