
     RDKit          3D

 21 21  0  0  0  0  0  0  0  0999 V2000
   37.6520   30.5620   49.2890 C   0  0  0  0  0  0  0  0  0  0  0  0
   38.2700   31.7950   49.7000 C   0  0  0  0  0  0  0  0  0  0  0  0
   38.8110   32.6090   48.6980 C   0  0  0  0  0  0  0  0  0  0  0  0
   38.7130   32.1770   47.4190 N   0  0  0  0  0  0  0  0  0  0  0  0
   38.1340   31.0240   47.0620 C   0  0  0  0  0  0  0  0  0  0  0  0
   37.6110   30.2290   47.9840 N   0  0  0  0  0  0  0  0  0  0  0  0
   39.4470   33.8690   49.0640 C   0  0  0  0  0  0  0  0  0  0  0  0
   39.5470   34.1730   50.2870 O   0  0  0  0  0  0  0  0  0  0  0  0
   39.9070   34.6510   47.9680 N   0  0  0  0  0  0  0  0  0  0  0  0
   38.1300   30.7360   45.6160 C   0  0  0  0  0  0  0  0  0  0  0  0
   38.3900   31.8920   44.8850 F   0  0  0  0  0  0  0  0  0  0  0  0
   39.1280   29.8580   45.3090 F   0  0  0  0  0  0  0  0  0  0  0  0
   36.9220   30.1650   45.1970 F   0  0  0  0  0  0  0  0  0  0  0  0
   37.1170   29.7540   50.2740 O   0  0  0  0  0  0  0  0  0  0  0  0
   35.7490   29.4950   50.4220 C   0  0  0  0  0  0  0  0  0  0  0  0
   35.3920   29.1770   51.7240 F   0  0  0  0  0  0  0  0  0  0  0  0
   34.9260   30.4690   49.9270 F   0  0  0  0  0  0  0  0  0  0  0  0
   35.5120   28.3480   49.6600 F   0  0  0  0  0  0  0  0  0  0  0  0
   38.3154   32.0863   50.7598 H   0  0  0  0  0  0  0  0  0  0  0  0
   40.3683   35.5559   48.1387 H   0  0  0  0  0  0  0  0  0  0  0  0
   39.7787   34.3122   47.0038 H   0  0  0  0  0  0  0  0  0  0  0  0
  1  2  2  0
  1 14  1  0
  3  7  1  0
  3  2  1  0
  4  3  2  0
  5  4  1  0
  5  6  2  0
  6  1  1  0
  7  8  2  0
  9  7  1  0
 10  5  1  0
 11 10  1  0
 12 10  1  0
 13 10  1  0
 14 15  1  0
 15 16  1  0
 17 15  1  0
 18 15  1  0
  2 19  1  0
  9 20  1  0
  9 21  1  0
M  ISO  1  19  14
M  END
>  <minimizedAffinity>  (1) 
-5.78230286

>  <minimizedRMSD>  (1) 
0.279569775

$$$$
