
     RDKit          3D

 26 27  0  0  0  0  0  0  0  0999 V2000
   33.6910   28.2510   48.2450 C   0  0  0  0  0  0  0  0  0  0  0  0
   34.5530   28.8110   49.2500 C   0  0  0  0  0  0  0  0  0  0  0  0
   35.5040   29.7530   48.8630 C   0  0  0  0  0  0  0  0  0  0  0  0
   35.5540   30.0860   47.5420 N   0  0  0  0  0  0  0  0  0  0  0  0
   34.7370   29.5480   46.6230 C   0  0  0  0  0  0  0  0  0  0  0  0
   33.8270   28.6520   46.9690 N   0  0  0  0  0  0  0  0  0  0  0  0
   34.9370   30.0290   45.2410 C   0  0  0  0  0  0  0  0  0  0  0  0
   36.1060   30.7810   45.1540 F   0  0  0  0  0  0  0  0  0  0  0  0
   35.1280   28.9490   44.3990 F   0  0  0  0  0  0  0  0  0  0  0  0
   33.8520   30.7310   44.7490 F   0  0  0  0  0  0  0  0  0  0  0  0
   36.3970   30.3450   49.8430 C   0  0  0  0  0  0  0  0  0  0  0  0
   36.4430   29.8780   51.0000 O   0  0  0  0  0  0  0  0  0  0  0  0
   37.2320   31.4810   49.4690 C   0  0  0  0  0  0  0  0  0  0  0  0
   38.3580   31.4630   48.6740 C   0  0  0  0  0  0  0  0  0  0  0  0
   38.8860   32.7420   48.5440 C   0  0  0  0  0  0  0  0  0  0  0  0
   38.0060   33.4850   49.3020 C   0  0  0  0  0  0  0  0  0  0  0  0
   37.0670   32.7310   49.8200 O   0  0  0  0  0  0  0  0  0  0  0  0
   32.7600   27.3250   48.6390 O   0  0  0  0  0  0  0  0  0  0  0  0
   31.4070   27.5820   48.8110 C   0  0  0  0  0  0  0  0  0  0  0  0
   31.1040   28.2330   50.0040 F   0  0  0  0  0  0  0  0  0  0  0  0
   30.8230   28.2540   47.7690 F   0  0  0  0  0  0  0  0  0  0  0  0
   30.8040   26.3150   48.8820 F   0  0  0  0  0  0  0  0  0  0  0  0
   34.4637   28.5024   50.3021 H   0  0  0  0  0  0  0  0  0  0  0  0
   38.7803   30.5610   48.2070 H   0  0  0  0  0  0  0  0  0  0  0  0
   39.7725   33.0741   47.9839 H   0  0  0  0  0  0  0  0  0  0  0  0
   38.0821   34.5719   49.4529 H   0  0  0  0  0  0  0  0  0  0  0  0
  1 18  1  0
  1  2  2  0
  3  2  1  0
  3 11  1  0
  4  3  2  0
  5  6  2  0
  5  4  1  0
  6  1  1  0
  7  5  1  0
  8  7  1  0
  9  7  1  0
 10  7  1  0
 11 12  2  0
 13 17  1  0
 13 11  1  0
 14 13  2  0
 15 14  1  0
 15 16  2  0
 16 17  1  0
 18 19  1  0
 19 22  1  0
 19 20  1  0
 21 19  1  0
  2 23  1  0
 14 24  1  0
 15 25  1  0
 16 26  1  0
M  ISO  4  23  14  24  14  25  14  26  14
M  END
>  <minimizedAffinity>  (1) 
-5.37623167

>  <minimizedRMSD>  (1) 
4.44789076

$$$$
