
     RDKit          3D

 31 32  0  0  0  0  0  0  0  0999 V2000
   35.2120   29.4150   48.0210 C   0  0  0  0  0  0  0  0  0  0  0  0
   36.3770   30.2380   48.0940 C   0  0  0  0  0  0  0  0  0  0  0  0
   36.8350   30.8290   46.9250 C   0  0  0  0  0  0  0  0  0  0  0  0
   36.1400   30.5820   45.7770 N   0  0  0  0  0  0  0  0  0  0  0  0
   35.0520   29.8030   45.7480 C   0  0  0  0  0  0  0  0  0  0  0  0
   34.5970   29.2320   46.8410 N   0  0  0  0  0  0  0  0  0  0  0  0
   38.0190   31.6840   46.9170 C   0  0  0  0  0  0  0  0  0  0  0  0
   38.2190   32.4290   47.9100 O   0  0  0  0  0  0  0  0  0  0  0  0
   38.8900   31.6350   45.7820 N   0  0  0  0  0  0  0  0  0  0  0  0
   39.7370   30.6930   45.0310 C   0  0  0  0  0  0  0  0  0  0  0  0
   41.0710   31.4330   45.1570 C   0  0  0  0  0  0  0  0  0  0  0  0
   40.6740   32.9140   45.1780 C   0  0  0  0  0  0  0  0  0  0  0  0
   39.1580   32.8260   44.9580 C   0  0  0  0  0  0  0  0  0  0  0  0
   34.4250   29.6480   44.4070 C   0  0  0  0  0  0  0  0  0  0  0  0
   34.3970   30.8670   43.7370 F   0  0  0  0  0  0  0  0  0  0  0  0
   35.2080   28.8160   43.6280 F   0  0  0  0  0  0  0  0  0  0  0  0
   33.1680   29.0720   44.4670 F   0  0  0  0  0  0  0  0  0  0  0  0
   34.7680   28.8330   49.1930 O   0  0  0  0  0  0  0  0  0  0  0  0
   34.3030   29.5250   50.2970 C   0  0  0  0  0  0  0  0  0  0  0  0
   35.0100   29.2450   51.4610 F   0  0  0  0  0  0  0  0  0  0  0  0
   34.1940   30.8800   50.1130 F   0  0  0  0  0  0  0  0  0  0  0  0
   32.9880   29.0580   50.5020 F   0  0  0  0  0  0  0  0  0  0  0  0
   36.8966   30.3989   49.0501 H   0  0  0  0  0  0  0  0  0  0  0  0
   39.4165   30.5927   43.9835 H   0  0  0  0  0  0  0  0  0  0  0  0
   39.7320   29.6544   45.3933 H   0  0  0  0  0  0  0  0  0  0  0  0
   41.5867   31.1533   46.0875 H   0  0  0  0  0  0  0  0  0  0  0  0
   41.7668   31.1931   44.3395 H   0  0  0  0  0  0  0  0  0  0  0  0
   40.9135   33.3808   46.1448 H   0  0  0  0  0  0  0  0  0  0  0  0
   41.2006   33.5306   44.4347 H   0  0  0  0  0  0  0  0  0  0  0  0
   38.6319   33.7166   45.3323 H   0  0  0  0  0  0  0  0  0  0  0  0
   38.8287   32.7674   43.9101 H   0  0  0  0  0  0  0  0  0  0  0  0
  1  2  2  0
  1 18  1  0
  3  2  1  0
  4  3  2  0
  5  4  1  0
  5  6  2  0
  6  1  1  0
  7  3  1  0
  7  8  2  0
  9  7  1  0
 10 11  1  0
 10  9  1  0
 11 12  1  0
 13 12  1  0
 13  9  1  0
 14 17  1  0
 14  5  1  0
 15 14  1  0
 16 14  1  0
 18 19  1  0
 19 22  1  0
 19 20  1  0
 21 19  1  0
  2 23  1  0
 10 24  1  0
 10 25  1  0
 11 26  1  0
 11 27  1  0
 12 28  1  0
 12 29  1  0
 13 30  1  0
 13 31  1  0
M  ISO  8  23  14  24  13  25  13  26  13  27  13  28  13  29  13  30  13
M  ISO  1  31  13
M  END
>  <minimizedAffinity>  (1) 
-5.28589344

>  <minimizedRMSD>  (1) 
3.7929101

$$$$
