
     RDKit          3D

 34 35  0  0  1  0  0  0  0  0999 V2000
   38.4610   31.6030   46.1210 C   0  0  0  0  0  0  0  0  0  0  0  0
   39.0590   32.6060   46.5650 O   0  0  0  0  0  0  0  0  0  0  0  0
   38.7870   31.2600   44.7710 N   0  0  0  0  0  0  0  0  0  0  0  0
   39.0150   29.8540   44.5020 C   0  0  0  0  0  0  0  0  0  0  0  0
   39.7250   29.6510   43.1840 C   0  0  0  0  0  0  0  0  0  0  0  0
   40.6140   30.7160   43.0310 O   0  0  0  0  0  0  0  0  0  0  0  0
   39.8180   31.8020   42.6160 C   0  0  0  0  0  0  0  0  0  0  0  0
   38.8900   32.2670   43.7090 C   0  0  1  0  0  0  0  0  0  0  0  0
   36.9510   29.7210   49.0220 C   0  0  0  0  0  0  0  0  0  0  0  0
   37.9160   30.4340   48.2160 C   0  0  0  0  0  0  0  0  0  0  0  0
   37.5130   30.8790   46.9650 C   0  0  0  0  0  0  0  0  0  0  0  0
   36.2440   30.6160   46.5820 N   0  0  0  0  0  0  0  0  0  0  0  0
   35.3760   29.9540   47.3520 C   0  0  0  0  0  0  0  0  0  0  0  0
   35.7290   29.5170   48.5510 N   0  0  0  0  0  0  0  0  0  0  0  0
   34.0210   29.7580   46.7650 C   0  0  0  0  0  0  0  0  0  0  0  0
   34.1340   29.2880   45.4460 F   0  0  0  0  0  0  0  0  0  0  0  0
   33.3590   28.7740   47.4550 F   0  0  0  0  0  0  0  0  0  0  0  0
   33.2380   30.8890   46.8290 F   0  0  0  0  0  0  0  0  0  0  0  0
   37.3750   29.2880   50.2660 O   0  0  0  0  0  0  0  0  0  0  0  0
   36.9650   29.8260   51.4750 C   0  0  0  0  0  0  0  0  0  0  0  0
   35.7080   29.3950   51.8710 F   0  0  0  0  0  0  0  0  0  0  0  0
   37.8600   29.6810   52.4990 F   0  0  0  0  0  0  0  0  0  0  0  0
   36.8620   31.2180   51.2420 F   0  0  0  0  0  0  0  0  0  0  0  0
   37.5400   32.6130   43.1800 C   0  0  0  0  0  0  0  0  0  0  0  0
   36.5130   31.9340   43.3280 O   0  0  0  0  0  0  0  0  0  0  0  0
   39.6313   29.4309   45.3090 H   0  0  0  0  0  0  0  0  0  0  0  0
   38.0388   29.3497   44.4497 H   0  0  0  0  0  0  0  0  0  0  0  0
   40.2749   28.6984   43.1940 H   0  0  0  0  0  0  0  0  0  0  0  0
   39.0062   29.6172   42.3521 H   0  0  0  0  0  0  0  0  0  0  0  0
   40.4754   32.6358   42.3287 H   0  0  0  0  0  0  0  0  0  0  0  0
   39.2045   31.4703   41.7653 H   0  0  0  0  0  0  0  0  0  0  0  0
   39.3227   33.1833   44.1369 H   0  0  0  0  0  0  0  0  0  0  0  0
   38.9367   30.6179   48.5824 H   0  0  0  0  0  0  0  0  0  0  0  0
   37.4470   33.5494   42.6104 H   0  0  0  0  0  0  0  0  0  0  0  0
  1  2  2  0
  1 11  1  0
  3  1  1  0
  4  3  1  0
  5  4  1  0
  6  5  1  0
  7  6  1  0
  7  8  1  0
  8  3  1  0
  9 19  1  0
 10  9  2  0
 11 10  1  0
 12 11  2  0
 12 13  1  0
 13 14  2  0
 14  9  1  0
 15 18  1  0
 15 13  1  0
 15 17  1  0
 16 15  1  0
 19 20  1  0
 20 21  1  0
 20 22  1  0
 23 20  1  0
 24 25  2  0
 24  8  1  0
  4 26  1  0
  4 27  1  0
  5 28  1  0
  5 29  1  0
  7 30  1  0
  7 31  1  0
  8 32  1  1
 10 33  1  0
 24 34  1  0
M  ISO  8  26  13  27  13  28  13  29  13  30  13  31  13  32  13  33  14
M  ISO  1  34   6
M  END
>  <minimizedAffinity>  (1) 
-6.22823572

>  <minimizedRMSD>  (1) 
2.58848786

$$$$
