
     RDKit          3D

 42 45  0  0  1  0  0  0  0  0999 V2000
   37.5480   30.8970   46.5380 C   0  0  0  0  0  0  0  0  0  0  0  0
   37.7770   31.0820   47.7400 O   0  0  0  0  0  0  0  0  0  0  0  0
   38.5910   31.2900   45.6580 N   0  0  0  0  0  0  0  0  0  0  0  0
   38.9130   30.3250   44.6070 C   0  0  0  0  0  0  0  0  0  0  0  0
   40.2420   30.6340   43.9730 C   0  0  0  0  0  0  0  0  0  0  0  0
   41.0750   31.0970   45.0090 O   0  0  0  0  0  0  0  0  0  0  0  0
   40.6980   32.4330   45.1870 C   0  0  0  0  0  0  0  0  0  0  0  0
   39.2920   32.5520   45.7690 C   0  0  2  0  0  0  0  0  0  0  0  0
   39.3640   33.1010   47.1430 C   0  0  0  0  0  0  0  0  0  0  0  0
   40.0110   34.2420   47.5690 C   0  0  0  0  0  0  0  0  0  0  0  0
   40.0220   34.6610   48.8810 C   0  0  0  0  0  0  0  0  0  0  0  0
   39.3800   33.9530   49.8520 C   0  0  0  0  0  0  0  0  0  0  0  0
   38.7120   32.8050   49.5150 C   0  0  0  0  0  0  0  0  0  0  0  0
   38.7300   32.4340   48.2010 C   0  0  0  0  0  0  0  0  0  0  0  0
   34.0940   29.3660   46.6760 C   0  0  0  0  0  0  0  0  0  0  0  0
   35.3370   29.9350   47.1090 C   0  0  0  0  0  0  0  0  0  0  0  0
   36.2660   30.3100   46.1490 C   0  0  0  0  0  0  0  0  0  0  0  0
   35.9260   30.1090   44.8440 N   0  0  0  0  0  0  0  0  0  0  0  0
   34.7580   29.5740   44.4710 C   0  0  0  0  0  0  0  0  0  0  0  0
   33.8650   29.2120   45.3700 N   0  0  0  0  0  0  0  0  0  0  0  0
   34.5640   29.4300   43.0100 C   0  0  0  0  0  0  0  0  0  0  0  0
   34.2170   30.6550   42.4490 F   0  0  0  0  0  0  0  0  0  0  0  0
   35.7570   29.0740   42.4200 F   0  0  0  0  0  0  0  0  0  0  0  0
   33.6500   28.4430   42.6830 F   0  0  0  0  0  0  0  0  0  0  0  0
   33.1890   29.0010   47.6540 O   0  0  0  0  0  0  0  0  0  0  0  0
   33.4540   28.0920   48.6790 C   0  0  0  0  0  0  0  0  0  0  0  0
   34.2540   27.0210   48.2670 F   0  0  0  0  0  0  0  0  0  0  0  0
   33.9430   28.6470   49.8160 F   0  0  0  0  0  0  0  0  0  0  0  0
   32.1950   27.5430   49.0000 F   0  0  0  0  0  0  0  0  0  0  0  0
   37.1089   31.9031   46.4668 H   0  0  0  0  0  0  0  0  0  0  0  0
   38.9502   29.3166   45.0450 H   0  0  0  0  0  0  0  0  0  0  0  0
   38.1353   30.3826   43.8312 H   0  0  0  0  0  0  0  0  0  0  0  0
   40.6674   29.7271   43.5185 H   0  0  0  0  0  0  0  0  0  0  0  0
   40.1400   31.3849   43.1757 H   0  0  0  0  0  0  0  0  0  0  0  0
   41.4095   32.9154   45.8733 H   0  0  0  0  0  0  0  0  0  0  0  0
   40.7035   32.9241   44.2027 H   0  0  0  0  0  0  0  0  0  0  0  0
   38.6916   33.2679   45.1884 H   0  0  0  0  0  0  0  0  0  0  0  0
   40.5455   34.8483   46.8229 H   0  0  0  0  0  0  0  0  0  0  0  0
   40.5583   35.5831   49.1495 H   0  0  0  0  0  0  0  0  0  0  0  0
   39.3977   34.2994   50.8959 H   0  0  0  0  0  0  0  0  0  0  0  0
   38.1831   32.2070   50.2717 H   0  0  0  0  0  0  0  0  0  0  0  0
   35.5495   30.0713   48.1796 H   0  0  0  0  0  0  0  0  0  0  0  0
  1 17  1  0
  1  2  1  0
  2 14  1  0
  3  4  1  0
  3  8  1  0
  3  1  1  0
  5  4  1  0
  5  6  1  0
  6  7  1  0
  7  8  1  0
  8  9  1  0
  9 10  1  0
  9 14  2  0
 10 11  2  0
 11 12  1  0
 13 12  2  0
 14 13  1  0
 15 16  2  0
 15 25  1  0
 17 16  1  0
 18 17  2  0
 19 18  1  0
 19 20  2  0
 20 15  1  0
 21 19  1  0
 22 21  1  0
 23 21  1  0
 24 21  1  0
 25 26  1  0
 26 29  1  0
 26 28  1  0
 27 26  1  0
  1 30  1  0
  4 31  1  0
  4 32  1  0
  5 33  1  0
  5 34  1  0
  7 35  1  0
  7 36  1  0
  8 37  1  6
 10 38  1  0
 11 39  1  0
 12 40  1  0
 13 41  1  0
 16 42  1  0
M  ISO  8  30  13  31  13  32  13  33  13  34  13  35  13  36  13  37  13
M  ISO  5  38  14  39  14  40  14  41  14  42  14
M  END
>  <minimizedAffinity>  (1) 
-6.04479027

>  <minimizedRMSD>  (1) 
1.55955505

$$$$
