
     RDKit          3D

 35 36  0  0  1  0  0  0  0  0999 V2000
   38.0820   31.3450   45.7210 C   0  0  0  0  0  0  0  0  0  0  0  0
   38.7210   32.1860   46.3850 O   0  0  0  0  0  0  0  0  0  0  0  0
   38.6570   31.0390   44.4720 N   0  0  0  0  0  0  0  0  0  0  0  0
   38.8030   29.6220   44.2050 C   0  0  0  0  0  0  0  0  0  0  0  0
   39.7400   29.4020   43.0310 C   0  0  0  0  0  0  0  0  0  0  0  0
   40.7190   30.3940   43.1040 O   0  0  0  0  0  0  0  0  0  0  0  0
   40.0750   31.5240   42.5210 C   0  0  0  0  0  0  0  0  0  0  0  0
   39.0720   32.0670   43.5280 C   0  0  2  0  0  0  0  0  0  0  0  0
   35.4980   30.1570   48.1280 C   0  0  0  0  0  0  0  0  0  0  0  0
   36.7190   30.6790   47.6250 C   0  0  0  0  0  0  0  0  0  0  0  0
   36.8650   30.7770   46.2520 C   0  0  0  0  0  0  0  0  0  0  0  0
   35.8160   30.3580   45.4940 N   0  0  0  0  0  0  0  0  0  0  0  0
   34.6960   29.8710   46.0050 C   0  0  0  0  0  0  0  0  0  0  0  0
   34.5460   29.7690   47.3190 N   0  0  0  0  0  0  0  0  0  0  0  0
   33.6020   29.5970   45.0520 C   0  0  0  0  0  0  0  0  0  0  0  0
   33.3850   30.8240   44.3790 F   0  0  0  0  0  0  0  0  0  0  0  0
   33.9700   28.7050   44.1280 F   0  0  0  0  0  0  0  0  0  0  0  0
   32.4340   29.1750   45.6380 F   0  0  0  0  0  0  0  0  0  0  0  0
   35.3260   30.0910   49.4780 O   0  0  0  0  0  0  0  0  0  0  0  0
   35.6060   29.0520   50.3160 C   0  0  0  0  0  0  0  0  0  0  0  0
   35.3930   29.2650   51.6710 F   0  0  0  0  0  0  0  0  0  0  0  0
   36.8660   28.6420   50.0700 F   0  0  0  0  0  0  0  0  0  0  0  0
   34.7380   28.0270   49.9060 F   0  0  0  0  0  0  0  0  0  0  0  0
   39.9370   33.0480   44.2980 C   0  0  0  0  0  0  0  0  0  0  0  0
   40.1830   34.2410   44.7040 O   0  0  0  0  0  0  0  0  0  0  0  0
   40.9690   32.2870   44.8220 O   0  0  0  0  0  0  0  0  0  0  0  0
   39.2144   29.1252   45.0960 H   0  0  0  0  0  0  0  0  0  0  0  0
   37.8170   29.2000   43.9604 H   0  0  0  0  0  0  0  0  0  0  0  0
   39.1865   29.4854   42.0841 H   0  0  0  0  0  0  0  0  0  0  0  0
   40.1909   28.3994   43.0689 H   0  0  0  0  0  0  0  0  0  0  0  0
   40.8207   32.2969   42.2834 H   0  0  0  0  0  0  0  0  0  0  0  0
   39.5634   31.2340   41.5914 H   0  0  0  0  0  0  0  0  0  0  0  0
   38.1642   32.4675   43.0532 H   0  0  0  0  0  0  0  0  0  0  0  0
   37.5236   30.9955   48.3051 H   0  0  0  0  0  0  0  0  0  0  0  0
   41.6710   32.7168   45.3721 H   0  0  0  0  0  0  0  0  0  0  0  0
  1 11  1  0
  1  2  2  0
  3  1  1  0
  4  3  1  0
  5  6  1  0
  5  4  1  0
  7  6  1  0
  7  8  1  0
  8 24  1  0
  8  3  1  0
  9 19  1  0
 10  9  2  0
 11 10  1  0
 12 13  1  0
 12 11  2  0
 13 14  2  0
 14  9  1  0
 15 18  1  0
 15 13  1  0
 16 15  1  0
 17 15  1  0
 19 20  1  0
 20 21  1  0
 22 20  1  0
 23 20  1  0
 24 25  2  0
 24 26  1  0
  4 27  1  0
  4 28  1  0
  5 29  1  0
  5 30  1  0
  7 31  1  0
  7 32  1  0
  8 33  1  6
 10 34  1  0
 26 35  1  0
M  ISO  8  27  13  28  13  29  13  30  13  31  13  32  13  33  13  34  14
M  ISO  1  35   3
M  END
>  <minimizedAffinity>  (1) 
-5.88099098

>  <minimizedRMSD>  (1) 
1.82790399

$$$$
