
     RDKit          3D

 41 42  0  0  1  0  0  0  0  0999 V2000
   37.5200   30.8100   45.9190 C   0  0  0  0  0  0  0  0  0  0  0  0
   38.4460   30.5130   46.6840 O   0  0  0  0  0  0  0  0  0  0  0  0
   37.9080   31.6000   44.7900 N   0  0  0  0  0  0  0  0  0  0  0  0
   37.3500   31.1490   43.5180 C   0  0  0  0  0  0  0  0  0  0  0  0
   38.1040   31.7400   42.3550 C   0  0  0  0  0  0  0  0  0  0  0  0
   39.4430   31.8310   42.7380 O   0  0  0  0  0  0  0  0  0  0  0  0
   39.5010   32.9780   43.5560 C   0  0  0  0  0  0  0  0  0  0  0  0
   38.7710   32.7510   44.8750 C   0  0  2  0  0  0  0  0  0  0  0  0
   34.5020   29.4940   47.7570 C   0  0  0  0  0  0  0  0  0  0  0  0
   35.8420   29.9370   47.5030 C   0  0  0  0  0  0  0  0  0  0  0  0
   36.1730   30.3520   46.2220 C   0  0  0  0  0  0  0  0  0  0  0  0
   35.1850   30.3070   45.2840 N   0  0  0  0  0  0  0  0  0  0  0  0
   33.9440   29.8890   45.5480 C   0  0  0  0  0  0  0  0  0  0  0  0
   33.6130   29.4920   46.7610 N   0  0  0  0  0  0  0  0  0  0  0  0
   33.0040   29.9090   44.4060 C   0  0  0  0  0  0  0  0  0  0  0  0
   32.7280   31.2170   44.0280 F   0  0  0  0  0  0  0  0  0  0  0  0
   33.6060   29.3240   43.3090 F   0  0  0  0  0  0  0  0  0  0  0  0
   31.8500   29.1790   44.6470 F   0  0  0  0  0  0  0  0  0  0  0  0
   34.2010   29.0860   49.0440 O   0  0  0  0  0  0  0  0  0  0  0  0
   34.4000   29.8490   50.1820 C   0  0  0  0  0  0  0  0  0  0  0  0
   35.4650   29.4110   50.9740 F   0  0  0  0  0  0  0  0  0  0  0  0
   34.5010   31.1830   49.9570 F   0  0  0  0  0  0  0  0  0  0  0  0
   33.2350   29.6530   50.9500 F   0  0  0  0  0  0  0  0  0  0  0  0
   39.8390   32.7060   45.9240 C   0  0  0  0  0  0  0  0  0  0  0  0
   39.2850   32.7270   47.3250 C   0  0  0  0  0  0  0  0  0  0  0  0
   40.5860   31.4010   45.7490 C   0  0  0  0  0  0  0  0  0  0  0  0
   37.4130   30.0520   43.4668 H   0  0  0  0  0  0  0  0  0  0  0  0
   36.3024   31.4792   43.4593 H   0  0  0  0  0  0  0  0  0  0  0  0
   37.7103   32.7396   42.1188 H   0  0  0  0  0  0  0  0  0  0  0  0
   37.9950   31.1126   41.4581 H   0  0  0  0  0  0  0  0  0  0  0  0
   40.5542   33.2169   43.7651 H   0  0  0  0  0  0  0  0  0  0  0  0
   39.0130   33.8093   43.0260 H   0  0  0  0  0  0  0  0  0  0  0  0
   38.0691   33.5555   45.1398 H   0  0  0  0  0  0  0  0  0  0  0  0
   36.5918   29.9474   48.3078 H   0  0  0  0  0  0  0  0  0  0  0  0
   40.4765   33.5939   45.8005 H   0  0  0  0  0  0  0  0  0  0  0  0
   40.1138   32.6956   48.0475 H   0  0  0  0  0  0  0  0  0  0  0  0
   38.7024   33.6479   47.4751 H   0  0  0  0  0  0  0  0  0  0  0  0
   38.6343   31.8529   47.4751 H   0  0  0  0  0  0  0  0  0  0  0  0
   40.8265   30.9809   46.7368 H   0  0  0  0  0  0  0  0  0  0  0  0
   39.9577   30.6908   45.1915 H   0  0  0  0  0  0  0  0  0  0  0  0
   41.5166   31.5831   45.1915 H   0  0  0  0  0  0  0  0  0  0  0  0
  1 11  1  0
  1  2  2  0
  3  8  1  0
  3  1  1  0
  4  3  1  0
  5  6  1  0
  5  4  1  0
  6  7  1  0
  7  8  1  0
  8 24  1  0
  9 19  1  0
 10  9  2  0
 11 10  1  0
 12 13  1  0
 12 11  2  0
 13 14  2  0
 14  9  1  0
 15 18  1  0
 15 13  1  0
 16 15  1  0
 17 15  1  0
 19 20  1  0
 20 23  1  0
 20 21  1  0
 22 20  1  0
 24 25  1  0
 26 24  1  0
  4 27  1  0
  4 28  1  0
  5 29  1  0
  5 30  1  0
  7 31  1  0
  7 32  1  0
  8 33  1  1
 10 34  1  0
 24 35  1  0
 25 36  1  0
 25 37  1  0
 25 38  1  0
 26 39  1  0
 26 40  1  0
 26 41  1  0
M  ISO  8  27  13  28  13  29  13  30  13  31  13  32  13  33  13  34  14
M  ISO  7  35   8  36   8  37   8  38   8  39   8  40   8  41   8
M  END
>  <minimizedAffinity>  (1) 
-5.54627275

>  <minimizedRMSD>  (1) 
1.57252586

$$$$
