
     RDKit          3D

 43 45  0  0  1  0  0  0  0  0999 V2000
   35.3220   29.7160   45.2400 C   0  0  0  0  0  0  0  0  0  0  0  0
   36.1560   30.0680   46.0950 O   0  0  0  0  0  0  0  0  0  0  0  0
   35.8850   29.2110   44.0340 N   0  0  0  0  0  0  0  0  0  0  0  0
   35.2950   27.9920   43.5190 C   0  0  0  0  0  0  0  0  0  0  0  0
   36.1890   27.3160   42.4930 C   0  0  0  0  0  0  0  0  0  0  0  0
   37.4960   27.5260   42.9100 O   0  0  0  0  0  0  0  0  0  0  0  0
   37.8000   28.8470   42.5380 C   0  0  0  0  0  0  0  0  0  0  0  0
   36.9870   29.8460   43.3290 C   0  0  2  0  0  0  0  0  0  0  0  0
   37.7910   30.6990   44.1440 N   0  0  0  0  0  0  0  0  0  0  0  0
   38.7720   30.2260   44.9330 C   0  0  0  0  0  0  0  0  0  0  0  0
   39.5450   31.0570   45.7170 C   0  0  0  0  0  0  0  0  0  0  0  0
   39.3210   32.4080   45.7070 C   0  0  0  0  0  0  0  0  0  0  0  0
   39.9730   33.4530   46.4160 N   0  0  0  0  0  0  0  0  0  0  0  0
   38.3260   32.8940   44.9080 N   0  0  0  0  0  0  0  0  0  0  0  0
   37.5880   32.0500   44.1510 C   0  0  0  0  0  0  0  0  0  0  0  0
   36.6600   32.4800   43.4030 O   0  0  0  0  0  0  0  0  0  0  0  0
   31.8540   29.0130   46.5320 C   0  0  0  0  0  0  0  0  0  0  0  0
   33.2510   28.8730   46.2850 C   0  0  0  0  0  0  0  0  0  0  0  0
   33.8900   29.8370   45.5080 C   0  0  0  0  0  0  0  0  0  0  0  0
   33.1280   30.8520   45.0370 N   0  0  0  0  0  0  0  0  0  0  0  0
   31.8250   30.9590   45.2830 C   0  0  0  0  0  0  0  0  0  0  0  0
   31.1940   30.0620   46.0140 N   0  0  0  0  0  0  0  0  0  0  0  0
   31.1590   32.1400   44.6810 C   0  0  0  0  0  0  0  0  0  0  0  0
   31.6680   33.3130   45.2270 F   0  0  0  0  0  0  0  0  0  0  0  0
   31.4580   32.2020   43.3280 F   0  0  0  0  0  0  0  0  0  0  0  0
   29.7800   32.0830   44.7730 F   0  0  0  0  0  0  0  0  0  0  0  0
   31.2360   28.0430   47.3070 O   0  0  0  0  0  0  0  0  0  0  0  0
   31.8050   27.4480   48.4200 C   0  0  0  0  0  0  0  0  0  0  0  0
   32.6390   26.3720   48.1130 F   0  0  0  0  0  0  0  0  0  0  0  0
   32.4510   28.3020   49.2510 F   0  0  0  0  0  0  0  0  0  0  0  0
   30.7250   26.9060   49.1350 F   0  0  0  0  0  0  0  0  0  0  0  0
   35.1267   27.2979   44.3556 H   0  0  0  0  0  0  0  0  0  0  0  0
   34.3487   28.2554   43.0240 H   0  0  0  0  0  0  0  0  0  0  0  0
   36.0310   27.7608   41.4994 H   0  0  0  0  0  0  0  0  0  0  0  0
   35.9639   26.2421   42.4153 H   0  0  0  0  0  0  0  0  0  0  0  0
   38.8690   29.0325   42.7194 H   0  0  0  0  0  0  0  0  0  0  0  0
   37.5566   28.9703   41.4724 H   0  0  0  0  0  0  0  0  0  0  0  0
   36.5192   30.5277   42.6034 H   0  0  0  0  0  0  0  0  0  0  0  0
   38.9639   29.1431   44.9538 H   0  0  0  0  0  0  0  0  0  0  0  0
   40.3402   30.6352   46.3493 H   0  0  0  0  0  0  0  0  0  0  0  0
   39.6710   34.4293   46.2871 H   0  0  0  0  0  0  0  0  0  0  0  0
   40.7475   33.2341   47.0587 H   0  0  0  0  0  0  0  0  0  0  0  0
   33.8123   28.0223   46.6989 H   0  0  0  0  0  0  0  0  0  0  0  0
  1 19  1  0
  1  2  2  0
  3  1  1  0
  4  3  1  0
  5  6  1  0
  5  4  1  0
  7  6  1  0
  7  8  1  0
  8  3  1  0
  8  9  1  0
  9 15  1  0
  9 10  1  0
 10 11  2  0
 12 11  1  0
 12 13  1  0
 14 12  2  0
 15 14  1  0
 16 15  2  0
 17 27  1  0
 18 17  2  0
 19 18  1  0
 20 21  1  0
 20 19  2  0
 21 22  2  0
 22 17  1  0
 23 26  1  0
 23 24  1  0
 23 21  1  0
 25 23  1  0
 27 28  1  0
 28 31  1  0
 28 30  1  0
 29 28  1  0
  4 32  1  0
  4 33  1  0
  5 34  1  0
  5 35  1  0
  7 36  1  0
  7 37  1  0
  8 38  1  6
 10 39  1  0
 11 40  1  0
 13 41  1  0
 13 42  1  0
 18 43  1  0
M  ISO  8  32  13  33  13  34  13  35  13  36  13  37  13  38  13  39  14
M  ISO  2  40  14  43  14
M  END
>  <minimizedAffinity>  (1) 
-5.24814415

>  <minimizedRMSD>  (1) 
4.34392595

$$$$
