
     RDKit          3D

 33 34  0  0  1  0  0  0  0  0999 V2000
   37.8380   31.1730   46.3570 C   0  0  0  0  0  0  0  0  0  0  0  0
   38.4080   31.7770   47.2800 O   0  0  0  0  0  0  0  0  0  0  0  0
   38.5460   31.1840   45.1110 N   0  0  0  0  0  0  0  0  0  0  0  0
   38.6240   29.9300   44.4010 C   0  0  0  0  0  0  0  0  0  0  0  0
   39.7130   29.9460   43.3560 C   0  0  0  0  0  0  0  0  0  0  0  0
   40.7450   30.7400   43.8490 O   0  0  0  0  0  0  0  0  0  0  0  0
   40.3100   32.0680   43.6450 C   0  0  0  0  0  0  0  0  0  0  0  0
   39.1670   32.4050   44.5710 C   0  0  2  0  0  0  0  0  0  0  0  0
   34.9820   29.3580   48.0180 C   0  0  0  0  0  0  0  0  0  0  0  0
   36.2610   29.9930   47.8410 C   0  0  0  0  0  0  0  0  0  0  0  0
   36.5590   30.5220   46.5760 C   0  0  0  0  0  0  0  0  0  0  0  0
   35.6160   30.3940   45.6160 N   0  0  0  0  0  0  0  0  0  0  0  0
   34.4370   29.7960   45.8160 C   0  0  0  0  0  0  0  0  0  0  0  0
   34.1340   29.2890   47.0010 N   0  0  0  0  0  0  0  0  0  0  0  0
   33.5350   29.7560   44.6330 C   0  0  0  0  0  0  0  0  0  0  0  0
   33.4080   31.0500   44.0960 F   0  0  0  0  0  0  0  0  0  0  0  0
   34.1070   29.0060   43.6370 F   0  0  0  0  0  0  0  0  0  0  0  0
   32.2940   29.2090   44.9280 F   0  0  0  0  0  0  0  0  0  0  0  0
   34.7040   28.8420   49.2630 O   0  0  0  0  0  0  0  0  0  0  0  0
   34.3550   29.6120   50.3740 C   0  0  0  0  0  0  0  0  0  0  0  0
   35.1040   29.2960   51.5120 F   0  0  0  0  0  0  0  0  0  0  0  0
   34.3510   30.9540   50.1720 F   0  0  0  0  0  0  0  0  0  0  0  0
   33.0260   29.2270   50.6690 F   0  0  0  0  0  0  0  0  0  0  0  0
   39.9050   33.2320   46.0160 S   0  0  0  0  0  0  0  0  0  0  0  0
   38.8330   29.1252   45.1211 H   0  0  0  0  0  0  0  0  0  0  0  0
   37.6631   29.7643   43.8919 H   0  0  0  0  0  0  0  0  0  0  0  0
   39.3277   30.3692   42.4166 H   0  0  0  0  0  0  0  0  0  0  0  0
   40.0698   28.9264   43.1482 H   0  0  0  0  0  0  0  0  0  0  0  0
   41.1464   32.7555   43.8393 H   0  0  0  0  0  0  0  0  0  0  0  0
   39.9642   32.1704   42.6058 H   0  0  0  0  0  0  0  0  0  0  0  0
   38.4248   33.0045   44.0235 H   0  0  0  0  0  0  0  0  0  0  0  0
   36.9811   30.0615   48.6697 H   0  0  0  0  0  0  0  0  0  0  0  0
   39.4077   32.6747   47.1645 H   0  0  0  0  0  0  0  0  0  0  0  0
  1 11  1  0
  1  2  2  0
  3  1  1  0
  4  3  1  0
  5  6  1  0
  5  4  1  0
  7  6  1  0
  7  8  1  0
  8  3  1  0
  8 24  1  0
  9 19  1  0
 10  9  2  0
 11 10  1  0
 12 13  1  0
 12 11  2  0
 13 14  2  0
 14  9  1  0
 15 18  1  0
 15 13  1  0
 16 15  1  0
 17 15  1  0
 19 20  1  0
 20 23  1  0
 20 21  1  0
 22 20  1  0
  4 25  1  0
  4 26  1  0
  5 27  1  0
  5 28  1  0
  7 29  1  0
  7 30  1  0
  8 31  1  6
 10 32  1  0
 24 33  1  0
M  ISO  8  25  13  26  13  27  13  28  13  29  13  30  13  31  13  32  14
M  ISO  1  33  11
M  END
>  <minimizedAffinity>  (1) 
-4.95854092

>  <minimizedRMSD>  (1) 
0.929003835

$$$$
