
     RDKit          3D

 41 43  0  0  1  0  0  0  0  0999 V2000
   36.9360   30.5410   45.9730 C   0  0  0  0  0  0  0  0  0  0  0  0
   37.8690   30.3650   46.8060 O   0  0  0  0  0  0  0  0  0  0  0  0
   37.3040   31.2850   44.8240 N   0  0  0  0  0  0  0  0  0  0  0  0
   36.8400   30.7440   43.5590 C   0  0  0  0  0  0  0  0  0  0  0  0
   37.6000   31.3430   42.3920 C   0  0  0  0  0  0  0  0  0  0  0  0
   38.9010   31.5710   42.8280 O   0  0  0  0  0  0  0  0  0  0  0  0
   38.8490   32.7390   43.6010 C   0  0  0  0  0  0  0  0  0  0  0  0
   38.0950   32.5140   44.8900 C   0  0  2  0  0  0  0  0  0  0  0  0
   33.9280   29.1700   47.7860 C   0  0  0  0  0  0  0  0  0  0  0  0
   35.2420   29.7190   47.5730 C   0  0  0  0  0  0  0  0  0  0  0  0
   35.6330   29.9890   46.2570 C   0  0  0  0  0  0  0  0  0  0  0  0
   34.7260   29.7040   45.2860 N   0  0  0  0  0  0  0  0  0  0  0  0
   33.5240   29.1970   45.5280 C   0  0  0  0  0  0  0  0  0  0  0  0
   33.1340   28.9360   46.7580 N   0  0  0  0  0  0  0  0  0  0  0  0
   32.6740   28.9560   44.3200 C   0  0  0  0  0  0  0  0  0  0  0  0
   32.5570   30.1270   43.5740 F   0  0  0  0  0  0  0  0  0  0  0  0
   33.3030   28.0430   43.4900 F   0  0  0  0  0  0  0  0  0  0  0  0
   31.4400   28.4160   44.6290 F   0  0  0  0  0  0  0  0  0  0  0  0
   33.5640   28.9110   49.1090 O   0  0  0  0  0  0  0  0  0  0  0  0
   34.0540   29.5880   50.2110 C   0  0  0  0  0  0  0  0  0  0  0  0
   35.0400   28.9100   50.8940 F   0  0  0  0  0  0  0  0  0  0  0  0
   34.4380   30.8750   49.9630 F   0  0  0  0  0  0  0  0  0  0  0  0
   32.9400   29.6680   51.0870 F   0  0  0  0  0  0  0  0  0  0  0  0
   39.0740   32.2490   45.8570 O   0  0  0  0  0  0  0  0  0  0  0  0
   39.2460   32.9100   47.0530 C   0  0  0  0  0  0  0  0  0  0  0  0
   38.5980   32.6430   48.2410 C   0  0  0  0  0  0  0  0  0  0  0  0
   38.8140   33.3450   49.4070 C   0  0  0  0  0  0  0  0  0  0  0  0
   39.7220   34.3470   49.3430 N   0  0  0  0  0  0  0  0  0  0  0  0
   40.3530   34.5960   48.1580 C   0  0  0  0  0  0  0  0  0  0  0  0
   40.1440   33.9110   47.0150 N   0  0  0  0  0  0  0  0  0  0  0  0
   36.9864   29.6538   43.5603 H   0  0  0  0  0  0  0  0  0  0  0  0
   35.7748   30.9934   43.4444 H   0  0  0  0  0  0  0  0  0  0  0  0
   37.1335   32.2902   42.0836 H   0  0  0  0  0  0  0  0  0  0  0  0
   37.5893   30.6640   41.5266 H   0  0  0  0  0  0  0  0  0  0  0  0
   39.8750   33.0575   43.8375 H   0  0  0  0  0  0  0  0  0  0  0  0
   38.3231   33.5133   43.0231 H   0  0  0  0  0  0  0  0  0  0  0  0
   37.4484   33.3799   45.0952 H   0  0  0  0  0  0  0  0  0  0  0  0
   35.9170   29.9197   48.4181 H   0  0  0  0  0  0  0  0  0  0  0  0
   37.8662   31.8219   48.2587 H   0  0  0  0  0  0  0  0  0  0  0  0
   38.2787   33.1047   50.3374 H   0  0  0  0  0  0  0  0  0  0  0  0
   41.0860   35.4158   48.1337 H   0  0  0  0  0  0  0  0  0  0  0  0
  1 11  1  0
  1  2  2  0
  3  8  1  0
  3  1  1  0
  4  3  1  0
  5  6  1  0
  5  4  1  0
  6  7  1  0
  7  8  1  0
  8 24  1  0
  9 19  1  0
 10  9  2  0
 11 10  1  0
 12 13  1  0
 12 11  2  0
 13 14  2  0
 14  9  1  0
 15 18  1  0
 15 13  1  0
 16 15  1  0
 17 15  1  0
 19 20  1  0
 20 21  1  0
 20 23  1  0
 22 20  1  0
 24 25  1  0
 25 26  2  0
 26 27  1  0
 28 27  2  0
 29 28  1  0
 30 25  1  0
 30 29  2  0
  4 31  1  0
  4 32  1  0
  5 33  1  0
  5 34  1  0
  7 35  1  0
  7 36  1  0
  8 37  1  1
 10 38  1  0
 26 39  1  0
 27 40  1  0
 29 41  1  0
M  ISO  8  31  13  32  13  33  13  34  13  35  13  36  13  37  13  38  14
M  ISO  3  39  14  40  14  41  14
M  END
>  <minimizedAffinity>  (1) 
-5.41808319

>  <minimizedRMSD>  (1) 
1.94338274

$$$$
