
     RDKit          3D

 45 47  0  0  1  0  0  0  0  0999 V2000
   37.1040   30.5850   46.0630 C   0  0  0  0  0  0  0  0  0  0  0  0
   38.0150   30.3440   46.8890 O   0  0  0  0  0  0  0  0  0  0  0  0
   37.5020   31.3790   44.9630 N   0  0  0  0  0  0  0  0  0  0  0  0
   37.0480   30.9190   43.6590 C   0  0  0  0  0  0  0  0  0  0  0  0
   37.8530   31.5370   42.5330 C   0  0  0  0  0  0  0  0  0  0  0  0
   39.1580   31.6930   43.0040 O   0  0  0  0  0  0  0  0  0  0  0  0
   39.1250   32.8200   43.8320 C   0  0  0  0  0  0  0  0  0  0  0  0
   38.3030   32.5680   45.0800 C   0  0  2  0  0  0  0  0  0  0  0  0
   34.0190   29.2370   47.7640 C   0  0  0  0  0  0  0  0  0  0  0  0
   35.3430   29.7650   47.5880 C   0  0  0  0  0  0  0  0  0  0  0  0
   35.7740   30.0490   46.2970 C   0  0  0  0  0  0  0  0  0  0  0  0
   34.8920   29.8020   45.2880 N   0  0  0  0  0  0  0  0  0  0  0  0
   33.6720   29.3120   45.4860 C   0  0  0  0  0  0  0  0  0  0  0  0
   33.2440   29.0340   46.7040 N   0  0  0  0  0  0  0  0  0  0  0  0
   32.8570   29.1100   44.2480 C   0  0  0  0  0  0  0  0  0  0  0  0
   32.8020   30.2990   43.5040 F   0  0  0  0  0  0  0  0  0  0  0  0
   33.4830   28.1870   43.4310 F   0  0  0  0  0  0  0  0  0  0  0  0
   31.5910   28.6180   44.5140 F   0  0  0  0  0  0  0  0  0  0  0  0
   33.6060   28.9570   49.0580 O   0  0  0  0  0  0  0  0  0  0  0  0
   34.0610   29.6120   50.1910 C   0  0  0  0  0  0  0  0  0  0  0  0
   35.0570   28.9300   50.8680 F   0  0  0  0  0  0  0  0  0  0  0  0
   34.4220   30.9290   49.9860 F   0  0  0  0  0  0  0  0  0  0  0  0
   32.9400   29.6540   51.0500 F   0  0  0  0  0  0  0  0  0  0  0  0
   39.2730   32.2830   46.0770 O   0  0  0  0  0  0  0  0  0  0  0  0
   38.9740   32.4720   48.4360 N   0  0  0  0  0  0  0  0  0  0  0  0
   38.9080   33.6390   49.3260 C   0  0  0  0  0  0  0  0  0  0  0  0
   39.9550   34.6040   48.7570 C   0  0  0  0  0  0  0  0  0  0  0  0
   40.3040   34.0090   47.4080 C   0  0  0  0  0  0  0  0  0  0  0  0
   39.1130   33.1070   47.1730 C   0  0  1  0  0  0  0  0  0  0  0  0
   37.1510   29.8249   43.6116 H   0  0  0  0  0  0  0  0  0  0  0  0
   35.9980   31.2227   43.5356 H   0  0  0  0  0  0  0  0  0  0  0  0
   37.4306   32.5150   42.2588 H   0  0  0  0  0  0  0  0  0  0  0  0
   37.8318   30.8981   41.6378 H   0  0  0  0  0  0  0  0  0  0  0  0
   40.1531   33.0771   44.1269 H   0  0  0  0  0  0  0  0  0  0  0  0
   38.6600   33.6455   43.2732 H   0  0  0  0  0  0  0  0  0  0  0  0
   37.6397   33.4222   45.2811 H   0  0  0  0  0  0  0  0  0  0  0  0
   35.9996   29.9403   48.4529 H   0  0  0  0  0  0  0  0  0  0  0  0
   39.7859   31.8762   48.6520 H   0  0  0  0  0  0  0  0  0  0  0  0
   37.9059   34.0919   49.3021 H   0  0  0  0  0  0  0  0  0  0  0  0
   39.1010   33.3792   50.3773 H   0  0  0  0  0  0  0  0  0  0  0  0
   39.5348   35.6141   48.6423 H   0  0  0  0  0  0  0  0  0  0  0  0
   40.8318   34.7130   49.4122 H   0  0  0  0  0  0  0  0  0  0  0  0
   40.3822   34.7850   46.6323 H   0  0  0  0  0  0  0  0  0  0  0  0
   41.2756   33.4941   47.3774 H   0  0  0  0  0  0  0  0  0  0  0  0
   38.1851   33.6225   46.8843 H   0  0  0  0  0  0  0  0  0  0  0  0
  1 11  1  0
  1  2  2  0
  3  8  1  0
  3  1  1  0
  4  3  1  0
  5  6  1  0
  5  4  1  0
  6  7  1  0
  7  8  1  0
  8 24  1  0
  9 19  1  0
 10  9  2  0
 11 10  1  0
 12 13  1  0
 12 11  2  0
 13 14  2  0
 14  9  1  0
 15 18  1  0
 15 13  1  0
 16 15  1  0
 17 15  1  0
 19 20  1  0
 20 21  1  0
 20 23  1  0
 22 20  1  0
 25 26  1  0
 27 26  1  0
 28 27  1  0
 29 24  1  0
 29 28  1  0
 29 25  1  0
  4 30  1  0
  4 31  1  0
  5 32  1  0
  5 33  1  0
  7 34  1  0
  7 35  1  0
  8 36  1  1
 10 37  1  0
 25 38  1  0
 26 39  1  0
 26 40  1  0
 27 41  1  0
 27 42  1  0
 28 43  1  0
 28 44  1  0
 29 45  1  6
M  ISO  8  30  13  31  13  32  13  33  13  34  13  35  13  36  13  37  14
M  ISO  8  38   5  39  13  40  13  41  13  42  13  43  13  44  13  45  13
M  END
>  <minimizedAffinity>  (1) 
-5.23114204

>  <minimizedRMSD>  (1) 
1.82755339

$$$$
