
     RDKit          3D

 27 29  0  0  0  0  0  0  0  0999 V2000
   34.6570   28.3550   49.6500 C   0  0  0  0  0  0  0  0  0  0  0  0
   34.1590   28.6900   48.2850 C   0  0  0  0  0  0  0  0  0  0  0  0
   34.0220   30.0080   47.9880 N   0  0  0  0  0  0  0  0  0  0  0  0
   33.5800   30.3900   46.7820 C   0  0  0  0  0  0  0  0  0  0  0  0
   33.2620   29.4780   45.8400 N   0  0  0  0  0  0  0  0  0  0  0  0
   33.3800   28.1450   46.0850 C   0  0  0  0  0  0  0  0  0  0  0  0
   33.0590   27.1610   45.1410 C   0  0  0  0  0  0  0  0  0  0  0  0
   33.2100   25.8180   45.4870 C   0  0  0  0  0  0  0  0  0  0  0  0
   33.6640   25.4470   46.7310 C   0  0  0  0  0  0  0  0  0  0  0  0
   33.9790   26.4280   47.6590 C   0  0  0  0  0  0  0  0  0  0  0  0
   33.8350   27.7660   47.3270 C   0  0  0  0  0  0  0  0  0  0  0  0
   37.2880   30.2620   51.4160 C   0  0  0  0  0  0  0  0  0  0  0  0
   38.1250   30.6950   50.3790 C   0  0  0  0  0  0  0  0  0  0  0  0
   37.7870   30.3260   49.0760 C   0  0  0  0  0  0  0  0  0  0  0  0
   36.6550   29.5590   48.8790 N   0  0  0  0  0  0  0  0  0  0  0  0
   35.8690   29.1600   49.9140 C   0  0  0  0  0  0  0  0  0  0  0  0
   36.1930   29.5130   51.1600 N   0  0  0  0  0  0  0  0  0  0  0  0
   34.9030   27.2842   49.7035 H   0  0  0  0  0  0  0  0  0  0  0  0
   33.8839   28.5778   50.4001 H   0  0  0  0  0  0  0  0  0  0  0  0
   33.4750   31.4616   46.5570 H   0  0  0  0  0  0  0  0  0  0  0  0
   32.6936   27.4429   44.1425 H   0  0  0  0  0  0  0  0  0  0  0  0
   32.9609   25.0402   44.7501 H   0  0  0  0  0  0  0  0  0  0  0  0
   33.7761   24.3831   46.9872 H   0  0  0  0  0  0  0  0  0  0  0  0
   34.3428   26.1446   48.6577 H   0  0  0  0  0  0  0  0  0  0  0  0
   37.5260   30.5361   52.4544 H   0  0  0  0  0  0  0  0  0  0  0  0
   39.0173   31.3045   50.5846 H   0  0  0  0  0  0  0  0  0  0  0  0
   38.4086   30.6392   48.2243 H   0  0  0  0  0  0  0  0  0  0  0  0
  1 16  1  0
  2  1  1  0
  3  2  2  0
  4  3  1  0
  5  6  1  0
  5  4  2  0
  6 11  2  0
  7  8  2  0
  7  6  1  0
  8  9  1  0
  9 10  2  0
 11 10  1  0
 11  2  1  0
 13 12  2  0
 14 13  1  0
 15 14  2  0
 15 16  1  0
 16 17  2  0
 17 12  1  0
  1 18  1  0
  1 19  1  0
  4 20  1  0
  7 21  1  0
  8 22  1  0
  9 23  1  0
 10 24  1  0
 12 25  1  0
 13 26  1  0
 14 27  1  0
M  ISO  8  18   8  19   8  20  14  21  14  22  14  23  14  24  14  25  14
M  ISO  2  26  14  27  14
M  END
>  <minimizedAffinity>  (1) 
-4.79979849

>  <minimizedRMSD>  (1) 
0.974451065

$$$$
