
     RDKit          3D

 22 23  0  0  0  0  0  0  0  0999 V2000
   34.3450   30.3780   49.5530 C   0  0  0  0  0  0  0  0  0  0  0  0
   37.6510   30.2200   51.1820 C   0  0  0  0  0  0  0  0  0  0  0  0
   38.4450   31.0130   50.3350 C   0  0  0  0  0  0  0  0  0  0  0  0
   37.8580   31.6010   49.2090 C   0  0  0  0  0  0  0  0  0  0  0  0
   36.5200   31.3620   49.0050 N   0  0  0  0  0  0  0  0  0  0  0  0
   35.7800   30.5910   49.8420 C   0  0  0  0  0  0  0  0  0  0  0  0
   36.3610   30.0310   50.9220 N   0  0  0  0  0  0  0  0  0  0  0  0
   34.1540   29.3330   48.5040 C   0  0  0  0  0  0  0  0  0  0  0  0
   34.1030   28.0030   48.9230 C   0  0  0  0  0  0  0  0  0  0  0  0
   33.9280   27.0810   47.9410 C   0  0  0  0  0  0  0  0  0  0  0  0
   33.7970   27.3230   46.6000 C   0  0  0  0  0  0  0  0  0  0  0  0
   33.8570   28.6580   46.2600 C   0  0  0  0  0  0  0  0  0  0  0  0
   34.0310   29.6430   47.1890 N   0  0  0  0  0  0  0  0  0  0  0  0
   33.8372   30.0579   50.4748 H   0  0  0  0  0  0  0  0  0  0  0  0
   33.9203   31.3232   49.1839 H   0  0  0  0  0  0  0  0  0  0  0  0
   38.1018   29.7511   52.0690 H   0  0  0  0  0  0  0  0  0  0  0  0
   39.5116   31.1689   50.5541 H   0  0  0  0  0  0  0  0  0  0  0  0
   38.4416   32.2268   48.5178 H   0  0  0  0  0  0  0  0  0  0  0  0
   34.1985   27.7192   49.9815 H   0  0  0  0  0  0  0  0  0  0  0  0
   33.8872   26.0281   48.2568 H   0  0  0  0  0  0  0  0  0  0  0  0
   33.6562   26.5226   45.8587 H   0  0  0  0  0  0  0  0  0  0  0  0
   33.7611   28.9397   45.2010 H   0  0  0  0  0  0  0  0  0  0  0  0
  1  6  1  0
  3  2  2  0
  4  3  1  0
  5  4  2  0
  5  6  1  0
  6  7  2  0
  7  2  1  0
  8  9  2  0
  8  1  1  0
 10  9  1  0
 11 10  2  0
 12 11  1  0
 12 13  2  0
 13  8  1  0
  1 14  1  0
  1 15  1  0
  2 16  1  0
  3 17  1  0
  4 18  1  0
  9 19  1  0
 10 20  1  0
 11 21  1  0
 12 22  1  0
M  ISO  8  14   8  15   8  16  14  17  14  18  14  19  14  20  14  21  14
M  ISO  1  22  14
M  END
>  <minimizedAffinity>  (1) 
-4.16338444

>  <minimizedRMSD>  (1) 
2.81410766

$$$$
