
     RDKit          3D

 19 20  0  0  0  0  0  0  0  0999 V2000
   37.7210   29.7430   50.1140 C   0  0  0  0  0  0  0  0  0  0  0  0
   37.9480   30.6280   49.0510 C   0  0  0  0  0  0  0  0  0  0  0  0
   36.8320   31.0750   48.3050 C   0  0  0  0  0  0  0  0  0  0  0  0
   35.5980   30.6080   48.6750 N   0  0  0  0  0  0  0  0  0  0  0  0
   35.4200   29.7580   49.7030 C   0  0  0  0  0  0  0  0  0  0  0  0
   36.4840   29.3360   50.4090 N   0  0  0  0  0  0  0  0  0  0  0  0
   34.0590   29.2980   50.0410 C   0  0  0  0  0  0  0  0  0  0  0  0
   33.5480   28.2600   49.1100 C   0  0  0  0  0  0  0  0  0  0  0  0
   32.1500   28.0160   48.9970 C   0  0  0  0  0  0  0  0  0  0  0  0
   32.0190   26.6400   47.7110 S   0  0  0  0  0  0  0  0  0  0  0  0
   33.9110   26.6700   47.5800 C   0  0  0  0  0  0  0  0  0  0  0  0
   34.2270   27.4660   48.3040 N   0  0  0  0  0  0  0  0  0  0  0  0
   38.5705   29.3801   50.7112 H   0  0  0  0  0  0  0  0  0  0  0  0
   38.9653   30.9655   48.8037 H   0  0  0  0  0  0  0  0  0  0  0  0
   36.9503   31.7703   47.4609 H   0  0  0  0  0  0  0  0  0  0  0  0
   34.0732   28.8797   51.0583 H   0  0  0  0  0  0  0  0  0  0  0  0
   33.3896   30.1674   49.9630 H   0  0  0  0  0  0  0  0  0  0  0  0
   31.3319   28.5157   49.5365 H   0  0  0  0  0  0  0  0  0  0  0  0
   34.5528   26.0477   46.9391 H   0  0  0  0  0  0  0  0  0  0  0  0
  1  6  2  0
  2  1  1  0
  3  4  1  0
  3  2  2  0
  4  5  2  0
  5  7  1  0
  5  6  1  0
  8  7  1  0
  9  8  2  0
 10  9  1  0
 11 10  1  0
 11 12  2  0
 12  8  1  0
  1 13  1  0
  2 14  1  0
  3 15  1  0
  7 16  1  0
  7 17  1  0
  9 18  1  0
 11 19  1  0
M  ISO  7  13  14  14  14  15  14  16   8  17   8  18  14  19  14
M  END
>  <minimizedAffinity>  (1) 
-3.55054283

>  <minimizedRMSD>  (1) 
2.40592527

$$$$
