
     RDKit          3D

 33 35  0  0  1  0  0  0  0  0999 V2000
   36.3300   30.2800   50.4800 C   0  0  2  0  0  0  0  0  0  0  0  0
   35.6080   29.2880   51.2960 C   0  0  0  0  0  0  0  0  0  0  0  0
   35.8810   28.9480   49.8860 C   0  0  1  0  0  0  0  0  0  0  0  0
   32.8350   29.0660   46.8610 C   0  0  0  0  0  0  0  0  0  0  0  0
   32.7530   28.1570   47.8870 C   0  0  0  0  0  0  0  0  0  0  0  0
   33.7220   28.0950   48.8780 C   0  0  0  0  0  0  0  0  0  0  0  0
   34.8160   28.9530   48.8730 C   0  0  0  0  0  0  0  0  0  0  0  0
   34.8480   29.8580   47.8050 C   0  0  0  0  0  0  0  0  0  0  0  0
   33.8990   29.9410   46.8070 C   0  0  0  0  0  0  0  0  0  0  0  0
   31.6570   29.2110   45.5730 S   0  0  0  0  0  0  0  0  0  0  0  0
   32.1180   30.2930   44.6070 O   0  0  0  0  0  0  0  0  0  0  0  0
   30.3730   29.6580   46.1610 O   0  0  0  0  0  0  0  0  0  0  0  0
   37.8210   30.4470   50.5870 C   0  0  0  0  0  0  0  0  0  0  0  0
   38.9770   33.3160   48.5970 C   0  0  0  0  0  0  0  0  0  0  0  0
   39.0760   32.7770   47.3010 C   0  0  0  0  0  0  0  0  0  0  0  0
   38.7420   31.4250   47.1240 C   0  0  0  0  0  0  0  0  0  0  0  0
   38.3420   30.7200   48.2280 N   0  0  0  0  0  0  0  0  0  0  0  0
   38.2610   31.2780   49.4560 C   0  0  0  0  0  0  0  0  0  0  0  0
   38.5780   32.5710   49.6370 N   0  0  0  0  0  0  0  0  0  0  0  0
   36.1750   31.3546   50.3035 H   0  0  0  0  0  0  0  0  0  0  0  0
   36.1393   28.7528   52.0968 H   0  0  0  0  0  0  0  0  0  0  0  0
   34.6965   29.3224   51.9109 H   0  0  0  0  0  0  0  0  0  0  0  0
   36.3557   28.0942   49.3803 H   0  0  0  0  0  0  0  0  0  0  0  0
   31.9005   27.4629   47.9240 H   0  0  0  0  0  0  0  0  0  0  0  0
   33.6228   27.3525   49.6835 H   0  0  0  0  0  0  0  0  0  0  0  0
   35.6958   30.5573   47.7580 H   0  0  0  0  0  0  0  0  0  0  0  0
   33.9882   30.6795   45.9966 H   0  0  0  0  0  0  0  0  0  0  0  0
   31.5166   28.0094   44.9300 H   0  0  0  0  0  0  0  0  0  0  0  0
   38.0753   30.9414   51.5362 H   0  0  0  0  0  0  0  0  0  0  0  0
   38.3208   29.4674   50.5623 H   0  0  0  0  0  0  0  0  0  0  0  0
   39.2330   34.3733   48.7602 H   0  0  0  0  0  0  0  0  0  0  0  0
   39.4048   33.3957   46.4530 H   0  0  0  0  0  0  0  0  0  0  0  0
   38.7995   30.9489   46.1340 H   0  0  0  0  0  0  0  0  0  0  0  0
  1 13  1  0
  1  2  1  0
  3  1  1  0
  3  2  1  0
  4  5  2  0
  5  6  1  0
  7  6  2  0
  7  3  1  0
  8  7  1  0
  9  4  1  0
  9  8  2  0
 10 12  2  0
 10  4  1  0
 11 10  2  0
 14 19  2  0
 15 14  1  0
 16 15  2  0
 16 17  1  0
 17 18  2  0
 18 19  1  0
 18 13  1  0
  1 20  1  6
  2 21  1  0
  2 22  1  0
  3 23  1  1
  5 24  1  0
  6 25  1  0
  8 26  1  0
  9 27  1  0
 10 28  1  0
 13 29  1  0
 13 30  1  0
 14 31  1  0
 15 32  1  0
 16 33  1  0
M  ISO  8  20  13  21  13  22  13  23  13  24  14  25  14  26  14  27  14
M  ISO  6  28  11  29   8  30   8  31  14  32  14  33  14
M  END
>  <minimizedAffinity>  (1) 
-5.73505402

>  <minimizedRMSD>  (1) 
2.08214855

$$$$
