
     RDKit          3D

 31 33  0  0  1  0  0  0  0  0999 V2000
   35.9870   30.1490   49.8910 C   0  0  2  0  0  0  0  0  0  0  0  0
   35.0900   29.1890   50.5660 C   0  0  0  0  0  0  0  0  0  0  0  0
   35.5400   28.8860   49.1870 C   0  0  1  0  0  0  0  0  0  0  0  0
   34.5220   29.0950   48.1500 N   0  0  0  0  0  0  0  0  0  0  0  0
   34.2940   30.2770   47.5480 C   0  0  0  0  0  0  0  0  0  0  0  0
   33.2880   30.2880   46.5850 C   0  0  0  0  0  0  0  0  0  0  0  0
   32.5790   29.1320   46.2860 C   0  0  0  0  0  0  0  0  0  0  0  0
   31.5640   29.1650   45.3070 N   0  0  0  0  0  0  0  0  0  0  0  0
   32.8340   27.9640   46.9090 N   0  0  0  0  0  0  0  0  0  0  0  0
   33.8190   27.9640   47.8480 C   0  0  0  0  0  0  0  0  0  0  0  0
   34.0270   26.8640   48.4040 O   0  0  0  0  0  0  0  0  0  0  0  0
   37.4600   30.2060   50.2280 C   0  0  0  0  0  0  0  0  0  0  0  0
   38.9370   33.2900   48.8510 C   0  0  0  0  0  0  0  0  0  0  0  0
   39.1990   32.9360   47.5280 C   0  0  0  0  0  0  0  0  0  0  0  0
   38.8760   31.6500   47.0960 C   0  0  0  0  0  0  0  0  0  0  0  0
   38.3090   30.7980   48.0210 N   0  0  0  0  0  0  0  0  0  0  0  0
   38.0720   31.1880   49.3050 C   0  0  0  0  0  0  0  0  0  0  0  0
   38.3930   32.4440   49.7100 N   0  0  0  0  0  0  0  0  0  0  0  0
   35.9333   31.2358   49.7297 H   0  0  0  0  0  0  0  0  0  0  0  0
   35.4668   28.5888   51.4073 H   0  0  0  0  0  0  0  0  0  0  0  0
   34.1074   29.2676   51.0542 H   0  0  0  0  0  0  0  0  0  0  0  0
   36.0421   28.0407   48.6937 H   0  0  0  0  0  0  0  0  0  0  0  0
   34.8680   31.1805   47.8015 H   0  0  0  0  0  0  0  0  0  0  0  0
   33.0524   31.2228   46.0553 H   0  0  0  0  0  0  0  0  0  0  0  0
   31.0364   28.3092   45.0831 H   0  0  0  0  0  0  0  0  0  0  0  0
   31.3504   30.0449   44.8161 H   0  0  0  0  0  0  0  0  0  0  0  0
   37.5978   30.5291   51.2704 H   0  0  0  0  0  0  0  0  0  0  0  0
   37.9284   29.2167   50.1191 H   0  0  0  0  0  0  0  0  0  0  0  0
   39.1907   34.3049   49.1911 H   0  0  0  0  0  0  0  0  0  0  0  0
   39.6535   33.6600   46.8357 H   0  0  0  0  0  0  0  0  0  0  0  0
   39.0654   31.3285   46.0612 H   0  0  0  0  0  0  0  0  0  0  0  0
  1 12  1  0
  1  2  1  0
  3  1  1  0
  3  2  1  0
  4  3  1  0
  5  4  1  0
  6  5  2  0
  7  6  1  0
  7  9  2  0
  8  7  1  0
  9 10  1  0
 10  4  1  0
 10 11  2  0
 13 18  2  0
 14 13  1  0
 15 14  2  0
 15 16  1  0
 16 17  2  0
 17 18  1  0
 17 12  1  0
  1 19  1  6
  2 20  1  0
  2 21  1  0
  3 22  1  1
  5 23  1  0
  6 24  1  0
  8 25  1  0
  8 26  1  0
 12 27  1  0
 12 28  1  0
 13 29  1  0
 14 30  1  0
 15 31  1  0
M  ISO  8  19  13  20  13  21  13  22  13  23  14  24  14  27   8  28   8
M  ISO  3  29  14  30  14  31  14
M  END
>  <minimizedAffinity>  (1) 
-5.14162111

>  <minimizedRMSD>  (1) 
1.44274592

$$$$
