
     RDKit          3D

 28 30  0  0  1  0  0  0  0  0999 V2000
   35.3180   29.4610   49.1320 C   0  0  2  0  0  0  0  0  0  0  0  0
   34.2970   29.5790   50.1940 C   0  0  0  0  0  0  0  0  0  0  0  0
   34.4900   28.2570   49.5640 C   0  0  1  0  0  0  0  0  0  0  0  0
   33.5060   27.7170   48.5790 C   0  0  0  0  0  0  0  0  0  0  0  0
   33.9070   26.9560   47.4980 C   0  0  0  0  0  0  0  0  0  0  0  0
   32.9390   26.4940   46.6350 C   0  0  0  0  0  0  0  0  0  0  0  0
   31.6100   26.7400   46.7770 N   0  0  0  0  0  0  0  0  0  0  0  0
   31.2510   27.4950   47.8530 C   0  0  0  0  0  0  0  0  0  0  0  0
   32.1900   27.9480   48.7010 N   0  0  0  0  0  0  0  0  0  0  0  0
   36.7820   29.3540   49.4920 C   0  0  0  0  0  0  0  0  0  0  0  0
   37.9270   32.8470   49.3980 C   0  0  0  0  0  0  0  0  0  0  0  0
   38.6780   32.9040   48.2230 C   0  0  0  0  0  0  0  0  0  0  0  0
   38.7890   31.7330   47.4620 C   0  0  0  0  0  0  0  0  0  0  0  0
   38.1570   30.6080   47.9130 N   0  0  0  0  0  0  0  0  0  0  0  0
   37.4380   30.6030   49.0640 C   0  0  0  0  0  0  0  0  0  0  0  0
   37.3250   31.7220   49.8040 N   0  0  0  0  0  0  0  0  0  0  0  0
   35.5141   30.0378   48.2161 H   0  0  0  0  0  0  0  0  0  0  0  0
   34.6116   29.7362   51.2363 H   0  0  0  0  0  0  0  0  0  0  0  0
   33.4263   30.2330   50.3493 H   0  0  0  0  0  0  0  0  0  0  0  0
   34.6778   27.2473   49.9581 H   0  0  0  0  0  0  0  0  0  0  0  0
   34.9697   26.7257   47.3315 H   0  0  0  0  0  0  0  0  0  0  0  0
   33.2617   25.8873   45.7761 H   0  0  0  0  0  0  0  0  0  0  0  0
   30.1916   27.7339   48.0277 H   0  0  0  0  0  0  0  0  0  0  0  0
   36.8927   29.2254   50.5788 H   0  0  0  0  0  0  0  0  0  0  0  0
   37.2401   28.4865   48.9944 H   0  0  0  0  0  0  0  0  0  0  0  0
   37.8264   33.7554   50.0102 H   0  0  0  0  0  0  0  0  0  0  0  0
   39.1663   33.8370   47.9051 H   0  0  0  0  0  0  0  0  0  0  0  0
   39.3688   31.7193   46.5273 H   0  0  0  0  0  0  0  0  0  0  0  0
  1 10  1  0
  1  3  1  0
  1  2  1  0
  3  2  1  0
  4  9  1  0
  4  3  1  0
  5  4  2  0
  6  7  2  0
  6  5  1  0
  7  8  1  0
  8  9  2  0
 11 16  2  0
 12 11  1  0
 13 14  1  0
 13 12  2  0
 14 15  2  0
 15 10  1  0
 15 16  1  0
  1 17  1  6
  2 18  1  0
  2 19  1  0
  3 20  1  1
  5 21  1  0
  6 22  1  0
  8 23  1  0
 10 24  1  0
 10 25  1  0
 11 26  1  0
 12 27  1  0
 13 28  1  0
M  ISO  8  17  13  18  13  19  13  20  13  21  14  22  14  23  14  24   8
M  ISO  4  25   8  26  14  27  14  28  14
M  END
>  <minimizedAffinity>  (1) 
-5.01895142

>  <minimizedRMSD>  (1) 
0.800787807

$$$$
