
     RDKit          3D

 33 35  0  0  1  0  0  0  0  0999 V2000
   36.6380   29.4440   49.3770 C   0  0  0  0  0  0  0  0  0  0  0  0
   37.9450   32.8780   49.4200 C   0  0  0  0  0  0  0  0  0  0  0  0
   38.7820   32.9190   48.2810 C   0  0  0  0  0  0  0  0  0  0  0  0
   38.8750   31.7530   47.5230 C   0  0  0  0  0  0  0  0  0  0  0  0
   38.1700   30.6500   47.9050 N   0  0  0  0  0  0  0  0  0  0  0  0
   37.3740   30.6600   49.0120 C   0  0  0  0  0  0  0  0  0  0  0  0
   37.2800   31.7800   49.7480 N   0  0  0  0  0  0  0  0  0  0  0  0
   35.1690   29.7090   49.1080 C   0  0  2  0  0  0  0  0  0  0  0  0
   34.1530   29.2570   50.0890 C   0  0  0  0  0  0  0  0  0  0  0  0
   34.3390   28.4750   48.8580 C   0  0  1  0  0  0  0  0  0  0  0  0
   33.3320   28.4590   47.7400 C   0  0  0  0  0  0  0  0  0  0  0  0
   32.0080   27.8360   48.1360 C   0  0  0  0  0  0  0  0  0  0  0  0
   32.2010   26.3590   48.0080 C   0  0  0  0  0  0  0  0  0  0  0  0
   33.6130   26.1570   47.4540 C   0  0  0  0  0  0  0  0  0  0  0  0
   33.7900   27.4570   46.7000 C   0  0  0  0  0  0  0  0  0  0  0  0
   36.9854   28.5964   48.7680 H   0  0  0  0  0  0  0  0  0  0  0  0
   36.8013   29.1925   50.4353 H   0  0  0  0  0  0  0  0  0  0  0  0
   37.8439   33.7763   50.0467 H   0  0  0  0  0  0  0  0  0  0  0  0
   39.3345   33.8295   48.0058 H   0  0  0  0  0  0  0  0  0  0  0  0
   39.5106   31.7228   46.6258 H   0  0  0  0  0  0  0  0  0  0  0  0
   35.3666   30.6696   48.6098 H   0  0  0  0  0  0  0  0  0  0  0  0
   34.4742   28.8397   51.0548 H   0  0  0  0  0  0  0  0  0  0  0  0
   33.2883   29.7321   50.5754 H   0  0  0  0  0  0  0  0  0  0  0  0
   34.5337   27.4122   48.6516 H   0  0  0  0  0  0  0  0  0  0  0  0
   33.2350   29.5087   47.4258 H   0  0  0  0  0  0  0  0  0  0  0  0
   31.7544   28.1011   49.1730 H   0  0  0  0  0  0  0  0  0  0  0  0
   31.1847   28.1943   47.5005 H   0  0  0  0  0  0  0  0  0  0  0  0
   32.1049   25.8757   48.9914 H   0  0  0  0  0  0  0  0  0  0  0  0
   31.4441   25.9127   47.3462 H   0  0  0  0  0  0  0  0  0  0  0  0
   34.3551   26.0478   48.2586 H   0  0  0  0  0  0  0  0  0  0  0  0
   33.7466   25.2488   46.8479 H   0  0  0  0  0  0  0  0  0  0  0  0
   34.8404   27.6201   46.4170 H   0  0  0  0  0  0  0  0  0  0  0  0
   33.2405   27.5078   45.7485 H   0  0  0  0  0  0  0  0  0  0  0  0
  2  7  2  0
  3  2  1  0
  4  5  1  0
  4  3  2  0
  5  6  2  0
  6  1  1  0
  6  7  1  0
  8  1  1  0
  8  9  1  0
 10  8  1  0
 10  9  1  0
 11 12  1  0
 11 10  1  0
 13 12  1  0
 14 13  1  0
 15 14  1  0
 15 11  1  0
  1 16  1  0
  1 17  1  0
  2 18  1  0
  3 19  1  0
  4 20  1  0
  8 21  1  6
  9 22  1  0
  9 23  1  0
 10 24  1  1
 11 25  1  0
 12 26  1  0
 12 27  1  0
 13 28  1  0
 13 29  1  0
 14 30  1  0
 14 31  1  0
 15 32  1  0
 15 33  1  0
M  ISO  8  16   8  17   8  18  14  19  14  20  14  21  13  22  13  23  13
M  ISO  8  24  13  25  13  26  13  27  13  28  13  29  13  30  13  31  13
M  ISO  2  32  13  33  13
M  END
>  <minimizedAffinity>  (1) 
-4.97242403

>  <minimizedRMSD>  (1) 
1.16418767

$$$$
