
     RDKit          3D

 26 27  0  0  1  0  0  0  0  0999 V2000
   36.8490   29.4110   49.7210 C   0  0  0  0  0  0  0  0  0  0  0  0
   38.4290   32.7180   49.3760 C   0  0  0  0  0  0  0  0  0  0  0  0
   38.9210   32.7070   48.0650 C   0  0  0  0  0  0  0  0  0  0  0  0
   38.7040   31.5570   47.3070 C   0  0  0  0  0  0  0  0  0  0  0  0
   38.0260   30.5340   47.9080 N   0  0  0  0  0  0  0  0  0  0  0  0
   37.5670   30.5750   49.1700 C   0  0  0  0  0  0  0  0  0  0  0  0
   37.7800   31.6910   49.9020 N   0  0  0  0  0  0  0  0  0  0  0  0
   35.4590   29.4190   49.1050 C   0  0  2  0  0  0  0  0  0  0  0  0
   34.2730   29.4620   50.0020 C   0  0  0  0  0  0  0  0  0  0  0  0
   34.6610   28.1730   49.3850 C   0  0  1  0  0  0  0  0  0  0  0  0
   33.8000   27.6760   48.2260 C   0  0  0  0  0  0  0  0  0  0  0  0
   32.3350   27.7390   48.6570 C   0  0  0  0  0  0  0  0  0  0  0  0
   37.3749   28.4818   49.4563 H   0  0  0  0  0  0  0  0  0  0  0  0
   36.7943   29.4648   50.8183 H   0  0  0  0  0  0  0  0  0  0  0  0
   38.5880   33.6149   49.9928 H   0  0  0  0  0  0  0  0  0  0  0  0
   39.4580   33.5723   47.6492 H   0  0  0  0  0  0  0  0  0  0  0  0
   39.0630   31.4767   46.2703 H   0  0  0  0  0  0  0  0  0  0  0  0
   35.7623   30.0094   48.2279 H   0  0  0  0  0  0  0  0  0  0  0  0
   34.4095   29.6145   51.0828 H   0  0  0  0  0  0  0  0  0  0  0  0
   33.3480   30.0567   50.0310 H   0  0  0  0  0  0  0  0  0  0  0  0
   34.8780   27.1666   49.7724 H   0  0  0  0  0  0  0  0  0  0  0  0
   34.0710   26.6389   47.9790 H   0  0  0  0  0  0  0  0  0  0  0  0
   33.9614   28.3033   47.3369 H   0  0  0  0  0  0  0  0  0  0  0  0
   32.2757   27.7415   49.7554 H   0  0  0  0  0  0  0  0  0  0  0  0
   31.8760   28.6577   48.2629 H   0  0  0  0  0  0  0  0  0  0  0  0
   31.7989   26.8631   48.2629 H   0  0  0  0  0  0  0  0  0  0  0  0
  2  7  2  0
  3  2  1  0
  4  5  1  0
  4  3  2  0
  5  6  2  0
  6  1  1  0
  6  7  1  0
  8 10  1  0
  8  1  1  0
  8  9  1  0
 10  9  1  0
 11 12  1  0
 11 10  1  0
  1 13  1  0
  1 14  1  0
  2 15  1  0
  3 16  1  0
  4 17  1  0
  8 18  1  6
  9 19  1  0
  9 20  1  0
 10 21  1  1
 11 22  1  0
 11 23  1  0
 12 24  1  0
 12 25  1  0
 12 26  1  0
M  ISO  8  13   8  14   8  15  14  16  14  17  14  18  13  19  13  20  13
M  ISO  6  21  13  22   8  23   8  24   8  25   8  26   8
M  END
>  <minimizedAffinity>  (1) 
-4.58980513

>  <minimizedRMSD>  (1) 
0.424212933

$$$$
