
     RDKit          3D

 22 23  0  0  1  0  0  0  0  0999 V2000
   36.4290   29.9760   48.7400 C   0  0  0  0  0  0  0  0  0  0  0  0
   38.0870   33.2020   49.3680 C   0  0  0  0  0  0  0  0  0  0  0  0
   39.0300   33.2690   48.3340 C   0  0  0  0  0  0  0  0  0  0  0  0
   39.1010   32.2150   47.4210 C   0  0  0  0  0  0  0  0  0  0  0  0
   38.2240   31.1660   47.6050 N   0  0  0  0  0  0  0  0  0  0  0  0
   37.3280   31.1440   48.6230 C   0  0  0  0  0  0  0  0  0  0  0  0
   37.2650   32.1650   49.5010 N   0  0  0  0  0  0  0  0  0  0  0  0
   35.5350   30.2160   49.9220 C   0  0  2  0  0  0  0  0  0  0  0  0
   35.5380   29.2760   51.0760 C   0  0  0  0  0  0  0  0  0  0  0  0
   34.4280   29.1900   50.1100 C   0  0  2  0  0  0  0  0  0  0  0  0
   34.3130   28.1250   49.0870 C   0  0  0  0  0  0  0  0  0  0  0  0
   33.1160   27.8700   48.8980 O   0  0  0  0  0  0  0  0  0  0  0  0
   37.0194   29.0608   48.8945 H   0  0  0  0  0  0  0  0  0  0  0  0
   35.8353   29.8487   47.8228 H   0  0  0  0  0  0  0  0  0  0  0  0
   38.0248   34.0299   50.0897 H   0  0  0  0  0  0  0  0  0  0  0  0
   39.7016   34.1354   48.2432 H   0  0  0  0  0  0  0  0  0  0  0  0
   39.8240   32.2208   46.5920 H   0  0  0  0  0  0  0  0  0  0  0  0
   35.6321   31.3085   49.8388 H   0  0  0  0  0  0  0  0  0  0  0  0
   36.2854   28.4701   51.1205 H   0  0  0  0  0  0  0  0  0  0  0  0
   35.5974   29.4011   52.1672 H   0  0  0  0  0  0  0  0  0  0  0  0
   33.3350   29.1792   50.2338 H   0  0  0  0  0  0  0  0  0  0  0  0
   35.1568   27.6380   48.5763 H   0  0  0  0  0  0  0  0  0  0  0  0
  1  8  1  0
  2  7  2  0
  3  2  1  0
  4  5  1  0
  4  3  2  0
  5  6  2  0
  6  1  1  0
  6  7  1  0
  8 10  1  0
  8  9  1  0
 10  9  1  0
 11 10  1  0
 12 11  2  0
  1 13  1  0
  1 14  1  0
  2 15  1  0
  3 16  1  0
  4 17  1  0
  8 18  1  1
  9 19  1  0
  9 20  1  0
 10 21  1  1
 11 22  1  0
M  ISO  8  13   8  14   8  15  14  16  14  17  14  18  13  19  13  20  13
M  ISO  2  21  13  22   6
M  END
>  <minimizedAffinity>  (1) 
-4.41099167

>  <minimizedRMSD>  (1) 
1.30938923

$$$$
