
     RDKit          3D

 42 45  0  0  1  0  0  0  0  0999 V2000
   38.3450   32.3870   44.9140 C   0  0  0  0  0  0  0  0  0  0  0  0
   38.8310   31.8440   43.6050 C   0  0  0  0  0  0  0  0  0  0  0  0
   39.1900   32.7530   42.5630 C   0  0  0  0  0  0  0  0  0  0  0  0
   39.6930   31.5910   41.2480 S   0  0  0  0  0  0  0  0  0  0  0  0
   39.3320   30.0790   42.3320 C   0  0  0  0  0  0  0  0  0  0  0  0
   38.9790   30.5890   43.2750 N   0  0  0  0  0  0  0  0  0  0  0  0
   39.4850   28.6810   41.9920 N   0  0  0  0  0  0  0  0  0  0  0  0
   39.1890   27.6630   42.7960 C   0  0  0  0  0  0  0  0  0  0  0  0
   39.4640   26.5160   42.1350 N   0  0  0  0  0  0  0  0  0  0  0  0
   39.9280   26.8850   40.9230 C   0  0  0  0  0  0  0  0  0  0  0  0
   40.3500   26.0740   39.8650 C   0  0  0  0  0  0  0  0  0  0  0  0
   40.7750   26.6940   38.7370 N   0  0  0  0  0  0  0  0  0  0  0  0
   40.7840   28.0460   38.6580 C   0  0  0  0  0  0  0  0  0  0  0  0
   40.3770   28.8570   39.6770 N   0  0  0  0  0  0  0  0  0  0  0  0
   39.9500   28.2810   40.8100 C   0  0  0  0  0  0  0  0  0  0  0  0
   40.3310   24.6540   39.9870 N   0  0  0  0  0  0  0  0  0  0  0  0
   39.2860   32.1390   46.0460 C   0  0  1  0  0  0  0  0  0  0  0  0
   37.9400   32.8000   49.5400 C   0  0  0  0  0  0  0  0  0  0  0  0
   38.7540   32.9300   48.4020 C   0  0  0  0  0  0  0  0  0  0  0  0
   38.5200   32.1180   47.3020 C   0  0  0  0  0  0  0  0  0  0  0  0
   37.4730   31.2070   47.3950 N   0  0  0  0  0  0  0  0  0  0  0  0
   36.7090   31.1030   48.4940 C   0  0  0  0  0  0  0  0  0  0  0  0
   36.9290   31.8840   49.5620 N   0  0  0  0  0  0  0  0  0  0  0  0
   39.8960   30.7540   45.8830 C   0  0  0  0  0  0  0  0  0  0  0  0
   40.3650   33.1510   46.0310 C   0  0  0  0  0  0  0  0  0  0  0  0
   39.8800   34.3400   45.4890 O   0  0  0  0  0  0  0  0  0  0  0  0
   38.2036   33.4729   44.8099 H   0  0  0  0  0  0  0  0  0  0  0  0
   37.4061   31.8659   45.1527 H   0  0  0  0  0  0  0  0  0  0  0  0
   39.1690   33.8528   42.5552 H   0  0  0  0  0  0  0  0  0  0  0  0
   38.7907   27.7408   43.8184 H   0  0  0  0  0  0  0  0  0  0  0  0
   41.1367   28.5132   37.7267 H   0  0  0  0  0  0  0  0  0  0  0  0
   40.6439   24.0654   39.2018 H   0  0  0  0  0  0  0  0  0  0  0  0
   40.0043   24.2165   40.8604 H   0  0  0  0  0  0  0  0  0  0  0  0
   38.1186   33.4395   50.4170 H   0  0  0  0  0  0  0  0  0  0  0  0
   39.5689   33.6686   48.3836 H   0  0  0  0  0  0  0  0  0  0  0  0
   35.8916   30.3674   48.5189 H   0  0  0  0  0  0  0  0  0  0  0  0
   40.0877   30.3187   46.8749 H   0  0  0  0  0  0  0  0  0  0  0  0
   39.1986   30.1092   45.3282 H   0  0  0  0  0  0  0  0  0  0  0  0
   40.8425   30.8332   45.3282 H   0  0  0  0  0  0  0  0  0  0  0  0
   40.7125   33.3316   47.0589 H   0  0  0  0  0  0  0  0  0  0  0  0
   41.2027   32.7844   45.4196 H   0  0  0  0  0  0  0  0  0  0  0  0
   39.6281   34.9576   46.2206 H   0  0  0  0  0  0  0  0  0  0  0  0
  2  1  1  0
  3  2  2  0
  4  5  1  0
  4  3  1  0
  5  6  2  0
  6  2  1  0
  7  5  1  0
  7  8  1  0
  9  8  2  0
 10  9  1  0
 11 16  1  0
 11 10  2  0
 12 11  1  0
 13 12  2  0
 13 14  1  0
 14 15  2  0
 15 10  1  0
 15  7  1  0
 17  1  1  6
 17 20  1  0
 18 23  2  0
 19 18  1  0
 20 21  1  0
 20 19  2  0
 21 22  2  0
 22 23  1  0
 24 17  1  0
 25 17  1  0
 26 25  1  0
  1 27  1  0
  1 28  1  0
  3 29  1  0
  8 30  1  0
 13 31  1  0
 16 32  1  0
 16 33  1  0
 18 34  1  0
 19 35  1  0
 22 36  1  0
 24 37  1  0
 24 38  1  0
 24 39  1  0
 25 40  1  0
 25 41  1  0
 26 42  1  0
M  ISO  8  27   8  28   8  29  14  30  14  31  14  34  14  35  14  36  14
M  ISO  6  37   8  38   8  39   8  40   8  41   8  42   3
M  END
>  <minimizedAffinity>  (1) 
-5.91391325

>  <minimizedRMSD>  (1) 
0.214125112

$$$$
