
     RDKit          3D

 38 40  0  0  1  0  0  0  0  0999 V2000
   35.2390   29.4890   49.0750 C   0  0  2  0  0  0  0  0  0  0  0  0
   34.0760   29.5000   49.9730 C   0  0  0  0  0  0  0  0  0  0  0  0
   34.4530   28.2080   49.4160 C   0  0  1  0  0  0  0  0  0  0  0  0
   36.6220   29.4980   49.7200 C   0  0  0  0  0  0  0  0  0  0  0  0
   37.9430   32.9030   49.4090 C   0  0  0  0  0  0  0  0  0  0  0  0
   38.7070   32.8370   48.2340 C   0  0  0  0  0  0  0  0  0  0  0  0
   38.7580   31.6060   47.5560 C   0  0  0  0  0  0  0  0  0  0  0  0
   38.0600   30.5420   48.0810 N   0  0  0  0  0  0  0  0  0  0  0  0
   37.3480   30.6620   49.2060 C   0  0  0  0  0  0  0  0  0  0  0  0
   37.2940   31.8420   49.8630 N   0  0  0  0  0  0  0  0  0  0  0  0
   33.5240   27.6740   48.3580 C   0  0  0  0  0  0  0  0  0  0  0  0
   34.0720   26.8360   47.5380 O   0  0  0  0  0  0  0  0  0  0  0  0
   32.1870   27.9950   48.2170 O   0  0  0  0  0  0  0  0  0  0  0  0
   30.1880   28.4330   49.2820 N   0  0  0  0  0  0  0  0  0  0  0  0
   30.2250   26.9720   49.3670 C   0  0  0  0  0  0  0  0  0  0  0  0
   30.4170   26.4760   47.9640 C   0  0  0  0  0  0  0  0  0  0  0  0
   31.3290   27.4840   47.2510 C   0  0  0  0  0  0  0  0  0  0  0  0
   30.3930   28.6050   46.8340 C   0  0  0  0  0  0  0  0  0  0  0  0
   29.5140   28.8570   48.0610 C   0  0  0  0  0  0  0  0  0  0  0  0
   35.5196   30.0697   48.1839 H   0  0  0  0  0  0  0  0  0  0  0  0
   34.2245   29.6892   51.0464 H   0  0  0  0  0  0  0  0  0  0  0  0
   33.1368   30.0725   49.9871 H   0  0  0  0  0  0  0  0  0  0  0  0
   34.7191   27.2160   49.8099 H   0  0  0  0  0  0  0  0  0  0  0  0
   36.5246   29.5705   50.8133 H   0  0  0  0  0  0  0  0  0  0  0  0
   37.1636   28.5709   49.4809 H   0  0  0  0  0  0  0  0  0  0  0  0
   37.8822   33.8519   49.9621 H   0  0  0  0  0  0  0  0  0  0  0  0
   39.2473   33.7176   47.8563 H   0  0  0  0  0  0  0  0  0  0  0  0
   39.3409   31.4961   46.6296 H   0  0  0  0  0  0  0  0  0  0  0  0
   29.6806   28.8071   50.0965 H   0  0  0  0  0  0  0  0  0  0  0  0
   31.0614   26.6481   50.0038 H   0  0  0  0  0  0  0  0  0  0  0  0
   29.3010   26.5727   49.8105 H   0  0  0  0  0  0  0  0  0  0  0  0
   30.8891   25.4825   47.9761 H   0  0  0  0  0  0  0  0  0  0  0  0
   29.4515   26.3853   47.4447 H   0  0  0  0  0  0  0  0  0  0  0  0
   31.8931   27.0566   46.4089 H   0  0  0  0  0  0  0  0  0  0  0  0
   30.9630   29.5090   46.5734 H   0  0  0  0  0  0  0  0  0  0  0  0
   29.8002   28.3421   45.9455 H   0  0  0  0  0  0  0  0  0  0  0  0
   29.2899   29.9318   48.1284 H   0  0  0  0  0  0  0  0  0  0  0  0
   28.5862   28.2761   47.9529 H   0  0  0  0  0  0  0  0  0  0  0  0
  1  3  1  0
  1  4  1  0
  1  2  1  0
  3  2  1  0
  5 10  2  0
  6  5  1  0
  7  8  1  0
  7  6  2  0
  8  9  2  0
  9  4  1  0
  9 10  1  0
 11  3  1  0
 12 11  2  0
 13 11  1  0
 14 15  1  0
 16 15  1  0
 17 16  1  0
 17 13  1  0
 18 17  1  0
 18 19  1  0
 19 14  1  0
  1 20  1  6
  2 21  1  0
  2 22  1  0
  3 23  1  1
  4 24  1  0
  4 25  1  0
  5 26  1  0
  6 27  1  0
  7 28  1  0
 14 29  1  0
 15 30  1  0
 15 31  1  0
 16 32  1  0
 16 33  1  0
 17 34  1  0
 18 35  1  0
 18 36  1  0
 19 37  1  0
 19 38  1  0
M  ISO  8  20  13  21  13  22  13  23  13  24   8  25   8  26  14  27  14
M  ISO  8  28  14  29   5  30  13  31  13  32  13  33  13  34  13  35  13
M  ISO  3  36  13  37  13  38  13
M  END
>  <minimizedAffinity>  (1) 
-5.16329527

>  <minimizedRMSD>  (1) 
0.634008467

$$$$
