
     RDKit          3D

 31 33  0  0  1  0  0  0  0  0999 V2000
   36.0230   30.1020   50.1410 C   0  0  2  0  0  0  0  0  0  0  0  0
   35.2860   29.1980   51.0350 C   0  0  0  0  0  0  0  0  0  0  0  0
   35.5490   28.7110   49.6840 C   0  0  1  0  0  0  0  0  0  0  0  0
   37.5440   30.1570   50.2880 C   0  0  0  0  0  0  0  0  0  0  0  0
   38.9220   33.0870   48.5700 C   0  0  0  0  0  0  0  0  0  0  0  0
   39.0200   32.6520   47.2390 C   0  0  0  0  0  0  0  0  0  0  0  0
   38.6070   31.3420   46.9460 C   0  0  0  0  0  0  0  0  0  0  0  0
   38.1320   30.5640   47.9740 N   0  0  0  0  0  0  0  0  0  0  0  0
   38.0600   31.0320   49.2330 C   0  0  0  0  0  0  0  0  0  0  0  0
   38.4590   32.2950   49.5160 N   0  0  0  0  0  0  0  0  0  0  0  0
   34.3390   28.6610   48.7890 C   0  0  0  0  0  0  0  0  0  0  0  0
   34.5780   28.9690   47.5540 O   0  0  0  0  0  0  0  0  0  0  0  0
   33.0510   28.3170   49.1610 O   0  0  0  0  0  0  0  0  0  0  0  0
   32.3080   27.4260   48.4030 C   0  0  0  0  0  0  0  0  0  0  0  0
   30.9650   27.7390   48.2170 C   0  0  0  0  0  0  0  0  0  0  0  0
   30.1900   26.8780   47.4670 C   0  0  0  0  0  0  0  0  0  0  0  0
   30.6780   25.7370   46.9000 N   0  0  0  0  0  0  0  0  0  0  0  0
   31.9830   25.4840   47.1130 C   0  0  0  0  0  0  0  0  0  0  0  0
   32.7760   26.2960   47.8370 N   0  0  0  0  0  0  0  0  0  0  0  0
   35.8915   31.1551   49.8516 H   0  0  0  0  0  0  0  0  0  0  0  0
   35.8074   28.7368   51.8867 H   0  0  0  0  0  0  0  0  0  0  0  0
   34.3712   29.3070   51.6361 H   0  0  0  0  0  0  0  0  0  0  0  0
   36.0390   27.8377   49.2286 H   0  0  0  0  0  0  0  0  0  0  0  0
   37.8109   30.5622   51.2752 H   0  0  0  0  0  0  0  0  0  0  0  0
   37.9771   29.1496   50.2003 H   0  0  0  0  0  0  0  0  0  0  0  0
   39.2377   34.1086   48.8283 H   0  0  0  0  0  0  0  0  0  0  0  0
   39.4074   33.3152   46.4515 H   0  0  0  0  0  0  0  0  0  0  0  0
   38.6624   30.9491   45.9201 H   0  0  0  0  0  0  0  0  0  0  0  0
   30.5320   28.6496   48.6566 H   0  0  0  0  0  0  0  0  0  0  0  0
   29.1279   27.1234   47.3192 H   0  0  0  0  0  0  0  0  0  0  0  0
   32.4205   24.5740   46.6764 H   0  0  0  0  0  0  0  0  0  0  0  0
  1  4  1  0
  1  2  1  0
  3  1  1  0
  3  2  1  0
  5 10  2  0
  6  5  1  0
  7  6  2  0
  7  8  1  0
  8  9  2  0
  9 10  1  0
  9  4  1  0
 11 13  1  0
 11  3  1  0
 12 11  2  0
 14 13  1  0
 15 14  2  0
 16 15  1  0
 17 18  1  0
 17 16  2  0
 18 19  2  0
 19 14  1  0
  1 20  1  6
  2 21  1  0
  2 22  1  0
  3 23  1  1
  4 24  1  0
  4 25  1  0
  5 26  1  0
  6 27  1  0
  7 28  1  0
 15 29  1  0
 16 30  1  0
 18 31  1  0
M  ISO  8  20  13  21  13  22  13  23  13  24   8  25   8  26  14  27  14
M  ISO  4  28  14  29  14  30  14  31  14
M  END
>  <minimizedAffinity>  (1) 
-5.11373758

>  <minimizedRMSD>  (1) 
1.38915133

$$$$
