
     RDKit          3D

 30 32  0  0  1  0  0  0  0  0999 V2000
   35.3680   29.3910   49.0130 C   0  0  2  0  0  0  0  0  0  0  0  0
   34.2290   29.4280   49.9400 C   0  0  0  0  0  0  0  0  0  0  0  0
   34.5690   28.1260   49.3670 C   0  0  1  0  0  0  0  0  0  0  0  0
   36.7700   29.3620   49.6160 C   0  0  0  0  0  0  0  0  0  0  0  0
   38.3570   32.6550   49.4100 C   0  0  0  0  0  0  0  0  0  0  0  0
   38.8860   32.6760   48.1110 C   0  0  0  0  0  0  0  0  0  0  0  0
   38.6820   31.5350   47.3140 C   0  0  0  0  0  0  0  0  0  0  0  0
   37.9860   30.4800   47.8450 N   0  0  0  0  0  0  0  0  0  0  0  0
   37.5040   30.5190   49.0970 C   0  0  0  0  0  0  0  0  0  0  0  0
   37.6930   31.6060   49.8680 N   0  0  0  0  0  0  0  0  0  0  0  0
   33.5940   27.6200   48.3370 C   0  0  0  0  0  0  0  0  0  0  0  0
   33.9340   26.4880   47.8000 O   0  0  0  0  0  0  0  0  0  0  0  0
   32.4160   28.2300   47.9420 O   0  0  0  0  0  0  0  0  0  0  0  0
   29.2870   26.7970   48.0600 N   0  0  0  0  0  0  0  0  0  0  0  0
   30.4320   27.1800   47.5040 N   0  0  0  0  0  0  0  0  0  0  0  0
   31.1960   27.7950   48.4340 C   0  0  0  0  0  0  0  0  0  0  0  0
   30.5130   27.8050   49.6330 C   0  0  0  0  0  0  0  0  0  0  0  0
   29.3020   27.1650   49.3680 C   0  0  0  0  0  0  0  0  0  0  0  0
   35.6361   29.9724   48.1185 H   0  0  0  0  0  0  0  0  0  0  0  0
   34.4081   29.6114   51.0097 H   0  0  0  0  0  0  0  0  0  0  0  0
   33.3029   30.0202   49.9798 H   0  0  0  0  0  0  0  0  0  0  0  0
   34.8304   27.1270   49.7461 H   0  0  0  0  0  0  0  0  0  0  0  0
   36.7071   29.4198   50.7127 H   0  0  0  0  0  0  0  0  0  0  0  0
   37.2849   28.4278   49.3473 H   0  0  0  0  0  0  0  0  0  0  0  0
   38.4972   33.5296   50.0622 H   0  0  0  0  0  0  0  0  0  0  0  0
   39.4376   33.5487   47.7313 H   0  0  0  0  0  0  0  0  0  0  0  0
   39.0726   31.4902   46.2867 H   0  0  0  0  0  0  0  0  0  0  0  0
   28.5192   26.3051   47.5810 H   0  0  0  0  0  0  0  0  0  0  0  0
   30.8506   28.2267   50.5912 H   0  0  0  0  0  0  0  0  0  0  0  0
   28.4956   26.9882   50.0950 H   0  0  0  0  0  0  0  0  0  0  0  0
  1  3  1  0
  1  4  1  0
  1  2  1  0
  3  2  1  0
  5 10  2  0
  6  5  1  0
  7  8  1  0
  7  6  2  0
  8  9  2  0
  9  4  1  0
  9 10  1  0
 11  3  1  0
 12 11  2  0
 13 11  1  0
 13 16  1  0
 14 18  1  0
 15 14  1  0
 15 16  2  0
 16 17  1  0
 18 17  2  0
  1 19  1  6
  2 20  1  0
  2 21  1  0
  3 22  1  1
  4 23  1  0
  4 24  1  0
  5 25  1  0
  6 26  1  0
  7 27  1  0
 14 28  1  0
 17 29  1  0
 18 30  1  0
M  ISO  8  19  13  20  13  21  13  22  13  23   8  24   8  25  14  26  14
M  ISO  4  27  14  28   9  29  14  30  14
M  END
>  <minimizedAffinity>  (1) 
-5.10122061

>  <minimizedRMSD>  (1) 
1.35187912

$$$$
