
     RDKit          3D

 32 34  0  0  1  0  0  0  0  0999 V2000
   35.8250   29.8510   49.8110 C   0  0  2  0  0  0  0  0  0  0  0  0
   35.0670   29.1550   50.8600 C   0  0  0  0  0  0  0  0  0  0  0  0
   35.0970   28.5190   49.5450 C   0  0  1  0  0  0  0  0  0  0  0  0
   37.3420   29.6710   49.8030 C   0  0  0  0  0  0  0  0  0  0  0  0
   38.6340   33.0630   49.3020 C   0  0  0  0  0  0  0  0  0  0  0  0
   39.0300   33.0520   47.9560 C   0  0  0  0  0  0  0  0  0  0  0  0
   38.8450   31.8620   47.2300 C   0  0  0  0  0  0  0  0  0  0  0  0
   38.2890   30.7850   47.8770 N   0  0  0  0  0  0  0  0  0  0  0  0
   37.9290   30.8490   49.1620 C   0  0  0  0  0  0  0  0  0  0  0  0
   38.1060   31.9930   49.8620 N   0  0  0  0  0  0  0  0  0  0  0  0
   33.8020   28.5920   48.7800 C   0  0  0  0  0  0  0  0  0  0  0  0
   33.9190   29.0740   47.5840 O   0  0  0  0  0  0  0  0  0  0  0  0
   32.5520   28.1940   49.2270 O   0  0  0  0  0  0  0  0  0  0  0  0
   31.7380   27.4820   48.3580 C   0  0  0  0  0  0  0  0  0  0  0  0
   32.0770   26.2070   47.8960 C   0  0  0  0  0  0  0  0  0  0  0  0
   31.2450   25.5180   47.0270 C   0  0  0  0  0  0  0  0  0  0  0  0
   30.0520   26.1060   46.6080 C   0  0  0  0  0  0  0  0  0  0  0  0
   29.7530   27.3650   47.0860 C   0  0  0  0  0  0  0  0  0  0  0  0
   30.5770   28.0140   47.9290 N   0  0  0  0  0  0  0  0  0  0  0  0
   35.8216   30.8832   49.4309 H   0  0  0  0  0  0  0  0  0  0  0  0
   35.6067   28.6893   51.6977 H   0  0  0  0  0  0  0  0  0  0  0  0
   34.2537   29.4599   51.5350 H   0  0  0  0  0  0  0  0  0  0  0  0
   35.3928   27.5418   49.1357 H   0  0  0  0  0  0  0  0  0  0  0  0
   37.7137   29.5820   50.8345 H   0  0  0  0  0  0  0  0  0  0  0  0
   37.6177   28.7579   49.2550 H   0  0  0  0  0  0  0  0  0  0  0  0
   38.7661   33.9778   49.8985 H   0  0  0  0  0  0  0  0  0  0  0  0
   39.4699   33.9434   47.4850 H   0  0  0  0  0  0  0  0  0  0  0  0
   39.1378   31.7951   46.1718 H   0  0  0  0  0  0  0  0  0  0  0  0
   33.0180   25.7434   48.2269 H   0  0  0  0  0  0  0  0  0  0  0  0
   31.5238   24.5153   46.6708 H   0  0  0  0  0  0  0  0  0  0  0  0
   29.3720   25.5833   45.9193 H   0  0  0  0  0  0  0  0  0  0  0  0
   28.8178   27.8505   46.7702 H   0  0  0  0  0  0  0  0  0  0  0  0
  1  2  1  0
  3  1  1  0
  3  2  1  0
  4  1  1  0
  5 10  2  0
  6  5  1  0
  7  8  1  0
  7  6  2  0
  8  9  2  0
  9  4  1  0
  9 10  1  0
 11 13  1  0
 11  3  1  0
 12 11  2  0
 14 13  1  0
 15 14  2  0
 16 15  1  0
 17 16  2  0
 17 18  1  0
 18 19  2  0
 19 14  1  0
  1 20  1  6
  2 21  1  0
  2 22  1  0
  3 23  1  1
  4 24  1  0
  4 25  1  0
  5 26  1  0
  6 27  1  0
  7 28  1  0
 15 29  1  0
 16 30  1  0
 17 31  1  0
 18 32  1  0
M  ISO  8  20  13  21  13  22  13  23  13  24   8  25   8  26  14  27  14
M  ISO  5  28  14  29  14  30  14  31  14  32  14
M  END
>  <minimizedAffinity>  (1) 
-5.02121401

>  <minimizedRMSD>  (1) 
0.998653591

$$$$
