
     RDKit          3D

 29 31  0  0  1  0  0  0  0  0999 V2000
   35.3550   29.3910   48.9990 C   0  0  2  0  0  0  0  0  0  0  0  0
   34.2250   29.4420   49.9380 C   0  0  0  0  0  0  0  0  0  0  0  0
   34.5440   28.1350   49.3790 C   0  0  1  0  0  0  0  0  0  0  0  0
   36.7630   29.3560   49.5970 C   0  0  0  0  0  0  0  0  0  0  0  0
   38.2110   32.7210   49.4670 C   0  0  0  0  0  0  0  0  0  0  0  0
   38.8150   32.7540   48.2000 C   0  0  0  0  0  0  0  0  0  0  0  0
   38.7140   31.6040   47.3980 C   0  0  0  0  0  0  0  0  0  0  0  0
   38.0380   30.5220   47.8940 N   0  0  0  0  0  0  0  0  0  0  0  0
   37.4770   30.5390   49.1130 C   0  0  0  0  0  0  0  0  0  0  0  0
   37.5730   31.6440   49.8860 N   0  0  0  0  0  0  0  0  0  0  0  0
   33.5690   27.6180   48.3590 C   0  0  0  0  0  0  0  0  0  0  0  0
   33.9010   26.4860   47.8220 O   0  0  0  0  0  0  0  0  0  0  0  0
   32.3890   28.2310   47.9790 O   0  0  0  0  0  0  0  0  0  0  0  0
   31.1360   27.7980   48.3610 C   0  0  0  0  0  0  0  0  0  0  0  0
   30.6720   27.9340   49.6510 C   0  0  0  0  0  0  0  0  0  0  0  0
   28.9800   27.1930   49.5580 S   0  0  0  0  0  0  0  0  0  0  0  0
   29.2420   26.8220   47.6950 C   0  0  0  0  0  0  0  0  0  0  0  0
   30.3070   27.2260   47.5050 N   0  0  0  0  0  0  0  0  0  0  0  0
   35.6201   29.9593   48.0953 H   0  0  0  0  0  0  0  0  0  0  0  0
   34.4172   29.6347   51.0038 H   0  0  0  0  0  0  0  0  0  0  0  0
   33.3038   30.0417   49.9804 H   0  0  0  0  0  0  0  0  0  0  0  0
   34.7932   27.1388   49.7734 H   0  0  0  0  0  0  0  0  0  0  0  0
   36.7050   29.3757   50.6953 H   0  0  0  0  0  0  0  0  0  0  0  0
   37.2882   28.4372   49.2971 H   0  0  0  0  0  0  0  0  0  0  0  0
   38.2702   33.6047   50.1194 H   0  0  0  0  0  0  0  0  0  0  0  0
   39.3488   33.6488   47.8472 H   0  0  0  0  0  0  0  0  0  0  0  0
   39.1672   31.5743   46.3961 H   0  0  0  0  0  0  0  0  0  0  0  0
   31.1816   28.3742   50.5208 H   0  0  0  0  0  0  0  0  0  0  0  0
   28.5509   26.3441   46.9851 H   0  0  0  0  0  0  0  0  0  0  0  0
  1  3  1  0
  1  4  1  0
  1  2  1  0
  3  2  1  0
  5 10  2  0
  6  5  1  0
  7  8  1  0
  7  6  2  0
  8  9  2  0
  9  4  1  0
  9 10  1  0
 11  3  1  0
 12 11  2  0
 13 11  1  0
 13 14  1  0
 14 15  2  0
 16 15  1  0
 17 16  1  0
 18 17  2  0
 18 14  1  0
  1 19  1  6
  2 20  1  0
  2 21  1  0
  3 22  1  1
  4 23  1  0
  4 24  1  0
  5 25  1  0
  6 26  1  0
  7 27  1  0
 15 28  1  0
 17 29  1  0
M  ISO  8  19  13  20  13  21  13  22  13  23   8  24   8  25  14  26  14
M  ISO  3  27  14  28  14  29  14
M  END
>  <minimizedAffinity>  (1) 
-4.97171307

>  <minimizedRMSD>  (1) 
1.36226845

$$$$
