
     RDKit          3D

 40 43  0  0  1  0  0  0  0  0999 V2000
   35.4590   29.2870   48.6900 C   0  0  2  0  0  0  0  0  0  0  0  0
   34.2360   29.2880   49.4910 C   0  0  0  0  0  0  0  0  0  0  0  0
   34.6910   27.9860   49.1040 C   0  0  1  0  0  0  0  0  0  0  0  0
   36.7760   29.3920   49.4790 C   0  0  0  0  0  0  0  0  0  0  0  0
   37.9310   32.8560   49.4210 C   0  0  0  0  0  0  0  0  0  0  0  0
   38.7070   32.9040   48.2400 C   0  0  0  0  0  0  0  0  0  0  0  0
   38.8130   31.7140   47.4830 C   0  0  0  0  0  0  0  0  0  0  0  0
   38.1610   30.5950   47.9380 N   0  0  0  0  0  0  0  0  0  0  0  0
   37.4370   30.6200   49.0750 C   0  0  0  0  0  0  0  0  0  0  0  0
   37.3310   31.7620   49.8080 N   0  0  0  0  0  0  0  0  0  0  0  0
   33.8960   27.3140   48.0050 C   0  0  0  0  0  0  0  0  0  0  0  0
   34.2560   26.0950   47.7810 O   0  0  0  0  0  0  0  0  0  0  0  0
   32.8640   27.8750   47.2710 O   0  0  0  0  0  0  0  0  0  0  0  0
   31.5920   28.0370   47.7270 C   0  0  0  0  0  0  0  0  0  0  0  0
   31.1140   27.5990   49.0470 C   0  0  0  0  0  0  0  0  0  0  0  0
   29.8270   27.8090   49.4110 C   0  0  0  0  0  0  0  0  0  0  0  0
   28.9390   28.4550   48.5110 C   0  0  0  0  0  0  0  0  0  0  0  0
   30.0150   28.7920   47.0240 S   0  0  0  0  0  0  0  0  0  0  0  0
   27.5950   28.7610   48.6950 N   0  0  0  0  0  0  0  0  0  0  0  0
   27.3010   30.0400   48.8930 C   0  0  0  0  0  0  0  0  0  0  0  0
   25.9670   30.4140   49.0850 C   0  0  0  0  0  0  0  0  0  0  0  0
   25.0160   29.4150   49.0570 C   0  0  0  0  0  0  0  0  0  0  0  0
   23.8010   29.6840   49.2230 O   0  0  0  0  0  0  0  0  0  0  0  0
   25.3920   28.1380   48.8500 N   0  0  0  0  0  0  0  0  0  0  0  0
   26.6940   27.7680   48.6620 C   0  0  0  0  0  0  0  0  0  0  0  0
   26.9610   26.5520   48.4750 O   0  0  0  0  0  0  0  0  0  0  0  0
   35.7830   29.8109   47.7786 H   0  0  0  0  0  0  0  0  0  0  0  0
   34.2914   29.5802   50.5500 H   0  0  0  0  0  0  0  0  0  0  0  0
   33.2713   29.8037   49.3751 H   0  0  0  0  0  0  0  0  0  0  0  0
   34.9455   27.0507   49.6239 H   0  0  0  0  0  0  0  0  0  0  0  0
   36.5649   29.4179   50.5582 H   0  0  0  0  0  0  0  0  0  0  0  0
   37.4185   28.5233   49.2728 H   0  0  0  0  0  0  0  0  0  0  0  0
   37.8296   33.7656   50.0312 H   0  0  0  0  0  0  0  0  0  0  0  0
   39.2084   33.8302   47.9225 H   0  0  0  0  0  0  0  0  0  0  0  0
   39.4021   31.6859   46.5545 H   0  0  0  0  0  0  0  0  0  0  0  0
   31.8050   27.0987   49.7414 H   0  0  0  0  0  0  0  0  0  0  0  0
   29.4712   27.4809   50.3988 H   0  0  0  0  0  0  0  0  0  0  0  0
   28.0981   30.7979   48.9060 H   0  0  0  0  0  0  0  0  0  0  0  0
   25.6869   31.4645   49.2519 H   0  0  0  0  0  0  0  0  0  0  0  0
   24.6657   27.4079   48.8327 H   0  0  0  0  0  0  0  0  0  0  0  0
  1  3  1  0
  1  4  1  0
  1  2  1  0
  3  2  1  0
  5 10  2  0
  6  5  1  0
  7  8  1  0
  7  6  2  0
  8  9  2  0
  9  4  1  0
  9 10  1  0
 11  3  1  0
 12 11  2  0
 13 14  1  0
 13 11  1  0
 14 15  2  0
 15 16  1  0
 17 19  1  0
 17 16  2  0
 18 14  1  0
 18 17  1  0
 19 20  1  0
 20 21  2  0
 22 21  1  0
 22 23  2  0
 24 22  1  0
 25 19  1  0
 25 24  1  0
 26 25  2  0
  1 27  1  6
  2 28  1  0
  2 29  1  0
  3 30  1  1
  4 31  1  0
  4 32  1  0
  5 33  1  0
  6 34  1  0
  7 35  1  0
 15 36  1  0
 16 37  1  0
 20 38  1  0
 21 39  1  0
 24 40  1  0
M  ISO  8  27  13  28  13  29  13  30  13  31   8  32   8  33  14  34  14
M  ISO  6  35  14  36  14  37  14  38  14  39  14  40   9
M  END
>  <minimizedAffinity>  (1) 
-6.95897961

>  <minimizedRMSD>  (1) 
1.8414644

$$$$
