
     RDKit          3D

 40 43  0  0  1  0  0  0  0  0999 V2000
   35.2220   29.1590   48.5720 C   0  0  2  0  0  0  0  0  0  0  0  0
   33.9950   29.3740   49.3290 C   0  0  0  0  0  0  0  0  0  0  0  0
   34.3130   27.9940   49.0900 C   0  0  1  0  0  0  0  0  0  0  0  0
   36.5360   29.2020   49.3700 C   0  0  0  0  0  0  0  0  0  0  0  0
   37.5520   32.7020   49.6050 C   0  0  0  0  0  0  0  0  0  0  0  0
   38.4440   32.8390   48.5280 C   0  0  0  0  0  0  0  0  0  0  0  0
   38.6820   31.7010   47.7260 C   0  0  0  0  0  0  0  0  0  0  0  0
   38.0340   30.5340   48.0420 N   0  0  0  0  0  0  0  0  0  0  0  0
   37.1910   30.4670   49.0880 C   0  0  0  0  0  0  0  0  0  0  0  0
   36.9600   31.5570   49.8600 N   0  0  0  0  0  0  0  0  0  0  0  0
   33.4640   27.3090   48.0340 C   0  0  0  0  0  0  0  0  0  0  0  0
   33.8160   26.0890   47.8070 O   0  0  0  0  0  0  0  0  0  0  0  0
   32.3920   27.8650   47.3390 O   0  0  0  0  0  0  0  0  0  0  0  0
   31.1580   28.0810   47.8900 C   0  0  0  0  0  0  0  0  0  0  0  0
   30.7350   27.6310   49.2360 C   0  0  0  0  0  0  0  0  0  0  0  0
   29.4790   27.9260   49.6390 C   0  0  0  0  0  0  0  0  0  0  0  0
   28.5930   28.6390   48.8080 C   0  0  0  0  0  0  0  0  0  0  0  0
   29.5880   28.9510   47.2840 S   0  0  0  0  0  0  0  0  0  0  0  0
   27.3170   29.0770   48.9150 C   0  0  0  0  0  0  0  0  0  0  0  0
   26.2930   28.2240   49.2720 C   0  0  0  0  0  0  0  0  0  0  0  0
   24.9800   28.6960   49.3770 C   0  0  0  0  0  0  0  0  0  0  0  0
   24.7170   30.0460   49.1140 C   0  0  0  0  0  0  0  0  0  0  0  0
   25.7380   30.9260   48.7500 C   0  0  0  0  0  0  0  0  0  0  0  0
   27.0350   30.4020   48.6600 C   0  0  0  0  0  0  0  0  0  0  0  0
   35.6155   29.5530   47.6234 H   0  0  0  0  0  0  0  0  0  0  0  0
   34.0618   29.7677   50.3539 H   0  0  0  0  0  0  0  0  0  0  0  0
   33.0950   29.9749   49.1320 H   0  0  0  0  0  0  0  0  0  0  0  0
   34.4565   27.0946   49.7069 H   0  0  0  0  0  0  0  0  0  0  0  0
   36.3219   29.1242   50.4462 H   0  0  0  0  0  0  0  0  0  0  0  0
   37.1858   28.3626   49.0817 H   0  0  0  0  0  0  0  0  0  0  0  0
   37.3452   33.5706   50.2475 H   0  0  0  0  0  0  0  0  0  0  0  0
   38.9393   33.7983   48.3170 H   0  0  0  0  0  0  0  0  0  0  0  0
   39.3700   31.7493   46.8691 H   0  0  0  0  0  0  0  0  0  0  0  0
   31.4227   27.0731   49.8886 H   0  0  0  0  0  0  0  0  0  0  0  0
   29.1423   27.6030   50.6351 H   0  0  0  0  0  0  0  0  0  0  0  0
   26.5104   27.1651   49.4756 H   0  0  0  0  0  0  0  0  0  0  0  0
   24.1646   28.0151   49.6626 H   0  0  0  0  0  0  0  0  0  0  0  0
   23.6859   30.4205   49.1958 H   0  0  0  0  0  0  0  0  0  0  0  0
   25.5331   31.9866   48.5424 H   0  0  0  0  0  0  0  0  0  0  0  0
   27.8586   31.0733   48.3752 H   0  0  0  0  0  0  0  0  0  0  0  0
  1  3  1  0
  1  2  1  0
  1  4  1  0
  3  2  1  0
  5 10  2  0
  6  5  1  0
  7  8  1  0
  7  6  2  0
  8  9  2  0
  9  4  1  0
  9 10  1  0
 11  3  1  0
 12 11  2  0
 13 14  1  0
 13 11  1  0
 14 15  2  0
 15 16  1  0
 17 19  1  0
 17 16  2  0
 18 14  1  0
 18 17  1  0
 19 20  2  0
 20 21  1  0
 22 21  2  0
 23 22  1  0
 24 23  2  0
 24 19  1  0
  1 25  1  6
  2 26  1  0
  2 27  1  0
  3 28  1  1
  4 29  1  0
  4 30  1  0
  5 31  1  0
  6 32  1  0
  7 33  1  0
 15 34  1  0
 16 35  1  0
 20 36  1  0
 21 37  1  0
 22 38  1  0
 23 39  1  0
 24 40  1  0
M  ISO  8  25  13  26  13  27  13  28  13  29   8  30   8  31  14  32  14
M  ISO  8  33  14  34  14  35  14  36  14  37  14  38  14  39  14  40  14
M  END
>  <minimizedAffinity>  (1) 
-6.79305506

>  <minimizedRMSD>  (1) 
1.92389643

$$$$
