
     RDKit          3D

 44 48  0  0  1  0  0  0  0  0999 V2000
   33.0230   28.1550   47.3000 O   0  0  0  0  0  0  0  0  0  0  0  0
   31.7460   28.1850   47.7740 C   0  0  0  0  0  0  0  0  0  0  0  0
   31.3310   27.6780   49.0890 C   0  0  0  0  0  0  0  0  0  0  0  0
   30.0340   27.7570   49.4710 C   0  0  0  0  0  0  0  0  0  0  0  0
   29.0750   28.3310   48.5980 C   0  0  0  0  0  0  0  0  0  0  0  0
   30.1000   28.8030   47.0920 S   0  0  0  0  0  0  0  0  0  0  0  0
   27.7250   28.5210   48.7560 N   0  0  0  0  0  0  0  0  0  0  0  0
   26.9250   27.4320   48.9490 C   0  0  0  0  0  0  0  0  0  0  0  0
   25.6460   27.7690   49.0860 N   0  0  0  0  0  0  0  0  0  0  0  0
   25.5750   29.1210   48.9840 C   0  0  0  0  0  0  0  0  0  0  0  0
   24.6090   30.1150   49.0260 C   0  0  0  0  0  0  0  0  0  0  0  0
   23.4200   29.7290   49.2110 O   0  0  0  0  0  0  0  0  0  0  0  0
   24.9500   31.4140   48.8750 N   0  0  0  0  0  0  0  0  0  0  0  0
   26.2260   31.8090   48.6780 C   0  0  0  0  0  0  0  0  0  0  0  0
   26.4030   33.2140   48.5400 N   0  0  0  0  0  0  0  0  0  0  0  0
   27.1980   30.8530   48.6320 N   0  0  0  0  0  0  0  0  0  0  0  0
   26.8680   29.5590   48.7810 C   0  0  0  0  0  0  0  0  0  0  0  0
   34.0900   27.5600   47.9540 C   0  0  0  0  0  0  0  0  0  0  0  0
   34.4320   26.3540   47.6510 O   0  0  0  0  0  0  0  0  0  0  0  0
   35.6970   29.4920   48.6470 C   0  0  2  0  0  0  0  0  0  0  0  0
   34.5140   29.4690   49.4990 C   0  0  0  0  0  0  0  0  0  0  0  0
   34.9390   28.1820   49.0400 C   0  0  1  0  0  0  0  0  0  0  0  0
   37.0530   29.5570   49.3680 C   0  0  0  0  0  0  0  0  0  0  0  0
   38.3740   32.9620   49.3740 C   0  0  0  0  0  0  0  0  0  0  0  0
   39.0090   33.0480   48.1180 C   0  0  0  0  0  0  0  0  0  0  0  0
   38.9670   31.9100   47.2810 C   0  0  0  0  0  0  0  0  0  0  0  0
   38.3150   30.7980   47.7430 N   0  0  0  0  0  0  0  0  0  0  0  0
   37.7300   30.7690   48.9420 C   0  0  0  0  0  0  0  0  0  0  0  0
   37.7630   31.8490   49.7490 N   0  0  0  0  0  0  0  0  0  0  0  0
   32.0758   27.2330   49.7652 H   0  0  0  0  0  0  0  0  0  0  0  0
   29.7252   27.3769   50.4560 H   0  0  0  0  0  0  0  0  0  0  0  0
   27.2950   26.3968   48.9868 H   0  0  0  0  0  0  0  0  0  0  0  0
   24.2094   32.1289   48.9115 H   0  0  0  0  0  0  0  0  0  0  0  0
   27.3448   33.6018   48.3867 H   0  0  0  0  0  0  0  0  0  0  0  0
   25.5893   33.8433   48.5934 H   0  0  0  0  0  0  0  0  0  0  0  0
   35.9832   30.0528   47.7450 H   0  0  0  0  0  0  0  0  0  0  0  0
   34.6191   29.7171   50.5655 H   0  0  0  0  0  0  0  0  0  0  0  0
   33.5499   29.9960   49.4474 H   0  0  0  0  0  0  0  0  0  0  0  0
   35.2089   27.2241   49.5086 H   0  0  0  0  0  0  0  0  0  0  0  0
   36.8963   29.5799   50.4565 H   0  0  0  0  0  0  0  0  0  0  0  0
   37.6598   28.6734   49.1211 H   0  0  0  0  0  0  0  0  0  0  0  0
   38.3864   33.8297   50.0500 H   0  0  0  0  0  0  0  0  0  0  0  0
   39.5195   33.9692   47.8005 H   0  0  0  0  0  0  0  0  0  0  0  0
   39.4432   31.9173   46.2894 H   0  0  0  0  0  0  0  0  0  0  0  0
  1  2  1  0
  1 18  1  0
  2  3  2  0
  3  4  1  0
  5  7  1  0
  5  4  2  0
  6  2  1  0
  6  5  1  0
  7 17  1  0
  7  8  1  0
  8  9  2  0
 10 11  1  0
 10  9  1  0
 11 12  2  0
 13 11  1  0
 14 13  1  0
 15 14  1  0
 16 14  2  0
 16 17  1  0
 17 10  2  0
 18 22  1  0
 19 18  2  0
 20 22  1  0
 20 23  1  0
 20 21  1  0
 22 21  1  0
 24 29  2  0
 25 24  1  0
 26 27  1  0
 26 25  2  0
 27 28  2  0
 28 23  1  0
 28 29  1  0
  3 30  1  0
  4 31  1  0
  8 32  1  0
 13 33  1  0
 15 34  1  0
 15 35  1  0
 20 36  1  6
 21 37  1  0
 21 38  1  0
 22 39  1  1
 23 40  1  0
 23 41  1  0
 24 42  1  0
 25 43  1  0
 26 44  1  0
M  ISO  8  30  14  31  14  32  14  33   9  36  13  37  13  38  13  39  13
M  ISO  5  40   8  41   8  42  14  43  14  44  14
M  END
>  <minimizedAffinity>  (1) 
-6.36527681

>  <minimizedRMSD>  (1) 
2.24672604

$$$$
