
     RDKit          3D

 35 38  0  0  1  0  0  0  0  0999 V2000
   35.2650   29.2650   48.6950 C   0  0  2  0  0  0  0  0  0  0  0  0
   34.0930   29.3250   49.5630 C   0  0  0  0  0  0  0  0  0  0  0  0
   34.4470   28.0040   49.1310 C   0  0  1  0  0  0  0  0  0  0  0  0
   36.6310   29.2770   49.4050 C   0  0  0  0  0  0  0  0  0  0  0  0
   37.7130   32.7620   49.5440 C   0  0  0  0  0  0  0  0  0  0  0  0
   38.5560   32.8690   48.4160 C   0  0  0  0  0  0  0  0  0  0  0  0
   38.7370   31.7150   47.6180 C   0  0  0  0  0  0  0  0  0  0  0  0
   38.0820   30.5680   47.9910 N   0  0  0  0  0  0  0  0  0  0  0  0
   37.2970   30.5250   49.0690 C   0  0  0  0  0  0  0  0  0  0  0  0
   37.1190   31.6330   49.8410 N   0  0  0  0  0  0  0  0  0  0  0  0
   33.5490   27.4060   48.0740 C   0  0  0  0  0  0  0  0  0  0  0  0
   33.8680   26.2040   47.7300 O   0  0  0  0  0  0  0  0  0  0  0  0
   32.4650   27.9920   47.4720 O   0  0  0  0  0  0  0  0  0  0  0  0
   31.2100   28.0550   47.9940 C   0  0  0  0  0  0  0  0  0  0  0  0
   30.8390   27.5720   49.3310 C   0  0  0  0  0  0  0  0  0  0  0  0
   29.5700   27.6750   49.7830 C   0  0  0  0  0  0  0  0  0  0  0  0
   28.5880   28.2580   48.9470 C   0  0  0  0  0  0  0  0  0  0  0  0
   29.5480   28.6990   47.3840 S   0  0  0  0  0  0  0  0  0  0  0  0
   27.2000   28.4830   49.1800 C   0  0  0  0  0  0  0  0  0  0  0  0
   26.4920   28.2470   50.3020 N   0  0  0  0  0  0  0  0  0  0  0  0
   25.2480   28.5970   50.0900 O   0  0  0  0  0  0  0  0  0  0  0  0
   25.1030   29.0540   48.8680 C   0  0  0  0  0  0  0  0  0  0  0  0
   26.3200   28.9860   48.2930 N   0  0  0  0  0  0  0  0  0  0  0  0
   35.5672   29.7868   47.7750 H   0  0  0  0  0  0  0  0  0  0  0  0
   34.2252   29.5944   50.6213 H   0  0  0  0  0  0  0  0  0  0  0  0
   33.1563   29.8993   49.5100 H   0  0  0  0  0  0  0  0  0  0  0  0
   34.6766   27.0452   49.6189 H   0  0  0  0  0  0  0  0  0  0  0  0
   36.4872   29.2111   50.4936 H   0  0  0  0  0  0  0  0  0  0  0  0
   37.2387   28.4188   49.0823 H   0  0  0  0  0  0  0  0  0  0  0  0
   37.5525   33.6420   50.1842 H   0  0  0  0  0  0  0  0  0  0  0  0
   39.0548   33.8171   48.1665 H   0  0  0  0  0  0  0  0  0  0  0  0
   39.3820   31.7363   46.7272 H   0  0  0  0  0  0  0  0  0  0  0  0
   31.6073   27.1189   49.9748 H   0  0  0  0  0  0  0  0  0  0  0  0
   29.3038   27.3110   50.7863 H   0  0  0  0  0  0  0  0  0  0  0  0
   24.1741   29.4193   48.4058 H   0  0  0  0  0  0  0  0  0  0  0  0
  1  3  1  0
  1  4  1  0
  1  2  1  0
  3  2  1  0
  5 10  2  0
  6  5  1  0
  7  8  1  0
  7  6  2  0
  8  9  2  0
  9  4  1  0
  9 10  1  0
 11  3  1  0
 12 11  2  0
 13 14  1  0
 13 11  1  0
 14 15  2  0
 15 16  1  0
 17 19  1  0
 17 16  2  0
 18 14  1  0
 18 17  1  0
 19 20  2  0
 21 20  1  0
 22 21  1  0
 23 22  2  0
 23 19  1  0
  1 24  1  6
  2 25  1  0
  2 26  1  0
  3 27  1  1
  4 28  1  0
  4 29  1  0
  5 30  1  0
  6 31  1  0
  7 32  1  0
 15 33  1  0
 16 34  1  0
 22 35  1  0
M  ISO  8  24  13  25  13  26  13  27  13  28   8  29   8  30  14  31  14
M  ISO  4  32  14  33  14  34  14  35  14
M  END
>  <minimizedAffinity>  (1) 
-6.2210536

>  <minimizedRMSD>  (1) 
1.33933938

$$$$
