
     RDKit          3D

 33 35  0  0  1  0  0  0  0  0999 V2000
   35.2610   29.4320   48.9720 C   0  0  2  0  0  0  0  0  0  0  0  0
   34.1380   29.3200   49.8990 C   0  0  0  0  0  0  0  0  0  0  0  0
   34.5210   28.0890   49.2770 C   0  0  1  0  0  0  0  0  0  0  0  0
   36.6630   29.4240   49.6030 C   0  0  0  0  0  0  0  0  0  0  0  0
   37.9020   32.8580   49.4610 C   0  0  0  0  0  0  0  0  0  0  0  0
   38.6810   32.8580   48.2910 C   0  0  0  0  0  0  0  0  0  0  0  0
   38.7640   31.6490   47.5610 C   0  0  0  0  0  0  0  0  0  0  0  0
   38.0860   30.5570   48.0330 N   0  0  0  0  0  0  0  0  0  0  0  0
   37.3620   30.6160   49.1520 C   0  0  0  0  0  0  0  0  0  0  0  0
   37.2750   31.7690   49.8590 N   0  0  0  0  0  0  0  0  0  0  0  0
   33.5920   27.5840   48.1900 C   0  0  0  0  0  0  0  0  0  0  0  0
   33.9250   26.4180   47.7440 O   0  0  0  0  0  0  0  0  0  0  0  0
   32.4760   28.2510   47.6850 O   0  0  0  0  0  0  0  0  0  0  0  0
   31.1920   27.9430   48.0590 C   0  0  0  0  0  0  0  0  0  0  0  0
   30.7440   27.6470   49.4460 C   0  0  0  0  0  0  0  0  0  0  0  0
   29.4370   27.3640   49.6200 C   0  0  0  0  0  0  0  0  0  0  0  0
   28.5160   27.3440   48.5560 C   0  0  0  0  0  0  0  0  0  0  0  0
   29.5730   27.7710   47.0790 S   0  0  0  0  0  0  0  0  0  0  0  0
   27.1720   27.0990   48.4350 C   0  0  0  0  0  0  0  0  0  0  0  0
   26.3830   27.7900   49.3590 F   0  0  0  0  0  0  0  0  0  0  0  0
   26.6780   27.4700   47.1800 F   0  0  0  0  0  0  0  0  0  0  0  0
   26.8980   25.7490   48.5460 F   0  0  0  0  0  0  0  0  0  0  0  0
   35.4893   30.0824   48.1147 H   0  0  0  0  0  0  0  0  0  0  0  0
   34.3187   29.4534   50.9758 H   0  0  0  0  0  0  0  0  0  0  0  0
   33.1768   29.8499   49.9713 H   0  0  0  0  0  0  0  0  0  0  0  0
   34.8152   27.0868   49.6222 H   0  0  0  0  0  0  0  0  0  0  0  0
   36.5794   29.4321   50.6998 H   0  0  0  0  0  0  0  0  0  0  0  0
   37.2134   28.5201   49.3029 H   0  0  0  0  0  0  0  0  0  0  0  0
   37.8143   33.7807   50.0534 H   0  0  0  0  0  0  0  0  0  0  0  0
   39.2065   33.7642   47.9555 H   0  0  0  0  0  0  0  0  0  0  0  0
   39.3583   31.5877   46.6374 H   0  0  0  0  0  0  0  0  0  0  0  0
   31.4471   27.6584   50.2918 H   0  0  0  0  0  0  0  0  0  0  0  0
   29.0761   27.1397   50.6346 H   0  0  0  0  0  0  0  0  0  0  0  0
  1  3  1  0
  1  4  1  0
  1  2  1  0
  3  2  1  0
  5 10  2  0
  6  5  1  0
  7  8  1  0
  7  6  2  0
  8  9  2  0
  9  4  1  0
  9 10  1  0
 11  3  1  0
 12 11  2  0
 13 14  1  0
 13 11  1  0
 14 15  2  0
 15 16  1  0
 17 16  2  0
 18 14  1  0
 18 17  1  0
 19 22  1  0
 19 17  1  0
 19 20  1  0
 21 19  1  0
  1 23  1  6
  2 24  1  0
  2 25  1  0
  3 26  1  1
  4 27  1  0
  4 28  1  0
  5 29  1  0
  6 30  1  0
  7 31  1  0
 15 32  1  0
 16 33  1  0
M  ISO  8  23  13  24  13  25  13  26  13  27   8  28   8  29  14  30  14
M  ISO  3  31  14  32  14  33  14
M  END
>  <minimizedAffinity>  (1) 
-6.07812405

>  <minimizedRMSD>  (1) 
0.367417276

$$$$
