
     RDKit          3D

 39 41  0  0  1  0  0  0  0  0999 V2000
   35.2370   29.4130   48.9670 C   0  0  2  0  0  0  0  0  0  0  0  0
   34.1160   29.2850   49.8930 C   0  0  0  0  0  0  0  0  0  0  0  0
   34.5070   28.0600   49.2560 C   0  0  1  0  0  0  0  0  0  0  0  0
   36.6410   29.4020   49.5960 C   0  0  0  0  0  0  0  0  0  0  0  0
   37.8930   32.8310   49.4610 C   0  0  0  0  0  0  0  0  0  0  0  0
   38.6660   32.8320   48.2880 C   0  0  0  0  0  0  0  0  0  0  0  0
   38.7430   31.6270   47.5530 C   0  0  0  0  0  0  0  0  0  0  0  0
   38.0640   30.5330   48.0210 N   0  0  0  0  0  0  0  0  0  0  0  0
   37.3420   30.5930   49.1480 C   0  0  0  0  0  0  0  0  0  0  0  0
   37.2610   31.7460   49.8630 N   0  0  0  0  0  0  0  0  0  0  0  0
   33.5760   27.5680   48.1630 C   0  0  0  0  0  0  0  0  0  0  0  0
   33.8480   26.3610   47.7810 O   0  0  0  0  0  0  0  0  0  0  0  0
   32.5200   28.2760   47.5910 O   0  0  0  0  0  0  0  0  0  0  0  0
   31.2060   27.9990   47.8550 C   0  0  0  0  0  0  0  0  0  0  0  0
   30.6800   27.4890   49.1400 C   0  0  0  0  0  0  0  0  0  0  0  0
   29.3540   27.2660   49.2450 C   0  0  0  0  0  0  0  0  0  0  0  0
   28.4750   27.5060   48.1720 C   0  0  0  0  0  0  0  0  0  0  0  0
   29.6130   28.1210   46.8310 S   0  0  0  0  0  0  0  0  0  0  0  0
   27.1160   27.4310   47.8250 C   0  0  0  0  0  0  0  0  0  0  0  0
   26.7660   28.0150   46.4500 C   0  0  0  0  0  0  0  0  0  0  0  0
   26.2670   28.1030   48.8850 C   0  0  0  0  0  0  0  0  0  0  0  0
   35.4596   30.0764   48.1182 H   0  0  0  0  0  0  0  0  0  0  0  0
   34.2967   29.4081   50.9711 H   0  0  0  0  0  0  0  0  0  0  0  0
   33.1518   29.8085   49.9716 H   0  0  0  0  0  0  0  0  0  0  0  0
   34.8089   27.0557   49.5880 H   0  0  0  0  0  0  0  0  0  0  0  0
   36.5589   29.4074   50.6929 H   0  0  0  0  0  0  0  0  0  0  0  0
   37.1894   28.4982   49.2918 H   0  0  0  0  0  0  0  0  0  0  0  0
   37.8135   33.7531   50.0555 H   0  0  0  0  0  0  0  0  0  0  0  0
   39.1925   33.7380   47.9534 H   0  0  0  0  0  0  0  0  0  0  0  0
   39.3341   31.5691   46.6271 H   0  0  0  0  0  0  0  0  0  0  0  0
   31.3532   27.2965   49.9884 H   0  0  0  0  0  0  0  0  0  0  0  0
   28.9486   26.8864   50.1945 H   0  0  0  0  0  0  0  0  0  0  0  0
   26.8964   26.3549   47.7631 H   0  0  0  0  0  0  0  0  0  0  0  0
   26.2046   28.9517   46.5816 H   0  0  0  0  0  0  0  0  0  0  0  0
   27.6916   28.2177   45.8913 H   0  0  0  0  0  0  0  0  0  0  0  0
   26.1509   27.2943   45.8913 H   0  0  0  0  0  0  0  0  0  0  0  0
   26.6304   27.8153   49.8826 H   0  0  0  0  0  0  0  0  0  0  0  0
   26.3345   29.1950   48.7710 H   0  0  0  0  0  0  0  0  0  0  0  0
   25.2197   27.7865   48.7710 H   0  0  0  0  0  0  0  0  0  0  0  0
  1  3  1  0
  1  4  1  0
  1  2  1  0
  3  2  1  0
  5 10  2  0
  6  5  1  0
  7  8  1  0
  7  6  2  0
  8  9  2  0
  9  4  1  0
  9 10  1  0
 11  3  1  0
 12 11  2  0
 13 14  1  0
 13 11  1  0
 14 15  2  0
 15 16  1  0
 17 16  2  0
 18 14  1  0
 18 17  1  0
 19 17  1  0
 19 21  1  0
 20 19  1  0
  1 22  1  6
  2 23  1  0
  2 24  1  0
  3 25  1  1
  4 26  1  0
  4 27  1  0
  5 28  1  0
  6 29  1  0
  7 30  1  0
 15 31  1  0
 16 32  1  0
 19 33  1  0
 20 34  1  0
 20 35  1  0
 20 36  1  0
 21 37  1  0
 21 38  1  0
 21 39  1  0
M  ISO  8  22  13  23  13  24  13  25  13  26   8  27   8  28  14  29  14
M  ISO  8  30  14  31  14  32  14  33   8  34   8  35   8  36   8  37   8
M  ISO  2  38   8  39   8
M  END
>  <minimizedAffinity>  (1) 
-5.8208251

>  <minimizedRMSD>  (1) 
0.62957567

$$$$
