
     RDKit          3D

 36 38  0  0  1  0  0  0  0  0999 V2000
   35.2600   29.4260   48.9700 C   0  0  2  0  0  0  0  0  0  0  0  0
   34.1430   29.3190   49.9030 C   0  0  0  0  0  0  0  0  0  0  0  0
   34.5220   28.0830   49.2860 C   0  0  1  0  0  0  0  0  0  0  0  0
   36.6650   29.4180   49.5930 C   0  0  0  0  0  0  0  0  0  0  0  0
   37.8950   32.8540   49.4590 C   0  0  0  0  0  0  0  0  0  0  0  0
   38.6780   32.8530   48.2850 C   0  0  0  0  0  0  0  0  0  0  0  0
   38.7640   31.6460   47.5540 C   0  0  0  0  0  0  0  0  0  0  0  0
   38.0870   30.5540   48.0280 N   0  0  0  0  0  0  0  0  0  0  0  0
   37.3590   30.6160   49.1510 C   0  0  0  0  0  0  0  0  0  0  0  0
   37.2740   31.7720   49.8550 N   0  0  0  0  0  0  0  0  0  0  0  0
   33.5860   27.5770   48.2080 C   0  0  0  0  0  0  0  0  0  0  0  0
   33.9310   26.4190   47.7430 O   0  0  0  0  0  0  0  0  0  0  0  0
   32.4510   28.2340   47.7260 O   0  0  0  0  0  0  0  0  0  0  0  0
   31.1780   27.8740   48.0590 C   0  0  0  0  0  0  0  0  0  0  0  0
   30.7190   27.6280   49.4390 C   0  0  0  0  0  0  0  0  0  0  0  0
   29.4280   27.2740   49.6630 C   0  0  0  0  0  0  0  0  0  0  0  0
   28.5310   27.1440   48.5650 C   0  0  0  0  0  0  0  0  0  0  0  0
   29.5890   27.5540   47.0900 S   0  0  0  0  0  0  0  0  0  0  0  0
   27.1790   26.8020   48.4710 C   0  0  0  0  0  0  0  0  0  0  0  0
   26.2660   27.9860   48.6350 C   0  0  0  0  0  0  0  0  0  0  0  0
   35.4831   30.0731   48.1089 H   0  0  0  0  0  0  0  0  0  0  0  0
   34.3297   29.4587   50.9780 H   0  0  0  0  0  0  0  0  0  0  0  0
   33.1823   29.8496   49.9773 H   0  0  0  0  0  0  0  0  0  0  0  0
   34.8183   27.0826   49.6343 H   0  0  0  0  0  0  0  0  0  0  0  0
   36.5868   29.4152   50.6902 H   0  0  0  0  0  0  0  0  0  0  0  0
   37.2167   28.5193   49.2800 H   0  0  0  0  0  0  0  0  0  0  0  0
   37.8052   33.7775   50.0499 H   0  0  0  0  0  0  0  0  0  0  0  0
   39.2031   33.7598   47.9503 H   0  0  0  0  0  0  0  0  0  0  0  0
   39.3581   31.5857   46.6302 H   0  0  0  0  0  0  0  0  0  0  0  0
   31.4187   27.7308   50.2815 H   0  0  0  0  0  0  0  0  0  0  0  0
   29.0762   27.0883   50.6886 H   0  0  0  0  0  0  0  0  0  0  0  0
   26.9979   26.3526   47.4835 H   0  0  0  0  0  0  0  0  0  0  0  0
   26.9579   26.0976   49.2864 H   0  0  0  0  0  0  0  0  0  0  0  0
   26.1125   28.1851   49.7059 H   0  0  0  0  0  0  0  0  0  0  0  0
   26.7201   28.8679   48.1595 H   0  0  0  0  0  0  0  0  0  0  0  0
   25.2977   27.7710   48.1595 H   0  0  0  0  0  0  0  0  0  0  0  0
  1  3  1  0
  1  4  1  0
  1  2  1  0
  3  2  1  0
  5 10  2  0
  6  5  1  0
  7  8  1  0
  7  6  2  0
  8  9  2  0
  9  4  1  0
  9 10  1  0
 11  3  1  0
 12 11  2  0
 13 14  1  0
 13 11  1  0
 14 15  2  0
 15 16  1  0
 17 16  2  0
 18 14  1  0
 18 17  1  0
 19 17  1  0
 19 20  1  0
  1 21  1  6
  2 22  1  0
  2 23  1  0
  3 24  1  1
  4 25  1  0
  4 26  1  0
  5 27  1  0
  6 28  1  0
  7 29  1  0
 15 30  1  0
 16 31  1  0
 19 32  1  0
 19 33  1  0
 20 34  1  0
 20 35  1  0
 20 36  1  0
M  ISO  8  21  13  22  13  23  13  24  13  25   8  26   8  27  14  28  14
M  ISO  8  29  14  30  14  31  14  32   8  33   8  34   8  35   8  36   8
M  END
>  <minimizedAffinity>  (1) 
-5.66201925

>  <minimizedRMSD>  (1) 
0.254064143

$$$$
