
     RDKit          3D

 31 33  0  0  1  0  0  0  0  0999 V2000
   35.2250   29.3530   48.8990 C   0  0  2  0  0  0  0  0  0  0  0  0
   34.1040   29.2680   49.8290 C   0  0  0  0  0  0  0  0  0  0  0  0
   34.4770   28.0190   49.2260 C   0  0  1  0  0  0  0  0  0  0  0  0
   36.6320   29.3340   49.5250 C   0  0  0  0  0  0  0  0  0  0  0  0
   37.7570   32.8120   49.5350 C   0  0  0  0  0  0  0  0  0  0  0  0
   38.5750   32.8720   48.4000 C   0  0  0  0  0  0  0  0  0  0  0  0
   38.7300   31.6940   47.6350 C   0  0  0  0  0  0  0  0  0  0  0  0
   38.0730   30.5620   48.0460 N   0  0  0  0  0  0  0  0  0  0  0  0
   37.3060   30.5640   49.1390 C   0  0  0  0  0  0  0  0  0  0  0  0
   37.1510   31.6960   49.8810 N   0  0  0  0  0  0  0  0  0  0  0  0
   33.5320   27.5180   48.1510 C   0  0  0  0  0  0  0  0  0  0  0  0
   33.8130   26.3130   47.7590 O   0  0  0  0  0  0  0  0  0  0  0  0
   32.4530   28.2120   47.6000 O   0  0  0  0  0  0  0  0  0  0  0  0
   31.1560   27.9910   47.9800 C   0  0  0  0  0  0  0  0  0  0  0  0
   30.7160   27.5670   49.3360 C   0  0  0  0  0  0  0  0  0  0  0  0
   29.3890   27.3990   49.5240 C   0  0  0  0  0  0  0  0  0  0  0  0
   28.4390   27.6090   48.5010 C   0  0  0  0  0  0  0  0  0  0  0  0
   29.5020   28.1130   47.0540 S   0  0  0  0  0  0  0  0  0  0  0  0
   26.7860   27.5000   48.3840 S   0  0  0  0  0  0  0  0  0  0  0  0
   35.4551   29.9912   48.0331 H   0  0  0  0  0  0  0  0  0  0  0  0
   34.2879   29.4190   50.9030 H   0  0  0  0  0  0  0  0  0  0  0  0
   33.1475   29.8074   49.8938 H   0  0  0  0  0  0  0  0  0  0  0  0
   34.7673   27.0200   49.5834 H   0  0  0  0  0  0  0  0  0  0  0  0
   36.5535   29.2781   50.6208 H   0  0  0  0  0  0  0  0  0  0  0  0
   37.1977   28.4587   49.1732 H   0  0  0  0  0  0  0  0  0  0  0  0
   37.6183   33.7143   50.1488 H   0  0  0  0  0  0  0  0  0  0  0  0
   39.0806   33.8059   48.1132 H   0  0  0  0  0  0  0  0  0  0  0  0
   39.3607   31.6849   46.7338 H   0  0  0  0  0  0  0  0  0  0  0  0
   31.4381   27.3980   50.1484 H   0  0  0  0  0  0  0  0  0  0  0  0
   29.0334   27.0852   50.5165 H   0  0  0  0  0  0  0  0  0  0  0  0
   26.2407   27.4640   49.6403 H   0  0  0  0  0  0  0  0  0  0  0  0
  1  3  1  0
  1  4  1  0
  1  2  1  0
  3  2  1  0
  5 10  2  0
  6  5  1  0
  7  8  1  0
  7  6  2  0
  8  9  2  0
  9  4  1  0
  9 10  1  0
 11  3  1  0
 12 11  2  0
 13 14  1  0
 13 11  1  0
 14 15  2  0
 15 16  1  0
 17 16  2  0
 18 14  1  0
 18 17  1  0
 19 17  1  0
  1 20  1  6
  2 21  1  0
  2 22  1  0
  3 23  1  1
  4 24  1  0
  4 25  1  0
  5 26  1  0
  6 27  1  0
  7 28  1  0
 15 29  1  0
 16 30  1  0
 19 31  1  0
M  ISO  8  20  13  21  13  22  13  23  13  24   8  25   8  26  14  27  14
M  ISO  4  28  14  29  14  30  14  31  11
M  END
>  <minimizedAffinity>  (1) 
-5.41459131

>  <minimizedRMSD>  (1) 
0.42864418

$$$$
