
     RDKit          3D

 29 31  0  0  0  0  0  0  0  0999 V2000
   38.9500   32.4300   46.1360 N   0  0  0  0  0  0  0  0  0  0  0  0
   40.0580   33.1120   45.8340 C   0  0  0  0  0  0  0  0  0  0  0  0
   40.0510   33.3720   44.4990 N   0  0  0  0  0  0  0  0  0  0  0  0
   38.9270   32.8410   43.9980 C   0  0  0  0  0  0  0  0  0  0  0  0
   38.3950   32.7940   42.7300 C   0  0  0  0  0  0  0  0  0  0  0  0
   37.2110   32.1750   42.5000 N   0  0  0  0  0  0  0  0  0  0  0  0
   36.5070   31.5810   43.5010 C   0  0  0  0  0  0  0  0  0  0  0  0
   37.0580   31.6470   44.7260 N   0  0  0  0  0  0  0  0  0  0  0  0
   38.2210   32.2440   45.0090 C   0  0  0  0  0  0  0  0  0  0  0  0
   39.0530   33.3790   41.6440 N   0  0  0  0  0  0  0  0  0  0  0  0
   38.1140   30.6620   47.5940 C   0  0  0  0  0  0  0  0  0  0  0  0
   38.6070   31.9780   47.4440 C   0  0  0  0  0  0  0  0  0  0  0  0
   38.7200   32.7380   48.6020 C   0  0  0  0  0  0  0  0  0  0  0  0
   38.3610   32.2010   49.8050 N   0  0  0  0  0  0  0  0  0  0  0  0
   37.8940   30.9310   49.8940 C   0  0  0  0  0  0  0  0  0  0  0  0
   37.7740   30.1730   48.7980 N   0  0  0  0  0  0  0  0  0  0  0  0
   37.5040   30.3530   51.2180 C   0  0  0  0  0  0  0  0  0  0  0  0
   36.2930   29.4790   51.1030 C   0  0  0  0  0  0  0  0  0  0  0  0
   40.8426   33.4123   46.5441 H   0  0  0  0  0  0  0  0  0  0  0  0
   35.5459   31.0775   43.3196 H   0  0  0  0  0  0  0  0  0  0  0  0
   38.6364   33.3318   40.7032 H   0  0  0  0  0  0  0  0  0  0  0  0
   39.9544   33.8571   41.7847 H   0  0  0  0  0  0  0  0  0  0  0  0
   38.0063   30.0237   46.7046 H   0  0  0  0  0  0  0  0  0  0  0  0
   39.0978   33.7698   48.5496 H   0  0  0  0  0  0  0  0  0  0  0  0
   38.3409   29.7541   51.6065 H   0  0  0  0  0  0  0  0  0  0  0  0
   37.2656   31.1833   51.8991 H   0  0  0  0  0  0  0  0  0  0  0  0
   35.9320   29.2185   52.1089 H   0  0  0  0  0  0  0  0  0  0  0  0
   35.5032   30.0166   50.5578 H   0  0  0  0  0  0  0  0  0  0  0  0
   36.5545   28.5601   50.5578 H   0  0  0  0  0  0  0  0  0  0  0  0
  1 12  1  0
  2  1  1  0
  3  2  2  0
  4  3  1  0
  4  9  2  0
  5  4  1  0
  6  5  2  0
  6  7  1  0
  7  8  2  0
  8  9  1  0
  9  1  1  0
 10  5  1  0
 11 16  2  0
 12 11  1  0
 12 13  2  0
 13 14  1  0
 14 15  2  0
 15 17  1  0
 16 15  1  0
 18 17  1  0
  2 19  1  0
  7 20  1  0
 10 21  1  0
 10 22  1  0
 11 23  1  0
 13 24  1  0
 17 25  1  0
 17 26  1  0
 18 27  1  0
 18 28  1  0
 18 29  1  0
M  ISO  8  19  14  20  14  23  14  24  14  25   8  26   8  27   8  28   8
M  ISO  1  29   8
M  END
>  <minimizedAffinity>  (1) 
-5.75660849

>  <minimizedRMSD>  (1) 
3.5128808

$$$$
