
     RDKit          3D

 18 19  0  0  0  0  0  0  0  0999 V2000
   37.5700   30.4410   50.8510 C   0  0  0  0  0  0  0  0  0  0  0  0
   38.3790   31.3510   50.1570 C   0  0  0  0  0  0  0  0  0  0  0  0
   37.9790   31.6740   48.8410 C   0  0  0  0  0  0  0  0  0  0  0  0
   36.8590   31.0890   48.3470 N   0  0  0  0  0  0  0  0  0  0  0  0
   36.1150   30.2200   49.0520 C   0  0  0  0  0  0  0  0  0  0  0  0
   36.4680   29.8940   50.3060 N   0  0  0  0  0  0  0  0  0  0  0  0
   34.9210   29.6310   48.4560 C   0  0  0  0  0  0  0  0  0  0  0  0
   34.3260   28.5320   49.0380 C   0  0  0  0  0  0  0  0  0  0  0  0
   33.1870   27.8890   48.5580 C   0  0  0  0  0  0  0  0  0  0  0  0
   32.6750   28.4340   47.4290 N   0  0  0  0  0  0  0  0  0  0  0  0
   33.2420   29.5040   46.8480 C   0  0  0  0  0  0  0  0  0  0  0  0
   34.3580   30.1240   47.3310 N   0  0  0  0  0  0  0  0  0  0  0  0
   37.8461   30.1637   51.8791 H   0  0  0  0  0  0  0  0  0  0  0  0
   39.2783   31.7907   50.6130 H   0  0  0  0  0  0  0  0  0  0  0  0
   38.5609   32.3818   48.2324 H   0  0  0  0  0  0  0  0  0  0  0  0
   34.7866   28.1314   49.9531 H   0  0  0  0  0  0  0  0  0  0  0  0
   32.7418   27.0137   49.0536 H   0  0  0  0  0  0  0  0  0  0  0  0
   32.7815   29.9028   45.9321 H   0  0  0  0  0  0  0  0  0  0  0  0
  2  1  2  0
  3  2  1  0
  4  3  2  0
  4  5  1  0
  5  6  2  0
  6  1  1  0
  7  8  2  0
  7  5  1  0
  9  8  1  0
 10  9  2  0
 11 12  2  0
 11 10  1  0
 12  7  1  0
  1 13  1  0
  2 14  1  0
  3 15  1  0
  8 16  1  0
  9 17  1  0
 11 18  1  0
M  ISO  6  13  14  14  14  15  14  16  14  17  14  18  14
M  END
>  <minimizedAffinity>  (1) 
-4.01850319

>  <minimizedRMSD>  (1) 
1.91807246

$$$$
