
     RDKit          3D

 45 48  0  0  1  0  0  0  0  0999 V2000
   36.7070   30.6840   45.7470 C   0  0  0  0  0  0  0  0  0  0  0  0
   36.9020   30.3300   44.3070 C   0  0  0  0  0  0  0  0  0  0  0  0
   36.3800   31.1920   43.2800 C   0  0  0  0  0  0  0  0  0  0  0  0
   36.8990   30.2930   41.7900 S   0  0  0  0  0  0  0  0  0  0  0  0
   37.7240   28.9250   42.7800 C   0  0  0  0  0  0  0  0  0  0  0  0
   37.5140   29.2940   43.8210 N   0  0  0  0  0  0  0  0  0  0  0  0
   38.4190   27.7560   42.2840 N   0  0  0  0  0  0  0  0  0  0  0  0
   38.9660   26.8100   43.0480 C   0  0  0  0  0  0  0  0  0  0  0  0
   39.5310   25.8890   42.2340 N   0  0  0  0  0  0  0  0  0  0  0  0
   39.3070   26.3140   40.9630 C   0  0  0  0  0  0  0  0  0  0  0  0
   39.6820   25.7320   39.7530 C   0  0  0  0  0  0  0  0  0  0  0  0
   39.3320   26.3630   38.6160 N   0  0  0  0  0  0  0  0  0  0  0  0
   38.6410   27.5200   38.6590 C   0  0  0  0  0  0  0  0  0  0  0  0
   38.2570   28.1200   39.8220 N   0  0  0  0  0  0  0  0  0  0  0  0
   38.5830   27.5270   40.9750 C   0  0  0  0  0  0  0  0  0  0  0  0
   40.4140   24.5160   39.7630 N   0  0  0  0  0  0  0  0  0  0  0  0
   37.9570   31.1450   46.4160 C   0  0  1  0  0  0  0  0  0  0  0  0
   38.2310   31.3010   50.2040 C   0  0  0  0  0  0  0  0  0  0  0  0
   38.4640   31.6310   48.8540 C   0  0  0  0  0  0  0  0  0  0  0  0
   37.8130   30.9140   47.8630 C   0  0  0  0  0  0  0  0  0  0  0  0
   36.9540   29.8950   48.2720 N   0  0  0  0  0  0  0  0  0  0  0  0
   36.7570   29.6080   49.5660 C   0  0  0  0  0  0  0  0  0  0  0  0
   37.3760   30.2880   50.5330 N   0  0  0  0  0  0  0  0  0  0  0  0
   39.1130   30.2550   45.9490 C   0  0  0  0  0  0  0  0  0  0  0  0
   38.2580   32.5360   46.0600 C   0  0  0  0  0  0  0  0  0  0  0  0
   39.1490   32.5460   44.9780 O   0  0  0  0  0  0  0  0  0  0  0  0
   40.2520   33.3160   45.2940 C   0  0  0  0  0  0  0  0  0  0  0  0
   40.2050   33.7390   46.6270 F   0  0  0  0  0  0  0  0  0  0  0  0
   40.3280   34.4620   44.5170 F   0  0  0  0  0  0  0  0  0  0  0  0
   41.4400   32.6340   45.1240 F   0  0  0  0  0  0  0  0  0  0  0  0
   35.9599   31.4889   45.8105 H   0  0  0  0  0  0  0  0  0  0  0  0
   36.3782   29.7710   46.2650 H   0  0  0  0  0  0  0  0  0  0  0  0
   35.8210   32.1349   43.3720 H   0  0  0  0  0  0  0  0  0  0  0  0
   38.9591   26.7832   44.1477 H   0  0  0  0  0  0  0  0  0  0  0  0
   38.3735   28.0043   37.7083 H   0  0  0  0  0  0  0  0  0  0  0  0
   40.6961   24.0774   38.8748 H   0  0  0  0  0  0  0  0  0  0  0  0
   40.6631   24.0722   40.6585 H   0  0  0  0  0  0  0  0  0  0  0  0
   38.7418   31.8638   50.9992 H   0  0  0  0  0  0  0  0  0  0  0  0
   39.1533   32.4467   48.5905 H   0  0  0  0  0  0  0  0  0  0  0  0
   36.0694   28.7934   49.8373 H   0  0  0  0  0  0  0  0  0  0  0  0
   39.6402   29.8491   46.8249 H   0  0  0  0  0  0  0  0  0  0  0  0
   38.7165   29.4267   45.3434 H   0  0  0  0  0  0  0  0  0  0  0  0
   39.8124   30.8501   45.3434 H   0  0  0  0  0  0  0  0  0  0  0  0
   37.3294   33.0541   45.7783 H   0  0  0  0  0  0  0  0  0  0  0  0
   38.7110   33.0508   46.9201 H   0  0  0  0  0  0  0  0  0  0  0  0
  2  1  1  0
  3  2  2  0
  4  5  1  0
  4  3  1  0
  5  6  2  0
  6  2  1  0
  7  5  1  0
  7  8  1  0
  9  8  2  0
 10 15  2  0
 10  9  1  0
 11 16  1  0
 11 10  1  0
 12 13  1  0
 12 11  2  0
 13 14  2  0
 14 15  1  0
 15  7  1  0
 17  1  1  6
 17 20  1  0
 18 23  2  0
 19 18  1  0
 20 21  1  0
 20 19  2  0
 21 22  2  0
 22 23  1  0
 24 17  1  0
 25 17  1  0
 26 27  1  0
 26 25  1  0
 27 28  1  0
 29 27  1  0
 30 27  1  0
  1 31  1  0
  1 32  1  0
  3 33  1  0
  8 34  1  0
 13 35  1  0
 16 36  1  0
 16 37  1  0
 18 38  1  0
 19 39  1  0
 22 40  1  0
 24 41  1  0
 24 42  1  0
 24 43  1  0
 25 44  1  0
 25 45  1  0
M  ISO  8  31   8  32   8  33  14  34  14  35  14  38  14  39  14  40  14
M  ISO  5  41   8  42   8  43   8  44   8  45   8
M  END
>  <minimizedAffinity>  (1) 
-5.66638565

>  <minimizedRMSD>  (1) 
2.0569675

$$$$
