
     RDKit          3D

 44 47  0  0  1  0  0  0  0  0999 V2000
   37.8580   32.0300   45.3960 C   0  0  0  0  0  0  0  0  0  0  0  0
   38.4800   31.6900   44.0860 C   0  0  0  0  0  0  0  0  0  0  0  0
   38.9080   32.7300   43.1880 C   0  0  0  0  0  0  0  0  0  0  0  0
   39.5660   31.7530   41.8030 S   0  0  0  0  0  0  0  0  0  0  0  0
   39.1650   30.1230   42.6430 C   0  0  0  0  0  0  0  0  0  0  0  0
   38.7100   30.5090   43.6010 N   0  0  0  0  0  0  0  0  0  0  0  0
   39.3970   28.7820   42.1510 N   0  0  0  0  0  0  0  0  0  0  0  0
   39.0640   27.6640   42.7810 C   0  0  0  0  0  0  0  0  0  0  0  0
   39.4410   26.6170   42.0130 N   0  0  0  0  0  0  0  0  0  0  0  0
   40.0060   27.1450   40.9100 C   0  0  0  0  0  0  0  0  0  0  0  0
   40.5540   26.4890   39.8130 C   0  0  0  0  0  0  0  0  0  0  0  0
   41.0680   27.2610   38.8200 N   0  0  0  0  0  0  0  0  0  0  0  0
   41.0390   28.6040   38.9110 C   0  0  0  0  0  0  0  0  0  0  0  0
   40.5060   29.2770   39.9780 N   0  0  0  0  0  0  0  0  0  0  0  0
   39.9850   28.5450   40.9870 C   0  0  0  0  0  0  0  0  0  0  0  0
   40.5730   25.0670   39.7420 N   0  0  0  0  0  0  0  0  0  0  0  0
   38.7450   31.7350   46.5690 C   0  0  1  0  0  0  0  0  0  0  0  0
   37.4900   30.0010   49.7150 C   0  0  0  0  0  0  0  0  0  0  0  0
   38.3810   30.6190   48.8250 C   0  0  0  0  0  0  0  0  0  0  0  0
   37.9320   31.0690   47.6030 C   0  0  0  0  0  0  0  0  0  0  0  0
   36.5740   30.8750   47.3200 N   0  0  0  0  0  0  0  0  0  0  0  0
   35.7400   30.2810   48.1890 C   0  0  0  0  0  0  0  0  0  0  0  0
   36.1870   29.8450   49.3790 N   0  0  0  0  0  0  0  0  0  0  0  0
   39.7890   30.7210   46.1230 C   0  0  0  0  0  0  0  0  0  0  0  0
   39.4050   32.9620   47.0340 C   0  0  0  0  0  0  0  0  0  0  0  0
   38.8830   33.3120   48.2890 O   0  0  0  0  0  0  0  0  0  0  0  0
   39.4140   34.2880   49.1060 C   0  0  0  0  0  0  0  0  0  0  0  0
   39.7080   33.9900   50.3010 O   0  0  0  0  0  0  0  0  0  0  0  0
   37.6188   33.1037   45.4006 H   0  0  0  0  0  0  0  0  0  0  0  0
   36.9595   31.4044   45.5019 H   0  0  0  0  0  0  0  0  0  0  0  0
   38.8521   33.8221   43.3074 H   0  0  0  0  0  0  0  0  0  0  0  0
   38.5666   27.5993   43.7600 H   0  0  0  0  0  0  0  0  0  0  0  0
   41.4659   29.1916   38.0848 H   0  0  0  0  0  0  0  0  0  0  0  0
   40.9830   24.5977   38.9219 H   0  0  0  0  0  0  0  0  0  0  0  0
   40.1768   24.5076   40.5108 H   0  0  0  0  0  0  0  0  0  0  0  0
   37.8510   29.6415   50.6899 H   0  0  0  0  0  0  0  0  0  0  0  0
   39.4379   30.7442   49.1029 H   0  0  0  0  0  0  0  0  0  0  0  0
   34.6804   30.1500   47.9241 H   0  0  0  0  0  0  0  0  0  0  0  0
   40.2585   30.2650   47.0071 H   0  0  0  0  0  0  0  0  0  0  0  0
   39.3057   29.9383   45.5198 H   0  0  0  0  0  0  0  0  0  0  0  0
   40.5573   31.2269   45.5198 H   0  0  0  0  0  0  0  0  0  0  0  0
   40.4879   32.7889   47.1198 H   0  0  0  0  0  0  0  0  0  0  0  0
   39.2263   33.7760   46.3161 H   0  0  0  0  0  0  0  0  0  0  0  0
   39.5792   35.3071   48.7263 H   0  0  0  0  0  0  0  0  0  0  0  0
  2  1  1  0
  3  2  2  0
  4  5  1  0
  4  3  1  0
  5  6  2  0
  6  2  1  0
  7  5  1  0
  7  8  1  0
  9  8  2  0
 10 15  2  0
 10  9  1  0
 11 10  1  0
 12 13  1  0
 12 11  2  0
 13 14  2  0
 14 15  1  0
 15  7  1  0
 16 11  1  0
 17  1  1  6
 17 25  1  0
 17 20  1  0
 19 18  2  0
 20 19  1  0
 21 20  2  0
 21 22  1  0
 22 23  2  0
 23 18  1  0
 24 17  1  0
 25 26  1  0
 26 27  1  0
 27 28  2  0
  1 29  1  0
  1 30  1  0
  3 31  1  0
  8 32  1  0
 13 33  1  0
 16 34  1  0
 16 35  1  0
 18 36  1  0
 19 37  1  0
 22 38  1  0
 24 39  1  0
 24 40  1  0
 24 41  1  0
 25 42  1  0
 25 43  1  0
 27 44  1  0
M  ISO  8  29   8  30   8  31  14  32  14  33  14  36  14  37  14  38  14
M  ISO  6  39   8  40   8  41   8  42   8  43   8  44   6
M  END
>  <minimizedAffinity>  (1) 
-5.4392395

>  <minimizedRMSD>  (1) 
1.69458318

$$$$
