
     RDKit          3D

 34 37  0  0  0  0  0  0  0  0999 V2000
   36.5510   29.1600   50.6740 C   0  0  0  0  0  0  0  0  0  0  0  0
   36.7340   29.4070   49.2970 C   0  0  0  0  0  0  0  0  0  0  0  0
   35.6280   29.8330   48.5830 C   0  0  0  0  0  0  0  0  0  0  0  0
   34.4260   29.9960   49.2270 N   0  0  0  0  0  0  0  0  0  0  0  0
   34.3060   29.7440   50.5530 C   0  0  0  0  0  0  0  0  0  0  0  0
   35.3600   29.3290   51.2720 N   0  0  0  0  0  0  0  0  0  0  0  0
   35.7970   30.0850   47.2030 N   0  0  0  0  0  0  0  0  0  0  0  0
   34.6890   29.7190   46.4920 C   0  0  0  0  0  0  0  0  0  0  0  0
   34.6100   29.8670   45.1270 C   0  0  0  0  0  0  0  0  0  0  0  0
   35.7170   30.4120   44.4710 C   0  0  0  0  0  0  0  0  0  0  0  0
   35.6950   30.5660   43.2300 O   0  0  0  0  0  0  0  0  0  0  0  0
   36.7810   30.7540   45.2170 N   0  0  0  0  0  0  0  0  0  0  0  0
   36.8270   30.5970   46.5470 C   0  0  0  0  0  0  0  0  0  0  0  0
   37.7880   30.8980   47.2810 O   0  0  0  0  0  0  0  0  0  0  0  0
   37.9450   31.3150   44.6220 C   0  0  0  0  0  0  0  0  0  0  0  0
   38.3410   32.5930   44.7280 N   0  0  0  0  0  0  0  0  0  0  0  0
   39.4440   33.0760   44.1510 C   0  0  0  0  0  0  0  0  0  0  0  0
   40.2180   32.2510   43.4150 N   0  0  0  0  0  0  0  0  0  0  0  0
   39.8910   30.9410   43.2560 C   0  0  0  0  0  0  0  0  0  0  0  0
   40.7660   30.2080   42.4820 C   0  0  0  0  0  0  0  0  0  0  0  0
   40.4150   28.8630   42.3280 C   0  0  0  0  0  0  0  0  0  0  0  0
   39.2670   28.3360   42.9220 C   0  0  0  0  0  0  0  0  0  0  0  0
   38.4500   29.1450   43.6800 C   0  0  0  0  0  0  0  0  0  0  0  0
   38.7460   30.4810   43.8680 C   0  0  0  0  0  0  0  0  0  0  0  0
   37.4074   28.8196   51.2746 H   0  0  0  0  0  0  0  0  0  0  0  0
   37.7118   29.2672   48.8129 H   0  0  0  0  0  0  0  0  0  0  0  0
   33.3323   29.8814   51.0461 H   0  0  0  0  0  0  0  0  0  0  0  0
   33.8303   29.2911   47.0302 H   0  0  0  0  0  0  0  0  0  0  0  0
   33.7087   29.5674   44.5721 H   0  0  0  0  0  0  0  0  0  0  0  0
   39.7186   34.1340   44.2741 H   0  0  0  0  0  0  0  0  0  0  0  0
   41.6655   30.6450   42.0237 H   0  0  0  0  0  0  0  0  0  0  0  0
   41.0583   28.2054   41.7250 H   0  0  0  0  0  0  0  0  0  0  0  0
   39.0148   27.2741   42.7846 H   0  0  0  0  0  0  0  0  0  0  0  0
   37.5471   28.7204   44.1432 H   0  0  0  0  0  0  0  0  0  0  0  0
  1  6  2  0
  2  1  1  0
  3  4  1  0
  3  2  2  0
  4  5  2  0
  5  6  1  0
  7  3  1  0
  8  7  1  0
  9  8  2  0
 10  9  1  0
 10 12  1  0
 11 10  2  0
 12 13  1  0
 13  7  1  0
 13 14  2  0
 15 16  2  0
 15 12  1  0
 17 16  1  0
 18 17  2  0
 19 18  1  0
 19 24  2  0
 20 19  1  0
 21 20  2  0
 21 22  1  0
 22 23  2  0
 23 24  1  0
 24 15  1  0
  1 25  1  0
  2 26  1  0
  5 27  1  0
  8 28  1  0
  9 29  1  0
 17 30  1  0
 20 31  1  0
 21 32  1  0
 22 33  1  0
 23 34  1  0
M  ISO  8  25  14  26  14  27  14  28  14  29  14  30  14  31  14  32  14
M  ISO  2  33  14  34  14
M  END
>  <minimizedAffinity>  (1) 
-6.45971346

>  <minimizedRMSD>  (1) 
5.3174386

$$$$
