
     RDKit          3D

 31 34  0  0  0  0  0  0  0  0999 V2000
   36.4780   29.0800   50.7190 C   0  0  0  0  0  0  0  0  0  0  0  0
   36.6840   29.3460   49.3510 C   0  0  0  0  0  0  0  0  0  0  0  0
   35.6090   29.8400   48.6310 C   0  0  0  0  0  0  0  0  0  0  0  0
   34.4060   30.0500   49.2560 N   0  0  0  0  0  0  0  0  0  0  0  0
   34.2440   29.7820   50.5780 C   0  0  0  0  0  0  0  0  0  0  0  0
   35.2780   29.3000   51.3050 N   0  0  0  0  0  0  0  0  0  0  0  0
   35.8130   30.1080   47.2570 N   0  0  0  0  0  0  0  0  0  0  0  0
   34.6930   29.8210   46.5280 C   0  0  0  0  0  0  0  0  0  0  0  0
   34.6320   29.9980   45.1630 C   0  0  0  0  0  0  0  0  0  0  0  0
   35.7660   30.4880   44.5400 C   0  0  0  0  0  0  0  0  0  0  0  0
   35.7720   30.6710   43.2960 O   0  0  0  0  0  0  0  0  0  0  0  0
   36.8460   30.7580   45.2960 N   0  0  0  0  0  0  0  0  0  0  0  0
   36.8880   30.5790   46.6280 C   0  0  0  0  0  0  0  0  0  0  0  0
   37.8440   30.8050   47.3780 O   0  0  0  0  0  0  0  0  0  0  0  0
   40.7230   29.9950   42.8010 N   0  0  0  0  0  0  0  0  0  0  0  0
   40.0290   28.8400   43.0110 C   0  0  0  0  0  0  0  0  0  0  0  0
   38.9420   29.1730   43.7330 N   0  0  0  0  0  0  0  0  0  0  0  0
   38.9330   30.4920   43.9800 C   0  0  0  0  0  0  0  0  0  0  0  0
   38.0230   31.2620   44.6730 C   0  0  0  0  0  0  0  0  0  0  0  0
   38.3010   32.5870   44.7480 N   0  0  0  0  0  0  0  0  0  0  0  0
   39.4130   33.1210   44.1700 C   0  0  0  0  0  0  0  0  0  0  0  0
   40.3130   32.3580   43.4840 N   0  0  0  0  0  0  0  0  0  0  0  0
   40.0640   31.0320   43.3920 C   0  0  0  0  0  0  0  0  0  0  0  0
   37.3087   28.6858   51.3227 H   0  0  0  0  0  0  0  0  0  0  0  0
   37.6592   29.1685   48.8740 H   0  0  0  0  0  0  0  0  0  0  0  0
   33.2700   29.9573   51.0582 H   0  0  0  0  0  0  0  0  0  0  0  0
   33.8062   29.4338   47.0512 H   0  0  0  0  0  0  0  0  0  0  0  0
   33.7215   29.7601   44.5934 H   0  0  0  0  0  0  0  0  0  0  0  0
   41.6068   30.0719   42.2777 H   0  0  0  0  0  0  0  0  0  0  0  0
   40.3031   27.8343   42.6598 H   0  0  0  0  0  0  0  0  0  0  0  0
   39.5914   34.2028   44.2591 H   0  0  0  0  0  0  0  0  0  0  0  0
  1  6  2  0
  2  1  1  0
  3  4  1  0
  3  2  2  0
  4  5  2  0
  5  6  1  0
  7  3  1  0
  8  7  1  0
  9  8  2  0
 10  9  1  0
 10 12  1  0
 11 10  2  0
 12 13  1  0
 13  7  1  0
 13 14  2  0
 15 16  1  0
 15 23  1  0
 16 17  2  0
 17 18  1  0
 18 19  2  0
 19 20  1  0
 19 12  1  0
 21 20  2  0
 22 21  1  0
 23 22  2  0
 23 18  1  0
  1 24  1  0
  2 25  1  0
  5 26  1  0
  8 27  1  0
  9 28  1  0
 15 29  1  0
 16 30  1  0
 21 31  1  0
M  ISO  8  24  14  25  14  26  14  27  14  28  14  29   9  30  14  31  14
M  END
>  <minimizedAffinity>  (1) 
-5.62356472

>  <minimizedRMSD>  (1) 
5.07954693

$$$$
