
     RDKit          3D

 33 35  0  0  0  0  0  0  0  0999 V2000
   36.4960   29.1530   50.7620 C   0  0  0  0  0  0  0  0  0  0  0  0
   36.8560   29.4470   49.4260 C   0  0  0  0  0  0  0  0  0  0  0  0
   35.8380   29.9280   48.6170 C   0  0  0  0  0  0  0  0  0  0  0  0
   34.5760   30.0970   49.1120 N   0  0  0  0  0  0  0  0  0  0  0  0
   34.2750   29.8040   50.3930 C   0  0  0  0  0  0  0  0  0  0  0  0
   35.2300   29.3340   51.2160 N   0  0  0  0  0  0  0  0  0  0  0  0
   36.1860   30.2280   47.2610 N   0  0  0  0  0  0  0  0  0  0  0  0
   35.1650   29.9060   46.4150 C   0  0  0  0  0  0  0  0  0  0  0  0
   35.2770   30.1070   45.0570 C   0  0  0  0  0  0  0  0  0  0  0  0
   36.4550   30.6450   44.5700 C   0  0  0  0  0  0  0  0  0  0  0  0
   36.6040   30.8440   43.3470 O   0  0  0  0  0  0  0  0  0  0  0  0
   37.4200   30.9410   45.4390 N   0  0  0  0  0  0  0  0  0  0  0  0
   37.3120   30.7450   46.7730 C   0  0  0  0  0  0  0  0  0  0  0  0
   38.1640   30.9970   47.6290 O   0  0  0  0  0  0  0  0  0  0  0  0
   38.6450   31.4980   44.9530 C   0  0  0  0  0  0  0  0  0  0  0  0
   39.8710   30.6640   45.2560 C   0  0  0  0  0  0  0  0  0  0  0  0
   41.0470   31.6050   45.2670 C   0  0  0  0  0  0  0  0  0  0  0  0
   40.4640   32.9750   45.0000 C   0  0  0  0  0  0  0  0  0  0  0  0
   39.0050   32.8440   45.4630 C   0  0  0  0  0  0  0  0  0  0  0  0
   37.2622   28.7676   51.4508 H   0  0  0  0  0  0  0  0  0  0  0  0
   37.8804   29.3029   49.0520 H   0  0  0  0  0  0  0  0  0  0  0  0
   33.2500   29.9490   50.7649 H   0  0  0  0  0  0  0  0  0  0  0  0
   34.2375   29.4790   46.8241 H   0  0  0  0  0  0  0  0  0  0  0  0
   34.4519   29.8467   44.3777 H   0  0  0  0  0  0  0  0  0  0  0  0
   38.4063   31.5383   43.8800 H   0  0  0  0  0  0  0  0  0  0  0  0
   39.7655   30.1786   46.2375 H   0  0  0  0  0  0  0  0  0  0  0  0
   40.0058   29.8733   44.5032 H   0  0  0  0  0  0  0  0  0  0  0  0
   41.5485   31.5837   46.2458 H   0  0  0  0  0  0  0  0  0  0  0  0
   41.8019   31.3270   44.5167 H   0  0  0  0  0  0  0  0  0  0  0  0
   40.9922   33.7463   45.5798 H   0  0  0  0  0  0  0  0  0  0  0  0
   40.5522   33.2788   43.9465 H   0  0  0  0  0  0  0  0  0  0  0  0
   38.3713   33.6243   45.0163 H   0  0  0  0  0  0  0  0  0  0  0  0
   38.8697   32.9602   46.5485 H   0  0  0  0  0  0  0  0  0  0  0  0
  1  6  2  0
  2  1  1  0
  3  4  1  0
  3  2  2  0
  4  5  2  0
  5  6  1  0
  7  3  1  0
  8  7  1  0
  9  8  2  0
 10  9  1  0
 10 12  1  0
 11 10  2  0
 12 13  1  0
 13  7  1  0
 13 14  2  0
 15 16  1  0
 15 12  1  0
 15 19  1  0
 16 17  1  0
 18 17  1  0
 18 19  1  0
  1 20  1  0
  2 21  1  0
  5 22  1  0
  8 23  1  0
  9 24  1  0
 15 25  1  0
 16 26  1  0
 16 27  1  0
 17 28  1  0
 17 29  1  0
 18 30  1  0
 18 31  1  0
 19 32  1  0
 19 33  1  0
M  ISO  8  20  14  21  14  22  14  23  14  24  14  25  13  26  13  27  13
M  ISO  6  28  13  29  13  30  13  31  13  32  13  33  13
M  END
>  <minimizedAffinity>  (1) 
-5.55152702

>  <minimizedRMSD>  (1) 
3.62220001

$$$$
