
     RDKit          3D

 30 32  0  0  0  0  0  0  0  0999 V2000
   36.1580   29.2090   51.1500 C   0  0  0  0  0  0  0  0  0  0  0  0
   36.5850   29.5120   49.8390 C   0  0  0  0  0  0  0  0  0  0  0  0
   35.6170   29.8810   48.9210 C   0  0  0  0  0  0  0  0  0  0  0  0
   34.3080   29.9380   49.3040 N   0  0  0  0  0  0  0  0  0  0  0  0
   33.9280   29.6410   50.5670 C   0  0  0  0  0  0  0  0  0  0  0  0
   34.8430   29.2790   51.4850 N   0  0  0  0  0  0  0  0  0  0  0  0
   36.0530   30.1840   47.6070 N   0  0  0  0  0  0  0  0  0  0  0  0
   35.1410   29.7700   46.6810 C   0  0  0  0  0  0  0  0  0  0  0  0
   35.3430   29.9540   45.3220 C   0  0  0  0  0  0  0  0  0  0  0  0
   36.5280   30.5860   44.9240 C   0  0  0  0  0  0  0  0  0  0  0  0
   36.7460   30.7690   43.7100 O   0  0  0  0  0  0  0  0  0  0  0  0
   37.3910   30.9730   45.8900 N   0  0  0  0  0  0  0  0  0  0  0  0
   37.1670   30.7800   47.1930 C   0  0  0  0  0  0  0  0  0  0  0  0
   37.9250   31.1160   48.1100 O   0  0  0  0  0  0  0  0  0  0  0  0
   38.6120   31.6200   45.5360 C   0  0  0  0  0  0  0  0  0  0  0  0
   38.7350   32.9360   45.1400 C   0  0  0  0  0  0  0  0  0  0  0  0
   40.0040   33.4280   44.8230 C   0  0  0  0  0  0  0  0  0  0  0  0
   41.0980   32.5910   44.9140 C   0  0  0  0  0  0  0  0  0  0  0  0
   40.9620   31.2780   45.3110 C   0  0  0  0  0  0  0  0  0  0  0  0
   39.7050   30.7740   45.6300 C   0  0  0  0  0  0  0  0  0  0  0  0
   36.8977   28.9131   51.9084 H   0  0  0  0  0  0  0  0  0  0  0  0
   37.6470   29.4569   49.5576 H   0  0  0  0  0  0  0  0  0  0  0  0
   32.8653   29.6955   50.8457 H   0  0  0  0  0  0  0  0  0  0  0  0
   34.2192   29.2762   47.0223 H   0  0  0  0  0  0  0  0  0  0  0  0
   34.6006   29.6164   44.5839 H   0  0  0  0  0  0  0  0  0  0  0  0
   37.8501   33.5862   45.0750 H   0  0  0  0  0  0  0  0  0  0  0  0
   40.1300   34.4731   44.5038 H   0  0  0  0  0  0  0  0  0  0  0  0
   42.0967   32.9790   44.6651 H   0  0  0  0  0  0  0  0  0  0  0  0
   41.8475   30.6285   45.3756 H   0  0  0  0  0  0  0  0  0  0  0  0
   39.5820   29.7286   45.9493 H   0  0  0  0  0  0  0  0  0  0  0  0
  1  6  2  0
  2  1  1  0
  3  4  1  0
  3  2  2  0
  4  5  2  0
  5  6  1  0
  7  3  1  0
  8  7  1  0
  9  8  2  0
 10  9  1  0
 10 12  1  0
 11 10  2  0
 12 13  1  0
 13  7  1  0
 13 14  2  0
 15 20  1  0
 15 12  1  0
 16 15  2  0
 17 18  2  0
 17 16  1  0
 18 19  1  0
 19 20  2  0
  1 21  1  0
  2 22  1  0
  5 23  1  0
  8 24  1  0
  9 25  1  0
 16 26  1  0
 17 27  1  0
 18 28  1  0
 19 29  1  0
 20 30  1  0
M  ISO  8  21  14  22  14  23  14  24  14  25  14  26  14  27  14  28  14
M  ISO  2  29  14  30  14
M  END
>  <minimizedAffinity>  (1) 
-5.53913212

>  <minimizedRMSD>  (1) 
3.64830756

$$$$
