
     RDKit          3D

 17 18  0  0  0  0  0  0  0  0999 V2000
   38.1380   33.2070   49.3120 C   0  0  0  0  0  0  0  0  0  0  0  0
   39.0080   32.9660   48.2140 C   0  0  0  0  0  0  0  0  0  0  0  0
   38.8270   31.7940   47.4810 C   0  0  0  0  0  0  0  0  0  0  0  0
   37.8210   30.9360   47.8550 N   0  0  0  0  0  0  0  0  0  0  0  0
   37.0170   31.1960   48.9000 C   0  0  0  0  0  0  0  0  0  0  0  0
   37.1780   32.3150   49.6150 N   0  0  0  0  0  0  0  0  0  0  0  0
   35.9710   30.2340   49.2360 C   0  0  0  0  0  0  0  0  0  0  0  0
   34.6680   30.5000   49.6060 C   0  0  0  0  0  0  0  0  0  0  0  0
   34.0160   29.3230   49.8330 N   0  0  0  0  0  0  0  0  0  0  0  0
   34.9130   28.3220   49.6050 C   0  0  0  0  0  0  0  0  0  0  0  0
   36.0730   28.9040   49.2490 N   0  0  0  0  0  0  0  0  0  0  0  0
   38.2497   34.1216   49.9129 H   0  0  0  0  0  0  0  0  0  0  0  0
   39.8000   33.6825   47.9507 H   0  0  0  0  0  0  0  0  0  0  0  0
   39.4747   31.5615   46.6229 H   0  0  0  0  0  0  0  0  0  0  0  0
   34.2253   31.5023   49.7026 H   0  0  0  0  0  0  0  0  0  0  0  0
   34.7242   27.2421   49.6951 H   0  0  0  0  0  0  0  0  0  0  0  0
   36.9326   28.3868   49.0156 H   0  0  0  0  0  0  0  0  0  0  0  0
  1  6  2  0
  2  1  1  0
  3  4  1  0
  3  2  2  0
  4  5  2  0
  5  7  1  0
  5  6  1  0
  7 11  1  0
  7  8  2  0
  8  9  1  0
 10  9  2  0
 11 10  1  0
  1 12  1  0
  2 13  1  0
  3 14  1  0
  8 15  1  0
 10 16  1  0
 11 17  1  0
M  ISO  6  12  14  13  14  14  14  15  14  16  14  17   9
M  END
>  <minimizedAffinity>  (1) 
-3.95181632

>  <minimizedRMSD>  (1) 
2.79516602

$$$$
