
     RDKit          3D

 40 43  0  0  1  0  0  0  0  0999 V2000
   38.2270   31.7600   46.9280 N   0  0  0  0  0  0  0  0  0  0  0  0
   38.8860   32.5040   47.8720 C   0  0  0  0  0  0  0  0  0  0  0  0
   38.4460   32.5520   49.1940 C   0  0  0  0  0  0  0  0  0  0  0  0
   37.3090   31.8150   49.5280 C   0  0  0  0  0  0  0  0  0  0  0  0
   36.9060   31.8520   50.6970 O   0  0  0  0  0  0  0  0  0  0  0  0
   36.7030   31.0980   48.5490 N   0  0  0  0  0  0  0  0  0  0  0  0
   37.1560   31.0820   47.3040 C   0  0  0  0  0  0  0  0  0  0  0  0
   36.6350   30.4460   46.3780 O   0  0  0  0  0  0  0  0  0  0  0  0
   40.5590   31.2020   44.1550 C   0  0  0  0  0  0  0  0  0  0  0  0
   39.9530   31.0850   45.4280 C   0  0  0  0  0  0  0  0  0  0  0  0
   38.8470   31.8620   45.6670 C   0  0  0  0  0  0  0  0  0  0  0  0
   38.3800   32.7070   44.6830 N   0  0  0  0  0  0  0  0  0  0  0  0
   38.9870   32.7890   43.4790 C   0  0  0  0  0  0  0  0  0  0  0  0
   40.0740   32.0430   43.2080 N   0  0  0  0  0  0  0  0  0  0  0  0
   35.5400   30.3610   48.9420 C   0  0  2  0  0  0  0  0  0  0  0  0
   35.5200   29.4350   50.0810 C   0  0  0  0  0  0  0  0  0  0  0  0
   35.2960   28.9620   48.6140 C   0  0  1  0  0  0  0  0  0  0  0  0
   33.9810   28.5550   48.2420 N   0  0  0  0  0  0  0  0  0  0  0  0
   33.8030   27.1500   48.0380 C   0  0  0  0  0  0  0  0  0  0  0  0
   32.3440   26.9000   47.7170 C   0  0  0  0  0  0  0  0  0  0  0  0
   31.9840   27.4520   46.4990 O   0  0  0  0  0  0  0  0  0  0  0  0
   32.8340   28.4540   46.0790 C   0  0  0  0  0  0  0  0  0  0  0  0
   33.3790   29.3110   47.1890 C   0  0  0  0  0  0  0  0  0  0  0  0
   39.7801   33.0747   47.5806 H   0  0  0  0  0  0  0  0  0  0  0  0
   38.9772   33.1507   49.9485 H   0  0  0  0  0  0  0  0  0  0  0  0
   41.4473   30.5946   43.9272 H   0  0  0  0  0  0  0  0  0  0  0  0
   40.3506   30.4014   46.1926 H   0  0  0  0  0  0  0  0  0  0  0  0
   38.5894   33.4714   42.7134 H   0  0  0  0  0  0  0  0  0  0  0  0
   34.9966   31.2873   48.7041 H   0  0  0  0  0  0  0  0  0  0  0  0
   36.4507   29.1840   50.6110 H   0  0  0  0  0  0  0  0  0  0  0  0
   34.9700   29.3590   51.0306 H   0  0  0  0  0  0  0  0  0  0  0  0
   35.7543   28.2284   47.9344 H   0  0  0  0  0  0  0  0  0  0  0  0
   34.4317   26.8126   47.2008 H   0  0  0  0  0  0  0  0  0  0  0  0
   34.0940   26.5947   48.9419 H   0  0  0  0  0  0  0  0  0  0  0  0
   32.1679   25.8148   47.6822 H   0  0  0  0  0  0  0  0  0  0  0  0
   31.7351   27.3741   48.5009 H   0  0  0  0  0  0  0  0  0  0  0  0
   33.6821   27.9889   45.5551 H   0  0  0  0  0  0  0  0  0  0  0  0
   32.2422   29.1174   45.4312 H   0  0  0  0  0  0  0  0  0  0  0  0
   34.1367   29.9881   46.7677 H   0  0  0  0  0  0  0  0  0  0  0  0
   32.5306   29.8591   47.6247 H   0  0  0  0  0  0  0  0  0  0  0  0
  1  7  1  0
  1  2  1  0
  2  3  2  0
  3  4  1  0
  4  5  2  0
  6 15  1  0
  6  4  1  0
  7  6  1  0
  8  7  2  0
  9 10  2  0
 10 11  1  0
 11  1  1  0
 12 11  2  0
 13 12  1  0
 14 13  2  0
 14  9  1  0
 15 16  1  0
 17 15  1  0
 17 16  1  0
 18 17  1  0
 19 18  1  0
 20 19  1  0
 21 20  1  0
 22 21  1  0
 22 23  1  0
 23 18  1  0
  2 24  1  0
  3 25  1  0
  9 26  1  0
 10 27  1  0
 13 28  1  0
 15 29  1  1
 16 30  1  0
 16 31  1  0
 17 32  1  6
 19 33  1  0
 19 34  1  0
 20 35  1  0
 20 36  1  0
 22 37  1  0
 22 38  1  0
 23 39  1  0
 23 40  1  0
M  ISO  8  24  14  25  14  26  14  27  14  28  14  29  13  30  13  31  13
M  ISO  8  32  13  33  13  34  13  35  13  36  13  37  13  38  13  39  13
M  ISO  1  40  13
M  END
>  <minimizedAffinity>  (1) 
-6.10807228

>  <minimizedRMSD>  (1) 
7.8826375

$$$$
