
     RDKit          3D

 30 32  0  0  1  0  0  0  0  0999 V2000
   37.2020   30.9350   47.5960 N   0  0  0  0  0  0  0  0  0  0  0  0
   36.4310   30.4270   46.5790 C   0  0  0  0  0  0  0  0  0  0  0  0
   36.6480   30.7980   45.2500 C   0  0  0  0  0  0  0  0  0  0  0  0
   37.6780   31.7040   44.9920 C   0  0  0  0  0  0  0  0  0  0  0  0
   37.8790   32.0410   43.8180 O   0  0  0  0  0  0  0  0  0  0  0  0
   38.4030   32.1660   46.0390 N   0  0  0  0  0  0  0  0  0  0  0  0
   38.1610   31.7870   47.2880 C   0  0  0  0  0  0  0  0  0  0  0  0
   38.7910   32.1840   48.2750 O   0  0  0  0  0  0  0  0  0  0  0  0
   37.3610   29.5600   50.9900 C   0  0  0  0  0  0  0  0  0  0  0  0
   37.7850   30.0800   49.7430 C   0  0  0  0  0  0  0  0  0  0  0  0
   36.7990   30.4160   48.8460 C   0  0  0  0  0  0  0  0  0  0  0  0
   35.4760   30.2370   49.1790 N   0  0  0  0  0  0  0  0  0  0  0  0
   35.1210   29.7370   50.3820 C   0  0  0  0  0  0  0  0  0  0  0  0
   36.0570   29.3970   51.2870 N   0  0  0  0  0  0  0  0  0  0  0  0
   39.4500   33.0870   45.7190 C   0  0  2  0  0  0  0  0  0  0  0  0
   39.8990   33.3460   44.3430 C   0  0  0  0  0  0  0  0  0  0  0  0
   40.8310   32.7040   45.4280 C   0  0  2  0  0  0  0  0  0  0  0  0
   41.0780   31.2370   45.4280 C   0  0  0  0  0  0  0  0  0  0  0  0
   35.6272   29.7143   46.8158 H   0  0  0  0  0  0  0  0  0  0  0  0
   36.0297   30.3910   44.4363 H   0  0  0  0  0  0  0  0  0  0  0  0
   38.1181   29.2811   51.7377 H   0  0  0  0  0  0  0  0  0  0  0  0
   38.8509   30.2087   49.5039 H   0  0  0  0  0  0  0  0  0  0  0  0
   34.0561   29.6063   50.6246 H   0  0  0  0  0  0  0  0  0  0  0  0
   39.0039   33.7154   46.5039 H   0  0  0  0  0  0  0  0  0  0  0  0
   40.0728   34.3761   43.9984 H   0  0  0  0  0  0  0  0  0  0  0  0
   39.5556   33.0766   43.3333 H   0  0  0  0  0  0  0  0  0  0  0  0
   41.8430   32.9360   45.7915 H   0  0  0  0  0  0  0  0  0  0  0  0
   41.1389   30.8754   46.4651 H   0  0  0  0  0  0  0  0  0  0  0  0
   40.2532   30.7263   44.9095 H   0  0  0  0  0  0  0  0  0  0  0  0
   42.0246   31.0245   44.9095 H   0  0  0  0  0  0  0  0  0  0  0  0
  1 11  1  0
  2  1  1  0
  3  2  2  0
  4  3  1  0
  4  6  1  0
  5  4  2  0
  6  7  1  0
  7  1  1  0
  7  8  2  0
  9 14  2  0
 10  9  1  0
 11 12  1  0
 11 10  2  0
 12 13  2  0
 13 14  1  0
 15  6  1  0
 16 17  1  0
 16 15  1  0
 17 15  1  0
 18 17  1  0
  2 19  1  0
  3 20  1  0
  9 21  1  0
 10 22  1  0
 13 23  1  0
 15 24  1  1
 16 25  1  0
 16 26  1  0
 17 27  1  1
 18 28  1  0
 18 29  1  0
 18 30  1  0
M  ISO  8  19  14  20  14  21  14  22  14  23  14  24  13  25  13  26  13
M  ISO  4  27  13  28   8  29   8  30   8
M  END
>  <minimizedAffinity>  (1) 
-5.70034027

>  <minimizedRMSD>  (1) 
0.121787898

$$$$
