
     RDKit          3D

 30 32  0  0  1  0  0  0  0  0999 V2000
   36.0490   30.2230   47.3110 N   0  0  0  0  0  0  0  0  0  0  0  0
   35.0490   29.8040   46.4670 C   0  0  0  0  0  0  0  0  0  0  0  0
   35.1250   30.0140   45.0930 C   0  0  0  0  0  0  0  0  0  0  0  0
   36.2600   30.6690   44.5960 C   0  0  0  0  0  0  0  0  0  0  0  0
   36.3400   30.8640   43.3760 O   0  0  0  0  0  0  0  0  0  0  0  0
   37.2100   31.0550   45.4810 N   0  0  0  0  0  0  0  0  0  0  0  0
   37.1040   30.8380   46.7890 C   0  0  0  0  0  0  0  0  0  0  0  0
   37.9380   31.1710   47.6300 O   0  0  0  0  0  0  0  0  0  0  0  0
   36.4780   29.2310   50.8110 C   0  0  0  0  0  0  0  0  0  0  0  0
   36.7950   29.5450   49.4700 C   0  0  0  0  0  0  0  0  0  0  0  0
   35.7530   29.9040   48.6540 C   0  0  0  0  0  0  0  0  0  0  0  0
   34.4750   29.9420   49.1610 N   0  0  0  0  0  0  0  0  0  0  0  0
   34.2100   29.6360   50.4450 C   0  0  0  0  0  0  0  0  0  0  0  0
   35.2110   29.2780   51.2790 N   0  0  0  0  0  0  0  0  0  0  0  0
   38.3480   31.7230   44.9260 C   0  0  2  0  0  0  0  0  0  0  0  0
   39.4130   31.0260   44.1950 C   0  0  0  0  0  0  0  0  0  0  0  0
   39.6670   31.7630   45.5380 C   0  0  1  0  0  0  0  0  0  0  0  0
   40.4840   33.0350   45.4550 C   0  0  0  0  0  0  0  0  0  0  0  0
   40.0470   33.7600   44.3750 F   0  0  0  0  0  0  0  0  0  0  0  0
   41.8240   32.7230   45.3740 F   0  0  0  0  0  0  0  0  0  0  0  0
   40.2870   33.7440   46.6230 F   0  0  0  0  0  0  0  0  0  0  0  0
   34.1701   29.2920   46.8858 H   0  0  0  0  0  0  0  0  0  0  0  0
   34.3221   29.6775   44.4206 H   0  0  0  0  0  0  0  0  0  0  0  0
   37.2881   28.9391   51.4955 H   0  0  0  0  0  0  0  0  0  0  0  0
   37.8294   29.5034   49.0981 H   0  0  0  0  0  0  0  0  0  0  0  0
   33.1754   29.6776   50.8163 H   0  0  0  0  0  0  0  0  0  0  0  0
   37.6272   32.5098   44.6588 H   0  0  0  0  0  0  0  0  0  0  0  0
   39.4309   29.9270   44.1509 H   0  0  0  0  0  0  0  0  0  0  0  0
   39.8323   31.0641   43.1788 H   0  0  0  0  0  0  0  0  0  0  0  0
   40.0613   31.5119   46.5337 H   0  0  0  0  0  0  0  0  0  0  0  0
  1 11  1  0
  2  1  1  0
  3  2  2  0
  4  3  1  0
  4  6  1  0
  5  4  2  0
  6  7  1  0
  7  1  1  0
  7  8  2  0
  9 14  2  0
 10  9  1  0
 11 12  1  0
 11 10  2  0
 12 13  2  0
 13 14  1  0
 15  6  1  0
 15 17  1  0
 16 15  1  0
 16 17  1  0
 18 17  1  0
 18 21  1  0
 19 18  1  0
 20 18  1  0
  2 22  1  0
  3 23  1  0
  9 24  1  0
 10 25  1  0
 13 26  1  0
 15 27  1  6
 16 28  1  0
 16 29  1  0
 17 30  1  1
M  ISO  8  22  14  23  14  24  14  25  14  26  14  27  13  28  13  29  13
M  ISO  1  30  13
M  END
>  <minimizedAffinity>  (1) 
-5.53218079

>  <minimizedRMSD>  (1) 
1.65054393

$$$$
