
     RDKit          3D

 43 46  0  0  1  0  0  0  0  0999 V2000
   37.1350   30.4700   47.2870 N   0  0  0  0  0  0  0  0  0  0  0  0
   35.9490   30.2070   46.6580 C   0  0  0  0  0  0  0  0  0  0  0  0
   35.8180   30.3310   45.2720 C   0  0  0  0  0  0  0  0  0  0  0  0
   36.9400   30.7330   44.5490 C   0  0  0  0  0  0  0  0  0  0  0  0
   36.8330   30.8460   43.3230 O   0  0  0  0  0  0  0  0  0  0  0  0
   38.0870   30.9770   45.2290 N   0  0  0  0  0  0  0  0  0  0  0  0
   38.1650   30.8470   46.5500 C   0  0  0  0  0  0  0  0  0  0  0  0
   39.1890   31.0640   47.2080 O   0  0  0  0  0  0  0  0  0  0  0  0
   36.0110   29.2470   50.5520 C   0  0  0  0  0  0  0  0  0  0  0  0
   36.0860   29.4100   49.1480 C   0  0  0  0  0  0  0  0  0  0  0  0
   37.0330   30.2860   48.6800 C   0  0  0  0  0  0  0  0  0  0  0  0
   37.8500   30.9520   49.5700 N   0  0  0  0  0  0  0  0  0  0  0  0
   37.7350   30.7560   50.9030 C   0  0  0  0  0  0  0  0  0  0  0  0
   36.8220   29.9090   51.3940 N   0  0  0  0  0  0  0  0  0  0  0  0
   39.2040   31.3900   44.4390 C   0  0  2  0  0  0  0  0  0  0  0  0
   39.4940   32.7920   44.1230 C   0  0  0  0  0  0  0  0  0  0  0  0
   39.1120   31.7540   43.0190 C   0  0  1  0  0  0  0  0  0  0  0  0
   40.2290   31.3240   42.0800 C   0  0  0  0  0  0  0  0  0  0  0  0
   39.6460   31.3480   40.6890 C   0  0  0  0  0  0  0  0  0  0  0  0
   40.5340   30.8080   39.6300 C   0  0  0  0  0  0  0  0  0  0  0  0
   41.7690   30.1350   40.1560 C   0  0  0  0  0  0  0  0  0  0  0  0
   41.5020   29.2870   41.3680 C   0  0  0  0  0  0  0  0  0  0  0  0
   40.7810   29.9750   42.4740 C   0  0  0  0  0  0  0  0  0  0  0  0
   35.0808   29.8915   47.2552 H   0  0  0  0  0  0  0  0  0  0  0  0
   34.8629   30.1188   44.7693 H   0  0  0  0  0  0  0  0  0  0  0  0
   35.2636   28.5551   50.9676 H   0  0  0  0  0  0  0  0  0  0  0  0
   35.4188   28.8621   48.4663 H   0  0  0  0  0  0  0  0  0  0  0  0
   38.3992   31.2987   51.5917 H   0  0  0  0  0  0  0  0  0  0  0  0
   39.7573   30.6067   44.9778 H   0  0  0  0  0  0  0  0  0  0  0  0
   38.7866   33.5841   44.4097 H   0  0  0  0  0  0  0  0  0  0  0  0
   40.3295   33.4852   44.3003 H   0  0  0  0  0  0  0  0  0  0  0  0
   38.3428   31.6552   42.2389 H   0  0  0  0  0  0  0  0  0  0  0  0
   41.0922   32.0040   42.1303 H   0  0  0  0  0  0  0  0  0  0  0  0
   38.7211   30.7526   40.6958 H   0  0  0  0  0  0  0  0  0  0  0  0
   39.4803   32.4071   40.4422 H   0  0  0  0  0  0  0  0  0  0  0  0
   40.8431   31.6397   38.9798 H   0  0  0  0  0  0  0  0  0  0  0  0
   39.9580   30.0417   39.0905 H   0  0  0  0  0  0  0  0  0  0  0  0
   42.1840   29.4944   39.3639 H   0  0  0  0  0  0  0  0  0  0  0  0
   42.4736   30.9251   40.4547 H   0  0  0  0  0  0  0  0  0  0  0  0
   40.8982   28.4231   41.0531 H   0  0  0  0  0  0  0  0  0  0  0  0
   42.4873   29.0095   41.7707 H   0  0  0  0  0  0  0  0  0  0  0  0
   41.4796   30.1150   43.3121 H   0  0  0  0  0  0  0  0  0  0  0  0
   39.9252   29.3408   42.7487 H   0  0  0  0  0  0  0  0  0  0  0  0
  1 11  1  0
  2  1  1  0
  3  2  2  0
  4  6  1  0
  4  3  1  0
  5  4  2  0
  6  7  1  0
  7  8  2  0
  7  1  1  0
  9 14  2  0
 10  9  1  0
 11 10  2  0
 11 12  1  0
 12 13  2  0
 13 14  1  0
 15  6  1  0
 16 15  1  0
 17 16  1  0
 17 15  1  0
 18 23  1  0
 18 17  1  0
 19 18  1  0
 20 21  1  0
 20 19  1  0
 21 22  1  0
 22 23  1  0
  2 24  1  0
  3 25  1  0
  9 26  1  0
 10 27  1  0
 13 28  1  0
 15 29  1  6
 16 30  1  0
 16 31  1  0
 17 32  1  6
 18 33  1  0
 19 34  1  0
 19 35  1  0
 20 36  1  0
 20 37  1  0
 21 38  1  0
 21 39  1  0
 22 40  1  0
 22 41  1  0
 23 42  1  0
 23 43  1  0
M  ISO  8  24  14  25  14  26  14  27  14  28  14  29  13  30  13  31  13
M  ISO  8  32  13  33  13  34  13  35  13  36  13  37  13  38  13  39  13
M  ISO  4  40  13  41  13  42  13  43  13
M  END
>  <minimizedAffinity>  (1) 
-5.50165796

>  <minimizedRMSD>  (1) 
4.09373093

$$$$
