
     RDKit          3D

 37 40  0  0  1  0  0  0  0  0999 V2000
   35.7220   30.1970   47.7330 N   0  0  0  0  0  0  0  0  0  0  0  0
   34.3660   30.0040   47.8460 C   0  0  0  0  0  0  0  0  0  0  0  0
   33.5510   29.9450   46.7230 C   0  0  0  0  0  0  0  0  0  0  0  0
   34.1560   30.0900   45.4680 C   0  0  0  0  0  0  0  0  0  0  0  0
   33.4360   30.0410   44.4620 O   0  0  0  0  0  0  0  0  0  0  0  0
   35.4840   30.2770   45.4290 N   0  0  0  0  0  0  0  0  0  0  0  0
   36.2400   30.3290   46.5270 C   0  0  0  0  0  0  0  0  0  0  0  0
   37.4650   30.5010   46.5370 O   0  0  0  0  0  0  0  0  0  0  0  0
   37.9820   31.1060   50.4690 C   0  0  0  0  0  0  0  0  0  0  0  0
   37.3760   31.1030   49.1890 C   0  0  0  0  0  0  0  0  0  0  0  0
   36.3400   30.2180   49.0040 C   0  0  0  0  0  0  0  0  0  0  0  0
   35.9410   29.3940   50.0330 N   0  0  0  0  0  0  0  0  0  0  0  0
   36.5610   29.4400   51.2370 C   0  0  0  0  0  0  0  0  0  0  0  0
   37.5730   30.2850   51.4650 N   0  0  0  0  0  0  0  0  0  0  0  0
   36.0640   30.4180   44.1260 C   0  0  2  0  0  0  0  0  0  0  0  0
   36.7320   29.3160   43.4210 C   0  0  0  0  0  0  0  0  0  0  0  0
   37.4850   30.6140   43.8610 C   0  0  1  0  0  0  0  0  0  0  0  0
   37.8860   31.5050   42.7840 N   0  0  0  0  0  0  0  0  0  0  0  0
   37.5330   31.1630   41.5230 C   0  0  0  0  0  0  0  0  0  0  0  0
   37.8850   31.9660   40.4690 C   0  0  0  0  0  0  0  0  0  0  0  0
   38.6060   33.1360   40.6810 C   0  0  0  0  0  0  0  0  0  0  0  0
   38.9460   33.9030   39.7170 O   0  0  0  0  0  0  0  0  0  0  0  0
   38.9340   33.4340   41.9650 N   0  0  0  0  0  0  0  0  0  0  0  0
   38.5810   32.6350   42.9870 C   0  0  0  0  0  0  0  0  0  0  0  0
   38.9020   32.9440   44.1480 O   0  0  0  0  0  0  0  0  0  0  0  0
   33.9178   29.8942   48.8445 H   0  0  0  0  0  0  0  0  0  0  0  0
   32.4660   29.7895   46.8160 H   0  0  0  0  0  0  0  0  0  0  0  0
   38.8140   31.7995   50.6607 H   0  0  0  0  0  0  0  0  0  0  0  0
   37.7160   31.7730   48.3856 H   0  0  0  0  0  0  0  0  0  0  0  0
   36.2259   28.7698   52.0423 H   0  0  0  0  0  0  0  0  0  0  0  0
   35.1789   31.0352   43.9121 H   0  0  0  0  0  0  0  0  0  0  0  0
   36.5226   29.1267   42.3578 H   0  0  0  0  0  0  0  0  0  0  0  0
   36.8576   28.2346   43.5786 H   0  0  0  0  0  0  0  0  0  0  0  0
   38.3557   30.8735   44.4811 H   0  0  0  0  0  0  0  0  0  0  0  0
   36.9629   30.2395   41.3435 H   0  0  0  0  0  0  0  0  0  0  0  0
   37.5945   31.6823   39.4467 H   0  0  0  0  0  0  0  0  0  0  0  0
   39.4665   34.2937   42.1606 H   0  0  0  0  0  0  0  0  0  0  0  0
  1  2  1  0
  1 11  1  0
  3  2  2  0
  4  3  1  0
  5  4  2  0
  6  4  1  0
  6  7  1  0
  7  8  2  0
  7  1  1  0
  9 14  2  0
 10  9  1  0
 11 10  2  0
 11 12  1  0
 12 13  2  0
 13 14  1  0
 15  6  1  0
 16 17  1  0
 16 15  1  0
 17 15  1  0
 18 24  1  0
 18 17  1  0
 19 18  1  0
 20 21  1  0
 20 19  2  0
 21 23  1  0
 22 21  2  0
 23 24  1  0
 24 25  2  0
  2 26  1  0
  3 27  1  0
  9 28  1  0
 10 29  1  0
 13 30  1  0
 15 31  1  6
 16 32  1  0
 16 33  1  0
 17 34  1  1
 19 35  1  0
 20 36  1  0
 23 37  1  0
M  ISO  8  26  14  27  14  28  14  29  14  30  14  31  13  32  13  33  13
M  ISO  4  34  13  35  14  36  14  37   9
M  END
>  <minimizedAffinity>  (1) 
-5.29436398

>  <minimizedRMSD>  (1) 
4.86523342

$$$$
