
     RDKit          3D

 24 26  0  0  0  0  0  0  0  0999 V2000
   38.0170   32.0260   48.9070 C   0  0  0  0  0  0  0  0  0  0  0  0
   38.3280   33.3160   49.2970 C   0  0  0  0  0  0  0  0  0  0  0  0
   39.0980   33.8450   48.3090 N   0  0  0  0  0  0  0  0  0  0  0  0
   39.2720   32.9330   47.3260 C   0  0  0  0  0  0  0  0  0  0  0  0
   39.9690   32.9800   46.1150 C   0  0  0  0  0  0  0  0  0  0  0  0
   39.9460   31.8460   45.3200 C   0  0  0  0  0  0  0  0  0  0  0  0
   39.2810   30.6870   45.6570 C   0  0  0  0  0  0  0  0  0  0  0  0
   38.6060   30.6770   46.8590 C   0  0  0  0  0  0  0  0  0  0  0  0
   38.6010   31.7690   47.6710 C   0  0  0  0  0  0  0  0  0  0  0  0
   37.6560   30.4720   50.8530 C   0  0  0  0  0  0  0  0  0  0  0  0
   37.2110   31.1150   49.6790 C   0  0  0  0  0  0  0  0  0  0  0  0
   35.9120   30.8550   49.2320 C   0  0  0  0  0  0  0  0  0  0  0  0
   35.1400   29.9870   49.9640 N   0  0  0  0  0  0  0  0  0  0  0  0
   35.6080   29.3950   51.0840 C   0  0  0  0  0  0  0  0  0  0  0  0
   36.8610   29.6360   51.5260 N   0  0  0  0  0  0  0  0  0  0  0  0
   38.0139   33.8162   50.2250 H   0  0  0  0  0  0  0  0  0  0  0  0
   39.4899   34.7975   48.3093 H   0  0  0  0  0  0  0  0  0  0  0  0
   40.5150   33.8833   45.8053 H   0  0  0  0  0  0  0  0  0  0  0  0
   40.4900   31.8721   44.3643 H   0  0  0  0  0  0  0  0  0  0  0  0
   39.2885   29.8080   44.9957 H   0  0  0  0  0  0  0  0  0  0  0  0
   38.0626   29.7715   47.1668 H   0  0  0  0  0  0  0  0  0  0  0  0
   38.6752   30.6624   51.2205 H   0  0  0  0  0  0  0  0  0  0  0  0
   35.5203   31.3315   48.3212 H   0  0  0  0  0  0  0  0  0  0  0  0
   34.9588   28.7062   51.6445 H   0  0  0  0  0  0  0  0  0  0  0  0
  1  2  2  0
  1 11  1  0
  3  2  1  0
  4  9  2  0
  4  3  1  0
  5  4  1  0
  6  7  1  0
  6  5  2  0
  7  8  2  0
  8  9  1  0
  9  1  1  0
 10 15  2  0
 11 10  1  0
 12 11  2  0
 12 13  1  0
 13 14  2  0
 14 15  1  0
  2 16  1  0
  3 17  1  0
  5 18  1  0
  6 19  1  0
  7 20  1  0
  8 21  1  0
 10 22  1  0
 12 23  1  0
 14 24  1  0
M  ISO  8  16  14  17   9  18  14  19  14  20  14  21  14  22  14  23  14
M  ISO  1  24  14
M  END
>  <minimizedAffinity>  (1) 
-6.25885773

>  <minimizedRMSD>  (1) 
2.65455556

$$$$
