
     RDKit          3D

 23 25  0  0  0  0  0  0  0  0999 V2000
   37.8010   31.8150   49.0610 N   0  0  0  0  0  0  0  0  0  0  0  0
   38.1970   33.0360   49.4690 C   0  0  0  0  0  0  0  0  0  0  0  0
   38.9470   33.5970   48.4880 N   0  0  0  0  0  0  0  0  0  0  0  0
   39.0030   32.7150   47.4850 C   0  0  0  0  0  0  0  0  0  0  0  0
   39.6090   32.7210   46.2430 C   0  0  0  0  0  0  0  0  0  0  0  0
   39.5010   31.6680   45.4080 N   0  0  0  0  0  0  0  0  0  0  0  0
   38.7990   30.5590   45.7450 C   0  0  0  0  0  0  0  0  0  0  0  0
   38.2150   30.5670   46.9560 N   0  0  0  0  0  0  0  0  0  0  0  0
   38.2890   31.5850   47.8250 C   0  0  0  0  0  0  0  0  0  0  0  0
   35.6820   30.6660   49.3970 C   0  0  0  0  0  0  0  0  0  0  0  0
   36.9960   30.9290   49.8310 C   0  0  0  0  0  0  0  0  0  0  0  0
   37.4120   30.2920   51.0040 C   0  0  0  0  0  0  0  0  0  0  0  0
   36.5460   29.4660   51.6540 N   0  0  0  0  0  0  0  0  0  0  0  0
   35.2980   29.2410   51.2050 C   0  0  0  0  0  0  0  0  0  0  0  0
   34.8700   29.8420   50.0790 N   0  0  0  0  0  0  0  0  0  0  0  0
   40.3560   33.8400   45.8290 N   0  0  0  0  0  0  0  0  0  0  0  0
   37.9530   33.5004   50.4359 H   0  0  0  0  0  0  0  0  0  0  0  0
   38.7117   29.6990   45.0648 H   0  0  0  0  0  0  0  0  0  0  0  0
   35.3127   31.1463   48.4789 H   0  0  0  0  0  0  0  0  0  0  0  0
   38.4262   30.4560   51.3970 H   0  0  0  0  0  0  0  0  0  0  0  0
   34.6276   28.5663   51.7576 H   0  0  0  0  0  0  0  0  0  0  0  0
   40.8075   33.8440   44.9032 H   0  0  0  0  0  0  0  0  0  0  0  0
   40.4511   34.6548   46.4519 H   0  0  0  0  0  0  0  0  0  0  0  0
  1  2  1  0
  1 11  1  0
  3  2  2  0
  4  9  2  0
  4  3  1  0
  5  4  1  0
  6  7  1  0
  6  5  2  0
  7  8  2  0
  8  9  1  0
  9  1  1  0
 10 11  2  0
 10 15  1  0
 11 12  1  0
 12 13  2  0
 14 13  1  0
 15 14  2  0
 16  5  1  0
  2 17  1  0
  7 18  1  0
 10 19  1  0
 12 20  1  0
 14 21  1  0
 16 22  1  0
 16 23  1  0
M  ISO  5  17  14  18  14  19  14  20  14  21  14
M  END
>  <minimizedAffinity>  (1) 
-5.29241562

>  <minimizedRMSD>  (1) 
3.80328083

$$$$
