
     RDKit          3D

 20 21  0  0  0  0  0  0  0  0999 V2000
   37.5770   30.4940   50.9320 C   0  0  0  0  0  0  0  0  0  0  0  0
   37.2090   31.1580   49.7470 C   0  0  0  0  0  0  0  0  0  0  0  0
   35.9620   30.8680   49.1850 C   0  0  0  0  0  0  0  0  0  0  0  0
   35.1740   29.9540   49.8240 N   0  0  0  0  0  0  0  0  0  0  0  0
   35.5670   29.3430   50.9550 C   0  0  0  0  0  0  0  0  0  0  0  0
   36.7530   29.6020   51.5120 N   0  0  0  0  0  0  0  0  0  0  0  0
   38.0890   32.1180   49.1430 C   0  0  0  0  0  0  0  0  0  0  0  0
   38.4610   31.7750   47.8490 C   0  0  0  0  0  0  0  0  0  0  0  0
   39.3070   32.5520   47.0690 C   0  0  0  0  0  0  0  0  0  0  0  0
   39.8010   33.7300   47.6170 C   0  0  0  0  0  0  0  0  0  0  0  0
   39.4410   34.0970   48.9120 C   0  0  0  0  0  0  0  0  0  0  0  0
   38.5900   33.2810   49.6510 C   0  0  0  0  0  0  0  0  0  0  0  0
   38.5534   30.7075   51.3913 H   0  0  0  0  0  0  0  0  0  0  0  0
   35.6271   31.3594   48.2596 H   0  0  0  0  0  0  0  0  0  0  0  0
   34.8967   28.6132   51.4326 H   0  0  0  0  0  0  0  0  0  0  0  0
   38.0658   30.8418   47.4214 H   0  0  0  0  0  0  0  0  0  0  0  0
   39.5781   32.2446   46.0482 H   0  0  0  0  0  0  0  0  0  0  0  0
   40.4747   34.3711   47.0296 H   0  0  0  0  0  0  0  0  0  0  0  0
   39.8284   35.0292   49.3489 H   0  0  0  0  0  0  0  0  0  0  0  0
   38.3137   33.5817   50.6724 H   0  0  0  0  0  0  0  0  0  0  0  0
  1  6  2  0
  2  1  1  0
  3  2  2  0
  3  4  1  0
  4  5  2  0
  5  6  1  0
  7 12  1  0
  7  2  1  0
  8  7  2  0
  9 10  2  0
  9  8  1  0
 10 11  1  0
 11 12  2  0
  1 13  1  0
  3 14  1  0
  5 15  1  0
  8 16  1  0
  9 17  1  0
 10 18  1  0
 11 19  1  0
 12 20  1  0
M  ISO  8  13  14  14  14  15  14  16  14  17  14  18  14  19  14  20  14
M  END
>  <minimizedAffinity>  (1) 
-5.033288

>  <minimizedRMSD>  (1) 
2.67131734

$$$$
