
     RDKit          3D

 18 19  0  0  0  0  0  0  0  0999 V2000
   37.5010   30.4170   50.9260 C   0  0  0  0  0  0  0  0  0  0  0  0
   37.1850   31.0380   49.7110 C   0  0  0  0  0  0  0  0  0  0  0  0
   35.9450   30.7670   49.1370 C   0  0  0  0  0  0  0  0  0  0  0  0
   35.1000   29.9040   49.7930 N   0  0  0  0  0  0  0  0  0  0  0  0
   35.4400   29.3230   50.9640 C   0  0  0  0  0  0  0  0  0  0  0  0
   36.6330   29.5770   51.5270 N   0  0  0  0  0  0  0  0  0  0  0  0
   38.0610   31.9510   49.0030 C   0  0  0  0  0  0  0  0  0  0  0  0
   38.5320   33.1310   49.5370 C   0  0  0  0  0  0  0  0  0  0  0  0
   39.3660   34.0230   48.8970 C   0  0  0  0  0  0  0  0  0  0  0  0
   39.7560   33.7230   47.6440 N   0  0  0  0  0  0  0  0  0  0  0  0
   39.3030   32.5620   47.0920 C   0  0  0  0  0  0  0  0  0  0  0  0
   38.4900   31.7140   47.7460 N   0  0  0  0  0  0  0  0  0  0  0  0
   38.4739   30.6177   51.3985 H   0  0  0  0  0  0  0  0  0  0  0  0
   35.6500   31.2312   48.1844 H   0  0  0  0  0  0  0  0  0  0  0  0
   34.7361   28.6381   51.4594 H   0  0  0  0  0  0  0  0  0  0  0  0
   38.2158   33.3823   50.5602 H   0  0  0  0  0  0  0  0  0  0  0  0
   39.7006   34.9464   49.3923 H   0  0  0  0  0  0  0  0  0  0  0  0
   39.6157   32.3081   46.0684 H   0  0  0  0  0  0  0  0  0  0  0  0
  1  6  2  0
  2  1  1  0
  3  2  2  0
  3  4  1  0
  4  5  2  0
  5  6  1  0
  7  8  2  0
  7  2  1  0
  9  8  1  0
 10  9  2  0
 11 10  1  0
 11 12  2  0
 12  7  1  0
  1 13  1  0
  3 14  1  0
  5 15  1  0
  8 16  1  0
  9 17  1  0
 11 18  1  0
M  ISO  6  13  14  14  14  15  14  16  14  17  14  18  14
M  END
>  <minimizedAffinity>  (1) 
-4.41020346

>  <minimizedRMSD>  (1) 
2.33346701

$$$$
