
     RDKit          3D

 22 23  0  0  0  0  0  0  0  0999 V2000
   36.6300   30.1750   50.6050 C   0  0  0  0  0  0  0  0  0  0  0  0
   36.5450   30.7750   49.3340 C   0  0  0  0  0  0  0  0  0  0  0  0
   35.4050   30.4810   48.5560 C   0  0  0  0  0  0  0  0  0  0  0  0
   34.4680   29.6390   49.0850 N   0  0  0  0  0  0  0  0  0  0  0  0
   34.5950   29.0910   50.3040 C   0  0  0  0  0  0  0  0  0  0  0  0
   35.6640   29.3530   51.0610 N   0  0  0  0  0  0  0  0  0  0  0  0
   37.5410   31.6470   48.8180 N   0  0  0  0  0  0  0  0  0  0  0  0
   37.7730   32.9330   49.4560 C   0  0  0  0  0  0  0  0  0  0  0  0
   39.0470   33.5700   49.0110 C   0  0  0  0  0  0  0  0  0  0  0  0
   39.1840   33.4790   47.5870 N   0  0  0  0  0  0  0  0  0  0  0  0
   39.2730   32.1190   47.1130 C   0  0  0  0  0  0  0  0  0  0  0  0
   38.2710   31.1800   47.6640 C   0  0  0  0  0  0  0  0  0  0  0  0
   37.5042   30.3817   51.2399 H   0  0  0  0  0  0  0  0  0  0  0  0
   35.2747   30.9164   47.5543 H   0  0  0  0  0  0  0  0  0  0  0  0
   33.8108   28.4194   50.6833 H   0  0  0  0  0  0  0  0  0  0  0  0
   36.9377   33.6049   49.2095 H   0  0  0  0  0  0  0  0  0  0  0  0
   37.8465   32.7600   50.5398 H   0  0  0  0  0  0  0  0  0  0  0  0
   39.0447   34.6293   49.3073 H   0  0  0  0  0  0  0  0  0  0  0  0
   39.8906   33.0455   49.4835 H   0  0  0  0  0  0  0  0  0  0  0  0
   39.2157   34.3001   46.9659 H   0  0  0  0  0  0  0  0  0  0  0  0
   40.0369   31.8007   46.3884 H   0  0  0  0  0  0  0  0  0  0  0  0
   38.0937   30.1885   47.2219 H   0  0  0  0  0  0  0  0  0  0  0  0
  1  6  2  0
  2  1  1  0
  3  4  1  0
  3  2  2  0
  4  5  2  0
  5  6  1  0
  7  2  1  0
  7  8  1  0
  9  8  1  0
 10  9  1  0
 11 10  1  0
 11 12  2  0
 12  7  1  0
  1 13  1  0
  3 14  1  0
  5 15  1  0
  8 16  1  0
  8 17  1  0
  9 18  1  0
  9 19  1  0
 10 20  1  0
 11 21  1  0
 12 22  1  0
M  ISO  8  13  14  14  14  15  14  16  13  17  13  18  13  19  13  21  13
M  ISO  1  22  13
M  END
>  <minimizedAffinity>  (1) 
-4.38125849

>  <minimizedRMSD>  (1) 
2.86284447

$$$$
