
     RDKit          3D

 17 18  0  0  0  0  0  0  0  0999 V2000
   37.7190   30.5380   50.9540 C   0  0  0  0  0  0  0  0  0  0  0  0
   37.3820   31.1710   49.7490 C   0  0  0  0  0  0  0  0  0  0  0  0
   36.1470   30.8920   49.1700 C   0  0  0  0  0  0  0  0  0  0  0  0
   35.3200   30.0170   49.7960 N   0  0  0  0  0  0  0  0  0  0  0  0
   35.6690   29.4190   50.9590 C   0  0  0  0  0  0  0  0  0  0  0  0
   36.8540   29.6830   51.5210 N   0  0  0  0  0  0  0  0  0  0  0  0
   38.2030   32.0920   49.0500 C   0  0  0  0  0  0  0  0  0  0  0  0
   38.6940   33.3180   49.5890 C   0  0  0  0  0  0  0  0  0  0  0  0
   39.4760   34.1090   48.7970 C   0  0  0  0  0  0  0  0  0  0  0  0
   39.7410   33.6160   47.4520 C   0  0  0  0  0  0  0  0  0  0  0  0
   38.8190   31.9760   47.3800 S   0  0  0  0  0  0  0  0  0  0  0  0
   38.6884   30.7414   51.4325 H   0  0  0  0  0  0  0  0  0  0  0  0
   35.8481   31.3704   48.2257 H   0  0  0  0  0  0  0  0  0  0  0  0
   34.9768   28.7144   51.4431 H   0  0  0  0  0  0  0  0  0  0  0  0
   38.4485   33.6190   50.6181 H   0  0  0  0  0  0  0  0  0  0  0  0
   39.8835   35.0660   49.1549 H   0  0  0  0  0  0  0  0  0  0  0  0
   40.3406   34.0915   46.6619 H   0  0  0  0  0  0  0  0  0  0  0  0
  1  6  2  0
  2  1  1  0
  3  2  2  0
  3  4  1  0
  4  5  2  0
  5  6  1  0
  7  8  2  0
  7  2  1  0
  9  8  1  0
 10  9  2  0
 11 10  1  0
 11  7  1  0
  1 12  1  0
  3 13  1  0
  5 14  1  0
  8 15  1  0
  9 16  1  0
 10 17  1  0
M  ISO  6  12  14  13  14  14  14  15  14  16  14  17  14
M  END
>  <minimizedAffinity>  (1) 
-4.20403099

>  <minimizedRMSD>  (1) 
2.2632618

$$$$
