
     RDKit          3D

 17 17  0  0  0  0  0  0  0  0999 V2000
   38.0830   30.8280   50.5500 C   0  0  0  0  0  0  0  0  0  0  0  0
   37.9490   30.4980   49.1740 C   0  0  0  0  0  0  0  0  0  0  0  0
   36.9050   29.6300   48.8780 C   0  0  0  0  0  0  0  0  0  0  0  0
   36.0930   29.1530   49.8550 N   0  0  0  0  0  0  0  0  0  0  0  0
   36.2710   29.5060   51.1570 C   0  0  0  0  0  0  0  0  0  0  0  0
   37.2640   30.3390   51.4820 N   0  0  0  0  0  0  0  0  0  0  0  0
   38.8330   31.0410   48.2060 N   0  0  0  0  0  0  0  0  0  0  0  0
   38.4690   31.9890   47.2230 C   0  0  0  0  0  0  0  0  0  0  0  0
   37.3150   31.7560   46.6510 N   0  0  0  0  0  0  0  0  0  0  0  0
   39.3830   33.0750   46.9670 N   0  0  0  0  0  0  0  0  0  0  0  0
   36.9360   32.3820   45.9110 H   0  0  0  0  0  0  0  0  0  0  0  0
   38.8898   31.5100   50.8566 H   0  0  0  0  0  0  0  0  0  0  0  0
   36.7341   29.3247   47.8351 H   0  0  0  0  0  0  0  0  0  0  0  0
   35.6030   29.1089   51.9355 H   0  0  0  0  0  0  0  0  0  0  0  0
   39.8118   30.7208   48.2208 H   0  0  0  0  0  0  0  0  0  0  0  0
   39.1527   33.7857   46.2579 H   0  0  0  0  0  0  0  0  0  0  0  0
   40.2660   33.1399   47.4933 H   0  0  0  0  0  0  0  0  0  0  0  0
  1  6  2  0
  2  1  1  0
  3  2  2  0
  3  4  1  0
  4  5  2  0
  5  6  1  0
  7  2  1  0
  8  7  1  0
  9  8  2  0
 10  8  1  0
 11  9  1  0
  1 12  1  0
  3 13  1  0
  5 14  1  0
  7 15  1  0
 10 16  1  0
 10 17  1  0
M  ISO  3  12  14  13  14  14  14
M  END
>  <minimizedAffinity>  (1) 
-4.1379447

>  <minimizedRMSD>  (1) 
2.73382592

$$$$
