
     RDKit          3D

 19 19  0  0  0  0  0  0  0  0999 V2000
   37.7900   32.3490   49.5880 C   0  0  0  0  0  0  0  0  0  0  0  0
   37.4000   31.0050   49.3410 C   0  0  0  0  0  0  0  0  0  0  0  0
   37.8070   30.4360   48.1350 C   0  0  0  0  0  0  0  0  0  0  0  0
   38.5420   31.1800   47.2710 N   0  0  0  0  0  0  0  0  0  0  0  0
   38.8950   32.4640   47.5460 C   0  0  0  0  0  0  0  0  0  0  0  0
   38.5160   33.0340   48.6980 N   0  0  0  0  0  0  0  0  0  0  0  0
   36.5970   30.3460   50.3980 C   0  0  0  0  0  0  0  0  0  0  0  0
   35.9850   29.0640   49.8590 C   0  0  0  0  0  0  0  0  0  0  0  0
   37.3490   30.0760   51.6610 C   0  0  0  0  0  0  0  0  0  0  0  0
   37.4893   32.8346   50.5281 H   0  0  0  0  0  0  0  0  0  0  0  0
   37.5361   29.3990   47.8877 H   0  0  0  0  0  0  0  0  0  0  0  0
   39.4930   33.0360   46.8213 H   0  0  0  0  0  0  0  0  0  0  0  0
   35.8063   31.0598   50.6724 H   0  0  0  0  0  0  0  0  0  0  0  0
   35.6788   28.4226   50.6986 H   0  0  0  0  0  0  0  0  0  0  0  0
   35.1060   29.3076   49.2441 H   0  0  0  0  0  0  0  0  0  0  0  0
   36.7271   28.5337   49.2441 H   0  0  0  0  0  0  0  0  0  0  0  0
   36.7086   30.3059   52.5253 H   0  0  0  0  0  0  0  0  0  0  0  0
   37.6424   29.0164   51.6936 H   0  0  0  0  0  0  0  0  0  0  0  0
   38.2494   30.7070   51.6936 H   0  0  0  0  0  0  0  0  0  0  0  0
  2  1  2  0
  2  7  1  0
  3  2  1  0
  4  5  1  0
  4  3  2  0
  5  6  2  0
  6  1  1  0
  7  9  1  0
  8  7  1  0
  1 10  1  0
  3 11  1  0
  5 12  1  0
  7 13  1  0
  8 14  1  0
  8 15  1  0
  8 16  1  0
  9 17  1  0
  9 18  1  0
  9 19  1  0
M  ISO  8  10  14  11  14  12  14  13   8  14   8  15   8  16   8  17   8
M  ISO  2  18   8  19   8
M  END
>  <minimizedAffinity>  (1) 
-4.13136768

>  <minimizedRMSD>  (1) 
3.54723024

$$$$
