
     RDKit          3D

 17 18  0  0  0  0  0  0  0  0999 V2000
   37.2010   30.4330   51.0440 C   0  0  0  0  0  0  0  0  0  0  0  0
   37.5540   30.8670   49.7360 C   0  0  0  0  0  0  0  0  0  0  0  0
   36.8780   30.2580   48.6590 C   0  0  0  0  0  0  0  0  0  0  0  0
   35.9480   29.3100   48.9250 N   0  0  0  0  0  0  0  0  0  0  0  0
   35.6420   28.9240   50.1890 C   0  0  0  0  0  0  0  0  0  0  0  0
   36.2740   29.4900   51.2340 N   0  0  0  0  0  0  0  0  0  0  0  0
   38.5850   31.9140   49.5240 C   0  0  0  0  0  0  0  0  0  0  0  0
   38.7300   32.5410   48.1890 C   0  0  0  0  0  0  0  0  0  0  0  0
   38.1540   33.3340   49.3200 C   0  0  0  0  0  0  0  0  0  0  0  0
   37.7006   30.8822   51.9150 H   0  0  0  0  0  0  0  0  0  0  0  0
   37.1018   30.5475   47.6217 H   0  0  0  0  0  0  0  0  0  0  0  0
   34.8791   28.1502   50.3596 H   0  0  0  0  0  0  0  0  0  0  0  0
   39.2686   31.3993   50.2152 H   0  0  0  0  0  0  0  0  0  0  0  0
   38.0839   32.2200   47.3587 H   0  0  0  0  0  0  0  0  0  0  0  0
   39.5639   32.6852   47.4863 H   0  0  0  0  0  0  0  0  0  0  0  0
   38.7317   34.1559   49.7682 H   0  0  0  0  0  0  0  0  0  0  0  0
   37.2255   33.9004   49.4844 H   0  0  0  0  0  0  0  0  0  0  0  0
  1  6  2  0
  2  1  1  0
  3  4  1  0
  3  2  2  0
  4  5  2  0
  5  6  1  0
  7  2  1  0
  8  9  1  0
  8  7  1  0
  9  7  1  0
  1 10  1  0
  3 11  1  0
  5 12  1  0
  7 13  1  0
  8 14  1  0
  8 15  1  0
  9 16  1  0
  9 17  1  0
M  ISO  8  10  14  11  14  12  14  13  13  14  13  15  13  16  13  17  13
M  END
>  <minimizedAffinity>  (1) 
-4.03961515

>  <minimizedRMSD>  (1) 
1.03089499

$$$$
