
     RDKit          3D

 17 18  0  0  0  0  0  0  0  0999 V2000
   37.0750   30.3760   50.7700 C   0  0  0  0  0  0  0  0  0  0  0  0
   36.8460   30.9590   49.5140 C   0  0  0  0  0  0  0  0  0  0  0  0
   35.6740   30.6040   48.8420 C   0  0  0  0  0  0  0  0  0  0  0  0
   34.8160   29.7100   49.4450 N   0  0  0  0  0  0  0  0  0  0  0  0
   35.0790   29.1780   50.6520 C   0  0  0  0  0  0  0  0  0  0  0  0
   36.2100   29.5040   51.3290 N   0  0  0  0  0  0  0  0  0  0  0  0
   37.7640   31.8610   48.9600 N   0  0  0  0  0  0  0  0  0  0  0  0
   38.1460   33.0160   49.5070 C   0  0  0  0  0  0  0  0  0  0  0  0
   39.0500   33.5800   48.6380 C   0  0  0  0  0  0  0  0  0  0  0  0
   39.2030   32.7600   47.5830 N   0  0  0  0  0  0  0  0  0  0  0  0
   38.4000   31.7000   47.7960 C   0  0  0  0  0  0  0  0  0  0  0  0
   37.9918   30.6391   51.3180 H   0  0  0  0  0  0  0  0  0  0  0  0
   35.4413   31.0283   47.8542 H   0  0  0  0  0  0  0  0  0  0  0  0
   34.3669   28.4678   51.0976 H   0  0  0  0  0  0  0  0  0  0  0  0
   37.8048   33.4350   50.4651 H   0  0  0  0  0  0  0  0  0  0  0  0
   39.5630   34.5423   48.7818 H   0  0  0  0  0  0  0  0  0  0  0  0
   38.2860   30.8397   47.1201 H   0  0  0  0  0  0  0  0  0  0  0  0
  1  6  2  0
  2  1  1  0
  3  4  1  0
  3  2  2  0
  4  5  2  0
  5  6  1  0
  7  8  1  0
  7  2  1  0
  9  8  2  0
 10 11  2  0
 10  9  1  0
 11  7  1  0
  1 12  1  0
  3 13  1  0
  5 14  1  0
  8 15  1  0
  9 16  1  0
 11 17  1  0
M  ISO  6  12  14  13  14  14  14  15  14  16  14  17  14
M  END
>  <minimizedAffinity>  (1) 
-3.91665363

>  <minimizedRMSD>  (1) 
2.3280952

$$$$
