
     RDKit          3D

 12 12  0  0  0  0  0  0  0  0999 V2000
   37.2660   30.1840   51.4290 C   0  0  0  0  0  0  0  0  0  0  0  0
   38.1000   30.7640   50.4520 C   0  0  0  0  0  0  0  0  0  0  0  0
   37.8060   30.4970   49.1110 C   0  0  0  0  0  0  0  0  0  0  0  0
   36.7440   29.7040   48.8130 N   0  0  0  0  0  0  0  0  0  0  0  0
   35.9630   29.1650   49.7730 C   0  0  0  0  0  0  0  0  0  0  0  0
   36.2290   29.4090   51.0810 N   0  0  0  0  0  0  0  0  0  0  0  0
   34.8140   28.3090   49.4900 C   0  0  0  0  0  0  0  0  0  0  0  0
   33.6230   28.7080   49.5570 O   0  0  0  0  0  0  0  0  0  0  0  0
   37.4692   30.3702   52.4939 H   0  0  0  0  0  0  0  0  0  0  0  0
   38.9502   31.4027   50.7336 H   0  0  0  0  0  0  0  0  0  0  0  0
   38.4261   30.9232   48.3087 H   0  0  0  0  0  0  0  0  0  0  0  0
   34.9994   27.2631   49.2040 H   0  0  0  0  0  0  0  0  0  0  0  0
  2  1  2  0
  3  2  1  0
  4  3  2  0
  4  5  1  0
  5  6  2  0
  6  1  1  0
  7  8  2  0
  7  5  1  0
  1  9  1  0
  2 10  1  0
  3 11  1  0
  7 12  1  0
M  ISO  4   9  14  10  14  11  14  12   6
M  END
>  <minimizedAffinity>  (1) 
-3.31917071

>  <minimizedRMSD>  (1) 
0.134636462

$$$$
