
     RDKit          3D

 24 26  0  0  0  0  0  0  0  0999 V2000
   36.8580   30.8390   47.1730 N   0  0  0  0  0  0  0  0  0  0  0  0
   36.5460   30.3610   45.9640 N   0  0  0  0  0  0  0  0  0  0  0  0
   37.2100   30.9800   45.0050 C   0  0  0  0  0  0  0  0  0  0  0  0
   37.9900   31.9110   45.6910 C   0  0  0  0  0  0  0  0  0  0  0  0
   37.7490   31.8050   47.0650 C   0  0  0  0  0  0  0  0  0  0  0  0
   37.1110   29.5820   49.2440 C   0  0  0  0  0  0  0  0  0  0  0  0
   36.3200   30.3380   48.3520 C   0  0  0  0  0  0  0  0  0  0  0  0
   34.9770   30.5510   48.7070 C   0  0  0  0  0  0  0  0  0  0  0  0
   34.5500   30.0050   49.8920 N   0  0  0  0  0  0  0  0  0  0  0  0
   35.3350   29.2960   50.7090 C   0  0  0  0  0  0  0  0  0  0  0  0
   36.6300   29.0740   50.3920 N   0  0  0  0  0  0  0  0  0  0  0  0
   38.4500   32.6870   47.9700 C   0  0  0  0  0  0  0  0  0  0  0  0
   38.3540   32.8730   49.3250 C   0  0  0  0  0  0  0  0  0  0  0  0
   39.2040   33.8610   49.7280 N   0  0  0  0  0  0  0  0  0  0  0  0
   39.8510   34.3180   48.6240 C   0  0  0  0  0  0  0  0  0  0  0  0
   39.3710   33.5910   47.6040 N   0  0  0  0  0  0  0  0  0  0  0  0
   37.1598   30.8031   43.9205 H   0  0  0  0  0  0  0  0  0  0  0  0
   38.6882   32.6205   45.2229 H   0  0  0  0  0  0  0  0  0  0  0  0
   38.1656   29.4009   48.9889 H   0  0  0  0  0  0  0  0  0  0  0  0
   34.2979   31.1297   48.0637 H   0  0  0  0  0  0  0  0  0  0  0  0
   34.9244   28.8905   51.6455 H   0  0  0  0  0  0  0  0  0  0  0  0
   37.6871   32.3067   49.9917 H   0  0  0  0  0  0  0  0  0  0  0  0
   40.6077   35.1149   48.5767 H   0  0  0  0  0  0  0  0  0  0  0  0
   39.6810   33.7154   46.6297 H   0  0  0  0  0  0  0  0  0  0  0  0
  1  7  1  0
  2  1  1  0
  3  4  1  0
  3  2  2  0
  4  5  2  0
  5  1  1  0
  5 12  1  0
  6 11  2  0
  7  8  2  0
  7  6  1  0
  8  9  1  0
  9 10  2  0
 11 10  1  0
 12 13  2  0
 13 14  1  0
 15 14  2  0
 16 12  1  0
 16 15  1  0
  3 17  1  0
  4 18  1  0
  6 19  1  0
  8 20  1  0
 10 21  1  0
 13 22  1  0
 15 23  1  0
 16 24  1  0
M  ISO  8  17  14  18  14  19  14  20  14  21  14  22  14  23  14  24   9
M  END
>  <minimizedAffinity>  (1) 
-4.94118786

>  <minimizedRMSD>  (1) 
2.78228736

$$$$
