
     RDKit          3D

 24 26  0  0  0  0  0  0  0  0999 V2000
   37.0290   31.4120   48.7100 N   0  0  0  0  0  0  0  0  0  0  0  0
   37.2730   32.2490   49.6860 N   0  0  0  0  0  0  0  0  0  0  0  0
   38.2260   33.1240   49.4050 C   0  0  0  0  0  0  0  0  0  0  0  0
   38.6080   32.7930   48.1290 C   0  0  0  0  0  0  0  0  0  0  0  0
   37.8510   31.7070   47.6860 C   0  0  0  0  0  0  0  0  0  0  0  0
   34.9110   30.4850   47.9760 C   0  0  0  0  0  0  0  0  0  0  0  0
   36.0840   30.3790   48.7130 C   0  0  0  0  0  0  0  0  0  0  0  0
   36.3020   29.2100   49.4570 C   0  0  0  0  0  0  0  0  0  0  0  0
   35.3400   28.2420   49.4110 N   0  0  0  0  0  0  0  0  0  0  0  0
   34.2080   28.3880   48.6780 C   0  0  0  0  0  0  0  0  0  0  0  0
   33.9950   29.4920   47.9690 N   0  0  0  0  0  0  0  0  0  0  0  0
   37.9770   31.0860   46.3910 N   0  0  0  0  0  0  0  0  0  0  0  0
   39.2200   30.6830   46.1650 N   0  0  0  0  0  0  0  0  0  0  0  0
   39.2550   30.1120   44.9310 C   0  0  0  0  0  0  0  0  0  0  0  0
   37.9920   30.1690   44.3860 C   0  0  0  0  0  0  0  0  0  0  0  0
   37.1960   30.7890   45.3250 C   0  0  0  0  0  0  0  0  0  0  0  0
   38.6195   33.9279   50.0444 H   0  0  0  0  0  0  0  0  0  0  0  0
   39.3888   33.3037   47.5463 H   0  0  0  0  0  0  0  0  0  0  0  0
   34.7245   31.3950   47.3868 H   0  0  0  0  0  0  0  0  0  0  0  0
   37.2151   29.0778   50.0560 H   0  0  0  0  0  0  0  0  0  0  0  0
   33.4577   27.5836   48.6702 H   0  0  0  0  0  0  0  0  0  0  0  0
   40.1434   29.6776   44.4493 H   0  0  0  0  0  0  0  0  0  0  0  0
   37.6807   29.7949   43.3995 H   0  0  0  0  0  0  0  0  0  0  0  0
   36.1216   31.0036   45.2265 H   0  0  0  0  0  0  0  0  0  0  0  0
  1  7  1  0
  1  2  1  0
  3  2  2  0
  4  3  1  0
  5  4  2  0
  5  1  1  0
  6  7  2  0
  7  8  1  0
  9  8  2  0
 10  9  1  0
 11  6  1  0
 11 10  2  0
 12  5  1  0
 13 12  1  0
 14 13  2  0
 15 14  1  0
 15 16  2  0
 16 12  1  0
  3 17  1  0
  4 18  1  0
  6 19  1  0
  8 20  1  0
 10 21  1  0
 14 22  1  0
 15 23  1  0
 16 24  1  0
M  ISO  8  17  14  18  14  19  14  20  14  21  14  22  14  23  14  24  14
M  END
>  <minimizedAffinity>  (1) 
-4.77548504

>  <minimizedRMSD>  (1) 
4.49811602

$$$$
