
     RDKit          3D

 12 12  0  0  0  0  0  0  0  0999 V2000
   37.3030   30.1970   51.4320 C   0  0  0  0  0  0  0  0  0  0  0  0
   38.0750   30.7150   50.3660 C   0  0  0  0  0  0  0  0  0  0  0  0
   37.7210   30.3940   49.0460 C   0  0  0  0  0  0  0  0  0  0  0  0
   36.6400   29.5890   48.8800 N   0  0  0  0  0  0  0  0  0  0  0  0
   35.9200   29.1070   49.9080 C   0  0  0  0  0  0  0  0  0  0  0  0
   36.2470   29.4070   51.1700 N   0  0  0  0  0  0  0  0  0  0  0  0
   34.8180   28.2770   49.5440 N   0  0  0  0  0  0  0  0  0  0  0  0
   37.5657   30.4397   52.4722 H   0  0  0  0  0  0  0  0  0  0  0  0
   38.9418   31.3612   50.5687 H   0  0  0  0  0  0  0  0  0  0  0  0
   38.2920   30.7763   48.1871 H   0  0  0  0  0  0  0  0  0  0  0  0
   34.2174   27.8688   50.2744 H   0  0  0  0  0  0  0  0  0  0  0  0
   34.6231   28.0860   48.5508 H   0  0  0  0  0  0  0  0  0  0  0  0
  2  1  2  0
  3  2  1  0
  4  3  2  0
  4  5  1  0
  5  6  2  0
  6  1  1  0
  7  5  1  0
  1  8  1  0
  2  9  1  0
  3 10  1  0
  7 11  1  0
  7 12  1  0
M  ISO  3   8  14   9  14  10  14
M  END
>  <minimizedAffinity>  (1) 
-3.2011013

>  <minimizedRMSD>  (1) 
0.0468800105

$$$$
