
     RDKit          3D

 24 26  0  0  0  0  0  0  0  0999 V2000
   36.9920   30.8160   47.0200 N   0  0  0  0  0  0  0  0  0  0  0  0
   36.5690   30.2630   45.8840 N   0  0  0  0  0  0  0  0  0  0  0  0
   37.1040   30.8830   44.8270 C   0  0  0  0  0  0  0  0  0  0  0  0
   37.8910   31.8650   45.3640 C   0  0  0  0  0  0  0  0  0  0  0  0
   37.8160   31.8200   46.7610 C   0  0  0  0  0  0  0  0  0  0  0  0
   37.5190   29.6880   49.1170 C   0  0  0  0  0  0  0  0  0  0  0  0
   36.6020   30.3710   48.2870 C   0  0  0  0  0  0  0  0  0  0  0  0
   35.3080   30.5760   48.7770 C   0  0  0  0  0  0  0  0  0  0  0  0
   34.9880   30.1170   50.0120 N   0  0  0  0  0  0  0  0  0  0  0  0
   35.8880   29.4650   50.7870 C   0  0  0  0  0  0  0  0  0  0  0  0
   37.1440   29.2510   50.3460 N   0  0  0  0  0  0  0  0  0  0  0  0
   38.5270   32.7360   47.6450 C   0  0  0  0  0  0  0  0  0  0  0  0
   38.2160   32.9910   48.9640 C   0  0  0  0  0  0  0  0  0  0  0  0
   39.0710   33.9030   49.5320 C   0  0  0  0  0  0  0  0  0  0  0  0
   39.9100   34.1950   48.5220 N   0  0  0  0  0  0  0  0  0  0  0  0
   39.5960   33.5200   47.4310 N   0  0  0  0  0  0  0  0  0  0  0  0
   36.9465   30.6544   43.7626 H   0  0  0  0  0  0  0  0  0  0  0  0
   38.4920   32.5818   44.7852 H   0  0  0  0  0  0  0  0  0  0  0  0
   38.5454   29.5089   48.7642 H   0  0  0  0  0  0  0  0  0  0  0  0
   34.5591   31.1032   48.1678 H   0  0  0  0  0  0  0  0  0  0  0  0
   35.5916   29.1073   51.7841 H   0  0  0  0  0  0  0  0  0  0  0  0
   37.3794   32.5183   49.4994 H   0  0  0  0  0  0  0  0  0  0  0  0
   39.0701   34.2973   50.5589 H   0  0  0  0  0  0  0  0  0  0  0  0
   40.6949   34.8584   48.5905 H   0  0  0  0  0  0  0  0  0  0  0  0
  1  7  1  0
  2  1  1  0
  3  4  1  0
  3  2  2  0
  4  5  2  0
  5  1  1  0
  5 12  1  0
  6 11  2  0
  7  8  2  0
  7  6  1  0
  8  9  1  0
  9 10  2  0
 11 10  1  0
 12 13  1  0
 13 14  2  0
 15 14  1  0
 16 12  2  0
 16 15  1  0
  3 17  1  0
  4 18  1  0
  6 19  1  0
  8 20  1  0
 10 21  1  0
 13 22  1  0
 14 23  1  0
 15 24  1  0
M  ISO  8  17  14  18  14  19  14  20  14  21  14  22  14  23  14  24   9
M  END
>  <minimizedAffinity>  (1) 
-4.58138132

>  <minimizedRMSD>  (1) 
3.05889583

$$$$
