
     RDKit          3D

 24 25  0  0  0  0  0  0  0  0999 V2000
   36.2170   30.5730   47.3130 N   0  0  0  0  0  0  0  0  0  0  0  0
   36.8120   30.8310   46.1770 N   0  0  0  0  0  0  0  0  0  0  0  0
   37.8900   31.6040   46.3510 C   0  0  0  0  0  0  0  0  0  0  0  0
   37.9420   31.8290   47.7200 C   0  0  0  0  0  0  0  0  0  0  0  0
   36.8740   31.1700   48.3250 C   0  0  0  0  0  0  0  0  0  0  0  0
   35.0610   28.6730   48.3180 C   0  0  0  0  0  0  0  0  0  0  0  0
   35.0630   29.7900   47.4570 C   0  0  0  0  0  0  0  0  0  0  0  0
   33.8940   30.0760   46.7690 C   0  0  0  0  0  0  0  0  0  0  0  0
   32.8180   29.2520   46.9760 N   0  0  0  0  0  0  0  0  0  0  0  0
   32.8440   28.2000   47.7990 C   0  0  0  0  0  0  0  0  0  0  0  0
   33.9680   27.9000   48.4790 N   0  0  0  0  0  0  0  0  0  0  0  0
   36.5590   31.1410   49.7120 N   0  0  0  0  0  0  0  0  0  0  0  0
   37.1820   30.2160   50.6260 C   0  0  0  0  0  0  0  0  0  0  0  0
   38.4490   29.9820   50.3900 N   0  0  0  0  0  0  0  0  0  0  0  0
   36.3480   29.6740   51.6670 N   0  0  0  0  0  0  0  0  0  0  0  0
   38.9630   29.3260   51.0070 H   0  0  0  0  0  0  0  0  0  0  0  0
   38.5810   31.9779   45.5811 H   0  0  0  0  0  0  0  0  0  0  0  0
   38.7020   32.4293   48.2416 H   0  0  0  0  0  0  0  0  0  0  0  0
   35.9772   28.4253   48.8741 H   0  0  0  0  0  0  0  0  0  0  0  0
   33.8320   30.9329   46.0820 H   0  0  0  0  0  0  0  0  0  0  0  0
   31.9457   27.5772   47.9219 H   0  0  0  0  0  0  0  0  0  0  0  0
   35.8607   31.8047   50.0765 H   0  0  0  0  0  0  0  0  0  0  0  0
   36.7412   29.0085   52.3478 H   0  0  0  0  0  0  0  0  0  0  0  0
   35.3582   29.9517   51.7309 H   0  0  0  0  0  0  0  0  0  0  0  0
  1  7  1  0
  1  5  1  0
  2  3  2  0
  2  1  1  0
  3  4  1  0
  4  5  2  0
  5 12  1  0
  6 11  2  0
  7  6  1  0
  8  9  1  0
  8  7  2  0
  9 10  2  0
 10 11  1  0
 12 13  1  0
 13 15  1  0
 14 13  2  0
 14 16  1  0
  3 17  1  0
  4 18  1  0
  6 19  1  0
  8 20  1  0
 10 21  1  0
 12 22  1  0
 15 23  1  0
 15 24  1  0
M  ISO  5  17  14  18  14  19  14  20  14  21  14
M  END
>  <minimizedAffinity>  (1) 
-4.48445225

>  <minimizedRMSD>  (1) 
2.52317047

$$$$
