
     RDKit          3D

 20 21  0  0  0  0  0  0  0  0999 V2000
   37.6840   29.8930   50.1820 C   0  0  0  0  0  0  0  0  0  0  0  0
   37.1640   30.5400   49.0670 C   0  0  0  0  0  0  0  0  0  0  0  0
   35.7700   30.5670   48.9540 C   0  0  0  0  0  0  0  0  0  0  0  0
   35.0090   29.9770   49.9090 N   0  0  0  0  0  0  0  0  0  0  0  0
   35.5680   29.3580   50.9780 C   0  0  0  0  0  0  0  0  0  0  0  0
   36.8920   29.3180   51.1120 N   0  0  0  0  0  0  0  0  0  0  0  0
   37.9820   31.1350   48.1080 N   0  0  0  0  0  0  0  0  0  0  0  0
   38.3560   30.6010   46.9730 N   0  0  0  0  0  0  0  0  0  0  0  0
   39.1360   31.4110   46.2670 C   0  0  0  0  0  0  0  0  0  0  0  0
   39.2490   32.5510   47.0500 C   0  0  0  0  0  0  0  0  0  0  0  0
   38.5120   32.3680   48.2200 C   0  0  0  0  0  0  0  0  0  0  0  0
   38.4150   33.3850   49.2710 C   0  0  0  0  0  0  0  0  0  0  0  0
   38.7755   29.8481   50.3107 H   0  0  0  0  0  0  0  0  0  0  0  0
   35.2939   31.0638   48.0958 H   0  0  0  0  0  0  0  0  0  0  0  0
   34.9256   28.8874   51.7369 H   0  0  0  0  0  0  0  0  0  0  0  0
   39.5902   31.2212   45.2833 H   0  0  0  0  0  0  0  0  0  0  0  0
   39.8253   33.4513   46.7906 H   0  0  0  0  0  0  0  0  0  0  0  0
   38.4613   32.8991   50.2568 H   0  0  0  0  0  0  0  0  0  0  0  0
   39.2495   34.0948   49.1725 H   0  0  0  0  0  0  0  0  0  0  0  0
   37.4613   33.9243   49.1725 H   0  0  0  0  0  0  0  0  0  0  0  0
  1  6  2  0
  2  1  1  0
  3  2  2  0
  3  4  1  0
  4  5  2  0
  5  6  1  0
  7 11  1  0
  7  2  1  0
  8  7  1  0
  9  8  2  0
  9 10  1  0
 10 11  2  0
 11 12  1  0
  1 13  1  0
  3 14  1  0
  5 15  1  0
  9 16  1  0
 10 17  1  0
 12 18  1  0
 12 19  1  0
 12 20  1  0
M  ISO  8  13  14  14  14  15  14  16  14  17  14  18   8  19   8  20   8
M  END
>  <minimizedAffinity>  (1) 
-4.4843955

>  <minimizedRMSD>  (1) 
1.42250514

$$$$
