
     RDKit          3D

 22 24  0  0  0  0  0  0  0  0999 V2000
   36.8710   30.8030   47.1620 N   0  0  0  0  0  0  0  0  0  0  0  0
   36.5920   30.3190   45.9560 N   0  0  0  0  0  0  0  0  0  0  0  0
   37.2490   30.9800   45.0010 C   0  0  0  0  0  0  0  0  0  0  0  0
   37.9800   31.9360   45.6910 C   0  0  0  0  0  0  0  0  0  0  0  0
   37.7310   31.8110   47.0550 C   0  0  0  0  0  0  0  0  0  0  0  0
   37.0910   29.5540   49.2370 C   0  0  0  0  0  0  0  0  0  0  0  0
   36.3260   30.3050   48.3490 C   0  0  0  0  0  0  0  0  0  0  0  0
   34.9880   30.5380   48.6970 C   0  0  0  0  0  0  0  0  0  0  0  0
   34.5360   30.0140   49.8790 N   0  0  0  0  0  0  0  0  0  0  0  0
   35.3050   29.2960   50.7050 C   0  0  0  0  0  0  0  0  0  0  0  0
   36.5880   29.0620   50.3890 N   0  0  0  0  0  0  0  0  0  0  0  0
   38.3300   32.6540   48.0870 C   0  0  0  0  0  0  0  0  0  0  0  0
   38.0950   32.8670   49.4050 N   0  0  0  0  0  0  0  0  0  0  0  0
   38.9440   33.7410   49.8580 O   0  0  0  0  0  0  0  0  0  0  0  0
   39.7600   34.1400   48.8950 C   0  0  0  0  0  0  0  0  0  0  0  0
   39.3750   33.4610   47.7930 N   0  0  0  0  0  0  0  0  0  0  0  0
   37.2180   30.8065   43.9152 H   0  0  0  0  0  0  0  0  0  0  0  0
   38.6513   32.6769   45.2322 H   0  0  0  0  0  0  0  0  0  0  0  0
   38.1443   29.3541   48.9909 H   0  0  0  0  0  0  0  0  0  0  0  0
   34.3237   31.1219   48.0429 H   0  0  0  0  0  0  0  0  0  0  0  0
   34.8866   28.8982   51.6413 H   0  0  0  0  0  0  0  0  0  0  0  0
   40.5787   34.8703   48.9754 H   0  0  0  0  0  0  0  0  0  0  0  0
  1  7  1  0
  2  1  1  0
  3  4  1  0
  3  2  2  0
  4  5  2  0
  5  1  1  0
  5 12  1  0
  6 11  2  0
  7  8  2  0
  7  6  1  0
  8  9  1  0
  9 10  2  0
 11 10  1  0
 12 13  2  0
 13 14  1  0
 15 14  1  0
 16 12  1  0
 16 15  2  0
  3 17  1  0
  4 18  1  0
  6 19  1  0
  8 20  1  0
 10 21  1  0
 15 22  1  0
M  ISO  6  17  14  18  14  19  14  20  14  21  14  22  14
M  END
>  <minimizedAffinity>  (1) 
-4.46445704

>  <minimizedRMSD>  (1) 
2.74434233

$$$$
