
     RDKit          3D

 25 27  0  0  0  0  0  0  0  0999 V2000
   38.6830   32.0670   44.7000 N   0  0  0  0  0  0  0  0  0  0  0  0
   39.5790   32.7710   44.0060 N   0  0  0  0  0  0  0  0  0  0  0  0
   40.3520   33.4930   44.7950 C   0  0  0  0  0  0  0  0  0  0  0  0
   39.8940   33.2070   46.0620 C   0  0  0  0  0  0  0  0  0  0  0  0
   38.8280   32.2970   45.9980 C   0  0  0  0  0  0  0  0  0  0  0  0
   37.9780   29.8540   43.9510 C   0  0  0  0  0  0  0  0  0  0  0  0
   37.7300   31.2180   44.1160 C   0  0  0  0  0  0  0  0  0  0  0  0
   36.4890   31.7340   43.6920 C   0  0  0  0  0  0  0  0  0  0  0  0
   35.5900   30.8620   43.1380 N   0  0  0  0  0  0  0  0  0  0  0  0
   35.8620   29.5420   42.9930 C   0  0  0  0  0  0  0  0  0  0  0  0
   37.0510   29.0420   43.3970 N   0  0  0  0  0  0  0  0  0  0  0  0
   38.1250   31.8130   47.1660 C   0  0  0  0  0  0  0  0  0  0  0  0
   38.5600   32.1420   48.4320 C   0  0  0  0  0  0  0  0  0  0  0  0
   37.9790   31.7470   49.6180 C   0  0  0  0  0  0  0  0  0  0  0  0
   36.8800   30.9630   49.5290 N   0  0  0  0  0  0  0  0  0  0  0  0
   36.4290   30.6230   48.2900 C   0  0  0  0  0  0  0  0  0  0  0  0
   37.0340   31.0360   47.1660 N   0  0  0  0  0  0  0  0  0  0  0  0
   41.1722   34.1672   44.5074 H   0  0  0  0  0  0  0  0  0  0  0  0
   40.3047   33.6309   46.9902 H   0  0  0  0  0  0  0  0  0  0  0  0
   38.9414   29.4346   44.2765 H   0  0  0  0  0  0  0  0  0  0  0  0
   36.2503   32.8021   43.8024 H   0  0  0  0  0  0  0  0  0  0  0  0
   35.1115   28.8745   42.5444 H   0  0  0  0  0  0  0  0  0  0  0  0
   39.4540   32.7791   48.5024 H   0  0  0  0  0  0  0  0  0  0  0  0
   38.3896   32.0548   50.5910 H   0  0  0  0  0  0  0  0  0  0  0  0
   35.5358   29.9863   48.2076 H   0  0  0  0  0  0  0  0  0  0  0  0
  1  5  1  0
  2  1  1  0
  2  3  2  0
  3  4  1  0
  5  4  2  0
  5 12  1  0
  6  7  2  0
  7  1  1  0
  8  7  1  0
  9  8  2  0
 10  9  1  0
 10 11  2  0
 11  6  1  0
 12 17  1  0
 12 13  2  0
 13 14  1  0
 15 14  2  0
 16 15  1  0
 17 16  2  0
  3 18  1  0
  4 19  1  0
  6 20  1  0
  8 21  1  0
 10 22  1  0
 13 23  1  0
 14 24  1  0
 16 25  1  0
M  ISO  8  18  14  19  14  20  14  21  14  22  14  23  14  24  14  25  14
M  END
>  <minimizedAffinity>  (1) 
-4.37309456

>  <minimizedRMSD>  (1) 
5.08888912

$$$$
