
     RDKit          3D

 24 26  0  0  0  0  0  0  0  0999 V2000
   36.8920   30.8010   47.1390 N   0  0  0  0  0  0  0  0  0  0  0  0
   36.6120   30.3230   45.9530 N   0  0  0  0  0  0  0  0  0  0  0  0
   37.2270   30.9760   44.9800 C   0  0  0  0  0  0  0  0  0  0  0  0
   37.9590   31.9510   45.6400 C   0  0  0  0  0  0  0  0  0  0  0  0
   37.7420   31.8340   47.0100 C   0  0  0  0  0  0  0  0  0  0  0  0
   37.1950   29.6120   49.2460 C   0  0  0  0  0  0  0  0  0  0  0  0
   36.3870   30.3140   48.3570 C   0  0  0  0  0  0  0  0  0  0  0  0
   35.0450   30.5280   48.7060 C   0  0  0  0  0  0  0  0  0  0  0  0
   34.6210   30.0250   49.9120 N   0  0  0  0  0  0  0  0  0  0  0  0
   35.4230   29.3550   50.7440 C   0  0  0  0  0  0  0  0  0  0  0  0
   36.6930   29.1530   50.4110 N   0  0  0  0  0  0  0  0  0  0  0  0
   38.3310   32.6720   47.9960 N   0  0  0  0  0  0  0  0  0  0  0  0
   39.4030   33.3890   47.5600 C   0  0  0  0  0  0  0  0  0  0  0  0
   39.8820   34.1530   48.5940 C   0  0  0  0  0  0  0  0  0  0  0  0
   39.0860   33.8860   49.6570 N   0  0  0  0  0  0  0  0  0  0  0  0
   38.1580   32.9950   49.2900 C   0  0  0  0  0  0  0  0  0  0  0  0
   37.1705   30.7885   43.8976 H   0  0  0  0  0  0  0  0  0  0  0  0
   38.6075   32.6976   45.1582 H   0  0  0  0  0  0  0  0  0  0  0  0
   38.2509   29.4299   48.9971 H   0  0  0  0  0  0  0  0  0  0  0  0
   34.3607   31.0759   48.0415 H   0  0  0  0  0  0  0  0  0  0  0  0
   35.0340   28.9728   51.6993 H   0  0  0  0  0  0  0  0  0  0  0  0
   39.8185   33.3604   46.5419 H   0  0  0  0  0  0  0  0  0  0  0  0
   40.7386   34.8425   48.5656 H   0  0  0  0  0  0  0  0  0  0  0  0
   37.3739   32.5889   49.9459 H   0  0  0  0  0  0  0  0  0  0  0  0
  1  7  1  0
  2  1  1  0
  3  4  1  0
  3  2  2  0
  4  5  2  0
  5  1  1  0
  5 12  1  0
  6 11  2  0
  7  8  2  0
  7  6  1  0
  8  9  1  0
  9 10  2  0
 11 10  1  0
 12 16  1  0
 13 12  1  0
 13 14  2  0
 14 15  1  0
 16 15  2  0
  3 17  1  0
  4 18  1  0
  6 19  1  0
  8 20  1  0
 10 21  1  0
 13 22  1  0
 14 23  1  0
 16 24  1  0
M  ISO  8  17  14  18  14  19  14  20  14  21  14  22  14  23  14  24  14
M  END
>  <minimizedAffinity>  (1) 
-4.3474021

>  <minimizedRMSD>  (1) 
2.78270221

$$$$
