
     RDKit          3D

 28 30  0  0  0  0  0  0  0  0999 V2000
   36.4990   30.5360   46.7800 N   0  0  0  0  0  0  0  0  0  0  0  0
   36.2040   30.0890   45.5670 N   0  0  0  0  0  0  0  0  0  0  0  0
   36.8850   30.7380   44.6290 C   0  0  0  0  0  0  0  0  0  0  0  0
   37.6510   31.6430   45.3190 C   0  0  0  0  0  0  0  0  0  0  0  0
   37.3980   31.5050   46.6700 C   0  0  0  0  0  0  0  0  0  0  0  0
   38.0320   32.2970   47.6670 N   0  0  0  0  0  0  0  0  0  0  0  0
   37.4670   32.4220   48.8840 C   0  0  0  0  0  0  0  0  0  0  0  0
   38.1790   33.2130   49.7540 C   0  0  0  0  0  0  0  0  0  0  0  0
   39.3620   33.8300   49.4290 C   0  0  0  0  0  0  0  0  0  0  0  0
   40.0920   34.6450   50.3300 N   0  0  0  0  0  0  0  0  0  0  0  0
   39.8560   33.6530   48.1900 N   0  0  0  0  0  0  0  0  0  0  0  0
   39.1890   32.8840   47.3070 C   0  0  0  0  0  0  0  0  0  0  0  0
   39.7040   32.7600   46.1680 O   0  0  0  0  0  0  0  0  0  0  0  0
   36.7200   29.3710   48.9040 C   0  0  0  0  0  0  0  0  0  0  0  0
   35.9460   30.0550   47.9670 C   0  0  0  0  0  0  0  0  0  0  0  0
   34.5880   30.2410   48.2670 C   0  0  0  0  0  0  0  0  0  0  0  0
   34.1170   29.7420   49.4480 N   0  0  0  0  0  0  0  0  0  0  0  0
   34.8940   29.0920   50.3180 C   0  0  0  0  0  0  0  0  0  0  0  0
   36.1830   28.9050   50.0550 N   0  0  0  0  0  0  0  0  0  0  0  0
   36.8438   30.5839   43.5406 H   0  0  0  0  0  0  0  0  0  0  0  0
   38.3524   32.3615   44.8697 H   0  0  0  0  0  0  0  0  0  0  0  0
   36.5197   31.9341   49.1571 H   0  0  0  0  0  0  0  0  0  0  0  0
   37.7785   33.3601   50.7679 H   0  0  0  0  0  0  0  0  0  0  0  0
   40.9747   35.0824   50.0293 H   0  0  0  0  0  0  0  0  0  0  0  0
   39.7398   34.7998   51.2854 H   0  0  0  0  0  0  0  0  0  0  0  0
   37.7890   29.2070   48.7031 H   0  0  0  0  0  0  0  0  0  0  0  0
   33.9223   30.7731   47.5715 H   0  0  0  0  0  0  0  0  0  0  0  0
   34.4653   28.7098   51.2562 H   0  0  0  0  0  0  0  0  0  0  0  0
  1 15  1  0
  2  1  1  0
  3  4  1  0
  3  2  2  0
  4  5  2  0
  5  1  1  0
  5  6  1  0
  6  7  1  0
  7  8  2  0
  9  8  1  0
  9 10  1  0
 11  9  2  0
 12  6  1  0
 12 11  1  0
 13 12  2  0
 14 19  2  0
 15 16  2  0
 15 14  1  0
 16 17  1  0
 17 18  2  0
 19 18  1  0
  3 20  1  0
  4 21  1  0
  7 22  1  0
  8 23  1  0
 10 24  1  0
 10 25  1  0
 14 26  1  0
 16 27  1  0
 18 28  1  0
M  ISO  7  20  14  21  14  22  14  23  14  26  14  27  14  28  14
M  END
>  <minimizedAffinity>  (1) 
-4.2245717

>  <minimizedRMSD>  (1) 
3.41837668

$$$$
