
     RDKit          3D

 11 11  0  0  0  0  0  0  0  0999 V2000
   37.2570   30.1710   51.4180 C   0  0  0  0  0  0  0  0  0  0  0  0
   38.1160   30.7560   50.4740 C   0  0  0  0  0  0  0  0  0  0  0  0
   37.8510   30.5530   49.1110 C   0  0  0  0  0  0  0  0  0  0  0  0
   36.7610   29.7900   48.7810 N   0  0  0  0  0  0  0  0  0  0  0  0
   35.9640   29.2470   49.7200 C   0  0  0  0  0  0  0  0  0  0  0  0
   36.2060   29.4330   51.0350 N   0  0  0  0  0  0  0  0  0  0  0  0
   34.5400   28.2490   49.2970 S   0  0  0  0  0  0  0  0  0  0  0  0
   37.4500   30.3210   52.4905 H   0  0  0  0  0  0  0  0  0  0  0  0
   38.9773   31.3599   50.7956 H   0  0  0  0  0  0  0  0  0  0  0  0
   38.4954   30.9909   48.3345 H   0  0  0  0  0  0  0  0  0  0  0  0
   33.9266   27.8191   50.4441 H   0  0  0  0  0  0  0  0  0  0  0  0
  2  1  2  0
  3  2  1  0
  4  3  2  0
  4  5  1  0
  5  6  2  0
  6  1  1  0
  7  5  1  0
  1  8  1  0
  2  9  1  0
  3 10  1  0
  7 11  1  0
M  ISO  4   8  14   9  14  10  14  11  11
M  END
>  <minimizedAffinity>  (1) 
-3.18298912

>  <minimizedRMSD>  (1) 
0.227304086

$$$$
