
     RDKit          3D

 19 20  0  0  0  0  0  0  0  0999 V2000
   37.2900   30.9120   48.1410 N   0  0  0  0  0  0  0  0  0  0  0  0
   38.1380   30.6880   47.1460 N   0  0  0  0  0  0  0  0  0  0  0  0
   39.0940   31.6310   47.1270 C   0  0  0  0  0  0  0  0  0  0  0  0
   38.7890   32.4740   48.1890 C   0  0  0  0  0  0  0  0  0  0  0  0
   37.6540   32.0000   48.8070 C   0  0  0  0  0  0  0  0  0  0  0  0
   36.2480   29.1500   49.4620 C   0  0  0  0  0  0  0  0  0  0  0  0
   36.1770   30.1010   48.4260 C   0  0  0  0  0  0  0  0  0  0  0  0
   34.9930   30.2000   47.7190 C   0  0  0  0  0  0  0  0  0  0  0  0
   33.9590   29.3830   48.0530 N   0  0  0  0  0  0  0  0  0  0  0  0
   34.0420   28.4850   49.0380 C   0  0  0  0  0  0  0  0  0  0  0  0
   35.1810   28.3640   49.7450 N   0  0  0  0  0  0  0  0  0  0  0  0
   37.0260   32.6020   49.9480 N   0  0  0  0  0  0  0  0  0  0  0  0
   39.9355   31.7174   46.4238 H   0  0  0  0  0  0  0  0  0  0  0  0
   39.3577   33.3678   48.4852 H   0  0  0  0  0  0  0  0  0  0  0  0
   37.1749   29.0445   50.0449 H   0  0  0  0  0  0  0  0  0  0  0  0
   34.8894   30.9273   46.9003 H   0  0  0  0  0  0  0  0  0  0  0  0
   33.1792   27.8439   49.2716 H   0  0  0  0  0  0  0  0  0  0  0  0
   37.4247   33.4553   50.3649 H   0  0  0  0  0  0  0  0  0  0  0  0
   36.1764   32.1808   50.3502 H   0  0  0  0  0  0  0  0  0  0  0  0
  1  7  1  0
  1  5  1  0
  2  1  1  0
  3  2  2  0
  3  4  1  0
  4  5  2  0
  5 12  1  0
  6 11  2  0
  7  6  1  0
  8  9  1  0
  8  7  2  0
  9 10  2  0
 10 11  1  0
  3 13  1  0
  4 14  1  0
  6 15  1  0
  8 16  1  0
 10 17  1  0
 12 18  1  0
 12 19  1  0
M  ISO  5  13  14  14  14  15  14  16  14  17  14
M  END
>  <minimizedAffinity>  (1) 
-4.02845192

>  <minimizedRMSD>  (1) 
1.14566016

$$$$
