
     RDKit          3D

 24 25  0  0  0  0  0  0  0  0999 V2000
   34.7050   29.5490   48.9820 C   0  0  0  0  0  0  0  0  0  0  0  0
   34.4730   30.1600   47.7470 C   0  0  0  0  0  0  0  0  0  0  0  0
   33.4750   29.6310   46.9290 C   0  0  0  0  0  0  0  0  0  0  0  0
   32.7870   28.5510   47.3840 N   0  0  0  0  0  0  0  0  0  0  0  0
   33.0380   27.9820   48.5910 C   0  0  0  0  0  0  0  0  0  0  0  0
   33.9950   28.4900   49.3740 N   0  0  0  0  0  0  0  0  0  0  0  0
   35.7070   30.0480   49.8480 N   0  0  0  0  0  0  0  0  0  0  0  0
   36.1410   29.4930   51.1110 C   0  0  0  0  0  0  0  0  0  0  0  0
   37.6130   29.1810   51.0540 C   0  0  0  0  0  0  0  0  0  0  0  0
   38.4230   30.0760   50.3370 N   0  0  0  0  0  0  0  0  0  0  0  0
   37.8710   30.7600   49.2400 C   0  0  0  0  0  0  0  0  0  0  0  0
   36.4520   31.2510   49.5290 C   0  0  0  0  0  0  0  0  0  0  0  0
   35.0609   31.0336   47.4289 H   0  0  0  0  0  0  0  0  0  0  0  0
   33.2519   30.0737   45.9471 H   0  0  0  0  0  0  0  0  0  0  0  0
   32.4575   27.1084   48.9225 H   0  0  0  0  0  0  0  0  0  0  0  0
   35.9532   30.2215   51.9135 H   0  0  0  0  0  0  0  0  0  0  0  0
   35.5817   28.5672   51.3115 H   0  0  0  0  0  0  0  0  0  0  0  0
   37.9867   29.1494   52.0881 H   0  0  0  0  0  0  0  0  0  0  0  0
   37.6842   28.2284   50.5085 H   0  0  0  0  0  0  0  0  0  0  0  0
   38.7506   30.7889   51.0044 H   0  0  0  0  0  0  0  0  0  0  0  0
   37.8430   30.0809   48.3751 H   0  0  0  0  0  0  0  0  0  0  0  0
   38.5003   31.6385   49.0345 H   0  0  0  0  0  0  0  0  0  0  0  0
   36.4479   31.9476   50.3803 H   0  0  0  0  0  0  0  0  0  0  0  0
   36.0181   31.7974   48.6786 H   0  0  0  0  0  0  0  0  0  0  0  0
  1  6  1  0
  1  7  1  0
  2  1  2  0
  3  4  2  0
  3  2  1  0
  4  5  1  0
  5  6  2  0
  7  8  1  0
  9  8  1  0
 10  9  1  0
 11 12  1  0
 11 10  1  0
 12  7  1  0
  2 13  1  0
  3 14  1  0
  5 15  1  0
  8 16  1  0
  8 17  1  0
  9 18  1  0
  9 19  1  0
 10 20  1  0
 11 21  1  0
 11 22  1  0
 12 23  1  0
 12 24  1  0
M  ISO  8  13  14  14  14  15  14  16  13  17  13  18  13  19  13  20   5
M  ISO  4  21  13  22  13  23  13  24  13
M  END
>  <minimizedAffinity>  (1) 
-4.18968439

>  <minimizedRMSD>  (1) 
4.13637638

$$$$
