
     RDKit          3D

 13 13  0  0  0  0  0  0  0  0999 V2000
   37.2830   30.5010   50.4140 C   0  0  0  0  0  0  0  0  0  0  0  0
   38.3740   31.3200   50.0910 C   0  0  0  0  0  0  0  0  0  0  0  0
   38.4270   31.8670   48.7910 C   0  0  0  0  0  0  0  0  0  0  0  0
   37.4150   31.5620   47.9400 N   0  0  0  0  0  0  0  0  0  0  0  0
   36.3820   30.7690   48.2880 C   0  0  0  0  0  0  0  0  0  0  0  0
   36.3180   30.2400   49.5270 N   0  0  0  0  0  0  0  0  0  0  0  0
   37.3110   29.9670   51.8100 C   0  0  0  0  0  0  0  0  0  0  0  0
   39.1637   31.5297   50.8274 H   0  0  0  0  0  0  0  0  0  0  0  0
   39.2581   32.5167   48.4791 H   0  0  0  0  0  0  0  0  0  0  0  0
   35.5878   30.5524   47.5584 H   0  0  0  0  0  0  0  0  0  0  0  0
   37.2672   30.8032   52.5234 H   0  0  0  0  0  0  0  0  0  0  0  0
   36.4463   29.3054   51.9669 H   0  0  0  0  0  0  0  0  0  0  0  0
   38.2401   29.3995   51.9669 H   0  0  0  0  0  0  0  0  0  0  0  0
  1  7  1  0
  2  1  2  0
  3  2  1  0
  4  5  1  0
  4  3  2  0
  5  6  2  0
  6  1  1  0
  2  8  1  0
  3  9  1  0
  5 10  1  0
  7 11  1  0
  7 12  1  0
  7 13  1  0
M  ISO  6   8  14   9  14  10  14  11   8  12   8  13   8
M  END
>  <minimizedAffinity>  (1) 
-3.23527384

>  <minimizedRMSD>  (1) 
1.67937267

$$$$
