
     RDKit          3D

 13 13  0  0  0  0  0  0  0  0999 V2000
   37.4780   30.3190   49.6800 C   0  0  0  0  0  0  0  0  0  0  0  0
   38.2530   31.4510   49.9660 C   0  0  0  0  0  0  0  0  0  0  0  0
   38.5660   32.2990   48.8850 C   0  0  0  0  0  0  0  0  0  0  0  0
   38.1050   31.9760   47.6430 N   0  0  0  0  0  0  0  0  0  0  0  0
   37.3620   30.8730   47.4230 C   0  0  0  0  0  0  0  0  0  0  0  0
   37.0470   30.0410   48.4460 N   0  0  0  0  0  0  0  0  0  0  0  0
   37.1480   29.4350   50.7930 C   0  0  0  0  0  0  0  0  0  0  0  0
   35.9860   29.4160   51.2720 O   0  0  0  0  0  0  0  0  0  0  0  0
   38.1280   28.6040   51.3300 O   0  0  0  0  0  0  0  0  0  0  0  0
   38.6008   31.6675   50.9869 H   0  0  0  0  0  0  0  0  0  0  0  0
   39.1709   33.2046   49.0401 H   0  0  0  0  0  0  0  0  0  0  0  0
   37.0088   30.6464   46.4062 H   0  0  0  0  0  0  0  0  0  0  0  0
   37.9079   28.0029   52.0852 H   0  0  0  0  0  0  0  0  0  0  0  0
  1  2  2  0
  1  7  1  0
  3  2  1  0
  4  3  2  0
  5  4  1  0
  5  6  2  0
  6  1  1  0
  7  8  2  0
  7  9  1  0
  2 10  1  0
  3 11  1  0
  5 12  1  0
  9 13  1  0
M  ISO  4  10  14  11  14  12  14  13   3
M  END
>  <minimizedAffinity>  (1) 
-3.69605875

>  <minimizedRMSD>  (1) 
2.66804266

$$$$
