
     RDKit          3D

 29 30  0  0  0  0  0  0  0  0999 V2000
   37.9250   30.9680   49.3900 C   0  0  0  0  0  0  0  0  0  0  0  0
   38.2870   32.2650   49.7640 C   0  0  0  0  0  0  0  0  0  0  0  0
   38.8400   33.1030   48.7890 C   0  0  0  0  0  0  0  0  0  0  0  0
   38.9930   32.5990   47.5250 N   0  0  0  0  0  0  0  0  0  0  0  0
   38.6320   31.3470   47.2090 C   0  0  0  0  0  0  0  0  0  0  0  0
   38.0920   30.5110   48.1360 N   0  0  0  0  0  0  0  0  0  0  0  0
   37.3480   30.0950   50.4130 C   0  0  0  0  0  0  0  0  0  0  0  0
   37.5580   30.3030   51.6250 O   0  0  0  0  0  0  0  0  0  0  0  0
   36.5520   29.0220   50.0280 O   0  0  0  0  0  0  0  0  0  0  0  0
   35.1180   29.1120   49.9870 C   0  0  0  0  0  0  0  0  0  0  0  0
   34.6920   30.4070   49.3860 C   0  0  0  0  0  0  0  0  0  0  0  0
   34.3840   30.4060   47.9360 C   0  0  0  0  0  0  0  0  0  0  0  0
   33.9490   29.0880   47.3670 C   0  0  0  0  0  0  0  0  0  0  0  0
   33.4200   28.2210   48.4990 C   0  0  0  0  0  0  0  0  0  0  0  0
   34.6570   27.8720   49.3070 C   0  0  0  0  0  0  0  0  0  0  0  0
   38.1414   32.6173   50.7958 H   0  0  0  0  0  0  0  0  0  0  0  0
   39.1419   34.1329   49.0302 H   0  0  0  0  0  0  0  0  0  0  0  0
   38.7755   30.9886   46.1790 H   0  0  0  0  0  0  0  0  0  0  0  0
   34.6399   29.1442   50.9771 H   0  0  0  0  0  0  0  0  0  0  0  0
   33.7875   30.7380   49.9173 H   0  0  0  0  0  0  0  0  0  0  0  0
   35.5617   31.0720   49.4933 H   0  0  0  0  0  0  0  0  0  0  0  0
   33.5774   31.1331   47.7608 H   0  0  0  0  0  0  0  0  0  0  0  0
   35.3268   30.6568   47.4278 H   0  0  0  0  0  0  0  0  0  0  0  0
   33.1557   29.2497   46.6224 H   0  0  0  0  0  0  0  0  0  0  0  0
   34.8000   28.5904   46.8790 H   0  0  0  0  0  0  0  0  0  0  0  0
   32.6971   28.7784   49.1128 H   0  0  0  0  0  0  0  0  0  0  0  0
   32.8880   27.3296   48.1350 H   0  0  0  0  0  0  0  0  0  0  0  0
   34.4114   27.1038   50.0550 H   0  0  0  0  0  0  0  0  0  0  0  0
   35.4464   27.4761   48.6512 H   0  0  0  0  0  0  0  0  0  0  0  0
  1  2  2  0
  1  7  1  0
  3  2  1  0
  4  3  2  0
  5  4  1  0
  5  6  2  0
  6  1  1  0
  7  8  2  0
  9  7  1  0
 10  9  1  0
 11 10  1  0
 12 11  1  0
 13 12  1  0
 13 14  1  0
 14 15  1  0
 15 10  1  0
  2 16  1  0
  3 17  1  0
  5 18  1  0
 10 19  1  0
 11 20  1  0
 11 21  1  0
 12 22  1  0
 12 23  1  0
 13 24  1  0
 13 25  1  0
 14 26  1  0
 14 27  1  0
 15 28  1  0
 15 29  1  0
M  ISO  8  16  14  17  14  18  14  19  13  20  13  21  13  22  13  23  13
M  ISO  6  24  13  25  13  26  13  27  13  28  13  29  13
M  END
>  <minimizedAffinity>  (1) 
-5.24782372

>  <minimizedRMSD>  (1) 
4.6074872

$$$$
