
     RDKit          3D

 20 21  0  0  0  0  0  0  0  0999 V2000
   37.4640   30.9450   49.1120 C   0  0  0  0  0  0  0  0  0  0  0  0
   37.8990   31.0730   50.4340 C   0  0  0  0  0  0  0  0  0  0  0  0
   37.3910   30.1370   51.3500 C   0  0  0  0  0  0  0  0  0  0  0  0
   36.5200   29.1750   50.9090 N   0  0  0  0  0  0  0  0  0  0  0  0
   36.1430   29.1060   49.6270 C   0  0  0  0  0  0  0  0  0  0  0  0
   36.6160   29.9960   48.7270 N   0  0  0  0  0  0  0  0  0  0  0  0
   37.9830   31.9130   48.1460 C   0  0  0  0  0  0  0  0  0  0  0  0
   38.4770   33.0050   48.5370 O   0  0  0  0  0  0  0  0  0  0  0  0
   37.9310   31.6310   46.7780 O   0  0  0  0  0  0  0  0  0  0  0  0
   39.0150   31.9700   45.9760 C   0  0  0  0  0  0  0  0  0  0  0  0
   40.2120   31.4310   45.6400 C   0  0  0  0  0  0  0  0  0  0  0  0
   40.8380   32.2840   44.7820 N   0  0  0  0  0  0  0  0  0  0  0  0
   40.0030   33.3490   44.5990 C   0  0  0  0  0  0  0  0  0  0  0  0
   38.8710   33.1640   45.3350 N   0  0  0  0  0  0  0  0  0  0  0  0
   38.6004   31.8631   50.7403 H   0  0  0  0  0  0  0  0  0  0  0  0
   37.6886   30.1756   52.4083 H   0  0  0  0  0  0  0  0  0  0  0  0
   35.4441   28.3204   49.3040 H   0  0  0  0  0  0  0  0  0  0  0  0
   40.6097   30.4701   45.9984 H   0  0  0  0  0  0  0  0  0  0  0  0
   40.2112   34.2188   43.9587 H   0  0  0  0  0  0  0  0  0  0  0  0
   38.0645   33.8018   45.3950 H   0  0  0  0  0  0  0  0  0  0  0  0
  1  2  2  0
  2  3  1  0
  4  3  2  0
  5  4  1  0
  6  1  1  0
  6  5  2  0
  7  8  2  0
  7  1  1  0
  9  7  1  0
 10  9  1  0
 11 10  2  0
 12 11  1  0
 13 12  2  0
 13 14  1  0
 14 10  1  0
  2 15  1  0
  3 16  1  0
  5 17  1  0
 11 18  1  0
 13 19  1  0
 14 20  1  0
M  ISO  6  15  14  16  14  17  14  18  14  19  14  20   9
M  END
>  <minimizedAffinity>  (1) 
-4.83131647

>  <minimizedRMSD>  (1) 
6.6830039

$$$$
