
     RDKit          3D

 18 19  0  0  0  0  0  0  0  0999 V2000
   39.2960   31.9730   46.7690 C   0  0  0  0  0  0  0  0  0  0  0  0
   39.9100   33.1040   46.2150 C   0  0  0  0  0  0  0  0  0  0  0  0
   40.4610   32.9600   44.9250 C   0  0  0  0  0  0  0  0  0  0  0  0
   40.3710   31.7610   44.3000 N   0  0  0  0  0  0  0  0  0  0  0  0
   39.7650   30.6910   44.8770 C   0  0  0  0  0  0  0  0  0  0  0  0
   39.2340   30.8210   46.1140 N   0  0  0  0  0  0  0  0  0  0  0  0
   38.7250   32.1110   48.0950 C   0  0  0  0  0  0  0  0  0  0  0  0
   38.6630   33.2220   48.6570 O   0  0  0  0  0  0  0  0  0  0  0  0
   38.2330   30.9880   48.7650 O   0  0  0  0  0  0  0  0  0  0  0  0
   36.8440   30.7820   48.7670 C   0  0  0  0  0  0  0  0  0  0  0  0
   35.9950   30.6090   47.7370 N   0  0  0  0  0  0  0  0  0  0  0  0
   34.7820   30.4510   48.2050 O   0  0  0  0  0  0  0  0  0  0  0  0
   34.7990   30.5140   49.5150 C   0  0  0  0  0  0  0  0  0  0  0  0
   36.0920   30.7230   49.9060 N   0  0  0  0  0  0  0  0  0  0  0  0
   39.9598   34.0582   46.7600 H   0  0  0  0  0  0  0  0  0  0  0  0
   40.9571   33.8094   44.4327 H   0  0  0  0  0  0  0  0  0  0  0  0
   39.7068   29.7302   44.3445 H   0  0  0  0  0  0  0  0  0  0  0  0
   33.9283   30.4161   50.1801 H   0  0  0  0  0  0  0  0  0  0  0  0
  1  7  1  0
  2  1  2  0
  3  2  1  0
  4  5  1  0
  4  3  2  0
  5  6  2  0
  6  1  1  0
  7  8  2  0
  7  9  1  0
  9 10  1  0
 10 14  1  0
 11 12  1  0
 11 10  2  0
 12 13  1  0
 13 14  2  0
  2 15  1  0
  3 16  1  0
  5 17  1  0
 13 18  1  0
M  ISO  4  15  14  16  14  17  14  18  14
M  END
>  <minimizedAffinity>  (1) 
-4.40639496

>  <minimizedRMSD>  (1) 
4.92072487

$$$$
