
     RDKit          3D

 16 16  0  0  0  0  0  0  0  0999 V2000
   37.3090   31.3600   49.9090 C   0  0  0  0  0  0  0  0  0  0  0  0
   36.0380   31.0190   49.4210 C   0  0  0  0  0  0  0  0  0  0  0  0
   35.3800   29.9460   50.0470 C   0  0  0  0  0  0  0  0  0  0  0  0
   36.0060   29.3100   51.0770 N   0  0  0  0  0  0  0  0  0  0  0  0
   37.2210   29.6770   51.5050 C   0  0  0  0  0  0  0  0  0  0  0  0
   37.8790   30.7100   50.9160 N   0  0  0  0  0  0  0  0  0  0  0  0
   38.0030   32.4770   49.2610 C   0  0  0  0  0  0  0  0  0  0  0  0
   37.5990   33.6530   49.4010 O   0  0  0  0  0  0  0  0  0  0  0  0
   39.1230   32.2200   48.4830 O   0  0  0  0  0  0  0  0  0  0  0  0
   38.8900   31.8240   47.1520 C   0  0  0  0  0  0  0  0  0  0  0  0
   37.8740   32.1850   46.5020 O   0  0  0  0  0  0  0  0  0  0  0  0
   39.8830   31.0020   46.6260 O   0  0  0  0  0  0  0  0  0  0  0  0
   35.5773   31.5670   48.5859 H   0  0  0  0  0  0  0  0  0  0  0  0
   34.3818   29.6268   49.7128 H   0  0  0  0  0  0  0  0  0  0  0  0
   37.6904   29.1374   52.3408 H   0  0  0  0  0  0  0  0  0  0  0  0
   39.8099   30.6703   45.6961 H   0  0  0  0  0  0  0  0  0  0  0  0
  1  6  2  0
  2  1  1  0
  2  3  2  0
  3  4  1  0
  4  5  2  0
  6  5  1  0
  7  8  2  0
  7  1  1  0
  9  7  1  0
 10  9  1  0
 11 10  2  0
 12 10  1  0
  2 13  1  0
  3 14  1  0
  5 15  1  0
 12 16  1  0
M  ISO  4  13  14  14  14  15  14  16   3
M  END
>  <minimizedAffinity>  (1) 
-4.20128012

>  <minimizedRMSD>  (1) 
4.96178865

$$$$
