
     RDKit          3D

 15 15  0  0  0  0  0  0  0  0999 V2000
   37.2630   31.2950   48.7680 C   0  0  0  0  0  0  0  0  0  0  0  0
   37.5030   32.4590   49.5090 C   0  0  0  0  0  0  0  0  0  0  0  0
   38.5150   33.3120   49.0260 C   0  0  0  0  0  0  0  0  0  0  0  0
   39.1970   32.9750   47.8900 N   0  0  0  0  0  0  0  0  0  0  0  0
   38.9220   31.8440   47.2240 C   0  0  0  0  0  0  0  0  0  0  0  0
   37.9610   31.0050   47.6560 N   0  0  0  0  0  0  0  0  0  0  0  0
   36.2240   30.3840   49.2340 C   0  0  0  0  0  0  0  0  0  0  0  0
   35.0140   30.5820   48.9160 O   0  0  0  0  0  0  0  0  0  0  0  0
   36.5650   29.2990   50.0280 O   0  0  0  0  0  0  0  0  0  0  0  0
   36.5360   29.4640   51.4070 C   0  0  0  0  0  0  0  0  0  0  0  0
   37.4570   30.0110   52.0680 O   0  0  0  0  0  0  0  0  0  0  0  0
   36.9320   32.6946   50.4192 H   0  0  0  0  0  0  0  0  0  0  0  0
   38.7549   34.2435   49.5597 H   0  0  0  0  0  0  0  0  0  0  0  0
   39.4883   31.5984   46.3135 H   0  0  0  0  0  0  0  0  0  0  0  0
   35.6559   29.0947   51.9538 H   0  0  0  0  0  0  0  0  0  0  0  0
  1  7  1  0
  1  2  2  0
  3  2  1  0
  4  3  2  0
  5  6  2  0
  5  4  1  0
  6  1  1  0
  7  9  1  0
  8  7  2  0
  9 10  1  0
 10 11  2  0
  2 12  1  0
  3 13  1  0
  5 14  1  0
 10 15  1  0
M  ISO  4  12  14  13  14  14  14  15   6
M  END
>  <minimizedAffinity>  (1) 
-3.80505419

>  <minimizedRMSD>  (1) 
1.92453086

$$$$
