
     RDKit          3D

 16 16  0  0  0  0  0  0  0  0999 V2000
   37.1310   31.2450   49.1470 C   0  0  0  0  0  0  0  0  0  0  0  0
   37.4290   32.5330   49.5840 C   0  0  0  0  0  0  0  0  0  0  0  0
   38.4280   33.2430   48.9050 C   0  0  0  0  0  0  0  0  0  0  0  0
   39.0490   32.6290   47.8520 N   0  0  0  0  0  0  0  0  0  0  0  0
   38.7300   31.3880   47.4640 C   0  0  0  0  0  0  0  0  0  0  0  0
   37.7670   30.6790   48.1060 N   0  0  0  0  0  0  0  0  0  0  0  0
   36.0860   30.5050   49.8600 C   0  0  0  0  0  0  0  0  0  0  0  0
   34.8770   30.7430   49.6290 O   0  0  0  0  0  0  0  0  0  0  0  0
   36.4470   29.5450   50.7880 O   0  0  0  0  0  0  0  0  0  0  0  0
   37.3230   29.8680   51.8540 C   0  0  0  0  0  0  0  0  0  0  0  0
   36.8963   32.9796   50.4365 H   0  0  0  0  0  0  0  0  0  0  0  0
   38.7046   34.2632   49.2094 H   0  0  0  0  0  0  0  0  0  0  0  0
   39.2570   30.9356   46.6110 H   0  0  0  0  0  0  0  0  0  0  0  0
   36.8177   29.6817   52.8131 H   0  0  0  0  0  0  0  0  0  0  0  0
   38.2264   29.2438   51.7882 H   0  0  0  0  0  0  0  0  0  0  0  0
   37.6049   30.9292   51.7882 H   0  0  0  0  0  0  0  0  0  0  0  0
  1  2  2  0
  1  7  1  0
  3  2  1  0
  4  3  2  0
  5  4  1  0
  5  6  2  0
  6  1  1  0
  7  9  1  0
  8  7  2  0
  9 10  1  0
  2 11  1  0
  3 12  1  0
  5 13  1  0
 10 14  1  0
 10 15  1  0
 10 16  1  0
M  ISO  6  11  14  12  14  13  14  14   8  15   8  16   8
M  END
>  <minimizedAffinity>  (1) 
-3.703336

>  <minimizedRMSD>  (1) 
1.63169277

$$$$
