
     RDKit          3D

 30 32  0  0  0  0  0  0  0  0999 V2000
   37.6870   32.0190   48.8650 C   0  0  0  0  0  0  0  0  0  0  0  0
   38.2060   33.1520   49.4720 C   0  0  0  0  0  0  0  0  0  0  0  0
   39.2030   33.8590   48.7730 C   0  0  0  0  0  0  0  0  0  0  0  0
   39.6030   33.4030   47.5530 N   0  0  0  0  0  0  0  0  0  0  0  0
   39.0640   32.2940   47.0090 C   0  0  0  0  0  0  0  0  0  0  0  0
   38.1070   31.5980   47.6570 N   0  0  0  0  0  0  0  0  0  0  0  0
   39.5600   31.9120   45.7300 N   0  0  0  0  0  0  0  0  0  0  0  0
   40.7140   31.2420   45.5460 C   0  0  0  0  0  0  0  0  0  0  0  0
   40.9270   31.0190   44.2340 N   0  0  0  0  0  0  0  0  0  0  0  0
   39.8950   31.5520   43.5470 C   0  0  0  0  0  0  0  0  0  0  0  0
   39.6270   31.5990   42.1960 C   0  0  0  0  0  0  0  0  0  0  0  0
   40.4030   31.0920   41.3500 O   0  0  0  0  0  0  0  0  0  0  0  0
   38.4880   32.2180   41.8320 N   0  0  0  0  0  0  0  0  0  0  0  0
   37.6640   32.7600   42.7750 C   0  0  0  0  0  0  0  0  0  0  0  0
   36.4960   33.3830   42.2530 N   0  0  0  0  0  0  0  0  0  0  0  0
   37.9240   32.7170   44.1090 N   0  0  0  0  0  0  0  0  0  0  0  0
   39.0570   32.1020   44.4960 C   0  0  0  0  0  0  0  0  0  0  0  0
   36.6600   31.2840   49.5740 C   0  0  0  0  0  0  0  0  0  0  0  0
   35.6610   30.8070   48.9670 O   0  0  0  0  0  0  0  0  0  0  0  0
   36.7540   31.0860   50.9440 O   0  0  0  0  0  0  0  0  0  0  0  0
   36.9610   29.7370   51.3720 C   0  0  0  0  0  0  0  0  0  0  0  0
   35.7640   29.0980   51.5960 F   0  0  0  0  0  0  0  0  0  0  0  0
   37.7260   29.7740   52.5380 F   0  0  0  0  0  0  0  0  0  0  0  0
   37.6770   29.0180   50.4330 F   0  0  0  0  0  0  0  0  0  0  0  0
   37.8534   33.4851   50.4593 H   0  0  0  0  0  0  0  0  0  0  0  0
   39.6520   34.7654   49.2052 H   0  0  0  0  0  0  0  0  0  0  0  0
   41.3884   30.9216   46.3538 H   0  0  0  0  0  0  0  0  0  0  0  0
   38.2370   32.2828   40.8352 H   0  0  0  0  0  0  0  0  0  0  0  0
   35.8159   33.8194   42.8917 H   0  0  0  0  0  0  0  0  0  0  0  0
   36.3306   33.3975   41.2365 H   0  0  0  0  0  0  0  0  0  0  0  0
  1  2  2  0
  1 18  1  0
  3  2  1  0
  4  3  2  0
  5  4  1  0
  5  6  2  0
  6  1  1  0
  7  5  1  0
  8  7  1  0
  9  8  2  0
 10  9  1  0
 10 17  2  0
 11 10  1  0
 12 11  2  0
 13 11  1  0
 13 14  1  0
 14 16  2  0
 15 14  1  0
 16 17  1  0
 17  7  1  0
 18 20  1  0
 19 18  2  0
 20 21  1  0
 21 22  1  0
 21 23  1  0
 24 21  1  0
  2 25  1  0
  3 26  1  0
  8 27  1  0
 13 28  1  0
 15 29  1  0
 15 30  1  0
M  ISO  4  25  14  26  14  27  14  28   9
M  END
>  <minimizedAffinity>  (1) 
-7.18486977

>  <minimizedRMSD>  (1) 
1.94134569

$$$$
