
     RDKit          3D

 26 27  0  0  0  0  0  0  0  0999 V2000
   37.6280   31.9330   48.6600 C   0  0  0  0  0  0  0  0  0  0  0  0
   38.3180   32.9110   49.3560 C   0  0  0  0  0  0  0  0  0  0  0  0
   39.3240   33.6280   48.6630 C   0  0  0  0  0  0  0  0  0  0  0  0
   39.5540   33.3190   47.3590 N   0  0  0  0  0  0  0  0  0  0  0  0
   38.8540   32.3590   46.7310 C   0  0  0  0  0  0  0  0  0  0  0  0
   37.8940   31.6650   47.3680 N   0  0  0  0  0  0  0  0  0  0  0  0
   39.1960   32.1370   45.3660 N   0  0  0  0  0  0  0  0  0  0  0  0
   38.2550   32.5990   44.4920 C   0  0  0  0  0  0  0  0  0  0  0  0
   38.5400   32.4060   43.1380 C   0  0  0  0  0  0  0  0  0  0  0  0
   39.6960   31.7900   42.7050 C   0  0  0  0  0  0  0  0  0  0  0  0
   39.9450   31.6220   41.4740 O   0  0  0  0  0  0  0  0  0  0  0  0
   40.5930   31.3540   43.6360 N   0  0  0  0  0  0  0  0  0  0  0  0
   40.3360   31.5310   44.9470 C   0  0  0  0  0  0  0  0  0  0  0  0
   41.1160   31.1530   45.8610 O   0  0  0  0  0  0  0  0  0  0  0  0
   36.6030   31.2040   49.3700 C   0  0  0  0  0  0  0  0  0  0  0  0
   35.6460   30.6560   48.7320 O   0  0  0  0  0  0  0  0  0  0  0  0
   36.6430   31.0880   50.7480 O   0  0  0  0  0  0  0  0  0  0  0  0
   36.8770   29.7790   51.2650 C   0  0  0  0  0  0  0  0  0  0  0  0
   35.6900   29.1080   51.4920 F   0  0  0  0  0  0  0  0  0  0  0  0
   37.5990   29.9350   52.4460 F   0  0  0  0  0  0  0  0  0  0  0  0
   37.6340   29.0310   50.3930 F   0  0  0  0  0  0  0  0  0  0  0  0
   38.0926   33.1240   50.4114 H   0  0  0  0  0  0  0  0  0  0  0  0
   39.9044   34.4148   49.1670 H   0  0  0  0  0  0  0  0  0  0  0  0
   37.3319   33.0915   44.8317 H   0  0  0  0  0  0  0  0  0  0  0  0
   37.8155   32.7584   42.3891 H   0  0  0  0  0  0  0  0  0  0  0  0
   41.4635   30.8912   43.3379 H   0  0  0  0  0  0  0  0  0  0  0  0
  1  2  2  0
  1 15  1  0
  3  2  1  0
  4  3  2  0
  5  4  1  0
  5  6  2  0
  6  1  1  0
  7  5  1  0
  8  7  1  0
  9  8  2  0
 10  9  1  0
 10 12  1  0
 11 10  2  0
 12 13  1  0
 13  7  1  0
 13 14  2  0
 15 17  1  0
 16 15  2  0
 17 18  1  0
 18 19  1  0
 18 20  1  0
 21 18  1  0
  2 22  1  0
  3 23  1  0
  8 24  1  0
  9 25  1  0
 12 26  1  0
M  ISO  5  22  14  23  14  24  14  25  14  26   9
M  END
>  <minimizedAffinity>  (1) 
-6.68313837

>  <minimizedRMSD>  (1) 
1.8561331

$$$$
