
     RDKit          3D

 30 32  0  0  0  0  0  0  0  0999 V2000
   37.6880   31.9380   48.8350 C   0  0  0  0  0  0  0  0  0  0  0  0
   38.1620   33.1540   49.3310 C   0  0  0  0  0  0  0  0  0  0  0  0
   39.1880   33.7870   48.5810 C   0  0  0  0  0  0  0  0  0  0  0  0
   39.6410   33.1950   47.4550 N   0  0  0  0  0  0  0  0  0  0  0  0
   39.1450   32.0160   47.0210 C   0  0  0  0  0  0  0  0  0  0  0  0
   38.1710   31.3970   47.7170 N   0  0  0  0  0  0  0  0  0  0  0  0
   39.6320   31.3650   45.7970 C   0  0  0  0  0  0  0  0  0  0  0  0
   40.9300   31.3050   45.3310 C   0  0  0  0  0  0  0  0  0  0  0  0
   40.9050   30.6180   44.1910 N   0  0  0  0  0  0  0  0  0  0  0  0
   39.6740   30.2180   43.8700 C   0  0  0  0  0  0  0  0  0  0  0  0
   39.1580   29.4890   42.8000 C   0  0  0  0  0  0  0  0  0  0  0  0
   37.8100   29.2110   42.7170 C   0  0  0  0  0  0  0  0  0  0  0  0
   36.9700   29.6720   43.7240 C   0  0  0  0  0  0  0  0  0  0  0  0
   37.4700   30.4050   44.8060 C   0  0  0  0  0  0  0  0  0  0  0  0
   38.8320   30.6810   44.8820 C   0  0  0  0  0  0  0  0  0  0  0  0
   36.6390   31.2730   49.5870 C   0  0  0  0  0  0  0  0  0  0  0  0
   35.6000   30.8660   49.0080 O   0  0  0  0  0  0  0  0  0  0  0  0
   36.7770   31.0840   50.9550 O   0  0  0  0  0  0  0  0  0  0  0  0
   36.9310   29.7460   51.3980 C   0  0  0  0  0  0  0  0  0  0  0  0
   35.7250   29.1380   51.6430 F   0  0  0  0  0  0  0  0  0  0  0  0
   37.7250   29.7710   52.5460 F   0  0  0  0  0  0  0  0  0  0  0  0
   37.6060   28.9920   50.4580 F   0  0  0  0  0  0  0  0  0  0  0  0
   37.7616   33.5982   50.2542 H   0  0  0  0  0  0  0  0  0  0  0  0
   39.6086   34.7476   48.9130 H   0  0  0  0  0  0  0  0  0  0  0  0
   41.8177   31.7424   45.8112 H   0  0  0  0  0  0  0  0  0  0  0  0
   41.7403   30.4184   43.6224 H   0  0  0  0  0  0  0  0  0  0  0  0
   39.8354   29.1305   42.0109 H   0  0  0  0  0  0  0  0  0  0  0  0
   37.4072   28.6356   41.8704 H   0  0  0  0  0  0  0  0  0  0  0  0
   35.8927   29.4567   43.6693 H   0  0  0  0  0  0  0  0  0  0  0  0
   36.7894   30.7616   45.5932 H   0  0  0  0  0  0  0  0  0  0  0  0
  1  2  2  0
  1 16  1  0
  3  2  1  0
  4  3  2  0
  5  4  1  0
  5  6  2  0
  6  1  1  0
  7  5  1  0
  8  7  2  0
  9  8  1  0
 10  9  1  0
 10 15  2  0
 11 10  1  0
 12 11  2  0
 12 13  1  0
 13 14  2  0
 14 15  1  0
 15  7  1  0
 16 18  1  0
 17 16  2  0
 18 19  1  0
 19 20  1  0
 19 21  1  0
 22 19  1  0
  2 23  1  0
  3 24  1  0
  8 25  1  0
  9 26  1  0
 11 27  1  0
 12 28  1  0
 13 29  1  0
 14 30  1  0
M  ISO  8  23  14  24  14  25  14  26   9  27  14  28  14  29  14  30  14
M  END
>  <minimizedAffinity>  (1) 
-6.61771154

>  <minimizedRMSD>  (1) 
1.33147752

$$$$
