
     RDKit          3D

 30 31  0  0  0  0  0  0  0  0999 V2000
   37.8140   32.1330   48.7630 C   0  0  0  0  0  0  0  0  0  0  0  0
   38.3260   33.1940   49.5240 C   0  0  0  0  0  0  0  0  0  0  0  0
   39.3490   33.9630   48.9110 C   0  0  0  0  0  0  0  0  0  0  0  0
   39.7690   33.6450   47.6660 N   0  0  0  0  0  0  0  0  0  0  0  0
   39.2360   32.6100   46.9870 C   0  0  0  0  0  0  0  0  0  0  0  0
   38.2590   31.8450   47.5200 N   0  0  0  0  0  0  0  0  0  0  0  0
   39.7130   32.3190   45.6800 N   0  0  0  0  0  0  0  0  0  0  0  0
   39.9120   33.3920   44.7240 C   0  0  0  0  0  0  0  0  0  0  0  0
   39.3100   32.9160   43.4200 C   0  0  0  0  0  0  0  0  0  0  0  0
   40.0460   31.7920   42.9420 N   0  0  0  0  0  0  0  0  0  0  0  0
   40.6390   30.9470   43.9190 C   0  0  0  0  0  0  0  0  0  0  0  0
   40.0080   30.9650   45.2770 C   0  0  0  0  0  0  0  0  0  0  0  0
   36.7660   31.3300   49.3660 C   0  0  0  0  0  0  0  0  0  0  0  0
   35.8920   30.7770   48.6410 O   0  0  0  0  0  0  0  0  0  0  0  0
   36.7220   31.1680   50.7380 O   0  0  0  0  0  0  0  0  0  0  0  0
   36.9820   29.8460   51.2210 C   0  0  0  0  0  0  0  0  0  0  0  0
   35.8180   29.1110   51.3400 F   0  0  0  0  0  0  0  0  0  0  0  0
   37.6100   29.9730   52.4500 F   0  0  0  0  0  0  0  0  0  0  0  0
   37.8340   29.1700   50.3750 F   0  0  0  0  0  0  0  0  0  0  0  0
   37.9565   33.4168   50.5359 H   0  0  0  0  0  0  0  0  0  0  0  0
   39.7977   34.8131   49.4458 H   0  0  0  0  0  0  0  0  0  0  0  0
   39.4049   34.3061   45.0664 H   0  0  0  0  0  0  0  0  0  0  0  0
   40.9794   33.6312   44.6079 H   0  0  0  0  0  0  0  0  0  0  0  0
   38.2617   32.6257   43.5839 H   0  0  0  0  0  0  0  0  0  0  0  0
   39.3529   33.7265   42.6775 H   0  0  0  0  0  0  0  0  0  0  0  0
   39.4030   31.2151   42.3811 H   0  0  0  0  0  0  0  0  0  0  0  0
   40.5948   29.9147   43.5417 H   0  0  0  0  0  0  0  0  0  0  0  0
   41.6592   31.3324   44.0625 H   0  0  0  0  0  0  0  0  0  0  0  0
   39.0744   30.3839   45.2500 H   0  0  0  0  0  0  0  0  0  0  0  0
   40.7090   30.5235   46.0006 H   0  0  0  0  0  0  0  0  0  0  0  0
  1 13  1  0
  1  2  2  0
  3  2  1  0
  4  3  2  0
  5  6  2  0
  5  4  1  0
  6  1  1  0
  7  5  1  0
  8  7  1  0
  9  8  1  0
 10  9  1  0
 10 11  1  0
 11 12  1  0
 12  7  1  0
 13 15  1  0
 14 13  2  0
 15 16  1  0
 16 17  1  0
 16 18  1  0
 19 16  1  0
  2 20  1  0
  3 21  1  0
  8 22  1  0
  8 23  1  0
  9 24  1  0
  9 25  1  0
 10 26  1  0
 11 27  1  0
 11 28  1  0
 12 29  1  0
 12 30  1  0
M  ISO  8  20  14  21  14  22  13  23  13  24  13  25  13  26   5  27  13
M  ISO  3  28  13  29  13  30  13
M  END
>  <minimizedAffinity>  (1) 
-6.39280272

>  <minimizedRMSD>  (1) 
1.94641888

$$$$
