
     RDKit          3D

 26 27  0  0  0  0  0  0  0  0999 V2000
   37.7910   32.1270   48.8250 C   0  0  0  0  0  0  0  0  0  0  0  0
   38.3370   33.1810   49.5450 C   0  0  0  0  0  0  0  0  0  0  0  0
   39.3360   33.9400   48.9110 C   0  0  0  0  0  0  0  0  0  0  0  0
   39.7180   33.6240   47.6560 N   0  0  0  0  0  0  0  0  0  0  0  0
   39.1610   32.5860   46.9820 C   0  0  0  0  0  0  0  0  0  0  0  0
   38.1930   31.8400   47.5800 N   0  0  0  0  0  0  0  0  0  0  0  0
   39.5370   32.2030   45.6240 C   0  0  0  0  0  0  0  0  0  0  0  0
   39.0270   32.9890   44.5880 C   0  0  0  0  0  0  0  0  0  0  0  0
   39.3350   32.6940   43.2570 C   0  0  0  0  0  0  0  0  0  0  0  0
   40.1650   31.5910   43.0300 C   0  0  0  0  0  0  0  0  0  0  0  0
   40.6660   30.8190   44.0480 C   0  0  0  0  0  0  0  0  0  0  0  0
   40.3520   31.1240   45.3410 C   0  0  0  0  0  0  0  0  0  0  0  0
   36.7570   31.3270   49.4570 C   0  0  0  0  0  0  0  0  0  0  0  0
   35.8440   30.7900   48.7520 O   0  0  0  0  0  0  0  0  0  0  0  0
   36.7660   31.1480   50.8160 O   0  0  0  0  0  0  0  0  0  0  0  0
   36.9800   29.8190   51.2800 C   0  0  0  0  0  0  0  0  0  0  0  0
   35.7910   29.1420   51.4450 F   0  0  0  0  0  0  0  0  0  0  0  0
   37.6970   29.8850   52.4770 F   0  0  0  0  0  0  0  0  0  0  0  0
   37.7630   29.1120   50.3930 F   0  0  0  0  0  0  0  0  0  0  0  0
   38.0024   33.4121   50.5671 H   0  0  0  0  0  0  0  0  0  0  0  0
   39.8036   34.7866   49.4349 H   0  0  0  0  0  0  0  0  0  0  0  0
   38.3784   33.8462   44.8214 H   0  0  0  0  0  0  0  0  0  0  0  0
   38.9433   33.3005   42.4271 H   0  0  0  0  0  0  0  0  0  0  0  0
   40.4267   31.3320   41.9935 H   0  0  0  0  0  0  0  0  0  0  0  0
   41.3160   29.9605   43.8236 H   0  0  0  0  0  0  0  0  0  0  0  0
   40.7496   30.5080   46.1611 H   0  0  0  0  0  0  0  0  0  0  0  0
  1 13  1  0
  1  2  2  0
  3  2  1  0
  4  3  2  0
  5  6  2  0
  5  4  1  0
  6  1  1  0
  7  5  1  0
  8  7  2  0
  9  8  1  0
 10  9  2  0
 10 11  1  0
 11 12  2  0
 12  7  1  0
 13 15  1  0
 14 13  2  0
 15 16  1  0
 16 17  1  0
 16 18  1  0
 19 16  1  0
  2 20  1  0
  3 21  1  0
  8 22  1  0
  9 23  1  0
 10 24  1  0
 11 25  1  0
 12 26  1  0
M  ISO  7  20  14  21  14  22  14  23  14  24  14  25  14  26  14
M  END
>  <minimizedAffinity>  (1) 
-6.18495655

>  <minimizedRMSD>  (1) 
1.89487815

$$$$
