
     RDKit          3D

 30 32  0  0  0  0  0  0  0  0999 V2000
   37.2870   31.5310   48.5000 C   0  0  0  0  0  0  0  0  0  0  0  0
   38.2740   32.4300   48.8340 C   0  0  0  0  0  0  0  0  0  0  0  0
   39.1140   32.8490   47.7880 C   0  0  0  0  0  0  0  0  0  0  0  0
   38.9270   32.3740   46.5500 N   0  0  0  0  0  0  0  0  0  0  0  0
   37.9610   31.4990   46.2410 C   0  0  0  0  0  0  0  0  0  0  0  0
   37.1730   31.1130   47.2510 N   0  0  0  0  0  0  0  0  0  0  0  0
   37.5790   30.8550   44.9630 C   0  0  0  0  0  0  0  0  0  0  0  0
   36.2950   30.5360   44.6550 N   0  0  0  0  0  0  0  0  0  0  0  0
   35.9500   29.9580   43.5070 C   0  0  0  0  0  0  0  0  0  0  0  0
   36.8640   29.6420   42.5550 N   0  0  0  0  0  0  0  0  0  0  0  0
   38.1660   29.9270   42.7860 C   0  0  0  0  0  0  0  0  0  0  0  0
   39.0880   29.6040   41.8160 C   0  0  0  0  0  0  0  0  0  0  0  0
   40.4250   29.8770   42.0080 C   0  0  0  0  0  0  0  0  0  0  0  0
   40.7750   30.4860   43.2200 C   0  0  0  0  0  0  0  0  0  0  0  0
   39.7970   30.7800   44.1440 C   0  0  0  0  0  0  0  0  0  0  0  0
   38.4730   30.5250   43.9860 C   0  0  0  0  0  0  0  0  0  0  0  0
   36.3840   31.0650   49.5390 C   0  0  0  0  0  0  0  0  0  0  0  0
   35.1900   30.7120   49.2500 O   0  0  0  0  0  0  0  0  0  0  0  0
   36.8210   31.0040   50.8460 O   0  0  0  0  0  0  0  0  0  0  0  0
   36.9090   29.7040   51.4100 C   0  0  0  0  0  0  0  0  0  0  0  0
   35.6720   29.2040   51.7630 F   0  0  0  0  0  0  0  0  0  0  0  0
   37.7630   29.7900   52.5140 F   0  0  0  0  0  0  0  0  0  0  0  0
   37.4810   28.8150   50.5170 F   0  0  0  0  0  0  0  0  0  0  0  0
   38.3985   32.8000   49.8624 H   0  0  0  0  0  0  0  0  0  0  0  0
   39.9241   33.5663   47.9860 H   0  0  0  0  0  0  0  0  0  0  0  0
   34.8898   29.7290   43.3239 H   0  0  0  0  0  0  0  0  0  0  0  0
   38.7557   29.1255   40.8829 H   0  0  0  0  0  0  0  0  0  0  0  0
   41.1799   29.6290   41.2473 H   0  0  0  0  0  0  0  0  0  0  0  0
   41.8266   30.7284   43.4328 H   0  0  0  0  0  0  0  0  0  0  0  0
   40.1131   31.2585   45.0827 H   0  0  0  0  0  0  0  0  0  0  0  0
  1  2  2  0
  1 17  1  0
  3  2  1  0
  4  3  2  0
  5  4  1  0
  5  6  2  0
  6  1  1  0
  7  5  1  0
  8  7  2  0
  9  8  1  0
 10 11  1  0
 10  9  2  0
 11 16  2  0
 12 13  2  0
 12 11  1  0
 13 14  1  0
 14 15  2  0
 16 15  1  0
 16  7  1  0
 17 19  1  0
 18 17  2  0
 19 20  1  0
 20 21  1  0
 20 22  1  0
 23 20  1  0
  2 24  1  0
  3 25  1  0
  9 26  1  0
 12 27  1  0
 13 28  1  0
 14 29  1  0
 15 30  1  0
M  ISO  7  24  14  25  14  26  14  27  14  28  14  29  14  30  14
M  END
>  <minimizedAffinity>  (1) 
-6.09495163

>  <minimizedRMSD>  (1) 
1.66527987

$$$$
