
     RDKit          3D

 23 24  0  0  0  0  0  0  0  0999 V2000
   37.7170   32.1120   48.8900 C   0  0  0  0  0  0  0  0  0  0  0  0
   38.2770   33.1410   49.6280 C   0  0  0  0  0  0  0  0  0  0  0  0
   39.2840   33.9080   48.9980 C   0  0  0  0  0  0  0  0  0  0  0  0
   39.6370   33.5980   47.7370 N   0  0  0  0  0  0  0  0  0  0  0  0
   39.0670   32.5820   47.0430 C   0  0  0  0  0  0  0  0  0  0  0  0
   38.1030   31.8380   47.6240 N   0  0  0  0  0  0  0  0  0  0  0  0
   39.5070   32.3120   45.6770 C   0  0  0  0  0  0  0  0  0  0  0  0
   40.3340   31.2030   45.4900 C   0  0  0  0  0  0  0  0  0  0  0  0
   40.6200   31.1510   44.1210 C   0  0  0  0  0  0  0  0  0  0  0  0
   39.9390   32.2420   43.5690 C   0  0  0  0  0  0  0  0  0  0  0  0
   39.3080   32.8880   44.5010 O   0  0  0  0  0  0  0  0  0  0  0  0
   36.6750   31.3070   49.5180 C   0  0  0  0  0  0  0  0  0  0  0  0
   35.7500   30.7910   48.8350 O   0  0  0  0  0  0  0  0  0  0  0  0
   36.6970   31.1040   50.8860 O   0  0  0  0  0  0  0  0  0  0  0  0
   36.9410   29.7670   51.3290 C   0  0  0  0  0  0  0  0  0  0  0  0
   35.7700   29.0800   51.5290 F   0  0  0  0  0  0  0  0  0  0  0  0
   37.6950   29.8290   52.4990 F   0  0  0  0  0  0  0  0  0  0  0  0
   37.6970   29.0720   50.4020 F   0  0  0  0  0  0  0  0  0  0  0  0
   37.9531   33.3522   50.6578 H   0  0  0  0  0  0  0  0  0  0  0  0
   39.7690   34.7411   49.5279 H   0  0  0  0  0  0  0  0  0  0  0  0
   40.6901   30.5081   46.2648 H   0  0  0  0  0  0  0  0  0  0  0  0
   41.2437   30.4138   43.5941 H   0  0  0  0  0  0  0  0  0  0  0  0
   39.9387   32.5120   42.5027 H   0  0  0  0  0  0  0  0  0  0  0  0
  1 12  1  0
  1  2  2  0
  3  2  1  0
  4  3  2  0
  5  6  2  0
  5  4  1  0
  6  1  1  0
  7  5  1  0
  8  7  2  0
  9  8  1  0
 10  9  2  0
 10 11  1  0
 11  7  1  0
 12 14  1  0
 13 12  2  0
 14 15  1  0
 15 16  1  0
 15 17  1  0
 18 15  1  0
  2 19  1  0
  3 20  1  0
  8 21  1  0
  9 22  1  0
 10 23  1  0
M  ISO  5  19  14  20  14  21  14  22  14  23  14
M  END
>  <minimizedAffinity>  (1) 
-5.88927603

>  <minimizedRMSD>  (1) 
1.79108381

$$$$
