
     RDKit          3D

 31 34  0  0  0  0  0  0  0  0999 V2000
   36.0480   30.3710   48.5930 C   0  0  0  0  0  0  0  0  0  0  0  0
   36.1850   29.2130   49.3490 C   0  0  0  0  0  0  0  0  0  0  0  0
   35.0790   28.4100   49.1330 C   0  0  0  0  0  0  0  0  0  0  0  0
   34.3030   29.0810   48.2630 N   0  0  0  0  0  0  0  0  0  0  0  0
   34.8680   30.2250   47.9490 N   0  0  0  0  0  0  0  0  0  0  0  0
   33.0570   28.5870   47.7800 C   0  0  0  0  0  0  0  0  0  0  0  0
   32.5770   27.4560   48.3720 N   0  0  0  0  0  0  0  0  0  0  0  0
   31.4130   26.9330   47.9700 C   0  0  0  0  0  0  0  0  0  0  0  0
   30.6620   27.4700   46.9910 N   0  0  0  0  0  0  0  0  0  0  0  0
   31.1050   28.5980   46.3770 C   0  0  0  0  0  0  0  0  0  0  0  0
   30.3670   29.1630   45.3840 C   0  0  0  0  0  0  0  0  0  0  0  0
   30.8460   30.3240   44.7670 C   0  0  0  0  0  0  0  0  0  0  0  0
   32.0560   30.8800   45.1730 C   0  0  0  0  0  0  0  0  0  0  0  0
   32.8050   30.2990   46.1890 C   0  0  0  0  0  0  0  0  0  0  0  0
   32.3020   29.1540   46.7740 C   0  0  0  0  0  0  0  0  0  0  0  0
   38.2050   33.2300   49.5210 C   0  0  0  0  0  0  0  0  0  0  0  0
   39.0850   33.2550   48.4210 C   0  0  0  0  0  0  0  0  0  0  0  0
   38.9100   32.3090   47.4210 C   0  0  0  0  0  0  0  0  0  0  0  0
   37.8920   31.4020   47.5550 N   0  0  0  0  0  0  0  0  0  0  0  0
   37.0660   31.4050   48.6220 C   0  0  0  0  0  0  0  0  0  0  0  0
   37.2060   32.3080   49.6120 N   0  0  0  0  0  0  0  0  0  0  0  0
   37.0318   28.9744   50.0093 H   0  0  0  0  0  0  0  0  0  0  0  0
   34.8762   27.4258   49.5805 H   0  0  0  0  0  0  0  0  0  0  0  0
   31.0521   26.0189   48.4642 H   0  0  0  0  0  0  0  0  0  0  0  0
   29.4117   28.7158   45.0719 H   0  0  0  0  0  0  0  0  0  0  0  0
   30.2663   30.7975   43.9609 H   0  0  0  0  0  0  0  0  0  0  0  0
   32.4246   31.7928   44.6822 H   0  0  0  0  0  0  0  0  0  0  0  0
   33.7613   30.7343   46.5145 H   0  0  0  0  0  0  0  0  0  0  0  0
   38.3272   33.9714   50.3243 H   0  0  0  0  0  0  0  0  0  0  0  0
   39.8884   34.0036   48.3567 H   0  0  0  0  0  0  0  0  0  0  0  0
   39.5720   32.2879   46.5428 H   0  0  0  0  0  0  0  0  0  0  0  0
  1 20  1  0
  1  2  1  0
  3  2  2  0
  4  3  1  0
  5  4  1  0
  5  1  2  0
  6  4  1  0
  6  7  2  0
  8  7  1  0
  9  8  2  0
 10 15  2  0
 10  9  1  0
 11 10  1  0
 12 13  1  0
 12 11  2  0
 13 14  2  0
 14 15  1  0
 15  6  1  0
 16 21  2  0
 17 16  1  0
 18 19  1  0
 18 17  2  0
 19 20  2  0
 20 21  1  0
  2 22  1  0
  3 23  1  0
  8 24  1  0
 11 25  1  0
 12 26  1  0
 13 27  1  0
 14 28  1  0
 16 29  1  0
 17 30  1  0
 18 31  1  0
M  ISO  8  22  14  23  14  24  14  25  14  26  14  27  14  28  14  29  14
M  ISO  2  30  14  31  14
M  END
>  <minimizedAffinity>  (1) 
-5.75443888

>  <minimizedRMSD>  (1) 
1.11935508

$$$$
