
     RDKit          3D

 21 22  0  0  0  0  0  0  0  0999 V2000
   37.6120   31.7870   48.7040 C   0  0  0  0  0  0  0  0  0  0  0  0
   38.1500   32.9600   49.2360 C   0  0  0  0  0  0  0  0  0  0  0  0
   39.1880   33.5590   48.4820 C   0  0  0  0  0  0  0  0  0  0  0  0
   39.5960   32.9820   47.3140 N   0  0  0  0  0  0  0  0  0  0  0  0
   39.0330   31.8530   46.8640 C   0  0  0  0  0  0  0  0  0  0  0  0
   38.0460   31.2460   47.5410 N   0  0  0  0  0  0  0  0  0  0  0  0
   39.5050   31.2750   45.6100 C   0  0  0  0  0  0  0  0  0  0  0  0
   39.0790   30.1380   45.0280 N   0  0  0  0  0  0  0  0  0  0  0  0
   39.7390   29.9400   43.9030 O   0  0  0  0  0  0  0  0  0  0  0  0
   40.5720   30.9300   43.7650 C   0  0  0  0  0  0  0  0  0  0  0  0
   40.4660   31.7890   44.8010 N   0  0  0  0  0  0  0  0  0  0  0  0
   36.5470   31.1460   49.4510 C   0  0  0  0  0  0  0  0  0  0  0  0
   35.5360   30.6700   48.8490 O   0  0  0  0  0  0  0  0  0  0  0  0
   36.6190   31.0460   50.8160 O   0  0  0  0  0  0  0  0  0  0  0  0
   36.8220   29.7340   51.3520 C   0  0  0  0  0  0  0  0  0  0  0  0
   35.6130   29.1100   51.6200 F   0  0  0  0  0  0  0  0  0  0  0  0
   37.5950   29.8640   52.5000 F   0  0  0  0  0  0  0  0  0  0  0  0
   37.5160   28.9370   50.4650 F   0  0  0  0  0  0  0  0  0  0  0  0
   37.7902   33.3919   50.1815 H   0  0  0  0  0  0  0  0  0  0  0  0
   39.6637   34.4855   48.8359 H   0  0  0  0  0  0  0  0  0  0  0  0
   41.2667   31.0504   42.9207 H   0  0  0  0  0  0  0  0  0  0  0  0
  1  2  2  0
  1 12  1  0
  3  2  1  0
  4  3  2  0
  5  4  1  0
  5  6  2  0
  6  1  1  0
  7  5  1  0
  8  7  2  0
  9  8  1  0
 10  9  1  0
 10 11  2  0
 11  7  1  0
 12 14  1  0
 13 12  2  0
 14 15  1  0
 15 16  1  0
 15 17  1  0
 18 15  1  0
  2 19  1  0
  3 20  1  0
 10 21  1  0
M  ISO  3  19  14  20  14  21  14
M  END
>  <minimizedAffinity>  (1) 
-5.6849103

>  <minimizedRMSD>  (1) 
1.05209625

$$$$
