
     RDKit          3D

 19 19  0  0  0  0  0  0  0  0999 V2000
   37.7640   31.9770   48.7510 C   0  0  0  0  0  0  0  0  0  0  0  0
   38.1730   33.1780   49.3220 C   0  0  0  0  0  0  0  0  0  0  0  0
   39.2280   33.8640   48.6700 C   0  0  0  0  0  0  0  0  0  0  0  0
   39.7690   33.3160   47.5460 N   0  0  0  0  0  0  0  0  0  0  0  0
   39.3340   32.1530   47.0380 C   0  0  0  0  0  0  0  0  0  0  0  0
   38.3350   31.4860   47.6390 N   0  0  0  0  0  0  0  0  0  0  0  0
   36.6830   31.2520   49.3980 C   0  0  0  0  0  0  0  0  0  0  0  0
   35.7480   30.7440   48.7160 O   0  0  0  0  0  0  0  0  0  0  0  0
   36.6800   31.1140   50.7820 O   0  0  0  0  0  0  0  0  0  0  0  0
   36.8980   29.7990   51.2780 C   0  0  0  0  0  0  0  0  0  0  0  0
   35.7260   29.1220   51.4730 F   0  0  0  0  0  0  0  0  0  0  0  0
   37.6190   29.9170   52.4600 F   0  0  0  0  0  0  0  0  0  0  0  0
   37.6740   29.0680   50.3980 F   0  0  0  0  0  0  0  0  0  0  0  0
   39.9460   31.6150   45.8360 C   0  0  0  0  0  0  0  0  0  0  0  0
   39.5070   31.9780   44.7000 O   0  0  0  0  0  0  0  0  0  0  0  0
   40.9970   30.7150   45.9010 O   0  0  0  0  0  0  0  0  0  0  0  0
   37.7015   33.5749   50.2331 H   0  0  0  0  0  0  0  0  0  0  0  0
   39.6028   34.8203   49.0638 H   0  0  0  0  0  0  0  0  0  0  0  0
   41.3984   30.3617   45.0678 H   0  0  0  0  0  0  0  0  0  0  0  0
  1  2  2  0
  1  7  1  0
  3  2  1  0
  4  3  2  0
  5  4  1  0
  5  6  2  0
  6  1  1  0
  7  9  1  0
  8  7  2  0
  9 10  1  0
 10 11  1  0
 10 12  1  0
 13 10  1  0
 14 16  1  0
 14  5  1  0
 15 14  2  0
  2 17  1  0
  3 18  1  0
 16 19  1  0
M  ISO  3  17  14  18  14  19   3
M  END
>  <minimizedAffinity>  (1) 
-5.51602888

>  <minimizedRMSD>  (1) 
1.24045217

$$$$
