
     RDKit          3D

 22 22  0  0  0  0  0  0  0  0999 V2000
   38.0910   32.3650   48.4740 C   0  0  0  0  0  0  0  0  0  0  0  0
   38.4650   33.3530   49.3820 C   0  0  0  0  0  0  0  0  0  0  0  0
   39.5100   34.2190   48.9840 C   0  0  0  0  0  0  0  0  0  0  0  0
   40.0790   34.0530   47.7800 N   0  0  0  0  0  0  0  0  0  0  0  0
   39.6840   33.0790   46.9300 C   0  0  0  0  0  0  0  0  0  0  0  0
   38.6880   32.2300   47.2720 N   0  0  0  0  0  0  0  0  0  0  0  0
   37.0150   31.4620   48.8660 C   0  0  0  0  0  0  0  0  0  0  0  0
   36.3690   30.8270   47.9950 O   0  0  0  0  0  0  0  0  0  0  0  0
   36.7040   31.3040   50.2070 O   0  0  0  0  0  0  0  0  0  0  0  0
   37.0800   30.0540   50.7950 C   0  0  0  0  0  0  0  0  0  0  0  0
   36.0740   29.1200   50.6910 F   0  0  0  0  0  0  0  0  0  0  0  0
   37.4010   30.3040   52.1330 F   0  0  0  0  0  0  0  0  0  0  0  0
   38.2040   29.5430   50.1920 F   0  0  0  0  0  0  0  0  0  0  0  0
   40.2520   32.8200   45.5850 C   0  0  0  0  0  0  0  0  0  0  0  0
   40.8390   31.4460   45.4420 C   0  0  0  0  0  0  0  0  0  0  0  0
   37.9720   33.4546   50.3601 H   0  0  0  0  0  0  0  0  0  0  0  0
   39.8529   35.0206   49.6547 H   0  0  0  0  0  0  0  0  0  0  0  0
   39.4514   32.9368   44.8397 H   0  0  0  0  0  0  0  0  0  0  0  0
   41.0691   33.5404   45.4326 H   0  0  0  0  0  0  0  0  0  0  0  0
   41.0212   31.0195   46.4394 H   0  0  0  0  0  0  0  0  0  0  0  0
   40.1371   30.8029   44.8909 H   0  0  0  0  0  0  0  0  0  0  0  0
   41.7889   31.5086   44.8909 H   0  0  0  0  0  0  0  0  0  0  0  0
  1  7  1  0
  1  2  2  0
  3  2  1  0
  4  3  2  0
  5  6  2  0
  5  4  1  0
  6  1  1  0
  7  9  1  0
  8  7  2  0
  9 10  1  0
 10 12  1  0
 11 10  1  0
 13 10  1  0
 14  5  1  0
 15 14  1  0
  2 16  1  0
  3 17  1  0
 14 18  1  0
 14 19  1  0
 15 20  1  0
 15 21  1  0
 15 22  1  0
M  ISO  7  16  14  17  14  18   8  19   8  20   8  21   8  22   8
M  END
>  <minimizedAffinity>  (1) 
-5.21991539

>  <minimizedRMSD>  (1) 
1.84478426

$$$$
