
     RDKit          3D

 17 17  0  0  0  0  0  0  0  0999 V2000
   37.5420   31.4410   48.4100 C   0  0  0  0  0  0  0  0  0  0  0  0
   38.2380   32.6010   48.7140 C   0  0  0  0  0  0  0  0  0  0  0  0
   39.2300   33.0120   47.7930 C   0  0  0  0  0  0  0  0  0  0  0  0
   39.4450   32.2600   46.6770 N   0  0  0  0  0  0  0  0  0  0  0  0
   38.7360   31.1320   46.4260 C   0  0  0  0  0  0  0  0  0  0  0  0
   37.7780   30.7230   47.3020 N   0  0  0  0  0  0  0  0  0  0  0  0
   36.5260   31.0100   49.3440 C   0  0  0  0  0  0  0  0  0  0  0  0
   35.3860   30.6270   48.9230 O   0  0  0  0  0  0  0  0  0  0  0  0
   36.7630   31.0050   50.7000 O   0  0  0  0  0  0  0  0  0  0  0  0
   36.8610   29.7350   51.3190 C   0  0  0  0  0  0  0  0  0  0  0  0
   35.6220   29.2450   51.6630 F   0  0  0  0  0  0  0  0  0  0  0  0
   37.6760   29.8860   52.4460 F   0  0  0  0  0  0  0  0  0  0  0  0
   37.4690   28.8180   50.4810 F   0  0  0  0  0  0  0  0  0  0  0  0
   39.1070   30.2290   44.9300 S   0  0  0  0  0  0  0  0  0  0  0  0
   38.0286   33.1750   49.6287 H   0  0  0  0  0  0  0  0  0  0  0  0
   39.8182   33.9236   47.9747 H   0  0  0  0  0  0  0  0  0  0  0  0
   39.6129   28.9976   45.2535 H   0  0  0  0  0  0  0  0  0  0  0  0
  1  2  2  0
  1  7  1  0
  3  2  1  0
  4  3  2  0
  5  4  1  0
  5  6  2  0
  6  1  1  0
  7  9  1  0
  8  7  2  0
  9 10  1  0
 10 11  1  0
 10 12  1  0
 13 10  1  0
 14  5  1  0
  2 15  1  0
  3 16  1  0
 14 17  1  0
M  ISO  3  15  14  16  14  17  11
M  END
>  <minimizedAffinity>  (1) 
-4.98546505

>  <minimizedRMSD>  (1) 
0.191438317

$$$$
