
     RDKit          3D

 18 18  0  0  0  0  0  0  0  0999 V2000
   37.6180   31.5750   48.5110 C   0  0  0  0  0  0  0  0  0  0  0  0
   38.1650   32.7950   48.8700 C   0  0  0  0  0  0  0  0  0  0  0  0
   39.1970   33.3110   48.0660 C   0  0  0  0  0  0  0  0  0  0  0  0
   39.5990   32.5860   46.9870 N   0  0  0  0  0  0  0  0  0  0  0  0
   39.0480   31.4050   46.6670 C   0  0  0  0  0  0  0  0  0  0  0  0
   38.0590   30.8980   47.4270 N   0  0  0  0  0  0  0  0  0  0  0  0
   39.5610   30.7170   45.4860 C   0  0  0  0  0  0  0  0  0  0  0  0
   40.6470   31.1190   45.0030 O   0  0  0  0  0  0  0  0  0  0  0  0
   36.5530   31.0270   49.3280 C   0  0  0  0  0  0  0  0  0  0  0  0
   35.5080   30.5560   48.8030 O   0  0  0  0  0  0  0  0  0  0  0  0
   36.6830   31.0190   50.7070 O   0  0  0  0  0  0  0  0  0  0  0  0
   36.8190   29.7330   51.3120 C   0  0  0  0  0  0  0  0  0  0  0  0
   35.5910   29.1860   51.6240 F   0  0  0  0  0  0  0  0  0  0  0  0
   37.5970   29.8970   52.4630 F   0  0  0  0  0  0  0  0  0  0  0  0
   37.4800   28.8600   50.4870 F   0  0  0  0  0  0  0  0  0  0  0  0
   37.8048   33.3420   49.7538 H   0  0  0  0  0  0  0  0  0  0  0  0
   39.6675   34.2765   48.3035 H   0  0  0  0  0  0  0  0  0  0  0  0
   39.0145   29.8755   45.0353 H   0  0  0  0  0  0  0  0  0  0  0  0
  1  2  2  0
  1  9  1  0
  3  2  1  0
  4  3  2  0
  5  4  1  0
  5  6  2  0
  6  1  1  0
  7  5  1  0
  8  7  2  0
  9 11  1  0
 10  9  2  0
 11 12  1  0
 12 13  1  0
 12 14  1  0
 15 12  1  0
  2 16  1  0
  3 17  1  0
  7 18  1  0
M  ISO  3  16  14  17  14  18   6
M  END
>  <minimizedAffinity>  (1) 
-4.96955252

>  <minimizedRMSD>  (1) 
0.506599903

$$$$
