
     RDKit          3D

 26 26  0  0  0  0  0  0  0  0999 V2000
   37.2650   31.4910   48.4810 C   0  0  0  0  0  0  0  0  0  0  0  0
   37.9250   32.5500   49.0700 C   0  0  0  0  0  0  0  0  0  0  0  0
   38.9630   33.1470   48.3210 C   0  0  0  0  0  0  0  0  0  0  0  0
   39.2600   32.6730   47.0870 N   0  0  0  0  0  0  0  0  0  0  0  0
   38.5840   31.6330   46.5540 C   0  0  0  0  0  0  0  0  0  0  0  0
   37.6000   31.0600   47.2560 N   0  0  0  0  0  0  0  0  0  0  0  0
   38.9130   31.1490   45.2560 N   0  0  0  0  0  0  0  0  0  0  0  0
   40.2760   30.9780   44.9160 C   0  0  0  0  0  0  0  0  0  0  0  0
   41.1810   30.8140   45.8480 N   0  0  0  0  0  0  0  0  0  0  0  0
   40.6090   30.9950   43.5160 N   0  0  0  0  0  0  0  0  0  0  0  0
   42.1820   30.6750   45.5890 H   0  0  0  0  0  0  0  0  0  0  0  0
   39.7360   34.2940   48.8640 C   0  0  0  0  0  0  0  0  0  0  0  0
   40.8850   34.5610   48.1310 F   0  0  0  0  0  0  0  0  0  0  0  0
   38.9840   35.4570   48.8690 F   0  0  0  0  0  0  0  0  0  0  0  0
   40.1180   34.0830   50.1760 F   0  0  0  0  0  0  0  0  0  0  0  0
   36.1920   30.8470   49.2170 C   0  0  0  0  0  0  0  0  0  0  0  0
   35.2540   30.2530   48.6010 O   0  0  0  0  0  0  0  0  0  0  0  0
   36.1890   30.8800   50.6030 O   0  0  0  0  0  0  0  0  0  0  0  0
   36.5580   29.6640   51.2590 C   0  0  0  0  0  0  0  0  0  0  0  0
   35.4380   28.9630   51.6620 F   0  0  0  0  0  0  0  0  0  0  0  0
   37.3630   29.9780   52.3310 F   0  0  0  0  0  0  0  0  0  0  0  0
   37.2810   28.8530   50.4220 F   0  0  0  0  0  0  0  0  0  0  0  0
   37.6560   32.9115   50.0735 H   0  0  0  0  0  0  0  0  0  0  0  0
   38.1717   30.9272   44.5762 H   0  0  0  0  0  0  0  0  0  0  0  0
   41.5875   30.8746   43.2179 H   0  0  0  0  0  0  0  0  0  0  0  0
   39.8688   31.1275   42.8121 H   0  0  0  0  0  0  0  0  0  0  0  0
  1  2  2  0
  1 16  1  0
  3 12  1  0
  3  2  1  0
  4  3  2  0
  5  4  1  0
  5  6  2  0
  6  1  1  0
  7  5  1  0
  8  7  1  0
  8  9  2  0
 10  8  1  0
 11  9  1  0
 12 14  1  0
 12 15  1  0
 13 12  1  0
 16 18  1  0
 17 16  2  0
 18 19  1  0
 19 20  1  0
 19 21  1  0
 22 19  1  0
  2 23  1  0
  7 24  1  0
 10 25  1  0
 10 26  1  0
M  ISO  1  23  14
M  END
>  <minimizedAffinity>  (1) 
-6.74812937

>  <minimizedRMSD>  (1) 
0.454117447

$$$$
