
     RDKit          3D

 24 24  0  0  0  0  0  0  0  0999 V2000
   37.5600   31.6410   48.5350 C   0  0  0  0  0  0  0  0  0  0  0  0
   38.1840   32.8230   48.9290 C   0  0  0  0  0  0  0  0  0  0  0  0
   39.1640   33.3590   48.0480 C   0  0  0  0  0  0  0  0  0  0  0  0
   39.4290   32.6900   46.8880 N   0  0  0  0  0  0  0  0  0  0  0  0
   38.7900   31.5460   46.5600 C   0  0  0  0  0  0  0  0  0  0  0  0
   37.8670   31.0310   47.3770 N   0  0  0  0  0  0  0  0  0  0  0  0
   39.1110   30.8940   45.3330 N   0  0  0  0  0  0  0  0  0  0  0  0
   40.4700   30.7350   44.9630 C   0  0  0  0  0  0  0  0  0  0  0  0
   41.4080   30.7640   45.8640 N   0  0  0  0  0  0  0  0  0  0  0  0
   40.7450   30.5440   43.5610 N   0  0  0  0  0  0  0  0  0  0  0  0
   42.4090   30.6420   45.5810 H   0  0  0  0  0  0  0  0  0  0  0  0
   36.5600   31.0750   49.4130 C   0  0  0  0  0  0  0  0  0  0  0  0
   35.4760   30.6160   48.9510 O   0  0  0  0  0  0  0  0  0  0  0  0
   36.7850   31.0300   50.7890 O   0  0  0  0  0  0  0  0  0  0  0  0
   36.9040   29.7280   51.3680 C   0  0  0  0  0  0  0  0  0  0  0  0
   35.6720   29.2190   51.6940 F   0  0  0  0  0  0  0  0  0  0  0  0
   37.7140   29.8280   52.4900 F   0  0  0  0  0  0  0  0  0  0  0  0
   37.5100   28.8540   50.5000 F   0  0  0  0  0  0  0  0  0  0  0  0
   39.7900   34.5180   48.4140 O   0  0  0  0  0  0  0  0  0  0  0  0
   37.9305   33.3188   49.8776 H   0  0  0  0  0  0  0  0  0  0  0  0
   38.3615   30.5415   44.7207 H   0  0  0  0  0  0  0  0  0  0  0  0
   41.7157   30.4234   43.2383 H   0  0  0  0  0  0  0  0  0  0  0  0
   39.9708   30.5281   42.8818 H   0  0  0  0  0  0  0  0  0  0  0  0
   40.4769   34.9174   47.8234 H   0  0  0  0  0  0  0  0  0  0  0  0
  1  2  2  0
  1 12  1  0
  3 19  1  0
  3  2  1  0
  4  3  2  0
  5  4  1  0
  5  6  2  0
  6  1  1  0
  7  5  1  0
  8  7  1  0
  8  9  2  0
 10  8  1  0
 11  9  1  0
 12 14  1  0
 13 12  2  0
 14 15  1  0
 15 16  1  0
 15 17  1  0
 18 15  1  0
  2 20  1  0
  7 21  1  0
 10 22  1  0
 10 23  1  0
 19 24  1  0
M  ISO  2  20  14  24   3
M  END
>  <minimizedAffinity>  (1) 
-6.61299992

>  <minimizedRMSD>  (1) 
0.0606690198

$$$$
