
     RDKit          3D

 33 36  0  0  0  0  0  0  0  0999 V2000
   35.6400   29.8210   48.5840 C   0  0  0  0  0  0  0  0  0  0  0  0
   35.5670   28.8500   49.5690 C   0  0  0  0  0  0  0  0  0  0  0  0
   34.5640   27.9590   49.2710 C   0  0  0  0  0  0  0  0  0  0  0  0
   34.0360   28.4040   48.1010 N   0  0  0  0  0  0  0  0  0  0  0  0
   34.6620   29.4800   47.7090 N   0  0  0  0  0  0  0  0  0  0  0  0
   32.9590   27.7540   47.4400 C   0  0  0  0  0  0  0  0  0  0  0  0
   33.2610   27.2970   46.1770 C   0  0  0  0  0  0  0  0  0  0  0  0
   32.2990   26.6480   45.4300 C   0  0  0  0  0  0  0  0  0  0  0  0
   31.0180   26.4490   45.9420 C   0  0  0  0  0  0  0  0  0  0  0  0
   30.7230   26.9100   47.2050 C   0  0  0  0  0  0  0  0  0  0  0  0
   29.4750   26.7530   47.7860 C   0  0  0  0  0  0  0  0  0  0  0  0
   29.1660   27.2120   49.0600 C   0  0  0  0  0  0  0  0  0  0  0  0
   30.1930   27.8560   49.7450 C   0  0  0  0  0  0  0  0  0  0  0  0
   31.4460   28.0300   49.1960 C   0  0  0  0  0  0  0  0  0  0  0  0
   31.6910   27.5570   47.9440 C   0  0  0  0  0  0  0  0  0  0  0  0
   37.6710   32.7360   49.6120 C   0  0  0  0  0  0  0  0  0  0  0  0
   38.5380   32.8400   48.5070 C   0  0  0  0  0  0  0  0  0  0  0  0
   38.4000   31.9260   47.4690 C   0  0  0  0  0  0  0  0  0  0  0  0
   37.4270   30.9690   47.5710 N   0  0  0  0  0  0  0  0  0  0  0  0
   36.6140   30.8960   48.6400 C   0  0  0  0  0  0  0  0  0  0  0  0
   36.7360   31.7690   49.6470 N   0  0  0  0  0  0  0  0  0  0  0  0
   36.2147   28.7996   50.4567 H   0  0  0  0  0  0  0  0  0  0  0  0
   34.2559   27.0778   49.8529 H   0  0  0  0  0  0  0  0  0  0  0  0
   34.2688   27.4491   45.7633 H   0  0  0  0  0  0  0  0  0  0  0  0
   32.5454   26.2845   44.4215 H   0  0  0  0  0  0  0  0  0  0  0  0
   30.2533   25.9306   45.3449 H   0  0  0  0  0  0  0  0  0  0  0  0
   28.6907   26.2398   47.2102 H   0  0  0  0  0  0  0  0  0  0  0  0
   28.1681   27.0747   49.5020 H   0  0  0  0  0  0  0  0  0  0  0  0
   29.9984   28.2387   50.7578 H   0  0  0  0  0  0  0  0  0  0  0  0
   32.2365   28.5441   49.7624 H   0  0  0  0  0  0  0  0  0  0  0  0
   37.7583   33.4462   50.4475 H   0  0  0  0  0  0  0  0  0  0  0  0
   39.3063   33.6261   48.4664 H   0  0  0  0  0  0  0  0  0  0  0  0
   39.0565   31.9707   46.5875 H   0  0  0  0  0  0  0  0  0  0  0  0
  1 20  1  0
  1  2  1  0
  3  2  2  0
  4  3  1  0
  5  4  1  0
  5  1  2  0
  6 15  1  0
  6  4  1  0
  7  6  2  0
  8  9  2  0
  8  7  1  0
  9 10  1  0
 10 11  1  0
 10 15  2  0
 11 12  2  0
 12 13  1  0
 14 13  2  0
 15 14  1  0
 16 21  2  0
 17 16  1  0
 18 19  1  0
 18 17  2  0
 19 20  2  0
 20 21  1  0
  2 22  1  0
  3 23  1  0
  7 24  1  0
  8 25  1  0
  9 26  1  0
 11 27  1  0
 12 28  1  0
 13 29  1  0
 14 30  1  0
 16 31  1  0
 17 32  1  0
 18 33  1  0
M  ISO  8  22  14  23  14  24  14  25  14  26  14  27  14  28  14  29  14
M  ISO  4  30  14  31  14  32  14  33  14
M  END
>  <minimizedAffinity>  (1) 
-5.52947235

>  <minimizedRMSD>  (1) 
1.84058988

$$$$
