
     RDKit          3D

 26 26  0  0  0  0  0  0  0  0999 V2000
   37.5220   31.6110   48.5460 C   0  0  0  0  0  0  0  0  0  0  0  0
   38.1660   32.7560   48.9880 C   0  0  0  0  0  0  0  0  0  0  0  0
   39.1550   33.2990   48.1470 C   0  0  0  0  0  0  0  0  0  0  0  0
   39.4230   32.6770   46.9580 N   0  0  0  0  0  0  0  0  0  0  0  0
   38.7720   31.5770   46.5820 C   0  0  0  0  0  0  0  0  0  0  0  0
   37.8200   31.0380   47.3700 N   0  0  0  0  0  0  0  0  0  0  0  0
   39.0880   30.9600   45.3230 N   0  0  0  0  0  0  0  0  0  0  0  0
   40.4530   30.7840   44.9720 C   0  0  0  0  0  0  0  0  0  0  0  0
   41.3910   30.7550   45.9000 N   0  0  0  0  0  0  0  0  0  0  0  0
   40.7300   30.6420   43.5620 N   0  0  0  0  0  0  0  0  0  0  0  0
   42.3760   30.6360   45.5940 H   0  0  0  0  0  0  0  0  0  0  0  0
   36.4990   31.0260   49.3850 C   0  0  0  0  0  0  0  0  0  0  0  0
   35.4470   30.5380   48.8850 O   0  0  0  0  0  0  0  0  0  0  0  0
   36.6650   30.9930   50.7720 O   0  0  0  0  0  0  0  0  0  0  0  0
   36.8320   29.7140   51.3630 C   0  0  0  0  0  0  0  0  0  0  0  0
   35.6150   29.1440   51.6820 F   0  0  0  0  0  0  0  0  0  0  0  0
   37.6440   29.8490   52.4810 F   0  0  0  0  0  0  0  0  0  0  0  0
   37.4820   28.8540   50.5000 F   0  0  0  0  0  0  0  0  0  0  0  0
   39.9050   34.5200   48.5230 C   0  0  0  0  0  0  0  0  0  0  0  0
   37.9151   33.2197   49.9534 H   0  0  0  0  0  0  0  0  0  0  0  0
   38.3387   30.6513   44.6872 H   0  0  0  0  0  0  0  0  0  0  0  0
   41.6990   30.5111   43.2381 H   0  0  0  0  0  0  0  0  0  0  0  0
   39.9586   30.6716   42.8801 H   0  0  0  0  0  0  0  0  0  0  0  0
   39.9529   34.5979   49.6192 H   0  0  0  0  0  0  0  0  0  0  0  0
   40.9248   34.4643   48.1145 H   0  0  0  0  0  0  0  0  0  0  0  0
   39.3942   35.4044   48.1145 H   0  0  0  0  0  0  0  0  0  0  0  0
  1  2  2  0
  1 12  1  0
  3 19  1  0
  3  2  1  0
  4  3  2  0
  5  4  1  0
  5  6  2  0
  6  1  1  0
  7  5  1  0
  8  7  1  0
  8  9  2  0
 10  8  1  0
 11  9  1  0
 12 14  1  0
 13 12  2  0
 14 15  1  0
 15 16  1  0
 15 17  1  0
 18 15  1  0
  2 20  1  0
  7 21  1  0
 10 22  1  0
 10 23  1  0
 19 24  1  0
 19 25  1  0
 19 26  1  0
M  ISO  4  20  14  24   8  25   8  26   8
M  END
>  <minimizedAffinity>  (1) 
-6.34259701

>  <minimizedRMSD>  (1) 
0.0796043277

$$$$
