
     RDKit          3D

 36 37  0  0  0  0  0  0  0  0999 V2000
   35.9130   30.3750   47.9890 C   0  0  0  0  0  0  0  0  0  0  0  0
   37.1980   30.7400   47.5770 C   0  0  0  0  0  0  0  0  0  0  0  0
   37.4210   30.8120   46.1880 C   0  0  0  0  0  0  0  0  0  0  0  0
   36.4060   30.5300   45.3370 N   0  0  0  0  0  0  0  0  0  0  0  0
   35.1850   30.1840   45.7810 C   0  0  0  0  0  0  0  0  0  0  0  0
   34.9370   30.1060   47.1060 N   0  0  0  0  0  0  0  0  0  0  0  0
   34.1330   29.8930   44.8590 N   0  0  0  0  0  0  0  0  0  0  0  0
   34.4190   29.0570   43.7420 C   0  0  0  0  0  0  0  0  0  0  0  0
   35.4280   28.2140   43.7730 N   0  0  0  0  0  0  0  0  0  0  0  0
   33.5490   29.1980   42.6060 N   0  0  0  0  0  0  0  0  0  0  0  0
   35.6180   27.6210   42.9390 H   0  0  0  0  0  0  0  0  0  0  0  0
   38.7070   31.1780   45.6990 N   0  0  0  0  0  0  0  0  0  0  0  0
   39.2350   32.4760   46.0720 C   0  0  0  0  0  0  0  0  0  0  0  0
   40.5410   32.7540   45.3730 C   0  0  0  0  0  0  0  0  0  0  0  0
   40.4240   32.3260   44.0680 O   0  0  0  0  0  0  0  0  0  0  0  0
   40.3930   30.9440   43.9250 C   0  0  0  0  0  0  0  0  0  0  0  0
   39.4330   30.2770   44.8690 C   0  0  0  0  0  0  0  0  0  0  0  0
   35.6630   30.2960   49.4100 C   0  0  0  0  0  0  0  0  0  0  0  0
   34.7310   29.5530   49.8430 O   0  0  0  0  0  0  0  0  0  0  0  0
   36.4260   31.0200   50.3060 O   0  0  0  0  0  0  0  0  0  0  0  0
   37.4610   30.3190   50.9730 C   0  0  0  0  0  0  0  0  0  0  0  0
   37.1960   30.1660   52.3130 F   0  0  0  0  0  0  0  0  0  0  0  0
   38.6470   31.0070   50.7720 F   0  0  0  0  0  0  0  0  0  0  0  0
   37.6160   29.0600   50.4430 F   0  0  0  0  0  0  0  0  0  0  0  0
   37.9957   30.9601   48.3017 H   0  0  0  0  0  0  0  0  0  0  0  0
   33.1885   30.2793   44.9991 H   0  0  0  0  0  0  0  0  0  0  0  0
   32.7722   29.8738   42.6330 H   0  0  0  0  0  0  0  0  0  0  0  0
   33.7026   28.6232   41.7652 H   0  0  0  0  0  0  0  0  0  0  0  0
   38.5071   33.2527   45.7947 H   0  0  0  0  0  0  0  0  0  0  0  0
   39.4127   32.4811   47.1575 H   0  0  0  0  0  0  0  0  0  0  0  0
   40.7539   33.8330   45.3945 H   0  0  0  0  0  0  0  0  0  0  0  0
   41.3643   32.2261   45.8764 H   0  0  0  0  0  0  0  0  0  0  0  0
   40.0936   30.7050   42.8939 H   0  0  0  0  0  0  0  0  0  0  0  0
   41.3995   30.5666   44.1585 H   0  0  0  0  0  0  0  0  0  0  0  0
   38.7109   29.6983   44.2743 H   0  0  0  0  0  0  0  0  0  0  0  0
   40.0363   29.6472   45.5394 H   0  0  0  0  0  0  0  0  0  0  0  0
  1 18  1  0
  2  1  2  0
  3  2  1  0
  4  5  1  0
  4  3  2  0
  5  6  2  0
  6  1  1  0
  7  5  1  0
  8  9  2  0
  8  7  1  0
 10  8  1  0
 11  9  1  0
 12 13  1  0
 12  3  1  0
 14 13  1  0
 15 14  1  0
 16 15  1  0
 16 17  1  0
 17 12  1  0
 18 19  2  0
 18 20  1  0
 20 21  1  0
 21 22  1  0
 23 21  1  0
 24 21  1  0
  2 25  1  0
  7 26  1  0
 10 27  1  0
 10 28  1  0
 13 29  1  0
 13 30  1  0
 14 31  1  0
 14 32  1  0
 16 33  1  0
 16 34  1  0
 17 35  1  0
 17 36  1  0
M  ISO  8  25  14  29  13  30  13  31  13  32  13  33  13  34  13  35  13
M  ISO  1  36  13
M  END
>  <minimizedAffinity>  (1) 
-6.27842379

>  <minimizedRMSD>  (1) 
4.3635807

$$$$
