
     RDKit          3D

 30 31  0  0  0  0  0  0  0  0999 V2000
   36.0550   30.3780   47.9080 C   0  0  0  0  0  0  0  0  0  0  0  0
   37.3140   30.8070   47.5030 C   0  0  0  0  0  0  0  0  0  0  0  0
   37.5340   30.9090   46.1120 C   0  0  0  0  0  0  0  0  0  0  0  0
   36.5220   30.5890   45.2520 N   0  0  0  0  0  0  0  0  0  0  0  0
   35.3280   30.1810   45.6920 C   0  0  0  0  0  0  0  0  0  0  0  0
   35.0920   30.0750   47.0120 N   0  0  0  0  0  0  0  0  0  0  0  0
   34.3050   29.8590   44.7600 N   0  0  0  0  0  0  0  0  0  0  0  0
   34.6120   29.0580   43.6320 C   0  0  0  0  0  0  0  0  0  0  0  0
   35.6560   28.2540   43.6520 N   0  0  0  0  0  0  0  0  0  0  0  0
   33.7480   29.1650   42.4980 N   0  0  0  0  0  0  0  0  0  0  0  0
   35.8800   27.6780   42.8110 H   0  0  0  0  0  0  0  0  0  0  0  0
   38.8130   31.3450   45.6790 N   0  0  0  0  0  0  0  0  0  0  0  0
   39.5890   30.6970   44.8300 N   0  0  0  0  0  0  0  0  0  0  0  0
   40.7440   31.3840   44.6270 C   0  0  0  0  0  0  0  0  0  0  0  0
   40.6670   32.5380   45.4110 C   0  0  0  0  0  0  0  0  0  0  0  0
   39.4380   32.4860   46.0640 C   0  0  0  0  0  0  0  0  0  0  0  0
   35.7990   30.2630   49.3310 C   0  0  0  0  0  0  0  0  0  0  0  0
   34.9310   29.4510   49.7520 O   0  0  0  0  0  0  0  0  0  0  0  0
   36.5000   31.0380   50.2290 O   0  0  0  0  0  0  0  0  0  0  0  0
   37.5900   30.4060   50.8990 C   0  0  0  0  0  0  0  0  0  0  0  0
   37.3260   30.2660   52.2570 F   0  0  0  0  0  0  0  0  0  0  0  0
   38.7410   31.1400   50.6760 F   0  0  0  0  0  0  0  0  0  0  0  0
   37.8170   29.1470   50.3900 F   0  0  0  0  0  0  0  0  0  0  0  0
   38.1005   31.0549   48.2309 H   0  0  0  0  0  0  0  0  0  0  0  0
   33.3458   30.2058   44.9034 H   0  0  0  0  0  0  0  0  0  0  0  0
   32.9421   29.8059   42.5232 H   0  0  0  0  0  0  0  0  0  0  0  0
   33.9314   28.6011   41.6558 H   0  0  0  0  0  0  0  0  0  0  0  0
   41.5775   31.0889   43.9726 H   0  0  0  0  0  0  0  0  0  0  0  0
   41.4259   33.3298   45.4956 H   0  0  0  0  0  0  0  0  0  0  0  0
   39.0445   33.2357   46.7662 H   0  0  0  0  0  0  0  0  0  0  0  0
  1 17  1  0
  2  1  2  0
  3  2  1  0
  4  5  1  0
  4  3  2  0
  5  6  2  0
  6  1  1  0
  7  5  1  0
  8  9  2  0
  8  7  1  0
 10  8  1  0
 11  9  1  0
 12 16  1  0
 12  3  1  0
 13 12  1  0
 14 13  2  0
 14 15  1  0
 15 16  2  0
 17 18  2  0
 17 19  1  0
 19 20  1  0
 20 21  1  0
 22 20  1  0
 23 20  1  0
  2 24  1  0
  7 25  1  0
 10 26  1  0
 10 27  1  0
 14 28  1  0
 15 29  1  0
 16 30  1  0
M  ISO  4  24  14  28  14  29  14  30  14
M  END
>  <minimizedAffinity>  (1) 
-6.14186525

>  <minimizedRMSD>  (1) 
4.16957378

$$$$
