
     RDKit          3D

 32 32  0  0  0  0  0  0  0  0999 V2000
   37.0490   31.0670   48.1460 C   0  0  0  0  0  0  0  0  0  0  0  0
   37.5840   32.1810   48.7810 C   0  0  0  0  0  0  0  0  0  0  0  0
   38.5990   32.8830   48.0960 C   0  0  0  0  0  0  0  0  0  0  0  0
   38.9930   32.4350   46.8670 N   0  0  0  0  0  0  0  0  0  0  0  0
   38.4360   31.3490   46.3050 C   0  0  0  0  0  0  0  0  0  0  0  0
   37.4660   30.6690   46.9450 N   0  0  0  0  0  0  0  0  0  0  0  0
   38.8790   30.9220   45.0220 N   0  0  0  0  0  0  0  0  0  0  0  0
   40.2790   30.8570   44.7590 C   0  0  0  0  0  0  0  0  0  0  0  0
   41.1410   30.7490   45.7360 N   0  0  0  0  0  0  0  0  0  0  0  0
   40.6790   30.9180   43.3770 N   0  0  0  0  0  0  0  0  0  0  0  0
   42.1570   30.6870   45.5120 H   0  0  0  0  0  0  0  0  0  0  0  0
   39.2310   34.0850   48.6960 C   0  0  0  0  0  0  0  0  0  0  0  0
   39.5210   33.7580   50.1570 C   0  0  0  0  0  0  0  0  0  0  0  0
   40.4730   34.5330   47.9930 C   0  0  0  0  0  0  0  0  0  0  0  0
   35.9980   30.3310   48.8430 C   0  0  0  0  0  0  0  0  0  0  0  0
   35.2980   29.4890   48.2290 O   0  0  0  0  0  0  0  0  0  0  0  0
   35.7610   30.5540   50.1880 O   0  0  0  0  0  0  0  0  0  0  0  0
   36.3580   29.6330   51.1060 C   0  0  0  0  0  0  0  0  0  0  0  0
   35.3850   28.9240   51.7960 F   0  0  0  0  0  0  0  0  0  0  0  0
   37.1830   30.3400   51.9510 F   0  0  0  0  0  0  0  0  0  0  0  0
   37.1190   28.7090   50.4370 F   0  0  0  0  0  0  0  0  0  0  0  0
   37.2324   32.5014   49.7728 H   0  0  0  0  0  0  0  0  0  0  0  0
   38.1981   30.6635   44.2936 H   0  0  0  0  0  0  0  0  0  0  0  0
   41.6774   30.8754   43.1275 H   0  0  0  0  0  0  0  0  0  0  0  0
   39.9667   31.0042   42.6380 H   0  0  0  0  0  0  0  0  0  0  0  0
   38.5358   34.9318   48.5979 H   0  0  0  0  0  0  0  0  0  0  0  0
   38.9315   34.4227   50.8055 H   0  0  0  0  0  0  0  0  0  0  0  0
   39.2484   32.7118   50.3597 H   0  0  0  0  0  0  0  0  0  0  0  0
   40.5923   33.9036   50.3597 H   0  0  0  0  0  0  0  0  0  0  0  0
   41.2359   34.8082   48.7361 H   0  0  0  0  0  0  0  0  0  0  0  0
   40.8530   33.7153   47.3630 H   0  0  0  0  0  0  0  0  0  0  0  0
   40.2435   35.4050   47.3630 H   0  0  0  0  0  0  0  0  0  0  0  0
  1  2  2  0
  1 15  1  0
  3 12  1  0
  3  2  1  0
  4  3  2  0
  5  4  1  0
  5  6  2  0
  6  1  1  0
  7  5  1  0
  8  7  1  0
  8  9  2  0
 10  8  1  0
 11  9  1  0
 12 13  1  0
 14 12  1  0
 15 17  1  0
 16 15  2  0
 17 18  1  0
 18 19  1  0
 18 20  1  0
 21 18  1  0
  2 22  1  0
  7 23  1  0
 10 24  1  0
 10 25  1  0
 12 26  1  0
 13 27  1  0
 13 28  1  0
 13 29  1  0
 14 30  1  0
 14 31  1  0
 14 32  1  0
M  ISO  8  22  14  26   8  27   8  28   8  29   8  30   8  31   8  32   8
M  END
>  <minimizedAffinity>  (1) 
-6.02402639

>  <minimizedRMSD>  (1) 
0.817754209

$$$$
