
     RDKit          3D

 30 31  0  0  0  0  0  0  0  0999 V2000
   36.0250   30.4290   47.6910 C   0  0  0  0  0  0  0  0  0  0  0  0
   36.8630   31.3790   48.2580 C   0  0  0  0  0  0  0  0  0  0  0  0
   37.8380   31.9540   47.4180 C   0  0  0  0  0  0  0  0  0  0  0  0
   37.9070   31.5590   46.1250 N   0  0  0  0  0  0  0  0  0  0  0  0
   37.0730   30.6340   45.6190 C   0  0  0  0  0  0  0  0  0  0  0  0
   36.1410   30.0760   46.3990 N   0  0  0  0  0  0  0  0  0  0  0  0
   37.1900   30.2540   44.2470 N   0  0  0  0  0  0  0  0  0  0  0  0
   38.4700   29.9910   43.7100 C   0  0  0  0  0  0  0  0  0  0  0  0
   39.4610   29.6690   44.4780 N   0  0  0  0  0  0  0  0  0  0  0  0
   38.6170   30.0980   42.2830 N   0  0  0  0  0  0  0  0  0  0  0  0
   40.4040   29.4710   44.0700 H   0  0  0  0  0  0  0  0  0  0  0  0
   38.7570   32.9590   47.9380 C   0  0  0  0  0  0  0  0  0  0  0  0
   38.7480   33.4980   49.1880 C   0  0  0  0  0  0  0  0  0  0  0  0
   39.7770   34.4100   49.2830 C   0  0  0  0  0  0  0  0  0  0  0  0
   40.3770   34.3750   48.0420 C   0  0  0  0  0  0  0  0  0  0  0  0
   39.7430   33.4990   47.2660 O   0  0  0  0  0  0  0  0  0  0  0  0
   35.0120   29.8190   48.5230 C   0  0  0  0  0  0  0  0  0  0  0  0
   34.2300   28.9420   48.0460 O   0  0  0  0  0  0  0  0  0  0  0  0
   34.8950   30.1940   49.8580 O   0  0  0  0  0  0  0  0  0  0  0  0
   35.7430   29.5160   50.7820 C   0  0  0  0  0  0  0  0  0  0  0  0
   35.0020   28.9320   51.7970 F   0  0  0  0  0  0  0  0  0  0  0  0
   36.6670   30.4150   51.2660 F   0  0  0  0  0  0  0  0  0  0  0  0
   36.4440   28.5150   50.1500 F   0  0  0  0  0  0  0  0  0  0  0  0
   36.7705   31.6700   49.3148 H   0  0  0  0  0  0  0  0  0  0  0  0
   36.3505   30.1726   43.6558 H   0  0  0  0  0  0  0  0  0  0  0  0
   39.5309   29.9158   41.8443 H   0  0  0  0  0  0  0  0  0  0  0  0
   37.8083   30.3568   41.6999 H   0  0  0  0  0  0  0  0  0  0  0  0
   38.0374   33.2473   49.9893 H   0  0  0  0  0  0  0  0  0  0  0  0
   40.0560   35.0255   50.1510 H   0  0  0  0  0  0  0  0  0  0  0  0
   41.2458   34.9782   47.7399 H   0  0  0  0  0  0  0  0  0  0  0  0
  1  2  2  0
  1 17  1  0
  3 12  1  0
  3  2  1  0
  4  3  2  0
  5  4  1  0
  5  6  2  0
  6  1  1  0
  7  5  1  0
  8  7  1  0
  8  9  2  0
 10  8  1  0
 11  9  1  0
 12 13  2  0
 13 14  1  0
 15 14  2  0
 16 12  1  0
 16 15  1  0
 17 19  1  0
 18 17  2  0
 19 20  1  0
 20 22  1  0
 20 21  1  0
 23 20  1  0
  2 24  1  0
  7 25  1  0
 10 26  1  0
 10 27  1  0
 13 28  1  0
 14 29  1  0
 15 30  1  0
M  ISO  4  24  14  28  14  29  14  30  14
M  END
>  <minimizedAffinity>  (1) 
-5.6925149

>  <minimizedRMSD>  (1) 
2.1378386

$$$$
