
     RDKit          3D

 44 45  0  0  1  0  0  0  0  0999 V2000
   35.7910   30.0790   48.1520 C   0  0  0  0  0  0  0  0  0  0  0  0
   37.0210   30.3060   47.6020 C   0  0  0  0  0  0  0  0  0  0  0  0
   37.1010   30.5690   46.2120 C   0  0  0  0  0  0  0  0  0  0  0  0
   35.9200   30.5720   45.5100 N   0  0  0  0  0  0  0  0  0  0  0  0
   34.7400   30.3450   46.0800 C   0  0  0  0  0  0  0  0  0  0  0  0
   34.6910   30.0980   47.4090 N   0  0  0  0  0  0  0  0  0  0  0  0
   33.5540   30.3560   45.3050 N   0  0  0  0  0  0  0  0  0  0  0  0
   33.5380   29.6540   44.0600 C   0  0  0  0  0  0  0  0  0  0  0  0
   34.3880   28.6780   43.8300 N   0  0  0  0  0  0  0  0  0  0  0  0
   32.5620   30.0700   43.1010 N   0  0  0  0  0  0  0  0  0  0  0  0
   34.3640   28.1930   42.9080 H   0  0  0  0  0  0  0  0  0  0  0  0
   38.3490   30.8590   45.6040 N   0  0  0  0  0  0  0  0  0  0  0  0
   38.4340   30.6950   44.1750 C   0  0  0  0  0  0  0  0  0  0  0  0
   39.8360   30.6860   43.6500 C   0  0  0  0  0  0  0  0  0  0  0  0
   40.6120   31.7320   44.4210 C   0  0  0  0  0  0  0  0  0  0  0  0
   40.7600   31.2420   45.8200 C   0  0  0  0  0  0  0  0  0  0  0  0
   39.3920   31.2940   46.4690 C   0  0  1  0  0  0  0  0  0  0  0  0
   35.6960   29.8450   49.5820 C   0  0  0  0  0  0  0  0  0  0  0  0
   35.0310   28.8860   50.0380 O   0  0  0  0  0  0  0  0  0  0  0  0
   36.3670   30.7160   50.4620 O   0  0  0  0  0  0  0  0  0  0  0  0
   37.5150   30.1890   51.0850 C   0  0  0  0  0  0  0  0  0  0  0  0
   37.3550   30.0840   52.4510 F   0  0  0  0  0  0  0  0  0  0  0  0
   38.5810   31.0410   50.7670 F   0  0  0  0  0  0  0  0  0  0  0  0
   37.8310   28.9570   50.5790 F   0  0  0  0  0  0  0  0  0  0  0  0
   39.2110   32.7560   46.7880 C   0  0  0  0  0  0  0  0  0  0  0  0
   39.0870   33.1390   48.2160 C   0  0  0  0  0  0  0  0  0  0  0  0
   37.9281   30.2851   48.2239 H   0  0  0  0  0  0  0  0  0  0  0  0
   32.7182   30.8609   45.6329 H   0  0  0  0  0  0  0  0  0  0  0  0
   32.5051   29.5992   42.1866 H   0  0  0  0  0  0  0  0  0  0  0  0
   31.9159   30.8404   43.3247 H   0  0  0  0  0  0  0  0  0  0  0  0
   37.9570   29.7409   43.9065 H   0  0  0  0  0  0  0  0  0  0  0  0
   37.9281   31.5607   43.7226 H   0  0  0  0  0  0  0  0  0  0  0  0
   40.2881   29.6946   43.8009 H   0  0  0  0  0  0  0  0  0  0  0  0
   39.8498   30.9065   42.5724 H   0  0  0  0  0  0  0  0  0  0  0  0
   41.6035   31.8743   43.9665 H   0  0  0  0  0  0  0  0  0  0  0  0
   40.0835   32.6965   44.4032 H   0  0  0  0  0  0  0  0  0  0  0  0
   41.1354   30.2080   45.8179 H   0  0  0  0  0  0  0  0  0  0  0  0
   41.4756   31.8663   46.3750 H   0  0  0  0  0  0  0  0  0  0  0  0
   39.3391   30.6270   47.3421 H   0  0  0  0  0  0  0  0  0  0  0  0
   40.0798   33.2919   46.3782 H   0  0  0  0  0  0  0  0  0  0  0  0
   38.2400   33.0199   46.3435 H   0  0  0  0  0  0  0  0  0  0  0  0
   39.3638   32.2840   48.8503 H   0  0  0  0  0  0  0  0  0  0  0  0
   39.7571   33.9851   48.4282 H   0  0  0  0  0  0  0  0  0  0  0  0
   38.0481   33.4318   48.4282 H   0  0  0  0  0  0  0  0  0  0  0  0
  1 18  1  0
  2  1  2  0
  3  2  1  0
  4  5  1  0
  4  3  2  0
  5  6  2  0
  6  1  1  0
  7  5  1  0
  8  7  1  0
  9  8  2  0
 10  8  1  0
 11  9  1  0
 12  3  1  0
 12 17  1  0
 13 12  1  0
 14 13  1  0
 14 15  1  0
 15 16  1  0
 16 17  1  0
 17 25  1  0
 18 19  2  0
 18 20  1  0
 20 21  1  0
 21 22  1  0
 23 21  1  0
 24 21  1  0
 25 26  1  0
  2 27  1  0
  7 28  1  0
 10 29  1  0
 10 30  1  0
 13 31  1  0
 13 32  1  0
 14 33  1  0
 14 34  1  0
 15 35  1  0
 15 36  1  0
 16 37  1  0
 16 38  1  0
 17 39  1  1
 25 40  1  0
 25 41  1  0
 26 42  1  0
 26 43  1  0
 26 44  1  0
M  ISO  8  27  14  31  13  32  13  33  13  34  13  35  13  36  13  37  13
M  ISO  7  38  13  39  13  40   8  41   8  42   8  43   8  44   8
M  END
>  <minimizedAffinity>  (1) 
-6.38646889

>  <minimizedRMSD>  (1) 
1.09197497

$$$$
