
     RDKit          3D

 29 32  0  0  0  0  0  0  0  0999 V2000
   36.8190   31.1890   48.6410 C   0  0  0  0  0  0  0  0  0  0  0  0
   37.0680   32.0570   49.6680 C   0  0  0  0  0  0  0  0  0  0  0  0
   38.1070   32.9520   49.5210 C   0  0  0  0  0  0  0  0  0  0  0  0
   38.8760   33.0090   48.4270 N   0  0  0  0  0  0  0  0  0  0  0  0
   38.6000   32.1260   47.4210 C   0  0  0  0  0  0  0  0  0  0  0  0
   37.5780   31.2290   47.5400 N   0  0  0  0  0  0  0  0  0  0  0  0
   39.3820   32.1440   46.2450 N   0  0  0  0  0  0  0  0  0  0  0  0
   40.2650   33.0980   45.8990 C   0  0  0  0  0  0  0  0  0  0  0  0
   40.8280   32.7740   44.6990 N   0  0  0  0  0  0  0  0  0  0  0  0
   40.2800   31.6030   44.3060 C   0  0  0  0  0  0  0  0  0  0  0  0
   40.5380   30.8880   43.1630 C   0  0  0  0  0  0  0  0  0  0  0  0
   39.8340   29.7380   43.0310 N   0  0  0  0  0  0  0  0  0  0  0  0
   38.9540   29.3620   43.9810 C   0  0  0  0  0  0  0  0  0  0  0  0
   38.6770   30.0460   45.1200 N   0  0  0  0  0  0  0  0  0  0  0  0
   39.3720   31.2090   45.2790 C   0  0  0  0  0  0  0  0  0  0  0  0
   35.8280   29.1970   49.6610 C   0  0  0  0  0  0  0  0  0  0  0  0
   35.7530   30.1960   48.6730 C   0  0  0  0  0  0  0  0  0  0  0  0
   34.6810   30.1710   47.8050 C   0  0  0  0  0  0  0  0  0  0  0  0
   33.7490   29.1950   47.9330 N   0  0  0  0  0  0  0  0  0  0  0  0
   33.8360   28.2470   48.8840 C   0  0  0  0  0  0  0  0  0  0  0  0
   34.8700   28.2350   49.7550 N   0  0  0  0  0  0  0  0  0  0  0  0
   36.4582   32.0418   50.5834 H   0  0  0  0  0  0  0  0  0  0  0  0
   38.3138   33.6532   50.3429 H   0  0  0  0  0  0  0  0  0  0  0  0
   40.4965   33.9966   46.4897 H   0  0  0  0  0  0  0  0  0  0  0  0
   41.2642   31.2246   42.4084 H   0  0  0  0  0  0  0  0  0  0  0  0
   38.4132   28.4180   43.8185 H   0  0  0  0  0  0  0  0  0  0  0  0
   36.6719   29.1935   50.3666 H   0  0  0  0  0  0  0  0  0  0  0  0
   34.5837   30.9339   47.0185 H   0  0  0  0  0  0  0  0  0  0  0  0
   33.0572   27.4732   48.9535 H   0  0  0  0  0  0  0  0  0  0  0  0
  1 17  1  0
  1  2  2  0
  3  2  1  0
  4  3  2  0
  5  6  2  0
  5  4  1  0
  6  1  1  0
  7  5  1  0
  8  7  1  0
  9  8  2  0
 10  9  1  0
 10 15  2  0
 11 10  1  0
 12 11  2  0
 12 13  1  0
 13 14  2  0
 14 15  1  0
 15  7  1  0
 16 21  2  0
 17 16  1  0
 18 19  1  0
 18 17  2  0
 19 20  2  0
 20 21  1  0
  2 22  1  0
  3 23  1  0
  8 24  1  0
 11 25  1  0
 13 26  1  0
 16 27  1  0
 18 28  1  0
 20 29  1  0
M  ISO  8  22  14  23  14  24  14  25  14  26  14  27  14  28  14  29  14
M  END
>  <minimizedAffinity>  (1) 
-6.86300087

>  <minimizedRMSD>  (1) 
0.275905073

$$$$
