
     RDKit          3D

 26 28  0  0  0  0  0  0  0  0999 V2000
   36.0860   30.2660   49.0650 C   0  0  0  0  0  0  0  0  0  0  0  0
   35.8070   29.8370   50.3720 C   0  0  0  0  0  0  0  0  0  0  0  0
   34.8170   28.8680   50.3060 C   0  0  0  0  0  0  0  0  0  0  0  0
   34.5310   28.7400   48.9970 N   0  0  0  0  0  0  0  0  0  0  0  0
   35.2680   29.5520   48.2730 N   0  0  0  0  0  0  0  0  0  0  0  0
   38.2360   33.2840   49.2700 C   0  0  0  0  0  0  0  0  0  0  0  0
   39.0820   33.0700   48.1790 C   0  0  0  0  0  0  0  0  0  0  0  0
   38.8980   31.9210   47.4180 C   0  0  0  0  0  0  0  0  0  0  0  0
   37.8990   31.0560   47.7710 N   0  0  0  0  0  0  0  0  0  0  0  0
   37.0970   31.2910   48.8320 C   0  0  0  0  0  0  0  0  0  0  0  0
   37.2680   32.3930   49.5700 N   0  0  0  0  0  0  0  0  0  0  0  0
   33.5430   27.8170   48.5560 C   0  0  0  0  0  0  0  0  0  0  0  0
   33.9110   26.7620   47.7270 C   0  0  0  0  0  0  0  0  0  0  0  0
   32.9740   25.8510   47.2840 C   0  0  0  0  0  0  0  0  0  0  0  0
   31.6740   26.0310   47.6950 C   0  0  0  0  0  0  0  0  0  0  0  0
   31.2980   27.0750   48.5180 C   0  0  0  0  0  0  0  0  0  0  0  0
   32.2460   27.9600   48.9400 N   0  0  0  0  0  0  0  0  0  0  0  0
   36.2897   30.2053   51.2892 H   0  0  0  0  0  0  0  0  0  0  0  0
   34.3623   28.3206   51.1448 H   0  0  0  0  0  0  0  0  0  0  0  0
   38.3598   34.1850   49.8887 H   0  0  0  0  0  0  0  0  0  0  0  0
   39.8733   33.7919   47.9285 H   0  0  0  0  0  0  0  0  0  0  0  0
   39.5418   31.7122   46.5509 H   0  0  0  0  0  0  0  0  0  0  0  0
   34.9619   26.6527   47.4209 H   0  0  0  0  0  0  0  0  0  0  0  0
   33.2557   25.0140   46.6282 H   0  0  0  0  0  0  0  0  0  0  0  0
   30.9069   25.3189   47.3567 H   0  0  0  0  0  0  0  0  0  0  0  0
   30.2491   27.1908   48.8285 H   0  0  0  0  0  0  0  0  0  0  0  0
  1  2  1  0
  3  2  2  0
  4  3  1  0
  5  4  1  0
  5  1  2  0
  6 11  2  0
  7  6  1  0
  8  9  1  0
  8  7  2  0
  9 10  2  0
 10  1  1  0
 10 11  1  0
 12 17  1  0
 12  4  1  0
 13 12  2  0
 14 15  2  0
 14 13  1  0
 15 16  1  0
 16 17  2  0
  2 18  1  0
  3 19  1  0
  6 20  1  0
  7 21  1  0
  8 22  1  0
 13 23  1  0
 14 24  1  0
 15 25  1  0
 16 26  1  0
M  ISO  8  18  14  19  14  20  14  21  14  22  14  23  14  24  14  25  14
M  ISO  1  26  14
M  END
>  <minimizedAffinity>  (1) 
-5.21544504

>  <minimizedRMSD>  (1) 
1.42788267

$$$$
