
     RDKit          3D

 33 35  0  0  0  0  0  0  0  0999 V2000
   37.8780   31.9200   49.0990 C   0  0  0  0  0  0  0  0  0  0  0  0
   38.4060   33.0320   49.7130 C   0  0  0  0  0  0  0  0  0  0  0  0
   39.2650   33.8340   48.9580 C   0  0  0  0  0  0  0  0  0  0  0  0
   39.5910   33.5650   47.6710 N   0  0  0  0  0  0  0  0  0  0  0  0
   39.0370   32.4590   47.1260 C   0  0  0  0  0  0  0  0  0  0  0  0
   38.1990   31.6480   47.8150 N   0  0  0  0  0  0  0  0  0  0  0  0
   39.3640   32.1550   45.7740 N   0  0  0  0  0  0  0  0  0  0  0  0
   38.3810   32.4040   44.7370 C   0  0  0  0  0  0  0  0  0  0  0  0
   39.0130   32.9060   43.4730 C   0  0  0  0  0  0  0  0  0  0  0  0
   40.0400   31.9340   42.9830 C   0  0  0  0  0  0  0  0  0  0  0  0
   40.5510   30.9790   44.0110 C   0  0  0  0  0  0  0  0  0  0  0  0
   40.6560   31.6060   45.4080 C   0  0  0  0  0  0  0  0  0  0  0  0
   37.4290   30.3970   50.9620 C   0  0  0  0  0  0  0  0  0  0  0  0
   36.9740   31.0060   49.7740 C   0  0  0  0  0  0  0  0  0  0  0  0
   35.7020   30.7020   49.3170 C   0  0  0  0  0  0  0  0  0  0  0  0
   34.9350   29.8340   50.0210 N   0  0  0  0  0  0  0  0  0  0  0  0
   35.3840   29.2550   51.1620 C   0  0  0  0  0  0  0  0  0  0  0  0
   36.6140   29.5370   51.6200 N   0  0  0  0  0  0  0  0  0  0  0  0
   38.1616   33.2797   50.7565 H   0  0  0  0  0  0  0  0  0  0  0  0
   39.6978   34.7275   49.4316 H   0  0  0  0  0  0  0  0  0  0  0  0
   37.8486   31.4663   44.5198 H   0  0  0  0  0  0  0  0  0  0  0  0
   37.6902   33.1782   45.1023 H   0  0  0  0  0  0  0  0  0  0  0  0
   38.2364   33.0314   42.7042 H   0  0  0  0  0  0  0  0  0  0  0  0
   39.5018   33.8702   43.6763 H   0  0  0  0  0  0  0  0  0  0  0  0
   39.5924   31.3482   42.1666 H   0  0  0  0  0  0  0  0  0  0  0  0
   40.9051   32.5359   42.6678 H   0  0  0  0  0  0  0  0  0  0  0  0
   39.8667   30.1193   44.0625 H   0  0  0  0  0  0  0  0  0  0  0  0
   41.5643   30.6776   43.7072 H   0  0  0  0  0  0  0  0  0  0  0  0
   40.9504   30.8367   46.1370 H   0  0  0  0  0  0  0  0  0  0  0  0
   41.4127   32.4044   45.4027 H   0  0  0  0  0  0  0  0  0  0  0  0
   38.4343   30.6176   51.3502 H   0  0  0  0  0  0  0  0  0  0  0  0
   35.3187   31.1599   48.3932 H   0  0  0  0  0  0  0  0  0  0  0  0
   34.7399   28.5537   51.7127 H   0  0  0  0  0  0  0  0  0  0  0  0
  1  2  2  0
  1 14  1  0
  3  2  1  0
  4  3  2  0
  5  4  1  0
  5  6  2  0
  6  1  1  0
  7  5  1  0
  8  7  1  0
  9  8  1  0
 10  9  1  0
 10 11  1  0
 11 12  1  0
 12  7  1  0
 13 18  2  0
 14 13  1  0
 15 14  2  0
 15 16  1  0
 16 17  2  0
 17 18  1  0
  2 19  1  0
  3 20  1  0
  8 21  1  0
  8 22  1  0
  9 23  1  0
  9 24  1  0
 10 25  1  0
 10 26  1  0
 11 27  1  0
 11 28  1  0
 12 29  1  0
 12 30  1  0
 13 31  1  0
 15 32  1  0
 17 33  1  0
M  ISO  8  19  14  20  14  21  13  22  13  23  13  24  13  25  13  26  13
M  ISO  7  27  13  28  13  29  13  30  13  31  14  32  14  33  14
M  END
>  <minimizedAffinity>  (1) 
-6.27169275

>  <minimizedRMSD>  (1) 
1.6750387

$$$$
