
     RDKit          3D

 32 34  0  0  0  0  0  0  0  0999 V2000
   35.8280   29.9820   48.5430 C   0  0  0  0  0  0  0  0  0  0  0  0
   35.7290   29.0440   49.5830 C   0  0  0  0  0  0  0  0  0  0  0  0
   34.6950   28.1690   49.2670 C   0  0  0  0  0  0  0  0  0  0  0  0
   34.2140   28.5850   48.0900 N   0  0  0  0  0  0  0  0  0  0  0  0
   34.8660   29.6430   47.6550 N   0  0  0  0  0  0  0  0  0  0  0  0
   37.8730   32.9050   49.5300 C   0  0  0  0  0  0  0  0  0  0  0  0
   38.8320   32.9050   48.5200 C   0  0  0  0  0  0  0  0  0  0  0  0
   38.7520   31.9140   47.5380 C   0  0  0  0  0  0  0  0  0  0  0  0
   37.7420   30.9990   47.6180 N   0  0  0  0  0  0  0  0  0  0  0  0
   36.8390   31.0330   48.6080 C   0  0  0  0  0  0  0  0  0  0  0  0
   36.8940   31.9780   49.5660 N   0  0  0  0  0  0  0  0  0  0  0  0
   30.3470   28.4950   47.9190 N   0  0  0  0  0  0  0  0  0  0  0  0
   30.8820   28.4700   46.5850 C   0  0  0  0  0  0  0  0  0  0  0  0
   32.2900   28.9720   46.6240 C   0  0  0  0  0  0  0  0  0  0  0  0
   33.1220   27.9630   47.3790 C   0  0  0  0  0  0  0  0  0  0  0  0
   32.3130   27.0440   48.2250 C   0  0  0  0  0  0  0  0  0  0  0  0
   31.0980   27.6750   48.8470 C   0  0  0  0  0  0  0  0  0  0  0  0
   36.3565   29.0076   50.4857 H   0  0  0  0  0  0  0  0  0  0  0  0
   34.3452   27.3123   49.8617 H   0  0  0  0  0  0  0  0  0  0  0  0
   37.9148   33.6760   50.3135 H   0  0  0  0  0  0  0  0  0  0  0  0
   39.6290   33.6628   48.4960 H   0  0  0  0  0  0  0  0  0  0  0  0
   39.4858   31.8722   46.7196 H   0  0  0  0  0  0  0  0  0  0  0  0
   29.3763   28.1518   47.8895 H   0  0  0  0  0  0  0  0  0  0  0  0
   30.2769   29.1153   45.9313 H   0  0  0  0  0  0  0  0  0  0  0  0
   30.8609   27.4429   46.1918 H   0  0  0  0  0  0  0  0  0  0  0  0
   32.6757   29.0830   45.5998 H   0  0  0  0  0  0  0  0  0  0  0  0
   32.3335   29.9526   47.1205 H   0  0  0  0  0  0  0  0  0  0  0  0
   33.5798   27.3116   46.6200 H   0  0  0  0  0  0  0  0  0  0  0  0
   31.9806   26.2035   47.5981 H   0  0  0  0  0  0  0  0  0  0  0  0
   32.9625   26.7310   49.0558 H   0  0  0  0  0  0  0  0  0  0  0  0
   31.4224   28.3053   49.6881 H   0  0  0  0  0  0  0  0  0  0  0  0
   30.4361   26.8600   49.1752 H   0  0  0  0  0  0  0  0  0  0  0  0
  1 10  1  0
  1  2  1  0
  3  2  2  0
  4  3  1  0
  5  4  1  0
  5  1  2  0
  6 11  2  0
  7  6  1  0
  8  9  1  0
  8  7  2  0
  9 10  2  0
 10 11  1  0
 12 17  1  0
 13 14  1  0
 13 12  1  0
 14 15  1  0
 15  4  1  0
 15 16  1  0
 16 17  1  0
  2 18  1  0
  3 19  1  0
  6 20  1  0
  7 21  1  0
  8 22  1  0
 12 23  1  0
 13 24  1  0
 13 25  1  0
 14 26  1  0
 14 27  1  0
 15 28  1  0
 16 29  1  0
 16 30  1  0
 17 31  1  0
 17 32  1  0
M  ISO  8  18  14  19  14  20  14  21  14  22  14  23   5  24  13  25  13
M  ISO  7  26  13  27  13  28  13  29  13  30  13  31  13  32  13
M  END
>  <minimizedAffinity>  (1) 
-5.20501804

>  <minimizedRMSD>  (1) 
1.38499522

$$$$
