
     RDKit          3D

 28 30  0  0  0  0  0  0  0  0999 V2000
   36.7750   30.9530   48.6880 C   0  0  0  0  0  0  0  0  0  0  0  0
   37.3180   31.4770   49.8180 C   0  0  0  0  0  0  0  0  0  0  0  0
   38.3770   32.3610   49.6680 C   0  0  0  0  0  0  0  0  0  0  0  0
   38.8890   32.7250   48.4890 N   0  0  0  0  0  0  0  0  0  0  0  0
   38.3170   32.1780   47.3690 C   0  0  0  0  0  0  0  0  0  0  0  0
   37.2720   31.3030   47.4820 N   0  0  0  0  0  0  0  0  0  0  0  0
   35.6780   28.9910   49.6540 C   0  0  0  0  0  0  0  0  0  0  0  0
   35.6640   30.0160   48.6830 C   0  0  0  0  0  0  0  0  0  0  0  0
   34.6050   30.0600   47.8000 C   0  0  0  0  0  0  0  0  0  0  0  0
   33.6190   29.1360   47.8830 N   0  0  0  0  0  0  0  0  0  0  0  0
   33.6440   28.1580   48.8180 C   0  0  0  0  0  0  0  0  0  0  0  0
   34.6590   28.0870   49.6900 N   0  0  0  0  0  0  0  0  0  0  0  0
   38.7930   32.5020   46.0240 C   0  0  0  0  0  0  0  0  0  0  0  0
   37.9150   32.2500   44.9640 C   0  0  0  0  0  0  0  0  0  0  0  0
   38.2660   32.5190   43.6580 C   0  0  0  0  0  0  0  0  0  0  0  0
   39.5250   33.0510   43.4410 C   0  0  0  0  0  0  0  0  0  0  0  0
   40.4260   33.3160   44.4680 C   0  0  0  0  0  0  0  0  0  0  0  0
   40.0430   33.0330   45.7820 C   0  0  0  0  0  0  0  0  0  0  0  0
   36.9329   31.2107   50.8134 H   0  0  0  0  0  0  0  0  0  0  0  0
   38.8233   32.7893   50.5776 H   0  0  0  0  0  0  0  0  0  0  0  0
   36.5052   28.9227   50.3759 H   0  0  0  0  0  0  0  0  0  0  0  0
   34.5618   30.8443   47.0300 H   0  0  0  0  0  0  0  0  0  0  0  0
   32.8296   27.4199   48.8623 H   0  0  0  0  0  0  0  0  0  0  0  0
   36.9220   31.8276   45.1775 H   0  0  0  0  0  0  0  0  0  0  0  0
   37.5756   32.3195   42.8252 H   0  0  0  0  0  0  0  0  0  0  0  0
   39.8280   33.2751   42.4076 H   0  0  0  0  0  0  0  0  0  0  0  0
   41.4179   33.7389   44.2504 H   0  0  0  0  0  0  0  0  0  0  0  0
   40.7322   33.2319   46.6159 H   0  0  0  0  0  0  0  0  0  0  0  0
  1  2  2  0
  3  2  1  0
  4  3  2  0
  5  6  2  0
  5  4  1  0
  6  1  1  0
  7 12  2  0
  8  1  1  0
  8  7  1  0
  9 10  1  0
  9  8  2  0
 10 11  2  0
 11 12  1  0
 13  5  1  0
 14 13  2  0
 15 14  1  0
 16 15  2  0
 16 17  1  0
 17 18  2  0
 18 13  1  0
  2 19  1  0
  3 20  1  0
  7 21  1  0
  9 22  1  0
 11 23  1  0
 14 24  1  0
 15 25  1  0
 16 26  1  0
 17 27  1  0
 18 28  1  0
M  ISO  8  19  14  20  14  21  14  22  14  23  14  24  14  25  14  26  14
M  ISO  2  27  14  28  14
M  END
>  <minimizedAffinity>  (1) 
-6.00968027

>  <minimizedRMSD>  (1) 
0.763045788

$$$$
