
     RDKit          3D

 25 27  0  0  0  0  0  0  0  0999 V2000
   36.8960   31.2530   48.6790 C   0  0  0  0  0  0  0  0  0  0  0  0
   37.1180   32.0720   49.7370 C   0  0  0  0  0  0  0  0  0  0  0  0
   38.1550   33.0000   49.6060 C   0  0  0  0  0  0  0  0  0  0  0  0
   38.9190   33.1030   48.4930 N   0  0  0  0  0  0  0  0  0  0  0  0
   38.6540   32.2610   47.4690 C   0  0  0  0  0  0  0  0  0  0  0  0
   37.6470   31.3420   47.5620 N   0  0  0  0  0  0  0  0  0  0  0  0
   35.8490   29.2730   49.6720 C   0  0  0  0  0  0  0  0  0  0  0  0
   35.8500   30.2410   48.6740 C   0  0  0  0  0  0  0  0  0  0  0  0
   34.8320   30.1780   47.7150 C   0  0  0  0  0  0  0  0  0  0  0  0
   33.9020   29.1930   47.7970 N   0  0  0  0  0  0  0  0  0  0  0  0
   33.9340   28.2710   48.7790 C   0  0  0  0  0  0  0  0  0  0  0  0
   34.9050   28.3060   49.7200 N   0  0  0  0  0  0  0  0  0  0  0  0
   39.4590   32.3470   46.2540 C   0  0  0  0  0  0  0  0  0  0  0  0
   40.2480   31.3440   45.7310 C   0  0  0  0  0  0  0  0  0  0  0  0
   40.7870   31.8780   44.6260 N   0  0  0  0  0  0  0  0  0  0  0  0
   40.3490   33.1350   44.4880 C   0  0  0  0  0  0  0  0  0  0  0  0
   39.5140   33.4570   45.4960 N   0  0  0  0  0  0  0  0  0  0  0  0
   36.5120   32.0091   50.6528 H   0  0  0  0  0  0  0  0  0  0  0  0
   38.3601   33.6788   50.4470 H   0  0  0  0  0  0  0  0  0  0  0  0
   36.6351   29.2943   50.4411 H   0  0  0  0  0  0  0  0  0  0  0  0
   34.7864   30.9192   46.9035 H   0  0  0  0  0  0  0  0  0  0  0  0
   33.1655   27.4848   48.8157 H   0  0  0  0  0  0  0  0  0  0  0  0
   40.4010   30.3310   46.1316 H   0  0  0  0  0  0  0  0  0  0  0  0
   40.6309   33.8107   43.6671 H   0  0  0  0  0  0  0  0  0  0  0  0
   39.0276   34.3516   45.6510 H   0  0  0  0  0  0  0  0  0  0  0  0
  1  2  2  0
  3  2  1  0
  4  3  2  0
  5  6  2  0
  5  4  1  0
  6  1  1  0
  7 12  2  0
  8  1  1  0
  8  7  1  0
  9 10  1  0
  9  8  2  0
 10 11  2  0
 11 12  1  0
 13  5  1  0
 14 13  2  0
 15 14  1  0
 16 15  2  0
 16 17  1  0
 17 13  1  0
  2 18  1  0
  3 19  1  0
  7 20  1  0
  9 21  1  0
 11 22  1  0
 14 23  1  0
 16 24  1  0
 17 25  1  0
M  ISO  8  18  14  19  14  20  14  21  14  22  14  23  14  24  14  25   9
M  END
>  <minimizedAffinity>  (1) 
-6.00417423

>  <minimizedRMSD>  (1) 
0.166345969

$$$$
