
     RDKit          3D

 28 30  0  0  0  0  0  0  0  0999 V2000
   37.1110   31.4510   48.7440 C   0  0  0  0  0  0  0  0  0  0  0  0
   37.6140   32.3750   49.6030 C   0  0  0  0  0  0  0  0  0  0  0  0
   38.6350   33.1970   49.1690 C   0  0  0  0  0  0  0  0  0  0  0  0
   39.1550   33.1210   47.9270 N   0  0  0  0  0  0  0  0  0  0  0  0
   38.6290   32.1880   47.1000 C   0  0  0  0  0  0  0  0  0  0  0  0
   37.6170   31.3570   47.4970 N   0  0  0  0  0  0  0  0  0  0  0  0
   36.0490   29.9700   50.3710 C   0  0  0  0  0  0  0  0  0  0  0  0
   36.0320   30.5250   49.0810 C   0  0  0  0  0  0  0  0  0  0  0  0
   35.0180   30.1740   48.2110 C   0  0  0  0  0  0  0  0  0  0  0  0
   34.0670   29.3080   48.6200 N   0  0  0  0  0  0  0  0  0  0  0  0
   34.0900   28.7740   49.8760 C   0  0  0  0  0  0  0  0  0  0  0  0
   35.0730   29.1030   50.7430 N   0  0  0  0  0  0  0  0  0  0  0  0
   39.1530   32.0610   45.7450 C   0  0  0  0  0  0  0  0  0  0  0  0
   38.5980   32.7610   44.7060 C   0  0  0  0  0  0  0  0  0  0  0  0
   39.0750   32.6580   43.4160 C   0  0  0  0  0  0  0  0  0  0  0  0
   40.1590   31.8090   43.1820 C   0  0  0  0  0  0  0  0  0  0  0  0
   40.7260   31.0950   44.2440 C   0  0  0  0  0  0  0  0  0  0  0  0
   40.2210   31.2230   45.5200 C   0  0  0  0  0  0  0  0  0  0  0  0
   37.2158   32.4667   50.6243 H   0  0  0  0  0  0  0  0  0  0  0  0
   39.0413   33.9452   49.8655 H   0  0  0  0  0  0  0  0  0  0  0  0
   36.8496   30.2367   51.0767 H   0  0  0  0  0  0  0  0  0  0  0  0
   34.9860   30.5958   47.1956 H   0  0  0  0  0  0  0  0  0  0  0  0
   33.3026   28.0707   50.1847 H   0  0  0  0  0  0  0  0  0  0  0  0
   37.7452   33.4260   44.9071 H   0  0  0  0  0  0  0  0  0  0  0  0
   38.6150   33.2280   42.5953 H   0  0  0  0  0  0  0  0  0  0  0  0
   40.5661   31.7017   42.1657 H   0  0  0  0  0  0  0  0  0  0  0  0
   41.5803   30.4273   44.0590 H   0  0  0  0  0  0  0  0  0  0  0  0
   40.6683   30.6596   46.3522 H   0  0  0  0  0  0  0  0  0  0  0  0
  1  8  1  0
  1  2  2  0
  3  2  1  0
  4  3  2  0
  5  6  2  0
  5  4  1  0
  6  1  1  0
  7 12  2  0
  8  7  1  0
  9 10  1  0
  9  8  2  0
 10 11  2  0
 11 12  1  0
 13  5  1  0
 14 13  2  0
 15 14  1  0
 16 15  2  0
 16 17  1  0
 17 18  2  0
 18 13  1  0
  2 19  1  0
  3 20  1  0
  7 21  1  0
  9 22  1  0
 11 23  1  0
 14 24  1  0
 15 25  1  0
 16 26  1  0
 17 27  1  0
 18 28  1  0
M  ISO  8  19  14  20  14  21  14  22  14  23  14  24  14  25  14  26  14
M  ISO  2  27  14  28  14
M  END
>  <minimizedAffinity>  (1) 
-5.96009922

>  <minimizedRMSD>  (1) 
0.83678025

$$$$
