
     RDKit          3D

 24 26  0  0  0  0  0  0  0  0999 V2000
   36.2550   30.3330   49.0680 C   0  0  0  0  0  0  0  0  0  0  0  0
   36.1310   29.7750   50.3500 C   0  0  0  0  0  0  0  0  0  0  0  0
   35.1320   28.8100   50.3100 C   0  0  0  0  0  0  0  0  0  0  0  0
   34.6870   28.8060   49.0420 N   0  0  0  0  0  0  0  0  0  0  0  0
   35.3380   29.6870   48.3290 N   0  0  0  0  0  0  0  0  0  0  0  0
   31.6890   26.9950   48.3020 N   0  0  0  0  0  0  0  0  0  0  0  0
   32.3390   28.0020   48.8820 N   0  0  0  0  0  0  0  0  0  0  0  0
   33.6460   27.9310   48.6170 C   0  0  0  0  0  0  0  0  0  0  0  0
   33.8520   26.8140   47.8200 C   0  0  0  0  0  0  0  0  0  0  0  0
   32.5930   26.2470   47.6420 C   0  0  0  0  0  0  0  0  0  0  0  0
   38.3340   33.3860   49.2450 C   0  0  0  0  0  0  0  0  0  0  0  0
   39.1560   33.2030   48.1320 C   0  0  0  0  0  0  0  0  0  0  0  0
   38.9800   32.0460   47.3520 C   0  0  0  0  0  0  0  0  0  0  0  0
   38.0040   31.1660   47.7400 N   0  0  0  0  0  0  0  0  0  0  0  0
   37.2300   31.3740   48.8180 C   0  0  0  0  0  0  0  0  0  0  0  0
   37.3980   32.4700   49.5570 N   0  0  0  0  0  0  0  0  0  0  0  0
   36.7229   30.0537   51.2343 H   0  0  0  0  0  0  0  0  0  0  0  0
   34.7796   28.1816   51.1413 H   0  0  0  0  0  0  0  0  0  0  0  0
   30.6752   26.8196   48.3498 H   0  0  0  0  0  0  0  0  0  0  0  0
   34.8085   26.4526   47.4143 H   0  0  0  0  0  0  0  0  0  0  0  0
   32.3737   25.3399   47.0597 H   0  0  0  0  0  0  0  0  0  0  0  0
   38.4515   34.2832   49.8705 H   0  0  0  0  0  0  0  0  0  0  0  0
   39.9236   33.9464   47.8709 H   0  0  0  0  0  0  0  0  0  0  0  0
   39.6017   31.8549   46.4649 H   0  0  0  0  0  0  0  0  0  0  0  0
  1  2  1  0
  3  2  2  0
  4  3  1  0
  5  4  1  0
  5  1  2  0
  6  7  1  0
  8  7  2  0
  8  4  1  0
  9  8  1  0
 10  9  2  0
 10  6  1  0
 11 16  2  0
 12 11  1  0
 13 14  1  0
 13 12  2  0
 14 15  2  0
 15  1  1  0
 15 16  1  0
  2 17  1  0
  3 18  1  0
  6 19  1  0
  9 20  1  0
 10 21  1  0
 11 22  1  0
 12 23  1  0
 13 24  1  0
M  ISO  8  17  14  18  14  19   9  20  14  21  14  22  14  23  14  24  14
M  END
>  <minimizedAffinity>  (1) 
-5.19775724

>  <minimizedRMSD>  (1) 
1.33702099

$$$$
