
     RDKit          3D

 26 28  0  0  0  0  0  0  0  0999 V2000
   37.1170   31.4530   48.6990 C   0  0  0  0  0  0  0  0  0  0  0  0
   37.6030   32.3880   49.5840 C   0  0  0  0  0  0  0  0  0  0  0  0
   38.6330   33.2040   49.1360 C   0  0  0  0  0  0  0  0  0  0  0  0
   39.1670   33.1250   47.9010 N   0  0  0  0  0  0  0  0  0  0  0  0
   38.6480   32.1750   47.0580 C   0  0  0  0  0  0  0  0  0  0  0  0
   37.6400   31.3650   47.4760 N   0  0  0  0  0  0  0  0  0  0  0  0
   36.0490   29.9760   50.3300 C   0  0  0  0  0  0  0  0  0  0  0  0
   36.0430   30.5360   49.0380 C   0  0  0  0  0  0  0  0  0  0  0  0
   35.0210   30.1800   48.1800 C   0  0  0  0  0  0  0  0  0  0  0  0
   34.0660   29.3150   48.5970 N   0  0  0  0  0  0  0  0  0  0  0  0
   34.0920   28.7850   49.8520 C   0  0  0  0  0  0  0  0  0  0  0  0
   35.0720   29.1100   50.7130 N   0  0  0  0  0  0  0  0  0  0  0  0
   39.1940   32.0600   45.7310 C   0  0  0  0  0  0  0  0  0  0  0  0
   40.2040   31.1740   45.4580 C   0  0  0  0  0  0  0  0  0  0  0  0
   40.6810   31.1110   44.1730 C   0  0  0  0  0  0  0  0  0  0  0  0
   40.1580   31.9130   43.2000 N   0  0  0  0  0  0  0  0  0  0  0  0
   39.1620   32.7700   43.5180 C   0  0  0  0  0  0  0  0  0  0  0  0
   38.6690   32.8600   44.7650 N   0  0  0  0  0  0  0  0  0  0  0  0
   37.1939   32.4845   50.6005 H   0  0  0  0  0  0  0  0  0  0  0  0
   39.0362   33.9578   49.8283 H   0  0  0  0  0  0  0  0  0  0  0  0
   36.8503   30.2409   51.0355 H   0  0  0  0  0  0  0  0  0  0  0  0
   34.9829   30.5970   47.1628 H   0  0  0  0  0  0  0  0  0  0  0  0
   33.3034   28.0843   50.1637 H   0  0  0  0  0  0  0  0  0  0  0  0
   40.6206   30.5312   46.2475 H   0  0  0  0  0  0  0  0  0  0  0  0
   41.4908   30.4091   43.9251 H   0  0  0  0  0  0  0  0  0  0  0  0
   38.7419   33.4139   42.7313 H   0  0  0  0  0  0  0  0  0  0  0  0
  1  8  1  0
  1  2  2  0
  3  2  1  0
  4  3  2  0
  5  6  2  0
  5  4  1  0
  6  1  1  0
  7 12  2  0
  8  7  1  0
  9 10  1  0
  9  8  2  0
 10 11  2  0
 11 12  1  0
 13  5  1  0
 14 13  2  0
 15 14  1  0
 16 17  1  0
 16 15  2  0
 17 18  2  0
 18 13  1  0
  2 19  1  0
  3 20  1  0
  7 21  1  0
  9 22  1  0
 11 23  1  0
 14 24  1  0
 15 25  1  0
 17 26  1  0
M  ISO  8  19  14  20  14  21  14  22  14  23  14  24  14  25  14  26  14
M  END
>  <minimizedAffinity>  (1) 
-5.92247868

>  <minimizedRMSD>  (1) 
0.811790347

$$$$
