
     RDKit          3D

 24 26  0  0  0  0  0  0  0  0999 V2000
   36.7360   31.1070   48.6440 C   0  0  0  0  0  0  0  0  0  0  0  0
   37.1580   31.7940   49.7340 C   0  0  0  0  0  0  0  0  0  0  0  0
   38.1860   32.7080   49.5730 C   0  0  0  0  0  0  0  0  0  0  0  0
   38.7860   32.9430   48.3850 N   0  0  0  0  0  0  0  0  0  0  0  0
   38.3380   32.2380   47.3160 C   0  0  0  0  0  0  0  0  0  0  0  0
   37.3270   31.3320   47.4490 N   0  0  0  0  0  0  0  0  0  0  0  0
   35.7290   29.1100   49.6330 C   0  0  0  0  0  0  0  0  0  0  0  0
   35.6620   30.1130   48.6650 C   0  0  0  0  0  0  0  0  0  0  0  0
   34.5930   30.1250   47.7730 C   0  0  0  0  0  0  0  0  0  0  0  0
   33.6510   29.1510   47.8870 N   0  0  0  0  0  0  0  0  0  0  0  0
   33.7330   28.1900   48.8290 C   0  0  0  0  0  0  0  0  0  0  0  0
   34.7650   28.1650   49.7020 N   0  0  0  0  0  0  0  0  0  0  0  0
   38.8760   32.3670   45.9420 C   0  0  0  0  0  0  0  0  0  0  0  0
   38.0780   32.4410   44.6540 C   0  0  0  0  0  0  0  0  0  0  0  0
   39.4630   32.5830   43.4790 S   0  0  0  0  0  0  0  0  0  0  0  0
   40.8020   32.5220   44.8260 C   0  0  0  0  0  0  0  0  0  0  0  0
   40.2060   32.4160   45.8890 N   0  0  0  0  0  0  0  0  0  0  0  0
   36.6966   31.6300   50.7190 H   0  0  0  0  0  0  0  0  0  0  0  0
   38.5305   33.2694   50.4540 H   0  0  0  0  0  0  0  0  0  0  0  0
   36.5694   29.0884   50.3424 H   0  0  0  0  0  0  0  0  0  0  0  0
   34.5127   30.9010   46.9975 H   0  0  0  0  0  0  0  0  0  0  0  0
   32.9518   27.4179   48.8879 H   0  0  0  0  0  0  0  0  0  0  0  0
   36.9919   32.4164   44.4817 H   0  0  0  0  0  0  0  0  0  0  0  0
   41.8911   32.5718   44.6797 H   0  0  0  0  0  0  0  0  0  0  0  0
  1  8  1  0
  1  2  2  0
  3  2  1  0
  4  3  2  0
  5  6  2  0
  5  4  1  0
  6  1  1  0
  7 12  2  0
  8  7  1  0
  9 10  1  0
  9  8  2  0
 10 11  2  0
 11 12  1  0
 13  5  1  0
 14 13  2  0
 15 14  1  0
 15 16  1  0
 16 17  2  0
 17 13  1  0
  2 18  1  0
  3 19  1  0
  7 20  1  0
  9 21  1  0
 11 22  1  0
 14 23  1  0
 16 24  1  0
M  ISO  7  18  14  19  14  20  14  21  14  22  14  23  14  24  14
M  END
>  <minimizedAffinity>  (1) 
-5.64914799

>  <minimizedRMSD>  (1) 
0.505747736

$$$$
