
     RDKit          3D

 24 26  0  0  0  0  0  0  0  0999 V2000
   36.1520   30.2590   49.1130 C   0  0  0  0  0  0  0  0  0  0  0  0
   35.9290   29.7550   50.3800 C   0  0  0  0  0  0  0  0  0  0  0  0
   34.9500   28.7800   50.3230 C   0  0  0  0  0  0  0  0  0  0  0  0
   34.5980   28.7140   49.0120 N   0  0  0  0  0  0  0  0  0  0  0  0
   35.2970   29.5760   48.3000 N   0  0  0  0  0  0  0  0  0  0  0  0
   33.6010   27.8100   48.5510 C   0  0  0  0  0  0  0  0  0  0  0  0
   32.2380   27.8790   48.6860 C   0  0  0  0  0  0  0  0  0  0  0  0
   31.7610   26.7370   48.0470 C   0  0  0  0  0  0  0  0  0  0  0  0
   32.7980   26.0370   47.5620 N   0  0  0  0  0  0  0  0  0  0  0  0
   33.8990   26.6900   47.8690 N   0  0  0  0  0  0  0  0  0  0  0  0
   38.2080   33.3260   49.2990 C   0  0  0  0  0  0  0  0  0  0  0  0
   39.0700   33.1260   48.2120 C   0  0  0  0  0  0  0  0  0  0  0  0
   38.9250   31.9580   47.4550 C   0  0  0  0  0  0  0  0  0  0  0  0
   37.9430   31.0920   47.8340 N   0  0  0  0  0  0  0  0  0  0  0  0
   37.1310   31.3000   48.8730 C   0  0  0  0  0  0  0  0  0  0  0  0
   37.2600   32.4210   49.6120 N   0  0  0  0  0  0  0  0  0  0  0  0
   36.4498   30.0792   51.2930 H   0  0  0  0  0  0  0  0  0  0  0  0
   34.5448   28.1875   51.1565 H   0  0  0  0  0  0  0  0  0  0  0  0
   31.6514   28.6627   49.1878 H   0  0  0  0  0  0  0  0  0  0  0  0
   30.7021   26.4538   47.9546 H   0  0  0  0  0  0  0  0  0  0  0  0
   32.7425   25.1490   47.0431 H   0  0  0  0  0  0  0  0  0  0  0  0
   38.3071   34.2374   49.9070 H   0  0  0  0  0  0  0  0  0  0  0  0
   39.8413   33.8687   47.9602 H   0  0  0  0  0  0  0  0  0  0  0  0
   39.5746   31.7481   46.5925 H   0  0  0  0  0  0  0  0  0  0  0  0
  1  2  1  0
  3  2  2  0
  4  3  1  0
  5  4  1  0
  5  1  2  0
  6  7  1  0
  6  4  1  0
  8  7  2  0
  9 10  1  0
  9  8  1  0
 10  6  2  0
 11 16  2  0
 12 11  1  0
 13 14  1  0
 13 12  2  0
 14 15  2  0
 15  1  1  0
 15 16  1  0
  2 17  1  0
  3 18  1  0
  7 19  1  0
  8 20  1  0
  9 21  1  0
 11 22  1  0
 12 23  1  0
 13 24  1  0
M  ISO  8  17  14  18  14  19  14  20  14  21   9  22  14  23  14  24  14
M  END
>  <minimizedAffinity>  (1) 
-5.09840202

>  <minimizedRMSD>  (1) 
1.40525746

$$$$
