
     RDKit          3D

 21 22  0  0  0  0  0  0  0  0999 V2000
   37.0130   31.3080   48.5720 C   0  0  0  0  0  0  0  0  0  0  0  0
   37.2530   32.1160   49.6420 C   0  0  0  0  0  0  0  0  0  0  0  0
   38.2730   33.0490   49.5290 C   0  0  0  0  0  0  0  0  0  0  0  0
   39.0240   33.1900   48.4270 N   0  0  0  0  0  0  0  0  0  0  0  0
   38.7480   32.3580   47.3740 C   0  0  0  0  0  0  0  0  0  0  0  0
   37.7510   31.4290   47.4560 N   0  0  0  0  0  0  0  0  0  0  0  0
   36.0430   29.2760   49.5440 C   0  0  0  0  0  0  0  0  0  0  0  0
   35.9640   30.2800   48.5610 C   0  0  0  0  0  0  0  0  0  0  0  0
   34.9250   30.2530   47.6510 C   0  0  0  0  0  0  0  0  0  0  0  0
   34.0100   29.2550   47.7350 N   0  0  0  0  0  0  0  0  0  0  0  0
   34.0900   28.2960   48.6770 C   0  0  0  0  0  0  0  0  0  0  0  0
   35.0930   28.3020   49.5740 N   0  0  0  0  0  0  0  0  0  0  0  0
   39.4860   32.3750   46.0630 C   0  0  0  0  0  0  0  0  0  0  0  0
   36.6585   32.0315   50.5637 H   0  0  0  0  0  0  0  0  0  0  0  0
   38.4763   33.7067   50.3869 H   0  0  0  0  0  0  0  0  0  0  0  0
   36.8619   29.2785   50.2785 H   0  0  0  0  0  0  0  0  0  0  0  0
   34.8412   31.0261   46.8730 H   0  0  0  0  0  0  0  0  0  0  0  0
   33.3298   27.5018   48.7135 H   0  0  0  0  0  0  0  0  0  0  0  0
   40.5693   32.4000   46.2523 H   0  0  0  0  0  0  0  0  0  0  0  0
   39.2348   31.4708   45.4891 H   0  0  0  0  0  0  0  0  0  0  0  0
   39.1935   33.2666   45.4891 H   0  0  0  0  0  0  0  0  0  0  0  0
  1  2  2  0
  3  2  1  0
  4  3  2  0
  5  6  2  0
  5  4  1  0
  6  1  1  0
  7 12  2  0
  8  1  1  0
  8  7  1  0
  9 10  1  0
  9  8  2  0
 10 11  2  0
 11 12  1  0
 13  5  1  0
  2 14  1  0
  3 15  1  0
  7 16  1  0
  9 17  1  0
 11 18  1  0
 13 19  1  0
 13 20  1  0
 13 21  1  0
M  ISO  8  14  14  15  14  16  14  17  14  18  14  19   8  20   8  21   8
M  END
>  <minimizedAffinity>  (1) 
-4.80022049

>  <minimizedRMSD>  (1) 
0.0792757049

$$$$
