
     RDKit          3D

 31 34  0  0  0  0  0  0  0  0999 V2000
   36.8300   31.1240   48.5330 C   0  0  0  0  0  0  0  0  0  0  0  0
   37.0000   31.8890   49.6620 C   0  0  0  0  0  0  0  0  0  0  0  0
   38.0750   32.7860   49.6530 C   0  0  0  0  0  0  0  0  0  0  0  0
   38.9190   32.9230   48.6160 N   0  0  0  0  0  0  0  0  0  0  0  0
   38.6980   32.1440   47.5370 C   0  0  0  0  0  0  0  0  0  0  0  0
   37.6610   31.2510   47.4980 N   0  0  0  0  0  0  0  0  0  0  0  0
   39.5650   32.2440   46.3960 N   0  0  0  0  0  0  0  0  0  0  0  0
   40.0510   33.2560   45.6470 C   0  0  0  0  0  0  0  0  0  0  0  0
   40.8260   32.6940   44.7030 N   0  0  0  0  0  0  0  0  0  0  0  0
   40.8050   31.3480   44.8840 C   0  0  0  0  0  0  0  0  0  0  0  0
   40.0080   31.0690   45.9540 N   0  0  0  0  0  0  0  0  0  0  0  0
   35.7640   29.0490   49.2440 C   0  0  0  0  0  0  0  0  0  0  0  0
   35.7500   30.1570   48.4220 C   0  0  0  0  0  0  0  0  0  0  0  0
   34.6900   30.2890   47.5210 C   0  0  0  0  0  0  0  0  0  0  0  0
   33.7340   29.3310   47.4980 N   0  0  0  0  0  0  0  0  0  0  0  0
   33.7820   28.2470   48.3280 C   0  0  0  0  0  0  0  0  0  0  0  0
   34.7960   28.1070   49.2000 N   0  0  0  0  0  0  0  0  0  0  0  0
   32.7230   27.3030   48.2170 N   0  0  0  0  0  0  0  0  0  0  0  0
   31.5270   27.6910   48.7410 C   0  0  0  0  0  0  0  0  0  0  0  0
   30.6350   26.6600   48.5420 C   0  0  0  0  0  0  0  0  0  0  0  0
   31.3090   25.6640   47.8990 N   0  0  0  0  0  0  0  0  0  0  0  0
   32.5900   26.0790   47.7090 C   0  0  0  0  0  0  0  0  0  0  0  0
   36.3267   31.8012   50.5274 H   0  0  0  0  0  0  0  0  0  0  0  0
   38.2376   33.4123   50.5425 H   0  0  0  0  0  0  0  0  0  0  0  0
   39.8522   34.3294   45.7822 H   0  0  0  0  0  0  0  0  0  0  0  0
   41.3406   30.6083   44.2708 H   0  0  0  0  0  0  0  0  0  0  0  0
   36.5909   28.9283   49.9593 H   0  0  0  0  0  0  0  0  0  0  0  0
   34.6336   31.1541   46.8440 H   0  0  0  0  0  0  0  0  0  0  0  0
   31.3127   28.6513   49.2328 H   0  0  0  0  0  0  0  0  0  0  0  0
   29.5777   26.6434   48.8449 H   0  0  0  0  0  0  0  0  0  0  0  0
   33.3851   25.4995   47.2170 H   0  0  0  0  0  0  0  0  0  0  0  0
  1  2  2  0
  3  2  1  0
  4  3  2  0
  5  4  1  0
  6  5  2  0
  6  1  1  0
  7  5  1  0
  8  7  1  0
  9 10  1  0
  9  8  2  0
 10 11  2  0
 11  7  1  0
 13  1  1  0
 13 12  2  0
 14 13  1  0
 15 14  2  0
 15 16  1  0
 16 17  2  0
 17 12  1  0
 18 16  1  0
 18 19  1  0
 20 19  2  0
 21 20  1  0
 22 21  2  0
 22 18  1  0
  2 23  1  0
  3 24  1  0
  8 25  1  0
 10 26  1  0
 12 27  1  0
 14 28  1  0
 19 29  1  0
 20 30  1  0
 22 31  1  0
M  ISO  8  23  14  24  14  25  14  26  14  27  14  28  14  29  14  30  14
M  ISO  1  31  14
M  END
>  <minimizedAffinity>  (1) 
-7.03959465

>  <minimizedRMSD>  (1) 
0.465201259

$$$$
