
     RDKit          3D

 22 24  0  0  0  0  0  0  0  0999 V2000
   35.9220   30.1790   48.8030 C   0  0  0  0  0  0  0  0  0  0  0  0
   36.0770   29.0780   49.6330 C   0  0  0  0  0  0  0  0  0  0  0  0
   34.9560   28.2650   49.4730 C   0  0  0  0  0  0  0  0  0  0  0  0
   34.1770   28.8820   48.5750 N   0  0  0  0  0  0  0  0  0  0  0  0
   34.7300   29.9960   48.1800 N   0  0  0  0  0  0  0  0  0  0  0  0
   32.9120   28.4940   48.0430 C   0  0  0  0  0  0  0  0  0  0  0  0
   32.3750   28.7480   46.8340 N   0  0  0  0  0  0  0  0  0  0  0  0
   31.1830   28.2070   46.7440 O   0  0  0  0  0  0  0  0  0  0  0  0
   30.9230   27.5930   47.8880 C   0  0  0  0  0  0  0  0  0  0  0  0
   31.9870   27.7550   48.7220 N   0  0  0  0  0  0  0  0  0  0  0  0
   38.0460   33.1450   49.4580 C   0  0  0  0  0  0  0  0  0  0  0  0
   38.9490   33.0490   48.3880 C   0  0  0  0  0  0  0  0  0  0  0  0
   38.8110   31.9890   47.4840 C   0  0  0  0  0  0  0  0  0  0  0  0
   37.7950   31.1020   47.6990 N   0  0  0  0  0  0  0  0  0  0  0  0
   36.9410   31.2260   48.7430 C   0  0  0  0  0  0  0  0  0  0  0  0
   37.0650   32.2310   49.6090 N   0  0  0  0  0  0  0  0  0  0  0  0
   36.9311   28.8819   50.2979 H   0  0  0  0  0  0  0  0  0  0  0  0
   34.7526   27.3108   49.9810 H   0  0  0  0  0  0  0  0  0  0  0  0
   30.0003   27.0432   48.1253 H   0  0  0  0  0  0  0  0  0  0  0  0
   38.1386   33.9710   50.1785 H   0  0  0  0  0  0  0  0  0  0  0  0
   39.7499   33.7924   48.2620 H   0  0  0  0  0  0  0  0  0  0  0  0
   39.4963   31.8746   46.6312 H   0  0  0  0  0  0  0  0  0  0  0  0
  1  2  1  0
  3  2  2  0
  4  3  1  0
  5  4  1  0
  5  1  2  0
  6  4  1  0
  6 10  1  0
  7  6  2  0
  8  7  1  0
  8  9  1  0
  9 10  2  0
 11 16  2  0
 12 11  1  0
 13 14  1  0
 13 12  2  0
 14 15  2  0
 15  1  1  0
 15 16  1  0
  2 17  1  0
  3 18  1  0
  9 19  1  0
 11 20  1  0
 12 21  1  0
 13 22  1  0
M  ISO  6  17  14  18  14  19  14  20  14  21  14  22  14
M  END
>  <minimizedAffinity>  (1) 
-4.99095154

>  <minimizedRMSD>  (1) 
0.679630458

$$$$
