
     RDKit          3D

 27 29  0  0  0  0  0  0  0  0999 V2000
   36.7600   31.0770   48.5010 C   0  0  0  0  0  0  0  0  0  0  0  0
   36.9610   31.8130   49.6530 C   0  0  0  0  0  0  0  0  0  0  0  0
   38.0680   32.6810   49.6650 C   0  0  0  0  0  0  0  0  0  0  0  0
   38.9050   32.8090   48.6240 N   0  0  0  0  0  0  0  0  0  0  0  0
   38.6610   32.0670   47.5270 C   0  0  0  0  0  0  0  0  0  0  0  0
   37.5960   31.2050   47.4620 N   0  0  0  0  0  0  0  0  0  0  0  0
   39.5230   32.1680   46.3950 N   0  0  0  0  0  0  0  0  0  0  0  0
   40.0480   33.1820   45.6770 C   0  0  0  0  0  0  0  0  0  0  0  0
   40.8070   32.6180   44.6990 N   0  0  0  0  0  0  0  0  0  0  0  0
   40.7270   31.2750   44.8430 C   0  0  0  0  0  0  0  0  0  0  0  0
   39.9230   30.9970   45.9040 N   0  0  0  0  0  0  0  0  0  0  0  0
   35.5380   29.1140   49.2760 C   0  0  0  0  0  0  0  0  0  0  0  0
   35.6520   30.1540   48.3780 C   0  0  0  0  0  0  0  0  0  0  0  0
   34.6770   30.2630   47.3780 C   0  0  0  0  0  0  0  0  0  0  0  0
   33.6810   29.3330   47.3620 N   0  0  0  0  0  0  0  0  0  0  0  0
   33.6000   28.3300   48.2560 C   0  0  0  0  0  0  0  0  0  0  0  0
   34.5380   28.2210   49.2230 N   0  0  0  0  0  0  0  0  0  0  0  0
   32.4880   27.3580   48.1740 C   0  0  0  0  0  0  0  0  0  0  0  0
   31.8000   27.5670   46.9820 F   0  0  0  0  0  0  0  0  0  0  0  0
   33.0050   26.0730   48.0850 F   0  0  0  0  0  0  0  0  0  0  0  0
   31.5750   27.4710   49.1910 F   0  0  0  0  0  0  0  0  0  0  0  0
   36.2881   31.7245   50.5187 H   0  0  0  0  0  0  0  0  0  0  0  0
   38.2557   33.2812   50.5675 H   0  0  0  0  0  0  0  0  0  0  0  0
   39.8925   34.2573   45.8490 H   0  0  0  0  0  0  0  0  0  0  0  0
   41.2292   30.5311   44.2071 H   0  0  0  0  0  0  0  0  0  0  0  0
   36.2962   29.0125   50.0665 H   0  0  0  0  0  0  0  0  0  0  0  0
   34.7140   31.0706   46.6321 H   0  0  0  0  0  0  0  0  0  0  0  0
  1  2  2  0
  2  3  1  0
  4  3  2  0
  5  4  1  0
  6  5  2  0
  6  1  1  0
  7  5  1  0
  8  7  1  0
  9 10  1  0
  9  8  2  0
 10 11  2  0
 11  7  1  0
 13  1  1  0
 13 12  2  0
 14 13  1  0
 15 14  2  0
 15 16  1  0
 16 17  2  0
 17 12  1  0
 18 16  1  0
 18 21  1  0
 19 18  1  0
 20 18  1  0
  2 22  1  0
  3 23  1  0
  8 24  1  0
 10 25  1  0
 12 26  1  0
 14 27  1  0
M  ISO  6  22  14  23  14  24  14  25  14  26  14  27  14
M  END
>  <minimizedAffinity>  (1) 
-6.44789648

>  <minimizedRMSD>  (1) 
0.597733557

$$$$
