
     RDKit          3D

 30 33  0  0  0  0  0  0  0  0999 V2000
   36.8780   31.1980   48.6060 C   0  0  0  0  0  0  0  0  0  0  0  0
   37.0540   31.9720   49.7330 C   0  0  0  0  0  0  0  0  0  0  0  0
   38.1300   32.8710   49.7080 C   0  0  0  0  0  0  0  0  0  0  0  0
   38.9660   33.0010   48.6640 N   0  0  0  0  0  0  0  0  0  0  0  0
   38.7480   32.2220   47.5920 C   0  0  0  0  0  0  0  0  0  0  0  0
   37.7130   31.3260   47.5610 N   0  0  0  0  0  0  0  0  0  0  0  0
   39.6100   32.3210   46.4500 N   0  0  0  0  0  0  0  0  0  0  0  0
   40.0920   33.3140   45.6970 C   0  0  0  0  0  0  0  0  0  0  0  0
   40.8690   32.7820   44.7420 N   0  0  0  0  0  0  0  0  0  0  0  0
   40.8510   31.4240   44.9300 C   0  0  0  0  0  0  0  0  0  0  0  0
   40.0580   31.1520   46.0040 N   0  0  0  0  0  0  0  0  0  0  0  0
   35.7930   29.1470   49.3770 C   0  0  0  0  0  0  0  0  0  0  0  0
   35.8070   30.2280   48.4970 C   0  0  0  0  0  0  0  0  0  0  0  0
   34.7850   30.3280   47.5500 C   0  0  0  0  0  0  0  0  0  0  0  0
   33.8320   29.3510   47.5480 N   0  0  0  0  0  0  0  0  0  0  0  0
   33.8480   28.3120   48.4180 C   0  0  0  0  0  0  0  0  0  0  0  0
   34.8280   28.2060   49.3350 N   0  0  0  0  0  0  0  0  0  0  0  0
   32.7220   27.3670   48.2430 C   0  0  0  0  0  0  0  0  0  0  0  0
   32.7410   26.1850   47.5170 C   0  0  0  0  0  0  0  0  0  0  0  0
   31.0050   25.5520   47.7470 S   0  0  0  0  0  0  0  0  0  0  0  0
   30.5970   27.0620   48.8100 C   0  0  0  0  0  0  0  0  0  0  0  0
   31.5730   27.6560   48.8260 N   0  0  0  0  0  0  0  0  0  0  0  0
   36.3872   31.8890   50.6039 H   0  0  0  0  0  0  0  0  0  0  0  0
   38.2989   33.5044   50.5913 H   0  0  0  0  0  0  0  0  0  0  0  0
   39.8865   34.3856   45.8366 H   0  0  0  0  0  0  0  0  0  0  0  0
   41.3851   30.6816   44.3187 H   0  0  0  0  0  0  0  0  0  0  0  0
   36.5924   29.0590   50.1275 H   0  0  0  0  0  0  0  0  0  0  0  0
   34.7497   31.1620   46.8336 H   0  0  0  0  0  0  0  0  0  0  0  0
   33.5700   25.7362   46.9501 H   0  0  0  0  0  0  0  0  0  0  0  0
   29.6433   27.3104   49.2986 H   0  0  0  0  0  0  0  0  0  0  0  0
  1  2  2  0
  3  2  1  0
  4  3  2  0
  5  4  1  0
  6  5  2  0
  6  1  1  0
  7  5  1  0
  8  7  1  0
  9 10  1  0
  9  8  2  0
 10 11  2  0
 11  7  1  0
 13  1  1  0
 13 12  2  0
 14 13  1  0
 15 14  2  0
 15 16  1  0
 16 17  2  0
 17 12  1  0
 18 16  1  0
 18 22  1  0
 19 20  1  0
 19 18  2  0
 20 21  1  0
 21 22  2  0
  2 23  1  0
  3 24  1  0
  8 25  1  0
 10 26  1  0
 12 27  1  0
 14 28  1  0
 19 29  1  0
 21 30  1  0
M  ISO  8  23  14  24  14  25  14  26  14  27  14  28  14  29  14  30  14
M  END
>  <minimizedAffinity>  (1) 
-6.42191458

>  <minimizedRMSD>  (1) 
0.4766289

$$$$
