
     RDKit          3D

 25 27  0  0  0  0  0  0  0  0999 V2000
   36.8900   31.2340   48.6150 C   0  0  0  0  0  0  0  0  0  0  0  0
   37.0650   32.0660   49.7070 C   0  0  0  0  0  0  0  0  0  0  0  0
   38.1240   32.9820   49.6270 C   0  0  0  0  0  0  0  0  0  0  0  0
   38.9450   33.0760   48.5630 N   0  0  0  0  0  0  0  0  0  0  0  0
   38.7230   32.2390   47.5320 C   0  0  0  0  0  0  0  0  0  0  0  0
   37.7070   31.3310   47.5620 N   0  0  0  0  0  0  0  0  0  0  0  0
   39.5710   32.3060   46.3820 N   0  0  0  0  0  0  0  0  0  0  0  0
   40.0280   33.2810   45.5780 C   0  0  0  0  0  0  0  0  0  0  0  0
   40.8130   32.7000   44.6390 N   0  0  0  0  0  0  0  0  0  0  0  0
   40.8140   31.3590   44.9010 C   0  0  0  0  0  0  0  0  0  0  0  0
   40.0340   31.1150   45.9960 N   0  0  0  0  0  0  0  0  0  0  0  0
   35.8660   29.2050   49.4930 C   0  0  0  0  0  0  0  0  0  0  0  0
   35.8370   30.2420   48.5640 C   0  0  0  0  0  0  0  0  0  0  0  0
   34.8000   30.2590   47.6500 C   0  0  0  0  0  0  0  0  0  0  0  0
   33.8680   29.2770   47.6950 N   0  0  0  0  0  0  0  0  0  0  0  0
   33.9100   28.2790   48.6000 C   0  0  0  0  0  0  0  0  0  0  0  0
   34.9120   28.2470   49.4980 N   0  0  0  0  0  0  0  0  0  0  0  0
   32.9070   27.3020   48.5790 O   0  0  0  0  0  0  0  0  0  0  0  0
   36.4098   32.0118   50.5889 H   0  0  0  0  0  0  0  0  0  0  0  0
   38.2931   33.6590   50.4774 H   0  0  0  0  0  0  0  0  0  0  0  0
   39.8054   34.3546   45.6662 H   0  0  0  0  0  0  0  0  0  0  0  0
   41.3566   30.5969   44.3223 H   0  0  0  0  0  0  0  0  0  0  0  0
   36.6777   29.1647   50.2343 H   0  0  0  0  0  0  0  0  0  0  0  0
   34.7327   31.0582   46.8972 H   0  0  0  0  0  0  0  0  0  0  0  0
   32.9228   26.5621   49.2366 H   0  0  0  0  0  0  0  0  0  0  0  0
  1  2  2  0
  3  2  1  0
  4  3  2  0
  5  6  2  0
  5  4  1  0
  6  1  1  0
  7  5  1  0
  8  7  1  0
  9 10  1  0
  9  8  2  0
 10 11  2  0
 11  7  1  0
 12 17  2  0
 13  1  1  0
 13 12  1  0
 14 15  1  0
 14 13  2  0
 15 16  2  0
 16 17  1  0
 18 16  1  0
  2 19  1  0
  3 20  1  0
  8 21  1  0
 10 22  1  0
 12 23  1  0
 14 24  1  0
 18 25  1  0
M  ISO  7  19  14  20  14  21  14  22  14  23  14  24  14  25   3
M  END
>  <minimizedAffinity>  (1) 
-6.33302832

>  <minimizedRMSD>  (1) 
0.164831772

$$$$
