
     RDKit          3D

 22 23  0  0  0  0  0  0  0  0999 V2000
   36.2120   29.4670   51.3130 C   0  0  0  0  0  0  0  0  0  0  0  0
   37.1650   30.3460   50.7580 C   0  0  0  0  0  0  0  0  0  0  0  0
   36.8300   31.0090   49.5580 C   0  0  0  0  0  0  0  0  0  0  0  0
   35.5940   30.7450   49.0190 N   0  0  0  0  0  0  0  0  0  0  0  0
   34.7150   29.9010   49.5780 C   0  0  0  0  0  0  0  0  0  0  0  0
   35.0210   29.2620   50.7220 N   0  0  0  0  0  0  0  0  0  0  0  0
   37.7040   31.9190   48.9010 N   0  0  0  0  0  0  0  0  0  0  0  0
   37.8890   33.2670   49.4580 C   0  0  0  0  0  0  0  0  0  0  0  0
   39.2240   33.8020   49.0090 C   0  0  0  0  0  0  0  0  0  0  0  0
   39.4110   33.6780   47.5780 N   0  0  0  0  0  0  0  0  0  0  0  0
   39.3650   32.3360   47.1100 C   0  0  0  0  0  0  0  0  0  0  0  0
   38.3560   31.4370   47.7120 C   0  0  0  0  0  0  0  0  0  0  0  0
   36.4474   28.9381   52.2484 H   0  0  0  0  0  0  0  0  0  0  0  0
   38.1379   30.5095   51.2446 H   0  0  0  0  0  0  0  0  0  0  0  0
   33.7394   29.7301   49.0994 H   0  0  0  0  0  0  0  0  0  0  0  0
   37.0866   33.9282   49.0989 H   0  0  0  0  0  0  0  0  0  0  0  0
   37.8553   33.2240   50.5566 H   0  0  0  0  0  0  0  0  0  0  0  0
   39.2900   34.8650   49.2839 H   0  0  0  0  0  0  0  0  0  0  0  0
   40.0082   33.2105   49.5041 H   0  0  0  0  0  0  0  0  0  0  0  0
   39.5630   34.4860   46.9576 H   0  0  0  0  0  0  0  0  0  0  0  0
   40.0537   31.9797   46.3298 H   0  0  0  0  0  0  0  0  0  0  0  0
   38.1176   30.4558   47.2756 H   0  0  0  0  0  0  0  0  0  0  0  0
  2  1  2  0
  3  2  1  0
  4  3  2  0
  4  5  1  0
  5  6  2  0
  6  1  1  0
  7  8  1  0
  7  3  1  0
  9  8  1  0
 10  9  1  0
 11 10  1  0
 11 12  2  0
 12  7  1  0
  1 13  1  0
  2 14  1  0
  5 15  1  0
  8 16  1  0
  8 17  1  0
  9 18  1  0
  9 19  1  0
 10 20  1  0
 11 21  1  0
 12 22  1  0
M  ISO  8  13  14  14  14  15  14  16  13  17  13  18  13  19  13  21  13
M  ISO  1  22  13
M  END
>  <minimizedAffinity>  (1) 
-4.92725182

>  <minimizedRMSD>  (1) 
1.85665834

$$$$
