
     RDKit          3D

 24 26  0  0  0  0  0  0  0  0999 V2000
   35.8650   30.1950   48.9220 C   0  0  0  0  0  0  0  0  0  0  0  0
   36.0310   29.1430   49.8310 C   0  0  0  0  0  0  0  0  0  0  0  0
   34.9200   28.3100   49.7490 C   0  0  0  0  0  0  0  0  0  0  0  0
   34.1320   28.8740   48.8080 N   0  0  0  0  0  0  0  0  0  0  0  0
   34.6810   29.9710   48.3260 N   0  0  0  0  0  0  0  0  0  0  0  0
   38.0450   33.1490   49.4550 C   0  0  0  0  0  0  0  0  0  0  0  0
   38.9180   33.0190   48.3740 C   0  0  0  0  0  0  0  0  0  0  0  0
   38.7470   31.9450   47.5020 C   0  0  0  0  0  0  0  0  0  0  0  0
   37.7220   31.0710   47.7590 N   0  0  0  0  0  0  0  0  0  0  0  0
   36.8930   31.2160   48.8060 C   0  0  0  0  0  0  0  0  0  0  0  0
   37.0500   32.2550   49.6580 N   0  0  0  0  0  0  0  0  0  0  0  0
   32.8870   28.2840   48.4540 C   0  0  0  0  0  0  0  0  0  0  0  0
   32.4840   27.6730   47.2750 C   0  0  0  0  0  0  0  0  0  0  0  0
   31.2190   27.2770   47.4310 N   0  0  0  0  0  0  0  0  0  0  0  0
   30.7890   27.6120   48.6760 C   0  0  0  0  0  0  0  0  0  0  0  0
   31.8260   28.2330   49.2990 N   0  0  0  0  0  0  0  0  0  0  0  0
   36.8943   28.9995   50.4975 H   0  0  0  0  0  0  0  0  0  0  0  0
   34.7257   27.3929   50.3244 H   0  0  0  0  0  0  0  0  0  0  0  0
   38.1677   33.9908   50.1524 H   0  0  0  0  0  0  0  0  0  0  0  0
   39.7248   33.7493   48.2133 H   0  0  0  0  0  0  0  0  0  0  0  0
   39.4117   31.8034   46.6371 H   0  0  0  0  0  0  0  0  0  0  0  0
   33.0980   27.5389   46.3722 H   0  0  0  0  0  0  0  0  0  0  0  0
   29.7923   27.4178   49.0990 H   0  0  0  0  0  0  0  0  0  0  0  0
   31.8090   28.6054   50.2592 H   0  0  0  0  0  0  0  0  0  0  0  0
  1  2  1  0
  3  2  2  0
  4  3  1  0
  5  4  1  0
  5  1  2  0
  6 11  2  0
  7  6  1  0
  8  9  1  0
  8  7  2  0
  9 10  2  0
 10  1  1  0
 10 11  1  0
 12  4  1  0
 12 16  1  0
 13 14  1  0
 13 12  2  0
 14 15  2  0
 15 16  1  0
  2 17  1  0
  3 18  1  0
  6 19  1  0
  7 20  1  0
  8 21  1  0
 13 22  1  0
 15 23  1  0
 16 24  1  0
M  ISO  8  17  14  18  14  19  14  20  14  21  14  22  14  23  14  24   9
M  END
>  <minimizedAffinity>  (1) 
-4.96223783

>  <minimizedRMSD>  (1) 
0.586095035

$$$$
