
     RDKit          3D

 36 38  0  0  1  0  0  0  0  0999 V2000
   36.9360   29.0660   50.1840 C   0  0  0  0  0  0  0  0  0  0  0  0
   37.8170   30.1380   49.9170 C   0  0  0  0  0  0  0  0  0  0  0  0
   37.3940   31.1170   48.9790 C   0  0  0  0  0  0  0  0  0  0  0  0
   36.1580   30.9320   48.4130 N   0  0  0  0  0  0  0  0  0  0  0  0
   35.3530   29.8920   48.7020 C   0  0  0  0  0  0  0  0  0  0  0  0
   35.7450   28.9680   49.5820 N   0  0  0  0  0  0  0  0  0  0  0  0
   38.1830   32.2370   48.6280 N   0  0  0  0  0  0  0  0  0  0  0  0
   38.2720   33.3580   49.5820 C   0  0  0  0  0  0  0  0  0  0  0  0
   39.5310   34.1280   49.3530 C   0  0  0  0  0  0  0  0  0  0  0  0
   39.7770   34.4140   47.9660 N   0  0  0  0  0  0  0  0  0  0  0  0
   39.6880   33.3510   47.0450 C   0  0  0  0  0  0  0  0  0  0  0  0
   38.8390   32.1960   47.3650 C   0  0  0  0  0  0  0  0  0  0  0  0
   38.7540   31.1460   46.3290 C   0  0  2  0  0  0  0  0  0  0  0  0
   40.0390   30.8730   45.6330 C   0  0  0  0  0  0  0  0  0  0  0  0
   40.0000   30.4820   44.2000 C   0  0  0  0  0  0  0  0  0  0  0  0
   38.7140   30.5590   43.4810 C   0  0  0  0  0  0  0  0  0  0  0  0
   37.5010   30.2960   44.3420 C   0  0  0  0  0  0  0  0  0  0  0  0
   37.5900   31.3950   45.4090 C   0  0  0  0  0  0  0  0  0  0  0  0
   37.2370   28.2920   50.9054 H   0  0  0  0  0  0  0  0  0  0  0  0
   38.7940   30.2116   50.4170 H   0  0  0  0  0  0  0  0  0  0  0  0
   34.3718   29.8038   48.2126 H   0  0  0  0  0  0  0  0  0  0  0  0
   37.4077   34.0240   49.4425 H   0  0  0  0  0  0  0  0  0  0  0  0
   38.2754   32.9590   50.6071 H   0  0  0  0  0  0  0  0  0  0  0  0
   39.4623   35.0803   49.8992 H   0  0  0  0  0  0  0  0  0  0  0  0
   40.3641   33.5050   49.7104 H   0  0  0  0  0  0  0  0  0  0  0  0
   40.0113   35.3674   47.6545 H   0  0  0  0  0  0  0  0  0  0  0  0
   40.2473   33.3859   46.0984 H   0  0  0  0  0  0  0  0  0  0  0  0
   38.5510   30.1973   46.8475 H   0  0  0  0  0  0  0  0  0  0  0  0
   40.9970   30.9585   46.1668 H   0  0  0  0  0  0  0  0  0  0  0  0
   40.9111   30.1422   43.6859 H   0  0  0  0  0  0  0  0  0  0  0  0
   38.6194   31.5676   43.0522 H   0  0  0  0  0  0  0  0  0  0  0  0
   38.7338   29.7682   42.7166 H   0  0  0  0  0  0  0  0  0  0  0  0
   36.5738   30.3870   43.7571 H   0  0  0  0  0  0  0  0  0  0  0  0
   37.4821   29.2811   44.7657 H   0  0  0  0  0  0  0  0  0  0  0  0
   37.7215   32.3689   44.9149 H   0  0  0  0  0  0  0  0  0  0  0  0
   36.6628   31.3910   46.0008 H   0  0  0  0  0  0  0  0  0  0  0  0
  2  1  2  0
  3  2  1  0
  4  5  1  0
  4  3  2  0
  5  6  2  0
  6  1  1  0
  7  3  1  0
  7  8  1  0
  9  8  1  0
 10  9  1  0
 11 12  2  0
 11 10  1  0
 12  7  1  0
 13 12  1  0
 14 13  1  0
 15 14  2  0
 16 15  1  0
 16 17  1  0
 17 18  1  0
 18 13  1  0
  1 19  1  0
  2 20  1  0
  5 21  1  0
  8 22  1  0
  8 23  1  0
  9 24  1  0
  9 25  1  0
 10 26  1  0
 11 27  1  0
 13 28  1  1
 14 29  1  0
 15 30  1  0
 16 31  1  0
 16 32  1  0
 17 33  1  0
 17 34  1  0
 18 35  1  0
 18 36  1  0
M  ISO  8  19  14  20  14  21  14  22  13  23  13  24  13  25  13  27  13
M  ISO  8  28  13  29  13  30  13  31  13  32  13  33  13  34  13  35  13
M  ISO  1  36  13
M  END
>  <minimizedAffinity>  (1) 
-6.07651615

>  <minimizedRMSD>  (1) 
1.32870305

$$$$
