
     RDKit          3D

 29 30  0  0  0  0  0  0  0  0999 V2000
   36.8320   29.0330   49.8070 C   0  0  0  0  0  0  0  0  0  0  0  0
   37.7030   30.1160   49.6360 C   0  0  0  0  0  0  0  0  0  0  0  0
   37.3350   31.1440   48.7270 C   0  0  0  0  0  0  0  0  0  0  0  0
   36.1460   30.9980   48.0800 N   0  0  0  0  0  0  0  0  0  0  0  0
   35.3390   29.9380   48.2760 C   0  0  0  0  0  0  0  0  0  0  0  0
   35.6780   28.9620   49.1330 N   0  0  0  0  0  0  0  0  0  0  0  0
   38.1550   32.2770   48.4900 N   0  0  0  0  0  0  0  0  0  0  0  0
   38.1990   33.3600   49.4680 C   0  0  0  0  0  0  0  0  0  0  0  0
   39.5010   34.1070   49.3410 C   0  0  0  0  0  0  0  0  0  0  0  0
   39.8000   34.4610   47.9790 N   0  0  0  0  0  0  0  0  0  0  0  0
   39.7810   33.4270   47.0200 C   0  0  0  0  0  0  0  0  0  0  0  0
   38.9140   32.2650   47.2560 C   0  0  0  0  0  0  0  0  0  0  0  0
   38.8500   31.2260   46.3220 N   0  0  0  0  0  0  0  0  0  0  0  0
   39.8680   30.7720   45.4430 C   0  0  0  0  0  0  0  0  0  0  0  0
   40.9270   31.4900   45.4670 N   0  0  0  0  0  0  0  0  0  0  0  0
   39.4690   29.6060   44.7290 N   0  0  0  0  0  0  0  0  0  0  0  0
   41.7790   31.3120   44.8910 H   0  0  0  0  0  0  0  0  0  0  0  0
   37.1006   28.2277   50.5065 H   0  0  0  0  0  0  0  0  0  0  0  0
   38.6503   30.1696   50.1926 H   0  0  0  0  0  0  0  0  0  0  0  0
   34.3887   29.8709   47.7261 H   0  0  0  0  0  0  0  0  0  0  0  0
   37.3622   34.0505   49.2866 H   0  0  0  0  0  0  0  0  0  0  0  0
   38.1181   32.9392   50.4811 H   0  0  0  0  0  0  0  0  0  0  0  0
   39.4399   35.0276   49.9399 H   0  0  0  0  0  0  0  0  0  0  0  0
   40.3034   33.4454   49.6993 H   0  0  0  0  0  0  0  0  0  0  0  0
   40.0194   35.4320   47.7145 H   0  0  0  0  0  0  0  0  0  0  0  0
   40.4023   33.4894   46.1144 H   0  0  0  0  0  0  0  0  0  0  0  0
   37.9506   30.7272   46.2647 H   0  0  0  0  0  0  0  0  0  0  0  0
   38.5356   29.2000   44.8864 H   0  0  0  0  0  0  0  0  0  0  0  0
   40.1139   29.1688   44.0553 H   0  0  0  0  0  0  0  0  0  0  0  0
  2  1  2  0
  3  2  1  0
  4  5  1  0
  4  3  2  0
  5  6  2  0
  6  1  1  0
  7  3  1  0
  7  8  1  0
  9  8  1  0
 10  9  1  0
 11 12  2  0
 11 10  1  0
 12  7  1  0
 13 12  1  0
 14 15  2  0
 14 13  1  0
 16 14  1  0
 17 15  1  0
  1 18  1  0
  2 19  1  0
  5 20  1  0
  8 21  1  0
  8 22  1  0
  9 23  1  0
  9 24  1  0
 10 25  1  0
 11 26  1  0
 13 27  1  0
 16 28  1  0
 16 29  1  0
M  ISO  8  18  14  19  14  20  14  21  13  22  13  23  13  24  13  26  13
M  END
>  <minimizedAffinity>  (1) 
-5.72963858

>  <minimizedRMSD>  (1) 
1.40420413

$$$$
