
     RDKit          3D

 23 24  0  0  0  0  0  0  0  0999 V2000
   36.7040   29.5980   51.4600 C   0  0  0  0  0  0  0  0  0  0  0  0
   37.5660   30.5070   50.8380 C   0  0  0  0  0  0  0  0  0  0  0  0
   37.1650   31.1620   49.6480 C   0  0  0  0  0  0  0  0  0  0  0  0
   35.9240   30.8450   49.1820 N   0  0  0  0  0  0  0  0  0  0  0  0
   35.1140   29.9750   49.7880 C   0  0  0  0  0  0  0  0  0  0  0  0
   35.4980   29.3480   50.9250 N   0  0  0  0  0  0  0  0  0  0  0  0
   37.9960   32.0870   48.9820 N   0  0  0  0  0  0  0  0  0  0  0  0
   38.1680   33.4360   49.5480 C   0  0  0  0  0  0  0  0  0  0  0  0
   39.4390   34.0440   49.0430 C   0  0  0  0  0  0  0  0  0  0  0  0
   39.6000   33.9160   47.6220 N   0  0  0  0  0  0  0  0  0  0  0  0
   39.4780   32.6210   47.0770 C   0  0  0  0  0  0  0  0  0  0  0  0
   38.6270   31.6400   47.7810 C   0  0  0  0  0  0  0  0  0  0  0  0
   38.4860   30.3840   47.2690 O   0  0  0  0  0  0  0  0  0  0  0  0
   37.0132   29.0892   52.3850 H   0  0  0  0  0  0  0  0  0  0  0  0
   38.5551   30.7131   51.2729 H   0  0  0  0  0  0  0  0  0  0  0  0
   34.1231   29.7648   49.3591 H   0  0  0  0  0  0  0  0  0  0  0  0
   37.3182   34.0675   49.2495 H   0  0  0  0  0  0  0  0  0  0  0  0
   38.2123   33.3648   50.6448 H   0  0  0  0  0  0  0  0  0  0  0  0
   39.4418   35.1134   49.3005 H   0  0  0  0  0  0  0  0  0  0  0  0
   40.2716   33.5035   49.5170 H   0  0  0  0  0  0  0  0  0  0  0  0
   39.7959   34.7337   47.0271 H   0  0  0  0  0  0  0  0  0  0  0  0
   40.0038   32.3480   46.1502 H   0  0  0  0  0  0  0  0  0  0  0  0
   37.9175   29.7206   47.7346 H   0  0  0  0  0  0  0  0  0  0  0  0
  2  1  2  0
  3  2  1  0
  4  3  2  0
  4  5  1  0
  5  6  2  0
  6  1  1  0
  7  8  1  0
  7  3  1  0
  9  8  1  0
 10  9  1  0
 11 10  1  0
 11 12  2  0
 12  7  1  0
 13 12  1  0
  1 14  1  0
  2 15  1  0
  5 16  1  0
  8 17  1  0
  8 18  1  0
  9 19  1  0
  9 20  1  0
 10 21  1  0
 11 22  1  0
 13 23  1  0
M  ISO  8  14  14  15  14  16  14  17  13  18  13  19  13  20  13  22  13
M  ISO  1  23   3
M  END
>  <minimizedAffinity>  (1) 
-5.33019209

>  <minimizedRMSD>  (1) 
0.391860664

$$$$
