
     RDKit          3D

 24 25  0  0  0  0  0  0  0  0999 V2000
   36.7240   29.5910   51.4160 C   0  0  0  0  0  0  0  0  0  0  0  0
   37.5880   30.5070   50.8120 C   0  0  0  0  0  0  0  0  0  0  0  0
   37.1700   31.2030   49.6440 C   0  0  0  0  0  0  0  0  0  0  0  0
   35.9190   30.9130   49.1890 N   0  0  0  0  0  0  0  0  0  0  0  0
   35.1140   30.0220   49.7990 C   0  0  0  0  0  0  0  0  0  0  0  0
   35.5120   29.3660   50.9020 N   0  0  0  0  0  0  0  0  0  0  0  0
   37.9910   32.1430   48.9830 N   0  0  0  0  0  0  0  0  0  0  0  0
   38.1630   33.4760   49.5490 C   0  0  0  0  0  0  0  0  0  0  0  0
   39.4490   34.0890   49.0730 C   0  0  0  0  0  0  0  0  0  0  0  0
   39.6220   33.9530   47.6440 N   0  0  0  0  0  0  0  0  0  0  0  0
   39.4840   32.6690   47.0790 C   0  0  0  0  0  0  0  0  0  0  0  0
   38.6170   31.7050   47.7700 C   0  0  0  0  0  0  0  0  0  0  0  0
   38.4410   30.4100   47.2190 N   0  0  0  0  0  0  0  0  0  0  0  0
   37.0434   29.0519   52.3200 H   0  0  0  0  0  0  0  0  0  0  0  0
   38.5861   30.6892   51.2371 H   0  0  0  0  0  0  0  0  0  0  0  0
   34.1128   29.8279   49.3868 H   0  0  0  0  0  0  0  0  0  0  0  0
   37.3217   34.1126   49.2375 H   0  0  0  0  0  0  0  0  0  0  0  0
   38.1925   33.3952   50.6456 H   0  0  0  0  0  0  0  0  0  0  0  0
   39.4480   35.1586   49.3296 H   0  0  0  0  0  0  0  0  0  0  0  0
   40.2782   33.5602   49.5657 H   0  0  0  0  0  0  0  0  0  0  0  0
   39.8397   34.7703   47.0562 H   0  0  0  0  0  0  0  0  0  0  0  0
   40.0084   32.3976   46.1509 H   0  0  0  0  0  0  0  0  0  0  0  0
   37.8355   29.7259   47.6947 H   0  0  0  0  0  0  0  0  0  0  0  0
   38.9186   30.1537   46.3432 H   0  0  0  0  0  0  0  0  0  0  0  0
  2  1  2  0
  3  2  1  0
  4  3  2  0
  4  5  1  0
  5  6  2  0
  6  1  1  0
  7  8  1  0
  7  3  1  0
  9  8  1  0
 10  9  1  0
 11 10  1  0
 11 12  2  0
 12  7  1  0
 13 12  1  0
  1 14  1  0
  2 15  1  0
  5 16  1  0
  8 17  1  0
  8 18  1  0
  9 19  1  0
  9 20  1  0
 10 21  1  0
 11 22  1  0
 13 23  1  0
 13 24  1  0
M  ISO  8  14  14  15  14  16  14  17  13  18  13  19  13  20  13  22  13
M  END
>  <minimizedAffinity>  (1) 
-5.30677891

>  <minimizedRMSD>  (1) 
0.41563338

$$$$
