
     RDKit          3D

 28 30  0  0  0  0  0  0  0  0999 V2000
   36.9650   29.0840   49.7210 C   0  0  0  0  0  0  0  0  0  0  0  0
   37.8450   30.1690   49.5520 C   0  0  0  0  0  0  0  0  0  0  0  0
   37.4370   31.2480   48.7230 C   0  0  0  0  0  0  0  0  0  0  0  0
   36.2040   31.1330   48.1560 N   0  0  0  0  0  0  0  0  0  0  0  0
   35.3900   30.0940   48.3320 C   0  0  0  0  0  0  0  0  0  0  0  0
   35.7640   29.0670   49.1140 N   0  0  0  0  0  0  0  0  0  0  0  0
   38.2400   32.3820   48.4850 N   0  0  0  0  0  0  0  0  0  0  0  0
   38.3600   33.4180   49.5320 C   0  0  0  0  0  0  0  0  0  0  0  0
   39.6510   34.1620   49.3490 C   0  0  0  0  0  0  0  0  0  0  0  0
   39.8710   34.5870   47.9820 N   0  0  0  0  0  0  0  0  0  0  0  0
   39.7560   33.6160   46.9640 C   0  0  0  0  0  0  0  0  0  0  0  0
   38.9020   32.4680   47.2290 C   0  0  0  0  0  0  0  0  0  0  0  0
   38.8020   31.5280   46.2090 N   0  0  0  0  0  0  0  0  0  0  0  0
   39.5920   30.4860   45.9130 C   0  0  0  0  0  0  0  0  0  0  0  0
   39.1010   29.8390   44.8220 N   0  0  0  0  0  0  0  0  0  0  0  0
   37.9870   30.5170   44.4600 C   0  0  0  0  0  0  0  0  0  0  0  0
   37.8290   31.5380   45.3210 N   0  0  0  0  0  0  0  0  0  0  0  0
   37.2629   28.2381   50.3580 H   0  0  0  0  0  0  0  0  0  0  0  0
   38.8257   30.1813   50.0501 H   0  0  0  0  0  0  0  0  0  0  0  0
   34.4084   30.0762   47.8358 H   0  0  0  0  0  0  0  0  0  0  0  0
   37.5169   34.1201   49.4524 H   0  0  0  0  0  0  0  0  0  0  0  0
   38.3464   32.9425   50.5238 H   0  0  0  0  0  0  0  0  0  0  0  0
   39.6369   35.0523   49.9948 H   0  0  0  0  0  0  0  0  0  0  0  0
   40.4673   33.4743   49.6149 H   0  0  0  0  0  0  0  0  0  0  0  0
   40.1037   35.5655   47.7600 H   0  0  0  0  0  0  0  0  0  0  0  0
   40.2906   33.7228   46.0086 H   0  0  0  0  0  0  0  0  0  0  0  0
   40.4977   30.1986   46.4671 H   0  0  0  0  0  0  0  0  0  0  0  0
   37.3283   30.2759   43.6127 H   0  0  0  0  0  0  0  0  0  0  0  0
  2  1  2  0
  3  2  1  0
  4  5  1  0
  4  3  2  0
  5  6  2  0
  6  1  1  0
  7  3  1  0
  7  8  1  0
  9  8  1  0
 10  9  1  0
 11 12  2  0
 11 10  1  0
 12  7  1  0
 13 12  1  0
 14 13  1  0
 15 14  2  0
 16 15  1  0
 16 17  2  0
 17 13  1  0
  1 18  1  0
  2 19  1  0
  5 20  1  0
  8 21  1  0
  8 22  1  0
  9 23  1  0
  9 24  1  0
 10 25  1  0
 11 26  1  0
 14 27  1  0
 16 28  1  0
M  ISO  8  18  14  19  14  20  14  21  13  22  13  23  13  24  13  26  13
M  ISO  2  27  14  28  14
M  END
>  <minimizedAffinity>  (1) 
-5.05494165

>  <minimizedRMSD>  (1) 
1.60225713

$$$$
