
     RDKit          3D

 34 35  0  0  0  0  0  0  0  0999 V2000
   36.8710   29.1690   49.4700 C   0  0  0  0  0  0  0  0  0  0  0  0
   37.7920   30.2410   49.3880 C   0  0  0  0  0  0  0  0  0  0  0  0
   37.4460   31.3360   48.5500 C   0  0  0  0  0  0  0  0  0  0  0  0
   36.2510   31.2390   47.9080 N   0  0  0  0  0  0  0  0  0  0  0  0
   35.4030   30.2200   48.0040 C   0  0  0  0  0  0  0  0  0  0  0  0
   35.7230   29.1840   48.7910 N   0  0  0  0  0  0  0  0  0  0  0  0
   38.2790   32.4740   48.3790 N   0  0  0  0  0  0  0  0  0  0  0  0
   38.3260   33.4640   49.4800 C   0  0  0  0  0  0  0  0  0  0  0  0
   39.6540   34.1840   49.4130 C   0  0  0  0  0  0  0  0  0  0  0  0
   39.8790   34.7230   48.0980 N   0  0  0  0  0  0  0  0  0  0  0  0
   39.8530   33.7840   47.0470 C   0  0  0  0  0  0  0  0  0  0  0  0
   39.0070   32.5750   47.1730 C   0  0  0  0  0  0  0  0  0  0  0  0
   39.0120   31.6540   46.0600 C   0  0  0  0  0  0  0  0  0  0  0  0
   38.8900   30.1890   46.4470 C   0  0  0  0  0  0  0  0  0  0  0  0
   40.2900   31.7300   45.2210 C   0  0  0  0  0  0  0  0  0  0  0  0
   37.8880   31.9520   45.0880 C   0  0  0  0  0  0  0  0  0  0  0  0
   37.1073   28.3045   50.1078 H   0  0  0  0  0  0  0  0  0  0  0  0
   38.7374   30.2272   49.9501 H   0  0  0  0  0  0  0  0  0  0  0  0
   34.4546   30.2271   47.4468 H   0  0  0  0  0  0  0  0  0  0  0  0
   37.5046   34.1867   49.3660 H   0  0  0  0  0  0  0  0  0  0  0  0
   38.2173   32.9577   50.4505 H   0  0  0  0  0  0  0  0  0  0  0  0
   39.6557   35.0057   50.1443 H   0  0  0  0  0  0  0  0  0  0  0  0
   40.4555   33.4659   49.6408 H   0  0  0  0  0  0  0  0  0  0  0  0
   40.0475   35.7261   47.9358 H   0  0  0  0  0  0  0  0  0  0  0  0
   40.4556   33.9478   46.1414 H   0  0  0  0  0  0  0  0  0  0  0  0
   38.8825   30.0988   47.5433 H   0  0  0  0  0  0  0  0  0  0  0  0
   37.9546   29.7786   46.0389 H   0  0  0  0  0  0  0  0  0  0  0  0
   39.7447   29.6295   46.0389 H   0  0  0  0  0  0  0  0  0  0  0  0
   41.1636   31.7820   45.8874 H   0  0  0  0  0  0  0  0  0  0  0  0
   40.3657   30.8348   44.5863 H   0  0  0  0  0  0  0  0  0  0  0  0
   40.2591   32.6279   44.5863 H   0  0  0  0  0  0  0  0  0  0  0  0
   36.9732   32.1945   45.6486 H   0  0  0  0  0  0  0  0  0  0  0  0
   38.1677   32.8070   44.4550 H   0  0  0  0  0  0  0  0  0  0  0  0
   37.7074   31.0707   44.4550 H   0  0  0  0  0  0  0  0  0  0  0  0
  2  1  2  0
  3  2  1  0
  4  5  1  0
  4  3  2  0
  5  6  2  0
  6  1  1  0
  7  3  1  0
  7  8  1  0
  9  8  1  0
 10  9  1  0
 11 12  2  0
 11 10  1  0
 12  7  1  0
 13 14  1  0
 13 12  1  0
 15 13  1  0
 16 13  1  0
  1 17  1  0
  2 18  1  0
  5 19  1  0
  8 20  1  0
  8 21  1  0
  9 22  1  0
  9 23  1  0
 10 24  1  0
 11 25  1  0
 14 26  1  0
 14 27  1  0
 14 28  1  0
 15 29  1  0
 15 30  1  0
 15 31  1  0
 16 32  1  0
 16 33  1  0
 16 34  1  0
M  ISO  8  17  14  18  14  19  14  20  13  21  13  22  13  23  13  25  13
M  ISO  8  26   8  27   8  28   8  29   8  30   8  31   8  32   8  33   8
M  ISO  1  34   8
M  END
>  <minimizedAffinity>  (1) 
-4.65762424

>  <minimizedRMSD>  (1) 
1.73457563

$$$$
