
     RDKit          3D

 45 49  0  0  0  0  0  0  0  0999 V2000
   36.7970   28.9770   50.0040 C   0  0  0  0  0  0  0  0  0  0  0  0
   37.5870   29.7240   49.1200 C   0  0  0  0  0  0  0  0  0  0  0  0
   37.0060   30.8590   48.4570 C   0  0  0  0  0  0  0  0  0  0  0  0
   35.6920   31.1290   48.7490 N   0  0  0  0  0  0  0  0  0  0  0  0
   34.9780   30.3870   49.6010 C   0  0  0  0  0  0  0  0  0  0  0  0
   35.4970   29.3290   50.2270 N   0  0  0  0  0  0  0  0  0  0  0  0
   37.7340   31.6500   47.5490 N   0  0  0  0  0  0  0  0  0  0  0  0
   38.7090   32.6260   48.0980 C   0  0  0  0  0  0  0  0  0  0  0  0
   39.7520   32.9400   47.0860 C   0  0  0  0  0  0  0  0  0  0  0  0
   39.1510   33.2670   45.7870 N   0  0  0  0  0  0  0  0  0  0  0  0
   38.2380   32.3090   45.2610 C   0  0  0  0  0  0  0  0  0  0  0  0
   37.4910   31.4550   46.1790 C   0  0  0  0  0  0  0  0  0  0  0  0
   36.6480   30.5690   45.5220 N   0  0  0  0  0  0  0  0  0  0  0  0
   35.4300   30.2230   45.9450 C   0  0  0  0  0  0  0  0  0  0  0  0
   34.7750   29.3670   45.1190 C   0  0  0  0  0  0  0  0  0  0  0  0
   35.6350   29.1620   44.1170 N   0  0  0  0  0  0  0  0  0  0  0  0
   36.7740   29.8970   44.3710 C   0  0  0  0  0  0  0  0  0  0  0  0
   37.9310   29.9490   43.4780 C   0  0  0  0  0  0  0  0  0  0  0  0
   39.0730   29.2160   43.6530 C   0  0  0  0  0  0  0  0  0  0  0  0
   40.1900   29.2410   42.8620 C   0  0  0  0  0  0  0  0  0  0  0  0
   40.2250   30.0710   41.7600 C   0  0  0  0  0  0  0  0  0  0  0  0
   39.1090   30.8420   41.5200 C   0  0  0  0  0  0  0  0  0  0  0  0
   39.1690   31.6690   40.4270 C   0  0  0  0  0  0  0  0  0  0  0  0
   38.1070   32.4890   40.1090 C   0  0  0  0  0  0  0  0  0  0  0  0
   36.9810   32.4440   40.9360 C   0  0  0  0  0  0  0  0  0  0  0  0
   37.0070   31.5880   42.0080 C   0  0  0  0  0  0  0  0  0  0  0  0
   38.0270   30.7570   42.3660 C   0  0  0  0  0  0  0  0  0  0  0  0
   37.2254   28.1048   50.5195 H   0  0  0  0  0  0  0  0  0  0  0  0
   38.6353   29.4460   48.9364 H   0  0  0  0  0  0  0  0  0  0  0  0
   33.9290   30.6571   49.7923 H   0  0  0  0  0  0  0  0  0  0  0  0
   38.1807   33.5507   48.3732 H   0  0  0  0  0  0  0  0  0  0  0  0
   39.1915   32.1889   48.9846 H   0  0  0  0  0  0  0  0  0  0  0  0
   40.3426   33.8000   47.4346 H   0  0  0  0  0  0  0  0  0  0  0  0
   40.3925   32.0546   46.9601 H   0  0  0  0  0  0  0  0  0  0  0  0
   39.3764   34.1380   45.2856 H   0  0  0  0  0  0  0  0  0  0  0  0
   38.0973   32.2137   44.1742 H   0  0  0  0  0  0  0  0  0  0  0  0
   34.9943   30.5991   46.8824 H   0  0  0  0  0  0  0  0  0  0  0  0
   33.7689   28.9408   45.2455 H   0  0  0  0  0  0  0  0  0  0  0  0
   39.0959   28.5369   44.5181 H   0  0  0  0  0  0  0  0  0  0  0  0
   41.0537   28.6039   43.1031 H   0  0  0  0  0  0  0  0  0  0  0  0
   41.1055   30.1150   41.1021 H   0  0  0  0  0  0  0  0  0  0  0  0
   40.0720   31.6780   39.7989 H   0  0  0  0  0  0  0  0  0  0  0  0
   38.1446   33.1555   39.2347 H   0  0  0  0  0  0  0  0  0  0  0  0
   36.1025   33.0744   40.7339 H   0  0  0  0  0  0  0  0  0  0  0  0
   36.1108   31.5703   42.6456 H   0  0  0  0  0  0  0  0  0  0  0  0
  1  6  2  0
  2  1  1  0
  3  4  1  0
  3  2  2  0
  4  5  2  0
  5  6  1  0
  7  8  1  0
  7  3  1  0
  9  8  1  0
 10  9  1  0
 11 10  1  0
 11 12  2  0
 12  7  1  0
 13 14  1  0
 13 12  1  0
 15 14  2  0
 16 17  2  0
 16 15  1  0
 17 13  1  0
 18 19  2  0
 18 17  1  0
 20 19  1  0
 21 20  2  0
 22 21  1  0
 22 27  2  0
 23 22  1  0
 24 23  2  0
 24 25  1  0
 25 26  2  0
 26 27  1  0
 27 18  1  0
  1 28  1  0
  2 29  1  0
  5 30  1  0
  8 31  1  0
  8 32  1  0
  9 33  1  0
  9 34  1  0
 10 35  1  0
 11 36  1  0
 14 37  1  0
 15 38  1  0
 19 39  1  0
 20 40  1  0
 21 41  1  0
 23 42  1  0
 24 43  1  0
 25 44  1  0
 26 45  1  0
M  ISO  8  28  14  29  14  30  14  31  13  32  13  33  13  34  13  36  13
M  ISO  8  37  14  38  14  39  14  40  14  41  14  42  14  43  14  44  14
M  ISO  1  45  14
M  END
>  <minimizedAffinity>  (1) 
-5.69014692

>  <minimizedRMSD>  (1) 
4.59020662

$$$$
