
     RDKit          3D

 32 34  0  0  0  0  0  0  0  0999 V2000
   37.0770   29.1140   49.8430 C   0  0  0  0  0  0  0  0  0  0  0  0
   37.9720   30.1790   49.6040 C   0  0  0  0  0  0  0  0  0  0  0  0
   37.5130   31.2420   48.7560 C   0  0  0  0  0  0  0  0  0  0  0  0
   36.2300   31.1320   48.2430 N   0  0  0  0  0  0  0  0  0  0  0  0
   35.4290   30.0980   48.5060 C   0  0  0  0  0  0  0  0  0  0  0  0
   35.8440   29.0880   49.3040 N   0  0  0  0  0  0  0  0  0  0  0  0
   38.3320   32.3530   48.4530 N   0  0  0  0  0  0  0  0  0  0  0  0
   38.4960   33.3920   49.4960 C   0  0  0  0  0  0  0  0  0  0  0  0
   39.7330   34.1700   49.2600 C   0  0  0  0  0  0  0  0  0  0  0  0
   39.8870   34.5710   47.8630 N   0  0  0  0  0  0  0  0  0  0  0  0
   39.7430   33.5510   46.8770 C   0  0  0  0  0  0  0  0  0  0  0  0
   38.9280   32.3840   47.1820 C   0  0  0  0  0  0  0  0  0  0  0  0
   38.8830   31.4850   46.1320 N   0  0  0  0  0  0  0  0  0  0  0  0
   37.7690   31.0370   45.5340 C   0  0  0  0  0  0  0  0  0  0  0  0
   38.0320   30.1500   44.5060 C   0  0  0  0  0  0  0  0  0  0  0  0
   39.3970   30.0380   44.4610 N   0  0  0  0  0  0  0  0  0  0  0  0
   39.8490   30.8580   45.4560 C   0  0  0  0  0  0  0  0  0  0  0  0
   41.3220   31.0160   45.7360 C   0  0  0  0  0  0  0  0  0  0  0  0
   37.3962   28.2820   50.4879 H   0  0  0  0  0  0  0  0  0  0  0  0
   38.9780   30.1936   50.0486 H   0  0  0  0  0  0  0  0  0  0  0  0
   34.4200   30.0666   48.0690 H   0  0  0  0  0  0  0  0  0  0  0  0
   37.6307   34.0707   49.4706 H   0  0  0  0  0  0  0  0  0  0  0  0
   38.5644   32.9029   50.4789 H   0  0  0  0  0  0  0  0  0  0  0  0
   39.7048   35.0747   49.8851 H   0  0  0  0  0  0  0  0  0  0  0  0
   40.5862   33.5253   49.5175 H   0  0  0  0  0  0  0  0  0  0  0  0
   40.0904   35.5465   47.6024 H   0  0  0  0  0  0  0  0  0  0  0  0
   40.2404   33.6446   45.9004 H   0  0  0  0  0  0  0  0  0  0  0  0
   36.7545   31.3425   45.8297 H   0  0  0  0  0  0  0  0  0  0  0  0
   37.3002   29.6418   43.8609 H   0  0  0  0  0  0  0  0  0  0  0  0
   41.4887   31.0339   46.8231 H   0  0  0  0  0  0  0  0  0  0  0  0
   41.8718   30.1717   45.2946 H   0  0  0  0  0  0  0  0  0  0  0  0
   41.6802   31.9577   45.2946 H   0  0  0  0  0  0  0  0  0  0  0  0
  2  1  2  0
  3  2  1  0
  4  5  1  0
  4  3  2  0
  5  6  2  0
  6  1  1  0
  7  3  1  0
  7  8  1  0
  9  8  1  0
 10  9  1  0
 11 12  2  0
 11 10  1  0
 12  7  1  0
 13 12  1  0
 14 13  1  0
 15 14  2  0
 16 15  1  0
 16 17  2  0
 17 18  1  0
 17 13  1  0
  1 19  1  0
  2 20  1  0
  5 21  1  0
  8 22  1  0
  8 23  1  0
  9 24  1  0
  9 25  1  0
 10 26  1  0
 11 27  1  0
 14 28  1  0
 15 29  1  0
 18 30  1  0
 18 31  1  0
 18 32  1  0
M  ISO  8  19  14  20  14  21  14  22  13  23  13  24  13  25  13  27  13
M  ISO  5  28  14  29  14  30   8  31   8  32   8
M  END
>  <minimizedAffinity>  (1) 
-5.35545111

>  <minimizedRMSD>  (1) 
0.374450892

$$$$
