
     RDKit          3D

 37 40  0  0  0  0  0  0  0  0999 V2000
   36.8180   28.9900   50.0530 C   0  0  0  0  0  0  0  0  0  0  0  0
   37.6000   29.7150   49.1330 C   0  0  0  0  0  0  0  0  0  0  0  0
   37.0000   30.8340   48.4730 C   0  0  0  0  0  0  0  0  0  0  0  0
   35.6810   31.1110   48.8020 N   0  0  0  0  0  0  0  0  0  0  0  0
   34.9860   30.3860   49.6860 C   0  0  0  0  0  0  0  0  0  0  0  0
   35.5380   29.3390   50.3070 N   0  0  0  0  0  0  0  0  0  0  0  0
   37.7050   31.6180   47.5370 N   0  0  0  0  0  0  0  0  0  0  0  0
   38.6880   32.5940   48.0450 C   0  0  0  0  0  0  0  0  0  0  0  0
   39.6910   32.9030   47.0010 C   0  0  0  0  0  0  0  0  0  0  0  0
   39.0820   33.1850   45.6970 N   0  0  0  0  0  0  0  0  0  0  0  0
   38.1410   32.2360   45.2200 C   0  0  0  0  0  0  0  0  0  0  0  0
   37.4130   31.4080   46.1790 C   0  0  0  0  0  0  0  0  0  0  0  0
   36.5350   30.5350   45.5560 N   0  0  0  0  0  0  0  0  0  0  0  0
   35.3220   30.1880   46.0050 C   0  0  0  0  0  0  0  0  0  0  0  0
   34.6720   29.3030   45.1670 C   0  0  0  0  0  0  0  0  0  0  0  0
   35.5410   29.0850   44.1280 N   0  0  0  0  0  0  0  0  0  0  0  0
   36.6400   29.8470   44.4100 C   0  0  0  0  0  0  0  0  0  0  0  0
   37.8160   29.8830   43.5150 C   0  0  0  0  0  0  0  0  0  0  0  0
   38.9370   29.1080   43.7530 C   0  0  0  0  0  0  0  0  0  0  0  0
   39.9720   29.2290   42.8450 C   0  0  0  0  0  0  0  0  0  0  0  0
   39.9330   30.0450   41.7730 N   0  0  0  0  0  0  0  0  0  0  0  0
   38.8360   30.7730   41.5810 C   0  0  0  0  0  0  0  0  0  0  0  0
   37.7780   30.7080   42.4300 N   0  0  0  0  0  0  0  0  0  0  0  0
   37.2566   28.1256   50.5731 H   0  0  0  0  0  0  0  0  0  0  0  0
   38.6422   29.4293   48.9277 H   0  0  0  0  0  0  0  0  0  0  0  0
   33.9425   30.6562   49.9055 H   0  0  0  0  0  0  0  0  0  0  0  0
   38.1662   33.5188   48.3321 H   0  0  0  0  0  0  0  0  0  0  0  0
   39.2008   32.1644   48.9182 H   0  0  0  0  0  0  0  0  0  0  0  0
   40.2685   33.7840   47.3176 H   0  0  0  0  0  0  0  0  0  0  0  0
   40.3322   32.0170   46.8836 H   0  0  0  0  0  0  0  0  0  0  0  0
   39.3245   34.0273   45.1560 H   0  0  0  0  0  0  0  0  0  0  0  0
   37.9616   32.1249   44.1404 H   0  0  0  0  0  0  0  0  0  0  0  0
   34.8890   30.5677   46.9422 H   0  0  0  0  0  0  0  0  0  0  0  0
   33.6716   28.8664   45.3035 H   0  0  0  0  0  0  0  0  0  0  0  0
   39.0012   28.4319   44.6183 H   0  0  0  0  0  0  0  0  0  0  0  0
   40.8777   28.6259   43.0062 H   0  0  0  0  0  0  0  0  0  0  0  0
   38.7846   31.4452   40.7118 H   0  0  0  0  0  0  0  0  0  0  0  0
  1  6  2  0
  2  1  1  0
  3  4  1  0
  3  2  2  0
  4  5  2  0
  5  6  1  0
  7  8  1  0
  7  3  1  0
  9  8  1  0
 10  9  1  0
 11 10  1  0
 11 12  2  0
 12  7  1  0
 13 14  1  0
 13 12  1  0
 15 14  2  0
 16 17  2  0
 16 15  1  0
 17 13  1  0
 18 19  2  0
 18 17  1  0
 20 19  1  0
 21 20  2  0
 22 21  1  0
 22 23  2  0
 23 18  1  0
  1 24  1  0
  2 25  1  0
  5 26  1  0
  8 27  1  0
  8 28  1  0
  9 29  1  0
  9 30  1  0
 10 31  1  0
 11 32  1  0
 14 33  1  0
 15 34  1  0
 19 35  1  0
 20 36  1  0
 22 37  1  0
M  ISO  8  24  14  25  14  26  14  27  13  28  13  29  13  30  13  32  13
M  ISO  5  33  14  34  14  35  14  36  14  37  14
M  END
>  <minimizedAffinity>  (1) 
-5.27266502

>  <minimizedRMSD>  (1) 
3.55968094

$$$$
