
     RDKit          3D

 36 39  0  0  0  0  0  0  0  0999 V2000
   36.7950   28.9940   50.0030 C   0  0  0  0  0  0  0  0  0  0  0  0
   37.5930   29.7230   49.0940 C   0  0  0  0  0  0  0  0  0  0  0  0
   36.9970   30.8370   48.4300 C   0  0  0  0  0  0  0  0  0  0  0  0
   35.6730   31.1070   48.7390 N   0  0  0  0  0  0  0  0  0  0  0  0
   34.9650   30.3830   49.6070 C   0  0  0  0  0  0  0  0  0  0  0  0
   35.5130   29.3350   50.2390 N   0  0  0  0  0  0  0  0  0  0  0  0
   37.7120   31.6250   47.5040 N   0  0  0  0  0  0  0  0  0  0  0  0
   38.6810   32.6060   48.0230 C   0  0  0  0  0  0  0  0  0  0  0  0
   39.6990   32.9250   46.9970 C   0  0  0  0  0  0  0  0  0  0  0  0
   39.1110   33.2020   45.6950 N   0  0  0  0  0  0  0  0  0  0  0  0
   38.1860   32.2490   45.1950 C   0  0  0  0  0  0  0  0  0  0  0  0
   37.4390   31.4080   46.1380 C   0  0  0  0  0  0  0  0  0  0  0  0
   36.5780   30.5310   45.5000 N   0  0  0  0  0  0  0  0  0  0  0  0
   35.3560   30.1940   45.9330 C   0  0  0  0  0  0  0  0  0  0  0  0
   34.7290   29.3010   45.0870 C   0  0  0  0  0  0  0  0  0  0  0  0
   35.6190   29.0730   44.0710 N   0  0  0  0  0  0  0  0  0  0  0  0
   36.7160   29.8370   44.3650 C   0  0  0  0  0  0  0  0  0  0  0  0
   37.8950   29.8600   43.4990 C   0  0  0  0  0  0  0  0  0  0  0  0
   38.9480   28.9960   43.7770 C   0  0  0  0  0  0  0  0  0  0  0  0
   39.9200   29.2200   42.8200 C   0  0  0  0  0  0  0  0  0  0  0  0
   39.3990   30.2220   41.9980 C   0  0  0  0  0  0  0  0  0  0  0  0
   38.1970   30.5680   42.4410 O   0  0  0  0  0  0  0  0  0  0  0  0
   37.2287   28.1306   50.5288 H   0  0  0  0  0  0  0  0  0  0  0  0
   38.6393   29.4416   48.9040 H   0  0  0  0  0  0  0  0  0  0  0  0
   33.9167   30.6494   49.8073 H   0  0  0  0  0  0  0  0  0  0  0  0
   38.1486   33.5270   48.3027 H   0  0  0  0  0  0  0  0  0  0  0  0
   39.1850   32.1764   48.9013 H   0  0  0  0  0  0  0  0  0  0  0  0
   40.2642   33.8102   47.3242 H   0  0  0  0  0  0  0  0  0  0  0  0
   40.3510   32.0457   46.8888 H   0  0  0  0  0  0  0  0  0  0  0  0
   39.3545   34.0491   45.1620 H   0  0  0  0  0  0  0  0  0  0  0  0
   38.0303   32.1416   44.1114 H   0  0  0  0  0  0  0  0  0  0  0  0
   34.9038   30.5841   46.8568 H   0  0  0  0  0  0  0  0  0  0  0  0
   33.7261   28.8646   45.2042 H   0  0  0  0  0  0  0  0  0  0  0  0
   38.9982   28.2709   44.6027 H   0  0  0  0  0  0  0  0  0  0  0  0
   40.8940   28.7174   42.7260 H   0  0  0  0  0  0  0  0  0  0  0  0
   39.9048   30.6554   41.1226 H   0  0  0  0  0  0  0  0  0  0  0  0
  1  6  2  0
  2  1  1  0
  3  4  1  0
  3  2  2  0
  4  5  2  0
  5  6  1  0
  7  8  1  0
  7  3  1  0
  9  8  1  0
 10  9  1  0
 11 10  1  0
 11 12  2  0
 12  7  1  0
 13 14  1  0
 13 12  1  0
 15 14  2  0
 16 17  2  0
 16 15  1  0
 17 13  1  0
 18 19  2  0
 18 17  1  0
 20 19  1  0
 21 22  1  0
 21 20  2  0
 22 18  1  0
  1 23  1  0
  2 24  1  0
  5 25  1  0
  8 26  1  0
  8 27  1  0
  9 28  1  0
  9 29  1  0
 10 30  1  0
 11 31  1  0
 14 32  1  0
 15 33  1  0
 19 34  1  0
 20 35  1  0
 21 36  1  0
M  ISO  8  23  14  24  14  25  14  26  13  27  13  28  13  29  13  31  13
M  ISO  5  32  14  33  14  34  14  35  14  36  14
M  END
>  <minimizedAffinity>  (1) 
-5.15936232

>  <minimizedRMSD>  (1) 
3.29199243

$$$$
