
     RDKit          3D

 36 39  0  0  0  0  0  0  0  0999 V2000
   36.8860   29.0390   49.8190 C   0  0  0  0  0  0  0  0  0  0  0  0
   37.6780   29.7900   48.9380 C   0  0  0  0  0  0  0  0  0  0  0  0
   37.0780   30.8980   48.2490 C   0  0  0  0  0  0  0  0  0  0  0  0
   35.7460   31.1340   48.5200 N   0  0  0  0  0  0  0  0  0  0  0  0
   35.0240   30.3920   49.3690 C   0  0  0  0  0  0  0  0  0  0  0  0
   35.5730   29.3620   50.0110 N   0  0  0  0  0  0  0  0  0  0  0  0
   37.8060   31.7000   47.3500 N   0  0  0  0  0  0  0  0  0  0  0  0
   38.7490   32.6920   47.9060 C   0  0  0  0  0  0  0  0  0  0  0  0
   39.7710   33.0600   46.9050 C   0  0  0  0  0  0  0  0  0  0  0  0
   39.1990   33.3370   45.5820 N   0  0  0  0  0  0  0  0  0  0  0  0
   38.3170   32.3570   45.0570 C   0  0  0  0  0  0  0  0  0  0  0  0
   37.5770   31.4900   45.9770 C   0  0  0  0  0  0  0  0  0  0  0  0
   36.7620   30.5900   45.3180 N   0  0  0  0  0  0  0  0  0  0  0  0
   35.4570   30.3950   45.5450 C   0  0  0  0  0  0  0  0  0  0  0  0
   34.8950   29.4370   44.7310 C   0  0  0  0  0  0  0  0  0  0  0  0
   35.9110   29.0050   43.9440 N   0  0  0  0  0  0  0  0  0  0  0  0
   37.0240   29.7230   44.3260 C   0  0  0  0  0  0  0  0  0  0  0  0
   38.3060   29.5400   43.7100 N   0  0  0  0  0  0  0  0  0  0  0  0
   39.2730   30.4430   43.4720 C   0  0  0  0  0  0  0  0  0  0  0  0
   40.3360   29.8170   42.8580 C   0  0  0  0  0  0  0  0  0  0  0  0
   40.0240   28.5160   42.7170 N   0  0  0  0  0  0  0  0  0  0  0  0
   38.7910   28.3770   43.2400 C   0  0  0  0  0  0  0  0  0  0  0  0
   37.3244   28.1860   50.3577 H   0  0  0  0  0  0  0  0  0  0  0  0
   38.7362   29.5357   48.7782 H   0  0  0  0  0  0  0  0  0  0  0  0
   33.9648   30.6358   49.5384 H   0  0  0  0  0  0  0  0  0  0  0  0
   38.1921   33.5934   48.2014 H   0  0  0  0  0  0  0  0  0  0  0  0
   39.2522   32.2507   48.7789 H   0  0  0  0  0  0  0  0  0  0  0  0
   40.2978   33.9599   47.2553 H   0  0  0  0  0  0  0  0  0  0  0  0
   40.4525   32.2032   46.7978 H   0  0  0  0  0  0  0  0  0  0  0  0
   39.4257   34.1969   45.0623 H   0  0  0  0  0  0  0  0  0  0  0  0
   38.1903   32.2495   43.9696 H   0  0  0  0  0  0  0  0  0  0  0  0
   34.8886   30.9468   46.3081 H   0  0  0  0  0  0  0  0  0  0  0  0
   33.8491   29.0963   44.7214 H   0  0  0  0  0  0  0  0  0  0  0  0
   39.2236   31.5119   43.7269 H   0  0  0  0  0  0  0  0  0  0  0  0
   41.2736   30.2962   42.5396 H   0  0  0  0  0  0  0  0  0  0  0  0
   38.2442   27.4233   43.2784 H   0  0  0  0  0  0  0  0  0  0  0  0
  1  6  2  0
  2  1  1  0
  3  4  1  0
  3  2  2  0
  4  5  2  0
  5  6  1  0
  7  8  1  0
  7  3  1  0
  9  8  1  0
 10  9  1  0
 11 10  1  0
 11 12  2  0
 12  7  1  0
 13 14  1  0
 13 12  1  0
 15 14  2  0
 16 17  2  0
 16 15  1  0
 17 13  1  0
 18 17  1  0
 19 18  1  0
 20 19  2  0
 21 20  1  0
 21 22  2  0
 22 18  1  0
  1 23  1  0
  2 24  1  0
  5 25  1  0
  8 26  1  0
  8 27  1  0
  9 28  1  0
  9 29  1  0
 10 30  1  0
 11 31  1  0
 14 32  1  0
 15 33  1  0
 19 34  1  0
 20 35  1  0
 22 36  1  0
M  ISO  8  23  14  24  14  25  14  26  13  27  13  28  13  29  13  31  13
M  ISO  5  32  14  33  14  34  14  35  14  36  14
M  END
>  <minimizedAffinity>  (1) 
-5.08143425

>  <minimizedRMSD>  (1) 
2.9790287

$$$$
