
     RDKit          3D

 42 45  0  0  0  0  0  0  0  0999 V2000
   36.7690   29.0040   49.6930 C   0  0  0  0  0  0  0  0  0  0  0  0
   37.6250   29.7740   48.8820 C   0  0  0  0  0  0  0  0  0  0  0  0
   37.0420   30.8780   48.1700 C   0  0  0  0  0  0  0  0  0  0  0  0
   35.6930   31.0820   48.3450 N   0  0  0  0  0  0  0  0  0  0  0  0
   34.9270   30.3210   49.1260 C   0  0  0  0  0  0  0  0  0  0  0  0
   35.4550   29.2830   49.8020 N   0  0  0  0  0  0  0  0  0  0  0  0
   37.8080   31.7110   47.3310 N   0  0  0  0  0  0  0  0  0  0  0  0
   38.6760   32.7320   47.9680 C   0  0  0  0  0  0  0  0  0  0  0  0
   39.7770   33.1110   47.0460 C   0  0  0  0  0  0  0  0  0  0  0  0
   39.2980   33.3910   45.6880 N   0  0  0  0  0  0  0  0  0  0  0  0
   38.4760   32.3950   45.0890 C   0  0  0  0  0  0  0  0  0  0  0  0
   37.6920   31.5120   45.9450 C   0  0  0  0  0  0  0  0  0  0  0  0
   36.9480   30.6010   45.2160 N   0  0  0  0  0  0  0  0  0  0  0  0
   35.6190   30.3910   45.3340 C   0  0  0  0  0  0  0  0  0  0  0  0
   35.1600   29.4210   44.4650 C   0  0  0  0  0  0  0  0  0  0  0  0
   36.2550   28.9980   43.7640 N   0  0  0  0  0  0  0  0  0  0  0  0
   37.2910   29.7370   44.2550 C   0  0  0  0  0  0  0  0  0  0  0  0
   38.6870   29.5590   43.7300 C   0  0  0  0  0  0  0  0  0  0  0  0
   38.8890   28.1000   43.3900 C   0  0  0  0  0  0  0  0  0  0  0  0
   40.1310   28.1790   42.5280 C   0  0  0  0  0  0  0  0  0  0  0  0
   40.0370   29.5230   41.8110 C   0  0  0  0  0  0  0  0  0  0  0  0
   38.9330   30.2980   42.4560 C   0  0  0  0  0  0  0  0  0  0  0  0
   37.1838   28.1524   50.2522 H   0  0  0  0  0  0  0  0  0  0  0  0
   38.6964   29.5399   48.7969 H   0  0  0  0  0  0  0  0  0  0  0  0
   33.8536   30.5428   49.2193 H   0  0  0  0  0  0  0  0  0  0  0  0
   38.0763   33.6232   48.2047 H   0  0  0  0  0  0  0  0  0  0  0  0
   39.1058   32.3150   48.8907 H   0  0  0  0  0  0  0  0  0  0  0  0
   40.2723   34.0114   47.4385 H   0  0  0  0  0  0  0  0  0  0  0  0
   40.4729   32.2611   46.9875 H   0  0  0  0  0  0  0  0  0  0  0  0
   39.5432   34.2612   45.1946 H   0  0  0  0  0  0  0  0  0  0  0  0
   38.4327   32.2927   43.9946 H   0  0  0  0  0  0  0  0  0  0  0  0
   34.9747   30.9319   46.0427 H   0  0  0  0  0  0  0  0  0  0  0  0
   34.1256   29.0622   44.3586 H   0  0  0  0  0  0  0  0  0  0  0  0
   39.3635   29.9361   44.5111 H   0  0  0  0  0  0  0  0  0  0  0  0
   39.0601   27.4941   44.2920 H   0  0  0  0  0  0  0  0  0  0  0  0
   38.0262   27.6222   42.9029 H   0  0  0  0  0  0  0  0  0  0  0  0
   41.0363   28.1371   43.1514 H   0  0  0  0  0  0  0  0  0  0  0  0
   40.1937   27.3394   41.8201 H   0  0  0  0  0  0  0  0  0  0  0  0
   39.8133   29.3658   40.7455 H   0  0  0  0  0  0  0  0  0  0  0  0
   40.9889   30.0694   41.8839 H   0  0  0  0  0  0  0  0  0  0  0  0
   39.2445   31.3338   42.6561 H   0  0  0  0  0  0  0  0  0  0  0  0
   38.0359   30.3729   41.8239 H   0  0  0  0  0  0  0  0  0  0  0  0
  1  6  2  0
  2  1  1  0
  3  4  1  0
  3  2  2  0
  4  5  2  0
  5  6  1  0
  7  8  1  0
  7  3  1  0
  9  8  1  0
 10  9  1  0
 11 10  1  0
 11 12  2  0
 12  7  1  0
 13 14  1  0
 13 12  1  0
 15 14  2  0
 16 17  2  0
 16 15  1  0
 17 13  1  0
 18 17  1  0
 19 18  1  0
 20 19  1  0
 21 22  1  0
 21 20  1  0
 22 18  1  0
  1 23  1  0
  2 24  1  0
  5 25  1  0
  8 26  1  0
  8 27  1  0
  9 28  1  0
  9 29  1  0
 10 30  1  0
 11 31  1  0
 14 32  1  0
 15 33  1  0
 18 34  1  0
 19 35  1  0
 19 36  1  0
 20 37  1  0
 20 38  1  0
 21 39  1  0
 21 40  1  0
 22 41  1  0
 22 42  1  0
M  ISO  8  23  14  24  14  25  14  26  13  27  13  28  13  29  13  31  13
M  ISO  8  32  14  33  14  34  13  35  13  36  13  37  13  38  13  39  13
M  ISO  3  40  13  41  13  42  13
M  END
>  <minimizedAffinity>  (1) 
-4.82274437

>  <minimizedRMSD>  (1) 
3.09239388

$$$$
