
     RDKit          3D

 38 40  0  0  0  0  0  0  0  0999 V2000
   36.9600   29.0180   50.3870 C   0  0  0  0  0  0  0  0  0  0  0  0
   37.8310   30.0640   50.0430 C   0  0  0  0  0  0  0  0  0  0  0  0
   37.2910   31.2010   49.3810 C   0  0  0  0  0  0  0  0  0  0  0  0
   35.9220   31.1820   49.1240 N   0  0  0  0  0  0  0  0  0  0  0  0
   35.1410   30.1550   49.4750 C   0  0  0  0  0  0  0  0  0  0  0  0
   35.6370   29.0850   50.0960 N   0  0  0  0  0  0  0  0  0  0  0  0
   38.0860   32.2970   48.9970 N   0  0  0  0  0  0  0  0  0  0  0  0
   38.5090   33.2540   50.0410 C   0  0  0  0  0  0  0  0  0  0  0  0
   39.7380   33.9770   49.6040 C   0  0  0  0  0  0  0  0  0  0  0  0
   39.6260   34.4930   48.2510 N   0  0  0  0  0  0  0  0  0  0  0  0
   39.2330   33.5640   47.2600 C   0  0  0  0  0  0  0  0  0  0  0  0
   38.4220   32.4010   47.6320 C   0  0  0  0  0  0  0  0  0  0  0  0
   38.1220   31.5910   46.5480 N   0  0  0  0  0  0  0  0  0  0  0  0
   36.9960   30.8830   46.4180 C   0  0  0  0  0  0  0  0  0  0  0  0
   36.9610   30.1710   45.2340 C   0  0  0  0  0  0  0  0  0  0  0  0
   38.1420   30.4600   44.6000 N   0  0  0  0  0  0  0  0  0  0  0  0
   38.7930   31.3120   45.4330 C   0  0  0  0  0  0  0  0  0  0  0  0
   40.1470   31.8700   45.0920 C   0  0  0  0  0  0  0  0  0  0  0  0
   40.3230   31.9510   43.5830 C   0  0  0  0  0  0  0  0  0  0  0  0
   41.2650   30.9740   45.5890 C   0  0  0  0  0  0  0  0  0  0  0  0
   37.3569   28.1300   50.9007 H   0  0  0  0  0  0  0  0  0  0  0  0
   38.9037   30.0056   50.2795 H   0  0  0  0  0  0  0  0  0  0  0  0
   34.0658   30.1940   49.2463 H   0  0  0  0  0  0  0  0  0  0  0  0
   37.7023   33.9808   50.2171 H   0  0  0  0  0  0  0  0  0  0  0  0
   38.7250   32.7036   50.9686 H   0  0  0  0  0  0  0  0  0  0  0  0
   39.9150   34.8189   50.2895 H   0  0  0  0  0  0  0  0  0  0  0  0
   40.5724   33.2604   49.6213 H   0  0  0  0  0  0  0  0  0  0  0  0
   39.8216   35.4790   48.0262 H   0  0  0  0  0  0  0  0  0  0  0  0
   39.5350   33.7136   46.2129 H   0  0  0  0  0  0  0  0  0  0  0  0
   36.1903   30.8686   47.1667 H   0  0  0  0  0  0  0  0  0  0  0  0
   36.1562   29.5121   44.8761 H   0  0  0  0  0  0  0  0  0  0  0  0
   40.1988   32.8601   45.5685 H   0  0  0  0  0  0  0  0  0  0  0  0
   41.2999   32.4006   43.3514 H   0  0  0  0  0  0  0  0  0  0  0  0
   40.2737   30.9396   43.1533 H   0  0  0  0  0  0  0  0  0  0  0  0
   39.5227   32.5714   43.1533 H   0  0  0  0  0  0  0  0  0  0  0  0
   41.2701   30.9699   46.6890 H   0  0  0  0  0  0  0  0  0  0  0  0
   41.1063   29.9502   45.2193 H   0  0  0  0  0  0  0  0  0  0  0  0
   42.2296   31.3519   45.2193 H   0  0  0  0  0  0  0  0  0  0  0  0
  2  1  2  0
  3  2  1  0
  4  3  2  0
  4  5  1  0
  5  6  2  0
  6  1  1  0
  7  3  1  0
  7  8  1  0
  9  8  1  0
 10  9  1  0
 11 12  2  0
 11 10  1  0
 12  7  1  0
 13 12  1  0
 14 13  1  0
 15 14  2  0
 16 15  1  0
 16 17  2  0
 17 13  1  0
 18 17  1  0
 18 20  1  0
 19 18  1  0
  1 21  1  0
  2 22  1  0
  5 23  1  0
  8 24  1  0
  8 25  1  0
  9 26  1  0
  9 27  1  0
 10 28  1  0
 11 29  1  0
 14 30  1  0
 15 31  1  0
 18 32  1  0
 19 33  1  0
 19 34  1  0
 19 35  1  0
 20 36  1  0
 20 37  1  0
 20 38  1  0
M  ISO  8  21  14  22  14  23  14  24  13  25  13  26  13  27  13  29  13
M  ISO  8  30  14  31  14  32   8  33   8  34   8  35   8  36   8  37   8
M  ISO  1  38   8
M  END
>  <minimizedAffinity>  (1) 
-4.8069973

>  <minimizedRMSD>  (1) 
1.2902323

$$$$
