
     RDKit          3D

 23 24  0  0  0  0  0  0  0  0999 V2000
   36.1370   30.4400   49.1910 C   0  0  0  0  0  0  0  0  0  0  0  0
   36.0570   29.8750   50.4720 C   0  0  0  0  0  0  0  0  0  0  0  0
   35.0010   28.9840   50.5080 C   0  0  0  0  0  0  0  0  0  0  0  0
   34.4650   29.0240   49.2630 N   0  0  0  0  0  0  0  0  0  0  0  0
   35.1220   29.8680   48.4980 N   0  0  0  0  0  0  0  0  0  0  0  0
   38.3640   33.3920   49.2170 C   0  0  0  0  0  0  0  0  0  0  0  0
   39.1620   33.1180   48.1090 C   0  0  0  0  0  0  0  0  0  0  0  0
   38.9230   31.9510   47.3950 C   0  0  0  0  0  0  0  0  0  0  0  0
   37.9160   31.1110   47.7970 N   0  0  0  0  0  0  0  0  0  0  0  0
   37.1630   31.4130   48.8790 C   0  0  0  0  0  0  0  0  0  0  0  0
   37.3860   32.5430   49.5790 N   0  0  0  0  0  0  0  0  0  0  0  0
   33.3240   28.2050   48.9330 C   0  0  0  0  0  0  0  0  0  0  0  0
   33.7660   27.1340   47.9760 C   0  0  0  0  0  0  0  0  0  0  0  0
   36.7274   30.1042   51.3135 H   0  0  0  0  0  0  0  0  0  0  0  0
   34.6678   28.3748   51.3611 H   0  0  0  0  0  0  0  0  0  0  0  0
   38.5349   34.3091   49.7999 H   0  0  0  0  0  0  0  0  0  0  0  0
   39.9624   33.8093   47.8066 H   0  0  0  0  0  0  0  0  0  0  0  0
   39.5354   31.7028   46.5156 H   0  0  0  0  0  0  0  0  0  0  0  0
   32.9222   27.7431   49.8469 H   0  0  0  0  0  0  0  0  0  0  0  0
   32.5385   28.8216   48.4717 H   0  0  0  0  0  0  0  0  0  0  0  0
   34.1258   26.2622   48.5421 H   0  0  0  0  0  0  0  0  0  0  0  0
   32.9176   26.8353   47.3427 H   0  0  0  0  0  0  0  0  0  0  0  0
   34.5781   27.5206   47.3427 H   0  0  0  0  0  0  0  0  0  0  0  0
  1  2  1  0
  2  3  2  0
  4  3  1  0
  5  1  2  0
  5  4  1  0
  6 11  2  0
  7  6  1  0
  8  9  1  0
  8  7  2  0
  9 10  2  0
 10  1  1  0
 10 11  1  0
 12  4  1  0
 13 12  1  0
  2 14  1  0
  3 15  1  0
  6 16  1  0
  7 17  1  0
  8 18  1  0
 12 19  1  0
 12 20  1  0
 13 21  1  0
 13 22  1  0
 13 23  1  0
M  ISO  8  14  14  15  14  16  14  17  14  18  14  19   8  20   8  21   8
M  ISO  2  22   8  23   8
M  END
>  <minimizedAffinity>  (1) 
-4.37731123

>  <minimizedRMSD>  (1) 
0.965241134

$$$$
