
     RDKit          3D

 32 34  0  0  1  0  0  0  0  0999 V2000
   37.5650   31.4100   48.4020 N   0  0  0  0  0  0  0  0  0  0  0  0
   38.5180   31.9000   49.4090 C   0  0  0  0  0  0  0  0  0  0  0  0
   38.7740   33.2920   48.8750 C   0  0  0  0  0  0  0  0  0  0  0  0
   39.0600   32.9350   47.4280 C   0  0  0  0  0  0  0  0  0  0  0  0
   37.8250   32.1010   47.1480 C   0  0  1  0  0  0  0  0  0  0  0  0
   36.7100   29.2910   49.3820 C   0  0  0  0  0  0  0  0  0  0  0  0
   36.5620   30.4370   48.5780 C   0  0  0  0  0  0  0  0  0  0  0  0
   35.3350   30.6310   47.8940 C   0  0  0  0  0  0  0  0  0  0  0  0
   34.3580   29.6850   48.0570 N   0  0  0  0  0  0  0  0  0  0  0  0
   34.5470   28.6010   48.8390 C   0  0  0  0  0  0  0  0  0  0  0  0
   35.7040   28.4050   49.4930 N   0  0  0  0  0  0  0  0  0  0  0  0
   38.0630   31.1900   46.0440 N   0  0  0  0  0  0  0  0  0  0  0  0
   37.0310   30.8340   45.2280 C   0  0  0  0  0  0  0  0  0  0  0  0
   37.1450   29.9840   44.1560 C   0  0  0  0  0  0  0  0  0  0  0  0
   38.3800   29.4580   43.8910 C   0  0  0  0  0  0  0  0  0  0  0  0
   38.4900   28.6810   42.9140 O   0  0  0  0  0  0  0  0  0  0  0  0
   39.3880   29.8010   44.6790 N   0  0  0  0  0  0  0  0  0  0  0  0
   39.2360   30.6370   45.7190 C   0  0  0  0  0  0  0  0  0  0  0  0
   40.2280   30.9260   46.4320 O   0  0  0  0  0  0  0  0  0  0  0  0
   38.0726   31.9243   50.4145 H   0  0  0  0  0  0  0  0  0  0  0  0
   39.4178   31.2799   49.5350 H   0  0  0  0  0  0  0  0  0  0  0  0
   37.8919   33.9416   48.9741 H   0  0  0  0  0  0  0  0  0  0  0  0
   39.5625   33.8610   49.3892 H   0  0  0  0  0  0  0  0  0  0  0  0
   39.1120   33.8258   46.7848 H   0  0  0  0  0  0  0  0  0  0  0  0
   40.0227   32.4363   47.2426 H   0  0  0  0  0  0  0  0  0  0  0  0
   36.9567   32.7010   46.8380 H   0  0  0  0  0  0  0  0  0  0  0  0
   37.6528   29.1192   49.9220 H   0  0  0  0  0  0  0  0  0  0  0  0
   35.1734   31.5112   47.2544 H   0  0  0  0  0  0  0  0  0  0  0  0
   33.7375   27.8635   48.9428 H   0  0  0  0  0  0  0  0  0  0  0  0
   36.0386   31.2568   45.4432 H   0  0  0  0  0  0  0  0  0  0  0  0
   36.2741   29.7346   43.5320 H   0  0  0  0  0  0  0  0  0  0  0  0
   40.3224   29.4124   44.4871 H   0  0  0  0  0  0  0  0  0  0  0  0
  1  7  1  0
  1  2  1  0
  3  2  1  0
  4  3  1  0
  5  4  1  0
  5  1  1  0
  6 11  2  0
  7  6  1  0
  8  9  1  0
  8  7  2  0
  9 10  2  0
 10 11  1  0
 12  5  1  0
 13 12  1  0
 14 13  2  0
 15 14  1  0
 15 17  1  0
 16 15  2  0
 17 18  1  0
 18 12  1  0
 18 19  2  0
  2 20  1  0
  2 21  1  0
  3 22  1  0
  3 23  1  0
  4 24  1  0
  4 25  1  0
  5 26  1  6
  6 27  1  0
  8 28  1  0
 10 29  1  0
 13 30  1  0
 14 31  1  0
 17 32  1  0
M  ISO  8  20  13  21  13  22  13  23  13  24  13  25  13  26  13  27  14
M  ISO  5  28  14  29  14  30  14  31  14  32   9
M  END
>  <minimizedAffinity>  (1) 
-5.12826538

>  <minimizedRMSD>  (1) 
0.902440369

$$$$
