
     RDKit          3D

 32 34  0  0  1  0  0  0  0  0999 V2000
   37.3380   31.2020   48.8620 N   0  0  0  0  0  0  0  0  0  0  0  0
   38.2980   31.4140   49.9530 C   0  0  0  0  0  0  0  0  0  0  0  0
   38.6200   32.8730   49.7280 C   0  0  0  0  0  0  0  0  0  0  0  0
   38.8450   32.8820   48.2390 C   0  0  0  0  0  0  0  0  0  0  0  0
   37.6210   32.1190   47.7700 C   0  0  1  0  0  0  0  0  0  0  0  0
   36.3310   29.0040   49.4910 C   0  0  0  0  0  0  0  0  0  0  0  0
   36.2770   30.2560   48.8340 C   0  0  0  0  0  0  0  0  0  0  0  0
   35.1170   30.5930   48.1110 C   0  0  0  0  0  0  0  0  0  0  0  0
   34.1020   29.6630   48.0960 N   0  0  0  0  0  0  0  0  0  0  0  0
   34.1840   28.4800   48.7320 C   0  0  0  0  0  0  0  0  0  0  0  0
   35.2880   28.1640   49.4170 N   0  0  0  0  0  0  0  0  0  0  0  0
   38.0510   31.3600   46.5640 C   0  0  0  0  0  0  0  0  0  0  0  0
   37.1920   30.8600   45.6080 C   0  0  0  0  0  0  0  0  0  0  0  0
   37.6710   30.1590   44.5050 C   0  0  0  0  0  0  0  0  0  0  0  0
   39.0230   29.9360   44.3240 C   0  0  0  0  0  0  0  0  0  0  0  0
   39.8960   30.4340   45.2790 C   0  0  0  0  0  0  0  0  0  0  0  0
   39.3890   31.1240   46.3600 C   0  0  0  0  0  0  0  0  0  0  0  0
   37.8418   31.2426   50.9391 H   0  0  0  0  0  0  0  0  0  0  0  0
   39.1662   30.7386   49.9482 H   0  0  0  0  0  0  0  0  0  0  0  0
   37.7800   33.5226   50.0150 H   0  0  0  0  0  0  0  0  0  0  0  0
   39.4665   33.2507   50.3203 H   0  0  0  0  0  0  0  0  0  0  0  0
   38.8639   33.9059   47.8373 H   0  0  0  0  0  0  0  0  0  0  0  0
   39.8047   32.4511   47.9178 H   0  0  0  0  0  0  0  0  0  0  0  0
   36.7452   32.7386   47.5269 H   0  0  0  0  0  0  0  0  0  0  0  0
   37.2274   28.7199   50.0618 H   0  0  0  0  0  0  0  0  0  0  0  0
   35.0259   31.5538   47.5831 H   0  0  0  0  0  0  0  0  0  0  0  0
   33.3426   27.7728   48.6884 H   0  0  0  0  0  0  0  0  0  0  0  0
   36.1091   31.0180   45.7191 H   0  0  0  0  0  0  0  0  0  0  0  0
   36.9579   29.7741   43.7611 H   0  0  0  0  0  0  0  0  0  0  0  0
   39.3946   29.3810   43.4500 H   0  0  0  0  0  0  0  0  0  0  0  0
   40.9803   30.2805   45.1756 H   0  0  0  0  0  0  0  0  0  0  0  0
   40.1002   31.5095   47.1054 H   0  0  0  0  0  0  0  0  0  0  0  0
  1  2  1  0
  3  2  1  0
  4  3  1  0
  5  4  1  0
  5  1  1  0
  7  1  1  0
  7  6  2  0
  8  7  1  0
  9  8  2  0
  9 10  1  0
 10 11  2  0
 11  6  1  0
 12  5  1  0
 13 12  2  0
 14 13  1  0
 15 14  2  0
 15 16  1  0
 16 17  2  0
 17 12  1  0
  2 18  1  0
  2 19  1  0
  3 20  1  0
  3 21  1  0
  4 22  1  0
  4 23  1  0
  5 24  1  6
  6 25  1  0
  8 26  1  0
 10 27  1  0
 13 28  1  0
 14 29  1  0
 15 30  1  0
 16 31  1  0
 17 32  1  0
M  ISO  8  18  13  19  13  20  13  21  13  22  13  23  13  24  13  25  14
M  ISO  7  26  14  27  14  28  14  29  14  30  14  31  14  32  14
M  END
>  <minimizedAffinity>  (1) 
-5.10837603

>  <minimizedRMSD>  (1) 
1.17117715

$$$$
