
     RDKit          3D

 34 36  0  0  1  0  0  0  0  0999 V2000
   37.2830   31.1980   48.6050 N   0  0  0  0  0  0  0  0  0  0  0  0
   38.1540   31.7130   49.6780 C   0  0  0  0  0  0  0  0  0  0  0  0
   38.5380   33.0410   49.0690 C   0  0  0  0  0  0  0  0  0  0  0  0
   38.9270   32.5820   47.6710 C   0  0  0  0  0  0  0  0  0  0  0  0
   37.6620   31.8030   47.3270 C   0  0  1  0  0  0  0  0  0  0  0  0
   36.3130   29.1040   49.5470 C   0  0  0  0  0  0  0  0  0  0  0  0
   36.2250   30.2620   48.7280 C   0  0  0  0  0  0  0  0  0  0  0  0
   35.0460   30.4950   48.0080 C   0  0  0  0  0  0  0  0  0  0  0  0
   34.0380   29.5700   48.1470 N   0  0  0  0  0  0  0  0  0  0  0  0
   34.1590   28.4800   48.9360 C   0  0  0  0  0  0  0  0  0  0  0  0
   35.2910   28.2500   49.6320 N   0  0  0  0  0  0  0  0  0  0  0  0
   37.9080   30.7590   46.3710 N   0  0  0  0  0  0  0  0  0  0  0  0
   37.1380   30.8990   45.1830 C   0  0  0  0  0  0  0  0  0  0  0  0
   37.9720   30.3830   44.0330 C   0  0  0  0  0  0  0  0  0  0  0  0
   39.3530   30.1680   44.5890 C   0  0  0  0  0  0  0  0  0  0  0  0
   39.2810   30.5520   46.0530 C   0  0  0  0  0  0  0  0  0  0  0  0
   37.6087   31.8379   50.6251 H   0  0  0  0  0  0  0  0  0  0  0  0
   38.9969   31.0612   49.9512 H   0  0  0  0  0  0  0  0  0  0  0  0
   37.6905   33.7420   49.0484 H   0  0  0  0  0  0  0  0  0  0  0  0
   39.3194   33.5932   49.6117 H   0  0  0  0  0  0  0  0  0  0  0  0
   39.0909   33.4284   46.9878 H   0  0  0  0  0  0  0  0  0  0  0  0
   39.8689   32.0184   47.5987 H   0  0  0  0  0  0  0  0  0  0  0  0
   36.8956   32.4529   46.8794 H   0  0  0  0  0  0  0  0  0  0  0  0
   37.2334   28.9094   50.1170 H   0  0  0  0  0  0  0  0  0  0  0  0
   34.9318   31.3774   47.3612 H   0  0  0  0  0  0  0  0  0  0  0  0
   33.3223   27.7700   49.0118 H   0  0  0  0  0  0  0  0  0  0  0  0
   36.2107   30.3131   45.2661 H   0  0  0  0  0  0  0  0  0  0  0  0
   36.8670   31.9527   45.0208 H   0  0  0  0  0  0  0  0  0  0  0  0
   37.9983   31.1213   43.2180 H   0  0  0  0  0  0  0  0  0  0  0  0
   37.5551   29.4540   43.6168 H   0  0  0  0  0  0  0  0  0  0  0  0
   39.6464   29.1130   44.4850 H   0  0  0  0  0  0  0  0  0  0  0  0
   40.1007   30.7701   44.0519 H   0  0  0  0  0  0  0  0  0  0  0  0
   39.6934   29.7436   46.6747 H   0  0  0  0  0  0  0  0  0  0  0  0
   39.8663   31.4633   46.2452 H   0  0  0  0  0  0  0  0  0  0  0  0
  1  7  1  0
  1  2  1  0
  3  2  1  0
  4  3  1  0
  5  4  1  0
  5  1  1  0
  6 11  2  0
  7  6  1  0
  8  9  1  0
  8  7  2  0
  9 10  2  0
 10 11  1  0
 12 13  1  0
 12  5  1  0
 14 15  1  0
 14 13  1  0
 15 16  1  0
 16 12  1  0
  2 17  1  0
  2 18  1  0
  3 19  1  0
  3 20  1  0
  4 21  1  0
  4 22  1  0
  5 23  1  6
  6 24  1  0
  8 25  1  0
 10 26  1  0
 13 27  1  0
 13 28  1  0
 14 29  1  0
 14 30  1  0
 15 31  1  0
 15 32  1  0
 16 33  1  0
 16 34  1  0
M  ISO  8  17  13  18  13  19  13  20  13  21  13  22  13  23  13  24  14
M  ISO  8  25  14  26  14  27  13  28  13  29  13  30  13  31  13  32  13
M  ISO  2  33  13  34  13
M  END
>  <minimizedAffinity>  (1) 
-4.7975502

>  <minimizedRMSD>  (1) 
0.95174551

$$$$
