
     RDKit          3D

 29 31  0  0  1  0  0  0  0  0999 V2000
   37.3220   31.1880   48.8030 N   0  0  0  0  0  0  0  0  0  0  0  0
   38.2860   31.3880   49.9010 C   0  0  0  0  0  0  0  0  0  0  0  0
   38.6060   32.8560   49.6770 C   0  0  0  0  0  0  0  0  0  0  0  0
   38.9160   32.7800   48.1780 C   0  0  0  0  0  0  0  0  0  0  0  0
   37.6200   32.1100   47.7230 C   0  0  1  0  0  0  0  0  0  0  0  0
   36.2410   29.0440   49.5010 C   0  0  0  0  0  0  0  0  0  0  0  0
   36.2600   30.2550   48.7670 C   0  0  0  0  0  0  0  0  0  0  0  0
   35.1550   30.5420   47.9530 C   0  0  0  0  0  0  0  0  0  0  0  0
   34.1250   29.6360   47.9180 N   0  0  0  0  0  0  0  0  0  0  0  0
   34.1590   28.4910   48.6430 C   0  0  0  0  0  0  0  0  0  0  0  0
   35.2200   28.1970   49.4340 N   0  0  0  0  0  0  0  0  0  0  0  0
   37.8890   31.4180   46.4460 C   0  0  0  0  0  0  0  0  0  0  0  0
   38.8240   30.4780   46.0770 C   0  0  0  0  0  0  0  0  0  0  0  0
   38.6860   30.1300   44.7800 N   0  0  0  0  0  0  0  0  0  0  0  0
   37.6460   30.8610   44.3160 C   0  0  0  0  0  0  0  0  0  0  0  0
   37.1580   31.6440   45.3230 N   0  0  0  0  0  0  0  0  0  0  0  0
   37.8302   31.2116   50.8865 H   0  0  0  0  0  0  0  0  0  0  0  0
   39.1526   30.7105   49.8971 H   0  0  0  0  0  0  0  0  0  0  0  0
   37.7462   33.5075   49.8922 H   0  0  0  0  0  0  0  0  0  0  0  0
   39.3971   33.2803   50.3128 H   0  0  0  0  0  0  0  0  0  0  0  0
   39.0494   33.7756   47.7297 H   0  0  0  0  0  0  0  0  0  0  0  0
   39.8473   32.2625   47.9046 H   0  0  0  0  0  0  0  0  0  0  0  0
   36.7757   32.7913   47.5412 H   0  0  0  0  0  0  0  0  0  0  0  0
   37.0974   28.7975   50.1459 H   0  0  0  0  0  0  0  0  0  0  0  0
   35.1149   31.4672   47.3593 H   0  0  0  0  0  0  0  0  0  0  0  0
   33.3130   27.7900   48.5886 H   0  0  0  0  0  0  0  0  0  0  0  0
   39.5865   30.0632   46.7527 H   0  0  0  0  0  0  0  0  0  0  0  0
   37.2548   30.8295   43.2884 H   0  0  0  0  0  0  0  0  0  0  0  0
   36.3663   32.2981   45.2442 H   0  0  0  0  0  0  0  0  0  0  0  0
  1  2  1  0
  3  2  1  0
  4  3  1  0
  5  4  1  0
  5  1  1  0
  7  1  1  0
  7  6  2  0
  8  7  1  0
  9  8  2  0
  9 10  1  0
 10 11  2  0
 11  6  1  0
 12  5  1  0
 13 12  2  0
 14 13  1  0
 15 14  2  0
 15 16  1  0
 16 12  1  0
  2 17  1  0
  2 18  1  0
  3 19  1  0
  3 20  1  0
  4 21  1  0
  4 22  1  0
  5 23  1  6
  6 24  1  0
  8 25  1  0
 10 26  1  0
 13 27  1  0
 15 28  1  0
 16 29  1  0
M  ISO  8  17  13  18  13  19  13  20  13  21  13  22  13  23  13  24  14
M  ISO  5  25  14  26  14  27  14  28  14  29   9
M  END
>  <minimizedAffinity>  (1) 
-4.78702879

>  <minimizedRMSD>  (1) 
1.11449456

$$$$
