
     RDKit          3D

 34 35  0  0  1  0  0  0  0  0999 V2000
   37.5280   31.2890   48.6280 N   0  0  0  0  0  0  0  0  0  0  0  0
   38.4560   31.4200   49.7640 C   0  0  0  0  0  0  0  0  0  0  0  0
   38.6640   32.8990   49.7710 C   0  0  0  0  0  0  0  0  0  0  0  0
   38.8540   33.2020   48.3340 C   0  0  0  0  0  0  0  0  0  0  0  0
   37.8450   32.2940   47.6530 C   0  0  1  0  0  0  0  0  0  0  0  0
   36.3430   29.2060   49.3370 C   0  0  0  0  0  0  0  0  0  0  0  0
   36.4920   30.3370   48.5180 C   0  0  0  0  0  0  0  0  0  0  0  0
   35.5540   30.5630   47.5070 C   0  0  0  0  0  0  0  0  0  0  0  0
   34.5180   29.6660   47.3520 N   0  0  0  0  0  0  0  0  0  0  0  0
   34.4130   28.5840   48.1670 C   0  0  0  0  0  0  0  0  0  0  0  0
   35.3160   28.3560   49.1510 N   0  0  0  0  0  0  0  0  0  0  0  0
   38.5000   31.8380   46.4040 C   0  0  0  0  0  0  0  0  0  0  0  0
   37.7380   32.0710   45.1230 C   0  0  0  0  0  0  0  0  0  0  0  0
   39.7630   32.7090   46.2570 C   0  0  0  0  0  0  0  0  0  0  0  0
   39.0020   30.4330   46.3870 C   0  0  0  0  0  0  0  0  0  0  0  0
   38.0024   31.0686   50.7025 H   0  0  0  0  0  0  0  0  0  0  0  0
   39.3778   30.8263   49.6758 H   0  0  0  0  0  0  0  0  0  0  0  0
   37.7848   33.4223   50.1749 H   0  0  0  0  0  0  0  0  0  0  0  0
   39.5054   33.2208   50.4023 H   0  0  0  0  0  0  0  0  0  0  0  0
   38.6393   34.2598   48.1219 H   0  0  0  0  0  0  0  0  0  0  0  0
   39.8856   33.0358   47.9903 H   0  0  0  0  0  0  0  0  0  0  0  0
   36.8867   32.7374   47.3447 H   0  0  0  0  0  0  0  0  0  0  0  0
   37.0721   29.0130   50.1377 H   0  0  0  0  0  0  0  0  0  0  0  0
   35.6403   31.4393   46.8477 H   0  0  0  0  0  0  0  0  0  0  0  0
   33.5796   27.8802   48.0253 H   0  0  0  0  0  0  0  0  0  0  0  0
   36.7107   32.3851   45.3594 H   0  0  0  0  0  0  0  0  0  0  0  0
   38.2365   32.8578   44.5378 H   0  0  0  0  0  0  0  0  0  0  0  0
   37.7112   31.1400   44.5378 H   0  0  0  0  0  0  0  0  0  0  0  0
   40.1449   32.9724   47.2544 H   0  0  0  0  0  0  0  0  0  0  0  0
   40.5327   32.1488   45.7058 H   0  0  0  0  0  0  0  0  0  0  0  0
   39.5129   33.6275   45.7058 H   0  0  0  0  0  0  0  0  0  0  0  0
   39.1293   30.0766   47.4198 H   0  0  0  0  0  0  0  0  0  0  0  0
   38.2776   29.7911   45.8643 H   0  0  0  0  0  0  0  0  0  0  0  0
   39.9692   30.3955   45.8643 H   0  0  0  0  0  0  0  0  0  0  0  0
  1  2  1  0
  2  3  1  0
  4  3  1  0
  5  4  1  0
  5  1  1  0
  7  1  1  0
  7  6  2  0
  8  7  1  0
  9  8  2  0
  9 10  1  0
 10 11  2  0
 11  6  1  0
 12  5  1  0
 13 12  1  0
 14 12  1  0
 15 12  1  0
  2 16  1  0
  2 17  1  0
  3 18  1  0
  3 19  1  0
  4 20  1  0
  4 21  1  0
  5 22  1  6
  6 23  1  0
  8 24  1  0
 10 25  1  0
 13 26  1  0
 13 27  1  0
 13 28  1  0
 14 29  1  0
 14 30  1  0
 14 31  1  0
 15 32  1  0
 15 33  1  0
 15 34  1  0
M  ISO  8  16  13  17  13  18  13  19  13  20  13  21  13  22  13  23  14
M  ISO  8  24  14  25  14  26   8  27   8  28   8  29   8  30   8  31   8
M  ISO  3  32   8  33   8  34   8
M  END
>  <minimizedAffinity>  (1) 
-4.59693813

>  <minimizedRMSD>  (1) 
1.32304716

$$$$
