
     RDKit          3D

 25 26  0  0  1  0  0  0  0  0999 V2000
   37.4480   31.1910   48.7790 N   0  0  0  0  0  0  0  0  0  0  0  0
   38.3500   31.3900   49.9010 C   0  0  0  0  0  0  0  0  0  0  0  0
   38.6080   32.8810   49.7970 C   0  0  0  0  0  0  0  0  0  0  0  0
   38.8720   33.0170   48.3270 C   0  0  0  0  0  0  0  0  0  0  0  0
   37.8130   32.1240   47.7310 C   0  0  1  0  0  0  0  0  0  0  0  0
   36.2430   29.1360   49.5150 C   0  0  0  0  0  0  0  0  0  0  0  0
   36.3790   30.2650   48.6550 C   0  0  0  0  0  0  0  0  0  0  0  0
   35.4320   30.4650   47.6410 C   0  0  0  0  0  0  0  0  0  0  0  0
   34.4150   29.5580   47.5270 N   0  0  0  0  0  0  0  0  0  0  0  0
   34.3120   28.4950   48.3560 C   0  0  0  0  0  0  0  0  0  0  0  0
   35.2220   28.2920   49.3410 N   0  0  0  0  0  0  0  0  0  0  0  0
   38.5410   31.3870   46.5940 C   0  0  0  0  0  0  0  0  0  0  0  0
   37.7720   31.5540   45.4590 F   0  0  0  0  0  0  0  0  0  0  0  0
   39.7430   32.0470   46.4160 F   0  0  0  0  0  0  0  0  0  0  0  0
   38.7010   30.0620   46.8210 F   0  0  0  0  0  0  0  0  0  0  0  0
   37.8719   31.1275   50.8563 H   0  0  0  0  0  0  0  0  0  0  0  0
   39.2566   30.7678   49.8725 H   0  0  0  0  0  0  0  0  0  0  0  0
   37.7299   33.4666   50.1068 H   0  0  0  0  0  0  0  0  0  0  0  0
   39.4192   33.2495   50.4420 H   0  0  0  0  0  0  0  0  0  0  0  0
   38.7496   34.0583   47.9942 H   0  0  0  0  0  0  0  0  0  0  0  0
   39.8966   32.7439   48.0346 H   0  0  0  0  0  0  0  0  0  0  0  0
   36.9143   32.6401   47.3624 H   0  0  0  0  0  0  0  0  0  0  0  0
   36.9747   28.9608   50.3174 H   0  0  0  0  0  0  0  0  0  0  0  0
   35.5047   31.3246   46.9584 H   0  0  0  0  0  0  0  0  0  0  0  0
   33.4802   27.7863   48.2301 H   0  0  0  0  0  0  0  0  0  0  0  0
  1  2  1  0
  3  2  1  0
  4  3  1  0
  5  4  1  0
  5  1  1  0
  7  1  1  0
  7  6  2  0
  8  7  1  0
  9  8  2  0
  9 10  1  0
 10 11  2  0
 11  6  1  0
 12 15  1  0
 12  5  1  0
 13 12  1  0
 14 12  1  0
  2 16  1  0
  2 17  1  0
  3 18  1  0
  3 19  1  0
  4 20  1  0
  4 21  1  0
  5 22  1  6
  6 23  1  0
  8 24  1  0
 10 25  1  0
M  ISO  8  16  13  17  13  18  13  19  13  20  13  21  13  22  13  23  14
M  ISO  2  24  14  25  14
M  END
>  <minimizedAffinity>  (1) 
-4.56690741

>  <minimizedRMSD>  (1) 
1.00791681

$$$$
