
     RDKit          3D

 25 26  0  0  1  0  0  0  0  0999 V2000
   37.5580   31.4450   48.6360 N   0  0  0  0  0  0  0  0  0  0  0  0
   38.3830   31.8480   49.7820 C   0  0  0  0  0  0  0  0  0  0  0  0
   38.7160   33.2640   49.3750 C   0  0  0  0  0  0  0  0  0  0  0  0
   39.1410   33.0180   47.9410 C   0  0  0  0  0  0  0  0  0  0  0  0
   37.9110   32.2580   47.4800 C   0  0  1  0  0  0  0  0  0  0  0  0
   36.5330   29.3400   49.5020 C   0  0  0  0  0  0  0  0  0  0  0  0
   36.5690   30.4340   48.6200 C   0  0  0  0  0  0  0  0  0  0  0  0
   35.5610   30.5400   47.6550 C   0  0  0  0  0  0  0  0  0  0  0  0
   34.5870   29.5820   47.6060 N   0  0  0  0  0  0  0  0  0  0  0  0
   34.5930   28.5420   48.4780 C   0  0  0  0  0  0  0  0  0  0  0  0
   35.5650   28.4290   49.4190 N   0  0  0  0  0  0  0  0  0  0  0  0
   38.2030   31.4170   46.2960 C   0  0  0  0  0  0  0  0  0  0  0  0
   37.7320   32.0030   45.2900 O   0  0  0  0  0  0  0  0  0  0  0  0
   38.7960   30.2390   45.8880 O   0  0  0  0  0  0  0  0  0  0  0  0
   37.8171   31.8158   50.7247 H   0  0  0  0  0  0  0  0  0  0  0  0
   39.2529   31.2039   49.9780 H   0  0  0  0  0  0  0  0  0  0  0  0
   37.8392   33.9254   49.4355 H   0  0  0  0  0  0  0  0  0  0  0  0
   39.4630   33.7691   50.0049 H   0  0  0  0  0  0  0  0  0  0  0  0
   39.2846   33.9550   47.3830 H   0  0  0  0  0  0  0  0  0  0  0  0
   40.1037   32.5034   47.8057 H   0  0  0  0  0  0  0  0  0  0  0  0
   37.0954   32.9242   47.1623 H   0  0  0  0  0  0  0  0  0  0  0  0
   37.3136   29.2351   50.2699 H   0  0  0  0  0  0  0  0  0  0  0  0
   35.5526   31.3815   46.9466 H   0  0  0  0  0  0  0  0  0  0  0  0
   33.8005   27.7812   48.4216 H   0  0  0  0  0  0  0  0  0  0  0  0
   38.7934   29.9894   44.9300 H   0  0  0  0  0  0  0  0  0  0  0  0
  1  2  1  0
  3  2  1  0
  4  3  1  0
  5  4  1  0
  5  1  1  0
  7  1  1  0
  7  6  2  0
  8  7  1  0
  9  8  2  0
  9 10  1  0
 10 11  2  0
 11  6  1  0
 12  5  1  0
 13 12  2  0
 14 12  1  0
  2 15  1  0
  2 16  1  0
  3 17  1  0
  3 18  1  0
  4 19  1  0
  4 20  1  0
  5 21  1  6
  6 22  1  0
  8 23  1  0
 10 24  1  0
 14 25  1  0
M  ISO  8  15  13  16  13  17  13  18  13  19  13  20  13  21  13  22  14
M  ISO  3  23  14  24  14  25   3
M  END
>  <minimizedAffinity>  (1) 
-4.32700253

>  <minimizedRMSD>  (1) 
0.873016477

$$$$
