
     RDKit          3D

 23 24  0  0  1  0  0  0  0  0999 V2000
   37.4760   31.0700   48.6650 N   0  0  0  0  0  0  0  0  0  0  0  0
   38.2530   31.9140   49.5700 C   0  0  0  0  0  0  0  0  0  0  0  0
   38.6660   32.9850   48.5900 C   0  0  0  0  0  0  0  0  0  0  0  0
   39.1620   32.1390   47.4410 C   0  0  0  0  0  0  0  0  0  0  0  0
   38.0050   31.1700   47.3130 C   0  0  2  0  0  0  0  0  0  0  0  0
   36.0580   29.8220   50.2880 C   0  0  0  0  0  0  0  0  0  0  0  0
   36.3680   30.2460   48.9860 C   0  0  0  0  0  0  0  0  0  0  0  0
   35.5230   29.8140   47.9600 C   0  0  0  0  0  0  0  0  0  0  0  0
   34.4690   29.0180   48.2990 N   0  0  0  0  0  0  0  0  0  0  0  0
   34.2110   28.6380   49.5520 C   0  0  0  0  0  0  0  0  0  0  0  0
   35.0080   29.0420   50.5430 N   0  0  0  0  0  0  0  0  0  0  0  0
   37.0930   31.5900   46.3680 O   0  0  0  0  0  0  0  0  0  0  0  0
   37.6387   32.3174   50.3884 H   0  0  0  0  0  0  0  0  0  0  0  0
   39.0762   31.4113   50.0988 H   0  0  0  0  0  0  0  0  0  0  0  0
   37.8129   33.6124   48.2923 H   0  0  0  0  0  0  0  0  0  0  0  0
   39.4040   33.7009   48.9810 H   0  0  0  0  0  0  0  0  0  0  0  0
   39.3005   32.7334   46.5258 H   0  0  0  0  0  0  0  0  0  0  0  0
   40.1446   31.6707   47.5995 H   0  0  0  0  0  0  0  0  0  0  0  0
   38.3008   30.1779   46.9412 H   0  0  0  0  0  0  0  0  0  0  0  0
   36.7002   30.1428   51.1215 H   0  0  0  0  0  0  0  0  0  0  0  0
   35.7021   30.1061   46.9147 H   0  0  0  0  0  0  0  0  0  0  0  0
   33.3451   27.9945   49.7669 H   0  0  0  0  0  0  0  0  0  0  0  0
   36.2937   31.9581   46.8215 H   0  0  0  0  0  0  0  0  0  0  0  0
  1  7  1  0
  1  2  1  0
  3  2  1  0
  4  3  1  0
  5  4  1  0
  5  1  1  0
  6 11  2  0
  7  6  1  0
  8  9  1  0
  8  7  2  0
  9 10  2  0
 10 11  1  0
 12  5  1  0
  2 13  1  0
  2 14  1  0
  3 15  1  0
  3 16  1  0
  4 17  1  0
  4 18  1  0
  5 19  1  6
  6 20  1  0
  8 21  1  0
 10 22  1  0
 12 23  1  0
M  ISO  8  13  13  14  13  15  13  16  13  17  13  18  13  19  13  20  14
M  ISO  3  21  14  22  14  23   3
M  END
>  <minimizedAffinity>  (1) 
-4.20136309

>  <minimizedRMSD>  (1) 
0.377162516

$$$$
