
     RDKit          3D

 23 24  0  0  1  0  0  0  0  0999 V2000
   37.5570   31.4060   48.6160 N   0  0  0  0  0  0  0  0  0  0  0  0
   38.3760   32.0340   49.6640 C   0  0  0  0  0  0  0  0  0  0  0  0
   38.6950   33.3490   48.9650 C   0  0  0  0  0  0  0  0  0  0  0  0
   39.1850   32.7860   47.6270 C   0  0  0  0  0  0  0  0  0  0  0  0
   37.9410   31.9430   47.3010 C   0  0  1  0  0  0  0  0  0  0  0  0
   36.6300   29.3660   49.7090 C   0  0  0  0  0  0  0  0  0  0  0  0
   36.5430   30.4310   48.7870 C   0  0  0  0  0  0  0  0  0  0  0  0
   35.4020   30.5420   47.9940 C   0  0  0  0  0  0  0  0  0  0  0  0
   34.4090   29.5920   48.1590 N   0  0  0  0  0  0  0  0  0  0  0  0
   34.5300   28.5940   49.0480 C   0  0  0  0  0  0  0  0  0  0  0  0
   35.6270   28.4810   49.8140 N   0  0  0  0  0  0  0  0  0  0  0  0
   38.4140   30.6470   46.1440 S   0  0  0  0  0  0  0  0  0  0  0  0
   37.8082   32.1886   50.5934 H   0  0  0  0  0  0  0  0  0  0  0  0
   39.2485   31.4510   49.9940 H   0  0  0  0  0  0  0  0  0  0  0  0
   37.8030   33.9816   48.8461 H   0  0  0  0  0  0  0  0  0  0  0  0
   39.4003   34.0092   49.4910 H   0  0  0  0  0  0  0  0  0  0  0  0
   39.3648   33.5741   46.8810 H   0  0  0  0  0  0  0  0  0  0  0  0
   40.1467   32.2523   47.6438 H   0  0  0  0  0  0  0  0  0  0  0  0
   37.1128   32.4910   46.8279 H   0  0  0  0  0  0  0  0  0  0  0  0
   37.5226   29.2612   50.3433 H   0  0  0  0  0  0  0  0  0  0  0  0
   35.2945   31.3564   47.2624 H   0  0  0  0  0  0  0  0  0  0  0  0
   33.7189   27.8580   49.1506 H   0  0  0  0  0  0  0  0  0  0  0  0
   38.8185   29.5386   46.8402 H   0  0  0  0  0  0  0  0  0  0  0  0
  1  7  1  0
  1  2  1  0
  3  2  1  0
  4  3  1  0
  5  4  1  0
  5  1  1  0
  6 11  2  0
  7  6  1  0
  8  9  1  0
  8  7  2  0
  9 10  2  0
 10 11  1  0
 12  5  1  0
  2 13  1  0
  2 14  1  0
  3 15  1  0
  3 16  1  0
  4 17  1  0
  4 18  1  0
  5 19  1  6
  6 20  1  0
  8 21  1  0
 10 22  1  0
 12 23  1  0
M  ISO  8  13  13  14  13  15  13  16  13  17  13  18  13  19  13  20  14
M  ISO  3  21  14  22  14  23  11
M  END
>  <minimizedAffinity>  (1) 
-4.13063288

>  <minimizedRMSD>  (1) 
0.544254541

$$$$
