
     RDKit          3D

 43 47  0  0  1  0  0  0  0  0999 V2000
   37.5550   31.3890   48.6250 N   0  0  0  0  0  0  0  0  0  0  0  0
   38.4270   31.6650   49.7650 C   0  0  0  0  0  0  0  0  0  0  0  0
   38.7540   33.1130   49.5450 C   0  0  0  0  0  0  0  0  0  0  0  0
   39.0780   33.0920   48.0680 C   0  0  0  0  0  0  0  0  0  0  0  0
   37.8930   32.2970   47.5630 C   0  0  1  0  0  0  0  0  0  0  0  0
   38.2690   31.6540   46.3070 C   0  0  0  0  0  0  0  0  0  0  0  0
   38.9630   30.4490   46.0870 C   0  0  0  0  0  0  0  0  0  0  0  0
   39.2250   30.0280   44.8150 C   0  0  0  0  0  0  0  0  0  0  0  0
   38.8230   30.7600   43.7970 N   0  0  0  0  0  0  0  0  0  0  0  0
   38.1550   31.9200   43.9610 C   0  0  0  0  0  0  0  0  0  0  0  0
   37.8990   32.3290   45.2250 N   0  0  0  0  0  0  0  0  0  0  0  0
   37.7340   32.6880   42.8140 N   0  0  0  0  0  0  0  0  0  0  0  0
   38.5710   33.3600   42.0030 C   0  0  0  0  0  0  0  0  0  0  0  0
   37.8360   33.9470   41.0590 N   0  0  0  0  0  0  0  0  0  0  0  0
   36.5330   33.6290   41.3000 C   0  0  0  0  0  0  0  0  0  0  0  0
   35.3840   33.9940   40.6050 C   0  0  0  0  0  0  0  0  0  0  0  0
   34.2000   33.5370   41.0590 N   0  0  0  0  0  0  0  0  0  0  0  0
   34.1530   32.7580   42.1500 C   0  0  0  0  0  0  0  0  0  0  0  0
   35.2730   32.4120   42.8120 N   0  0  0  0  0  0  0  0  0  0  0  0
   36.4790   32.8170   42.4360 C   0  0  0  0  0  0  0  0  0  0  0  0
   35.4760   34.8250   39.4500 N   0  0  0  0  0  0  0  0  0  0  0  0
   36.4450   29.3000   49.3970 C   0  0  0  0  0  0  0  0  0  0  0  0
   36.5490   30.4170   48.5420 C   0  0  0  0  0  0  0  0  0  0  0  0
   35.5800   30.5650   47.5360 C   0  0  0  0  0  0  0  0  0  0  0  0
   34.5860   29.6450   47.4190 N   0  0  0  0  0  0  0  0  0  0  0  0
   34.5230   28.5790   48.2690 C   0  0  0  0  0  0  0  0  0  0  0  0
   35.4460   28.4130   49.2470 N   0  0  0  0  0  0  0  0  0  0  0  0
   37.9019   31.5117   50.7194 H   0  0  0  0  0  0  0  0  0  0  0  0
   39.3083   31.0095   49.8257 H   0  0  0  0  0  0  0  0  0  0  0  0
   37.8940   33.7629   49.7644 H   0  0  0  0  0  0  0  0  0  0  0  0
   39.5544   33.5084   50.1877 H   0  0  0  0  0  0  0  0  0  0  0  0
   39.1052   34.1048   47.6395 H   0  0  0  0  0  0  0  0  0  0  0  0
   40.0638   32.6770   47.8110 H   0  0  0  0  0  0  0  0  0  0  0  0
   37.0039   32.9007   47.3286 H   0  0  0  0  0  0  0  0  0  0  0  0
   39.2955   29.8442   46.9435 H   0  0  0  0  0  0  0  0  0  0  0  0
   39.7667   29.0864   44.6422 H   0  0  0  0  0  0  0  0  0  0  0  0
   39.6652   33.4150   42.1014 H   0  0  0  0  0  0  0  0  0  0  0  0
   33.1796   32.3945   42.5111 H   0  0  0  0  0  0  0  0  0  0  0  0
   36.3956   35.1586   39.1275 H   0  0  0  0  0  0  0  0  0  0  0  0
   34.6229   35.0917   38.9382 H   0  0  0  0  0  0  0  0  0  0  0  0
   37.1885   29.1532   50.1943 H   0  0  0  0  0  0  0  0  0  0  0  0
   35.6252   31.4208   46.8464 H   0  0  0  0  0  0  0  0  0  0  0  0
   33.7117   27.8445   48.1586 H   0  0  0  0  0  0  0  0  0  0  0  0
  1  2  1  0
  3  2  1  0
  4  3  1  0
  5  4  1  0
  5  1  1  0
  6  5  1  0
  7  6  2  0
  8  7  1  0
  9 10  1  0
  9  8  2  0
 10 11  2  0
 11  6  1  0
 12 10  1  0
 13 12  1  0
 14 15  1  0
 14 13  2  0
 15 20  2  0
 16 17  2  0
 16 15  1  0
 17 18  1  0
 18 19  2  0
 20 19  1  0
 20 12  1  0
 21 16  1  0
 23  1  1  0
 23 22  2  0
 24 23  1  0
 25 24  2  0
 25 26  1  0
 26 27  2  0
 27 22  1  0
  2 28  1  0
  2 29  1  0
  3 30  1  0
  3 31  1  0
  4 32  1  0
  4 33  1  0
  5 34  1  6
  7 35  1  0
  8 36  1  0
 13 37  1  0
 18 38  1  0
 21 39  1  0
 21 40  1  0
 22 41  1  0
 24 42  1  0
 26 43  1  0
M  ISO  8  28  13  29  13  30  13  31  13  32  13  33  13  34  13  35  14
M  ISO  6  36  14  37  14  38  14  41  14  42  14  43  14
M  END
>  <minimizedAffinity>  (1) 
-6.62380981

>  <minimizedRMSD>  (1) 
0.392175466

$$$$
