
     RDKit          3D

 37 39  0  0  1  0  0  0  0  0999 V2000
   37.5920   31.4020   48.6860 N   0  0  0  0  0  0  0  0  0  0  0  0
   38.4850   31.6910   49.7990 C   0  0  0  0  0  0  0  0  0  0  0  0
   38.8100   33.1390   49.5610 C   0  0  0  0  0  0  0  0  0  0  0  0
   39.0900   33.1070   48.0780 C   0  0  0  0  0  0  0  0  0  0  0  0
   37.9060   32.3020   47.6110 C   0  0  1  0  0  0  0  0  0  0  0  0
   38.2380   31.6540   46.3480 C   0  0  0  0  0  0  0  0  0  0  0  0
   39.0310   30.5210   46.1030 C   0  0  0  0  0  0  0  0  0  0  0  0
   39.2180   30.0840   44.8210 C   0  0  0  0  0  0  0  0  0  0  0  0
   38.6440   30.7450   43.8280 N   0  0  0  0  0  0  0  0  0  0  0  0
   37.8820   31.8250   44.0110 C   0  0  0  0  0  0  0  0  0  0  0  0
   37.7070   32.2460   45.2830 N   0  0  0  0  0  0  0  0  0  0  0  0
   37.2560   32.5550   42.9540 N   0  0  0  0  0  0  0  0  0  0  0  0
   35.8450   32.6720   42.9300 C   0  0  0  0  0  0  0  0  0  0  0  0
   35.0910   31.6820   43.2310 N   0  0  0  0  0  0  0  0  0  0  0  0
   35.2530   33.9150   42.5550 N   0  0  0  0  0  0  0  0  0  0  0  0
   35.5120   30.7770   43.4980 H   0  0  0  0  0  0  0  0  0  0  0  0
   36.5130   29.3190   49.5190 C   0  0  0  0  0  0  0  0  0  0  0  0
   36.5870   30.4180   48.6440 C   0  0  0  0  0  0  0  0  0  0  0  0
   35.5930   30.5620   47.6450 C   0  0  0  0  0  0  0  0  0  0  0  0
   34.6040   29.6260   47.5760 N   0  0  0  0  0  0  0  0  0  0  0  0
   34.5700   28.5730   48.4480 C   0  0  0  0  0  0  0  0  0  0  0  0
   35.5150   28.4260   49.4060 N   0  0  0  0  0  0  0  0  0  0  0  0
   37.9804   31.5470   50.7658 H   0  0  0  0  0  0  0  0  0  0  0  0
   39.3682   31.0368   49.8443 H   0  0  0  0  0  0  0  0  0  0  0  0
   37.9587   33.7929   49.8013 H   0  0  0  0  0  0  0  0  0  0  0  0
   39.6295   33.5364   50.1778 H   0  0  0  0  0  0  0  0  0  0  0  0
   39.0964   34.1165   47.6410 H   0  0  0  0  0  0  0  0  0  0  0  0
   40.0714   32.6962   47.7985 H   0  0  0  0  0  0  0  0  0  0  0  0
   37.0117   32.9051   47.3952 H   0  0  0  0  0  0  0  0  0  0  0  0
   39.5010   29.9859   46.9413 H   0  0  0  0  0  0  0  0  0  0  0  0
   39.8359   29.1969   44.6179 H   0  0  0  0  0  0  0  0  0  0  0  0
   37.8262   32.9923   42.2160 H   0  0  0  0  0  0  0  0  0  0  0  0
   34.2278   34.0116   42.5340 H   0  0  0  0  0  0  0  0  0  0  0  0
   35.8509   34.7156   42.3053 H   0  0  0  0  0  0  0  0  0  0  0  0
   37.2765   29.1898   50.3003 H   0  0  0  0  0  0  0  0  0  0  0  0
   35.6184   31.4080   46.9424 H   0  0  0  0  0  0  0  0  0  0  0  0
   33.7604   27.8324   48.3695 H   0  0  0  0  0  0  0  0  0  0  0  0
  1  2  1  0
  3  2  1  0
  4  3  1  0
  5  4  1  0
  5  1  1  0
  6  5  1  0
  7  6  2  0
  8  7  1  0
  9 10  1  0
  9  8  2  0
 10 11  2  0
 11  6  1  0
 12 10  1  0
 13 12  1  0
 13 14  2  0
 14 16  1  0
 15 13  1  0
 18  1  1  0
 18 17  2  0
 19 18  1  0
 20 19  2  0
 20 21  1  0
 21 22  2  0
 22 17  1  0
  2 23  1  0
  2 24  1  0
  3 25  1  0
  3 26  1  0
  4 27  1  0
  4 28  1  0
  5 29  1  6
  7 30  1  0
  8 31  1  0
 12 32  1  0
 15 33  1  0
 15 34  1  0
 17 35  1  0
 19 36  1  0
 21 37  1  0
M  ISO  8  23  13  24  13  25  13  26  13  27  13  28  13  29  13  30  14
M  ISO  4  31  14  35  14  36  14  37  14
M  END
>  <minimizedAffinity>  (1) 
-6.03382635

>  <minimizedRMSD>  (1) 
0.100102134

$$$$
