
     RDKit          3D

 36 39  0  0  1  0  0  0  0  0999 V2000
   37.5410   31.3990   48.6300 N   0  0  0  0  0  0  0  0  0  0  0  0
   38.3890   31.6870   49.7780 C   0  0  0  0  0  0  0  0  0  0  0  0
   38.7300   33.1280   49.5530 C   0  0  0  0  0  0  0  0  0  0  0  0
   39.0720   33.0960   48.0790 C   0  0  0  0  0  0  0  0  0  0  0  0
   37.8930   32.2980   47.5670 C   0  0  1  0  0  0  0  0  0  0  0  0
   38.2810   31.6490   46.3180 C   0  0  0  0  0  0  0  0  0  0  0  0
   38.9340   30.4220   46.1100 C   0  0  0  0  0  0  0  0  0  0  0  0
   39.2160   30.0010   44.8410 C   0  0  0  0  0  0  0  0  0  0  0  0
   38.8700   30.7600   43.8130 N   0  0  0  0  0  0  0  0  0  0  0  0
   38.2460   31.9350   43.9730 C   0  0  0  0  0  0  0  0  0  0  0  0
   37.9700   32.3450   45.2310 N   0  0  0  0  0  0  0  0  0  0  0  0
   37.8970   32.7090   42.8170 N   0  0  0  0  0  0  0  0  0  0  0  0
   38.8650   33.2910   42.0560 C   0  0  0  0  0  0  0  0  0  0  0  0
   38.3120   33.9640   41.0290 N   0  0  0  0  0  0  0  0  0  0  0  0
   36.9790   33.7900   41.1670 C   0  0  0  0  0  0  0  0  0  0  0  0
   36.7370   33.0210   42.2610 N   0  0  0  0  0  0  0  0  0  0  0  0
   36.4430   29.2980   49.3950 C   0  0  0  0  0  0  0  0  0  0  0  0
   36.5350   30.4170   48.5360 C   0  0  0  0  0  0  0  0  0  0  0  0
   35.5710   30.5720   47.5240 C   0  0  0  0  0  0  0  0  0  0  0  0
   34.5880   29.6370   47.4100 N   0  0  0  0  0  0  0  0  0  0  0  0
   34.5300   28.5680   48.2590 C   0  0  0  0  0  0  0  0  0  0  0  0
   35.4520   28.4040   49.2410 N   0  0  0  0  0  0  0  0  0  0  0  0
   37.8443   31.5472   50.7234 H   0  0  0  0  0  0  0  0  0  0  0  0
   39.2667   31.0290   49.8598 H   0  0  0  0  0  0  0  0  0  0  0  0
   37.8728   33.7862   49.7580 H   0  0  0  0  0  0  0  0  0  0  0  0
   39.5262   33.5204   50.2027 H   0  0  0  0  0  0  0  0  0  0  0  0
   39.1047   34.1055   47.6432 H   0  0  0  0  0  0  0  0  0  0  0  0
   40.0606   32.6791   47.8365 H   0  0  0  0  0  0  0  0  0  0  0  0
   37.0063   32.9001   47.3195 H   0  0  0  0  0  0  0  0  0  0  0  0
   39.2187   29.7991   46.9708 H   0  0  0  0  0  0  0  0  0  0  0  0
   39.7257   29.0404   44.6752 H   0  0  0  0  0  0  0  0  0  0  0  0
   39.9451   33.2212   42.2524 H   0  0  0  0  0  0  0  0  0  0  0  0
   36.2105   34.2056   40.4987 H   0  0  0  0  0  0  0  0  0  0  0  0
   37.1866   29.1585   50.1935 H   0  0  0  0  0  0  0  0  0  0  0  0
   35.6104   31.4313   46.8384 H   0  0  0  0  0  0  0  0  0  0  0  0
   33.7234   27.8289   48.1447 H   0  0  0  0  0  0  0  0  0  0  0  0
  1  2  1  0
  3  2  1  0
  4  3  1  0
  5  4  1  0
  5  1  1  0
  6  5  1  0
  7  6  2  0
  8  7  1  0
  9 10  1  0
  9  8  2  0
 10 11  2  0
 11  6  1  0
 12 10  1  0
 13 12  1  0
 14 15  1  0
 14 13  2  0
 15 16  2  0
 16 12  1  0
 18  1  1  0
 18 17  2  0
 19 18  1  0
 20 19  2  0
 20 21  1  0
 21 22  2  0
 22 17  1  0
  2 23  1  0
  2 24  1  0
  3 25  1  0
  3 26  1  0
  4 27  1  0
  4 28  1  0
  5 29  1  6
  7 30  1  0
  8 31  1  0
 13 32  1  0
 15 33  1  0
 17 34  1  0
 19 35  1  0
 21 36  1  0
M  ISO  8  23  13  24  13  25  13  26  13  27  13  28  13  29  13  30  14
M  ISO  6  31  14  32  14  33  14  34  14  35  14  36  14
M  END
>  <minimizedAffinity>  (1) 
-6.02353764

>  <minimizedRMSD>  (1) 
0.366261393

$$$$
