
     RDKit          3D

 43 46  0  0  1  0  0  0  0  0999 V2000
   37.5250   31.3600   48.6530 N   0  0  0  0  0  0  0  0  0  0  0  0
   38.3800   31.6220   49.8050 C   0  0  0  0  0  0  0  0  0  0  0  0
   38.7120   33.0800   49.5990 C   0  0  0  0  0  0  0  0  0  0  0  0
   39.0600   33.0610   48.1320 C   0  0  0  0  0  0  0  0  0  0  0  0
   37.8860   32.2760   47.6050 C   0  0  1  0  0  0  0  0  0  0  0  0
   38.2660   31.6430   46.3450 C   0  0  0  0  0  0  0  0  0  0  0  0
   38.8910   30.4080   46.1160 C   0  0  0  0  0  0  0  0  0  0  0  0
   39.1750   30.0000   44.8450 C   0  0  0  0  0  0  0  0  0  0  0  0
   38.8440   30.8020   43.8270 N   0  0  0  0  0  0  0  0  0  0  0  0
   38.2480   31.9830   44.0050 C   0  0  0  0  0  0  0  0  0  0  0  0
   37.9760   32.3710   45.2720 N   0  0  0  0  0  0  0  0  0  0  0  0
   37.9150   32.8050   42.8700 N   0  0  0  0  0  0  0  0  0  0  0  0
   36.5370   32.8500   42.5000 C   0  0  0  0  0  0  0  0  0  0  0  0
   36.4070   33.0080   40.9960 C   0  0  0  0  0  0  0  0  0  0  0  0
   37.2860   33.9990   40.5440 O   0  0  0  0  0  0  0  0  0  0  0  0
   38.5740   33.5230   40.6690 C   0  0  0  0  0  0  0  0  0  0  0  0
   38.9230   33.5350   42.1560 C   0  0  0  0  0  0  0  0  0  0  0  0
   36.4100   29.2670   49.3900 C   0  0  0  0  0  0  0  0  0  0  0  0
   36.5140   30.3900   48.5480 C   0  0  0  0  0  0  0  0  0  0  0  0
   35.5530   30.5630   47.5340 C   0  0  0  0  0  0  0  0  0  0  0  0
   34.5590   29.6430   47.4020 N   0  0  0  0  0  0  0  0  0  0  0  0
   34.4910   28.5650   48.2390 C   0  0  0  0  0  0  0  0  0  0  0  0
   35.4120   28.3770   49.2290 N   0  0  0  0  0  0  0  0  0  0  0  0
   37.8422   31.4609   50.7510 H   0  0  0  0  0  0  0  0  0  0  0  0
   39.2591   30.9643   49.8733 H   0  0  0  0  0  0  0  0  0  0  0  0
   37.8484   33.7291   49.8059 H   0  0  0  0  0  0  0  0  0  0  0  0
   39.4991   33.4749   50.2581 H   0  0  0  0  0  0  0  0  0  0  0  0
   39.0992   34.0748   47.7069 H   0  0  0  0  0  0  0  0  0  0  0  0
   40.0481   32.6416   47.8917 H   0  0  0  0  0  0  0  0  0  0  0  0
   37.0057   32.8901   47.3641 H   0  0  0  0  0  0  0  0  0  0  0  0
   39.1542   29.7634   46.9676 H   0  0  0  0  0  0  0  0  0  0  0  0
   39.6655   29.0326   44.6617 H   0  0  0  0  0  0  0  0  0  0  0  0
   36.0456   31.9165   42.8118 H   0  0  0  0  0  0  0  0  0  0  0  0
   36.0585   33.7077   42.9954 H   0  0  0  0  0  0  0  0  0  0  0  0
   36.6504   32.0535   40.5065 H   0  0  0  0  0  0  0  0  0  0  0  0
   35.3751   33.2991   40.7500 H   0  0  0  0  0  0  0  0  0  0  0  0
   38.6355   32.4972   40.2766 H   0  0  0  0  0  0  0  0  0  0  0  0
   39.2766   34.1496   40.1000 H   0  0  0  0  0  0  0  0  0  0  0  0
   39.9032   33.0602   42.3102 H   0  0  0  0  0  0  0  0  0  0  0  0
   38.9666   34.5711   42.5228 H   0  0  0  0  0  0  0  0  0  0  0  0
   37.1516   29.1146   50.1880 H   0  0  0  0  0  0  0  0  0  0  0  0
   35.6048   31.4293   46.8581 H   0  0  0  0  0  0  0  0  0  0  0  0
   33.6784   27.8345   48.1126 H   0  0  0  0  0  0  0  0  0  0  0  0
  1  2  1  0
  3  2  1  0
  4  3  1  0
  5  4  1  0
  5  1  1  0
  6  5  1  0
  7  6  2  0
  8  7  1  0
  9 10  1  0
  9  8  2  0
 10 11  2  0
 11  6  1  0
 12 10  1  0
 13 12  1  0
 14 13  1  0
 15 16  1  0
 15 14  1  0
 16 17  1  0
 17 12  1  0
 19  1  1  0
 19 18  2  0
 20 19  1  0
 21 20  2  0
 21 22  1  0
 22 23  2  0
 23 18  1  0
  2 24  1  0
  2 25  1  0
  3 26  1  0
  3 27  1  0
  4 28  1  0
  4 29  1  0
  5 30  1  6
  7 31  1  0
  8 32  1  0
 13 33  1  0
 13 34  1  0
 14 35  1  0
 14 36  1  0
 16 37  1  0
 16 38  1  0
 17 39  1  0
 17 40  1  0
 18 41  1  0
 20 42  1  0
 22 43  1  0
M  ISO  8  24  13  25  13  26  13  27  13  28  13  29  13  30  13  31  14
M  ISO  8  32  14  33  13  34  13  35  13  36  13  37  13  38  13  39  13
M  ISO  4  40  13  41  14  42  14  43  14
M  END
>  <minimizedAffinity>  (1) 
-6.01549006

>  <minimizedRMSD>  (1) 
0.447732627

$$$$
