
     RDKit          3D

 38 41  0  0  1  0  0  0  0  0999 V2000
   37.5350   31.3840   48.6450 N   0  0  0  0  0  0  0  0  0  0  0  0
   38.3850   31.6680   49.7920 C   0  0  0  0  0  0  0  0  0  0  0  0
   38.7020   33.1200   49.5700 C   0  0  0  0  0  0  0  0  0  0  0  0
   39.0750   33.0750   48.0980 C   0  0  0  0  0  0  0  0  0  0  0  0
   37.8860   32.2880   47.5840 C   0  0  1  0  0  0  0  0  0  0  0  0
   36.4270   29.2880   49.4010 C   0  0  0  0  0  0  0  0  0  0  0  0
   36.5320   30.4000   48.5560 C   0  0  0  0  0  0  0  0  0  0  0  0
   35.5670   30.5540   47.5380 C   0  0  0  0  0  0  0  0  0  0  0  0
   34.5840   29.6170   47.4280 N   0  0  0  0  0  0  0  0  0  0  0  0
   34.5260   28.5520   48.2760 C   0  0  0  0  0  0  0  0  0  0  0  0
   35.4440   28.3910   49.2560 N   0  0  0  0  0  0  0  0  0  0  0  0
   38.2690   31.6430   46.3310 C   0  0  0  0  0  0  0  0  0  0  0  0
   38.9670   30.4420   46.1210 C   0  0  0  0  0  0  0  0  0  0  0  0
   39.2370   30.0130   44.8520 C   0  0  0  0  0  0  0  0  0  0  0  0
   38.8260   30.7580   43.8200 N   0  0  0  0  0  0  0  0  0  0  0  0
   38.1560   31.9110   43.9830 C   0  0  0  0  0  0  0  0  0  0  0  0
   37.9000   32.3150   45.2470 N   0  0  0  0  0  0  0  0  0  0  0  0
   37.7180   32.7070   42.8140 C   0  0  0  0  0  0  0  0  0  0  0  0
   36.3810   32.8800   42.6000 C   0  0  0  0  0  0  0  0  0  0  0  0
   36.0840   33.6460   41.4710 C   0  0  0  0  0  0  0  0  0  0  0  0
   37.0780   34.1520   40.6850 N   0  0  0  0  0  0  0  0  0  0  0  0
   38.3510   33.9290   40.9760 C   0  0  0  0  0  0  0  0  0  0  0  0
   38.7210   33.1910   42.0620 N   0  0  0  0  0  0  0  0  0  0  0  0
   37.8480   31.5132   50.7395 H   0  0  0  0  0  0  0  0  0  0  0  0
   39.2704   31.0198   49.8685 H   0  0  0  0  0  0  0  0  0  0  0  0
   37.8282   33.7629   49.7521 H   0  0  0  0  0  0  0  0  0  0  0  0
   39.4725   33.5372   50.2350 H   0  0  0  0  0  0  0  0  0  0  0  0
   39.1291   34.0800   47.6540 H   0  0  0  0  0  0  0  0  0  0  0  0
   40.0628   32.6480   47.8702 H   0  0  0  0  0  0  0  0  0  0  0  0
   37.0015   32.8957   47.3423 H   0  0  0  0  0  0  0  0  0  0  0  0
   37.1686   29.1487   50.2014 H   0  0  0  0  0  0  0  0  0  0  0  0
   35.6074   31.4107   46.8492 H   0  0  0  0  0  0  0  0  0  0  0  0
   33.7202   27.8119   48.1617 H   0  0  0  0  0  0  0  0  0  0  0  0
   39.2980   29.8438   46.9827 H   0  0  0  0  0  0  0  0  0  0  0  0
   39.7821   29.0727   44.6824 H   0  0  0  0  0  0  0  0  0  0  0  0
   35.6081   32.4547   43.2571 H   0  0  0  0  0  0  0  0  0  0  0  0
   35.0336   33.8444   41.2115 H   0  0  0  0  0  0  0  0  0  0  0  0
   39.1307   34.3503   40.3244 H   0  0  0  0  0  0  0  0  0  0  0  0
  1  2  1  0
  3  2  1  0
  4  3  1  0
  5  4  1  0
  5  1  1  0
  7  1  1  0
  7  6  2  0
  8  7  1  0
  9  8  2  0
  9 10  1  0
 10 11  2  0
 11  6  1  0
 12  5  1  0
 13 12  2  0
 14 13  1  0
 15 16  1  0
 15 14  2  0
 16 17  2  0
 17 12  1  0
 18 16  1  0
 19 18  2  0
 20 19  1  0
 21 22  1  0
 21 20  2  0
 22 23  2  0
 23 18  1  0
  2 24  1  0
  2 25  1  0
  3 26  1  0
  3 27  1  0
  4 28  1  0
  4 29  1  0
  5 30  1  6
  6 31  1  0
  8 32  1  0
 10 33  1  0
 13 34  1  0
 14 35  1  0
 19 36  1  0
 20 37  1  0
 22 38  1  0
M  ISO  8  24  13  25  13  26  13  27  13  28  13  29  13  30  13  31  14
M  ISO  7  32  14  33  14  34  14  35  14  36  14  37  14  38  14
M  END
>  <minimizedAffinity>  (1) 
-5.94292736

>  <minimizedRMSD>  (1) 
0.366118133

$$$$
