
     RDKit          3D

 37 40  0  0  1  0  0  0  0  0999 V2000
   37.5420   31.3060   48.7800 N   0  0  0  0  0  0  0  0  0  0  0  0
   38.4330   31.5370   49.9090 C   0  0  0  0  0  0  0  0  0  0  0  0
   38.7520   33.0040   49.7360 C   0  0  0  0  0  0  0  0  0  0  0  0
   39.0500   33.0300   48.2570 C   0  0  0  0  0  0  0  0  0  0  0  0
   37.8640   32.2520   47.7470 C   0  0  1  0  0  0  0  0  0  0  0  0
   36.4340   29.2080   49.5180 C   0  0  0  0  0  0  0  0  0  0  0  0
   36.5270   30.3370   48.6760 C   0  0  0  0  0  0  0  0  0  0  0  0
   35.5600   30.5130   47.6760 C   0  0  0  0  0  0  0  0  0  0  0  0
   34.5660   29.5900   47.5530 N   0  0  0  0  0  0  0  0  0  0  0  0
   34.5040   28.5110   48.3820 C   0  0  0  0  0  0  0  0  0  0  0  0
   35.4360   28.3230   49.3590 N   0  0  0  0  0  0  0  0  0  0  0  0
   38.2050   31.6580   46.4580 C   0  0  0  0  0  0  0  0  0  0  0  0
   39.0430   30.5690   46.1660 C   0  0  0  0  0  0  0  0  0  0  0  0
   39.2420   30.1720   44.8780 C   0  0  0  0  0  0  0  0  0  0  0  0
   38.6220   30.8410   43.8980 N   0  0  0  0  0  0  0  0  0  0  0  0
   37.8180   31.8800   44.1350 C   0  0  0  0  0  0  0  0  0  0  0  0
   37.6330   32.2600   45.4200 N   0  0  0  0  0  0  0  0  0  0  0  0
   37.1620   32.5780   43.0200 C   0  0  0  0  0  0  0  0  0  0  0  0
   37.6940   32.7890   41.7650 C   0  0  0  0  0  0  0  0  0  0  0  0
   36.7520   33.4620   41.0830 N   0  0  0  0  0  0  0  0  0  0  0  0
   35.7040   33.6370   41.9210 C   0  0  0  0  0  0  0  0  0  0  0  0
   35.9450   33.0920   43.1310 N   0  0  0  0  0  0  0  0  0  0  0  0
   37.9279   31.3446   50.8671 H   0  0  0  0  0  0  0  0  0  0  0  0
   39.3166   30.8821   49.9281 H   0  0  0  0  0  0  0  0  0  0  0  0
   37.8932   33.6422   49.9914 H   0  0  0  0  0  0  0  0  0  0  0  0
   39.5592   33.3834   50.3798 H   0  0  0  0  0  0  0  0  0  0  0  0
   39.0682   34.0559   47.8606 H   0  0  0  0  0  0  0  0  0  0  0  0
   40.0320   32.6248   47.9714 H   0  0  0  0  0  0  0  0  0  0  0  0
   36.9726   32.8664   47.5522 H   0  0  0  0  0  0  0  0  0  0  0  0
   37.1827   29.0520   50.3086 H   0  0  0  0  0  0  0  0  0  0  0  0
   35.6034   31.3816   47.0024 H   0  0  0  0  0  0  0  0  0  0  0  0
   33.6902   27.7808   48.2614 H   0  0  0  0  0  0  0  0  0  0  0  0
   39.5433   30.0317   46.9851 H   0  0  0  0  0  0  0  0  0  0  0  0
   39.8983   29.3197   44.6481 H   0  0  0  0  0  0  0  0  0  0  0  0
   38.6820   32.4727   41.3993 H   0  0  0  0  0  0  0  0  0  0  0  0
   34.7737   34.1576   41.6498 H   0  0  0  0  0  0  0  0  0  0  0  0
   35.3251   33.0783   43.9534 H   0  0  0  0  0  0  0  0  0  0  0  0
  1  2  1  0
  3  2  1  0
  4  3  1  0
  5  4  1  0
  5  1  1  0
  7  1  1  0
  7  6  2  0
  8  7  1  0
  9  8  2  0
  9 10  1  0
 10 11  2  0
 11  6  1  0
 12  5  1  0
 13 12  2  0
 14 13  1  0
 15 16  1  0
 15 14  2  0
 16 17  2  0
 17 12  1  0
 18 22  1  0
 18 16  1  0
 19 18  2  0
 20 19  1  0
 20 21  2  0
 21 22  1  0
  2 23  1  0
  2 24  1  0
  3 25  1  0
  3 26  1  0
  4 27  1  0
  4 28  1  0
  5 29  1  6
  6 30  1  0
  8 31  1  0
 10 32  1  0
 13 33  1  0
 14 34  1  0
 19 35  1  0
 21 36  1  0
 22 37  1  0
M  ISO  8  23  13  24  13  25  13  26  13  27  13  28  13  29  13  30  14
M  ISO  7  31  14  32  14  33  14  34  14  35  14  36  14  37   9
M  END
>  <minimizedAffinity>  (1) 
-5.9222188

>  <minimizedRMSD>  (1) 
0.420570046

$$$$
