
     RDKit          3D

 40 43  0  0  1  0  0  0  0  0999 V2000
   37.5350   31.3870   48.6430 N   0  0  0  0  0  0  0  0  0  0  0  0
   38.3830   31.6790   49.7960 C   0  0  0  0  0  0  0  0  0  0  0  0
   38.7170   33.1180   49.5700 C   0  0  0  0  0  0  0  0  0  0  0  0
   39.0650   33.0860   48.0970 C   0  0  0  0  0  0  0  0  0  0  0  0
   37.8920   32.2870   47.5800 C   0  0  1  0  0  0  0  0  0  0  0  0
   36.4280   29.2920   49.4090 C   0  0  0  0  0  0  0  0  0  0  0  0
   36.5340   30.4040   48.5570 C   0  0  0  0  0  0  0  0  0  0  0  0
   35.5730   30.5530   47.5390 C   0  0  0  0  0  0  0  0  0  0  0  0
   34.5850   29.6210   47.4200 N   0  0  0  0  0  0  0  0  0  0  0  0
   34.5230   28.5610   48.2700 C   0  0  0  0  0  0  0  0  0  0  0  0
   35.4440   28.4000   49.2610 N   0  0  0  0  0  0  0  0  0  0  0  0
   38.2800   31.6380   46.3320 C   0  0  0  0  0  0  0  0  0  0  0  0
   38.9970   30.4500   46.1260 C   0  0  0  0  0  0  0  0  0  0  0  0
   39.2650   30.0190   44.8560 C   0  0  0  0  0  0  0  0  0  0  0  0
   38.8390   30.7340   43.8350 N   0  0  0  0  0  0  0  0  0  0  0  0
   38.1420   31.8870   43.9810 C   0  0  0  0  0  0  0  0  0  0  0  0
   37.8890   32.2950   45.2450 N   0  0  0  0  0  0  0  0  0  0  0  0
   37.6780   32.6680   42.8210 C   0  0  0  0  0  0  0  0  0  0  0  0
   38.6430   33.1850   41.9930 C   0  0  0  0  0  0  0  0  0  0  0  0
   38.2900   33.9270   40.8870 C   0  0  0  0  0  0  0  0  0  0  0  0
   36.9230   34.1160   40.6660 C   0  0  0  0  0  0  0  0  0  0  0  0
   35.9180   33.6080   41.4830 C   0  0  0  0  0  0  0  0  0  0  0  0
   36.3370   32.8710   42.5770 C   0  0  0  0  0  0  0  0  0  0  0  0
   37.8377   31.5376   50.7408 H   0  0  0  0  0  0  0  0  0  0  0  0
   39.2630   31.0243   49.8802 H   0  0  0  0  0  0  0  0  0  0  0  0
   37.8558   33.7722   49.7707 H   0  0  0  0  0  0  0  0  0  0  0  0
   39.5090   33.5150   50.2220 H   0  0  0  0  0  0  0  0  0  0  0  0
   39.0977   34.0955   47.6612 H   0  0  0  0  0  0  0  0  0  0  0  0
   40.0553   32.6704   47.8592 H   0  0  0  0  0  0  0  0  0  0  0  0
   37.0075   32.8904   47.3279 H   0  0  0  0  0  0  0  0  0  0  0  0
   37.1674   29.1532   50.2115 H   0  0  0  0  0  0  0  0  0  0  0  0
   35.6186   31.4089   46.8496 H   0  0  0  0  0  0  0  0  0  0  0  0
   33.7164   27.8219   48.1555 H   0  0  0  0  0  0  0  0  0  0  0  0
   39.3449   29.8631   46.9889 H   0  0  0  0  0  0  0  0  0  0  0  0
   39.8281   29.0888   44.6896 H   0  0  0  0  0  0  0  0  0  0  0  0
   39.7056   33.0057   42.2140 H   0  0  0  0  0  0  0  0  0  0  0  0
   39.0474   34.3501   40.2107 H   0  0  0  0  0  0  0  0  0  0  0  0
   36.6216   34.7056   39.7876 H   0  0  0  0  0  0  0  0  0  0  0  0
   34.8526   33.7819   41.2718 H   0  0  0  0  0  0  0  0  0  0  0  0
   35.5898   32.4417   43.2607 H   0  0  0  0  0  0  0  0  0  0  0  0
  1  2  1  0
  3  2  1  0
  4  3  1  0
  5  4  1  0
  5  1  1  0
  7  1  1  0
  7  6  2  0
  8  7  1  0
  9  8  2  0
  9 10  1  0
 10 11  2  0
 11  6  1  0
 12  5  1  0
 13 12  2  0
 14 13  1  0
 15 16  1  0
 15 14  2  0
 16 17  2  0
 17 12  1  0
 18 16  1  0
 19 18  2  0
 20 19  1  0
 21 20  2  0
 21 22  1  0
 22 23  2  0
 23 18  1  0
  2 24  1  0
  2 25  1  0
  3 26  1  0
  3 27  1  0
  4 28  1  0
  4 29  1  0
  5 30  1  6
  6 31  1  0
  8 32  1  0
 10 33  1  0
 13 34  1  0
 14 35  1  0
 19 36  1  0
 20 37  1  0
 21 38  1  0
 22 39  1  0
 23 40  1  0
M  ISO  8  24  13  25  13  26  13  27  13  28  13  29  13  30  13  31  14
M  ISO  8  32  14  33  14  34  14  35  14  36  14  37  14  38  14  39  14
M  ISO  1  40  14
M  END
>  <minimizedAffinity>  (1) 
-5.90994644

>  <minimizedRMSD>  (1) 
0.480169982

$$$$
