
     RDKit          3D

 42 45  0  0  1  0  0  0  0  0999 V2000
   37.6060   31.4460   48.6120 N   0  0  0  0  0  0  0  0  0  0  0  0
   38.5000   31.7700   49.7180 C   0  0  0  0  0  0  0  0  0  0  0  0
   38.7870   33.2260   49.4440 C   0  0  0  0  0  0  0  0  0  0  0  0
   39.0880   33.1530   47.9630 C   0  0  0  0  0  0  0  0  0  0  0  0
   37.9090   32.3230   47.5130 C   0  0  1  0  0  0  0  0  0  0  0  0
   38.2600   31.6450   46.2690 C   0  0  0  0  0  0  0  0  0  0  0  0
   39.0660   30.5140   46.0620 C   0  0  0  0  0  0  0  0  0  0  0  0
   39.2820   30.0350   44.8040 C   0  0  0  0  0  0  0  0  0  0  0  0
   38.7080   30.6700   43.7770 N   0  0  0  0  0  0  0  0  0  0  0  0
   37.9340   31.7490   43.9270 C   0  0  0  0  0  0  0  0  0  0  0  0
   37.7330   32.2050   45.1850 N   0  0  0  0  0  0  0  0  0  0  0  0
   37.3450   32.3870   42.7870 N   0  0  0  0  0  0  0  0  0  0  0  0
   38.0880   32.6510   41.5950 C   0  0  0  0  0  0  0  0  0  0  0  0
   37.4820   33.9870   41.1640 C   0  0  0  0  0  0  0  0  0  0  0  0
   36.0220   33.7760   41.4790 C   0  0  0  0  0  0  0  0  0  0  0  0
   35.9710   32.8370   42.6840 C   0  0  0  0  0  0  0  0  0  0  0  0
   36.5390   29.3770   49.4820 C   0  0  0  0  0  0  0  0  0  0  0  0
   36.6090   30.4550   48.5870 C   0  0  0  0  0  0  0  0  0  0  0  0
   35.6160   30.5690   47.5840 C   0  0  0  0  0  0  0  0  0  0  0  0
   34.6360   29.6250   47.5320 N   0  0  0  0  0  0  0  0  0  0  0  0
   34.6040   28.5920   48.4220 C   0  0  0  0  0  0  0  0  0  0  0  0
   35.5490   28.4710   49.3900 N   0  0  0  0  0  0  0  0  0  0  0  0
   38.0047   31.6326   50.6905 H   0  0  0  0  0  0  0  0  0  0  0  0
   39.3967   31.1355   49.7752 H   0  0  0  0  0  0  0  0  0  0  0  0
   37.9141   33.8618   49.6535 H   0  0  0  0  0  0  0  0  0  0  0  0
   39.5839   33.6678   50.0602 H   0  0  0  0  0  0  0  0  0  0  0  0
   39.0922   34.1485   47.4950 H   0  0  0  0  0  0  0  0  0  0  0  0
   40.0759   32.7442   47.7043 H   0  0  0  0  0  0  0  0  0  0  0  0
   37.0067   32.9073   47.2795 H   0  0  0  0  0  0  0  0  0  0  0  0
   39.5278   30.0094   46.9235 H   0  0  0  0  0  0  0  0  0  0  0  0
   39.9123   29.1489   44.6382 H   0  0  0  0  0  0  0  0  0  0  0  0
   39.1644   32.7436   41.8020 H   0  0  0  0  0  0  0  0  0  0  0  0
   38.0241   31.8578   40.8356 H   0  0  0  0  0  0  0  0  0  0  0  0
   37.6382   34.1706   40.0907 H   0  0  0  0  0  0  0  0  0  0  0  0
   37.9252   34.8606   41.6644 H   0  0  0  0  0  0  0  0  0  0  0  0
   35.5433   34.7356   41.7241 H   0  0  0  0  0  0  0  0  0  0  0  0
   35.4863   33.3492   40.6183 H   0  0  0  0  0  0  0  0  0  0  0  0
   35.6585   33.3724   43.5927 H   0  0  0  0  0  0  0  0  0  0  0  0
   35.2473   32.0163   42.5711 H   0  0  0  0  0  0  0  0  0  0  0  0
   37.3019   29.2715   50.2674 H   0  0  0  0  0  0  0  0  0  0  0  0
   35.6358   31.4004   46.8640 H   0  0  0  0  0  0  0  0  0  0  0  0
   33.7997   27.8446   48.3547 H   0  0  0  0  0  0  0  0  0  0  0  0
  1  2  1  0
  3  2  1  0
  4  3  1  0
  5  4  1  0
  5  1  1  0
  6  5  1  0
  7  6  2  0
  8  7  1  0
  9 10  1  0
  9  8  2  0
 10 11  2  0
 11  6  1  0
 12 10  1  0
 13 12  1  0
 14 15  1  0
 14 13  1  0
 15 16  1  0
 16 12  1  0
 18  1  1  0
 18 17  2  0
 19 18  1  0
 20 19  2  0
 20 21  1  0
 21 22  2  0
 22 17  1  0
  2 23  1  0
  2 24  1  0
  3 25  1  0
  3 26  1  0
  4 27  1  0
  4 28  1  0
  5 29  1  6
  7 30  1  0
  8 31  1  0
 13 32  1  0
 13 33  1  0
 14 34  1  0
 14 35  1  0
 15 36  1  0
 15 37  1  0
 16 38  1  0
 16 39  1  0
 17 40  1  0
 19 41  1  0
 21 42  1  0
M  ISO  8  23  13  24  13  25  13  26  13  27  13  28  13  29  13  30  14
M  ISO  8  31  14  32  13  33  13  34  13  35  13  36  13  37  13  38  13
M  ISO  4  39  13  40  14  41  14  42  14
M  END
>  <minimizedAffinity>  (1) 
-5.86492014

>  <minimizedRMSD>  (1) 
0.134362429

$$$$
