
     RDKit          3D

 46 49  0  0  1  0  0  0  0  0999 V2000
   37.4980   31.3020   48.7190 N   0  0  0  0  0  0  0  0  0  0  0  0
   38.3560   31.5230   49.8780 C   0  0  0  0  0  0  0  0  0  0  0  0
   38.7010   32.9690   49.7210 C   0  0  0  0  0  0  0  0  0  0  0  0
   39.0400   33.0120   48.2440 C   0  0  0  0  0  0  0  0  0  0  0  0
   37.8560   32.2480   47.6980 C   0  0  1  0  0  0  0  0  0  0  0  0
   36.3530   29.1980   49.4060 C   0  0  0  0  0  0  0  0  0  0  0  0
   36.4850   30.3380   48.5880 C   0  0  0  0  0  0  0  0  0  0  0  0
   35.5380   30.5340   47.5590 C   0  0  0  0  0  0  0  0  0  0  0  0
   34.5420   29.6180   47.4020 N   0  0  0  0  0  0  0  0  0  0  0  0
   34.4480   28.5350   48.2090 C   0  0  0  0  0  0  0  0  0  0  0  0
   35.3510   28.3240   49.2090 N   0  0  0  0  0  0  0  0  0  0  0  0
   38.2350   31.6510   46.4190 C   0  0  0  0  0  0  0  0  0  0  0  0
   38.9340   30.4610   46.1580 C   0  0  0  0  0  0  0  0  0  0  0  0
   39.1970   30.0860   44.8700 C   0  0  0  0  0  0  0  0  0  0  0  0
   38.7900   30.8520   43.8780 N   0  0  0  0  0  0  0  0  0  0  0  0
   38.1200   31.9980   44.0860 C   0  0  0  0  0  0  0  0  0  0  0  0
   37.8610   32.3630   45.3620 N   0  0  0  0  0  0  0  0  0  0  0  0
   37.6850   32.8220   42.9120 C   0  0  0  0  0  0  0  0  0  0  0  0
   36.2830   32.3940   42.5380 C   0  0  0  0  0  0  0  0  0  0  0  0
   36.0740   32.7690   41.0860 C   0  0  0  0  0  0  0  0  0  0  0  0
   36.8070   34.0500   40.7920 C   0  0  0  0  0  0  0  0  0  0  0  0
   38.2960   33.9060   40.8310 C   0  0  0  0  0  0  0  0  0  0  0  0
   38.6260   32.7300   41.7480 C   0  0  0  0  0  0  0  0  0  0  0  0
   37.8164   31.3383   50.8186 H   0  0  0  0  0  0  0  0  0  0  0  0
   39.2292   30.8557   49.9237 H   0  0  0  0  0  0  0  0  0  0  0  0
   37.8466   33.6189   49.9609 H   0  0  0  0  0  0  0  0  0  0  0  0
   39.5017   33.3246   50.3861 H   0  0  0  0  0  0  0  0  0  0  0  0
   39.0765   34.0424   47.8605 H   0  0  0  0  0  0  0  0  0  0  0  0
   40.0260   32.6043   47.9764 H   0  0  0  0  0  0  0  0  0  0  0  0
   36.9756   32.8704   47.4800 H   0  0  0  0  0  0  0  0  0  0  0  0
   37.0778   29.0216   50.2144 H   0  0  0  0  0  0  0  0  0  0  0  0
   35.6033   31.4098   46.8967 H   0  0  0  0  0  0  0  0  0  0  0  0
   33.6311   27.8145   48.0558 H   0  0  0  0  0  0  0  0  0  0  0  0
   39.2709   29.8287   46.9927 H   0  0  0  0  0  0  0  0  0  0  0  0
   39.7432   29.1537   44.6636 H   0  0  0  0  0  0  0  0  0  0  0  0
   37.6957   33.8843   43.1973 H   0  0  0  0  0  0  0  0  0  0  0  0
   36.1738   31.3070   42.6662 H   0  0  0  0  0  0  0  0  0  0  0  0
   35.5390   32.8879   43.1803 H   0  0  0  0  0  0  0  0  0  0  0  0
   36.4617   31.9674   40.4401 H   0  0  0  0  0  0  0  0  0  0  0  0
   35.0000   32.9065   40.8921 H   0  0  0  0  0  0  0  0  0  0  0  0
   36.5098   34.8009   41.5388 H   0  0  0  0  0  0  0  0  0  0  0  0
   36.5369   34.3509   39.7690 H   0  0  0  0  0  0  0  0  0  0  0  0
   38.6800   33.7108   39.8188 H   0  0  0  0  0  0  0  0  0  0  0  0
   38.7622   34.8290   41.2060 H   0  0  0  0  0  0  0  0  0  0  0  0
   38.4793   31.7792   41.2147 H   0  0  0  0  0  0  0  0  0  0  0  0
   39.6742   32.7655   42.0796 H   0  0  0  0  0  0  0  0  0  0  0  0
  1  2  1  0
  3  2  1  0
  4  3  1  0
  5  4  1  0
  5  1  1  0
  7  1  1  0
  7  6  2  0
  8  7  1  0
  9  8  2  0
  9 10  1  0
 10 11  2  0
 11  6  1  0
 12  5  1  0
 13 12  2  0
 14 13  1  0
 15 16  1  0
 15 14  2  0
 16 17  2  0
 17 12  1  0
 18 16  1  0
 19 18  1  0
 20 19  1  0
 21 22  1  0
 21 20  1  0
 22 23  1  0
 23 18  1  0
  2 24  1  0
  2 25  1  0
  3 26  1  0
  3 27  1  0
  4 28  1  0
  4 29  1  0
  5 30  1  6
  6 31  1  0
  8 32  1  0
 10 33  1  0
 13 34  1  0
 14 35  1  0
 18 36  1  0
 19 37  1  0
 19 38  1  0
 20 39  1  0
 20 40  1  0
 21 41  1  0
 21 42  1  0
 22 43  1  0
 22 44  1  0
 23 45  1  0
 23 46  1  0
M  ISO  8  24  13  25  13  26  13  27  13  28  13  29  13  30  13  31  14
M  ISO  8  32  14  33  14  34  14  35  14  36  13  37  13  38  13  39  13
M  ISO  7  40  13  41  13  42  13  43  13  44  13  45  13  46  13
M  END
>  <minimizedAffinity>  (1) 
-5.76525593

>  <minimizedRMSD>  (1) 
0.808174253

$$$$
