
     RDKit          3D

 37 40  0  0  1  0  0  0  0  0999 V2000
   37.5360   31.3780   48.6450 N   0  0  0  0  0  0  0  0  0  0  0  0
   38.3930   31.6660   49.7850 C   0  0  0  0  0  0  0  0  0  0  0  0
   38.7030   33.1140   49.5630 C   0  0  0  0  0  0  0  0  0  0  0  0
   39.0740   33.0690   48.0880 C   0  0  0  0  0  0  0  0  0  0  0  0
   37.8830   32.2820   47.5840 C   0  0  1  0  0  0  0  0  0  0  0  0
   36.4380   29.2800   49.4230 C   0  0  0  0  0  0  0  0  0  0  0  0
   36.5340   30.3950   48.5610 C   0  0  0  0  0  0  0  0  0  0  0  0
   35.5640   30.5490   47.5390 C   0  0  0  0  0  0  0  0  0  0  0  0
   34.5820   29.6100   47.4350 N   0  0  0  0  0  0  0  0  0  0  0  0
   34.5240   28.5500   48.2850 C   0  0  0  0  0  0  0  0  0  0  0  0
   35.4480   28.3890   49.2700 N   0  0  0  0  0  0  0  0  0  0  0  0
   38.2580   31.6370   46.3260 C   0  0  0  0  0  0  0  0  0  0  0  0
   38.9950   30.4640   46.1080 C   0  0  0  0  0  0  0  0  0  0  0  0
   39.2500   30.0310   44.8390 C   0  0  0  0  0  0  0  0  0  0  0  0
   38.7870   30.7390   43.8170 N   0  0  0  0  0  0  0  0  0  0  0  0
   38.0810   31.8600   43.9860 C   0  0  0  0  0  0  0  0  0  0  0  0
   37.8330   32.2830   45.2470 N   0  0  0  0  0  0  0  0  0  0  0  0
   37.5550   32.6630   42.8110 C   0  0  0  0  0  0  0  0  0  0  0  0
   36.3030   32.9610   42.5040 C   0  0  0  0  0  0  0  0  0  0  0  0
   36.0050   33.6900   41.4140 C   0  0  0  0  0  0  0  0  0  0  0  0
   37.0630   34.0870   40.6710 C   0  0  0  0  0  0  0  0  0  0  0  0
   38.5830   33.3840   41.5690 S   0  0  0  0  0  0  0  0  0  0  0  0
   37.8634   31.5091   50.7363 H   0  0  0  0  0  0  0  0  0  0  0  0
   39.2816   31.0213   49.8539 H   0  0  0  0  0  0  0  0  0  0  0  0
   37.8272   33.7538   49.7464 H   0  0  0  0  0  0  0  0  0  0  0  0
   39.4729   33.5347   50.2265 H   0  0  0  0  0  0  0  0  0  0  0  0
   39.1263   34.0734   47.6425 H   0  0  0  0  0  0  0  0  0  0  0  0
   40.0617   32.6442   47.8555 H   0  0  0  0  0  0  0  0  0  0  0  0
   36.9970   32.8905   47.3503 H   0  0  0  0  0  0  0  0  0  0  0  0
   37.1793   29.1421   50.2239 H   0  0  0  0  0  0  0  0  0  0  0  0
   35.6029   31.4040   46.8480 H   0  0  0  0  0  0  0  0  0  0  0  0
   33.7168   27.8110   48.1741 H   0  0  0  0  0  0  0  0  0  0  0  0
   39.3706   29.8882   46.9667 H   0  0  0  0  0  0  0  0  0  0  0  0
   39.8289   29.1117   44.6668 H   0  0  0  0  0  0  0  0  0  0  0  0
   35.4895   32.6053   43.1534 H   0  0  0  0  0  0  0  0  0  0  0  0
   34.9697   33.9463   41.1447 H   0  0  0  0  0  0  0  0  0  0  0  0
   37.0471   34.6859   39.7485 H   0  0  0  0  0  0  0  0  0  0  0  0
  1  2  1  0
  3  2  1  0
  4  3  1  0
  5  4  1  0
  5  1  1  0
  7  1  1  0
  7  6  2  0
  8  7  1  0
  9  8  2  0
  9 10  1  0
 10 11  2  0
 11  6  1  0
 12  5  1  0
 13 12  2  0
 14 13  1  0
 15 16  1  0
 15 14  2  0
 16 17  2  0
 17 12  1  0
 18 16  1  0
 19 18  2  0
 20 19  1  0
 21 20  2  0
 21 22  1  0
 22 18  1  0
  2 23  1  0
  2 24  1  0
  3 25  1  0
  3 26  1  0
  4 27  1  0
  4 28  1  0
  5 29  1  6
  6 30  1  0
  8 31  1  0
 10 32  1  0
 13 33  1  0
 14 34  1  0
 19 35  1  0
 20 36  1  0
 21 37  1  0
M  ISO  8  23  13  24  13  25  13  26  13  27  13  28  13  29  13  30  14
M  ISO  7  31  14  32  14  33  14  34  14  35  14  36  14  37  14
M  END
>  <minimizedAffinity>  (1) 
-5.7017293

>  <minimizedRMSD>  (1) 
0.255735278

$$$$
