
     RDKit          3D

 33 35  0  0  1  0  0  0  0  0999 V2000
   37.5440   31.3640   48.6580 N   0  0  0  0  0  0  0  0  0  0  0  0
   38.4210   31.6430   49.7900 C   0  0  0  0  0  0  0  0  0  0  0  0
   38.7340   33.0950   49.5690 C   0  0  0  0  0  0  0  0  0  0  0  0
   39.0620   33.0640   48.0860 C   0  0  0  0  0  0  0  0  0  0  0  0
   37.8710   32.2700   47.5950 C   0  0  1  0  0  0  0  0  0  0  0  0
   36.4470   29.2730   49.4420 C   0  0  0  0  0  0  0  0  0  0  0  0
   36.5400   30.3850   48.5880 C   0  0  0  0  0  0  0  0  0  0  0  0
   35.5600   30.5290   47.5890 C   0  0  0  0  0  0  0  0  0  0  0  0
   34.5700   29.6000   47.4880 N   0  0  0  0  0  0  0  0  0  0  0  0
   34.5240   28.5370   48.3440 C   0  0  0  0  0  0  0  0  0  0  0  0
   35.4640   28.3790   49.3170 N   0  0  0  0  0  0  0  0  0  0  0  0
   38.2280   31.6320   46.3310 C   0  0  0  0  0  0  0  0  0  0  0  0
   39.0560   30.5270   46.0880 C   0  0  0  0  0  0  0  0  0  0  0  0
   39.2690   30.0930   44.8100 C   0  0  0  0  0  0  0  0  0  0  0  0
   38.6880   30.7250   43.8080 N   0  0  0  0  0  0  0  0  0  0  0  0
   37.8890   31.7870   43.9980 C   0  0  0  0  0  0  0  0  0  0  0  0
   37.6830   32.2100   45.2650 N   0  0  0  0  0  0  0  0  0  0  0  0
   37.2630   32.4540   42.8130 C   0  0  0  0  0  0  0  0  0  0  0  0
   37.0700   31.4240   41.8860 F   0  0  0  0  0  0  0  0  0  0  0  0
   38.1230   33.3730   42.2730 F   0  0  0  0  0  0  0  0  0  0  0  0
   36.0380   32.9660   43.1560 F   0  0  0  0  0  0  0  0  0  0  0  0
   37.9047   31.4837   50.7482 H   0  0  0  0  0  0  0  0  0  0  0  0
   39.3076   30.9942   49.8435 H   0  0  0  0  0  0  0  0  0  0  0  0
   37.8675   33.7378   49.7833 H   0  0  0  0  0  0  0  0  0  0  0  0
   39.5263   33.5042   50.2130 H   0  0  0  0  0  0  0  0  0  0  0  0
   39.0929   34.0732   47.6495 H   0  0  0  0  0  0  0  0  0  0  0  0
   40.0467   32.6467   47.8285 H   0  0  0  0  0  0  0  0  0  0  0  0
   36.9787   32.8738   47.3731 H   0  0  0  0  0  0  0  0  0  0  0  0
   37.2011   29.1363   50.2311 H   0  0  0  0  0  0  0  0  0  0  0  0
   35.5933   31.3832   46.8968 H   0  0  0  0  0  0  0  0  0  0  0  0
   33.7157   27.7973   48.2463 H   0  0  0  0  0  0  0  0  0  0  0  0
   39.5363   30.0071   46.9300 H   0  0  0  0  0  0  0  0  0  0  0  0
   39.9181   29.2258   44.6185 H   0  0  0  0  0  0  0  0  0  0  0  0
  1  2  1  0
  3  2  1  0
  4  3  1  0
  5  4  1  0
  5  1  1  0
  7  1  1  0
  7  6  2  0
  8  7  1  0
  9  8  2  0
  9 10  1  0
 10 11  2  0
 11  6  1  0
 12  5  1  0
 13 12  2  0
 14 13  1  0
 15 16  1  0
 15 14  2  0
 16 17  2  0
 17 12  1  0
 18 21  1  0
 18 16  1  0
 19 18  1  0
 20 18  1  0
  2 22  1  0
  2 23  1  0
  3 24  1  0
  3 25  1  0
  4 26  1  0
  4 27  1  0
  5 28  1  6
  6 29  1  0
  8 30  1  0
 10 31  1  0
 13 32  1  0
 14 33  1  0
M  ISO  8  22  13  23  13  24  13  25  13  26  13  27  13  28  13  29  14
M  ISO  4  30  14  31  14  32  14  33  14
M  END
>  <minimizedAffinity>  (1) 
-5.42822075

>  <minimizedRMSD>  (1) 
0.20863156

$$$$
