
     RDKit          3D

 37 40  0  0  1  0  0  0  0  0999 V2000
   37.5370   31.3730   48.6540 N   0  0  0  0  0  0  0  0  0  0  0  0
   38.4020   31.6380   49.8020 C   0  0  0  0  0  0  0  0  0  0  0  0
   38.7190   33.0980   49.5930 C   0  0  0  0  0  0  0  0  0  0  0  0
   39.0610   33.0790   48.1160 C   0  0  0  0  0  0  0  0  0  0  0  0
   37.8740   32.2920   47.6020 C   0  0  1  0  0  0  0  0  0  0  0  0
   36.4260   29.2790   49.4080 C   0  0  0  0  0  0  0  0  0  0  0  0
   36.5380   30.3920   48.5690 C   0  0  0  0  0  0  0  0  0  0  0  0
   35.5700   30.5510   47.5490 C   0  0  0  0  0  0  0  0  0  0  0  0
   34.5810   29.6250   47.4260 N   0  0  0  0  0  0  0  0  0  0  0  0
   34.5200   28.5550   48.2740 C   0  0  0  0  0  0  0  0  0  0  0  0
   35.4370   28.3850   49.2590 N   0  0  0  0  0  0  0  0  0  0  0  0
   38.2540   31.6600   46.3410 C   0  0  0  0  0  0  0  0  0  0  0  0
   38.9950   30.4880   46.1120 C   0  0  0  0  0  0  0  0  0  0  0  0
   39.2550   30.0650   44.8400 C   0  0  0  0  0  0  0  0  0  0  0  0
   38.7930   30.7780   43.8230 N   0  0  0  0  0  0  0  0  0  0  0  0
   38.0810   31.9020   43.9970 C   0  0  0  0  0  0  0  0  0  0  0  0
   37.8320   32.3110   45.2630 N   0  0  0  0  0  0  0  0  0  0  0  0
   37.5910   32.6590   42.8000 C   0  0  0  0  0  0  0  0  0  0  0  0
   37.6390   32.0240   41.4630 C   0  0  0  0  0  0  0  0  0  0  0  0
   38.5620   33.1700   41.8370 C   0  0  0  0  0  0  0  0  0  0  0  0
   37.8741   31.4713   50.7525 H   0  0  0  0  0  0  0  0  0  0  0  0
   39.2861   30.9864   49.8634 H   0  0  0  0  0  0  0  0  0  0  0  0
   37.8505   33.7394   49.8036 H   0  0  0  0  0  0  0  0  0  0  0  0
   39.5056   33.5016   50.2475 H   0  0  0  0  0  0  0  0  0  0  0  0
   39.0989   34.0922   47.6893 H   0  0  0  0  0  0  0  0  0  0  0  0
   40.0472   32.6605   47.8664 H   0  0  0  0  0  0  0  0  0  0  0  0
   36.9852   32.8985   47.3733 H   0  0  0  0  0  0  0  0  0  0  0  0
   37.1660   29.1331   50.2087 H   0  0  0  0  0  0  0  0  0  0  0  0
   35.6166   31.4113   46.8652 H   0  0  0  0  0  0  0  0  0  0  0  0
   33.7122   27.8178   48.1556 H   0  0  0  0  0  0  0  0  0  0  0  0
   39.3695   29.9053   46.9665 H   0  0  0  0  0  0  0  0  0  0  0  0
   39.8375   29.1489   44.6627 H   0  0  0  0  0  0  0  0  0  0  0  0
   36.7889   33.1162   43.3980 H   0  0  0  0  0  0  0  0  0  0  0  0
   36.8215   32.1820   40.7441 H   0  0  0  0  0  0  0  0  0  0  0  0
   37.7682   31.0006   41.0809 H   0  0  0  0  0  0  0  0  0  0  0  0
   39.6361   32.9861   41.9870 H   0  0  0  0  0  0  0  0  0  0  0  0
   38.7922   34.1574   41.4104 H   0  0  0  0  0  0  0  0  0  0  0  0
  1  2  1  0
  3  2  1  0
  4  3  1  0
  5  4  1  0
  5  1  1  0
  7  1  1  0
  7  6  2  0
  8  7  1  0
  9  8  2  0
  9 10  1  0
 10 11  2  0
 11  6  1  0
 12  5  1  0
 13 12  2  0
 14 13  1  0
 15 16  1  0
 15 14  2  0
 16 17  2  0
 17 12  1  0
 18 16  1  0
 19 20  1  0
 19 18  1  0
 20 18  1  0
  2 21  1  0
  2 22  1  0
  3 23  1  0
  3 24  1  0
  4 25  1  0
  4 26  1  0
  5 27  1  6
  6 28  1  0
  8 29  1  0
 10 30  1  0
 13 31  1  0
 14 32  1  0
 18 33  1  0
 19 34  1  0
 19 35  1  0
 20 36  1  0
 20 37  1  0
M  ISO  8  21  13  22  13  23  13  24  13  25  13  26  13  27  13  28  14
M  ISO  8  29  14  30  14  31  14  32  14  33  13  34  13  35  13  36  13
M  ISO  1  37  13
M  END
>  <minimizedAffinity>  (1) 
-5.26505184

>  <minimizedRMSD>  (1) 
0.42241022

$$$$
