
     RDKit          3D

 42 44  0  0  1  0  0  0  0  0999 V2000
   37.5760   31.4420   48.5400 N   0  0  0  0  0  0  0  0  0  0  0  0
   38.4320   31.7940   49.6700 C   0  0  0  0  0  0  0  0  0  0  0  0
   38.7300   33.2430   49.3620 C   0  0  0  0  0  0  0  0  0  0  0  0
   39.0870   33.1240   47.8910 C   0  0  0  0  0  0  0  0  0  0  0  0
   37.9110   32.2900   47.4280 C   0  0  1  0  0  0  0  0  0  0  0  0
   36.5200   29.3600   49.4060 C   0  0  0  0  0  0  0  0  0  0  0  0
   36.5870   30.4490   48.5140 C   0  0  0  0  0  0  0  0  0  0  0  0
   35.5890   30.5570   47.5160 C   0  0  0  0  0  0  0  0  0  0  0  0
   34.6100   29.6140   47.4550 N   0  0  0  0  0  0  0  0  0  0  0  0
   34.5850   28.5750   48.3420 C   0  0  0  0  0  0  0  0  0  0  0  0
   35.5270   28.4560   49.2980 N   0  0  0  0  0  0  0  0  0  0  0  0
   38.3030   31.5760   46.2150 C   0  0  0  0  0  0  0  0  0  0  0  0
   39.1040   30.4330   46.0650 C   0  0  0  0  0  0  0  0  0  0  0  0
   39.3620   29.9230   44.8280 C   0  0  0  0  0  0  0  0  0  0  0  0
   38.8450   30.5280   43.7630 N   0  0  0  0  0  0  0  0  0  0  0  0
   38.0780   31.6170   43.8640 C   0  0  0  0  0  0  0  0  0  0  0  0
   37.8260   32.1160   45.0980 N   0  0  0  0  0  0  0  0  0  0  0  0
   37.5230   32.2510   42.6210 C   0  0  0  0  0  0  0  0  0  0  0  0
   37.3180   31.1190   41.6060 C   0  0  0  0  0  0  0  0  0  0  0  0
   36.1240   32.8070   42.8820 C   0  0  0  0  0  0  0  0  0  0  0  0
   38.4450   33.2540   42.0080 C   0  0  0  0  0  0  0  0  0  0  0  0
   37.9024   31.6848   50.6279 H   0  0  0  0  0  0  0  0  0  0  0  0
   39.3241   31.1598   49.7793 H   0  0  0  0  0  0  0  0  0  0  0  0
   37.8502   33.8843   49.5192 H   0  0  0  0  0  0  0  0  0  0  0  0
   39.5036   33.7042   49.9936 H   0  0  0  0  0  0  0  0  0  0  0  0
   39.1183   34.1046   47.3936 H   0  0  0  0  0  0  0  0  0  0  0  0
   40.0798   32.7009   47.6781 H   0  0  0  0  0  0  0  0  0  0  0  0
   37.0177   32.8705   47.1542 H   0  0  0  0  0  0  0  0  0  0  0  0
   37.2807   29.2478   50.1927 H   0  0  0  0  0  0  0  0  0  0  0  0
   35.6047   31.3917   46.7997 H   0  0  0  0  0  0  0  0  0  0  0  0
   33.7837   27.8244   48.2746 H   0  0  0  0  0  0  0  0  0  0  0  0
   39.5276   29.9442   46.9548 H   0  0  0  0  0  0  0  0  0  0  0  0
   39.9876   29.0256   44.7125 H   0  0  0  0  0  0  0  0  0  0  0  0
   37.1467   30.1733   42.1411 H   0  0  0  0  0  0  0  0  0  0  0  0
   36.4464   31.3461   40.9746 H   0  0  0  0  0  0  0  0  0  0  0  0
   38.2139   31.0260   40.9746 H   0  0  0  0  0  0  0  0  0  0  0  0
   35.9529   32.8750   43.9665 H   0  0  0  0  0  0  0  0  0  0  0  0
   36.0377   33.8078   42.4337 H   0  0  0  0  0  0  0  0  0  0  0  0
   35.3742   32.1385   42.4337 H   0  0  0  0  0  0  0  0  0  0  0  0
   38.9593   33.8135   42.8033 H   0  0  0  0  0  0  0  0  0  0  0  0
   39.1885   32.7357   41.3847 H   0  0  0  0  0  0  0  0  0  0  0  0
   37.8661   33.9514   41.3847 H   0  0  0  0  0  0  0  0  0  0  0  0
  1  2  1  0
  3  2  1  0
  4  3  1  0
  5  4  1  0
  5  1  1  0
  7  1  1  0
  7  6  2  0
  8  7  1  0
  9  8  2  0
  9 10  1  0
 10 11  2  0
 11  6  1  0
 12  5  1  0
 13 12  2  0
 14 13  1  0
 15 16  1  0
 15 14  2  0
 16 17  2  0
 17 12  1  0
 18 20  1  0
 18 16  1  0
 19 18  1  0
 21 18  1  0
  2 22  1  0
  2 23  1  0
  3 24  1  0
  3 25  1  0
  4 26  1  0
  4 27  1  0
  5 28  1  6
  6 29  1  0
  8 30  1  0
 10 31  1  0
 13 32  1  0
 14 33  1  0
 19 34  1  0
 19 35  1  0
 19 36  1  0
 20 37  1  0
 20 38  1  0
 20 39  1  0
 21 40  1  0
 21 41  1  0
 21 42  1  0
M  ISO  8  22  13  23  13  24  13  25  13  26  13  27  13  28  13  29  14
M  ISO  8  30  14  31  14  32  14  33  14  34   8  35   8  36   8  37   8
M  ISO  5  38   8  39   8  40   8  41   8  42   8
M  END
>  <minimizedAffinity>  (1) 
-5.23374271

>  <minimizedRMSD>  (1) 
0.218834236

$$$$
