
     RDKit          3D

 32 34  0  0  1  0  0  0  0  0999 V2000
   37.5430   31.3690   48.6590 N   0  0  0  0  0  0  0  0  0  0  0  0
   38.4130   31.6440   49.7810 C   0  0  0  0  0  0  0  0  0  0  0  0
   38.7480   33.0860   49.5710 C   0  0  0  0  0  0  0  0  0  0  0  0
   39.0530   33.0780   48.0860 C   0  0  0  0  0  0  0  0  0  0  0  0
   37.8730   32.2760   47.5950 C   0  0  1  0  0  0  0  0  0  0  0  0
   38.2310   31.6420   46.3290 C   0  0  0  0  0  0  0  0  0  0  0  0
   39.0220   30.5080   46.0920 C   0  0  0  0  0  0  0  0  0  0  0  0
   39.2490   30.0770   44.8170 C   0  0  0  0  0  0  0  0  0  0  0  0
   38.7120   30.7440   43.8040 N   0  0  0  0  0  0  0  0  0  0  0  0
   37.9520   31.8290   43.9920 C   0  0  0  0  0  0  0  0  0  0  0  0
   37.7300   32.2510   45.2580 N   0  0  0  0  0  0  0  0  0  0  0  0
   37.4050   32.4970   42.8550 N   0  0  0  0  0  0  0  0  0  0  0  0
   36.4440   29.2760   49.4390 C   0  0  0  0  0  0  0  0  0  0  0  0
   36.5310   30.3900   48.5710 C   0  0  0  0  0  0  0  0  0  0  0  0
   35.5590   30.5420   47.5560 C   0  0  0  0  0  0  0  0  0  0  0  0
   34.5810   29.5980   47.4670 N   0  0  0  0  0  0  0  0  0  0  0  0
   34.5310   28.5340   48.3240 C   0  0  0  0  0  0  0  0  0  0  0  0
   35.4500   28.3780   49.2950 N   0  0  0  0  0  0  0  0  0  0  0  0
   37.8919   31.4903   50.7375 H   0  0  0  0  0  0  0  0  0  0  0  0
   39.2941   30.9873   49.8294 H   0  0  0  0  0  0  0  0  0  0  0  0
   37.8965   33.7407   49.8084 H   0  0  0  0  0  0  0  0  0  0  0  0
   39.5606   33.4679   50.2065 H   0  0  0  0  0  0  0  0  0  0  0  0
   39.0635   34.0936   47.6636 H   0  0  0  0  0  0  0  0  0  0  0  0
   40.0396   32.6757   47.8123 H   0  0  0  0  0  0  0  0  0  0  0  0
   36.9781   32.8752   47.3714 H   0  0  0  0  0  0  0  0  0  0  0  0
   39.4624   29.9624   46.9396 H   0  0  0  0  0  0  0  0  0  0  0  0
   39.8694   29.1877   44.6319 H   0  0  0  0  0  0  0  0  0  0  0  0
   36.8179   33.3336   42.9823 H   0  0  0  0  0  0  0  0  0  0  0  0
   37.5975   32.1423   41.9074 H   0  0  0  0  0  0  0  0  0  0  0  0
   37.1913   29.1425   50.2350 H   0  0  0  0  0  0  0  0  0  0  0  0
   35.5913   31.3942   46.8612 H   0  0  0  0  0  0  0  0  0  0  0  0
   33.7256   27.7923   48.2182 H   0  0  0  0  0  0  0  0  0  0  0  0
  1  2  1  0
  3  2  1  0
  4  3  1  0
  5  4  1  0
  5  1  1  0
  6  5  1  0
  7  6  2  0
  8  7  1  0
  9 10  1  0
  9  8  2  0
 10 11  2  0
 11  6  1  0
 12 10  1  0
 14  1  1  0
 14 13  2  0
 15 14  1  0
 16 15  2  0
 16 17  1  0
 17 18  2  0
 18 13  1  0
  2 19  1  0
  2 20  1  0
  3 21  1  0
  3 22  1  0
  4 23  1  0
  4 24  1  0
  5 25  1  6
  7 26  1  0
  8 27  1  0
 12 28  1  0
 12 29  1  0
 13 30  1  0
 15 31  1  0
 17 32  1  0
M  ISO  8  19  13  20  13  21  13  22  13  23  13  24  13  25  13  26  14
M  ISO  4  27  14  30  14  31  14  32  14
M  END
>  <minimizedAffinity>  (1) 
-5.22073317

>  <minimizedRMSD>  (1) 
0.0158250052

$$$$
