
     RDKit          3D

 24 26  0  0  0  0  0  0  0  0999 V2000
   38.7270   32.1600   47.9420 N   0  0  0  0  0  0  0  0  0  0  0  0
   39.2190   33.3970   48.1840 C   0  0  0  0  0  0  0  0  0  0  0  0
   39.9990   33.8380   47.1870 N   0  0  0  0  0  0  0  0  0  0  0  0
   40.0250   32.8690   46.2590 C   0  0  0  0  0  0  0  0  0  0  0  0
   40.6200   32.6980   45.0340 C   0  0  0  0  0  0  0  0  0  0  0  0
   40.4890   31.6070   44.2770 N   0  0  0  0  0  0  0  0  0  0  0  0
   39.7120   30.6260   44.7800 C   0  0  0  0  0  0  0  0  0  0  0  0
   39.1210   30.7650   45.9670 N   0  0  0  0  0  0  0  0  0  0  0  0
   39.2260   31.8310   46.7480 C   0  0  0  0  0  0  0  0  0  0  0  0
   36.6430   31.0000   48.3280 C   0  0  0  0  0  0  0  0  0  0  0  0
   37.8870   31.4260   48.7820 C   0  0  0  0  0  0  0  0  0  0  0  0
   38.2580   31.1030   50.0720 C   0  0  0  0  0  0  0  0  0  0  0  0
   37.3680   30.3760   50.8270 N   0  0  0  0  0  0  0  0  0  0  0  0
   36.1810   29.9830   50.3620 C   0  0  0  0  0  0  0  0  0  0  0  0
   35.8120   30.2900   49.1120 N   0  0  0  0  0  0  0  0  0  0  0  0
   35.2560   29.1940   51.2330 C   0  0  0  0  0  0  0  0  0  0  0  0
   39.0035   33.9748   49.0949 H   0  0  0  0  0  0  0  0  0  0  0  0
   41.2475   33.5159   44.6502 H   0  0  0  0  0  0  0  0  0  0  0  0
   39.5642   29.7005   44.2042 H   0  0  0  0  0  0  0  0  0  0  0  0
   36.3313   31.2498   47.3031 H   0  0  0  0  0  0  0  0  0  0  0  0
   39.2301   31.4158   50.4809 H   0  0  0  0  0  0  0  0  0  0  0  0
   35.4887   29.3925   52.2896 H   0  0  0  0  0  0  0  0  0  0  0  0
   34.2166   29.4879   51.0250 H   0  0  0  0  0  0  0  0  0  0  0  0
   35.3823   28.1213   51.0250 H   0  0  0  0  0  0  0  0  0  0  0  0
  1  2  1  0
  1 11  1  0
  3  2  2  0
  4  9  2  0
  4  3  1  0
  5  4  1  0
  6  7  1  0
  6  5  2  0
  7  8  2  0
  8  9  1  0
  9  1  1  0
 10 11  2  0
 10 15  1  0
 11 12  1  0
 12 13  2  0
 14 13  1  0
 14 16  1  0
 15 14  2  0
  2 17  1  0
  5 18  1  0
  7 19  1  0
 10 20  1  0
 12 21  1  0
 16 22  1  0
 16 23  1  0
 16 24  1  0
M  ISO  8  17  14  18  14  19  14  20  14  21  14  22   8  23   8  24   8
M  END
>  <minimizedAffinity>  (1) 
-5.15972185

>  <minimizedRMSD>  (1) 
1.37041903

$$$$
