
     RDKit          3D

 33 36  0  0  0  0  0  0  0  0999 V2000
   37.2610   31.2160   46.1590 C   0  0  0  0  0  0  0  0  0  0  0  0
   38.4710   31.9230   46.1320 C   0  0  0  0  0  0  0  0  0  0  0  0
   39.1850   32.0760   47.3130 C   0  0  0  0  0  0  0  0  0  0  0  0
   38.6530   31.5160   48.4460 N   0  0  0  0  0  0  0  0  0  0  0  0
   37.4900   30.8440   48.4390 C   0  0  0  0  0  0  0  0  0  0  0  0
   36.7990   30.6930   47.3160 N   0  0  0  0  0  0  0  0  0  0  0  0
   36.9870   30.2860   49.6480 N   0  0  0  0  0  0  0  0  0  0  0  0
   36.6970   28.8980   49.9610 C   0  0  0  0  0  0  0  0  0  0  0  0
   37.5200   28.7230   51.2310 C   0  0  0  0  0  0  0  0  0  0  0  0
   37.3360   30.0640   51.9070 C   0  0  0  0  0  0  0  0  0  0  0  0
   36.6330   30.9570   50.8860 C   0  0  0  0  0  0  0  0  0  0  0  0
   38.9350   32.4610   44.9210 N   0  0  0  0  0  0  0  0  0  0  0  0
   39.7730   33.4950   44.7870 C   0  0  0  0  0  0  0  0  0  0  0  0
   40.0270   33.7710   43.5010 N   0  0  0  0  0  0  0  0  0  0  0  0
   39.3330   32.8870   42.7680 C   0  0  0  0  0  0  0  0  0  0  0  0
   39.1640   32.6330   41.4270 C   0  0  0  0  0  0  0  0  0  0  0  0
   38.3900   31.6570   40.9170 N   0  0  0  0  0  0  0  0  0  0  0  0
   37.7480   30.8890   41.8310 C   0  0  0  0  0  0  0  0  0  0  0  0
   37.9050   31.1260   43.1370 N   0  0  0  0  0  0  0  0  0  0  0  0
   38.6560   32.0740   43.6750 C   0  0  0  0  0  0  0  0  0  0  0  0
   36.6835   31.0860   45.2318 H   0  0  0  0  0  0  0  0  0  0  0  0
   40.1384   32.6240   47.3387 H   0  0  0  0  0  0  0  0  0  0  0  0
   35.6245   28.7389   50.1468 H   0  0  0  0  0  0  0  0  0  0  0  0
   36.9371   28.1866   49.1571 H   0  0  0  0  0  0  0  0  0  0  0  0
   37.1282   27.9042   51.8524 H   0  0  0  0  0  0  0  0  0  0  0  0
   38.5716   28.4577   51.0471 H   0  0  0  0  0  0  0  0  0  0  0  0
   36.7172   29.9552   52.8099 H   0  0  0  0  0  0  0  0  0  0  0  0
   38.2991   30.4923   52.2215 H   0  0  0  0  0  0  0  0  0  0  0  0
   37.0204   31.9862   50.9137 H   0  0  0  0  0  0  0  0  0  0  0  0
   35.5511   31.0708   51.0490 H   0  0  0  0  0  0  0  0  0  0  0  0
   40.2025   34.0525   45.6324 H   0  0  0  0  0  0  0  0  0  0  0  0
   39.7029   33.2770   40.7165 H   0  0  0  0  0  0  0  0  0  0  0  0
   37.0960   30.0684   41.4970 H   0  0  0  0  0  0  0  0  0  0  0  0
  1  6  2  0
  2  1  1  0
  2  3  2  0
  3  4  1  0
  5  4  2  0
  5  7  1  0
  6  5  1  0
  7  8  1  0
  7 11  1  0
  8  9  1  0
  9 10  1  0
 11 10  1  0
 12  2  1  0
 13 12  1  0
 14 13  2  0
 15 14  1  0
 15 20  2  0
 16 15  1  0
 17 16  2  0
 17 18  1  0
 18 19  2  0
 19 20  1  0
 20 12  1  0
  1 21  1  0
  3 22  1  0
  8 23  1  0
  8 24  1  0
  9 25  1  0
  9 26  1  0
 10 27  1  0
 10 28  1  0
 11 29  1  0
 11 30  1  0
 13 31  1  0
 16 32  1  0
 18 33  1  0
M  ISO  8  21  14  22  14  23  13  24  13  25  13  26  13  27  13  28  13
M  ISO  5  29  13  30  13  31  14  32  14  33  14
M  END
>  <minimizedAffinity>  (1) 
-4.97036076

>  <minimizedRMSD>  (1) 
4.23034334

$$$$
