
     RDKit          3D

 39 44  0  0  1  0  0  0  0  0999 V2000
   35.0030   30.4210   47.4870 C   0  0  0  0  0  0  0  0  0  0  0  0
   36.1610   30.2340   48.2510 C   0  0  0  0  0  0  0  0  0  0  0  0
   36.1530   29.2700   49.2330 C   0  0  0  0  0  0  0  0  0  0  0  0
   34.9930   28.5440   49.4000 N   0  0  0  0  0  0  0  0  0  0  0  0
   33.9110   28.7380   48.6650 C   0  0  0  0  0  0  0  0  0  0  0  0
   33.9120   29.6730   47.7100 N   0  0  0  0  0  0  0  0  0  0  0  0
   37.2910   31.0270   48.0010 N   0  0  0  0  0  0  0  0  0  0  0  0
   37.7520   32.0180   48.8130 C   0  0  0  0  0  0  0  0  0  0  0  0
   38.8450   32.5950   48.3100 N   0  0  0  0  0  0  0  0  0  0  0  0
   39.1140   31.9710   47.1380 C   0  0  0  0  0  0  0  0  0  0  0  0
   40.0670   32.0880   46.1680 C   0  0  0  0  0  0  0  0  0  0  0  0
   40.1260   31.3310   45.0600 N   0  0  0  0  0  0  0  0  0  0  0  0
   39.1500   30.3970   44.9360 C   0  0  0  0  0  0  0  0  0  0  0  0
   38.2140   30.2720   45.8750 N   0  0  0  0  0  0  0  0  0  0  0  0
   38.1240   30.9970   46.9740 C   0  0  0  0  0  0  0  0  0  0  0  0
   32.6920   27.9060   48.9350 C   0  0  2  0  0  0  0  0  0  0  0  0
   32.4010   26.8960   47.7680 C   0  0  0  0  0  0  0  0  0  0  0  0
   31.4980   28.0170   48.0840 C   0  0  1  0  0  0  0  0  0  0  0  0
   30.1900   27.7630   48.6520 N   0  0  0  0  0  0  0  0  0  0  0  0
   29.9400   26.9550   49.6840 C   0  0  0  0  0  0  0  0  0  0  0  0
   28.6130   27.0080   49.8850 N   0  0  0  0  0  0  0  0  0  0  0  0
   28.0480   27.8500   48.9750 C   0  0  0  0  0  0  0  0  0  0  0  0
   26.7150   28.2160   48.7950 C   0  0  0  0  0  0  0  0  0  0  0  0
   26.5330   29.0830   47.7810 N   0  0  0  0  0  0  0  0  0  0  0  0
   27.5020   29.5580   47.0090 C   0  0  0  0  0  0  0  0  0  0  0  0
   28.7890   29.2070   47.1790 N   0  0  0  0  0  0  0  0  0  0  0  0
   29.0840   28.3340   48.1810 C   0  0  0  0  0  0  0  0  0  0  0  0
   34.9876   31.1871   46.6978 H   0  0  0  0  0  0  0  0  0  0  0  0
   37.0377   29.0859   49.8603 H   0  0  0  0  0  0  0  0  0  0  0  0
   37.2821   32.3069   49.7647 H   0  0  0  0  0  0  0  0  0  0  0  0
   40.8419   32.8569   46.3032 H   0  0  0  0  0  0  0  0  0  0  0  0
   39.1316   29.7390   44.0547 H   0  0  0  0  0  0  0  0  0  0  0  0
   32.8264   27.9155   50.0267 H   0  0  0  0  0  0  0  0  0  0  0  0
   32.1017   25.8610   47.9896 H   0  0  0  0  0  0  0  0  0  0  0  0
   32.9389   26.5402   46.8769 H   0  0  0  0  0  0  0  0  0  0  0  0
   31.0781   28.8312   47.4751 H   0  0  0  0  0  0  0  0  0  0  0  0
   30.6723   26.3650   50.2546 H   0  0  0  0  0  0  0  0  0  0  0  0
   25.8936   27.8345   49.4192 H   0  0  0  0  0  0  0  0  0  0  0  0
   27.2442   30.2617   46.2038 H   0  0  0  0  0  0  0  0  0  0  0  0
  1  6  2  0
  1  2  1  0
  2  3  2  0
  3  4  1  0
  5 16  1  0
  5  4  2  0
  6  5  1  0
  7  2  1  0
  7  8  1  0
  9  8  2  0
 10  9  1  0
 11 10  2  0
 12 11  1  0
 13 12  2  0
 13 14  1  0
 14 15  2  0
 15 10  1  0
 15  7  1  0
 17 18  1  0
 17 16  1  0
 18 19  1  0
 18 16  1  0
 19 20  1  0
 20 21  2  0
 22 21  1  0
 23 22  2  0
 24 23  1  0
 25 26  1  0
 25 24  2  0
 26 27  2  0
 27 19  1  0
 27 22  1  0
  1 28  1  0
  3 29  1  0
  8 30  1  0
 11 31  1  0
 13 32  1  0
 16 33  1  1
 17 34  1  0
 17 35  1  0
 18 36  1  6
 20 37  1  0
 23 38  1  0
 25 39  1  0
M  ISO  8  28  14  29  14  30  14  31  14  32  14  33  13  34  13  35  13
M  ISO  4  36  13  37  14  38  14  39  14
M  END
>  <minimizedAffinity>  (1) 
-6.83524561

>  <minimizedRMSD>  (1) 
1.43573475

$$$$
