
     RDKit          3D

 38 42  0  0  1  0  0  0  0  0999 V2000
   34.8070   30.4160   47.5610 C   0  0  0  0  0  0  0  0  0  0  0  0
   35.9670   30.2410   48.3250 C   0  0  0  0  0  0  0  0  0  0  0  0
   36.0020   29.2140   49.2400 C   0  0  0  0  0  0  0  0  0  0  0  0
   34.8810   28.4210   49.3390 N   0  0  0  0  0  0  0  0  0  0  0  0
   33.7960   28.6040   48.6070 C   0  0  0  0  0  0  0  0  0  0  0  0
   33.7480   29.6030   47.7100 N   0  0  0  0  0  0  0  0  0  0  0  0
   37.0530   31.1050   48.1450 N   0  0  0  0  0  0  0  0  0  0  0  0
   37.5530   31.9470   49.0860 C   0  0  0  0  0  0  0  0  0  0  0  0
   38.5900   32.6520   48.6340 N   0  0  0  0  0  0  0  0  0  0  0  0
   38.7810   32.2600   47.3440 C   0  0  0  0  0  0  0  0  0  0  0  0
   39.6560   32.5900   46.3520 C   0  0  0  0  0  0  0  0  0  0  0  0
   39.6420   32.0430   45.1180 N   0  0  0  0  0  0  0  0  0  0  0  0
   38.6910   31.1180   44.8920 C   0  0  0  0  0  0  0  0  0  0  0  0
   37.8270   30.7910   45.8670 N   0  0  0  0  0  0  0  0  0  0  0  0
   37.8060   31.2980   47.0780 C   0  0  0  0  0  0  0  0  0  0  0  0
   32.6270   27.6910   48.8010 C   0  0  2  0  0  0  0  0  0  0  0  0
   32.4560   26.6800   47.6130 C   0  0  0  0  0  0  0  0  0  0  0  0
   31.4690   27.7270   47.8960 C   0  0  1  0  0  0  0  0  0  0  0  0
   30.1430   27.4440   48.5010 C   0  0  0  0  0  0  0  0  0  0  0  0
   30.0340   27.6060   49.8740 C   0  0  0  0  0  0  0  0  0  0  0  0
   28.8150   27.3510   50.4760 C   0  0  0  0  0  0  0  0  0  0  0  0
   27.7520   26.9450   49.6890 C   0  0  0  0  0  0  0  0  0  0  0  0
   27.9140   26.7990   48.3260 C   0  0  0  0  0  0  0  0  0  0  0  0
   29.1150   27.0410   47.6740 C   0  0  0  0  0  0  0  0  0  0  0  0
   34.7619   31.2332   46.8261 H   0  0  0  0  0  0  0  0  0  0  0  0
   36.8884   29.0341   49.8661 H   0  0  0  0  0  0  0  0  0  0  0  0
   37.1484   32.0369   50.1049 H   0  0  0  0  0  0  0  0  0  0  0  0
   40.4211   33.3494   46.5708 H   0  0  0  0  0  0  0  0  0  0  0  0
   38.6213   30.6297   43.9088 H   0  0  0  0  0  0  0  0  0  0  0  0
   32.7111   27.6979   49.8978 H   0  0  0  0  0  0  0  0  0  0  0  0
   32.2189   25.6243   47.8111 H   0  0  0  0  0  0  0  0  0  0  0  0
   33.0559   26.3734   46.7434 H   0  0  0  0  0  0  0  0  0  0  0  0
   31.0129   28.4735   47.2291 H   0  0  0  0  0  0  0  0  0  0  0  0
   30.8986   27.9304   50.4717 H   0  0  0  0  0  0  0  0  0  0  0  0
   28.6928   27.4691   51.5628 H   0  0  0  0  0  0  0  0  0  0  0  0
   26.7753   26.7380   50.1506 H   0  0  0  0  0  0  0  0  0  0  0  0
   27.0495   26.4752   47.7278 H   0  0  0  0  0  0  0  0  0  0  0  0
   29.2372   26.9213   46.5874 H   0  0  0  0  0  0  0  0  0  0  0  0
  1  6  2  0
  1  2  1  0
  2  3  2  0
  3  4  1  0
  5 16  1  0
  5  4  2  0
  6  5  1  0
  7  2  1  0
  7  8  1  0
  9  8  2  0
 10  9  1  0
 11 10  2  0
 12 11  1  0
 13 12  2  0
 13 14  1  0
 14 15  2  0
 15 10  1  0
 15  7  1  0
 17 18  1  0
 17 16  1  0
 18 19  1  0
 18 16  1  0
 19 20  2  0
 20 21  1  0
 22 21  2  0
 23 22  1  0
 24 23  2  0
 24 19  1  0
  1 25  1  0
  3 26  1  0
  8 27  1  0
 11 28  1  0
 13 29  1  0
 16 30  1  1
 17 31  1  0
 17 32  1  0
 18 33  1  6
 20 34  1  0
 21 35  1  0
 22 36  1  0
 23 37  1  0
 24 38  1  0
M  ISO  8  25  14  26  14  27  14  28  14  29  14  30  13  31  13  32  13
M  ISO  6  33  13  34  14  35  14  36  14  37  14  38  14
M  END
>  <minimizedAffinity>  (1) 
-6.57083273

>  <minimizedRMSD>  (1) 
1.56321216

$$$$
