
     RDKit          3D

 44 48  0  0  1  0  0  0  0  0999 V2000
   34.9840   30.3950   47.4550 C   0  0  0  0  0  0  0  0  0  0  0  0
   36.1310   30.2250   48.2380 C   0  0  0  0  0  0  0  0  0  0  0  0
   36.1100   29.2550   49.2130 C   0  0  0  0  0  0  0  0  0  0  0  0
   34.9570   28.5110   49.3550 N   0  0  0  0  0  0  0  0  0  0  0  0
   33.8860   28.6940   48.5990 C   0  0  0  0  0  0  0  0  0  0  0  0
   33.8900   29.6370   47.6450 N   0  0  0  0  0  0  0  0  0  0  0  0
   37.2490   31.0320   48.0140 N   0  0  0  0  0  0  0  0  0  0  0  0
   37.6770   32.0250   48.8310 C   0  0  0  0  0  0  0  0  0  0  0  0
   38.7760   32.6220   48.3540 N   0  0  0  0  0  0  0  0  0  0  0  0
   39.0770   31.9960   47.1830 C   0  0  0  0  0  0  0  0  0  0  0  0
   40.0510   32.1290   46.2400 C   0  0  0  0  0  0  0  0  0  0  0  0
   40.1450   31.3700   45.1320 N   0  0  0  0  0  0  0  0  0  0  0  0
   39.1880   30.4240   44.9870 C   0  0  0  0  0  0  0  0  0  0  0  0
   38.2240   30.2820   45.9070 N   0  0  0  0  0  0  0  0  0  0  0  0
   38.1030   31.0100   47.0050 C   0  0  0  0  0  0  0  0  0  0  0  0
   32.6830   27.8430   48.8340 C   0  0  2  0  0  0  0  0  0  0  0  0
   32.5340   26.7060   47.7640 C   0  0  0  0  0  0  0  0  0  0  0  0
   31.5700   27.8050   47.8740 C   0  0  1  0  0  0  0  0  0  0  0  0
   30.1850   27.5970   48.4340 C   0  0  0  0  0  0  0  0  0  0  0  0
   29.1540   28.4950   47.8050 C   0  0  0  0  0  0  0  0  0  0  0  0
   27.8040   27.8460   48.0380 C   0  0  0  0  0  0  0  0  0  0  0  0
   27.8220   26.9600   49.2390 C   0  0  0  0  0  0  0  0  0  0  0  0
   28.7040   27.4660   50.3630 C   0  0  0  0  0  0  0  0  0  0  0  0
   30.1040   27.7520   49.9230 C   0  0  0  0  0  0  0  0  0  0  0  0
   34.9772   31.1640   46.6685 H   0  0  0  0  0  0  0  0  0  0  0  0
   36.9834   29.0784   49.8580 H   0  0  0  0  0  0  0  0  0  0  0  0
   37.1814   32.3062   49.7719 H   0  0  0  0  0  0  0  0  0  0  0  0
   40.8115   32.9086   46.3941 H   0  0  0  0  0  0  0  0  0  0  0  0
   39.2016   29.7656   44.1059 H   0  0  0  0  0  0  0  0  0  0  0  0
   32.7165   27.9750   49.9255 H   0  0  0  0  0  0  0  0  0  0  0  0
   32.2533   25.6876   48.0705 H   0  0  0  0  0  0  0  0  0  0  0  0
   33.1634   26.2837   46.9668 H   0  0  0  0  0  0  0  0  0  0  0  0
   31.1729   28.4945   47.1145 H   0  0  0  0  0  0  0  0  0  0  0  0
   29.9613   26.5505   48.1793 H   0  0  0  0  0  0  0  0  0  0  0  0
   29.3454   28.5932   46.7262 H   0  0  0  0  0  0  0  0  0  0  0  0
   29.1879   29.5024   48.2454 H   0  0  0  0  0  0  0  0  0  0  0  0
   27.0500   28.6331   48.1860 H   0  0  0  0  0  0  0  0  0  0  0  0
   27.5611   27.2306   47.1592 H   0  0  0  0  0  0  0  0  0  0  0  0
   26.7936   26.8711   49.6191 H   0  0  0  0  0  0  0  0  0  0  0  0
   28.2384   25.9942   48.9168 H   0  0  0  0  0  0  0  0  0  0  0  0
   28.2659   28.3925   50.7625 H   0  0  0  0  0  0  0  0  0  0  0  0
   28.7536   26.6738   51.1246 H   0  0  0  0  0  0  0  0  0  0  0  0
   30.7948   27.0453   50.4062 H   0  0  0  0  0  0  0  0  0  0  0  0
   30.3824   28.7776   50.2072 H   0  0  0  0  0  0  0  0  0  0  0  0
  1  6  2  0
  1  2  1  0
  2  3  2  0
  3  4  1  0
  5 16  1  0
  5  4  2  0
  6  5  1  0
  7  2  1  0
  7  8  1  0
  9  8  2  0
 10  9  1  0
 11 10  2  0
 12 11  1  0
 13 12  2  0
 13 14  1  0
 14 15  2  0
 15 10  1  0
 15  7  1  0
 17 18  1  0
 17 16  1  0
 18 19  1  0
 18 16  1  0
 19 24  1  0
 20 21  1  0
 20 19  1  0
 21 22  1  0
 22 23  1  0
 24 23  1  0
  1 25  1  0
  3 26  1  0
  8 27  1  0
 11 28  1  0
 13 29  1  0
 16 30  1  1
 17 31  1  0
 17 32  1  0
 18 33  1  6
 19 34  1  0
 20 35  1  0
 20 36  1  0
 21 37  1  0
 21 38  1  0
 22 39  1  0
 22 40  1  0
 23 41  1  0
 23 42  1  0
 24 43  1  0
 24 44  1  0
M  ISO  8  25  14  26  14  27  14  28  14  29  14  30  13  31  13  32  13
M  ISO  8  33  13  34  13  35  13  36  13  37  13  38  13  39  13  40  13
M  ISO  4  41  13  42  13  43  13  44  13
M  END
>  <minimizedAffinity>  (1) 
-6.53842831

>  <minimizedRMSD>  (1) 
1.32611668

$$$$
