
     RDKit          3D

 35 39  0  0  1  0  0  0  0  0999 V2000
   35.2480   30.4420   47.2720 C   0  0  0  0  0  0  0  0  0  0  0  0
   36.4070   30.3530   48.0150 C   0  0  0  0  0  0  0  0  0  0  0  0
   36.4330   29.4540   49.0820 C   0  0  0  0  0  0  0  0  0  0  0  0
   35.2890   28.7210   49.3120 N   0  0  0  0  0  0  0  0  0  0  0  0
   34.1960   28.8360   48.5750 C   0  0  0  0  0  0  0  0  0  0  0  0
   34.1630   29.6980   47.5460 N   0  0  0  0  0  0  0  0  0  0  0  0
   37.5220   31.1300   47.7190 N   0  0  0  0  0  0  0  0  0  0  0  0
   38.0040   32.1550   48.4500 C   0  0  0  0  0  0  0  0  0  0  0  0
   39.0900   32.7090   47.9170 N   0  0  0  0  0  0  0  0  0  0  0  0
   39.3420   32.0150   46.7720 C   0  0  0  0  0  0  0  0  0  0  0  0
   40.2860   32.0920   45.8020 C   0  0  0  0  0  0  0  0  0  0  0  0
   40.3270   31.2630   44.7240 N   0  0  0  0  0  0  0  0  0  0  0  0
   39.3450   30.3250   44.6610 C   0  0  0  0  0  0  0  0  0  0  0  0
   38.4240   30.2620   45.6210 N   0  0  0  0  0  0  0  0  0  0  0  0
   38.3450   31.0400   46.6800 C   0  0  0  0  0  0  0  0  0  0  0  0
   32.9980   27.9960   48.9200 C   0  0  2  0  0  0  0  0  0  0  0  0
   32.8010   26.8130   47.9120 C   0  0  0  0  0  0  0  0  0  0  0  0
   31.8400   27.9350   48.0170 C   0  0  1  0  0  0  0  0  0  0  0  0
   30.5520   27.6200   48.6100 C   0  0  0  0  0  0  0  0  0  0  0  0
   30.1360   27.7130   49.8830 C   0  0  0  0  0  0  0  0  0  0  0  0
   28.8900   27.3780   50.2900 C   0  0  0  0  0  0  0  0  0  0  0  0
   28.0310   26.9070   49.2360 C   0  0  0  0  0  0  0  0  0  0  0  0
   29.1480   26.9990   47.7170 S   0  0  0  0  0  0  0  0  0  0  0  0
   35.2108   31.1454   46.4271 H   0  0  0  0  0  0  0  0  0  0  0  0
   37.3272   29.3357   49.7116 H   0  0  0  0  0  0  0  0  0  0  0  0
   37.5468   32.4979   49.3899 H   0  0  0  0  0  0  0  0  0  0  0  0
   41.0613   32.8672   45.8914 H   0  0  0  0  0  0  0  0  0  0  0  0
   39.3111   29.6189   43.8182 H   0  0  0  0  0  0  0  0  0  0  0  0
   33.0830   28.1692   50.0030 H   0  0  0  0  0  0  0  0  0  0  0  0
   32.5289   25.8112   48.2758 H   0  0  0  0  0  0  0  0  0  0  0  0
   33.3932   26.3503   47.1087 H   0  0  0  0  0  0  0  0  0  0  0  0
   31.4204   28.6468   47.2909 H   0  0  0  0  0  0  0  0  0  0  0  0
   30.8473   28.0819   50.6366 H   0  0  0  0  0  0  0  0  0  0  0  0
   28.5618   27.4587   51.3368 H   0  0  0  0  0  0  0  0  0  0  0  0
   26.9840   26.5758   49.2996 H   0  0  0  0  0  0  0  0  0  0  0  0
  1  6  2  0
  1  2  1  0
  2  3  2  0
  3  4  1  0
  5 16  1  0
  5  4  2  0
  6  5  1  0
  7  2  1  0
  7  8  1  0
  9  8  2  0
 10  9  1  0
 11 10  2  0
 12 11  1  0
 13 12  2  0
 13 14  1  0
 14 15  2  0
 15 10  1  0
 15  7  1  0
 17 18  1  0
 17 16  1  0
 18 19  1  0
 18 16  1  0
 19 20  2  0
 20 21  1  0
 22 21  2  0
 23 19  1  0
 23 22  1  0
  1 24  1  0
  3 25  1  0
  8 26  1  0
 11 27  1  0
 13 28  1  0
 16 29  1  1
 17 30  1  0
 17 31  1  0
 18 32  1  6
 20 33  1  0
 21 34  1  0
 22 35  1  0
M  ISO  8  24  14  25  14  26  14  27  14  28  14  29  13  30  13  31  13
M  ISO  4  32  13  33  14  34  14  35  14
M  END
>  <minimizedAffinity>  (1) 
-6.20267391

>  <minimizedRMSD>  (1) 
0.987874389

$$$$
