
     RDKit          3D

 31 34  0  0  1  0  0  0  0  0999 V2000
   35.8120   30.4730   47.0740 C   0  0  0  0  0  0  0  0  0  0  0  0
   36.9740   30.5530   47.8500 C   0  0  0  0  0  0  0  0  0  0  0  0
   37.0390   29.7920   48.9930 C   0  0  0  0  0  0  0  0  0  0  0  0
   35.9530   29.0000   49.2970 N   0  0  0  0  0  0  0  0  0  0  0  0
   34.8640   28.9420   48.5490 C   0  0  0  0  0  0  0  0  0  0  0  0
   34.7880   29.6800   47.4300 N   0  0  0  0  0  0  0  0  0  0  0  0
   38.0230   31.3860   47.4550 N   0  0  0  0  0  0  0  0  0  0  0  0
   38.4490   32.4840   48.1200 C   0  0  0  0  0  0  0  0  0  0  0  0
   39.4720   33.0850   47.5000 N   0  0  0  0  0  0  0  0  0  0  0  0
   39.7250   32.3590   46.3950 C   0  0  0  0  0  0  0  0  0  0  0  0
   40.6200   32.4330   45.3580 C   0  0  0  0  0  0  0  0  0  0  0  0
   40.6740   31.5610   44.3400 N   0  0  0  0  0  0  0  0  0  0  0  0
   39.7650   30.5470   44.3680 C   0  0  0  0  0  0  0  0  0  0  0  0
   38.8930   30.4640   45.3650 N   0  0  0  0  0  0  0  0  0  0  0  0
   38.8030   31.2950   46.3830 C   0  0  0  0  0  0  0  0  0  0  0  0
   33.7360   28.0680   48.9690 C   0  0  2  0  0  0  0  0  0  0  0  0
   33.5410   26.8450   48.0050 C   0  0  0  0  0  0  0  0  0  0  0  0
   32.5370   27.9060   48.1360 C   0  0  1  0  0  0  0  0  0  0  0  0
   31.1930   27.6120   48.7250 C   0  0  0  0  0  0  0  0  0  0  0  0
   30.2210   28.0760   47.8460 F   0  0  0  0  0  0  0  0  0  0  0  0
   31.0150   28.1290   49.9880 F   0  0  0  0  0  0  0  0  0  0  0  0
   31.0020   26.2490   48.8330 F   0  0  0  0  0  0  0  0  0  0  0  0
   35.7358   31.0715   46.1542 H   0  0  0  0  0  0  0  0  0  0  0  0
   37.9267   29.8145   49.6422 H   0  0  0  0  0  0  0  0  0  0  0  0
   38.0062   32.8417   49.0612 H   0  0  0  0  0  0  0  0  0  0  0  0
   41.3418   33.2630   45.3614 H   0  0  0  0  0  0  0  0  0  0  0  0
   39.7537   29.7965   43.5638 H   0  0  0  0  0  0  0  0  0  0  0  0
   33.8691   28.2886   50.0384 H   0  0  0  0  0  0  0  0  0  0  0  0
   33.3462   25.8417   48.4118 H   0  0  0  0  0  0  0  0  0  0  0  0
   34.1082   26.3906   47.1793 H   0  0  0  0  0  0  0  0  0  0  0  0
   32.0398   28.5739   47.4172 H   0  0  0  0  0  0  0  0  0  0  0  0
  1  6  2  0
  1  2  1  0
  2  3  2  0
  3  4  1  0
  5 16  1  0
  5  4  2  0
  6  5  1  0
  7  2  1  0
  7  8  1  0
  9  8  2  0
 10  9  1  0
 11 10  2  0
 12 13  2  0
 12 11  1  0
 13 14  1  0
 14 15  2  0
 15 10  1  0
 15  7  1  0
 17 18  1  0
 17 16  1  0
 18 19  1  0
 18 16  1  0
 19 22  1  0
 19 21  1  0
 20 19  1  0
  1 23  1  0
  3 24  1  0
  8 25  1  0
 11 26  1  0
 13 27  1  0
 16 28  1  1
 17 29  1  0
 17 30  1  0
 18 31  1  6
M  ISO  8  23  14  24  14  25  14  26  14  27  14  28  13  29  13  30  13
M  ISO  1  31  13
M  END
>  <minimizedAffinity>  (1) 
-6.18459272

>  <minimizedRMSD>  (1) 
0.415515453

$$$$
