
     RDKit          3D

 31 34  0  0  1  0  0  0  0  0999 V2000
   35.8010   30.4640   47.1440 C   0  0  0  0  0  0  0  0  0  0  0  0
   36.9680   30.5550   47.8710 C   0  0  0  0  0  0  0  0  0  0  0  0
   37.0910   29.7840   49.0300 C   0  0  0  0  0  0  0  0  0  0  0  0
   36.0220   28.9820   49.3600 N   0  0  0  0  0  0  0  0  0  0  0  0
   34.9150   28.9160   48.6420 C   0  0  0  0  0  0  0  0  0  0  0  0
   34.7970   29.6540   47.5320 N   0  0  0  0  0  0  0  0  0  0  0  0
   38.0080   31.3930   47.4690 N   0  0  0  0  0  0  0  0  0  0  0  0
   38.4450   32.5030   48.1170 C   0  0  0  0  0  0  0  0  0  0  0  0
   39.4620   33.0850   47.4800 N   0  0  0  0  0  0  0  0  0  0  0  0
   39.7080   32.3470   46.3820 C   0  0  0  0  0  0  0  0  0  0  0  0
   40.5980   32.4270   45.3630 C   0  0  0  0  0  0  0  0  0  0  0  0
   40.6480   31.5320   44.3370 N   0  0  0  0  0  0  0  0  0  0  0  0
   39.7430   30.5240   44.3780 C   0  0  0  0  0  0  0  0  0  0  0  0
   38.8710   30.4560   45.3870 N   0  0  0  0  0  0  0  0  0  0  0  0
   38.7850   31.2960   46.3990 C   0  0  0  0  0  0  0  0  0  0  0  0
   33.8070   28.0250   49.0910 C   0  0  2  0  0  0  0  0  0  0  0  0
   33.4540   26.9260   48.0280 C   0  0  0  0  0  0  0  0  0  0  0  0
   32.5170   27.9940   48.3890 C   0  0  1  0  0  0  0  0  0  0  0  0
   31.2610   27.6850   49.0990 C   0  0  0  0  0  0  0  0  0  0  0  0
   30.6010   26.6240   48.8380 O   0  0  0  0  0  0  0  0  0  0  0  0
   30.7490   28.5250   50.0720 O   0  0  0  0  0  0  0  0  0  0  0  0
   35.6870   31.0643   46.2293 H   0  0  0  0  0  0  0  0  0  0  0  0
   37.9994   29.8165   49.6495 H   0  0  0  0  0  0  0  0  0  0  0  0
   38.0117   32.8779   49.0560 H   0  0  0  0  0  0  0  0  0  0  0  0
   41.3181   33.2585   45.3644 H   0  0  0  0  0  0  0  0  0  0  0  0
   39.7268   29.7643   43.5826 H   0  0  0  0  0  0  0  0  0  0  0  0
   34.0701   28.1155   50.1552 H   0  0  0  0  0  0  0  0  0  0  0  0
   33.2634   25.8892   48.3423 H   0  0  0  0  0  0  0  0  0  0  0  0
   33.9060   26.5518   47.0976 H   0  0  0  0  0  0  0  0  0  0  0  0
   31.9697   28.7473   47.8033 H   0  0  0  0  0  0  0  0  0  0  0  0
   29.9039   28.2923   50.5321 H   0  0  0  0  0  0  0  0  0  0  0  0
  1  6  2  0
  1  2  1  0
  2  3  2  0
  3  4  1  0
  5 16  1  0
  5  4  2  0
  6  5  1  0
  7  2  1  0
  7  8  1  0
  9  8  2  0
 10 15  2  0
 10  9  1  0
 11 10  1  0
 12 13  1  0
 12 11  2  0
 13 14  2  0
 14 15  1  0
 15  7  1  0
 17 18  1  0
 17 16  1  0
 18 16  1  0
 18 19  1  0
 19 21  1  0
 20 19  2  0
  1 22  1  0
  3 23  1  0
  8 24  1  0
 11 25  1  0
 13 26  1  0
 16 27  1  1
 17 28  1  0
 17 29  1  0
 18 30  1  6
 21 31  1  0
M  ISO  8  22  14  23  14  24  14  25  14  26  14  27  13  28  13  29  13
M  ISO  2  30  13  31   3
M  END
>  <minimizedAffinity>  (1) 
-6.17022228

>  <minimizedRMSD>  (1) 
0.532245994

$$$$
