
     RDKit          3D

 41 45  0  0  0  0  0  0  0  0999 V2000
   29.9710   28.0940   47.1740 C   0  0  0  0  0  0  0  0  0  0  0  0
   30.8530   28.6980   46.3340 C   0  0  0  0  0  0  0  0  0  0  0  0
   32.1580   28.9570   46.6760 C   0  0  0  0  0  0  0  0  0  0  0  0
   32.6050   28.5960   47.9190 C   0  0  0  0  0  0  0  0  0  0  0  0
   31.6960   27.9830   48.7640 C   0  0  0  0  0  0  0  0  0  0  0  0
   30.3900   27.7190   48.4310 C   0  0  0  0  0  0  0  0  0  0  0  0
   35.7290   29.9860   48.6530 C   0  0  0  0  0  0  0  0  0  0  0  0
   35.8530   28.8110   49.4110 C   0  0  0  0  0  0  0  0  0  0  0  0
   34.7010   28.0760   49.2720 C   0  0  0  0  0  0  0  0  0  0  0  0
   33.9100   28.7780   48.4610 N   0  0  0  0  0  0  0  0  0  0  0  0
   34.5070   29.8910   48.0980 N   0  0  0  0  0  0  0  0  0  0  0  0
   38.2490   32.5550   49.5190 C   0  0  0  0  0  0  0  0  0  0  0  0
   38.8380   32.7600   48.2760 C   0  0  0  0  0  0  0  0  0  0  0  0
   38.3720   32.0330   47.1880 C   0  0  0  0  0  0  0  0  0  0  0  0
   37.3570   31.1500   47.3990 N   0  0  0  0  0  0  0  0  0  0  0  0
   36.8020   30.9660   48.6060 C   0  0  0  0  0  0  0  0  0  0  0  0
   37.2310   31.6600   49.6890 N   0  0  0  0  0  0  0  0  0  0  0  0
   28.3050   27.7910   46.7410 S   0  0  0  0  0  0  0  0  0  0  0  0
   28.2700   26.7980   45.6160 O   0  0  0  0  0  0  0  0  0  0  0  0
   27.6030   27.2510   47.9400 O   0  0  0  0  0  0  0  0  0  0  0  0
   26.2970   32.1160   48.0280 N   0  0  0  0  0  0  0  0  0  0  0  0
   26.7510   31.3720   49.0510 C   0  0  0  0  0  0  0  0  0  0  0  0
   27.2690   30.2250   48.5430 N   0  0  0  0  0  0  0  0  0  0  0  0
   27.1470   30.2360   47.2120 C   0  0  0  0  0  0  0  0  0  0  0  0
   27.5280   29.2910   46.2830 C   0  0  0  0  0  0  0  0  0  0  0  0
   27.2620   29.6020   44.9830 N   0  0  0  0  0  0  0  0  0  0  0  0
   26.6560   30.7840   44.6760 C   0  0  0  0  0  0  0  0  0  0  0  0
   26.2810   31.7130   45.5930 N   0  0  0  0  0  0  0  0  0  0  0  0
   26.5330   31.4290   46.8890 C   0  0  0  0  0  0  0  0  0  0  0  0
   30.5052   28.9933   45.3331 H   0  0  0  0  0  0  0  0  0  0  0  0
   32.8348   29.4477   45.9610 H   0  0  0  0  0  0  0  0  0  0  0  0
   32.0416   27.6886   49.7659 H   0  0  0  0  0  0  0  0  0  0  0  0
   29.7066   27.2280   49.1395 H   0  0  0  0  0  0  0  0  0  0  0  0
   36.7269   28.5264   50.0154 H   0  0  0  0  0  0  0  0  0  0  0  0
   34.4766   27.1043   49.7362 H   0  0  0  0  0  0  0  0  0  0  0  0
   38.6114   33.1271   50.3858 H   0  0  0  0  0  0  0  0  0  0  0  0
   39.6574   33.4841   48.1567 H   0  0  0  0  0  0  0  0  0  0  0  0
   38.8091   32.1663   46.1874 H   0  0  0  0  0  0  0  0  0  0  0  0
   25.8505   33.0414   48.0994 H   0  0  0  0  0  0  0  0  0  0  0  0
   26.7099   31.6454   50.1157 H   0  0  0  0  0  0  0  0  0  0  0  0
   26.4577   30.9995   43.6157 H   0  0  0  0  0  0  0  0  0  0  0  0
  1  6  2  0
  2  3  2  0
  2  1  1  0
  3  4  1  0
  4 10  1  0
  4  5  2  0
  6  5  1  0
  7  8  1  0
  9  8  2  0
 10  9  1  0
 11 10  1  0
 11  7  2  0
 12 17  2  0
 13 12  1  0
 14 15  1  0
 14 13  2  0
 15 16  2  0
 16  7  1  0
 16 17  1  0
 18  1  1  0
 18 20  2  0
 19 18  2  0
 21 22  1  0
 23 22  2  0
 24 23  1  0
 25 18  1  0
 25 24  2  0
 26 25  1  0
 27 26  2  0
 27 28  1  0
 28 29  2  0
 29 24  1  0
 29 21  1  0
  2 30  1  0
  3 31  1  0
  5 32  1  0
  6 33  1  0
  8 34  1  0
  9 35  1  0
 12 36  1  0
 13 37  1  0
 14 38  1  0
 21 39  1  0
 22 40  1  0
 27 41  1  0
M  ISO  8  30  14  31  14  32  14  33  14  34  14  35  14  36  14  37  14
M  ISO  4  38  14  39   9  40  14  41  14
M  END
>  <minimizedAffinity>  (1) 
-6.7832427

>  <minimizedRMSD>  (1) 
2.39185119

$$$$
