
     RDKit          3D

 35 39  0  0  1  0  0  0  0  0999 V2000
   35.8470   30.4800   47.0550 C   0  0  0  0  0  0  0  0  0  0  0  0
   36.9960   30.5800   47.8140 C   0  0  0  0  0  0  0  0  0  0  0  0
   37.0880   29.8190   48.9810 C   0  0  0  0  0  0  0  0  0  0  0  0
   36.0120   29.0160   49.2920 N   0  0  0  0  0  0  0  0  0  0  0  0
   34.9250   28.9470   48.5380 C   0  0  0  0  0  0  0  0  0  0  0  0
   34.8340   29.6760   47.4150 N   0  0  0  0  0  0  0  0  0  0  0  0
   38.0440   31.4190   47.4310 N   0  0  0  0  0  0  0  0  0  0  0  0
   38.4770   32.5130   48.1050 C   0  0  0  0  0  0  0  0  0  0  0  0
   39.4990   33.1110   47.4870 N   0  0  0  0  0  0  0  0  0  0  0  0
   39.7500   32.3810   46.3640 C   0  0  0  0  0  0  0  0  0  0  0  0
   40.6460   32.4820   45.3530 C   0  0  0  0  0  0  0  0  0  0  0  0
   40.6960   31.6140   44.3240 N   0  0  0  0  0  0  0  0  0  0  0  0
   39.7910   30.6010   44.3350 C   0  0  0  0  0  0  0  0  0  0  0  0
   38.9100   30.5110   45.3380 N   0  0  0  0  0  0  0  0  0  0  0  0
   38.8270   31.3410   46.3650 C   0  0  0  0  0  0  0  0  0  0  0  0
   33.8070   28.0430   48.9730 C   0  0  2  0  0  0  0  0  0  0  0  0
   33.6330   26.8130   48.0190 C   0  0  0  0  0  0  0  0  0  0  0  0
   32.6140   27.8590   48.1280 C   0  0  1  0  0  0  0  0  0  0  0  0
   31.3310   27.6730   48.9130 C   0  0  0  0  0  0  0  0  0  0  0  0
   30.0220   27.9570   48.2780 C   0  0  0  0  0  0  0  0  0  0  0  0
   30.4270   26.5440   48.6230 C   0  0  0  0  0  0  0  0  0  0  0  0
   35.7595   31.0735   46.1330 H   0  0  0  0  0  0  0  0  0  0  0  0
   37.9798   29.8586   49.6237 H   0  0  0  0  0  0  0  0  0  0  0  0
   38.0382   32.8665   49.0497 H   0  0  0  0  0  0  0  0  0  0  0  0
   41.3671   33.3124   45.3733 H   0  0  0  0  0  0  0  0  0  0  0  0
   39.7825   29.8585   43.5235 H   0  0  0  0  0  0  0  0  0  0  0  0
   33.9352   28.2670   50.0423 H   0  0  0  0  0  0  0  0  0  0  0  0
   33.4468   25.8111   48.4331 H   0  0  0  0  0  0  0  0  0  0  0  0
   34.2139   26.3594   47.2024 H   0  0  0  0  0  0  0  0  0  0  0  0
   32.0983   28.4163   47.3321 H   0  0  0  0  0  0  0  0  0  0  0  0
   31.8450   28.0300   49.8176 H   0  0  0  0  0  0  0  0  0  0  0  0
   29.9758   28.2775   47.2267 H   0  0  0  0  0  0  0  0  0  0  0  0
   29.1632   28.6043   48.5093 H   0  0  0  0  0  0  0  0  0  0  0  0
   29.9270   26.0126   49.4462 H   0  0  0  0  0  0  0  0  0  0  0  0
   30.5123   25.5987   48.0670 H   0  0  0  0  0  0  0  0  0  0  0  0
  1  6  2  0
  1  2  1  0
  2  3  2  0
  3  4  1  0
  5 16  1  0
  5  4  2  0
  6  5  1  0
  7  2  1  0
  7  8  1  0
  9  8  2  0
 10 15  2  0
 10  9  1  0
 11 10  1  0
 12 13  1  0
 12 11  2  0
 13 14  2  0
 14 15  1  0
 15  7  1  0
 17 18  1  0
 17 16  1  0
 18 19  1  0
 18 16  1  0
 20 21  1  0
 20 19  1  0
 21 19  1  0
  1 22  1  0
  3 23  1  0
  8 24  1  0
 11 25  1  0
 13 26  1  0
 16 27  1  1
 17 28  1  0
 17 29  1  0
 18 30  1  6
 19 31  1  0
 20 32  1  0
 20 33  1  0
 21 34  1  0
 21 35  1  0
M  ISO  8  22  14  23  14  24  14  25  14  26  14  27  13  28  13  29  13
M  ISO  6  30  13  31  13  32  13  33  13  34  13  35  13
M  END
>  <minimizedAffinity>  (1) 
-5.79215717

>  <minimizedRMSD>  (1) 
0.450288355

$$$$
