
     RDKit          3D

 30 33  0  0  1  0  0  0  0  0999 V2000
   35.9460   30.4180   47.1430 C   0  0  0  0  0  0  0  0  0  0  0  0
   37.1070   30.5770   47.9110 C   0  0  0  0  0  0  0  0  0  0  0  0
   37.2180   29.8460   49.0700 C   0  0  0  0  0  0  0  0  0  0  0  0
   36.1800   29.0040   49.4050 N   0  0  0  0  0  0  0  0  0  0  0  0
   35.0950   28.8730   48.6630 C   0  0  0  0  0  0  0  0  0  0  0  0
   34.9720   29.5770   47.5300 N   0  0  0  0  0  0  0  0  0  0  0  0
   38.1020   31.4510   47.4960 N   0  0  0  0  0  0  0  0  0  0  0  0
   38.4960   32.5740   48.1570 C   0  0  0  0  0  0  0  0  0  0  0  0
   39.4740   33.2220   47.5220 N   0  0  0  0  0  0  0  0  0  0  0  0
   39.7380   32.5140   46.4110 C   0  0  0  0  0  0  0  0  0  0  0  0
   40.6040   32.6210   45.3490 C   0  0  0  0  0  0  0  0  0  0  0  0
   40.6760   31.7540   44.3260 N   0  0  0  0  0  0  0  0  0  0  0  0
   39.8190   30.7100   44.3770 C   0  0  0  0  0  0  0  0  0  0  0  0
   38.9730   30.5860   45.3930 N   0  0  0  0  0  0  0  0  0  0  0  0
   38.8640   31.4100   46.4180 C   0  0  0  0  0  0  0  0  0  0  0  0
   34.0100   27.9440   49.1130 C   0  0  2  0  0  0  0  0  0  0  0  0
   33.6120   26.9180   47.9940 C   0  0  0  0  0  0  0  0  0  0  0  0
   32.6880   27.9520   48.4700 C   0  0  2  0  0  0  0  0  0  0  0  0
   32.3630   28.9670   47.4570 N   0  0  0  0  0  0  0  0  0  0  0  0
   35.8302   30.9895   46.2103 H   0  0  0  0  0  0  0  0  0  0  0  0
   38.1083   29.9307   49.7104 H   0  0  0  0  0  0  0  0  0  0  0  0
   38.0571   32.9095   49.1082 H   0  0  0  0  0  0  0  0  0  0  0  0
   41.2894   33.4812   45.3361 H   0  0  0  0  0  0  0  0  0  0  0  0
   39.8224   29.9594   43.5729 H   0  0  0  0  0  0  0  0  0  0  0  0
   34.3214   27.9643   50.1678 H   0  0  0  0  0  0  0  0  0  0  0  0
   33.4402   25.8608   48.2447 H   0  0  0  0  0  0  0  0  0  0  0  0
   34.0220   26.6118   47.0202 H   0  0  0  0  0  0  0  0  0  0  0  0
   31.6814   27.9677   48.9133 H   0  0  0  0  0  0  0  0  0  0  0  0
   32.0831   29.8412   47.9243 H   0  0  0  0  0  0  0  0  0  0  0  0
   33.1901   29.1419   46.8685 H   0  0  0  0  0  0  0  0  0  0  0  0
  1  6  2  0
  1  2  1  0
  2  3  2  0
  3  4  1  0
  5 16  1  0
  5  4  2  0
  6  5  1  0
  7  2  1  0
  7  8  1  0
  9  8  2  0
 10 15  2  0
 10  9  1  0
 11 10  1  0
 12 13  1  0
 12 11  2  0
 13 14  2  0
 14 15  1  0
 15  7  1  0
 17 18  1  0
 17 16  1  0
 18 16  1  0
 19 18  1  0
  1 20  1  0
  3 21  1  0
  8 22  1  0
 11 23  1  0
 13 24  1  0
 16 25  1  1
 17 26  1  0
 17 27  1  0
 18 28  1  1
 19 29  1  0
 19 30  1  0
M  ISO  8  20  14  21  14  22  14  23  14  24  14  25  13  26  13  27  13
M  ISO  3  28  13  29   5  30   5
M  END
>  <minimizedAffinity>  (1) 
-5.77353096

>  <minimizedRMSD>  (1) 
0.0734443069

$$$$
