
     RDKit          3D

 29 32  0  0  1  0  0  0  0  0999 V2000
   35.9440   30.4110   47.1470 C   0  0  0  0  0  0  0  0  0  0  0  0
   37.0920   30.5800   47.8940 C   0  0  0  0  0  0  0  0  0  0  0  0
   37.2150   29.8490   49.0710 C   0  0  0  0  0  0  0  0  0  0  0  0
   36.1760   29.0060   49.4020 N   0  0  0  0  0  0  0  0  0  0  0  0
   35.0910   28.8730   48.6570 C   0  0  0  0  0  0  0  0  0  0  0  0
   34.9620   29.5740   47.5200 N   0  0  0  0  0  0  0  0  0  0  0  0
   38.0900   31.4530   47.4860 N   0  0  0  0  0  0  0  0  0  0  0  0
   38.4920   32.5720   48.1460 C   0  0  0  0  0  0  0  0  0  0  0  0
   39.4800   33.2100   47.5020 N   0  0  0  0  0  0  0  0  0  0  0  0
   39.7390   32.4970   46.3910 C   0  0  0  0  0  0  0  0  0  0  0  0
   40.6060   32.6220   45.3580 C   0  0  0  0  0  0  0  0  0  0  0  0
   40.6750   31.7410   44.3210 N   0  0  0  0  0  0  0  0  0  0  0  0
   39.8160   30.7060   44.3670 C   0  0  0  0  0  0  0  0  0  0  0  0
   38.9620   30.5860   45.3870 N   0  0  0  0  0  0  0  0  0  0  0  0
   38.8560   31.4040   46.4050 C   0  0  0  0  0  0  0  0  0  0  0  0
   34.0080   27.9330   49.1140 C   0  0  2  0  0  0  0  0  0  0  0  0
   33.6080   26.9140   47.9910 C   0  0  0  0  0  0  0  0  0  0  0  0
   32.6810   27.9520   48.4850 C   0  0  2  0  0  0  0  0  0  0  0  0
   32.3560   28.9890   47.5890 O   0  0  0  0  0  0  0  0  0  0  0  0
   35.8292   30.9816   46.2136 H   0  0  0  0  0  0  0  0  0  0  0  0
   38.1048   29.9400   49.7113 H   0  0  0  0  0  0  0  0  0  0  0  0
   38.0575   32.9138   49.0970 H   0  0  0  0  0  0  0  0  0  0  0  0
   41.2920   33.4819   45.3562 H   0  0  0  0  0  0  0  0  0  0  0  0
   39.8172   29.9564   43.5619 H   0  0  0  0  0  0  0  0  0  0  0  0
   34.3272   27.9419   50.1666 H   0  0  0  0  0  0  0  0  0  0  0  0
   33.4388   25.8549   48.2351 H   0  0  0  0  0  0  0  0  0  0  0  0
   34.0127   26.6144   47.0130 H   0  0  0  0  0  0  0  0  0  0  0  0
   31.6659   27.9361   48.9084 H   0  0  0  0  0  0  0  0  0  0  0  0
   32.1023   29.7986   48.0992 H   0  0  0  0  0  0  0  0  0  0  0  0
  1  6  2  0
  1  2  1  0
  2  3  2  0
  3  4  1  0
  5 16  1  0
  5  4  2  0
  6  5  1  0
  7  2  1  0
  7  8  1  0
  9  8  2  0
 10 15  2  0
 10  9  1  0
 11 10  1  0
 12 13  1  0
 12 11  2  0
 13 14  2  0
 14 15  1  0
 15  7  1  0
 17 18  1  0
 17 16  1  0
 18 16  1  0
 19 18  1  0
  1 20  1  0
  3 21  1  0
  8 22  1  0
 11 23  1  0
 13 24  1  0
 16 25  1  1
 17 26  1  0
 17 27  1  0
 18 28  1  1
 19 29  1  0
M  ISO  8  20  14  21  14  22  14  23  14  24  14  25  13  26  13  27  13
M  ISO  2  28  13  29   3
M  END
>  <minimizedAffinity>  (1) 
-5.77100039

>  <minimizedRMSD>  (1) 
0.066901125

$$$$
