
     RDKit          3D

 46 49  0  0  0  0  0  0  0  0999 V2000
   29.8220   27.8330   47.2720 C   0  0  0  0  0  0  0  0  0  0  0  0
   30.6090   28.6180   46.5010 C   0  0  0  0  0  0  0  0  0  0  0  0
   31.9070   28.9460   46.8430 C   0  0  0  0  0  0  0  0  0  0  0  0
   32.4360   28.4510   48.0280 C   0  0  0  0  0  0  0  0  0  0  0  0
   31.6290   27.6530   48.8080 C   0  0  0  0  0  0  0  0  0  0  0  0
   30.3390   27.3280   48.4690 C   0  0  0  0  0  0  0  0  0  0  0  0
   35.5460   29.9380   48.6380 C   0  0  0  0  0  0  0  0  0  0  0  0
   35.7230   28.7840   49.3890 C   0  0  0  0  0  0  0  0  0  0  0  0
   34.5830   28.0170   49.2940 C   0  0  0  0  0  0  0  0  0  0  0  0
   33.7460   28.7060   48.5000 N   0  0  0  0  0  0  0  0  0  0  0  0
   34.3010   29.8280   48.1130 N   0  0  0  0  0  0  0  0  0  0  0  0
   37.9070   32.6920   49.3290 C   0  0  0  0  0  0  0  0  0  0  0  0
   38.5870   32.7760   48.1260 C   0  0  0  0  0  0  0  0  0  0  0  0
   38.2290   31.9010   47.1210 C   0  0  0  0  0  0  0  0  0  0  0  0
   37.2300   31.0090   47.3680 N   0  0  0  0  0  0  0  0  0  0  0  0
   36.5900   30.9520   48.5440 C   0  0  0  0  0  0  0  0  0  0  0  0
   36.9170   31.7900   49.5440 N   0  0  0  0  0  0  0  0  0  0  0  0
   28.1820   27.4250   46.8640 S   0  0  0  0  0  0  0  0  0  0  0  0
   28.0730   27.2400   45.3730 O   0  0  0  0  0  0  0  0  0  0  0  0
   27.8460   26.1390   47.5630 O   0  0  0  0  0  0  0  0  0  0  0  0
   27.0680   28.6760   47.4340 C   0  0  0  0  0  0  0  0  0  0  0  0
   27.8170   29.8520   47.9610 C   0  0  0  0  0  0  0  0  0  0  0  0
   27.5860   30.1120   49.4380 C   0  0  0  0  0  0  0  0  0  0  0  0
   27.8250   28.8500   50.2190 C   0  0  0  0  0  0  0  0  0  0  0  0
   26.9890   27.7040   49.7480 C   0  0  0  0  0  0  0  0  0  0  0  0
   26.1680   28.1430   48.5400 C   0  0  0  0  0  0  0  0  0  0  0  0
   30.1975   29.0126   45.5603 H   0  0  0  0  0  0  0  0  0  0  0  0
   32.5119   29.5892   46.1869 H   0  0  0  0  0  0  0  0  0  0  0  0
   32.0382   27.2565   49.7489 H   0  0  0  0  0  0  0  0  0  0  0  0
   29.7282   26.6872   49.1219 H   0  0  0  0  0  0  0  0  0  0  0  0
   36.6241   28.5251   49.9644 H   0  0  0  0  0  0  0  0  0  0  0  0
   34.3964   27.0427   49.7694 H   0  0  0  0  0  0  0  0  0  0  0  0
   38.1797   33.3825   50.1407 H   0  0  0  0  0  0  0  0  0  0  0  0
   39.3867   33.5163   47.9762 H   0  0  0  0  0  0  0  0  0  0  0  0
   38.7373   31.9233   46.1457 H   0  0  0  0  0  0  0  0  0  0  0  0
   26.4540   28.9804   46.5736 H   0  0  0  0  0  0  0  0  0  0  0  0
   28.8916   29.6781   47.8032 H   0  0  0  0  0  0  0  0  0  0  0  0
   27.4499   30.7357   47.4184 H   0  0  0  0  0  0  0  0  0  0  0  0
   28.2789   30.8929   49.7844 H   0  0  0  0  0  0  0  0  0  0  0  0
   26.5485   30.4437   49.5912 H   0  0  0  0  0  0  0  0  0  0  0  0
   28.8852   28.5734   50.1221 H   0  0  0  0  0  0  0  0  0  0  0  0
   27.5469   29.0523   51.2639 H   0  0  0  0  0  0  0  0  0  0  0  0
   27.6416   26.8653   49.4638 H   0  0  0  0  0  0  0  0  0  0  0  0
   26.3144   27.3832   50.5555 H   0  0  0  0  0  0  0  0  0  0  0  0
   25.4693   28.9347   48.8483 H   0  0  0  0  0  0  0  0  0  0  0  0
   25.6174   27.2720   48.1549 H   0  0  0  0  0  0  0  0  0  0  0  0
  1  6  2  0
  2  3  2  0
  2  1  1  0
  3  4  1  0
  4 10  1  0
  4  5  2  0
  6  5  1  0
  7  8  1  0
  9  8  2  0
 10  9  1  0
 11 10  1  0
 11  7  2  0
 12 17  2  0
 13 12  1  0
 14 15  1  0
 14 13  2  0
 15 16  2  0
 16  7  1  0
 16 17  1  0
 18  1  1  0
 18 21  1  0
 18 20  2  0
 19 18  2  0
 21 22  1  0
 21 26  1  0
 22 23  1  0
 23 24  1  0
 25 24  1  0
 26 25  1  0
  2 27  1  0
  3 28  1  0
  5 29  1  0
  6 30  1  0
  8 31  1  0
  9 32  1  0
 12 33  1  0
 13 34  1  0
 14 35  1  0
 21 36  1  0
 22 37  1  0
 22 38  1  0
 23 39  1  0
 23 40  1  0
 24 41  1  0
 24 42  1  0
 25 43  1  0
 25 44  1  0
 26 45  1  0
 26 46  1  0
M  ISO  8  27  14  28  14  29  14  30  14  31  14  32  14  33  14  34  14
M  ISO  8  35  14  36  13  37  13  38  13  39  13  40  13  41  13  42  13
M  ISO  4  43  13  44  13  45  13  46  13
M  END
>  <minimizedAffinity>  (1) 
-6.69370031

>  <minimizedRMSD>  (1) 
2.69496226

$$$$
