
     RDKit          3D

 38 42  0  0  1  0  0  0  0  0999 V2000
   35.7970   30.5000   47.0460 C   0  0  0  0  0  0  0  0  0  0  0  0
   36.9580   30.5560   47.8100 C   0  0  0  0  0  0  0  0  0  0  0  0
   37.0300   29.7690   48.9370 C   0  0  0  0  0  0  0  0  0  0  0  0
   35.9430   28.9700   49.2390 N   0  0  0  0  0  0  0  0  0  0  0  0
   34.8520   28.9380   48.4910 C   0  0  0  0  0  0  0  0  0  0  0  0
   34.7740   29.7030   47.3910 N   0  0  0  0  0  0  0  0  0  0  0  0
   38.0070   31.3920   47.4320 N   0  0  0  0  0  0  0  0  0  0  0  0
   38.4270   32.4880   48.1130 C   0  0  0  0  0  0  0  0  0  0  0  0
   39.4570   33.0970   47.5080 N   0  0  0  0  0  0  0  0  0  0  0  0
   39.7190   32.3780   46.3980 C   0  0  0  0  0  0  0  0  0  0  0  0
   40.6260   32.4720   45.3820 C   0  0  0  0  0  0  0  0  0  0  0  0
   40.6880   31.6000   44.3500 N   0  0  0  0  0  0  0  0  0  0  0  0
   39.7800   30.5880   44.3620 C   0  0  0  0  0  0  0  0  0  0  0  0
   38.9000   30.4990   45.3520 N   0  0  0  0  0  0  0  0  0  0  0  0
   38.8000   31.3220   46.3770 C   0  0  0  0  0  0  0  0  0  0  0  0
   33.7180   28.0590   48.8900 C   0  0  2  0  0  0  0  0  0  0  0  0
   33.7290   26.6840   48.1370 C   0  0  0  0  0  0  0  0  0  0  0  0
   32.6660   27.6740   47.9410 C   0  0  2  0  0  0  0  0  0  0  0  0
   32.5760   28.2830   46.6250 N   0  0  0  0  0  0  0  0  0  0  0  0
   32.0200   29.4730   46.3010 C   0  0  0  0  0  0  0  0  0  0  0  0
   32.0240   29.8970   44.9890 C   0  0  0  0  0  0  0  0  0  0  0  0
   32.5890   29.1210   43.9940 C   0  0  0  0  0  0  0  0  0  0  0  0
   32.5830   29.5280   42.7920 O   0  0  0  0  0  0  0  0  0  0  0  0
   33.1330   27.9450   44.3380 N   0  0  0  0  0  0  0  0  0  0  0  0
   33.1260   27.5350   45.6280 C   0  0  0  0  0  0  0  0  0  0  0  0
   33.6840   26.3970   45.7740 O   0  0  0  0  0  0  0  0  0  0  0  0
   35.7159   31.1209   46.1417 H   0  0  0  0  0  0  0  0  0  0  0  0
   37.9244   29.7756   49.5773 H   0  0  0  0  0  0  0  0  0  0  0  0
   37.9746   32.8367   49.0531 H   0  0  0  0  0  0  0  0  0  0  0  0
   41.3463   33.3030   45.4039 H   0  0  0  0  0  0  0  0  0  0  0  0
   39.7746   29.8437   43.5521 H   0  0  0  0  0  0  0  0  0  0  0  0
   33.6799   28.4617   49.9129 H   0  0  0  0  0  0  0  0  0  0  0  0
   34.4635   26.4918   47.3410 H   0  0  0  0  0  0  0  0  0  0  0  0
   33.7786   25.6241   48.4270 H   0  0  0  0  0  0  0  0  0  0  0  0
   31.5705   27.6692   48.0408 H   0  0  0  0  0  0  0  0  0  0  0  0
   31.5660   30.1006   47.0821 H   0  0  0  0  0  0  0  0  0  0  0  0
   31.5716   30.8657   44.7305 H   0  0  0  0  0  0  0  0  0  0  0  0
   33.5598   27.3486   43.6148 H   0  0  0  0  0  0  0  0  0  0  0  0
  1  6  2  0
  1  2  1  0
  2  3  2  0
  3  4  1  0
  5 16  1  0
  5  4  2  0
  6  5  1  0
  7  2  1  0
  7  8  1  0
  9  8  2  0
 10  9  1  0
 11 10  2  0
 12 13  2  0
 12 11  1  0
 13 14  1  0
 14 15  2  0
 15 10  1  0
 15  7  1  0
 17 16  1  0
 18 17  1  0
 18 16  1  0
 19 18  1  0
 20 19  1  0
 21 20  2  0
 22 24  1  0
 22 21  1  0
 23 22  2  0
 24 25  1  0
 25 26  2  0
 25 19  1  0
  1 27  1  0
  3 28  1  0
  8 29  1  0
 11 30  1  0
 13 31  1  0
 16 32  1  1
 17 33  1  0
 17 34  1  0
 18 35  1  1
 20 36  1  0
 21 37  1  0
 24 38  1  0
M  ISO  8  27  14  28  14  29  14  30  14  31  14  32  13  33  13  34  13
M  ISO  4  35  13  36  14  37  14  38   9
M  END
>  <minimizedAffinity>  (1) 
-5.61563873

>  <minimizedRMSD>  (1) 
1.00145757

$$$$
