
     RDKit          3D

 31 34  0  0  1  0  0  0  0  0999 V2000
   35.8470   30.4240   47.0750 C   0  0  0  0  0  0  0  0  0  0  0  0
   36.9930   30.5580   47.8300 C   0  0  0  0  0  0  0  0  0  0  0  0
   37.1000   29.8070   49.0020 C   0  0  0  0  0  0  0  0  0  0  0  0
   36.0420   28.9820   49.3210 N   0  0  0  0  0  0  0  0  0  0  0  0
   34.9580   28.8820   48.5660 C   0  0  0  0  0  0  0  0  0  0  0  0
   34.8470   29.6010   47.4370 N   0  0  0  0  0  0  0  0  0  0  0  0
   38.0270   31.4130   47.4480 N   0  0  0  0  0  0  0  0  0  0  0  0
   38.4430   32.5110   48.1080 C   0  0  0  0  0  0  0  0  0  0  0  0
   39.4530   33.1170   47.4960 N   0  0  0  0  0  0  0  0  0  0  0  0
   39.7220   32.3970   46.3820 C   0  0  0  0  0  0  0  0  0  0  0  0
   40.6150   32.4970   45.3670 C   0  0  0  0  0  0  0  0  0  0  0  0
   40.6830   31.6170   44.3270 N   0  0  0  0  0  0  0  0  0  0  0  0
   39.7910   30.6070   44.3580 C   0  0  0  0  0  0  0  0  0  0  0  0
   38.9130   30.5030   45.3530 N   0  0  0  0  0  0  0  0  0  0  0  0
   38.8120   31.3360   46.3800 C   0  0  0  0  0  0  0  0  0  0  0  0
   33.8550   27.9610   49.0060 C   0  0  2  0  0  0  0  0  0  0  0  0
   33.6840   26.7390   48.0420 C   0  0  0  0  0  0  0  0  0  0  0  0
   32.6560   27.7770   48.1730 C   0  0  2  0  0  0  0  0  0  0  0  0
   32.3910   28.6300   46.9650 C   0  0  0  0  0  0  0  0  0  0  0  0
   35.7477   31.0082   46.1482 H   0  0  0  0  0  0  0  0  0  0  0  0
   37.9909   29.8707   49.6441 H   0  0  0  0  0  0  0  0  0  0  0  0
   37.9960   32.8656   49.0484 H   0  0  0  0  0  0  0  0  0  0  0  0
   41.3259   33.3363   45.3830 H   0  0  0  0  0  0  0  0  0  0  0  0
   39.7886   29.8594   43.5511 H   0  0  0  0  0  0  0  0  0  0  0  0
   33.9930   28.1734   50.0764 H   0  0  0  0  0  0  0  0  0  0  0  0
   33.5109   25.7313   48.4476 H   0  0  0  0  0  0  0  0  0  0  0  0
   34.2607   26.2986   47.2153 H   0  0  0  0  0  0  0  0  0  0  0  0
   31.5875   27.7889   48.4341 H   0  0  0  0  0  0  0  0  0  0  0  0
   32.0789   29.6345   47.2868 H   0  0  0  0  0  0  0  0  0  0  0  0
   33.3077   28.7065   46.3619 H   0  0  0  0  0  0  0  0  0  0  0  0
   31.5923   28.1735   46.3619 H   0  0  0  0  0  0  0  0  0  0  0  0
  1  6  2  0
  1  2  1  0
  2  3  2  0
  3  4  1  0
  5 16  1  0
  5  4  2  0
  6  5  1  0
  7  2  1  0
  7  8  1  0
  9  8  2  0
 10  9  1  0
 11 10  2  0
 12 13  2  0
 12 11  1  0
 13 14  1  0
 14 15  2  0
 15 10  1  0
 15  7  1  0
 17 18  1  0
 17 16  1  0
 18 16  1  0
 19 18  1  0
  1 20  1  0
  3 21  1  0
  8 22  1  0
 11 23  1  0
 13 24  1  0
 16 25  1  1
 17 26  1  0
 17 27  1  0
 18 28  1  1
 19 29  1  0
 19 30  1  0
 19 31  1  0
M  ISO  8  20  14  21  14  22  14  23  14  24  14  25  13  26  13  27  13
M  ISO  4  28  13  29   8  30   8  31   8
M  END
>  <minimizedAffinity>  (1) 
-5.542099

>  <minimizedRMSD>  (1) 
0.158749938

$$$$
