
     RDKit          3D

 33 37  0  0  1  0  0  0  0  0999 V2000
   35.7890   30.4960   47.0150 C   0  0  0  0  0  0  0  0  0  0  0  0
   36.9490   30.5600   47.7970 C   0  0  0  0  0  0  0  0  0  0  0  0
   37.0140   29.7820   48.9290 C   0  0  0  0  0  0  0  0  0  0  0  0
   35.9250   28.9880   49.2200 N   0  0  0  0  0  0  0  0  0  0  0  0
   34.8390   28.9410   48.4700 C   0  0  0  0  0  0  0  0  0  0  0  0
   34.7860   29.6870   47.3890 N   0  0  0  0  0  0  0  0  0  0  0  0
   38.0050   31.3960   47.4250 N   0  0  0  0  0  0  0  0  0  0  0  0
   38.4300   32.4860   48.1120 C   0  0  0  0  0  0  0  0  0  0  0  0
   39.4600   33.0840   47.5050 N   0  0  0  0  0  0  0  0  0  0  0  0
   39.7220   32.3780   46.3930 C   0  0  0  0  0  0  0  0  0  0  0  0
   40.6210   32.4510   45.3620 C   0  0  0  0  0  0  0  0  0  0  0  0
   40.6850   31.5930   44.3260 N   0  0  0  0  0  0  0  0  0  0  0  0
   39.7730   30.5930   44.3410 C   0  0  0  0  0  0  0  0  0  0  0  0
   38.8910   30.5040   45.3350 N   0  0  0  0  0  0  0  0  0  0  0  0
   38.7930   31.3200   46.3650 C   0  0  0  0  0  0  0  0  0  0  0  0
   33.6980   28.0710   48.8470 C   0  0  2  0  0  0  0  0  0  0  0  0
   33.6980   26.6980   48.0870 C   0  0  0  0  0  0  0  0  0  0  0  0
   32.6360   27.6850   47.9120 C   0  0  2  0  0  0  0  0  0  0  0  0
   32.4680   28.4560   46.6610 C   0  0  0  0  0  0  0  0  0  0  0  0
   31.8960   29.6540   46.3350 N   0  0  0  0  0  0  0  0  0  0  0  0
   32.0270   29.8570   45.0620 O   0  0  0  0  0  0  0  0  0  0  0  0
   32.6600   28.8590   44.5020 C   0  0  0  0  0  0  0  0  0  0  0  0
   32.9430   27.9790   45.4700 N   0  0  0  0  0  0  0  0  0  0  0  0
   35.7009   31.1036   46.1023 H   0  0  0  0  0  0  0  0  0  0  0  0
   37.9019   29.7927   49.5783 H   0  0  0  0  0  0  0  0  0  0  0  0
   37.9816   32.8352   49.0538 H   0  0  0  0  0  0  0  0  0  0  0  0
   41.3484   33.2759   45.3819 H   0  0  0  0  0  0  0  0  0  0  0  0
   39.7602   29.8509   43.5291 H   0  0  0  0  0  0  0  0  0  0  0  0
   33.6646   28.4802   49.8675 H   0  0  0  0  0  0  0  0  0  0  0  0
   34.4206   26.5095   47.2793 H   0  0  0  0  0  0  0  0  0  0  0  0
   33.7521   25.6368   48.3715 H   0  0  0  0  0  0  0  0  0  0  0  0
   31.5420   27.5962   47.9843 H   0  0  0  0  0  0  0  0  0  0  0  0
   32.9124   28.7612   43.4358 H   0  0  0  0  0  0  0  0  0  0  0  0
  1  6  2  0
  1  2  1  0
  2  3  2  0
  3  4  1  0
  5 16  1  0
  5  4  2  0
  6  5  1  0
  7  2  1  0
  7  8  1  0
  9  8  2  0
 10  9  1  0
 11 10  2  0
 12 13  2  0
 12 11  1  0
 13 14  1  0
 14 15  2  0
 15 10  1  0
 15  7  1  0
 17 16  1  0
 18 17  1  0
 18 16  1  0
 19 18  1  0
 20 19  2  0
 21 20  1  0
 22 21  1  0
 22 23  2  0
 23 19  1  0
  1 24  1  0
  3 25  1  0
  8 26  1  0
 11 27  1  0
 13 28  1  0
 16 29  1  1
 17 30  1  0
 17 31  1  0
 18 32  1  1
 22 33  1  0
M  ISO  8  24  14  25  14  26  14  27  14  28  14  29  13  30  13  31  13
M  ISO  2  32  13  33  14
M  END
>  <minimizedAffinity>  (1) 
-5.50741196

>  <minimizedRMSD>  (1) 
0.82975167

$$$$
