
     RDKit          3D

 30 33  0  0  1  0  0  0  0  0999 V2000
   35.8310   30.4180   47.0240 C   0  0  0  0  0  0  0  0  0  0  0  0
   36.9740   30.5350   47.8240 C   0  0  0  0  0  0  0  0  0  0  0  0
   37.0370   29.7850   48.9850 C   0  0  0  0  0  0  0  0  0  0  0  0
   35.9600   28.9720   49.2690 N   0  0  0  0  0  0  0  0  0  0  0  0
   34.8940   28.8850   48.4880 C   0  0  0  0  0  0  0  0  0  0  0  0
   34.8220   29.6010   47.3720 N   0  0  0  0  0  0  0  0  0  0  0  0
   38.0090   31.3880   47.4450 N   0  0  0  0  0  0  0  0  0  0  0  0
   38.4140   32.4840   48.1170 C   0  0  0  0  0  0  0  0  0  0  0  0
   39.4320   33.1050   47.5080 N   0  0  0  0  0  0  0  0  0  0  0  0
   39.7040   32.3940   46.4030 C   0  0  0  0  0  0  0  0  0  0  0  0
   40.6040   32.4780   45.3670 C   0  0  0  0  0  0  0  0  0  0  0  0
   40.6860   31.6180   44.3400 N   0  0  0  0  0  0  0  0  0  0  0  0
   39.7930   30.5930   44.3570 C   0  0  0  0  0  0  0  0  0  0  0  0
   38.9100   30.4890   45.3520 N   0  0  0  0  0  0  0  0  0  0  0  0
   38.8030   31.3220   46.3810 C   0  0  0  0  0  0  0  0  0  0  0  0
   33.7790   27.9770   48.8960 C   0  0  2  0  0  0  0  0  0  0  0  0
   33.6600   26.7120   47.9800 C   0  0  0  0  0  0  0  0  0  0  0  0
   32.6150   27.7480   48.0280 C   0  0  2  0  0  0  0  0  0  0  0  0
   32.3980   28.7080   46.9150 C   0  0  0  0  0  0  0  0  0  0  0  0
   31.3020   29.1010   46.5480 O   0  0  0  0  0  0  0  0  0  0  0  0
   35.7575   31.0040   46.0960 H   0  0  0  0  0  0  0  0  0  0  0  0
   37.9093   29.8351   49.6532 H   0  0  0  0  0  0  0  0  0  0  0  0
   37.9602   32.8287   49.0579 H   0  0  0  0  0  0  0  0  0  0  0  0
   41.3142   33.3179   45.3811 H   0  0  0  0  0  0  0  0  0  0  0  0
   39.7984   29.8474   43.5483 H   0  0  0  0  0  0  0  0  0  0  0  0
   33.8686   28.2387   49.9607 H   0  0  0  0  0  0  0  0  0  0  0  0
   33.4809   25.7206   48.4215 H   0  0  0  0  0  0  0  0  0  0  0  0
   34.2728   26.2428   47.1963 H   0  0  0  0  0  0  0  0  0  0  0  0
   31.5286   27.6693   48.1813 H   0  0  0  0  0  0  0  0  0  0  0  0
   33.2838   29.0901   46.3865 H   0  0  0  0  0  0  0  0  0  0  0  0
  1  6  2  0
  1  2  1  0
  2  3  2  0
  3  4  1  0
  5 16  1  0
  5  4  2  0
  6  5  1  0
  7  2  1  0
  7  8  1  0
  9  8  2  0
 10  9  1  0
 11 10  2  0
 12 13  2  0
 12 11  1  0
 13 14  1  0
 14 15  2  0
 15 10  1  0
 15  7  1  0
 17 18  1  0
 17 16  1  0
 18 16  1  0
 19 18  1  0
 20 19  2  0
  1 21  1  0
  3 22  1  0
  8 23  1  0
 11 24  1  0
 13 25  1  0
 16 26  1  1
 17 27  1  0
 17 28  1  0
 18 29  1  1
 19 30  1  0
M  ISO  8  21  14  22  14  23  14  24  14  25  14  26  13  27  13  28  13
M  ISO  2  29  13  30   6
M  END
>  <minimizedAffinity>  (1) 
-5.40657663

>  <minimizedRMSD>  (1) 
0.5116871

$$$$
