
     RDKit          3D

 35 39  0  0  1  0  0  0  0  0999 V2000
   35.7630   30.5970   47.1650 C   0  0  0  0  0  0  0  0  0  0  0  0
   36.9590   30.6070   47.8510 C   0  0  0  0  0  0  0  0  0  0  0  0
   37.0920   29.7630   48.9560 C   0  0  0  0  0  0  0  0  0  0  0  0
   36.0050   28.9800   49.2770 N   0  0  0  0  0  0  0  0  0  0  0  0
   34.8730   28.9990   48.5930 C   0  0  0  0  0  0  0  0  0  0  0  0
   34.7370   29.8070   47.5290 N   0  0  0  0  0  0  0  0  0  0  0  0
   38.0170   31.4270   47.4660 N   0  0  0  0  0  0  0  0  0  0  0  0
   38.4790   32.5090   48.1170 C   0  0  0  0  0  0  0  0  0  0  0  0
   39.5090   33.0850   47.4980 N   0  0  0  0  0  0  0  0  0  0  0  0
   39.7420   32.3530   46.3860 C   0  0  0  0  0  0  0  0  0  0  0  0
   40.6320   32.4200   45.3640 C   0  0  0  0  0  0  0  0  0  0  0  0
   40.6640   31.5370   44.3250 N   0  0  0  0  0  0  0  0  0  0  0  0
   39.7360   30.5570   44.3610 C   0  0  0  0  0  0  0  0  0  0  0  0
   38.8640   30.4910   45.3650 N   0  0  0  0  0  0  0  0  0  0  0  0
   38.8000   31.3260   46.3880 C   0  0  0  0  0  0  0  0  0  0  0  0
   33.7480   28.1190   49.0300 C   0  0  2  0  0  0  0  0  0  0  0  0
   33.7550   26.7270   48.3060 C   0  0  0  0  0  0  0  0  0  0  0  0
   32.6880   27.7100   48.0990 C   0  0  2  0  0  0  0  0  0  0  0  0
   32.6090   28.2540   46.7480 N   0  0  0  0  0  0  0  0  0  0  0  0
   31.9430   29.3560   46.3700 N   0  0  0  0  0  0  0  0  0  0  0  0
   32.0850   29.5630   45.0490 C   0  0  0  0  0  0  0  0  0  0  0  0
   32.8770   28.5550   44.5470 C   0  0  0  0  0  0  0  0  0  0  0  0
   33.1780   27.7690   45.6310 C   0  0  0  0  0  0  0  0  0  0  0  0
   35.6441   31.2560   46.2923 H   0  0  0  0  0  0  0  0  0  0  0  0
   38.0217   29.7253   49.5427 H   0  0  0  0  0  0  0  0  0  0  0  0
   38.0520   32.8795   49.0606 H   0  0  0  0  0  0  0  0  0  0  0  0
   41.3713   33.2345   45.3740 H   0  0  0  0  0  0  0  0  0  0  0  0
   39.7001   29.8084   43.5558 H   0  0  0  0  0  0  0  0  0  0  0  0
   33.7216   28.5408   50.0456 H   0  0  0  0  0  0  0  0  0  0  0  0
   34.4823   26.5193   47.5073 H   0  0  0  0  0  0  0  0  0  0  0  0
   33.8099   25.6737   48.6183 H   0  0  0  0  0  0  0  0  0  0  0  0
   31.5945   27.7252   48.2175 H   0  0  0  0  0  0  0  0  0  0  0  0
   31.6464   30.3905   44.4721 H   0  0  0  0  0  0  0  0  0  0  0  0
   33.1983   28.4111   43.5049 H   0  0  0  0  0  0  0  0  0  0  0  0
   33.8013   26.8635   45.5911 H   0  0  0  0  0  0  0  0  0  0  0  0
  1  6  2  0
  1  2  1  0
  2  3  2  0
  3  4  1  0
  5 16  1  0
  5  4  2  0
  6  5  1  0
  7  2  1  0
  7  8  1  0
  9  8  2  0
 10 15  2  0
 10  9  1  0
 11 10  1  0
 12 13  1  0
 12 11  2  0
 13 14  2  0
 14 15  1  0
 15  7  1  0
 17 16  1  0
 18 17  1  0
 18 16  1  0
 19 18  1  0
 20 19  1  0
 21 20  2  0
 22 21  1  0
 22 23  2  0
 23 19  1  0
  1 24  1  0
  3 25  1  0
  8 26  1  0
 11 27  1  0
 13 28  1  0
 16 29  1  1
 17 30  1  0
 17 31  1  0
 18 32  1  1
 21 33  1  0
 22 34  1  0
 23 35  1  0
M  ISO  8  24  14  25  14  26  14  27  14  28  14  29  13  30  13  31  13
M  ISO  4  32  13  33  14  34  14  35  14
M  END
>  <minimizedAffinity>  (1) 
-5.36152029

>  <minimizedRMSD>  (1) 
0.769729495

$$$$
