
     RDKit          3D

 31 33  0  0  0  0  0  0  0  0999 V2000
   37.1930   31.2600   48.5270 C   0  0  0  0  0  0  0  0  0  0  0  0
   37.5930   32.3830   49.2450 C   0  0  0  0  0  0  0  0  0  0  0  0
   38.5860   33.2070   48.7270 C   0  0  0  0  0  0  0  0  0  0  0  0
   39.1200   32.8570   47.5190 N   0  0  0  0  0  0  0  0  0  0  0  0
   38.7150   31.7760   46.8560 C   0  0  0  0  0  0  0  0  0  0  0  0
   37.7420   30.9540   47.3460 N   0  0  0  0  0  0  0  0  0  0  0  0
   39.3790   31.5800   45.6330 N   0  0  0  0  0  0  0  0  0  0  0  0
   40.5900   31.0210   45.4180 C   0  0  0  0  0  0  0  0  0  0  0  0
   40.8510   31.0310   44.0790 N   0  0  0  0  0  0  0  0  0  0  0  0
   39.7940   31.5990   43.4730 C   0  0  0  0  0  0  0  0  0  0  0  0
   39.4680   31.8880   42.1640 C   0  0  0  0  0  0  0  0  0  0  0  0
   40.2940   31.5870   41.2370 O   0  0  0  0  0  0  0  0  0  0  0  0
   38.3370   32.4740   41.7490 N   0  0  0  0  0  0  0  0  0  0  0  0
   37.4810   32.7810   42.7660 C   0  0  0  0  0  0  0  0  0  0  0  0
   36.2410   33.4100   42.4370 N   0  0  0  0  0  0  0  0  0  0  0  0
   37.7180   32.5360   44.0610 N   0  0  0  0  0  0  0  0  0  0  0  0
   38.8590   31.9500   44.4420 C   0  0  0  0  0  0  0  0  0  0  0  0
   36.1560   30.4160   49.0870 C   0  0  0  0  0  0  0  0  0  0  0  0
   34.9400   30.6260   48.8420 O   0  0  0  0  0  0  0  0  0  0  0  0
   36.5130   29.3560   49.9090 O   0  0  0  0  0  0  0  0  0  0  0  0
   36.5660   29.4500   51.3000 C   0  0  0  0  0  0  0  0  0  0  0  0
   37.7380   29.7730   52.0190 N   0  0  0  0  0  0  0  0  0  0  0  0
   35.4700   29.2180   51.8460 O   0  0  0  0  0  0  0  0  0  0  0  0
   37.1276   32.6168   50.2139 H   0  0  0  0  0  0  0  0  0  0  0  0
   38.9272   34.1026   49.2668 H   0  0  0  0  0  0  0  0  0  0  0  0
   41.2573   30.6224   46.1964 H   0  0  0  0  0  0  0  0  0  0  0  0
   38.1336   32.6732   40.7591 H   0  0  0  0  0  0  0  0  0  0  0  0
   35.5736   33.6542   43.1826 H   0  0  0  0  0  0  0  0  0  0  0  0
   36.0145   33.6192   41.4542 H   0  0  0  0  0  0  0  0  0  0  0  0
   37.7129   29.8271   53.0473 H   0  0  0  0  0  0  0  0  0  0  0  0
   38.6178   29.9545   51.5151 H   0  0  0  0  0  0  0  0  0  0  0  0
  1 18  1  0
  1  2  2  0
  3  2  1  0
  4  3  2  0
  5  6  2  0
  5  4  1  0
  6  1  1  0
  7  5  1  0
  8  7  1  0
  9  8  2  0
 10  9  1  0
 10 17  2  0
 11 10  1  0
 12 11  2  0
 13 11  1  0
 13 14  1  0
 14 16  2  0
 15 14  1  0
 16 17  1  0
 17  7  1  0
 18 20  1  0
 19 18  2  0
 20 21  1  0
 21 23  2  0
 21 22  1  0
  2 24  1  0
  3 25  1  0
  8 26  1  0
 13 27  1  0
 15 28  1  0
 15 29  1  0
 22 30  1  0
 22 31  1  0
M  ISO  4  24  14  25  14  26  14  27   9
M  END
>  <minimizedAffinity>  (1) 
-6.47961235

>  <minimizedRMSD>  (1) 
1.53738308

$$$$
