
     RDKit          3D

 30 31  0  0  0  0  0  0  0  0999 V2000
   37.2950   31.3830   48.4280 C   0  0  0  0  0  0  0  0  0  0  0  0
   37.8330   32.3040   49.3230 C   0  0  0  0  0  0  0  0  0  0  0  0
   38.8180   33.1790   48.8870 C   0  0  0  0  0  0  0  0  0  0  0  0
   39.2100   33.0840   47.5830 N   0  0  0  0  0  0  0  0  0  0  0  0
   38.6700   32.1820   46.7400 C   0  0  0  0  0  0  0  0  0  0  0  0
   37.7060   31.3200   47.1530 N   0  0  0  0  0  0  0  0  0  0  0  0
   39.0600   32.0630   45.3770 N   0  0  0  0  0  0  0  0  0  0  0  0
   38.1220   32.5010   44.4970 C   0  0  0  0  0  0  0  0  0  0  0  0
   38.3810   32.4380   43.1570 C   0  0  0  0  0  0  0  0  0  0  0  0
   37.3410   32.9230   42.1860 C   0  0  0  0  0  0  0  0  0  0  0  0
   39.5790   31.9360   42.6950 C   0  0  0  0  0  0  0  0  0  0  0  0
   39.7840   31.8920   41.4500 O   0  0  0  0  0  0  0  0  0  0  0  0
   40.4800   31.5130   43.5960 N   0  0  0  0  0  0  0  0  0  0  0  0
   40.2380   31.5690   44.9120 C   0  0  0  0  0  0  0  0  0  0  0  0
   41.0440   31.1900   45.7960 O   0  0  0  0  0  0  0  0  0  0  0  0
   36.2620   30.4720   48.9030 C   0  0  0  0  0  0  0  0  0  0  0  0
   35.0590   30.6280   48.5740 O   0  0  0  0  0  0  0  0  0  0  0  0
   36.6270   29.4180   49.7300 O   0  0  0  0  0  0  0  0  0  0  0  0
   36.5610   29.4770   51.1230 C   0  0  0  0  0  0  0  0  0  0  0  0
   37.6840   29.7980   51.9250 N   0  0  0  0  0  0  0  0  0  0  0  0
   35.4200   29.2190   51.5770 O   0  0  0  0  0  0  0  0  0  0  0  0
   37.4810   32.3377   50.3646 H   0  0  0  0  0  0  0  0  0  0  0  0
   39.2653   33.9201   49.5657 H   0  0  0  0  0  0  0  0  0  0  0  0
   37.1641   32.9021   44.8596 H   0  0  0  0  0  0  0  0  0  0  0  0
   36.4802   33.3244   42.7409 H   0  0  0  0  0  0  0  0  0  0  0  0
   37.7705   33.7137   41.5533 H   0  0  0  0  0  0  0  0  0  0  0  0
   37.0113   32.0858   41.5533 H   0  0  0  0  0  0  0  0  0  0  0  0
   41.3801   31.1359   43.2668 H   0  0  0  0  0  0  0  0  0  0  0  0
   37.5921   29.8307   52.9504 H   0  0  0  0  0  0  0  0  0  0  0  0
   38.5923   29.9986   51.4827 H   0  0  0  0  0  0  0  0  0  0  0  0
  1 16  1  0
  1  2  2  0
  3  2  1  0
  4  3  2  0
  5  6  2  0
  5  4  1  0
  6  1  1  0
  7  5  1  0
  8  7  1  0
  9  8  2  0
 10  9  1  0
 11  9  1  0
 11 13  1  0
 12 11  2  0
 13 14  1  0
 14  7  1  0
 14 15  2  0
 16 18  1  0
 17 16  2  0
 18 19  1  0
 19 21  2  0
 19 20  1  0
  2 22  1  0
  3 23  1  0
  8 24  1  0
 10 25  1  0
 10 26  1  0
 10 27  1  0
 13 28  1  0
 20 29  1  0
 20 30  1  0
M  ISO  7  22  14  23  14  24  14  25   8  26   8  27   8  28   9
M  END
>  <minimizedAffinity>  (1) 
-6.4126997

>  <minimizedRMSD>  (1) 
1.19356513

$$$$
