
     RDKit          3D

 28 29  0  0  0  0  0  0  0  0999 V2000
   37.2590   31.4000   48.4530 C   0  0  0  0  0  0  0  0  0  0  0  0
   37.8750   32.3200   49.3020 C   0  0  0  0  0  0  0  0  0  0  0  0
   38.8570   33.1550   48.7740 C   0  0  0  0  0  0  0  0  0  0  0  0
   39.1620   33.0230   47.4490 N   0  0  0  0  0  0  0  0  0  0  0  0
   38.5470   32.1220   46.6550 C   0  0  0  0  0  0  0  0  0  0  0  0
   37.5910   31.3070   47.1630 N   0  0  0  0  0  0  0  0  0  0  0  0
   38.9130   32.0320   45.2720 N   0  0  0  0  0  0  0  0  0  0  0  0
   38.0380   32.4980   44.3440 C   0  0  0  0  0  0  0  0  0  0  0  0
   38.3710   32.4220   42.9910 C   0  0  0  0  0  0  0  0  0  0  0  0
   39.5950   31.8680   42.6810 C   0  0  0  0  0  0  0  0  0  0  0  0
   39.9860   31.7650   41.3170 N   0  0  0  0  0  0  0  0  0  0  0  0
   40.4480   31.4110   43.6380 N   0  0  0  0  0  0  0  0  0  0  0  0
   40.1040   31.4940   44.9480 C   0  0  0  0  0  0  0  0  0  0  0  0
   40.8760   31.0780   45.8520 O   0  0  0  0  0  0  0  0  0  0  0  0
   36.2320   30.5270   49.0070 C   0  0  0  0  0  0  0  0  0  0  0  0
   35.0140   30.7220   48.7660 O   0  0  0  0  0  0  0  0  0  0  0  0
   36.6170   29.4650   49.8120 O   0  0  0  0  0  0  0  0  0  0  0  0
   36.5720   29.4890   51.1950 C   0  0  0  0  0  0  0  0  0  0  0  0
   37.7120   29.8110   51.9910 N   0  0  0  0  0  0  0  0  0  0  0  0
   35.4480   29.2060   51.6680 O   0  0  0  0  0  0  0  0  0  0  0  0
   37.5919   32.3844   50.3630 H   0  0  0  0  0  0  0  0  0  0  0  0
   39.3703   33.8967   49.4036 H   0  0  0  0  0  0  0  0  0  0  0  0
   37.0761   32.9312   44.6557 H   0  0  0  0  0  0  0  0  0  0  0  0
   37.6892   32.7868   42.2087 H   0  0  0  0  0  0  0  0  0  0  0  0
   40.8978   31.3531   41.0723 H   0  0  0  0  0  0  0  0  0  0  0  0
   39.3573   32.1023   40.5741 H   0  0  0  0  0  0  0  0  0  0  0  0
   37.6375   29.8180   53.0183 H   0  0  0  0  0  0  0  0  0  0  0  0
   38.6092   30.0364   51.5382 H   0  0  0  0  0  0  0  0  0  0  0  0
  1 15  1  0
  1  2  2  0
  3  2  1  0
  4  3  2  0
  5  6  2  0
  5  4  1  0
  6  1  1  0
  7  5  1  0
  8  7  1  0
  9  8  2  0
 10  9  1  0
 10 12  2  0
 11 10  1  0
 12 13  1  0
 13  7  1  0
 13 14  2  0
 15 17  1  0
 16 15  2  0
 17 18  1  0
 18 20  2  0
 18 19  1  0
  2 21  1  0
  3 22  1  0
  8 23  1  0
  9 24  1  0
 11 25  1  0
 11 26  1  0
 19 27  1  0
 19 28  1  0
M  ISO  4  21  14  22  14  23  14  24  14
M  END
>  <minimizedAffinity>  (1) 
-6.10280418

>  <minimizedRMSD>  (1) 
0.968590736

$$$$
