
     RDKit          3D

 29 30  0  0  0  0  0  0  0  0999 V2000
   37.4590   31.5020   48.5260 C   0  0  0  0  0  0  0  0  0  0  0  0
   37.6250   32.5340   49.4690 C   0  0  0  0  0  0  0  0  0  0  0  0
   38.5870   33.5010   49.1950 C   0  0  0  0  0  0  0  0  0  0  0  0
   39.3150   33.4010   48.0400 N   0  0  0  0  0  0  0  0  0  0  0  0
   39.1180   32.3980   47.1760 C   0  0  0  0  0  0  0  0  0  0  0  0
   38.1970   31.4430   47.4050 N   0  0  0  0  0  0  0  0  0  0  0  0
   39.9260   32.3820   46.0040 N   0  0  0  0  0  0  0  0  0  0  0  0
   39.9450   33.4470   45.0170 C   0  0  0  0  0  0  0  0  0  0  0  0
   39.8750   32.6510   43.7280 C   0  0  0  0  0  0  0  0  0  0  0  0
   40.4050   31.2680   44.0560 C   0  0  0  0  0  0  0  0  0  0  0  0
   40.8670   31.3930   45.5090 C   0  0  0  0  0  0  0  0  0  0  0  0
   36.4570   30.4870   48.8040 C   0  0  0  0  0  0  0  0  0  0  0  0
   35.3020   30.5750   48.2970 O   0  0  0  0  0  0  0  0  0  0  0  0
   36.7760   29.4200   49.6300 O   0  0  0  0  0  0  0  0  0  0  0  0
   36.6450   29.4810   51.0230 C   0  0  0  0  0  0  0  0  0  0  0  0
   37.7120   29.7980   51.8930 N   0  0  0  0  0  0  0  0  0  0  0  0
   35.4940   29.2280   51.4250 O   0  0  0  0  0  0  0  0  0  0  0  0
   37.0184   32.5742   50.3857 H   0  0  0  0  0  0  0  0  0  0  0  0
   38.7597   34.3320   49.8947 H   0  0  0  0  0  0  0  0  0  0  0  0
   39.0776   34.1146   45.1268 H   0  0  0  0  0  0  0  0  0  0  0  0
   40.8154   34.1158   45.0894 H   0  0  0  0  0  0  0  0  0  0  0  0
   40.4966   33.1239   42.9534 H   0  0  0  0  0  0  0  0  0  0  0  0
   38.8466   32.6049   43.3404 H   0  0  0  0  0  0  0  0  0  0  0  0
   39.6126   30.5111   43.9599 H   0  0  0  0  0  0  0  0  0  0  0  0
   41.2101   30.9478   43.3783 H   0  0  0  0  0  0  0  0  0  0  0  0
   40.7736   30.4387   46.0480 H   0  0  0  0  0  0  0  0  0  0  0  0
   41.9253   31.6673   45.6306 H   0  0  0  0  0  0  0  0  0  0  0  0
   37.5553   29.8278   52.9106 H   0  0  0  0  0  0  0  0  0  0  0  0
   38.6466   29.9994   51.5097 H   0  0  0  0  0  0  0  0  0  0  0  0
  1 12  1  0
  1  2  2  0
  3  2  1  0
  4  3  2  0
  5  6  2  0
  5  4  1  0
  6  1  1  0
  7  5  1  0
  8  7  1  0
  9 10  1  0
  9  8  1  0
 10 11  1  0
 11  7  1  0
 12 14  1  0
 13 12  2  0
 14 15  1  0
 15 17  2  0
 15 16  1  0
  2 18  1  0
  3 19  1  0
  8 20  1  0
  8 21  1  0
  9 22  1  0
  9 23  1  0
 10 24  1  0
 10 25  1  0
 11 26  1  0
 11 27  1  0
 16 28  1  0
 16 29  1  0
M  ISO  8  18  14  19  14  20  13  21  13  22  13  23  13  24  13  25  13
M  ISO  2  26  13  27  13
M  END
>  <minimizedAffinity>  (1) 
-5.96756649

>  <minimizedRMSD>  (1) 
1.72486889

$$$$
