
     RDKit          3D

 30 31  0  0  0  0  0  0  0  0999 V2000
   37.3270   31.4400   48.5080 C   0  0  0  0  0  0  0  0  0  0  0  0
   37.7610   32.3900   49.4330 C   0  0  0  0  0  0  0  0  0  0  0  0
   38.7380   33.2900   49.0250 C   0  0  0  0  0  0  0  0  0  0  0  0
   39.2130   33.1910   47.7490 N   0  0  0  0  0  0  0  0  0  0  0  0
   38.7730   32.2620   46.8790 C   0  0  0  0  0  0  0  0  0  0  0  0
   37.8260   31.3950   47.2820 N   0  0  0  0  0  0  0  0  0  0  0  0
   39.3020   32.2030   45.5600 N   0  0  0  0  0  0  0  0  0  0  0  0
   38.5030   32.6890   44.4580 C   0  0  0  0  0  0  0  0  0  0  0  0
   39.1660   32.6880   43.1520 C   0  0  0  0  0  0  0  0  0  0  0  0
   40.2200   31.8530   42.9560 O   0  0  0  0  0  0  0  0  0  0  0  0
   40.6090   31.0350   43.9730 C   0  0  0  0  0  0  0  0  0  0  0  0
   40.6280   31.6600   45.3460 C   0  0  0  0  0  0  0  0  0  0  0  0
   36.2980   30.4950   48.9400 C   0  0  0  0  0  0  0  0  0  0  0  0
   35.1010   30.6340   48.5700 O   0  0  0  0  0  0  0  0  0  0  0  0
   36.6440   29.4370   49.7630 O   0  0  0  0  0  0  0  0  0  0  0  0
   36.5780   29.4770   51.1490 C   0  0  0  0  0  0  0  0  0  0  0  0
   37.6970   29.7810   51.9700 N   0  0  0  0  0  0  0  0  0  0  0  0
   35.4360   29.2170   51.5810 O   0  0  0  0  0  0  0  0  0  0  0  0
   37.3441   32.4254   50.4503 H   0  0  0  0  0  0  0  0  0  0  0  0
   39.1182   34.0610   49.7113 H   0  0  0  0  0  0  0  0  0  0  0  0
   37.6065   32.0559   44.3838 H   0  0  0  0  0  0  0  0  0  0  0  0
   38.2830   33.7426   44.6851 H   0  0  0  0  0  0  0  0  0  0  0  0
   38.4039   32.4290   42.4022 H   0  0  0  0  0  0  0  0  0  0  0  0
   39.6041   33.6940   43.0740 H   0  0  0  0  0  0  0  0  0  0  0  0
   39.9185   30.1792   44.0010 H   0  0  0  0  0  0  0  0  0  0  0  0
   41.6516   30.7608   43.7545 H   0  0  0  0  0  0  0  0  0  0  0  0
   40.8567   30.9003   46.1079 H   0  0  0  0  0  0  0  0  0  0  0  0
   41.3986   32.4415   45.4206 H   0  0  0  0  0  0  0  0  0  0  0  0
   37.5945   29.7976   52.9948 H   0  0  0  0  0  0  0  0  0  0  0  0
   38.6107   29.9848   51.5404 H   0  0  0  0  0  0  0  0  0  0  0  0
  1 13  1  0
  1  2  2  0
  3  2  1  0
  4  3  2  0
  5  6  2  0
  5  4  1  0
  6  1  1  0
  7  5  1  0
  8  7  1  0
  9  8  1  0
 10  9  1  0
 10 11  1  0
 11 12  1  0
 12  7  1  0
 13 15  1  0
 14 13  2  0
 15 16  1  0
 16 18  2  0
 16 17  1  0
  2 19  1  0
  3 20  1  0
  8 21  1  0
  8 22  1  0
  9 23  1  0
  9 24  1  0
 11 25  1  0
 11 26  1  0
 12 27  1  0
 12 28  1  0
 17 29  1  0
 17 30  1  0
M  ISO  8  19  14  20  14  21  13  22  13  23  13  24  13  25  13  26  13
M  ISO  2  27  13  28  13
M  END
>  <minimizedAffinity>  (1) 
-5.90807295

>  <minimizedRMSD>  (1) 
1.29937482

$$$$
