
     RDKit          3D

 30 31  0  0  0  0  0  0  0  0999 V2000
   37.4720   31.5590   48.5390 C   0  0  0  0  0  0  0  0  0  0  0  0
   37.6290   32.5480   49.5120 C   0  0  0  0  0  0  0  0  0  0  0  0
   38.5880   33.5430   49.2890 C   0  0  0  0  0  0  0  0  0  0  0  0
   39.3200   33.4850   48.1200 N   0  0  0  0  0  0  0  0  0  0  0  0
   39.1230   32.5160   47.2310 C   0  0  0  0  0  0  0  0  0  0  0  0
   38.2040   31.5370   47.4140 N   0  0  0  0  0  0  0  0  0  0  0  0
   39.9070   32.4470   45.9690 C   0  0  0  0  0  0  0  0  0  0  0  0
   40.2980   31.0330   45.5950 C   0  0  0  0  0  0  0  0  0  0  0  0
   40.6230   31.1080   44.1280 C   0  0  0  0  0  0  0  0  0  0  0  0
   39.9560   32.3550   43.6030 C   0  0  0  0  0  0  0  0  0  0  0  0
   39.1410   32.9080   44.7600 C   0  0  0  0  0  0  0  0  0  0  0  0
   36.4720   30.5320   48.7840 C   0  0  0  0  0  0  0  0  0  0  0  0
   35.3310   30.5940   48.2590 O   0  0  0  0  0  0  0  0  0  0  0  0
   36.7700   29.4710   49.6020 O   0  0  0  0  0  0  0  0  0  0  0  0
   36.6530   29.4880   50.9910 C   0  0  0  0  0  0  0  0  0  0  0  0
   37.7230   29.7770   51.8670 N   0  0  0  0  0  0  0  0  0  0  0  0
   35.4950   29.2200   51.3710 O   0  0  0  0  0  0  0  0  0  0  0  0
   37.0175   32.5453   50.4263 H   0  0  0  0  0  0  0  0  0  0  0  0
   38.7532   34.3461   50.0224 H   0  0  0  0  0  0  0  0  0  0  0  0
   40.7699   33.0911   46.1936 H   0  0  0  0  0  0  0  0  0  0  0  0
   41.1761   30.7069   46.1717 H   0  0  0  0  0  0  0  0  0  0  0  0
   39.4998   30.3073   45.8102 H   0  0  0  0  0  0  0  0  0  0  0  0
   41.7116   31.1699   43.9829 H   0  0  0  0  0  0  0  0  0  0  0  0
   40.2670   30.2133   43.5962 H   0  0  0  0  0  0  0  0  0  0  0  0
   40.7116   33.0873   43.2824 H   0  0  0  0  0  0  0  0  0  0  0  0
   39.3233   32.1382   42.7297 H   0  0  0  0  0  0  0  0  0  0  0  0
   39.0919   34.0061   44.7189 H   0  0  0  0  0  0  0  0  0  0  0  0
   38.0956   32.5658   44.7545 H   0  0  0  0  0  0  0  0  0  0  0  0
   37.5701   29.7731   52.8856 H   0  0  0  0  0  0  0  0  0  0  0  0
   38.6560   29.9916   51.4871 H   0  0  0  0  0  0  0  0  0  0  0  0
  1 12  1  0
  1  2  2  0
  3  2  1  0
  4  3  2  0
  5  6  2  0
  5  4  1  0
  6  1  1  0
  7  5  1  0
  8  7  1  0
  9  8  1  0
 10  9  1  0
 10 11  1  0
 11  7  1  0
 12 14  1  0
 13 12  2  0
 14 15  1  0
 15 17  2  0
 15 16  1  0
  2 18  1  0
  3 19  1  0
  7 20  1  0
  8 21  1  0
  8 22  1  0
  9 23  1  0
  9 24  1  0
 10 25  1  0
 10 26  1  0
 11 27  1  0
 11 28  1  0
 16 29  1  0
 16 30  1  0
M  ISO  8  18  14  19  14  20  13  21  13  22  13  23  13  24  13  25  13
M  ISO  3  26  13  27  13  28  13
M  END
>  <minimizedAffinity>  (1) 
-5.79483604

>  <minimizedRMSD>  (1) 
1.69111693

$$$$
