
     RDKit          3D

 24 25  0  0  0  0  0  0  0  0999 V2000
   37.2030   31.4560   48.6350 C   0  0  0  0  0  0  0  0  0  0  0  0
   37.5290   32.4390   49.5700 C   0  0  0  0  0  0  0  0  0  0  0  0
   38.5100   33.3670   49.2400 C   0  0  0  0  0  0  0  0  0  0  0  0
   39.1030   33.2540   48.0010 N   0  0  0  0  0  0  0  0  0  0  0  0
   38.7520   32.2880   47.1370 C   0  0  0  0  0  0  0  0  0  0  0  0
   37.8020   31.3900   47.4550 N   0  0  0  0  0  0  0  0  0  0  0  0
   39.3730   32.1890   45.8640 N   0  0  0  0  0  0  0  0  0  0  0  0
   39.3200   32.9790   44.8110 N   0  0  0  0  0  0  0  0  0  0  0  0
   40.0600   32.5250   43.7960 C   0  0  0  0  0  0  0  0  0  0  0  0
   40.6540   31.3450   44.1950 C   0  0  0  0  0  0  0  0  0  0  0  0
   40.1980   31.1760   45.4890 C   0  0  0  0  0  0  0  0  0  0  0  0
   36.1690   30.4930   49.0040 C   0  0  0  0  0  0  0  0  0  0  0  0
   34.9830   30.6490   48.6160 O   0  0  0  0  0  0  0  0  0  0  0  0
   36.4880   29.4010   49.7840 O   0  0  0  0  0  0  0  0  0  0  0  0
   36.5210   29.4410   51.1850 C   0  0  0  0  0  0  0  0  0  0  0  0
   37.6770   29.7050   51.9470 N   0  0  0  0  0  0  0  0  0  0  0  0
   35.4100   29.2150   51.7010 O   0  0  0  0  0  0  0  0  0  0  0  0
   37.0217   32.4787   50.5452 H   0  0  0  0  0  0  0  0  0  0  0  0
   38.8022   34.1621   49.9418 H   0  0  0  0  0  0  0  0  0  0  0  0
   40.1757   33.0072   42.8141 H   0  0  0  0  0  0  0  0  0  0  0  0
   41.3293   30.6941   43.6203 H   0  0  0  0  0  0  0  0  0  0  0  0
   40.4690   30.3276   46.1346 H   0  0  0  0  0  0  0  0  0  0  0  0
   37.6240   29.7179   52.9756 H   0  0  0  0  0  0  0  0  0  0  0  0
   38.5748   29.8850   51.4753 H   0  0  0  0  0  0  0  0  0  0  0  0
  1 12  1  0
  1  2  2  0
  3  2  1  0
  4  3  2  0
  5  6  2  0
  5  4  1  0
  6  1  1  0
  7  5  1  0
  8  7  1  0
  9 10  1  0
  9  8  2  0
 10 11  2  0
 11  7  1  0
 12 14  1  0
 13 12  2  0
 14 15  1  0
 15 17  2  0
 15 16  1  0
  2 18  1  0
  3 19  1  0
  9 20  1  0
 10 21  1  0
 11 22  1  0
 16 23  1  0
 16 24  1  0
M  ISO  5  18  14  19  14  20  14  21  14  22  14
M  END
>  <minimizedAffinity>  (1) 
-5.63386583

>  <minimizedRMSD>  (1) 
1.45587564

$$$$
