
     RDKit          3D

 25 26  0  0  0  0  0  0  0  0999 V2000
   37.3040   31.4350   48.5670 C   0  0  0  0  0  0  0  0  0  0  0  0
   37.7350   32.4000   49.4860 C   0  0  0  0  0  0  0  0  0  0  0  0
   38.7080   33.3090   49.0880 C   0  0  0  0  0  0  0  0  0  0  0  0
   39.1980   33.2170   47.8170 N   0  0  0  0  0  0  0  0  0  0  0  0
   38.7560   32.2730   46.9620 C   0  0  0  0  0  0  0  0  0  0  0  0
   37.8130   31.3880   47.3430 N   0  0  0  0  0  0  0  0  0  0  0  0
   39.2540   32.1420   45.5950 C   0  0  0  0  0  0  0  0  0  0  0  0
   40.1330   31.1220   45.2930 C   0  0  0  0  0  0  0  0  0  0  0  0
   40.6100   30.9890   44.0070 C   0  0  0  0  0  0  0  0  0  0  0  0
   40.2360   31.8440   43.0150 N   0  0  0  0  0  0  0  0  0  0  0  0
   39.3800   32.8210   43.3520 C   0  0  0  0  0  0  0  0  0  0  0  0
   38.9030   32.9700   44.5950 N   0  0  0  0  0  0  0  0  0  0  0  0
   36.2850   30.4940   49.0050 C   0  0  0  0  0  0  0  0  0  0  0  0
   35.0750   30.6870   48.6440 O   0  0  0  0  0  0  0  0  0  0  0  0
   36.6150   29.4200   49.7880 O   0  0  0  0  0  0  0  0  0  0  0  0
   36.5770   29.4670   51.1910 C   0  0  0  0  0  0  0  0  0  0  0  0
   37.7040   29.7650   52.0020 N   0  0  0  0  0  0  0  0  0  0  0  0
   35.4410   29.2170   51.6380 O   0  0  0  0  0  0  0  0  0  0  0  0
   37.3125   32.4376   50.5009 H   0  0  0  0  0  0  0  0  0  0  0  0
   39.0739   34.0826   49.7791 H   0  0  0  0  0  0  0  0  0  0  0  0
   40.4517   30.4179   46.0757 H   0  0  0  0  0  0  0  0  0  0  0  0
   41.3099   30.1724   43.7760 H   0  0  0  0  0  0  0  0  0  0  0  0
   39.0564   33.5292   42.5750 H   0  0  0  0  0  0  0  0  0  0  0  0
   37.6100   29.7837   53.0275 H   0  0  0  0  0  0  0  0  0  0  0  0
   38.6154   29.9624   51.5647 H   0  0  0  0  0  0  0  0  0  0  0  0
  1 13  1  0
  1  2  2  0
  3  2  1  0
  4  3  2  0
  5  6  2  0
  5  4  1  0
  6  1  1  0
  7  5  1  0
  8  7  2  0
  9  8  1  0
 10 11  1  0
 10  9  2  0
 11 12  2  0
 12  7  1  0
 13 15  1  0
 14 13  2  0
 15 16  1  0
 16 18  2  0
 16 17  1  0
  2 19  1  0
  3 20  1  0
  8 21  1  0
  9 22  1  0
 11 23  1  0
 17 24  1  0
 17 25  1  0
M  ISO  5  19  14  20  14  21  14  22  14  23  14
M  END
>  <minimizedAffinity>  (1) 
-5.62560987

>  <minimizedRMSD>  (1) 
1.46803153

$$$$
