
     RDKit          3D

 43 46  0  0  0  0  0  0  0  0999 V2000
   29.9020   27.8130   47.1560 C   0  0  0  0  0  0  0  0  0  0  0  0
   30.7590   28.4700   46.3140 C   0  0  0  0  0  0  0  0  0  0  0  0
   32.0510   28.7840   46.6830 C   0  0  0  0  0  0  0  0  0  0  0  0
   32.5020   28.4320   47.9270 C   0  0  0  0  0  0  0  0  0  0  0  0
   31.6180   27.7710   48.7550 C   0  0  0  0  0  0  0  0  0  0  0  0
   30.3250   27.4450   48.4150 C   0  0  0  0  0  0  0  0  0  0  0  0
   35.5740   29.9430   48.6410 C   0  0  0  0  0  0  0  0  0  0  0  0
   35.7180   28.8170   49.4430 C   0  0  0  0  0  0  0  0  0  0  0  0
   34.5900   28.0390   49.3240 C   0  0  0  0  0  0  0  0  0  0  0  0
   33.7880   28.6750   48.4750 N   0  0  0  0  0  0  0  0  0  0  0  0
   34.3630   29.7880   48.0750 N   0  0  0  0  0  0  0  0  0  0  0  0
   37.9250   32.6960   49.3970 C   0  0  0  0  0  0  0  0  0  0  0  0
   38.6330   32.7600   48.1880 C   0  0  0  0  0  0  0  0  0  0  0  0
   38.2940   31.8790   47.1700 C   0  0  0  0  0  0  0  0  0  0  0  0
   37.2860   30.9980   47.4070 N   0  0  0  0  0  0  0  0  0  0  0  0
   36.6230   30.9530   48.5690 C   0  0  0  0  0  0  0  0  0  0  0  0
   36.9210   31.7950   49.5870 N   0  0  0  0  0  0  0  0  0  0  0  0
   28.2560   27.4310   46.7030 S   0  0  0  0  0  0  0  0  0  0  0  0
   28.2640   26.1850   45.8670 O   0  0  0  0  0  0  0  0  0  0  0  0
   27.4650   27.2360   47.9490 O   0  0  0  0  0  0  0  0  0  0  0  0
   26.5560   31.1030   44.5780 C   0  0  0  0  0  0  0  0  0  0  0  0
   26.7380   29.9010   43.8920 C   0  0  0  0  0  0  0  0  0  0  0  0
   27.2490   28.7730   44.5010 C   0  0  0  0  0  0  0  0  0  0  0  0
   27.6040   28.7890   45.8320 C   0  0  0  0  0  0  0  0  0  0  0  0
   27.4240   29.9880   46.5240 C   0  0  0  0  0  0  0  0  0  0  0  0
   26.9160   31.0980   45.9080 C   0  0  0  0  0  0  0  0  0  0  0  0
   25.9140   32.5140   43.8040 S   0  0  0  0  0  0  0  0  0  0  0  0
   25.4290   33.4540   44.8950 O   0  0  0  0  0  0  0  0  0  0  0  0
   27.0000   33.2750   43.0810 O   0  0  0  0  0  0  0  0  0  0  0  0
   30.4065   28.7564   45.3122 H   0  0  0  0  0  0  0  0  0  0  0  0
   32.7139   29.3133   45.9828 H   0  0  0  0  0  0  0  0  0  0  0  0
   31.9714   27.4847   49.7566 H   0  0  0  0  0  0  0  0  0  0  0  0
   29.6609   26.9161   49.1145 H   0  0  0  0  0  0  0  0  0  0  0  0
   36.5914   28.5858   50.0704 H   0  0  0  0  0  0  0  0  0  0  0  0
   34.3912   27.0826   49.8297 H   0  0  0  0  0  0  0  0  0  0  0  0
   38.1863   33.3890   50.2103 H   0  0  0  0  0  0  0  0  0  0  0  0
   39.4408   33.4936   48.0491 H   0  0  0  0  0  0  0  0  0  0  0  0
   38.8225   31.8933   46.2054 H   0  0  0  0  0  0  0  0  0  0  0  0
   26.4643   29.8511   42.8278 H   0  0  0  0  0  0  0  0  0  0  0  0
   27.3744   27.8497   43.9164 H   0  0  0  0  0  0  0  0  0  0  0  0
   27.6969   30.0410   47.5883 H   0  0  0  0  0  0  0  0  0  0  0  0
   26.7903   32.0197   46.4951 H   0  0  0  0  0  0  0  0  0  0  0  0
   24.9336   32.1219   42.9310 H   0  0  0  0  0  0  0  0  0  0  0  0
  1  6  2  0
  2  3  2  0
  2  1  1  0
  3  4  1  0
  4 10  1  0
  4  5  2  0
  6  5  1  0
  7  8  1  0
  9  8  2  0
 10  9  1  0
 11 10  1  0
 11  7  2  0
 12 17  2  0
 13 12  1  0
 14 15  1  0
 14 13  2  0
 15 16  2  0
 16  7  1  0
 16 17  1  0
 18  1  1  0
 18 20  2  0
 19 18  2  0
 21 26  2  0
 22 23  2  0
 22 21  1  0
 23 24  1  0
 24 25  2  0
 24 18  1  0
 26 25  1  0
 27 21  1  0
 27 28  2  0
 29 27  2  0
  2 30  1  0
  3 31  1  0
  5 32  1  0
  6 33  1  0
  8 34  1  0
  9 35  1  0
 12 36  1  0
 13 37  1  0
 14 38  1  0
 22 39  1  0
 23 40  1  0
 25 41  1  0
 26 42  1  0
 27 43  1  0
M  ISO  8  30  14  31  14  32  14  33  14  34  14  35  14  36  14  37  14
M  ISO  6  38  14  39  14  40  14  41  14  42  14  43  11
M  END
>  <minimizedAffinity>  (1) 
-6.3122797

>  <minimizedRMSD>  (1) 
2.24384379

$$$$
