
     RDKit          3D

 27 28  0  0  0  0  0  0  0  0999 V2000
   37.2970   31.3840   48.4850 C   0  0  0  0  0  0  0  0  0  0  0  0
   37.7740   32.3710   49.3550 C   0  0  0  0  0  0  0  0  0  0  0  0
   38.7570   33.2440   48.8920 C   0  0  0  0  0  0  0  0  0  0  0  0
   39.2040   33.0780   47.5940 N   0  0  0  0  0  0  0  0  0  0  0  0
   38.7120   32.1220   46.8150 C   0  0  0  0  0  0  0  0  0  0  0  0
   37.7610   31.2680   47.2410 N   0  0  0  0  0  0  0  0  0  0  0  0
   39.2050   31.9740   45.4500 C   0  0  0  0  0  0  0  0  0  0  0  0
   40.1370   31.0250   45.1000 C   0  0  0  0  0  0  0  0  0  0  0  0
   40.5970   30.8960   43.7990 C   0  0  0  0  0  0  0  0  0  0  0  0
   40.0930   31.7510   42.8400 C   0  0  0  0  0  0  0  0  0  0  0  0
   39.1550   32.7220   43.1360 C   0  0  0  0  0  0  0  0  0  0  0  0
   38.7320   32.8080   44.4410 C   0  0  0  0  0  0  0  0  0  0  0  0
   36.2660   30.4770   48.9850 C   0  0  0  0  0  0  0  0  0  0  0  0
   35.0460   30.6730   48.6790 O   0  0  0  0  0  0  0  0  0  0  0  0
   36.6370   29.4090   49.7910 O   0  0  0  0  0  0  0  0  0  0  0  0
   36.5740   29.4720   51.1870 C   0  0  0  0  0  0  0  0  0  0  0  0
   37.6960   29.7960   51.9810 N   0  0  0  0  0  0  0  0  0  0  0  0
   35.4340   29.2160   51.6590 O   0  0  0  0  0  0  0  0  0  0  0  0
   37.3826   32.4558   50.3795 H   0  0  0  0  0  0  0  0  0  0  0  0
   39.1631   34.0374   49.5367 H   0  0  0  0  0  0  0  0  0  0  0  0
   40.5284   30.3492   45.8747 H   0  0  0  0  0  0  0  0  0  0  0  0
   41.3442   30.1322   43.5376 H   0  0  0  0  0  0  0  0  0  0  0  0
   40.4503   31.6564   41.8039 H   0  0  0  0  0  0  0  0  0  0  0  0
   38.7638   33.3970   42.3605 H   0  0  0  0  0  0  0  0  0  0  0  0
   37.9843   33.5721   44.7002 H   0  0  0  0  0  0  0  0  0  0  0  0
   37.6080   29.8319   53.0066 H   0  0  0  0  0  0  0  0  0  0  0  0
   38.6023   29.9964   51.5345 H   0  0  0  0  0  0  0  0  0  0  0  0
  1 13  1  0
  1  2  2  0
  3  2  1  0
  4  3  2  0
  5  6  2  0
  5  4  1  0
  6  1  1  0
  7  5  1  0
  8  7  2  0
  9  8  1  0
 10 11  1  0
 10  9  2  0
 11 12  2  0
 12  7  1  0
 13 15  1  0
 14 13  2  0
 15 16  1  0
 16 18  2  0
 16 17  1  0
  2 19  1  0
  3 20  1  0
  8 21  1  0
  9 22  1  0
 10 23  1  0
 11 24  1  0
 12 25  1  0
 17 26  1  0
 17 27  1  0
M  ISO  7  19  14  20  14  21  14  22  14  23  14  24  14  25  14
M  END
>  <minimizedAffinity>  (1) 
-5.58974648

>  <minimizedRMSD>  (1) 
1.15505648

$$$$
