
     RDKit          3D

 22 23  0  0  0  0  0  0  0  0999 V2000
   37.2290   31.4470   48.6330 C   0  0  0  0  0  0  0  0  0  0  0  0
   37.5360   32.4390   49.5700 C   0  0  0  0  0  0  0  0  0  0  0  0
   38.5140   33.3690   49.2250 C   0  0  0  0  0  0  0  0  0  0  0  0
   39.1150   33.2630   47.9990 N   0  0  0  0  0  0  0  0  0  0  0  0
   38.7870   32.2950   47.1370 C   0  0  0  0  0  0  0  0  0  0  0  0
   37.8430   31.3890   47.4580 N   0  0  0  0  0  0  0  0  0  0  0  0
   39.4540   32.2240   45.8490 C   0  0  0  0  0  0  0  0  0  0  0  0
   40.4690   31.3970   45.5190 N   0  0  0  0  0  0  0  0  0  0  0  0
   40.8010   31.6280   44.2720 O   0  0  0  0  0  0  0  0  0  0  0  0
   40.0460   32.5720   43.7670 C   0  0  0  0  0  0  0  0  0  0  0  0
   39.1940   32.9570   44.7460 N   0  0  0  0  0  0  0  0  0  0  0  0
   36.2000   30.4630   48.9880 C   0  0  0  0  0  0  0  0  0  0  0  0
   35.0090   30.6140   48.5640 O   0  0  0  0  0  0  0  0  0  0  0  0
   36.5290   29.3900   49.7740 O   0  0  0  0  0  0  0  0  0  0  0  0
   36.5380   29.4410   51.1760 C   0  0  0  0  0  0  0  0  0  0  0  0
   37.6880   29.7110   51.9450 N   0  0  0  0  0  0  0  0  0  0  0  0
   35.4080   29.2180   51.6630 O   0  0  0  0  0  0  0  0  0  0  0  0
   37.0244   32.4831   50.5428 H   0  0  0  0  0  0  0  0  0  0  0  0
   38.7974   34.1712   49.9222 H   0  0  0  0  0  0  0  0  0  0  0  0
   40.0949   32.9743   42.7444 H   0  0  0  0  0  0  0  0  0  0  0  0
   37.6265   29.7340   52.9729 H   0  0  0  0  0  0  0  0  0  0  0  0
   38.5899   29.8853   51.4790 H   0  0  0  0  0  0  0  0  0  0  0  0
  1 12  1  0
  1  2  2  0
  3  2  1  0
  4  3  2  0
  5  6  2  0
  5  4  1  0
  6  1  1  0
  7  5  1  0
  8  7  2  0
  9  8  1  0
 10  9  1  0
 10 11  2  0
 11  7  1  0
 12 14  1  0
 13 12  2  0
 14 15  1  0
 15 17  2  0
 15 16  1  0
  2 18  1  0
  3 19  1  0
 10 20  1  0
 16 21  1  0
 16 22  1  0
M  ISO  3  18  14  19  14  20  14
M  END
>  <minimizedAffinity>  (1) 
-5.36815119

>  <minimizedRMSD>  (1) 
1.52021909

$$$$
