
     RDKit          3D

 24 25  0  0  0  0  0  0  0  0999 V2000
   37.3720   31.4060   48.4400 C   0  0  0  0  0  0  0  0  0  0  0  0
   37.7660   32.3730   49.3890 C   0  0  0  0  0  0  0  0  0  0  0  0
   38.7320   33.3070   48.9980 C   0  0  0  0  0  0  0  0  0  0  0  0
   39.2330   33.2180   47.7160 N   0  0  0  0  0  0  0  0  0  0  0  0
   38.8220   32.2820   46.8670 C   0  0  0  0  0  0  0  0  0  0  0  0
   37.8810   31.3470   47.1990 N   0  0  0  0  0  0  0  0  0  0  0  0
   39.3670   32.1960   45.4910 C   0  0  0  0  0  0  0  0  0  0  0  0
   40.3810   33.2180   45.1260 C   0  0  0  0  0  0  0  0  0  0  0  0
   40.8250   31.8260   45.3240 C   0  0  0  0  0  0  0  0  0  0  0  0
   36.3620   30.4370   48.8620 C   0  0  0  0  0  0  0  0  0  0  0  0
   35.1740   30.5490   48.4720 O   0  0  0  0  0  0  0  0  0  0  0  0
   36.7410   29.3940   49.6990 O   0  0  0  0  0  0  0  0  0  0  0  0
   36.6170   29.4680   51.0930 C   0  0  0  0  0  0  0  0  0  0  0  0
   37.7060   29.7900   51.9410 N   0  0  0  0  0  0  0  0  0  0  0  0
   35.4730   29.2260   51.5190 O   0  0  0  0  0  0  0  0  0  0  0  0
   37.3300   32.3920   50.3987 H   0  0  0  0  0  0  0  0  0  0  0  0
   39.0806   34.0871   49.6908 H   0  0  0  0  0  0  0  0  0  0  0  0
   38.4217   31.8251   45.0680 H   0  0  0  0  0  0  0  0  0  0  0  0
   40.6647   33.9904   45.8560 H   0  0  0  0  0  0  0  0  0  0  0  0
   40.4780   33.9470   44.3079 H   0  0  0  0  0  0  0  0  0  0  0  0
   41.1450   31.2218   44.4623 H   0  0  0  0  0  0  0  0  0  0  0  0
   41.5807   31.3298   45.9506 H   0  0  0  0  0  0  0  0  0  0  0  0
   37.5692   29.8332   52.9610 H   0  0  0  0  0  0  0  0  0  0  0  0
   38.6342   29.9808   51.5373 H   0  0  0  0  0  0  0  0  0  0  0  0
  1 10  1  0
  1  2  2  0
  3  2  1  0
  4  3  2  0
  5  6  2  0
  5  4  1  0
  6  1  1  0
  7  5  1  0
  8  9  1  0
  8  7  1  0
  9  7  1  0
 10 12  1  0
 11 10  2  0
 12 13  1  0
 13 15  2  0
 13 14  1  0
  2 16  1  0
  3 17  1  0
  7 18  1  0
  8 19  1  0
  8 20  1  0
  9 21  1  0
  9 22  1  0
 14 23  1  0
 14 24  1  0
M  ISO  7  16  14  17  14  18  13  19  13  20  13  21  13  22  13
M  END
>  <minimizedAffinity>  (1) 
-5.18439817

>  <minimizedRMSD>  (1) 
1.06791222

$$$$
