
     RDKit          3D

 23 24  0  0  0  0  0  0  0  0999 V2000
   37.2280   31.3520   48.4550 C   0  0  0  0  0  0  0  0  0  0  0  0
   37.7750   32.3180   49.3200 C   0  0  0  0  0  0  0  0  0  0  0  0
   38.7680   33.1540   48.8110 C   0  0  0  0  0  0  0  0  0  0  0  0
   39.1490   32.9830   47.5020 N   0  0  0  0  0  0  0  0  0  0  0  0
   38.5950   32.0520   46.7310 C   0  0  0  0  0  0  0  0  0  0  0  0
   37.6180   31.2050   47.1760 N   0  0  0  0  0  0  0  0  0  0  0  0
   39.1030   31.9860   45.3530 C   0  0  0  0  0  0  0  0  0  0  0  0
   38.5420   32.7370   44.1270 C   0  0  0  0  0  0  0  0  0  0  0  0
   39.6660   32.1480   42.8720 S   0  0  0  0  0  0  0  0  0  0  0  0
   40.6570   31.0670   44.0430 C   0  0  0  0  0  0  0  0  0  0  0  0
   40.1460   31.2070   45.1270 N   0  0  0  0  0  0  0  0  0  0  0  0
   36.1950   30.4830   48.9930 C   0  0  0  0  0  0  0  0  0  0  0  0
   34.9800   30.6650   48.7340 O   0  0  0  0  0  0  0  0  0  0  0  0
   36.5680   29.4260   49.8140 O   0  0  0  0  0  0  0  0  0  0  0  0
   36.5490   29.4720   51.1990 C   0  0  0  0  0  0  0  0  0  0  0  0
   37.6910   29.7880   51.9660 N   0  0  0  0  0  0  0  0  0  0  0  0
   35.4260   29.2080   51.6880 O   0  0  0  0  0  0  0  0  0  0  0  0
   37.4313   32.4102   50.3608 H   0  0  0  0  0  0  0  0  0  0  0  0
   39.2329   33.9281   49.4392 H   0  0  0  0  0  0  0  0  0  0  0  0
   37.6944   33.4338   44.0492 H   0  0  0  0  0  0  0  0  0  0  0  0
   41.5234   30.4369   43.7931 H   0  0  0  0  0  0  0  0  0  0  0  0
   37.6309   29.8105   52.9940 H   0  0  0  0  0  0  0  0  0  0  0  0
   38.5845   29.9961   51.4977 H   0  0  0  0  0  0  0  0  0  0  0  0
  1 12  1  0
  1  2  2  0
  3  2  1  0
  4  3  2  0
  5  6  2  0
  5  4  1  0
  6  1  1  0
  7  5  1  0
  8  7  2  0
  9 10  1  0
  9  8  1  0
 10 11  2  0
 11  7  1  0
 12 14  1  0
 13 12  2  0
 14 15  1  0
 15 17  2  0
 15 16  1  0
  2 18  1  0
  3 19  1  0
  8 20  1  0
 10 21  1  0
 16 22  1  0
 16 23  1  0
M  ISO  4  18  14  19  14  20  14  21  14
M  END
>  <minimizedAffinity>  (1) 
-5.16192913

>  <minimizedRMSD>  (1) 
0.966689289

$$$$
