
     RDKit          3D

 19 19  0  0  0  0  0  0  0  0999 V2000
   37.5020   31.5380   48.5040 C   0  0  0  0  0  0  0  0  0  0  0  0
   37.7130   32.5310   49.4600 C   0  0  0  0  0  0  0  0  0  0  0  0
   38.6750   33.5150   49.2180 C   0  0  0  0  0  0  0  0  0  0  0  0
   39.3700   33.4430   48.0260 N   0  0  0  0  0  0  0  0  0  0  0  0
   39.1310   32.4760   47.1490 C   0  0  0  0  0  0  0  0  0  0  0  0
   38.2090   31.5190   47.3640 N   0  0  0  0  0  0  0  0  0  0  0  0
   39.9160   32.4830   45.9180 C   0  0  0  0  0  0  0  0  0  0  0  0
   40.0260   33.5370   45.2520 O   0  0  0  0  0  0  0  0  0  0  0  0
   36.4980   30.5260   48.7760 C   0  0  0  0  0  0  0  0  0  0  0  0
   35.3470   30.6090   48.2640 O   0  0  0  0  0  0  0  0  0  0  0  0
   36.8050   29.4640   49.5980 O   0  0  0  0  0  0  0  0  0  0  0  0
   36.6630   29.4970   50.9860 C   0  0  0  0  0  0  0  0  0  0  0  0
   37.7220   29.8060   51.8730 N   0  0  0  0  0  0  0  0  0  0  0  0
   35.5070   29.2260   51.3640 O   0  0  0  0  0  0  0  0  0  0  0  0
   37.1297   32.5395   50.3925 H   0  0  0  0  0  0  0  0  0  0  0  0
   38.8712   34.3149   49.9472 H   0  0  0  0  0  0  0  0  0  0  0  0
   40.4107   31.5620   45.5759 H   0  0  0  0  0  0  0  0  0  0  0  0
   37.5564   29.8147   52.8896 H   0  0  0  0  0  0  0  0  0  0  0  0
   38.6582   30.0221   51.5019 H   0  0  0  0  0  0  0  0  0  0  0  0
  1  9  1  0
  1  2  2  0
  3  2  1  0
  4  3  2  0
  5  6  2  0
  5  4  1  0
  6  1  1  0
  7  5  1  0
  8  7  2  0
  9 11  1  0
 10  9  2  0
 11 12  1  0
 12 14  2  0
 12 13  1  0
  2 15  1  0
  3 16  1  0
  7 17  1  0
 13 18  1  0
 13 19  1  0
M  ISO  3  15  14  16  14  17   6
M  END
>  <minimizedAffinity>  (1) 
-4.71724415

>  <minimizedRMSD>  (1) 
1.45597005

$$$$
