
     RDKit          3D

 18 18  0  0  0  0  0  0  0  0999 V2000
   37.2090   31.1190   47.9200 C   0  0  0  0  0  0  0  0  0  0  0  0
   38.1030   31.8980   48.6550 C   0  0  0  0  0  0  0  0  0  0  0  0
   39.0310   32.6680   47.9490 C   0  0  0  0  0  0  0  0  0  0  0  0
   39.0080   32.6140   46.5880 N   0  0  0  0  0  0  0  0  0  0  0  0
   38.1280   31.8480   45.9120 C   0  0  0  0  0  0  0  0  0  0  0  0
   37.2310   31.1040   46.5870 N   0  0  0  0  0  0  0  0  0  0  0  0
   36.2360   30.3090   48.6530 C   0  0  0  0  0  0  0  0  0  0  0  0
   35.0060   30.4620   48.4680 O   0  0  0  0  0  0  0  0  0  0  0  0
   36.7030   29.3670   49.5600 O   0  0  0  0  0  0  0  0  0  0  0  0
   36.6450   29.5150   50.9330 C   0  0  0  0  0  0  0  0  0  0  0  0
   37.7610   29.9510   51.6970 N   0  0  0  0  0  0  0  0  0  0  0  0
   35.5230   29.2270   51.4160 O   0  0  0  0  0  0  0  0  0  0  0  0
   38.2130   31.8760   44.1190 S   0  0  0  0  0  0  0  0  0  0  0  0
   38.0782   31.9058   49.7547 H   0  0  0  0  0  0  0  0  0  0  0  0
   39.7598   33.3001   48.4775 H   0  0  0  0  0  0  0  0  0  0  0  0
   37.6788   30.0491   52.7190 H   0  0  0  0  0  0  0  0  0  0  0  0
   38.6522   30.1689   51.2288 H   0  0  0  0  0  0  0  0  0  0  0  0
   39.4599   32.2867   43.7273 H   0  0  0  0  0  0  0  0  0  0  0  0
  1  7  1  0
  1  2  2  0
  3  2  1  0
  4  3  2  0
  5  6  2  0
  5  4  1  0
  6  1  1  0
  7  9  1  0
  8  7  2  0
  9 10  1  0
 10 12  2  0
 10 11  1  0
 13  5  1  0
  2 14  1  0
  3 15  1  0
 11 16  1  0
 11 17  1  0
 13 18  1  0
M  ISO  3  14  14  15  14  18  11
M  END
>  <minimizedAffinity>  (1) 
-4.29476357

>  <minimizedRMSD>  (1) 
0.0926868916

$$$$
