
     RDKit          3D

 24 25  0  0  0  0  0  0  0  0999 V2000
   37.2050   31.4480   48.6350 C   0  0  0  0  0  0  0  0  0  0  0  0
   37.5510   32.4220   49.6010 C   0  0  0  0  0  0  0  0  0  0  0  0
   38.5290   33.3540   49.2500 C   0  0  0  0  0  0  0  0  0  0  0  0
   39.0870   33.2600   47.9890 N   0  0  0  0  0  0  0  0  0  0  0  0
   38.7200   32.3200   47.1230 C   0  0  0  0  0  0  0  0  0  0  0  0
   37.7670   31.3900   47.4290 N   0  0  0  0  0  0  0  0  0  0  0  0
   39.3350   32.2550   45.7990 C   0  0  0  0  0  0  0  0  0  0  0  0
   40.1980   31.2410   45.4140 C   0  0  0  0  0  0  0  0  0  0  0  0
   40.5890   31.4980   44.0950 C   0  0  0  0  0  0  0  0  0  0  0  0
   39.9240   32.6700   43.7650 C   0  0  0  0  0  0  0  0  0  0  0  0
   39.2040   33.0760   44.7870 O   0  0  0  0  0  0  0  0  0  0  0  0
   36.1800   30.4820   49.0220 C   0  0  0  0  0  0  0  0  0  0  0  0
   34.9780   30.6510   48.6400 O   0  0  0  0  0  0  0  0  0  0  0  0
   36.5320   29.3880   49.8020 O   0  0  0  0  0  0  0  0  0  0  0  0
   36.5260   29.4320   51.1960 C   0  0  0  0  0  0  0  0  0  0  0  0
   37.6880   29.6970   51.9580 N   0  0  0  0  0  0  0  0  0  0  0  0
   35.3950   29.2160   51.6980 O   0  0  0  0  0  0  0  0  0  0  0  0
   37.0685   32.4439   50.5893 H   0  0  0  0  0  0  0  0  0  0  0  0
   38.8453   34.1378   49.9540 H   0  0  0  0  0  0  0  0  0  0  0  0
   40.5174   30.3893   46.0326 H   0  0  0  0  0  0  0  0  0  0  0  0
   41.2684   30.9060   43.4641 H   0  0  0  0  0  0  0  0  0  0  0  0
   39.9894   33.1825   42.7939 H   0  0  0  0  0  0  0  0  0  0  0  0
   37.6354   29.7195   52.9864 H   0  0  0  0  0  0  0  0  0  0  0  0
   38.5866   29.8674   51.4844 H   0  0  0  0  0  0  0  0  0  0  0  0
  1 12  1  0
  1  2  2  0
  3  2  1  0
  4  3  2  0
  5  6  2  0
  5  4  1  0
  6  1  1  0
  7  5  1  0
  8  7  2  0
  9  8  1  0
 10  9  2  0
 10 11  1  0
 11  7  1  0
 12 14  1  0
 13 12  2  0
 14 15  1  0
 15 17  2  0
 15 16  1  0
  2 18  1  0
  3 19  1  0
  8 20  1  0
  9 21  1  0
 10 22  1  0
 16 23  1  0
 16 24  1  0
M  ISO  5  18  14  19  14  20  14  21  14  22  14
M  END
>  <minimizedAffinity>  (1) 
-5.43716812

>  <minimizedRMSD>  (1) 
1.44373262

$$$$
