
     RDKit          3D

 34 36  0  0  0  0  0  0  0  0999 V2000
   36.7950   31.2440   48.6940 C   0  0  0  0  0  0  0  0  0  0  0  0
   37.0000   32.2130   49.7110 C   0  0  0  0  0  0  0  0  0  0  0  0
   37.9810   33.1760   49.5080 C   0  0  0  0  0  0  0  0  0  0  0  0
   38.6940   33.1210   48.3210 N   0  0  0  0  0  0  0  0  0  0  0  0
   38.4670   32.1920   47.3960 C   0  0  0  0  0  0  0  0  0  0  0  0
   37.5040   31.2280   47.5670 N   0  0  0  0  0  0  0  0  0  0  0  0
   39.2430   32.1760   46.1640 C   0  0  0  0  0  0  0  0  0  0  0  0
   40.2930   33.0550   45.9240 C   0  0  0  0  0  0  0  0  0  0  0  0
   40.8100   32.7660   44.6600 C   0  0  0  0  0  0  0  0  0  0  0  0
   40.0190   31.7060   44.2120 C   0  0  0  0  0  0  0  0  0  0  0  0
   39.1160   31.3910   45.1190 O   0  0  0  0  0  0  0  0  0  0  0  0
   40.2740   31.1470   42.9280 N   0  0  0  0  0  0  0  0  0  0  0  0
   41.0090   30.0530   42.7000 C   0  0  0  0  0  0  0  0  0  0  0  0
   41.1980   29.5880   41.4000 C   0  0  0  0  0  0  0  0  0  0  0  0
   40.6360   30.2320   40.3150 C   0  0  0  0  0  0  0  0  0  0  0  0
   40.7570   29.8790   39.1210 O   0  0  0  0  0  0  0  0  0  0  0  0
   39.8960   31.3330   40.5620 N   0  0  0  0  0  0  0  0  0  0  0  0
   39.7400   31.7490   41.8310 C   0  0  0  0  0  0  0  0  0  0  0  0
   39.0340   32.7930   42.0160 O   0  0  0  0  0  0  0  0  0  0  0  0
   35.7640   30.2490   48.9290 C   0  0  0  0  0  0  0  0  0  0  0  0
   34.5840   30.4500   48.5140 O   0  0  0  0  0  0  0  0  0  0  0  0
   36.0760   29.0820   49.6050 O   0  0  0  0  0  0  0  0  0  0  0  0
   36.6130   29.0810   50.8990 C   0  0  0  0  0  0  0  0  0  0  0  0
   37.9730   28.8580   51.1730 N   0  0  0  0  0  0  0  0  0  0  0  0
   35.7710   29.2980   51.7940 O   0  0  0  0  0  0  0  0  0  0  0  0
   36.3998   32.2019   50.6328 H   0  0  0  0  0  0  0  0  0  0  0  0
   38.1838   33.9522   50.2606 H   0  0  0  0  0  0  0  0  0  0  0  0
   40.6522   33.8382   46.6079 H   0  0  0  0  0  0  0  0  0  0  0  0
   41.6447   33.2579   44.1391 H   0  0  0  0  0  0  0  0  0  0  0  0
   41.4672   29.5169   43.5441 H   0  0  0  0  0  0  0  0  0  0  0  0
   41.8084   28.6880   41.2342 H   0  0  0  0  0  0  0  0  0  0  0  0
   39.4555   31.8490   39.7870 H   0  0  0  0  0  0  0  0  0  0  0  0
   38.3109   28.8690   52.1459 H   0  0  0  0  0  0  0  0  0  0  0  0
   38.6320   28.6835   50.4009 H   0  0  0  0  0  0  0  0  0  0  0  0
  1 20  1  0
  1  2  2  0
  3  2  1  0
  4  3  2  0
  5  6  2  0
  5  4  1  0
  6  1  1  0
  7  5  1  0
  8  7  2  0
  9  8  1  0
 10  9  2  0
 10 11  1  0
 11  7  1  0
 12 10  1  0
 13 12  1  0
 14 13  2  0
 15 17  1  0
 15 14  1  0
 16 15  2  0
 17 18  1  0
 18 19  2  0
 18 12  1  0
 20 22  1  0
 21 20  2  0
 22 23  1  0
 23 24  1  0
 23 25  2  0
  2 26  1  0
  3 27  1  0
  8 28  1  0
  9 29  1  0
 13 30  1  0
 14 31  1  0
 17 32  1  0
 24 33  1  0
 24 34  1  0
M  ISO  7  26  14  27  14  28  14  29  14  30  14  31  14  32   9
M  END
>  <minimizedAffinity>  (1) 
-6.20738029

>  <minimizedRMSD>  (1) 
2.22515845

$$$$
