
     RDKit          3D

 33 35  0  0  0  0  0  0  0  0999 V2000
   37.0390   31.3180   48.5160 C   0  0  0  0  0  0  0  0  0  0  0  0
   37.3670   32.1660   49.5930 C   0  0  0  0  0  0  0  0  0  0  0  0
   38.3790   33.1130   49.3780 C   0  0  0  0  0  0  0  0  0  0  0  0
   38.9810   33.1450   48.1350 N   0  0  0  0  0  0  0  0  0  0  0  0
   38.6250   32.3150   47.1620 C   0  0  0  0  0  0  0  0  0  0  0  0
   37.6410   31.3770   47.3320 N   0  0  0  0  0  0  0  0  0  0  0  0
   39.2890   32.3800   45.8520 C   0  0  0  0  0  0  0  0  0  0  0  0
   39.9210   33.5080   45.3730 C   0  0  0  0  0  0  0  0  0  0  0  0
   40.4290   33.1880   44.1050 C   0  0  0  0  0  0  0  0  0  0  0  0
   40.0620   31.8750   43.9080 C   0  0  0  0  0  0  0  0  0  0  0  0
   39.4000   31.4480   44.9530 O   0  0  0  0  0  0  0  0  0  0  0  0
   40.3640   31.0850   42.7210 C   0  0  0  0  0  0  0  0  0  0  0  0
   41.0020   29.8620   42.7700 C   0  0  0  0  0  0  0  0  0  0  0  0
   41.2940   29.1070   41.6620 C   0  0  0  0  0  0  0  0  0  0  0  0
   40.9160   29.6230   40.4200 C   0  0  0  0  0  0  0  0  0  0  0  0
   40.2740   30.8510   40.3590 C   0  0  0  0  0  0  0  0  0  0  0  0
   40.0250   31.5280   41.4960 N   0  0  0  0  0  0  0  0  0  0  0  0
   35.9810   30.3340   48.7520 C   0  0  0  0  0  0  0  0  0  0  0  0
   34.8000   30.5660   48.3610 O   0  0  0  0  0  0  0  0  0  0  0  0
   36.2930   29.1450   49.4110 O   0  0  0  0  0  0  0  0  0  0  0  0
   36.6240   29.1080   50.7690 C   0  0  0  0  0  0  0  0  0  0  0  0
   37.9490   28.9080   51.2250 N   0  0  0  0  0  0  0  0  0  0  0  0
   35.6310   29.2680   51.5200 O   0  0  0  0  0  0  0  0  0  0  0  0
   36.8510   32.0884   50.5614 H   0  0  0  0  0  0  0  0  0  0  0  0
   38.6837   33.8083   50.1740 H   0  0  0  0  0  0  0  0  0  0  0  0
   40.0101   34.4760   45.8878 H   0  0  0  0  0  0  0  0  0  0  0  0
   40.9936   33.8393   43.4216 H   0  0  0  0  0  0  0  0  0  0  0  0
   41.2936   29.4694   43.7553 H   0  0  0  0  0  0  0  0  0  0  0  0
   41.8042   28.1363   41.7481 H   0  0  0  0  0  0  0  0  0  0  0  0
   41.1257   29.0603   39.4984 H   0  0  0  0  0  0  0  0  0  0  0  0
   39.9702   31.2691   39.3880 H   0  0  0  0  0  0  0  0  0  0  0  0
   38.1484   28.8877   52.2353 H   0  0  0  0  0  0  0  0  0  0  0  0
   38.7138   28.7828   50.5465 H   0  0  0  0  0  0  0  0  0  0  0  0
  1 18  1  0
  1  2  2  0
  3  2  1  0
  4  3  2  0
  5  6  2  0
  5  4  1  0
  6  1  1  0
  7  5  1  0
  8  7  2  0
  9  8  1  0
 10  9  2  0
 10 11  1  0
 11  7  1  0
 12 13  2  0
 12 10  1  0
 14 13  1  0
 15 14  2  0
 16 15  1  0
 16 17  2  0
 17 12  1  0
 18 20  1  0
 19 18  2  0
 20 21  1  0
 21 22  1  0
 21 23  2  0
  2 24  1  0
  3 25  1  0
  8 26  1  0
  9 27  1  0
 13 28  1  0
 14 29  1  0
 15 30  1  0
 16 31  1  0
 22 32  1  0
 22 33  1  0
M  ISO  8  24  14  25  14  26  14  27  14  28  14  29  14  30  14  31  14
M  END
>  <minimizedAffinity>  (1) 
-6.12349129

>  <minimizedRMSD>  (1) 
2.2037766

$$$$
