
     RDKit          3D

 38 41  0  0  0  0  0  0  0  0999 V2000
   39.1470   31.6530   46.1140 C   0  0  0  0  0  0  0  0  0  0  0  0
   40.5030   31.4920   45.9560 C   0  0  0  0  0  0  0  0  0  0  0  0
   40.7400   31.1890   44.6070 C   0  0  0  0  0  0  0  0  0  0  0  0
   39.4890   31.1870   44.0300 C   0  0  0  0  0  0  0  0  0  0  0  0
   38.6070   31.4620   44.9500 O   0  0  0  0  0  0  0  0  0  0  0  0
   39.2020   30.9220   42.6240 C   0  0  0  0  0  0  0  0  0  0  0  0
   39.1800   29.7060   41.9730 C   0  0  0  0  0  0  0  0  0  0  0  0
   38.8690   29.9190   40.6770 N   0  0  0  0  0  0  0  0  0  0  0  0
   38.6840   31.2480   40.4600 C   0  0  0  0  0  0  0  0  0  0  0  0
   38.3660   32.0230   39.3890 C   0  0  0  0  0  0  0  0  0  0  0  0
   38.2520   33.4010   39.5070 C   0  0  0  0  0  0  0  0  0  0  0  0
   38.4620   34.0170   40.7240 C   0  0  0  0  0  0  0  0  0  0  0  0
   38.7840   33.2330   41.8060 C   0  0  0  0  0  0  0  0  0  0  0  0
   38.8910   31.8610   41.6620 C   0  0  0  0  0  0  0  0  0  0  0  0
   36.8980   31.4430   48.9540 C   0  0  0  0  0  0  0  0  0  0  0  0
   37.2710   32.5480   49.7680 C   0  0  0  0  0  0  0  0  0  0  0  0
   38.3120   33.3530   49.3040 C   0  0  0  0  0  0  0  0  0  0  0  0
   38.9070   33.0300   48.0960 N   0  0  0  0  0  0  0  0  0  0  0  0
   38.5100   31.9760   47.3790 C   0  0  0  0  0  0  0  0  0  0  0  0
   37.4880   31.1550   47.7980 N   0  0  0  0  0  0  0  0  0  0  0  0
   35.8070   30.6170   49.4610 C   0  0  0  0  0  0  0  0  0  0  0  0
   34.7040   30.5760   48.8150 O   0  0  0  0  0  0  0  0  0  0  0  0
   35.9890   29.8880   50.6400 O   0  0  0  0  0  0  0  0  0  0  0  0
   37.2570   29.6180   51.1500 C   0  0  0  0  0  0  0  0  0  0  0  0
   38.2730   29.0080   50.3950 N   0  0  0  0  0  0  0  0  0  0  0  0
   37.4050   29.9680   52.3390 O   0  0  0  0  0  0  0  0  0  0  0  0
   41.2644   31.5841   46.7446 H   0  0  0  0  0  0  0  0  0  0  0  0
   41.7071   30.9963   44.1196 H   0  0  0  0  0  0  0  0  0  0  0  0
   39.3820   28.7273   42.4328 H   0  0  0  0  0  0  0  0  0  0  0  0
   38.7845   29.1845   39.9599 H   0  0  0  0  0  0  0  0  0  0  0  0
   38.1960   31.5490   38.4110 H   0  0  0  0  0  0  0  0  0  0  0  0
   37.9928   34.0058   38.6255 H   0  0  0  0  0  0  0  0  0  0  0  0
   38.3738   35.1087   40.8256 H   0  0  0  0  0  0  0  0  0  0  0  0
   38.9570   33.6971   42.7882 H   0  0  0  0  0  0  0  0  0  0  0  0
   36.7619   32.7585   50.7201 H   0  0  0  0  0  0  0  0  0  0  0  0
   38.6520   34.2236   49.8841 H   0  0  0  0  0  0  0  0  0  0  0  0
   39.1943   28.8302   50.8199 H   0  0  0  0  0  0  0  0  0  0  0  0
   38.0965   28.7386   49.4166 H   0  0  0  0  0  0  0  0  0  0  0  0
  1 19  1  0
  2  1  2  0
  3  2  1  0
  4  3  2  0
  4  5  1  0
  5  1  1  0
  6  4  1  0
  7  6  2  0
  8  7  1  0
  9  8  1  0
  9 14  2  0
 10 11  2  0
 10  9  1  0
 11 12  1  0
 12 13  2  0
 14 13  1  0
 14  6  1  0
 15 21  1  0
 15 16  2  0
 17 16  1  0
 18 17  2  0
 19 20  2  0
 19 18  1  0
 20 15  1  0
 21 23  1  0
 22 21  2  0
 23 24  1  0
 24 26  2  0
 25 24  1  0
  2 27  1  0
  3 28  1  0
  7 29  1  0
  8 30  1  0
 10 31  1  0
 11 32  1  0
 12 33  1  0
 13 34  1  0
 16 35  1  0
 17 36  1  0
 25 37  1  0
 25 38  1  0
M  ISO  8  27  14  28  14  29  14  30   9  31  14  32  14  33  14  34  14
M  ISO  2  35  14  36  14
M  END
>  <minimizedAffinity>  (1) 
-6.08909416

>  <minimizedRMSD>  (1) 
2.50380445

$$$$
