
     RDKit          3D

 34 36  0  0  0  0  0  0  0  0999 V2000
   37.2100   31.2150   48.4650 C   0  0  0  0  0  0  0  0  0  0  0  0
   37.6170   32.3060   49.2750 C   0  0  0  0  0  0  0  0  0  0  0  0
   38.6250   33.1280   48.7890 C   0  0  0  0  0  0  0  0  0  0  0  0
   39.1600   32.8270   47.5530 N   0  0  0  0  0  0  0  0  0  0  0  0
   38.7470   31.7950   46.8300 C   0  0  0  0  0  0  0  0  0  0  0  0
   37.7550   30.9590   47.2730 N   0  0  0  0  0  0  0  0  0  0  0  0
   39.3440   31.5170   45.5280 C   0  0  0  0  0  0  0  0  0  0  0  0
   40.0220   32.4720   44.7930 C   0  0  0  0  0  0  0  0  0  0  0  0
   40.4550   31.8690   43.6140 C   0  0  0  0  0  0  0  0  0  0  0  0
   40.0010   30.5570   43.7120 C   0  0  0  0  0  0  0  0  0  0  0  0
   39.3620   30.4110   44.8460 O   0  0  0  0  0  0  0  0  0  0  0  0
   40.2390   29.5600   42.6750 C   0  0  0  0  0  0  0  0  0  0  0  0
   41.1320   29.7710   41.6260 C   0  0  0  0  0  0  0  0  0  0  0  0
   41.3540   28.8270   40.6480 C   0  0  0  0  0  0  0  0  0  0  0  0
   40.6850   27.6240   40.6810 C   0  0  0  0  0  0  0  0  0  0  0  0
   39.7960   27.3950   41.7110 C   0  0  0  0  0  0  0  0  0  0  0  0
   39.5810   28.3470   42.6850 C   0  0  0  0  0  0  0  0  0  0  0  0
   36.1490   30.3610   48.9910 C   0  0  0  0  0  0  0  0  0  0  0  0
   34.9440   30.5970   48.6770 O   0  0  0  0  0  0  0  0  0  0  0  0
   36.4660   29.3050   49.8220 O   0  0  0  0  0  0  0  0  0  0  0  0
   36.5050   29.4330   51.2110 C   0  0  0  0  0  0  0  0  0  0  0  0
   37.6700   29.7600   51.9380 N   0  0  0  0  0  0  0  0  0  0  0  0
   35.4030   29.2270   51.7590 O   0  0  0  0  0  0  0  0  0  0  0  0
   37.1507   32.4942   50.2533 H   0  0  0  0  0  0  0  0  0  0  0  0
   38.9850   33.9901   49.3696 H   0  0  0  0  0  0  0  0  0  0  0  0
   40.1893   33.5189   45.0862 H   0  0  0  0  0  0  0  0  0  0  0  0
   41.0260   32.3260   42.7924 H   0  0  0  0  0  0  0  0  0  0  0  0
   41.6784   30.7245   41.5775 H   0  0  0  0  0  0  0  0  0  0  0  0
   42.0683   29.0349   39.8377 H   0  0  0  0  0  0  0  0  0  0  0  0
   40.8553   26.8636   39.9046 H   0  0  0  0  0  0  0  0  0  0  0  0
   39.2515   26.4403   41.7557 H   0  0  0  0  0  0  0  0  0  0  0  0
   38.8651   28.1337   43.4924 H   0  0  0  0  0  0  0  0  0  0  0  0
   37.6314   29.8393   52.9642 H   0  0  0  0  0  0  0  0  0  0  0  0
   38.5587   29.9193   51.4422 H   0  0  0  0  0  0  0  0  0  0  0  0
  1 18  1  0
  1  2  2  0
  3  2  1  0
  4  3  2  0
  5  6  2  0
  5  4  1  0
  6  1  1  0
  7  5  1  0
  8  7  2  0
  9 10  2  0
  9  8  1  0
 10 11  1  0
 11  7  1  0
 12 17  1  0
 12 10  1  0
 13 12  2  0
 14 15  2  0
 14 13  1  0
 15 16  1  0
 16 17  2  0
 18 20  1  0
 19 18  2  0
 20 21  1  0
 21 23  2  0
 21 22  1  0
  2 24  1  0
  3 25  1  0
  8 26  1  0
  9 27  1  0
 13 28  1  0
 14 29  1  0
 15 30  1  0
 16 31  1  0
 17 32  1  0
 22 33  1  0
 22 34  1  0
M  ISO  8  24  14  25  14  26  14  27  14  28  14  29  14  30  14  31  14
M  ISO  1  32  14
M  END
>  <minimizedAffinity>  (1) 
-5.94388914

>  <minimizedRMSD>  (1) 
3.00456405

$$$$
