
     RDKit          3D

 32 34  0  0  0  0  0  0  0  0999 V2000
   37.1970   31.3740   48.5830 C   0  0  0  0  0  0  0  0  0  0  0  0
   37.5920   32.4070   49.4750 C   0  0  0  0  0  0  0  0  0  0  0  0
   38.5830   33.2870   49.0490 C   0  0  0  0  0  0  0  0  0  0  0  0
   39.1170   33.1000   47.7890 N   0  0  0  0  0  0  0  0  0  0  0  0
   38.7110   32.1190   46.9940 C   0  0  0  0  0  0  0  0  0  0  0  0
   37.7460   31.2470   47.3860 N   0  0  0  0  0  0  0  0  0  0  0  0
   39.2940   31.9430   45.6620 C   0  0  0  0  0  0  0  0  0  0  0  0
   40.4930   31.3010   45.4410 C   0  0  0  0  0  0  0  0  0  0  0  0
   40.7290   31.3230   44.0650 C   0  0  0  0  0  0  0  0  0  0  0  0
   39.6390   31.9880   43.5330 C   0  0  0  0  0  0  0  0  0  0  0  0
   38.8340   32.3280   44.5090 O   0  0  0  0  0  0  0  0  0  0  0  0
   39.4370   32.2580   42.1070 C   0  0  0  0  0  0  0  0  0  0  0  0
   39.8670   31.3820   41.1260 C   0  0  0  0  0  0  0  0  0  0  0  0
   39.6240   31.7380   39.8160 C   0  0  0  0  0  0  0  0  0  0  0  0
   38.9970   32.8870   39.5050 N   0  0  0  0  0  0  0  0  0  0  0  0
   38.5720   33.7510   40.4670 C   0  0  0  0  0  0  0  0  0  0  0  0
   38.8160   33.3900   41.7300 N   0  0  0  0  0  0  0  0  0  0  0  0
   36.1620   30.4720   49.0550 C   0  0  0  0  0  0  0  0  0  0  0  0
   34.9450   30.6990   48.7380 O   0  0  0  0  0  0  0  0  0  0  0  0
   36.4990   29.3850   49.8360 O   0  0  0  0  0  0  0  0  0  0  0  0
   36.5200   29.4450   51.2310 C   0  0  0  0  0  0  0  0  0  0  0  0
   37.6820   29.7350   51.9710 N   0  0  0  0  0  0  0  0  0  0  0  0
   35.3960   29.2140   51.7520 O   0  0  0  0  0  0  0  0  0  0  0  0
   37.1305   32.5080   50.4684 H   0  0  0  0  0  0  0  0  0  0  0  0
   38.9301   34.1061   49.6960 H   0  0  0  0  0  0  0  0  0  0  0  0
   41.1438   30.8539   46.2069 H   0  0  0  0  0  0  0  0  0  0  0  0
   41.5905   30.9044   43.5241 H   0  0  0  0  0  0  0  0  0  0  0  0
   40.3802   30.4428   41.3799 H   0  0  0  0  0  0  0  0  0  0  0  0
   39.9501   31.0675   39.0073 H   0  0  0  0  0  0  0  0  0  0  0  0
   38.0578   34.6913   40.2192 H   0  0  0  0  0  0  0  0  0  0  0  0
   37.6428   29.7670   52.9998 H   0  0  0  0  0  0  0  0  0  0  0  0
   38.5713   29.9152   51.4836 H   0  0  0  0  0  0  0  0  0  0  0  0
  1 18  1  0
  1  2  2  0
  3  2  1  0
  4  3  2  0
  5  6  2  0
  5  4  1  0
  6  1  1  0
  7  5  1  0
  8  7  2  0
  9  8  1  0
 10  9  2  0
 10 11  1  0
 11  7  1  0
 12 10  1  0
 13 12  2  0
 14 13  1  0
 15 14  2  0
 15 16  1  0
 16 17  2  0
 17 12  1  0
 18 20  1  0
 19 18  2  0
 20 21  1  0
 21 23  2  0
 21 22  1  0
  2 24  1  0
  3 25  1  0
  8 26  1  0
  9 27  1  0
 13 28  1  0
 14 29  1  0
 16 30  1  0
 22 31  1  0
 22 32  1  0
M  ISO  7  24  14  25  14  26  14  27  14  28  14  29  14  30  14
M  END
>  <minimizedAffinity>  (1) 
-5.89979315

>  <minimizedRMSD>  (1) 
0.992966831

$$$$
