
     RDKit          3D

 49 53  0  0  0  0  0  0  0  0999 V2000
   39.2120   32.1770   42.4510 C   0  0  0  0  0  0  0  0  0  0  0  0
   39.7700   31.5080   43.5130 C   0  0  0  0  0  0  0  0  0  0  0  0
   40.6710   30.4760   43.3550 C   0  0  0  0  0  0  0  0  0  0  0  0
   41.0400   30.0870   42.0610 C   0  0  0  0  0  0  0  0  0  0  0  0
   41.8650   29.1510   41.6040 N   0  0  0  0  0  0  0  0  0  0  0  0
   41.8450   29.2090   40.2800 C   0  0  0  0  0  0  0  0  0  0  0  0
   41.0010   30.1890   39.8940 N   0  0  0  0  0  0  0  0  0  0  0  0
   40.4710   30.7710   40.9970 C   0  0  0  0  0  0  0  0  0  0  0  0
   39.5680   31.8030   41.1480 C   0  0  0  0  0  0  0  0  0  0  0  0
   39.3780   31.9190   44.8430 C   0  0  0  0  0  0  0  0  0  0  0  0
   38.2610   32.5390   44.9780 O   0  0  0  0  0  0  0  0  0  0  0  0
   40.1060   31.7080   46.0300 N   0  0  0  0  0  0  0  0  0  0  0  0
   38.2990   30.2210   47.4260 F   0  0  0  0  0  0  0  0  0  0  0  0
   38.5460   31.4650   47.8990 C   0  0  0  0  0  0  0  0  0  0  0  0
   37.9070   31.9180   49.0140 C   0  0  0  0  0  0  0  0  0  0  0  0
   38.2080   33.1930   49.4320 C   0  0  0  0  0  0  0  0  0  0  0  0
   39.1070   33.9930   48.7780 C   0  0  0  0  0  0  0  0  0  0  0  0
   39.7510   33.5120   47.6380 C   0  0  0  0  0  0  0  0  0  0  0  0
   39.4590   32.2320   47.2020 C   0  0  0  0  0  0  0  0  0  0  0  0
   36.3350   29.4490   51.4260 C   0  0  0  0  0  0  0  0  0  0  0  0
   37.2840   30.3090   50.8130 C   0  0  0  0  0  0  0  0  0  0  0  0
   36.9570   31.0210   49.6760 C   0  0  0  0  0  0  0  0  0  0  0  0
   35.6910   30.8610   49.1750 N   0  0  0  0  0  0  0  0  0  0  0  0
   34.7970   30.0440   49.7610 C   0  0  0  0  0  0  0  0  0  0  0  0
   35.1100   29.3560   50.8580 N   0  0  0  0  0  0  0  0  0  0  0  0
   39.0110   32.4650   40.0840 O   0  0  0  0  0  0  0  0  0  0  0  0
   37.4320   33.9590   39.0610 C   0  0  0  0  0  0  0  0  0  0  0  0
   37.7460   33.0020   40.0340 C   0  0  0  0  0  0  0  0  0  0  0  0
   36.7110   32.6690   40.9000 C   0  0  0  0  0  0  0  0  0  0  0  0
   35.4480   33.2430   40.8090 C   0  0  0  0  0  0  0  0  0  0  0  0
   35.1820   34.1810   39.8340 C   0  0  0  0  0  0  0  0  0  0  0  0
   36.1830   34.5410   38.9540 C   0  0  0  0  0  0  0  0  0  0  0  0
   39.1950   34.8050   37.3310 N   0  0  0  0  0  0  0  0  0  0  0  0
   38.4070   34.4370   38.0920 C   0  0  0  0  0  0  0  0  0  0  0  0
   38.4960   32.9946   42.6207 H   0  0  0  0  0  0  0  0  0  0  0  0
   41.0939   29.9655   44.2328 H   0  0  0  0  0  0  0  0  0  0  0  0
   42.4200   28.4981   42.1756 H   0  0  0  0  0  0  0  0  0  0  0  0
   42.4235   28.5621   39.6041 H   0  0  0  0  0  0  0  0  0  0  0  0
   41.0151   31.2245   46.0559 H   0  0  0  0  0  0  0  0  0  0  0  0
   37.7062   33.5865   50.3283 H   0  0  0  0  0  0  0  0  0  0  0  0
   39.3194   35.0066   49.1488 H   0  0  0  0  0  0  0  0  0  0  0  0
   40.4761   34.1376   47.0968 H   0  0  0  0  0  0  0  0  0  0  0  0
   36.5868   28.8778   52.3317 H   0  0  0  0  0  0  0  0  0  0  0  0
   38.2894   30.4090   51.2480 H   0  0  0  0  0  0  0  0  0  0  0  0
   33.7912   29.9425   49.3272 H   0  0  0  0  0  0  0  0  0  0  0  0
   36.8982   31.9234   41.6868 H   0  0  0  0  0  0  0  0  0  0  0  0
   34.6590   32.9481   41.5165 H   0  0  0  0  0  0  0  0  0  0  0  0
   34.1839   34.6371   39.7582 H   0  0  0  0  0  0  0  0  0  0  0  0
   35.9873   35.2881   38.1707 H   0  0  0  0  0  0  0  0  0  0  0  0
  1  2  2  0
  2 10  1  0
  3  2  1  0
  4  3  2  0
  5  4  1  0
  6  5  1  0
  7  6  2  0
  7  8  1  0
  8  9  2  0
  8  4  1  0
  9  1  1  0
 10 11  2  0
 10 12  1  0
 12 19  1  0
 13 14  1  0
 14 15  2  0
 15 16  1  0
 15 22  1  0
 17 16  2  0
 18 17  1  0
 19 18  2  0
 19 14  1  0
 21 20  2  0
 22 21  1  0
 23 22  2  0
 23 24  1  0
 24 25  2  0
 25 20  1  0
 26  9  1  0
 27 28  2  0
 28 26  1  0
 28 29  1  0
 30 29  2  0
 31 30  1  0
 32 27  1  0
 32 31  2  0
 33 34  3  0
 34 27  1  0
  1 35  1  0
  3 36  1  0
  5 37  1  0
  6 38  1  0
 12 39  1  0
 16 40  1  0
 17 41  1  0
 18 42  1  0
 20 43  1  0
 21 44  1  0
 24 45  1  0
 29 46  1  0
 30 47  1  0
 31 48  1  0
 32 49  1  0
M  END
>  <Score>  (1) 
-7.17555

>  <Score_dual>  (1) 
-7.57

>  <Choices>  (1) 
[None, 8, ['9-19', 285], 19, ['12-4', 210], 22, ['34-10', 105], 36, ['2-1', 0], 37, ['40-13', 195]]

$$$$
