
     RDKit          3D

 42 46  0  0  0  0  0  0  0  0999 V2000
   37.3710   31.0040   49.6280 C   0  0  0  0  0  0  0  0  0  0  0  0
   37.6070   30.6280   50.9240 C   0  0  0  0  0  0  0  0  0  0  0  0
   36.7820   29.7000   51.4960 C   0  0  0  0  0  0  0  0  0  0  0  0
   35.7500   29.1640   50.7830 N   0  0  0  0  0  0  0  0  0  0  0  0
   35.5590   29.5600   49.5220 C   0  0  0  0  0  0  0  0  0  0  0  0
   36.3560   30.4730   48.9330 N   0  0  0  0  0  0  0  0  0  0  0  0
   34.4590   28.9890   48.7640 C   0  0  0  0  0  0  0  0  0  0  0  0
   34.5040   28.9190   47.3850 C   0  0  0  0  0  0  0  0  0  0  0  0
   33.5480   28.4110   46.5380 C   0  0  0  0  0  0  0  0  0  0  0  0
   32.4240   27.9200   47.1860 C   0  0  0  0  0  0  0  0  0  0  0  0
   31.4310   27.3980   46.4120 N   0  0  0  0  0  0  0  0  0  0  0  0
   30.2930   26.8940   46.9470 C   0  0  0  0  0  0  0  0  0  0  0  0
   30.1370   26.9090   48.3210 C   0  0  0  0  0  0  0  0  0  0  0  0
   31.1450   27.4400   49.1050 C   0  0  0  0  0  0  0  0  0  0  0  0
   32.3110   27.9560   48.5560 C   0  0  0  0  0  0  0  0  0  0  0  0
   33.3120   28.4820   49.3390 C   0  0  0  0  0  0  0  0  0  0  0  0
   39.4530   33.9690   48.9610 C   0  0  0  0  0  0  0  0  0  0  0  0
   39.8120   33.8160   47.6290 C   0  0  0  0  0  0  0  0  0  0  0  0
   39.3180   32.6680   46.9710 C   0  0  0  0  0  0  0  0  0  0  0  0
   38.5420   31.8020   47.6600 N   0  0  0  0  0  0  0  0  0  0  0  0
   38.2190   31.9930   48.9590 C   0  0  0  0  0  0  0  0  0  0  0  0
   38.6840   33.0800   49.5850 N   0  0  0  0  0  0  0  0  0  0  0  0
   39.5970   32.3530   45.5780 C   0  0  0  0  0  0  0  0  0  0  0  0
   40.2820   31.2360   45.1660 C   0  0  0  0  0  0  0  0  0  0  0  0
   40.5610   30.9100   43.8570 C   0  0  0  0  0  0  0  0  0  0  0  0
   40.1290   31.7600   42.8600 C   0  0  0  0  0  0  0  0  0  0  0  0
   39.4430   32.8780   43.2840 C   0  0  0  0  0  0  0  0  0  0  0  0
   39.1970   33.1510   44.5620 N   0  0  0  0  0  0  0  0  0  0  0  0
   38.4423   31.0634   51.4921 H   0  0  0  0  0  0  0  0  0  0  0  0
   36.9512   29.3841   52.5360 H   0  0  0  0  0  0  0  0  0  0  0  0
   35.4122   29.3168   46.9085 H   0  0  0  0  0  0  0  0  0  0  0  0
   33.6639   28.3952   45.4442 H   0  0  0  0  0  0  0  0  0  0  0  0
   29.5063   26.4798   46.2993 H   0  0  0  0  0  0  0  0  0  0  0  0
   29.2246   26.5045   48.7835 H   0  0  0  0  0  0  0  0  0  0  0  0
   31.0189   27.4539   50.1977 H   0  0  0  0  0  0  0  0  0  0  0  0
   33.1971   28.4986   50.4329 H   0  0  0  0  0  0  0  0  0  0  0  0
   39.8135   34.8480   49.5153 H   0  0  0  0  0  0  0  0  0  0  0  0
   40.4479   34.5503   47.1129 H   0  0  0  0  0  0  0  0  0  0  0  0
   40.6368   30.5453   45.9451 H   0  0  0  0  0  0  0  0  0  0  0  0
   41.1159   29.9923   43.6121 H   0  0  0  0  0  0  0  0  0  0  0  0
   40.3196   31.5587   41.7955 H   0  0  0  0  0  0  0  0  0  0  0  0
   39.0788   33.5836   42.5228 H   0  0  0  0  0  0  0  0  0  0  0  0
  1  2  2  0
  2  3  1  0
  4  3  2  0
  5  4  1  0
  6  5  2  0
  6  1  1  0
  7 16  1  0
  7  5  1  0
  8  7  2  0
  9 10  2  0
  9  8  1  0
 10 15  1  0
 11 12  2  0
 11 10  1  0
 12 13  1  0
 13 14  2  0
 15 14  1  0
 15 16  2  0
 17 22  2  0
 18 17  1  0
 19 18  2  0
 19 20  1  0
 20 21  2  0
 21 22  1  0
 21  1  1  0
 23 19  1  0
 24 23  2  0
 25 24  1  0
 26 27  1  0
 26 25  2  0
 27 28  2  0
 28 23  1  0
  2 29  1  0
  3 30  1  0
  8 31  1  0
  9 32  1  0
 12 33  1  0
 13 34  1  0
 14 35  1  0
 16 36  1  0
 17 37  1  0
 18 38  1  0
 24 39  1  0
 25 40  1  0
 26 41  1  0
 27 42  1  0
M  END
>  <Score>  (1) 
-7.75366

>  <Score_dual>  (1) 
-7.23

>  <Choices>  (1) 
[None, 9, ['19-20', 225], 17, ['36-26', 90], 32, ['6-16', 150]]

$$$$
