
     RDKit          3D

 45 49  0  0  0  0  0  0  0  0999 V2000
   36.3660   31.5600   43.3550 C   0  0  0  0  0  0  0  0  0  0  0  0
   36.5170   30.5170   42.4840 C   0  0  0  0  0  0  0  0  0  0  0  0
   35.8500   30.3770   41.2940 C   0  0  0  0  0  0  0  0  0  0  0  0
   34.9410   31.3560   40.9140 C   0  0  0  0  0  0  0  0  0  0  0  0
   34.8080   32.4060   41.8190 C   0  0  0  0  0  0  0  0  0  0  0  0
   35.4830   32.4960   42.9690 N   0  0  0  0  0  0  0  0  0  0  0  0
   33.9130   33.5180   41.6040 N   0  0  0  0  0  0  0  0  0  0  0  0
   34.1960   34.6610   40.9160 C   0  0  0  0  0  0  0  0  0  0  0  0
   33.0810   35.4440   40.9540 N   0  0  0  0  0  0  0  0  0  0  0  0
   32.1390   34.7780   41.6580 C   0  0  0  0  0  0  0  0  0  0  0  0
   30.8410   35.0970   42.0000 C   0  0  0  0  0  0  0  0  0  0  0  0
   30.0920   34.2260   42.7330 N   0  0  0  0  0  0  0  0  0  0  0  0
   30.6050   33.0420   43.1330 C   0  0  0  0  0  0  0  0  0  0  0  0
   31.8840   32.7280   42.7940 N   0  0  0  0  0  0  0  0  0  0  0  0
   32.6520   33.5610   42.0730 C   0  0  0  0  0  0  0  0  0  0  0  0
   37.3760   31.2500   46.9570 N   0  0  0  0  0  0  0  0  0  0  0  0
   36.6600   31.1100   45.8050 C   0  0  0  0  0  0  0  0  0  0  0  0
   37.0900   31.6790   44.6100 C   0  0  0  0  0  0  0  0  0  0  0  0
   38.2840   32.4030   44.6260 C   0  0  0  0  0  0  0  0  0  0  0  0
   38.7000   32.9270   43.5720 O   0  0  0  0  0  0  0  0  0  0  0  0
   38.9970   32.5390   45.7890 N   0  0  0  0  0  0  0  0  0  0  0  0
   38.4890   31.9520   46.8690 C   0  0  0  0  0  0  0  0  0  0  0  0
   39.1680   32.0980   47.9100 O   0  0  0  0  0  0  0  0  0  0  0  0
   37.3870   29.5170   50.2480 C   0  0  0  0  0  0  0  0  0  0  0  0
   37.8260   30.0960   49.0470 C   0  0  0  0  0  0  0  0  0  0  0  0
   36.9350   30.6740   48.1550 C   0  0  0  0  0  0  0  0  0  0  0  0
   35.6300   30.6590   48.4890 N   0  0  0  0  0  0  0  0  0  0  0  0
   35.1720   30.1050   49.6500 C   0  0  0  0  0  0  0  0  0  0  0  0
   36.0720   29.5380   50.5170 N   0  0  0  0  0  0  0  0  0  0  0  0
   40.2270   33.2870   45.7940 C   0  0  0  0  0  0  0  0  0  0  0  0
   40.2270   34.2260   44.8100 F   0  0  0  0  0  0  0  0  0  0  0  0
   41.3520   32.4970   45.5830 F   0  0  0  0  0  0  0  0  0  0  0  0
   40.3350   33.9590   47.0150 F   0  0  0  0  0  0  0  0  0  0  0  0
   30.3130   36.3410   41.5770 N   0  0  0  0  0  0  0  0  0  0  0  0
   37.2307   29.7268   42.7599 H   0  0  0  0  0  0  0  0  0  0  0  0
   36.0320   29.5034   40.6508 H   0  0  0  0  0  0  0  0  0  0  0  0
   34.3720   31.3060   39.9739 H   0  0  0  0  0  0  0  0  0  0  0  0
   35.1478   34.9057   40.4219 H   0  0  0  0  0  0  0  0  0  0  0  0
   29.9968   32.3419   43.7245 H   0  0  0  0  0  0  0  0  0  0  0  0
   35.7224   30.5350   45.8206 H   0  0  0  0  0  0  0  0  0  0  0  0
   38.1004   29.0590   50.9489 H   0  0  0  0  0  0  0  0  0  0  0  0
   38.8997   30.0912   48.8082 H   0  0  0  0  0  0  0  0  0  0  0  0
   34.0978   30.1131   49.8867 H   0  0  0  0  0  0  0  0  0  0  0  0
   29.3464   36.5999   41.8209 H   0  0  0  0  0  0  0  0  0  0  0  0
   30.8956   36.9869   41.0254 H   0  0  0  0  0  0  0  0  0  0  0  0
  1 18  1  0
  2  1  2  0
  3  2  1  0
  4  3  2  0
  4  5  1  0
  5  6  2  0
  6  1  1  0
  7  5  1  0
  7 15  1  0
  8  9  2  0
  8  7  1  0
  9 10  1  0
 10 11  1  0
 10 15  2  0
 11 12  2  0
 12 13  1  0
 14 13  2  0
 15 14  1  0
 16 26  1  0
 17 16  1  0
 18 19  1  0
 18 17  2  0
 19 21  1  0
 20 19  2  0
 21 30  1  0
 21 22  1  0
 22 16  1  0
 22 23  2  0
 24 29  2  0
 25 24  1  0
 26 27  1  0
 26 25  2  0
 27 28  2  0
 28 29  1  0
 30 33  1  0
 31 30  1  0
 32 30  1  0
 34 11  1  0
  2 35  1  0
  3 36  1  0
  4 37  1  0
  8 38  1  0
 13 39  1  0
 17 40  1  0
 24 41  1  0
 25 42  1  0
 28 43  1  0
 34 44  1  0
 34 45  1  0
M  END
>  <Score>  (1) 
-7.84903

>  <Score_dual>  (1) 
-7.5

>  <Choices>  (1) 
[None, 8, ['37-15', 165], 19, ['11-3', 60], 22, ['6-12', 270], 31, ['28-8', 150]]

$$$$
