
     RDKit          3D

 49 53  0  0  1  0  0  0  0  0999 V2000
   35.1170   30.0190   49.0910 C   0  0  2  0  0  0  0  0  0  0  0  0
   36.0610   31.1110   48.8780 C   0  0  0  0  0  0  0  0  0  0  0  0
   37.5460   30.6650   49.0430 C   0  0  2  0  0  0  0  0  0  0  0  0
   37.8410   30.1020   50.3380 C   0  0  0  0  0  0  0  0  0  0  0  0
   36.7160   29.2290   50.8990 C   0  0  0  0  0  0  0  0  0  0  0  0
   35.7540   28.8320   49.8200 C   0  0  0  0  0  0  0  0  0  0  0  0
   34.4660   29.4800   47.9010 C   0  0  0  0  0  0  0  0  0  0  0  0
   35.0060   29.9360   46.7080 C   0  0  0  0  0  0  0  0  0  0  0  0
   34.4720   29.4670   45.5090 C   0  0  0  0  0  0  0  0  0  0  0  0
   33.4120   28.5560   45.5690 N   0  0  0  0  0  0  0  0  0  0  0  0
   32.9240   28.1460   46.7470 C   0  0  0  0  0  0  0  0  0  0  0  0
   33.4640   28.6180   47.8710 N   0  0  0  0  0  0  0  0  0  0  0  0
   31.8470   27.2200   46.8230 N   0  0  0  0  0  0  0  0  0  0  0  0
   31.8080   25.8720   46.7080 C   0  0  0  0  0  0  0  0  0  0  0  0
   30.5190   25.4750   46.8620 N   0  0  0  0  0  0  0  0  0  0  0  0
   29.7520   26.5580   47.0730 C   0  0  0  0  0  0  0  0  0  0  0  0
   28.3960   26.7940   47.2940 C   0  0  0  0  0  0  0  0  0  0  0  0
   27.9050   28.0350   47.4780 N   0  0  0  0  0  0  0  0  0  0  0  0
   28.7330   29.1020   47.4510 C   0  0  0  0  0  0  0  0  0  0  0  0
   30.0320   28.8780   47.2400 N   0  0  0  0  0  0  0  0  0  0  0  0
   30.5730   27.6510   47.0500 C   0  0  0  0  0  0  0  0  0  0  0  0
   38.5290   31.0760   46.2880 Cl  0  0  0  0  0  0  0  0  0  0  0  0
   38.8550   32.2040   47.5790 C   0  0  0  0  0  0  0  0  0  0  0  0
   38.3050   31.9340   48.8060 C   0  0  0  0  0  0  0  0  0  0  0  0
   38.5780   32.8960   49.7590 C   0  0  0  0  0  0  0  0  0  0  0  0
   39.3330   34.0240   49.5080 C   0  0  0  0  0  0  0  0  0  0  0  0
   39.8600   34.2270   48.2300 C   0  0  0  0  0  0  0  0  0  0  0  0
   39.6080   33.2810   47.2370 C   0  0  0  0  0  0  0  0  0  0  0  0
   40.1460   33.4850   45.9410 N   0  0  0  0  0  0  0  0  0  0  0  0
   34.3451   30.5143   49.6983 H   0  0  0  0  0  0  0  0  0  0  0  0
   35.8494   31.9062   49.6080 H   0  0  0  0  0  0  0  0  0  0  0  0
   35.9333   31.4630   47.8437 H   0  0  0  0  0  0  0  0  0  0  0  0
   37.8096   29.8523   48.3501 H   0  0  0  0  0  0  0  0  0  0  0  0
   38.7481   29.4860   50.2506 H   0  0  0  0  0  0  0  0  0  0  0  0
   37.9718   30.9445   51.0331 H   0  0  0  0  0  0  0  0  0  0  0  0
   37.1521   28.3222   51.3434 H   0  0  0  0  0  0  0  0  0  0  0  0
   36.1703   29.8071   51.6593 H   0  0  0  0  0  0  0  0  0  0  0  0
   34.9511   28.2330   50.2746 H   0  0  0  0  0  0  0  0  0  0  0  0
   36.3286   28.2674   49.0709 H   0  0  0  0  0  0  0  0  0  0  0  0
   35.8395   30.6538   46.7079 H   0  0  0  0  0  0  0  0  0  0  0  0
   34.8732   29.8040   44.5418 H   0  0  0  0  0  0  0  0  0  0  0  0
   32.6695   25.2137   46.5223 H   0  0  0  0  0  0  0  0  0  0  0  0
   27.7043   25.9390   47.3190 H   0  0  0  0  0  0  0  0  0  0  0  0
   28.3493   30.1224   47.5981 H   0  0  0  0  0  0  0  0  0  0  0  0
   38.1722   32.7557   50.7717 H   0  0  0  0  0  0  0  0  0  0  0  0
   39.5182   34.7568   50.3072 H   0  0  0  0  0  0  0  0  0  0  0  0
   40.4645   35.1194   48.0105 H   0  0  0  0  0  0  0  0  0  0  0  0
   40.7103   34.3238   45.7438 H   0  0  0  0  0  0  0  0  0  0  0  0
   39.9725   32.7944   45.1968 H   0  0  0  0  0  0  0  0  0  0  0  0
  1  6  1  0
  2  3  1  0
  2  1  1  0
  3  4  1  0
  4  5  1  0
  6  5  1  0
  7  1  1  0
  8  7  2  0
  9 10  2  0
  9  8  1  0
 10 11  1  0
 11 13  1  0
 11 12  2  0
 12  7  1  0
 13 21  1  0
 14 13  1  0
 14 15  2  0
 15 16  1  0
 16 17  2  0
 17 18  1  0
 19 18  2  0
 20 19  1  0
 21 16  1  0
 21 20  2  0
 22 23  1  0
 23 24  2  0
 24  3  1  0
 24 25  1  0
 26 25  2  0
 27 26  1  0
 28 23  1  0
 28 27  2  0
 29 28  1  0
  1 30  1  1
  2 31  1  0
  2 32  1  0
  3 33  1  6
  4 34  1  0
  4 35  1  0
  5 36  1  0
  5 37  1  0
  6 38  1  0
  6 39  1  0
  8 40  1  0
  9 41  1  0
 14 42  1  0
 17 43  1  0
 19 44  1  0
 25 45  1  0
 26 46  1  0
 27 47  1  0
 29 48  1  0
 29 49  1  0
M  END
>  <Score>  (1) 
-8.41036

>  <Score_dual>  (1) 
-7.39

>  <Choices>  (1) 
[None, 6, ['18-26', 345], 19, ['7-17', 90], 35, ['0-2', 0], 37, ['45-15', 225]]

$$$$
