
     RDKit          3D

 48 52  0  0  0  0  0  0  0  0999 V2000
   39.2720   31.9490   44.9760 C   0  0  0  0  0  0  0  0  0  0  0  0
   38.1790   32.5960   45.0990 O   0  0  0  0  0  0  0  0  0  0  0  0
   39.9750   31.6720   46.1840 N   0  0  0  0  0  0  0  0  0  0  0  0
   39.1960   32.2860   42.6030 C   0  0  0  0  0  0  0  0  0  0  0  0
   39.7050   31.5540   43.6460 C   0  0  0  0  0  0  0  0  0  0  0  0
   40.5710   30.5060   43.4740 C   0  0  0  0  0  0  0  0  0  0  0  0
   40.9710   30.1460   42.1910 C   0  0  0  0  0  0  0  0  0  0  0  0
   41.7810   29.1990   41.7320 N   0  0  0  0  0  0  0  0  0  0  0  0
   41.8080   29.3010   40.4040 C   0  0  0  0  0  0  0  0  0  0  0  0
   41.0090   30.3230   40.0260 N   0  0  0  0  0  0  0  0  0  0  0  0
   40.4620   30.8810   41.1330 C   0  0  0  0  0  0  0  0  0  0  0  0
   39.5920   31.9330   41.3070 C   0  0  0  0  0  0  0  0  0  0  0  0
   39.0900   32.6620   40.2260 O   0  0  0  0  0  0  0  0  0  0  0  0
   37.8440   33.2630   40.3000 C   0  0  0  0  0  0  0  0  0  0  0  0
   36.9760   33.2570   41.3870 C   0  0  0  0  0  0  0  0  0  0  0  0
   35.7630   33.9100   41.2930 C   0  0  0  0  0  0  0  0  0  0  0  0
   35.4330   34.5650   40.1030 C   0  0  0  0  0  0  0  0  0  0  0  0
   36.2800   34.5830   39.0120 C   0  0  0  0  0  0  0  0  0  0  0  0
   37.4870   33.9210   39.1360 C   0  0  0  0  0  0  0  0  0  0  0  0
   38.1270   30.1760   47.5020 F   0  0  0  0  0  0  0  0  0  0  0  0
   38.3730   31.4050   48.0060 C   0  0  0  0  0  0  0  0  0  0  0  0
   37.7140   31.8440   49.1190 C   0  0  0  0  0  0  0  0  0  0  0  0
   38.0090   33.0960   49.5770 C   0  0  0  0  0  0  0  0  0  0  0  0
   38.9310   33.9090   48.9620 C   0  0  0  0  0  0  0  0  0  0  0  0
   39.5950   33.4470   47.8290 C   0  0  0  0  0  0  0  0  0  0  0  0
   39.3000   32.1690   47.3530 C   0  0  0  0  0  0  0  0  0  0  0  0
   36.0730   29.3430   51.4480 C   0  0  0  0  0  0  0  0  0  0  0  0
   37.0340   30.2080   50.8760 C   0  0  0  0  0  0  0  0  0  0  0  0
   36.7390   30.9370   49.7370 C   0  0  0  0  0  0  0  0  0  0  0  0
   35.4820   30.7810   49.1940 N   0  0  0  0  0  0  0  0  0  0  0  0
   34.5750   29.9570   49.7420 C   0  0  0  0  0  0  0  0  0  0  0  0
   34.8590   29.2540   50.8410 N   0  0  0  0  0  0  0  0  0  0  0  0
   40.8729   31.1684   46.2168 H   0  0  0  0  0  0  0  0  0  0  0  0
   38.5014   33.1207   42.7787 H   0  0  0  0  0  0  0  0  0  0  0  0
   40.9481   29.9520   44.3462 H   0  0  0  0  0  0  0  0  0  0  0  0
   42.2952   28.5105   42.2998 H   0  0  0  0  0  0  0  0  0  0  0  0
   42.3869   28.6575   39.7252 H   0  0  0  0  0  0  0  0  0  0  0  0
   37.2540   32.7357   42.3149 H   0  0  0  0  0  0  0  0  0  0  0  0
   35.0654   33.9147   42.1435 H   0  0  0  0  0  0  0  0  0  0  0  0
   34.4656   35.0839   40.0330 H   0  0  0  0  0  0  0  0  0  0  0  0
   36.0051   35.1030   38.0824 H   0  0  0  0  0  0  0  0  0  0  0  0
   38.1839   33.9170   38.2850 H   0  0  0  0  0  0  0  0  0  0  0  0
   37.4891   33.4681   50.4721 H   0  0  0  0  0  0  0  0  0  0  0  0
   39.1416   34.9125   49.3602 H   0  0  0  0  0  0  0  0  0  0  0  0
   40.3381   34.0775   47.3187 H   0  0  0  0  0  0  0  0  0  0  0  0
   36.2995   28.7614   52.3537 H   0  0  0  0  0  0  0  0  0  0  0  0
   38.0264   30.3026   51.3410 H   0  0  0  0  0  0  0  0  0  0  0  0
   33.5823   29.8594   49.2784 H   0  0  0  0  0  0  0  0  0  0  0  0
  1  2  2  0
  1  3  1  0
  3 26  1  0
  4  5  2  0
  5  1  1  0
  6  5  1  0
  7  6  2  0
  8  7  1  0
  9  8  1  0
 10  9  2  0
 10 11  1  0
 11 12  2  0
 11  7  1  0
 12  4  1  0
 13 14  1  0
 13 12  1  0
 14 15  2  0
 16 15  1  0
 17 16  2  0
 18 19  2  0
 18 17  1  0
 19 14  1  0
 20 21  1  0
 21 22  2  0
 22 23  1  0
 22 29  1  0
 24 23  2  0
 25 24  1  0
 26 25  2  0
 26 21  1  0
 28 27  2  0
 29 28  1  0
 30 29  2  0
 30 31  1  0
 31 32  2  0
 32 27  1  0
  3 33  1  0
  4 34  1  0
  6 35  1  0
  8 36  1  0
  9 37  1  0
 15 38  1  0
 16 39  1  0
 17 40  1  0
 18 41  1  0
 19 42  1  0
 23 43  1  0
 24 44  1  0
 25 45  1  0
 27 46  1  0
 28 47  1  0
 31 48  1  0
M  END
>  <Score>  (1) 
-7.51174

>  <Score_dual>  (1) 
-7.52

>  <Choices>  (1) 
[None, 8, ['9-19', 285], 19, ['12-4', 210], 22, ['34-10', 105], 36, ['2-1', 0], 37, ['1-20', 105]]

$$$$
