
     RDKit          3D

 42 46  0  0  0  0  0  0  0  0999 V2000
   35.7780   29.1360   49.8760 C   0  0  0  0  0  0  0  0  0  0  0  0
   34.7340   29.6200   50.5960 C   0  0  0  0  0  0  0  0  0  0  0  0
   33.5800   29.0290   50.0800 C   0  0  0  0  0  0  0  0  0  0  0  0
   34.0180   28.1940   49.0440 C   0  0  0  0  0  0  0  0  0  0  0  0
   35.3100   28.3110   48.9840 O   0  0  0  0  0  0  0  0  0  0  0  0
   33.5240   26.4200   47.3690 C   0  0  0  0  0  0  0  0  0  0  0  0
   33.0940   27.3850   48.2410 C   0  0  0  0  0  0  0  0  0  0  0  0
   31.7430   27.6590   48.4260 C   0  0  0  0  0  0  0  0  0  0  0  0
   30.8390   26.9090   47.6870 C   0  0  0  0  0  0  0  0  0  0  0  0
   29.5020   26.9570   47.6700 N   0  0  0  0  0  0  0  0  0  0  0  0
   29.0920   26.0330   46.8000 N   0  0  0  0  0  0  0  0  0  0  0  0
   30.1510   25.4140   46.2790 C   0  0  0  0  0  0  0  0  0  0  0  0
   31.3150   25.9470   46.8210 C   0  0  0  0  0  0  0  0  0  0  0  0
   32.6640   25.6780   46.6390 C   0  0  0  0  0  0  0  0  0  0  0  0
   37.1510   29.5430   50.1450 C   0  0  0  0  0  0  0  0  0  0  0  0
   37.7940   28.9530   51.0540 O   0  0  0  0  0  0  0  0  0  0  0  0
   37.6980   30.6120   49.3410 C   0  0  0  0  0  0  0  0  0  0  0  0
   37.7800   31.8630   49.9250 C   0  0  0  0  0  0  0  0  0  0  0  0
   38.3010   32.9190   49.1860 C   0  0  0  0  0  0  0  0  0  0  0  0
   38.7040   32.6470   47.9130 N   0  0  0  0  0  0  0  0  0  0  0  0
   38.6160   31.4280   47.3670 C   0  0  0  0  0  0  0  0  0  0  0  0
   38.1130   30.4250   48.0900 N   0  0  0  0  0  0  0  0  0  0  0  0
   36.4800   30.5680   45.5450 Cl  0  0  0  0  0  0  0  0  0  0  0  0
   38.1560   30.7880   45.0380 C   0  0  0  0  0  0  0  0  0  0  0  0
   39.0640   31.1960   45.9960 C   0  0  0  0  0  0  0  0  0  0  0  0
   40.3850   31.3830   45.6500 C   0  0  0  0  0  0  0  0  0  0  0  0
   40.7990   31.1570   44.3330 C   0  0  0  0  0  0  0  0  0  0  0  0
   39.8530   30.7500   43.4170 C   0  0  0  0  0  0  0  0  0  0  0  0
   38.5370   30.5610   43.7440 C   0  0  0  0  0  0  0  0  0  0  0  0
   37.3110   30.0410   42.5880 Cl  0  0  0  0  0  0  0  0  0  0  0  0
   34.7874   30.3395   51.4263 H   0  0  0  0  0  0  0  0  0  0  0  0
   32.5444   29.1858   50.4160 H   0  0  0  0  0  0  0  0  0  0  0  0
   34.6043   26.2440   47.2600 H   0  0  0  0  0  0  0  0  0  0  0  0
   31.4058   28.4363   49.1275 H   0  0  0  0  0  0  0  0  0  0  0  0
   28.9037   27.5871   48.2231 H   0  0  0  0  0  0  0  0  0  0  0  0
   30.1103   24.6054   45.5344 H   0  0  0  0  0  0  0  0  0  0  0  0
   33.0130   24.9041   45.9396 H   0  0  0  0  0  0  0  0  0  0  0  0
   37.4381   32.0201   50.9587 H   0  0  0  0  0  0  0  0  0  0  0  0
   38.3843   33.9304   49.6105 H   0  0  0  0  0  0  0  0  0  0  0  0
   41.1123   31.7093   46.4080 H   0  0  0  0  0  0  0  0  0  0  0  0
   41.8488   31.2999   44.0371 H   0  0  0  0  0  0  0  0  0  0  0  0
   40.1688   30.5693   42.3789 H   0  0  0  0  0  0  0  0  0  0  0  0
  1 15  1  0
  1  2  2  0
  3  2  1  0
  4  3  2  0
  5  4  1  0
  5  1  1  0
  6  7  2  0
  7  8  1  0
  7  4  1  0
  9  8  2  0
 10  9  1  0
 11 10  1  0
 12 11  2  0
 12 13  1  0
 13  9  1  0
 14 13  2  0
 14  6  1  0
 15 16  2  0
 17 18  2  0
 17 15  1  0
 19 18  1  0
 20 19  2  0
 21 20  1  0
 21 22  2  0
 22 17  1  0
 24 23  1  0
 24 25  2  0
 25 21  1  0
 26 25  1  0
 27 26  2  0
 28 29  2  0
 28 27  1  0
 29 24  1  0
 30 29  1  0
  2 31  1  0
  3 32  1  0
  6 33  1  0
  8 34  1  0
 10 35  1  0
 12 36  1  0
 14 37  1  0
 18 38  1  0
 19 39  1  0
 26 40  1  0
 27 41  1  0
 28 42  1  0
M  END
>  <Score>  (1) 
-7.42384

>  <Score_dual>  (1) 
-7.43

>  <Choices>  (1) 
[None, 6, ['5-8', 15], 11, ['43-11', 105], 18, ['54-8', 255], 31, ['51-23', 60]]

$$$$
