
     RDKit          3D

 46 51  0  0  0  0  0  0  0  0999 V2000
   36.9850   29.4200   50.2390 C   0  0  0  0  0  0  0  0  0  0  0  0
   37.6210   28.7960   51.1310 O   0  0  0  0  0  0  0  0  0  0  0  0
   37.5640   30.5030   49.4700 C   0  0  0  0  0  0  0  0  0  0  0  0
   38.3020   31.4530   50.1320 C   0  0  0  0  0  0  0  0  0  0  0  0
   38.8690   32.4840   49.4070 C   0  0  0  0  0  0  0  0  0  0  0  0
   38.6630   32.4980   48.0760 N   0  0  0  0  0  0  0  0  0  0  0  0
   37.9520   31.5870   47.4180 C   0  0  0  0  0  0  0  0  0  0  0  0
   37.4210   30.6080   48.1630 N   0  0  0  0  0  0  0  0  0  0  0  0
   37.6060   31.4190   45.9920 C   0  0  0  0  0  0  0  0  0  0  0  0
   36.6210   30.6320   45.5470 N   0  0  0  0  0  0  0  0  0  0  0  0
   36.3420   30.5090   44.2520 C   0  0  0  0  0  0  0  0  0  0  0  0
   37.0070   31.1460   43.2810 N   0  0  0  0  0  0  0  0  0  0  0  0
   38.0190   31.9610   43.6400 C   0  0  0  0  0  0  0  0  0  0  0  0
   38.7030   32.6190   42.6460 C   0  0  0  0  0  0  0  0  0  0  0  0
   39.7420   33.4600   42.9740 C   0  0  0  0  0  0  0  0  0  0  0  0
   40.0520   33.6060   44.3120 C   0  0  0  0  0  0  0  0  0  0  0  0
   39.3270   32.9200   45.2600 C   0  0  0  0  0  0  0  0  0  0  0  0
   38.2850   32.0700   44.9870 C   0  0  0  0  0  0  0  0  0  0  0  0
   35.6090   29.0520   49.9540 C   0  0  0  0  0  0  0  0  0  0  0  0
   34.5650   29.5870   50.6370 C   0  0  0  0  0  0  0  0  0  0  0  0
   33.4010   29.0140   50.1090 C   0  0  0  0  0  0  0  0  0  0  0  0
   33.8300   28.1450   49.1110 C   0  0  0  0  0  0  0  0  0  0  0  0
   35.1410   28.2110   49.0680 O   0  0  0  0  0  0  0  0  0  0  0  0
   33.3420   26.3460   47.4360 C   0  0  0  0  0  0  0  0  0  0  0  0
   32.9260   27.3330   48.2940 C   0  0  0  0  0  0  0  0  0  0  0  0
   31.5800   27.6350   48.4410 C   0  0  0  0  0  0  0  0  0  0  0  0
   30.6490   26.9200   47.7020 C   0  0  0  0  0  0  0  0  0  0  0  0
   29.3210   26.9860   47.6340 N   0  0  0  0  0  0  0  0  0  0  0  0
   28.9250   26.0670   46.7590 N   0  0  0  0  0  0  0  0  0  0  0  0
   29.9910   25.4120   46.2670 C   0  0  0  0  0  0  0  0  0  0  0  0
   31.1260   25.9300   46.8470 C   0  0  0  0  0  0  0  0  0  0  0  0
   32.4790   25.6200   46.6950 C   0  0  0  0  0  0  0  0  0  0  0  0
   38.4397   31.3944   51.2218 H   0  0  0  0  0  0  0  0  0  0  0  0
   39.4670   33.2651   49.8993 H   0  0  0  0  0  0  0  0  0  0  0  0
   35.5152   29.8439   43.9621 H   0  0  0  0  0  0  0  0  0  0  0  0
   38.4212   32.4741   41.5926 H   0  0  0  0  0  0  0  0  0  0  0  0
   40.3060   33.9973   42.1973 H   0  0  0  0  0  0  0  0  0  0  0  0
   40.8752   34.2680   44.6189 H   0  0  0  0  0  0  0  0  0  0  0  0
   39.6036   33.0639   46.3149 H   0  0  0  0  0  0  0  0  0  0  0  0
   34.6221   30.3275   51.4484 H   0  0  0  0  0  0  0  0  0  0  0  0
   32.3640   29.2102   50.4189 H   0  0  0  0  0  0  0  0  0  0  0  0
   34.4189   26.1390   47.3491 H   0  0  0  0  0  0  0  0  0  0  0  0
   31.2566   28.4277   49.1316 H   0  0  0  0  0  0  0  0  0  0  0  0
   28.7135   27.6294   48.1612 H   0  0  0  0  0  0  0  0  0  0  0  0
   29.9609   24.5995   45.5261 H   0  0  0  0  0  0  0  0  0  0  0  0
   32.8215   24.8297   46.0108 H   0  0  0  0  0  0  0  0  0  0  0  0
  1  2  2  0
  3  4  2  0
  3  1  1  0
  5  4  1  0
  6  5  2  0
  7  6  1  0
  7  8  2  0
  8  3  1  0
  9  7  1  0
 10  9  2  0
 11 10  1  0
 12 13  1  0
 12 11  2  0
 13 18  2  0
 14 15  2  0
 14 13  1  0
 15 16  1  0
 16 17  2  0
 18 17  1  0
 18  9  1  0
 19  1  1  0
 19 20  2  0
 21 20  1  0
 22 21  2  0
 23 22  1  0
 23 19  1  0
 24 25  2  0
 25 26  1  0
 25 22  1  0
 27 26  2  0
 28 27  1  0
 29 28  1  0
 30 29  2  0
 30 31  1  0
 31 27  1  0
 32 31  2  0
 32 24  1  0
  4 33  1  0
  5 34  1  0
 11 35  1  0
 14 36  1  0
 15 37  1  0
 16 38  1  0
 17 39  1  0
 20 40  1  0
 21 41  1  0
 24 42  1  0
 26 43  1  0
 28 44  1  0
 30 45  1  0
 32 46  1  0
M  END
>  <Score>  (1) 
-7.27773

>  <Score_dual>  (1) 
-7.63

>  <Choices>  (1) 
[None, 6, ['5-8', 15], 11, ['43-11', 105], 18, ['54-8', 255], 31, ['47-21', 0]]

$$$$
