
     RDKit          3D

 40 44  0  0  0  0  0  0  0  0999 V2000
   37.2540   30.9230   49.7230 C   0  0  0  0  0  0  0  0  0  0  0  0
   37.4770   30.5540   51.0290 C   0  0  0  0  0  0  0  0  0  0  0  0
   36.6430   29.6270   51.5880 C   0  0  0  0  0  0  0  0  0  0  0  0
   35.6220   29.0910   50.8590 N   0  0  0  0  0  0  0  0  0  0  0  0
   35.4440   29.4810   49.5950 C   0  0  0  0  0  0  0  0  0  0  0  0
   36.2480   30.3930   49.0100 N   0  0  0  0  0  0  0  0  0  0  0  0
   34.3520   28.9100   48.8150 C   0  0  0  0  0  0  0  0  0  0  0  0
   34.4360   28.7900   47.4510 C   0  0  0  0  0  0  0  0  0  0  0  0
   33.4930   28.2780   46.5990 C   0  0  0  0  0  0  0  0  0  0  0  0
   32.3330   27.8400   47.2300 C   0  0  0  0  0  0  0  0  0  0  0  0
   31.3550   27.3210   46.4500 N   0  0  0  0  0  0  0  0  0  0  0  0
   30.1900   26.8670   46.9590 C   0  0  0  0  0  0  0  0  0  0  0  0
   29.9920   26.9370   48.3260 C   0  0  0  0  0  0  0  0  0  0  0  0
   30.9860   27.4660   49.1300 C   0  0  0  0  0  0  0  0  0  0  0  0
   32.1830   27.9320   48.5990 C   0  0  0  0  0  0  0  0  0  0  0  0
   33.1740   28.4590   49.3980 C   0  0  0  0  0  0  0  0  0  0  0  0
   39.3050   33.9130   49.0690 C   0  0  0  0  0  0  0  0  0  0  0  0
   39.7140   33.7290   47.7550 C   0  0  0  0  0  0  0  0  0  0  0  0
   39.2720   32.5590   47.1020 C   0  0  0  0  0  0  0  0  0  0  0  0
   38.4830   31.6860   47.7730 N   0  0  0  0  0  0  0  0  0  0  0  0
   38.1070   31.9090   49.0600 C   0  0  0  0  0  0  0  0  0  0  0  0
   38.5270   33.0290   49.6950 N   0  0  0  0  0  0  0  0  0  0  0  0
   39.6880   32.3410   45.7220 C   0  0  0  0  0  0  0  0  0  0  0  0
   40.4560   31.2920   45.2630 C   0  0  0  0  0  0  0  0  0  0  0  0
   40.5460   31.5740   43.8950 C   0  0  0  0  0  0  0  0  0  0  0  0
   39.8750   32.7160   43.5740 N   0  0  0  0  0  0  0  0  0  0  0  0
   39.3550   33.1680   44.7170 N   0  0  0  0  0  0  0  0  0  0  0  0
   38.3035   30.9927   51.6073 H   0  0  0  0  0  0  0  0  0  0  0  0
   36.7956   29.3115   52.6307 H   0  0  0  0  0  0  0  0  0  0  0  0
   35.3681   29.1459   46.9878 H   0  0  0  0  0  0  0  0  0  0  0  0
   33.6403   28.2184   45.5105 H   0  0  0  0  0  0  0  0  0  0  0  0
   29.4142   26.4500   46.3001 H   0  0  0  0  0  0  0  0  0  0  0  0
   29.0528   26.5754   48.7700 H   0  0  0  0  0  0  0  0  0  0  0  0
   30.8249   27.5191   50.2168 H   0  0  0  0  0  0  0  0  0  0  0  0
   33.0340   28.5222   50.4872 H   0  0  0  0  0  0  0  0  0  0  0  0
   39.6320   34.8137   49.6092 H   0  0  0  0  0  0  0  0  0  0  0  0
   40.3548   34.4635   47.2452 H   0  0  0  0  0  0  0  0  0  0  0  0
   40.8866   30.4510   45.8262 H   0  0  0  0  0  0  0  0  0  0  0  0
   41.0903   30.9516   43.1695 H   0  0  0  0  0  0  0  0  0  0  0  0
   39.7872   33.1427   42.6407 H   0  0  0  0  0  0  0  0  0  0  0  0
  1  2  2  0
  2  3  1  0
  4  3  2  0
  5  4  1  0
  6  5  2  0
  6  1  1  0
  7 16  1  0
  7  5  1  0
  8  7  2  0
  9 10  2  0
  9  8  1  0
 10 15  1  0
 11 12  2  0
 11 10  1  0
 12 13  1  0
 13 14  2  0
 15 14  1  0
 15 16  2  0
 17 22  2  0
 18 17  1  0
 19 18  2  0
 19 20  1  0
 20 21  2  0
 21 22  1  0
 21  1  1  0
 23 19  1  0
 24 23  1  0
 25 24  2  0
 26 25  1  0
 26 27  1  0
 27 23  2  0
  2 28  1  0
  3 29  1  0
  8 30  1  0
  9 31  1  0
 12 32  1  0
 13 33  1  0
 14 34  1  0
 16 35  1  0
 17 36  1  0
 18 37  1  0
 24 38  1  0
 25 39  1  0
 26 40  1  0
M  END
>  <Score>  (1) 
-7.39533

>  <Score_dual>  (1) 
-7.22

>  <Choices>  (1) 
[None, 9, ['19-20', 225], 17, ['36-26', 90], 32, ['22-7', 285]]

$$$$
