
     RDKit          3D

 42 46  0  0  0  0  0  0  0  0999 V2000
   35.6780   29.1150   49.8780 C   0  0  0  0  0  0  0  0  0  0  0  0
   34.6350   29.5970   50.5880 C   0  0  0  0  0  0  0  0  0  0  0  0
   33.4790   29.0070   50.0670 C   0  0  0  0  0  0  0  0  0  0  0  0
   33.9120   28.1710   49.0310 C   0  0  0  0  0  0  0  0  0  0  0  0
   35.2090   28.2860   48.9790 O   0  0  0  0  0  0  0  0  0  0  0  0
   33.4230   26.3990   47.3580 C   0  0  0  0  0  0  0  0  0  0  0  0
   32.9930   27.3700   48.2310 C   0  0  0  0  0  0  0  0  0  0  0  0
   31.6590   27.6380   48.4040 C   0  0  0  0  0  0  0  0  0  0  0  0
   30.7290   26.9080   47.6740 C   0  0  0  0  0  0  0  0  0  0  0  0
   29.3950   26.9460   47.6340 N   0  0  0  0  0  0  0  0  0  0  0  0
   28.9930   26.0240   46.7580 N   0  0  0  0  0  0  0  0  0  0  0  0
   30.0780   25.3990   46.2420 C   0  0  0  0  0  0  0  0  0  0  0  0
   31.2120   25.9390   46.8050 C   0  0  0  0  0  0  0  0  0  0  0  0
   32.5490   25.6590   46.6230 C   0  0  0  0  0  0  0  0  0  0  0  0
   37.0500   29.5120   50.1420 C   0  0  0  0  0  0  0  0  0  0  0  0
   37.7330   28.8420   50.9630 O   0  0  0  0  0  0  0  0  0  0  0  0
   37.5600   30.6640   49.4440 C   0  0  0  0  0  0  0  0  0  0  0  0
   37.4510   31.8930   50.0720 C   0  0  0  0  0  0  0  0  0  0  0  0
   37.9360   33.0220   49.4170 C   0  0  0  0  0  0  0  0  0  0  0  0
   38.4920   32.8520   48.1940 N   0  0  0  0  0  0  0  0  0  0  0  0
   38.5900   31.6530   47.6000 C   0  0  0  0  0  0  0  0  0  0  0  0
   38.1240   30.5730   48.2270 N   0  0  0  0  0  0  0  0  0  0  0  0
   40.2400   33.5990   46.6250 F   0  0  0  0  0  0  0  0  0  0  0  0
   40.0300   32.5300   45.8110 C   0  0  0  0  0  0  0  0  0  0  0  0
   39.1990   31.5320   46.2800 C   0  0  0  0  0  0  0  0  0  0  0  0
   38.9600   30.4310   45.4860 C   0  0  0  0  0  0  0  0  0  0  0  0
   39.5450   30.3330   44.2390 C   0  0  0  0  0  0  0  0  0  0  0  0
   40.3770   31.3710   43.8120 C   0  0  0  0  0  0  0  0  0  0  0  0
   40.6540   32.5060   44.5740 C   0  0  0  0  0  0  0  0  0  0  0  0
   34.6853   30.3168   51.4183 H   0  0  0  0  0  0  0  0  0  0  0  0
   32.4435   29.1668   50.4020 H   0  0  0  0  0  0  0  0  0  0  0  0
   34.5022   26.2154   47.2508 H   0  0  0  0  0  0  0  0  0  0  0  0
   31.3312   28.4170   49.1081 H   0  0  0  0  0  0  0  0  0  0  0  0
   28.7871   27.5730   48.1801 H   0  0  0  0  0  0  0  0  0  0  0  0
   30.0565   24.5918   45.4951 H   0  0  0  0  0  0  0  0  0  0  0  0
   32.8902   24.8817   45.9235 H   0  0  0  0  0  0  0  0  0  0  0  0
   36.9908   31.9759   51.0677 H   0  0  0  0  0  0  0  0  0  0  0  0
   37.8697   34.0187   49.8776 H   0  0  0  0  0  0  0  0  0  0  0  0
   38.3010   29.6276   45.8469 H   0  0  0  0  0  0  0  0  0  0  0  0
   39.3604   29.4588   43.5973 H   0  0  0  0  0  0  0  0  0  0  0  0
   40.8402   31.2884   42.8177 H   0  0  0  0  0  0  0  0  0  0  0  0
   41.3124   33.3141   44.2225 H   0  0  0  0  0  0  0  0  0  0  0  0
  1 15  1  0
  1  2  2  0
  3  2  1  0
  4  3  2  0
  5  4  1  0
  5  1  1  0
  6  7  2  0
  7  8  1  0
  7  4  1  0
  9  8  2  0
 10  9  1  0
 11 10  1  0
 12 11  2  0
 12 13  1  0
 13  9  1  0
 14 13  2  0
 14  6  1  0
 15 16  2  0
 17 18  2  0
 17 15  1  0
 19 18  1  0
 20 19  2  0
 21 20  1  0
 21 22  2  0
 22 17  1  0
 24 25  2  0
 24 23  1  0
 25 21  1  0
 26 25  1  0
 27 26  2  0
 28 27  1  0
 28 29  2  0
 29 24  1  0
  2 30  1  0
  3 31  1  0
  6 32  1  0
  8 33  1  0
 10 34  1  0
 12 35  1  0
 14 36  1  0
 18 37  1  0
 19 38  1  0
 26 39  1  0
 27 40  1  0
 28 41  1  0
 29 42  1  0
M  END
>  <Score>  (1) 
-7.76607

>  <Score_dual>  (1) 
-7.43

>  <Choices>  (1) 
[None, 6, ['5-8', 15], 11, ['43-11', 105], 18, ['54-8', 255], 31, ['9-15', 195]]

$$$$
