
     RDKit          3D

 41 44  0  0  0  0  0  0  0  0999 V2000
   37.4250   29.9290   51.0920 C   0  0  0  0  0  0  0  0  0  0  0  0
   38.2210   30.8950   50.4680 C   0  0  0  0  0  0  0  0  0  0  0  0
   37.8980   31.2540   49.1770 C   0  0  0  0  0  0  0  0  0  0  0  0
   36.8380   30.6530   48.6010 N   0  0  0  0  0  0  0  0  0  0  0  0
   36.0830   29.7370   49.1940 C   0  0  0  0  0  0  0  0  0  0  0  0
   36.3950   29.3820   50.4560 N   0  0  0  0  0  0  0  0  0  0  0  0
   38.6870   30.4630   46.3820 Cl  0  0  0  0  0  0  0  0  0  0  0  0
   39.0710   31.9870   47.1530 C   0  0  0  0  0  0  0  0  0  0  0  0
   38.6590   32.2440   48.4410 C   0  0  0  0  0  0  0  0  0  0  0  0
   39.0140   33.4710   48.9520 C   0  0  0  0  0  0  0  0  0  0  0  0
   39.7400   34.4280   48.2610 C   0  0  0  0  0  0  0  0  0  0  0  0
   40.1330   34.1190   46.9630 C   0  0  0  0  0  0  0  0  0  0  0  0
   39.8000   32.8890   46.3960 C   0  0  0  0  0  0  0  0  0  0  0  0
   40.3240   32.5720   44.7730 Cl  0  0  0  0  0  0  0  0  0  0  0  0
   34.9430   29.1270   48.4950 C   0  0  0  0  0  0  0  0  0  0  0  0
   34.4250   27.9390   48.9740 C   0  0  0  0  0  0  0  0  0  0  0  0
   33.3680   27.4570   48.2440 C   0  0  0  0  0  0  0  0  0  0  0  0
   32.8650   28.0950   47.1350 C   0  0  0  0  0  0  0  0  0  0  0  0
   33.4410   29.2690   46.7330 C   0  0  0  0  0  0  0  0  0  0  0  0
   34.4780   29.7720   47.4220 N   0  0  0  0  0  0  0  0  0  0  0  0
   30.4400   29.5620   46.4970 Cl  0  0  0  0  0  0  0  0  0  0  0  0
   31.6040   30.1780   45.3690 C   0  0  0  0  0  0  0  0  0  0  0  0
   32.9500   29.9880   45.5720 C   0  0  0  0  0  0  0  0  0  0  0  0
   33.7630   30.5360   44.5890 C   0  0  0  0  0  0  0  0  0  0  0  0
   33.3050   31.2160   43.4940 C   0  0  0  0  0  0  0  0  0  0  0  0
   31.9400   31.3870   43.3230 C   0  0  0  0  0  0  0  0  0  0  0  0
   31.3100   32.2440   41.9470 Cl  0  0  0  0  0  0  0  0  0  0  0  0
   31.1170   30.8620   44.2680 C   0  0  0  0  0  0  0  0  0  0  0  0
   37.6720   29.4780   52.4410 N   0  0  0  0  0  0  0  0  0  0  0  0
   39.0749   31.3522   50.9893 H   0  0  0  0  0  0  0  0  0  0  0  0
   38.7002   33.7086   49.9791 H   0  0  0  0  0  0  0  0  0  0  0  0
   39.9954   35.3940   48.7209 H   0  0  0  0  0  0  0  0  0  0  0  0
   40.7110   34.8505   46.3791 H   0  0  0  0  0  0  0  0  0  0  0  0
   34.8243   27.4256   49.8611 H   0  0  0  0  0  0  0  0  0  0  0  0
   32.9000   26.5136   48.5618 H   0  0  0  0  0  0  0  0  0  0  0  0
   32.0152   27.6695   46.5812 H   0  0  0  0  0  0  0  0  0  0  0  0
   34.8508   30.4150   44.6983 H   0  0  0  0  0  0  0  0  0  0  0  0
   34.0126   31.6230   42.7567 H   0  0  0  0  0  0  0  0  0  0  0  0
   30.0297   30.9842   44.1549 H   0  0  0  0  0  0  0  0  0  0  0  0
   37.0624   28.7643   52.8652 H   0  0  0  0  0  0  0  0  0  0  0  0
   38.4579   29.8699   52.9793 H   0  0  0  0  0  0  0  0  0  0  0  0
  1 29  1  0
  2  1  2  0
  3  2  1  0
  4  3  2  0
  4  5  1  0
  5  6  2  0
  6  1  1  0
  7  8  1  0
  8  9  2  0
  9 10  1  0
  9  3  1  0
 11 10  2  0
 12 11  1  0
 13 12  2  0
 13  8  1  0
 14 13  1  0
 15 16  2  0
 15  5  1  0
 17 16  1  0
 18 17  2  0
 19 18  1  0
 19 20  2  0
 20 15  1  0
 22 23  2  0
 22 21  1  0
 23 19  1  0
 24 23  1  0
 25 24  2  0
 26 25  1  0
 26 28  2  0
 27 26  1  0
 28 22  1  0
  2 30  1  0
 10 31  1  0
 11 32  1  0
 12 33  1  0
 16 34  1  0
 17 35  1  0
 18 36  1  0
 24 37  1  0
 25 38  1  0
 28 39  1  0
 29 40  1  0
 29 41  1  0
M  END
>  <Score>  (1) 
-7.61866

>  <Score_dual>  (1) 
-7.55

>  <Choices>  (1) 
[None, 6, ['0-3', 0], 9, ['6-14', 330], 18, ['29-19', 180], 28, ['51-24', 345]]

$$$$
