
     RDKit          3D

 48 53  0  0  0  0  0  0  0  0999 V2000
   35.6620   29.2090   49.9850 C   0  0  0  0  0  0  0  0  0  0  0  0
   34.5340   29.6690   50.5970 C   0  0  0  0  0  0  0  0  0  0  0  0
   33.4510   29.0060   50.0080 C   0  0  0  0  0  0  0  0  0  0  0  0
   34.0220   28.1560   49.0420 C   0  0  0  0  0  0  0  0  0  0  0  0
   35.3050   28.3330   49.0920 O   0  0  0  0  0  0  0  0  0  0  0  0
   33.7640   26.3350   47.3650 C   0  0  0  0  0  0  0  0  0  0  0  0
   33.2180   27.2790   48.1970 C   0  0  0  0  0  0  0  0  0  0  0  0
   31.8440   27.4550   48.2810 C   0  0  0  0  0  0  0  0  0  0  0  0
   31.0330   26.6480   47.4980 C   0  0  0  0  0  0  0  0  0  0  0  0
   29.6940   26.5970   47.3780 N   0  0  0  0  0  0  0  0  0  0  0  0
   29.4230   25.6380   46.4890 N   0  0  0  0  0  0  0  0  0  0  0  0
   30.5760   25.0890   46.0510 C   0  0  0  0  0  0  0  0  0  0  0  0
   31.6430   25.7080   46.6740 C   0  0  0  0  0  0  0  0  0  0  0  0
   33.0030   25.5270   46.5850 C   0  0  0  0  0  0  0  0  0  0  0  0
   36.9720   29.6940   50.3590 C   0  0  0  0  0  0  0  0  0  0  0  0
   37.5110   29.2470   51.4100 O   0  0  0  0  0  0  0  0  0  0  0  0
   37.5970   30.6690   49.5050 C   0  0  0  0  0  0  0  0  0  0  0  0
   37.8230   31.9290   50.0050 C   0  0  0  0  0  0  0  0  0  0  0  0
   38.4390   32.8800   49.2140 C   0  0  0  0  0  0  0  0  0  0  0  0
   38.7930   32.4860   47.9460 N   0  0  0  0  0  0  0  0  0  0  0  0
   38.5770   31.2740   47.4600 C   0  0  0  0  0  0  0  0  0  0  0  0
   37.9780   30.4010   48.2710 N   0  0  0  0  0  0  0  0  0  0  0  0
   39.0500   31.1280   46.0960 C   0  0  0  0  0  0  0  0  0  0  0  0
   40.3760   31.3260   45.7810 C   0  0  0  0  0  0  0  0  0  0  0  0
   40.8860   31.2030   44.5120 C   0  0  0  0  0  0  0  0  0  0  0  0
   40.0790   30.8650   43.4530 C   0  0  0  0  0  0  0  0  0  0  0  0
   38.7460   30.6550   43.7100 C   0  0  0  0  0  0  0  0  0  0  0  0
   37.9200   30.3140   42.6610 C   0  0  0  0  0  0  0  0  0  0  0  0
   36.5730   30.0900   42.8520 C   0  0  0  0  0  0  0  0  0  0  0  0
   36.0820   30.2220   44.1500 C   0  0  0  0  0  0  0  0  0  0  0  0
   36.9500   30.5640   45.1620 C   0  0  0  0  0  0  0  0  0  0  0  0
   38.2940   30.7920   44.9990 C   0  0  0  0  0  0  0  0  0  0  0  0
   34.4844   30.4185   51.4006 H   0  0  0  0  0  0  0  0  0  0  0  0
   32.3840   29.1238   50.2481 H   0  0  0  0  0  0  0  0  0  0  0  0
   34.8583   26.2293   47.3289 H   0  0  0  0  0  0  0  0  0  0  0  0
   31.4107   28.2132   48.9498 H   0  0  0  0  0  0  0  0  0  0  0  0
   29.0098   27.1843   47.8758 H   0  0  0  0  0  0  0  0  0  0  0  0
   30.6539   24.2763   45.3138 H   0  0  0  0  0  0  0  0  0  0  0  0
   33.4478   24.7716   45.9205 H   0  0  0  0  0  0  0  0  0  0  0  0
   37.5148   32.1795   51.0308 H   0  0  0  0  0  0  0  0  0  0  0  0
   38.6356   33.8985   49.5800 H   0  0  0  0  0  0  0  0  0  0  0  0
   41.0664   31.5984   46.5928 H   0  0  0  0  0  0  0  0  0  0  0  0
   41.9584   31.3780   44.3406 H   0  0  0  0  0  0  0  0  0  0  0  0
   40.4856   30.7661   42.4357 H   0  0  0  0  0  0  0  0  0  0  0  0
   38.3440   30.2185   41.6505 H   0  0  0  0  0  0  0  0  0  0  0  0
   35.9131   29.8184   42.0148 H   0  0  0  0  0  0  0  0  0  0  0  0
   35.0157   30.0552   44.3625 H   0  0  0  0  0  0  0  0  0  0  0  0
   36.5362   30.6619   46.1765 H   0  0  0  0  0  0  0  0  0  0  0  0
  1 15  1  0
  1  2  2  0
  3  2  1  0
  4  5  1  0
  4  3  2  0
  5  1  1  0
  6  7  2  0
  7  8  1  0
  7  4  1  0
  9  8  2  0
 10  9  1  0
 11 10  1  0
 12 11  2  0
 12 13  1  0
 13  9  1  0
 14 13  2  0
 14  6  1  0
 15 16  2  0
 17 18  2  0
 17 15  1  0
 19 18  1  0
 20 19  2  0
 21 20  1  0
 21 22  2  0
 22 17  1  0
 23 21  1  0
 24 23  2  0
 25 24  1  0
 26 27  1  0
 26 25  2  0
 27 32  2  0
 28 29  2  0
 28 27  1  0
 29 30  1  0
 30 31  2  0
 32 31  1  0
 32 23  1  0
  2 33  1  0
  3 34  1  0
  6 35  1  0
  8 36  1  0
 10 37  1  0
 12 38  1  0
 14 39  1  0
 18 40  1  0
 19 41  1  0
 24 42  1  0
 25 43  1  0
 26 44  1  0
 28 45  1  0
 29 46  1  0
 30 47  1  0
 31 48  1  0
M  END
>  <Score>  (1) 
-7.7411

>  <Score_dual>  (1) 
-7.91

>  <Choices>  (1) 
[None, 6, ['5-8', 15], 11, ['43-11', 105], 18, ['54-8', 255], 31, ['26-22', 75]]

$$$$
