
     RDKit          3D

 50 54  0  0  1  0  0  0  0  0999 V2000
   39.2580   31.9050   44.9530 C   0  0  0  0  0  0  0  0  0  0  0  0
   38.1640   32.5450   45.0750 O   0  0  0  0  0  0  0  0  0  0  0  0
   39.9550   31.6530   46.1660 N   0  0  0  0  0  0  0  0  0  0  0  0
   39.1230   32.1710   42.5720 C   0  0  0  0  0  0  0  0  0  0  0  0
   39.6850   31.5010   43.6340 C   0  0  0  0  0  0  0  0  0  0  0  0
   40.6150   30.4890   43.4760 C   0  0  0  0  0  0  0  0  0  0  0  0
   40.9980   30.1320   42.1960 C   0  0  0  0  0  0  0  0  0  0  0  0
   41.8580   29.2110   41.7310 N   0  0  0  0  0  0  0  0  0  0  0  0
   41.8480   29.2880   40.3990 C   0  0  0  0  0  0  0  0  0  0  0  0
   40.9970   30.2410   40.0300 N   0  0  0  0  0  0  0  0  0  0  0  0
   40.4350   30.8020   41.1260 C   0  0  0  0  0  0  0  0  0  0  0  0
   39.5030   31.8180   41.2670 C   0  0  0  0  0  0  0  0  0  0  0  0
   37.7850   31.8430   39.4470 C   0  0  1  0  0  0  0  0  0  0  0  0
   38.9230   32.5100   40.1320 C   0  0  1  0  0  0  0  0  0  0  0  0
   38.3950   33.7560   40.4540 O   0  0  0  0  0  0  0  0  0  0  0  0
   37.6980   34.1840   39.3490 C   0  0  0  0  0  0  0  0  0  0  0  0
   37.2740   32.9700   38.5690 C   0  0  1  0  0  0  0  0  0  0  0  0
   38.1570   30.7300   38.7010 O   0  0  0  0  0  0  0  0  0  0  0  0
   37.9770   32.8600   37.3600 O   0  0  0  0  0  0  0  0  0  0  0  0
   38.1050   30.1490   47.5000 F   0  0  0  0  0  0  0  0  0  0  0  0
   38.3680   31.3920   47.9920 C   0  0  0  0  0  0  0  0  0  0  0  0
   37.7070   31.8280   49.1140 C   0  0  0  0  0  0  0  0  0  0  0  0
   38.0210   33.0890   49.5540 C   0  0  0  0  0  0  0  0  0  0  0  0
   38.9390   33.9010   48.9340 C   0  0  0  0  0  0  0  0  0  0  0  0
   39.5890   33.4310   47.8040 C   0  0  0  0  0  0  0  0  0  0  0  0
   39.2980   32.1670   47.3340 C   0  0  0  0  0  0  0  0  0  0  0  0
   36.0720   29.3530   51.4510 C   0  0  0  0  0  0  0  0  0  0  0  0
   37.0460   30.2090   50.8780 C   0  0  0  0  0  0  0  0  0  0  0  0
   36.7430   30.9390   49.7380 C   0  0  0  0  0  0  0  0  0  0  0  0
   35.4830   30.7880   49.2130 N   0  0  0  0  0  0  0  0  0  0  0  0
   34.5780   29.9700   49.7770 C   0  0  0  0  0  0  0  0  0  0  0  0
   34.8680   29.2700   50.8690 N   0  0  0  0  0  0  0  0  0  0  0  0
   40.8513   31.1469   46.2034 H   0  0  0  0  0  0  0  0  0  0  0  0
   38.3874   32.9709   42.7424 H   0  0  0  0  0  0  0  0  0  0  0  0
   41.0416   29.9781   44.3518 H   0  0  0  0  0  0  0  0  0  0  0  0
   42.4224   28.5633   42.2992 H   0  0  0  0  0  0  0  0  0  0  0  0
   42.4459   28.6651   39.7175 H   0  0  0  0  0  0  0  0  0  0  0  0
   37.0431   31.4263   40.1441 H   0  0  0  0  0  0  0  0  0  0  0  0
   39.8058   32.5457   39.4768 H   0  0  0  0  0  0  0  0  0  0  0  0
   36.8114   34.7537   39.6643 H   0  0  0  0  0  0  0  0  0  0  0  0
   38.3291   34.8365   38.7278 H   0  0  0  0  0  0  0  0  0  0  0  0
   36.1976   32.9835   38.3427 H   0  0  0  0  0  0  0  0  0  0  0  0
   38.4040   29.9910   39.3117 H   0  0  0  0  0  0  0  0  0  0  0  0
   38.9371   32.7098   37.5490 H   0  0  0  0  0  0  0  0  0  0  0  0
   37.5105   33.4699   50.4508 H   0  0  0  0  0  0  0  0  0  0  0  0
   39.1542   34.9056   49.3271 H   0  0  0  0  0  0  0  0  0  0  0  0
   40.3293   34.0593   47.2871 H   0  0  0  0  0  0  0  0  0  0  0  0
   36.3000   28.7690   52.3548 H   0  0  0  0  0  0  0  0  0  0  0  0
   38.0419   30.2943   51.3373 H   0  0  0  0  0  0  0  0  0  0  0  0
   33.5787   29.8781   49.3265 H   0  0  0  0  0  0  0  0  0  0  0  0
  1  2  2  0
  1  3  1  0
  3 26  1  0
  4  5  2  0
  5  1  1  0
  6  5  1  0
  7  6  2  0
  8  7  1  0
  9  8  1  0
 10  9  2  0
 10 11  1  0
 11 12  2  0
 11  7  1  0
 12  4  1  0
 13 18  1  0
 13 14  1  0
 14 15  1  0
 14 12  1  0
 16 15  1  0
 17 19  1  0
 17 16  1  0
 17 13  1  0
 20 21  1  0
 21 22  2  0
 22 23  1  0
 22 29  1  0
 24 23  2  0
 25 24  1  0
 26 25  2  0
 26 21  1  0
 28 27  2  0
 29 28  1  0
 30 29  2  0
 30 31  1  0
 31 32  2  0
 32 27  1  0
  3 33  1  0
  4 34  1  0
  6 35  1  0
  8 36  1  0
  9 37  1  0
 13 38  1  1
 14 39  1  6
 16 40  1  0
 16 41  1  0
 17 42  1  6
 18 43  1  0
 19 44  1  0
 23 45  1  0
 24 46  1  0
 25 47  1  0
 27 48  1  0
 28 49  1  0
 31 50  1  0
M  END
>  <Score>  (1) 
-7.56303

>  <Score_dual>  (1) 
-7.26

>  <Choices>  (1) 
[None, 8, ['9-19', 285], 19, ['12-4', 210], 22, ['34-10', 105], 36, ['14-14', 165]]

$$$$
