
     RDKit          3D

 41 45  0  0  0  0  0  0  0  0999 V2000
   38.1610   32.6750   49.6010 C   0  0  0  0  0  0  0  0  0  0  0  0
   38.8800   32.8990   48.4120 C   0  0  0  0  0  0  0  0  0  0  0  0
   38.4830   32.1470   47.2930 C   0  0  0  0  0  0  0  0  0  0  0  0
   37.4580   31.2630   47.3970 N   0  0  0  0  0  0  0  0  0  0  0  0
   36.8040   31.0950   48.5840 C   0  0  0  0  0  0  0  0  0  0  0  0
   37.1490   31.7910   49.6730 N   0  0  0  0  0  0  0  0  0  0  0  0
   35.7400   29.1130   49.5670 C   0  0  0  0  0  0  0  0  0  0  0  0
   35.7060   30.1210   48.6190 C   0  0  0  0  0  0  0  0  0  0  0  0
   34.6640   30.2070   47.7300 C   0  0  0  0  0  0  0  0  0  0  0  0
   33.6400   29.2990   47.7620 C   0  0  0  0  0  0  0  0  0  0  0  0
   32.5110   29.1520   47.0200 N   0  0  0  0  0  0  0  0  0  0  0  0
   31.9060   28.0610   47.5450 C   0  0  0  0  0  0  0  0  0  0  0  0
   32.6190   27.5520   48.5640 N   0  0  0  0  0  0  0  0  0  0  0  0
   33.7150   28.3040   48.7310 C   0  0  0  0  0  0  0  0  0  0  0  0
   34.7290   28.1770   49.6360 C   0  0  0  0  0  0  0  0  0  0  0  0
   39.1160   32.2490   45.9790 C   0  0  0  0  0  0  0  0  0  0  0  0
   39.5890   33.4140   45.4420 C   0  0  0  0  0  0  0  0  0  0  0  0
   40.1870   33.5120   44.2010 C   0  0  0  0  0  0  0  0  0  0  0  0
   40.3080   32.3880   43.4810 N   0  0  0  0  0  0  0  0  0  0  0  0
   39.8540   31.2400   43.9830 C   0  0  0  0  0  0  0  0  0  0  0  0
   39.2870   31.1770   45.1740 N   0  0  0  0  0  0  0  0  0  0  0  0
   37.8220   29.2450   43.9930 F   0  0  0  0  0  0  0  0  0  0  0  0
   38.9530   29.0680   43.2640 C   0  0  0  0  0  0  0  0  0  0  0  0
   39.9740   29.9940   43.2160 C   0  0  0  0  0  0  0  0  0  0  0  0
   41.1000   29.7150   42.4340 C   0  0  0  0  0  0  0  0  0  0  0  0
   41.1230   28.5160   41.7470 C   0  0  0  0  0  0  0  0  0  0  0  0
   40.0960   27.5860   41.7970 C   0  0  0  0  0  0  0  0  0  0  0  0
   38.9930   27.8750   42.5720 C   0  0  0  0  0  0  0  0  0  0  0  0
   38.4358   33.2421   50.5026 H   0  0  0  0  0  0  0  0  0  0  0  0
   39.7069   33.6226   48.3613 H   0  0  0  0  0  0  0  0  0  0  0  0
   36.5820   29.0577   50.2727 H   0  0  0  0  0  0  0  0  0  0  0  0
   34.6515   31.0147   46.9833 H   0  0  0  0  0  0  0  0  0  0  0  0
   32.1889   29.7377   46.2363 H   0  0  0  0  0  0  0  0  0  0  0  0
   30.9538   27.6448   47.1842 H   0  0  0  0  0  0  0  0  0  0  0  0
   34.7394   27.3692   50.3825 H   0  0  0  0  0  0  0  0  0  0  0  0
   39.4866   34.3333   46.0373 H   0  0  0  0  0  0  0  0  0  0  0  0
   40.5505   34.4768   43.8176 H   0  0  0  0  0  0  0  0  0  0  0  0
   41.9376   30.4250   42.3682 H   0  0  0  0  0  0  0  0  0  0  0  0
   42.0029   28.2874   41.1276 H   0  0  0  0  0  0  0  0  0  0  0  0
   40.1595   26.6433   41.2337 H   0  0  0  0  0  0  0  0  0  0  0  0
   38.1562   27.1641   42.6378 H   0  0  0  0  0  0  0  0  0  0  0  0
  1  6  2  0
  2  1  1  0
  3  4  1  0
  3  2  2  0
  4  5  2  0
  5  8  1  0
  5  6  1  0
  7 15  2  0
  8  7  1  0
  9 10  1  0
  9  8  2  0
 10 14  2  0
 11 12  1  0
 11 10  1  0
 12 13  2  0
 13 14  1  0
 14 15  1  0
 16  3  1  0
 17 16  2  0
 18 17  1  0
 19 20  1  0
 19 18  2  0
 20 21  2  0
 21 16  1  0
 23 22  1  0
 24 23  2  0
 24 20  1  0
 25 24  1  0
 26 27  1  0
 26 25  2  0
 27 28  2  0
 28 23  1  0
  1 29  1  0
  2 30  1  0
  7 31  1  0
  9 32  1  0
 11 33  1  0
 12 34  1  0
 15 35  1  0
 17 36  1  0
 18 37  1  0
 25 38  1  0
 26 39  1  0
 27 40  1  0
 28 41  1  0
M  END
>  <Score>  (1) 
-7.70793

>  <Score_dual>  (1) 
-7.12

>  <Choices>  (1) 
[None, 9, ['34-23', 255], 22, ['19-19', 240], 30, ['9-18', 315]]

$$$$
