
     RDKit          3D

 47 50  0  0  1  0  0  0  0  0999 V2000
   35.2940   30.2310   49.5520 C   0  0  2  0  0  0  0  0  0  0  0  0
   36.2210   31.2900   49.1820 C   0  0  0  0  0  0  0  0  0  0  0  0
   37.7120   30.8240   49.2080 C   0  0  2  0  0  0  0  0  0  0  0  0
   38.1410   30.3180   50.4920 C   0  0  0  0  0  0  0  0  0  0  0  0
   37.0660   29.5050   51.2210 C   0  0  0  0  0  0  0  0  0  0  0  0
   35.9950   29.0640   50.2660 C   0  0  0  0  0  0  0  0  0  0  0  0
   38.5430   31.0330   46.3890 Cl  0  0  0  0  0  0  0  0  0  0  0  0
   38.9330   32.2590   47.5720 C   0  0  0  0  0  0  0  0  0  0  0  0
   38.4530   32.0770   48.8450 C   0  0  0  0  0  0  0  0  0  0  0  0
   38.7740   33.1160   49.7090 C   0  0  0  0  0  0  0  0  0  0  0  0
   39.5060   34.2220   49.3170 C   0  0  0  0  0  0  0  0  0  0  0  0
   39.9560   34.3220   47.9980 C   0  0  0  0  0  0  0  0  0  0  0  0
   39.6580   33.3130   47.1120 C   0  0  0  0  0  0  0  0  0  0  0  0
   40.1210   33.4120   45.7690 N   0  0  0  0  0  0  0  0  0  0  0  0
   34.5160   29.6430   48.4640 C   0  0  0  0  0  0  0  0  0  0  0  0
   35.1160   29.7290   47.2170 C   0  0  0  0  0  0  0  0  0  0  0  0
   34.4660   29.1700   46.1210 C   0  0  0  0  0  0  0  0  0  0  0  0
   33.2500   28.5550   46.3230 N   0  0  0  0  0  0  0  0  0  0  0  0
   32.6760   28.4810   47.5490 C   0  0  0  0  0  0  0  0  0  0  0  0
   33.3460   29.0350   48.5720 N   0  0  0  0  0  0  0  0  0  0  0  0
   31.3870   27.8230   47.7360 C   0  0  0  0  0  0  0  0  0  0  0  0
   30.9100   27.6880   49.0250 C   0  0  0  0  0  0  0  0  0  0  0  0
   29.6780   27.0600   49.2100 C   0  0  0  0  0  0  0  0  0  0  0  0
   29.0450   26.6270   48.0390 C   0  0  0  0  0  0  0  0  0  0  0  0
   29.5230   26.7620   46.7510 C   0  0  0  0  0  0  0  0  0  0  0  0
   30.7320   27.3850   46.6440 N   0  0  0  0  0  0  0  0  0  0  0  0
   34.5994   30.7686   50.2142 H   0  0  0  0  0  0  0  0  0  0  0  0
   36.1011   32.1249   49.8881 H   0  0  0  0  0  0  0  0  0  0  0  0
   35.9856   31.5916   48.1507 H   0  0  0  0  0  0  0  0  0  0  0  0
   37.8887   29.9779   48.5277 H   0  0  0  0  0  0  0  0  0  0  0  0
   39.0186   29.6734   50.3362 H   0  0  0  0  0  0  0  0  0  0  0  0
   38.3691   31.1900   51.1226 H   0  0  0  0  0  0  0  0  0  0  0  0
   37.5309   28.6183   51.6765 H   0  0  0  0  0  0  0  0  0  0  0  0
   36.6095   30.1377   51.9964 H   0  0  0  0  0  0  0  0  0  0  0  0
   35.2397   28.4951   50.8280 H   0  0  0  0  0  0  0  0  0  0  0  0
   36.4827   28.4553   49.4904 H   0  0  0  0  0  0  0  0  0  0  0  0
   38.4305   33.0565   50.7523 H   0  0  0  0  0  0  0  0  0  0  0  0
   39.7329   35.0192   50.0402 H   0  0  0  0  0  0  0  0  0  0  0  0
   40.5404   35.1953   47.6727 H   0  0  0  0  0  0  0  0  0  0  0  0
   40.6672   34.2331   45.4718 H   0  0  0  0  0  0  0  0  0  0  0  0
   39.9097   32.6625   45.0948 H   0  0  0  0  0  0  0  0  0  0  0  0
   36.0879   30.2299   47.0963 H   0  0  0  0  0  0  0  0  0  0  0  0
   34.9126   29.2180   45.1169 H   0  0  0  0  0  0  0  0  0  0  0  0
   31.4860   28.0655   49.8828 H   0  0  0  0  0  0  0  0  0  0  0  0
   29.2350   26.9152   50.2064 H   0  0  0  0  0  0  0  0  0  0  0  0
   28.0707   26.1302   48.1567 H   0  0  0  0  0  0  0  0  0  0  0  0
   28.9693   26.3940   45.8746 H   0  0  0  0  0  0  0  0  0  0  0  0
  1  6  1  0
  2  3  1  0
  2  1  1  0
  3  4  1  0
  4  5  1  0
  6  5  1  0
  7  8  1  0
  8  9  2  0
  9  3  1  0
  9 10  1  0
 11 10  2  0
 12 11  1  0
 13  8  1  0
 13 12  2  0
 14 13  1  0
 15 20  1  0
 15  1  1  0
 16 15  2  0
 17 18  2  0
 17 16  1  0
 18 19  1  0
 19 21  1  0
 19 20  2  0
 21 22  2  0
 22 23  1  0
 24 23  2  0
 25 24  1  0
 26 25  2  0
 26 21  1  0
  1 27  1  1
  2 28  1  0
  2 29  1  0
  3 30  1  6
  4 31  1  0
  4 32  1  0
  5 33  1  0
  5 34  1  0
  6 35  1  0
  6 36  1  0
 10 37  1  0
 11 38  1  0
 12 39  1  0
 14 40  1  0
 14 41  1  0
 16 42  1  0
 17 43  1  0
 22 44  1  0
 23 45  1  0
 24 46  1  0
 25 47  1  0
M  END
>  <Score>  (1) 
-7.64292

>  <Score_dual>  (1) 
-7.22

>  <Choices>  (1) 
[None, 6, ['18-26', 345], 19, ['7-17', 90], 35, ['0-2', 0], 37, ['6-17', 30]]

$$$$
