
     RDKit          3D

 38 41  0  0  0  0  0  0  0  0999 V2000
   38.2850   32.5410   49.1630 C   0  0  0  0  0  0  0  0  0  0  0  0
   38.9330   32.6940   47.9320 C   0  0  0  0  0  0  0  0  0  0  0  0
   38.4490   31.9220   46.8570 C   0  0  0  0  0  0  0  0  0  0  0  0
   37.4050   31.0940   47.0700 N   0  0  0  0  0  0  0  0  0  0  0  0
   36.8100   30.9780   48.2720 C   0  0  0  0  0  0  0  0  0  0  0  0
   37.2440   31.6950   49.3140 N   0  0  0  0  0  0  0  0  0  0  0  0
   39.0050   31.9600   45.5190 C   0  0  0  0  0  0  0  0  0  0  0  0
   38.7350   32.9440   44.6000 C   0  0  0  0  0  0  0  0  0  0  0  0
   39.2540   32.9980   43.3250 C   0  0  0  0  0  0  0  0  0  0  0  0
   40.0850   32.0080   42.9630 N   0  0  0  0  0  0  0  0  0  0  0  0
   40.3700   31.0290   43.8350 C   0  0  0  0  0  0  0  0  0  0  0  0
   39.8530   31.0130   45.0480 N   0  0  0  0  0  0  0  0  0  0  0  0
   39.9640   29.5440   41.4510 N   0  0  0  0  0  0  0  0  0  0  0  0
   41.0760   29.4200   42.0950 C   0  0  0  0  0  0  0  0  0  0  0  0
   41.2600   29.9980   43.4030 N   0  0  0  0  0  0  0  0  0  0  0  0
   42.0770   28.6770   41.4090 N   0  0  0  0  0  0  0  0  0  0  0  0
   39.7430   29.1700   40.5240 H   0  0  0  0  0  0  0  0  0  0  0  0
   35.7200   29.0970   49.4170 C   0  0  0  0  0  0  0  0  0  0  0  0
   35.6830   30.0510   48.4040 C   0  0  0  0  0  0  0  0  0  0  0  0
   34.6120   30.1130   47.5540 C   0  0  0  0  0  0  0  0  0  0  0  0
   33.5600   29.2400   47.6870 C   0  0  0  0  0  0  0  0  0  0  0  0
   32.4090   29.0940   46.9930 N   0  0  0  0  0  0  0  0  0  0  0  0
   31.7840   28.0560   47.6090 C   0  0  0  0  0  0  0  0  0  0  0  0
   32.5150   27.5770   48.6390 N   0  0  0  0  0  0  0  0  0  0  0  0
   33.6430   28.3080   48.7110 C   0  0  0  0  0  0  0  0  0  0  0  0
   34.6790   28.2070   49.5760 C   0  0  0  0  0  0  0  0  0  0  0  0
   38.6324   33.1243   50.0285 H   0  0  0  0  0  0  0  0  0  0  0  0
   39.7804   33.3845   47.8093 H   0  0  0  0  0  0  0  0  0  0  0  0
   38.0522   33.7507   44.9052 H   0  0  0  0  0  0  0  0  0  0  0  0
   38.9989   33.8156   42.6347 H   0  0  0  0  0  0  0  0  0  0  0  0
   42.0210   29.6729   44.0163 H   0  0  0  0  0  0  0  0  0  0  0  0
   42.9973   28.5267   41.8464 H   0  0  0  0  0  0  0  0  0  0  0  0
   41.8813   28.2894   40.4750 H   0  0  0  0  0  0  0  0  0  0  0  0
   36.5852   29.0529   50.0949 H   0  0  0  0  0  0  0  0  0  0  0  0
   34.5936   30.8699   46.7560 H   0  0  0  0  0  0  0  0  0  0  0  0
   32.0816   29.6422   46.1848 H   0  0  0  0  0  0  0  0  0  0  0  0
   30.8050   27.6559   47.3065 H   0  0  0  0  0  0  0  0  0  0  0  0
   34.6900   27.4475   50.3717 H   0  0  0  0  0  0  0  0  0  0  0  0
  1  6  2  0
  2  1  1  0
  3  4  1  0
  3  2  2  0
  4  5  2  0
  5 19  1  0
  5  6  1  0
  7  3  1  0
  8  7  2  0
  9  8  1  0
 10  9  2  0
 10 11  1  0
 11 12  2  0
 12  7  1  0
 13 14  2  0
 14 15  1  0
 15 11  1  0
 16 14  1  0
 17 13  1  0
 18 26  2  0
 19 18  1  0
 20 21  1  0
 20 19  2  0
 21 25  2  0
 22 23  1  0
 22 21  1  0
 23 24  2  0
 24 25  1  0
 25 26  1  0
  1 27  1  0
  2 28  1  0
  8 29  1  0
  9 30  1  0
 15 31  1  0
 16 32  1  0
 16 33  1  0
 18 34  1  0
 20 35  1  0
 22 36  1  0
 23 37  1  0
 26 38  1  0
M  END
>  <Score>  (1) 
-7.8417

>  <Score_dual>  (1) 
-7.22

>  <Choices>  (1) 
[None, 9, ['34-23', 255], 22, ['19-19', 240], 30, ['48-11', 135]]

$$$$
