
     RDKit          3D

 48 52  0  0  0  0  0  0  0  0999 V2000
   41.5370   66.3960   62.3930 C   0  0  0  0  0  0  0  0  0  0  0  0
   40.9640   67.2570   61.4490 C   0  0  0  0  0  0  0  0  0  0  0  0
   41.2970   67.0420   60.1020 C   0  0  0  0  0  0  0  0  0  0  0  0
   42.1350   66.0390   59.7820 N   0  0  0  0  0  0  0  0  0  0  0  0
   42.6860   65.2090   60.7180 C   0  0  0  0  0  0  0  0  0  0  0  0
   42.3700   65.4120   62.0050 N   0  0  0  0  0  0  0  0  0  0  0  0
   43.5640   64.1700   60.3140 N   0  0  0  0  0  0  0  0  0  0  0  0
   44.8440   63.8150   60.5030 C   0  0  0  0  0  0  0  0  0  0  0  0
   45.0990   62.6780   59.8260 N   0  0  0  0  0  0  0  0  0  0  0  0
   43.9640   62.3270   59.2120 C   0  0  0  0  0  0  0  0  0  0  0  0
   43.0160   63.2480   59.5130 N   0  0  0  0  0  0  0  0  0  0  0  0
   41.1990   66.6070   63.7900 C   0  0  0  0  0  0  0  0  0  0  0  0
   41.5140   67.7220   64.5830 C   0  0  0  0  0  0  0  0  0  0  0  0
   41.0170   67.5150   65.8160 N   0  0  0  0  0  0  0  0  0  0  0  0
   40.3880   66.3090   65.8640 C   0  0  0  0  0  0  0  0  0  0  0  0
   39.7150   65.6150   66.8700 C   0  0  0  0  0  0  0  0  0  0  0  0
   39.1550   64.3610   66.6250 C   0  0  0  0  0  0  0  0  0  0  0  0
   39.2690   63.8010   65.3680 C   0  0  0  0  0  0  0  0  0  0  0  0
   39.9360   64.4790   64.3560 C   0  0  0  0  0  0  0  0  0  0  0  0
   40.4980   65.7290   64.5900 C   0  0  0  0  0  0  0  0  0  0  0  0
   43.8070   61.1230   58.3510 C   0  0  0  0  0  0  0  0  0  0  0  0
   44.0550   59.8650   59.1940 C   0  0  0  0  0  0  0  0  0  0  0  0
   43.6830   58.6470   58.3900 C   0  0  0  0  0  0  0  0  0  0  0  0
   44.6330   58.5790   57.2250 C   0  0  0  0  0  0  0  0  0  0  0  0
   45.5160   59.8110   57.1360 C   0  0  0  0  0  0  0  0  0  0  0  0
   44.7130   61.0970   57.1660 C   0  0  0  0  0  0  0  0  0  0  0  0
   40.2827   68.0666   61.7496 H   0  0  0  0  0  0  0  0  0  0  0  0
   40.8770   67.6871   59.3162 H   0  0  0  0  0  0  0  0  0  0  0  0
   45.5043   64.6153   60.1377 H   0  0  0  0  0  0  0  0  0  0  0  0
   45.0249   63.6517   61.5757 H   0  0  0  0  0  0  0  0  0  0  0  0
   42.0407   63.2398   59.1820 H   0  0  0  0  0  0  0  0  0  0  0  0
   42.0710   68.6113   64.2531 H   0  0  0  0  0  0  0  0  0  0  0  0
   41.1001   68.1711   66.6056 H   0  0  0  0  0  0  0  0  0  0  0  0
   39.6247   66.0630   67.8706 H   0  0  0  0  0  0  0  0  0  0  0  0
   38.6272   63.8230   67.4262 H   0  0  0  0  0  0  0  0  0  0  0  0
   38.8293   62.8129   65.1672 H   0  0  0  0  0  0  0  0  0  0  0  0
   40.0206   64.0223   63.3589 H   0  0  0  0  0  0  0  0  0  0  0  0
   42.7797   61.1563   57.9592 H   0  0  0  0  0  0  0  0  0  0  0  0
   45.1182   59.8119   59.4712 H   0  0  0  0  0  0  0  0  0  0  0  0
   43.4424   59.9058   60.1067 H   0  0  0  0  0  0  0  0  0  0  0  0
   43.7793   57.7426   59.0087 H   0  0  0  0  0  0  0  0  0  0  0  0
   42.6412   58.7103   58.0426 H   0  0  0  0  0  0  0  0  0  0  0  0
   45.2727   57.6916   57.3402 H   0  0  0  0  0  0  0  0  0  0  0  0
   44.0354   58.5230   56.3032 H   0  0  0  0  0  0  0  0  0  0  0  0
   46.0853   59.7712   56.1956 H   0  0  0  0  0  0  0  0  0  0  0  0
   46.1840   59.8105   58.0099 H   0  0  0  0  0  0  0  0  0  0  0  0
   45.4024   61.9525   57.2192 H   0  0  0  0  0  0  0  0  0  0  0  0
   44.1034   61.1558   56.2523 H   0  0  0  0  0  0  0  0  0  0  0  0
  1 12  1  0
  2  1  2  0
  3  2  1  0
  4  3  2  0
  4  5  1  0
  5  6  2  0
  6  1  1  0
  7  8  1  0
  7  5  1  0
  9  8  1  0
 10 11  1  0
 10  9  2  0
 11  7  1  0
 12 13  2  0
 12 20  1  0
 13 14  1  0
 14 15  1  0
 15 16  2  0
 17 16  1  0
 18 17  2  0
 19 20  2  0
 19 18  1  0
 20 15  1  0
 21 22  1  0
 21 10  1  0
 23 22  1  0
 24 23  1  0
 25 26  1  0
 25 24  1  0
 26 21  1  0
  2 27  1  0
  3 28  1  0
  8 29  1  0
  8 30  1  0
 11 31  1  0
 13 32  1  0
 14 33  1  0
 16 34  1  0
 17 35  1  0
 18 36  1  0
 19 37  1  0
 21 38  1  0
 22 39  1  0
 22 40  1  0
 23 41  1  0
 23 42  1  0
 24 43  1  0
 24 44  1  0
 25 45  1  0
 25 46  1  0
 26 47  1  0
 26 48  1  0
M  END
>  <Score>  (1) 
-7.66105

$$$$
