
     RDKit          3D

 53 56  0  0  1  0  0  0  0  0999 V2000
   42.5240   70.6130   62.1070 C   0  0  2  0  0  0  0  0  0  0  0  0
   39.7460   64.4440   64.5040 C   0  0  0  0  0  0  0  0  0  0  0  0
   39.3990   65.0940   65.6900 C   0  0  0  0  0  0  0  0  0  0  0  0
   39.8680   66.3720   65.8450 C   0  0  0  0  0  0  0  0  0  0  0  0
   40.6240   66.9030   64.8520 N   0  0  0  0  0  0  0  0  0  0  0  0
   40.9480   66.2410   63.7010 C   0  0  0  0  0  0  0  0  0  0  0  0
   40.5060   65.0010   63.5260 N   0  0  0  0  0  0  0  0  0  0  0  0
   41.7580   67.0380   62.8790 N   0  0  0  0  0  0  0  0  0  0  0  0
   41.6410   68.3820   62.8390 C   0  0  0  0  0  0  0  0  0  0  0  0
   42.5440   69.1020   62.0310 C   0  0  0  0  0  0  0  0  0  0  0  0
   43.4860   68.3950   61.3310 C   0  0  0  0  0  0  0  0  0  0  0  0
   44.3640   69.1460   60.4980 N   0  0  0  0  0  0  0  0  0  0  0  0
   43.5630   67.0480   61.4010 N   0  0  0  0  0  0  0  0  0  0  0  0
   42.6860   66.3320   62.1890 C   0  0  0  0  0  0  0  0  0  0  0  0
   42.7890   65.0970   62.2270 O   0  0  0  0  0  0  0  0  0  0  0  0
   41.6260   71.1340   63.1130 C   0  0  0  0  0  0  0  0  0  0  0  0
   41.9400   70.9990   60.6410 C   0  0  0  0  0  0  0  0  0  0  0  0
   42.5400   72.2600   60.3260 N   0  0  0  0  0  0  0  0  0  0  0  0
   43.8650   72.4580   60.3810 N   0  0  0  0  0  0  0  0  0  0  0  0
   44.1790   73.7090   60.0440 C   0  0  0  0  0  0  0  0  0  0  0  0
   43.0280   74.3780   59.7520 C   0  0  0  0  0  0  0  0  0  0  0  0
   42.0420   73.4400   59.9400 C   0  0  0  0  0  0  0  0  0  0  0  0
   40.5800   73.6830   59.7500 C   0  0  0  0  0  0  0  0  0  0  0  0
   40.1500   73.5250   58.2960 C   0  0  0  0  0  0  0  0  0  0  0  0
   38.6230   73.3670   58.3510 C   0  0  0  0  0  0  0  0  0  0  0  0
   38.0590   74.6300   58.9130 C   0  0  0  0  0  0  0  0  0  0  0  0
   39.0550   75.6110   59.4300 C   0  0  0  0  0  0  0  0  0  0  0  0
   40.0840   74.9530   60.3530 C   0  0  0  0  0  0  0  0  0  0  0  0
   43.5111   71.0218   62.3689 H   0  0  0  0  0  0  0  0  0  0  0  0
   39.3813   63.4174   64.3524 H   0  0  0  0  0  0  0  0  0  0  0  0
   38.7820   64.6061   66.4589 H   0  0  0  0  0  0  0  0  0  0  0  0
   39.6375   66.9520   66.7508 H   0  0  0  0  0  0  0  0  0  0  0  0
   40.8638   68.9002   63.4199 H   0  0  0  0  0  0  0  0  0  0  0  0
   44.2864   70.1724   60.4610 H   0  0  0  0  0  0  0  0  0  0  0  0
   45.0765   68.6627   59.9327 H   0  0  0  0  0  0  0  0  0  0  0  0
   42.0225   70.9040   64.1129 H   0  0  0  0  0  0  0  0  0  0  0  0
   41.5368   72.2241   62.9958 H   0  0  0  0  0  0  0  0  0  0  0  0
   40.6354   70.6704   62.9958 H   0  0  0  0  0  0  0  0  0  0  0  0
   42.2245   70.2388   59.8986 H   0  0  0  0  0  0  0  0  0  0  0  0
   40.8412   71.0497   60.6331 H   0  0  0  0  0  0  0  0  0  0  0  0
   45.1946   74.1299   60.0077 H   0  0  0  0  0  0  0  0  0  0  0  0
   42.9148   75.4263   59.4384 H   0  0  0  0  0  0  0  0  0  0  0  0
   40.0851   72.8861   60.3245 H   0  0  0  0  0  0  0  0  0  0  0  0
   40.6155   72.6341   57.8493 H   0  0  0  0  0  0  0  0  0  0  0  0
   40.4559   74.3820   57.6780 H   0  0  0  0  0  0  0  0  0  0  0  0
   38.2267   73.1968   57.3391 H   0  0  0  0  0  0  0  0  0  0  0  0
   38.3457   72.5071   58.9784 H   0  0  0  0  0  0  0  0  0  0  0  0
   37.4797   75.1237   58.1189 H   0  0  0  0  0  0  0  0  0  0  0  0
   37.4577   74.3277   59.7831 H   0  0  0  0  0  0  0  0  0  0  0  0
   39.5817   76.0647   58.5775 H   0  0  0  0  0  0  0  0  0  0  0  0
   38.5126   76.3699   60.0130 H   0  0  0  0  0  0  0  0  0  0  0  0
   39.6144   74.7351   61.3236 H   0  0  0  0  0  0  0  0  0  0  0  0
   40.9323   75.6395   60.4914 H   0  0  0  0  0  0  0  0  0  0  0  0
  1 16  1  0
  2  3  2  0
  3  4  1  0
  5  4  2  0
  6  5  1  0
  7  6  2  0
  7  2  1  0
  8  6  1  0
  9  8  1  0
 10  1  1  0
 10  9  2  0
 11 13  2  0
 11 10  1  0
 12 11  1  0
 13 14  1  0
 14 15  2  0
 14  8  1  0
 17  1  1  0
 18 19  1  0
 18 17  1  0
 20 19  2  0
 21 22  2  0
 21 20  1  0
 22 18  1  0
 23 22  1  0
 23 28  1  0
 24 25  1  0
 24 23  1  0
 25 26  1  0
 26 27  1  0
 27 28  1  0
  1 29  1  1
  2 30  1  0
  3 31  1  0
  4 32  1  0
  9 33  1  0
 12 34  1  0
 12 35  1  0
 16 36  1  0
 16 37  1  0
 16 38  1  0
 17 39  1  0
 17 40  1  0
 20 41  1  0
 21 42  1  0
 23 43  1  0
 24 44  1  0
 24 45  1  0
 25 46  1  0
 25 47  1  0
 26 48  1  0
 26 49  1  0
 27 50  1  0
 27 51  1  0
 28 52  1  0
 28 53  1  0
M  END
>  <Score>  (1) 
-7.53742

$$$$
