
     RDKit          3D

 50 54  0  0  1  0  0  0  0  0999 V2000
   40.6730   67.3020   63.0330 C   0  0  2  0  0  0  0  0  0  0  0  0
   39.7310   67.5330   64.1720 C   0  0  0  0  0  0  0  0  0  0  0  0
   39.5440   66.1400   64.7490 C   0  0  0  0  0  0  0  0  0  0  0  0
   40.0200   65.2690   63.5950 C   0  0  0  0  0  0  0  0  0  0  0  0
   41.3410   66.0700   63.3040 C   0  0  1  0  0  0  0  0  0  0  0  0
   41.8530   68.7550   61.3050 C   0  0  0  0  0  0  0  0  0  0  0  0
   41.4190   68.4800   62.6010 C   0  0  0  0  0  0  0  0  0  0  0  0
   41.6800   69.3840   63.6090 C   0  0  0  0  0  0  0  0  0  0  0  0
   42.3630   70.5350   63.2960 N   0  0  0  0  0  0  0  0  0  0  0  0
   42.7790   70.7910   62.0230 C   0  0  0  0  0  0  0  0  0  0  0  0
   42.5180   69.9050   61.0720 N   0  0  0  0  0  0  0  0  0  0  0  0
   41.3240   69.2190   64.9520 N   0  0  0  0  0  0  0  0  0  0  0  0
   41.9210   65.5520   62.2200 O   0  0  0  0  0  0  0  0  0  0  0  0
   43.1770   65.2160   61.8390 C   0  0  0  0  0  0  0  0  0  0  0  0
   44.3340   65.5490   62.4460 C   0  0  0  0  0  0  0  0  0  0  0  0
   45.4280   64.8940   61.8910 C   0  0  0  0  0  0  0  0  0  0  0  0
   45.4520   64.2690   60.7390 N   0  0  0  0  0  0  0  0  0  0  0  0
   44.3060   64.2120   59.9980 C   0  0  2  0  0  0  0  0  0  0  0  0
   43.1980   64.4850   60.7340 N   0  0  0  0  0  0  0  0  0  0  0  0
   44.2040   62.9330   59.2620 C   0  0  0  0  0  0  0  0  0  0  0  0
   43.4190   61.9660   59.7780 N   0  0  0  0  0  0  0  0  0  0  0  0
   43.2620   60.8010   59.1500 C   0  0  0  0  0  0  0  0  0  0  0  0
   43.8590   60.4840   57.9660 N   0  0  0  0  0  0  0  0  0  0  0  0
   44.6550   61.4130   57.4040 C   0  0  0  0  0  0  0  0  0  0  0  0
   45.3160   61.1910   56.2080 C   0  0  0  0  0  0  0  0  0  0  0  0
   46.1410   62.1430   55.6410 C   0  0  0  0  0  0  0  0  0  0  0  0
   46.2830   63.3360   56.3170 C   0  0  0  0  0  0  0  0  0  0  0  0
   45.6280   63.5510   57.4960 C   0  0  0  0  0  0  0  0  0  0  0  0
   44.8060   62.6100   58.0660 C   0  0  0  0  0  0  0  0  0  0  0  0
   40.1600   67.1576   62.0707 H   0  0  0  0  0  0  0  0  0  0  0  0
   40.1701   68.2135   64.9164 H   0  0  0  0  0  0  0  0  0  0  0  0
   38.7863   68.0050   63.8642 H   0  0  0  0  0  0  0  0  0  0  0  0
   40.1615   65.9905   65.6470 H   0  0  0  0  0  0  0  0  0  0  0  0
   38.5173   65.9251   65.0801 H   0  0  0  0  0  0  0  0  0  0  0  0
   40.2135   64.2302   63.9006 H   0  0  0  0  0  0  0  0  0  0  0  0
   39.3244   65.1332   62.7537 H   0  0  0  0  0  0  0  0  0  0  0  0
   42.1439   66.1019   64.0552 H   0  0  0  0  0  0  0  0  0  0  0  0
   41.6565   68.0465   60.4868 H   0  0  0  0  0  0  0  0  0  0  0  0
   43.3226   71.7181   61.7888 H   0  0  0  0  0  0  0  0  0  0  0  0
   41.5596   69.9479   65.6405 H   0  0  0  0  0  0  0  0  0  0  0  0
   40.8264   68.3686   65.2521 H   0  0  0  0  0  0  0  0  0  0  0  0
   44.4848   66.6343   62.3491 H   0  0  0  0  0  0  0  0  0  0  0  0
   44.2600   65.2466   63.5010 H   0  0  0  0  0  0  0  0  0  0  0  0
   46.3611   64.9010   62.4735 H   0  0  0  0  0  0  0  0  0  0  0  0
   44.3650   65.0108   59.2441 H   0  0  0  0  0  0  0  0  0  0  0  0
   42.6097   60.0479   59.6163 H   0  0  0  0  0  0  0  0  0  0  0  0
   45.1803   60.2280   55.6940 H   0  0  0  0  0  0  0  0  0  0  0  0
   46.6625   61.9570   54.6905 H   0  0  0  0  0  0  0  0  0  0  0  0
   46.9305   64.1228   55.9026 H   0  0  0  0  0  0  0  0  0  0  0  0
   45.7640   64.5147   58.0086 H   0  0  0  0  0  0  0  0  0  0  0  0
  1  5  1  0
  1  2  1  0
  2  3  1  0
  4  3  1  0
  5  4  1  0
  6  7  2  0
  7  1  1  0
  7  8  1  0
  8 12  1  0
  9  8  2  0
 10  9  1  0
 11  6  1  0
 11 10  2  0
 13  5  1  0
 14 13  1  0
 14 15  1  0
 16 15  1  0
 17 16  2  0
 18 19  1  0
 18 17  1  0
 19 14  2  0
 20 21  2  0
 20 18  1  0
 22 21  1  0
 23 22  2  0
 24 23  1  0
 24 29  2  0
 25 24  1  0
 26 25  2  0
 26 27  1  0
 27 28  2  0
 28 29  1  0
 29 20  1  0
  1 30  1  6
  2 31  1  0
  2 32  1  0
  3 33  1  0
  3 34  1  0
  4 35  1  0
  4 36  1  0
  5 37  1  1
  6 38  1  0
 10 39  1  0
 12 40  1  0
 12 41  1  0
 15 42  1  0
 15 43  1  0
 16 44  1  0
 18 45  1  6
 22 46  1  0
 25 47  1  0
 26 48  1  0
 27 49  1  0
 28 50  1  0
M  END
>  <Score>  (1) 
-7.62575

$$$$
