
     RDKit          3D

 46 50  0  0  1  0  0  0  0  0999 V2000
   39.4950   64.0380   65.2490 C   0  0  0  0  0  0  0  0  0  0  0  0
   39.3890   64.8970   66.3630 C   0  0  0  0  0  0  0  0  0  0  0  0
   39.9160   66.1900   66.2300 C   0  0  0  0  0  0  0  0  0  0  0  0
   40.4950   66.5420   65.0440 N   0  0  0  0  0  0  0  0  0  0  0  0
   40.5640   65.6690   64.0150 C   0  0  0  0  0  0  0  0  0  0  0  0
   40.0740   64.4310   64.1040 N   0  0  0  0  0  0  0  0  0  0  0  0
   41.1640   66.1240   62.7960 N   0  0  0  0  0  0  0  0  0  0  0  0
   41.6080   65.5440   61.6680 C   0  0  0  0  0  0  0  0  0  0  0  0
   42.0430   66.4630   60.8230 N   0  0  0  0  0  0  0  0  0  0  0  0
   41.8790   67.6750   61.4160 C   0  0  0  0  0  0  0  0  0  0  0  0
   42.1620   68.9440   61.0000 C   0  0  0  0  0  0  0  0  0  0  0  0
   42.6650   69.0800   59.8500 O   0  0  0  0  0  0  0  0  0  0  0  0
   41.9320   70.0410   61.7560 N   0  0  0  0  0  0  0  0  0  0  0  0
   41.4130   69.7960   62.9330 C   0  0  0  0  0  0  0  0  0  0  0  0
   41.2130   70.8840   63.8520 N   0  0  0  0  0  0  0  0  0  0  0  0
   41.1120   68.5930   63.3930 N   0  0  0  0  0  0  0  0  0  0  0  0
   41.3220   67.4750   62.6720 C   0  0  0  0  0  0  0  0  0  0  0  0
   40.8350   73.6460   60.1430 N   0  0  0  0  0  0  0  0  0  0  0  0
   40.8570   73.5640   61.5550 C   0  0  0  0  0  0  0  0  0  0  0  0
   41.4670   72.4060   62.1700 C   0  0  0  0  0  0  0  0  0  0  0  0
   42.2110   71.4040   61.3110 C   0  0  2  0  0  0  0  0  0  0  0  0
   41.9920   71.5810   59.8410 C   0  0  0  0  0  0  0  0  0  0  0  0
   41.9780   73.0820   59.5360 C   0  0  1  0  0  0  0  0  0  0  0  0
   41.8790   73.2210   58.0880 N   0  0  0  0  0  0  0  0  0  0  0  0
   40.8750   72.8810   57.2730 C   0  0  0  0  0  0  0  0  0  0  0  0
   41.1560   73.1700   55.9610 C   0  0  0  0  0  0  0  0  0  0  0  0
   42.4030   73.7190   55.9740 N   0  0  0  0  0  0  0  0  0  0  0  0
   42.8120   73.7370   57.2650 C   0  0  0  0  0  0  0  0  0  0  0  0
   39.0916   63.0172   65.3210 H   0  0  0  0  0  0  0  0  0  0  0  0
   38.9125   64.5663   67.2977 H   0  0  0  0  0  0  0  0  0  0  0  0
   39.8641   66.9058   67.0636 H   0  0  0  0  0  0  0  0  0  0  0  0
   41.6093   64.4610   61.4755 H   0  0  0  0  0  0  0  0  0  0  0  0
   40.8057   70.7052   64.7810 H   0  0  0  0  0  0  0  0  0  0  0  0
   41.4771   71.8420   63.5812 H   0  0  0  0  0  0  0  0  0  0  0  0
   40.0019   73.1476   59.7990 H   0  0  0  0  0  0  0  0  0  0  0  0
   41.3965   74.4491   61.9232 H   0  0  0  0  0  0  0  0  0  0  0  0
   39.7962   73.4908   61.8368 H   0  0  0  0  0  0  0  0  0  0  0  0
   42.1835   72.7811   62.9156 H   0  0  0  0  0  0  0  0  0  0  0  0
   40.6067   71.8325   62.5454 H   0  0  0  0  0  0  0  0  0  0  0  0
   43.2834   71.6027   61.4541 H   0  0  0  0  0  0  0  0  0  0  0  0
   42.8055   71.0952   59.2823 H   0  0  0  0  0  0  0  0  0  0  0  0
   41.0374   71.1237   59.5415 H   0  0  0  0  0  0  0  0  0  0  0  0
   42.8798   73.5858   59.9141 H   0  0  0  0  0  0  0  0  0  0  0  0
   39.9345   72.4235   57.6139 H   0  0  0  0  0  0  0  0  0  0  0  0
   40.5123   72.9957   55.0862 H   0  0  0  0  0  0  0  0  0  0  0  0
   43.7854   74.1249   57.5998 H   0  0  0  0  0  0  0  0  0  0  0  0
  1  2  2  0
  3  2  1  0
  4  3  2  0
  5  6  2  0
  5  4  1  0
  6  1  1  0
  7  5  1  0
  8  7  1  0
  9 10  1  0
  9  8  2  0
 10 17  2  0
 11 10  1  0
 11 13  1  0
 12 11  2  0
 13 14  1  0
 14 16  2  0
 14 15  1  0
 17  7  1  0
 17 16  1  0
 18 19  1  0
 19 20  1  0
 21 13  1  0
 21 20  1  0
 22 21  1  0
 23 22  1  0
 23 18  1  0
 24 23  1  0
 25 24  1  0
 26 27  1  0
 26 25  2  0
 27 28  2  0
 28 24  1  0
  1 29  1  0
  2 30  1  0
  3 31  1  0
  8 32  1  0
 15 33  1  0
 15 34  1  0
 18 35  1  0
 19 36  1  0
 19 37  1  0
 20 38  1  0
 20 39  1  0
 21 40  1  6
 22 41  1  0
 22 42  1  0
 23 43  1  1
 25 44  1  0
 26 45  1  0
 28 46  1  0
M  END
>  <Score>  (1) 
-7.2985

$$$$
