
     RDKit          3D

 51 55  0  0  0  0  0  0  0  0999 V2000
   41.6240   68.1520   58.3570 C   0  0  0  0  0  0  0  0  0  0  0  0
   41.9200   67.6740   59.6540 C   0  0  0  0  0  0  0  0  0  0  0  0
   41.9820   68.5020   60.7700 C   0  0  0  0  0  0  0  0  0  0  0  0
   41.7250   69.8400   60.4780 N   0  0  0  0  0  0  0  0  0  0  0  0
   41.4420   70.2770   59.2200 C   0  0  0  0  0  0  0  0  0  0  0  0
   41.3960   69.4410   58.1930 N   0  0  0  0  0  0  0  0  0  0  0  0
   42.2710   68.2410   62.1160 C   0  0  0  0  0  0  0  0  0  0  0  0
   43.6140   68.4850   62.4770 C   0  0  0  0  0  0  0  0  0  0  0  0
   44.0910   68.2870   63.7770 C   0  0  0  0  0  0  0  0  0  0  0  0
   43.2400   67.8430   64.7480 C   0  0  0  0  0  0  0  0  0  0  0  0
   41.9110   67.5870   64.4520 C   0  0  0  0  0  0  0  0  0  0  0  0
   41.0300   67.1420   65.3820 C   0  0  0  0  0  0  0  0  0  0  0  0
   39.7100   66.8750   65.1230 C   0  0  0  0  0  0  0  0  0  0  0  0
   39.3320   67.0970   63.8220 C   0  0  0  0  0  0  0  0  0  0  0  0
   40.2180   67.5500   62.8660 C   0  0  0  0  0  0  0  0  0  0  0  0
   41.5150   67.8040   63.1560 C   0  0  0  0  0  0  0  0  0  0  0  0
   41.1870   71.7070   59.0200 C   0  0  0  0  0  0  0  0  0  0  0  0
   39.9420   72.3010   59.1340 C   0  0  0  0  0  0  0  0  0  0  0  0
   40.2070   73.6470   58.8580 C   0  0  0  0  0  0  0  0  0  0  0  0
   41.5590   73.7830   58.6010 C   0  0  0  0  0  0  0  0  0  0  0  0
   42.0930   72.5910   58.7130 O   0  0  0  0  0  0  0  0  0  0  0  0
   39.1860   74.5890   58.8630 N   0  0  0  0  0  0  0  0  0  0  0  0
   39.1140   75.8730   59.5250 C   0  0  0  0  0  0  0  0  0  0  0  0
   39.1610   76.9150   58.4070 C   0  0  0  0  0  0  0  0  0  0  0  0
   38.7350   76.3640   57.2150 O   0  0  0  0  0  0  0  0  0  0  0  0
   37.5930   75.5600   57.3780 C   0  0  0  0  0  0  0  0  0  0  0  0
   37.9710   74.2810   58.0950 C   0  0  0  0  0  0  0  0  0  0  0  0
   42.3360   74.8550   58.2850 O   0  0  0  0  0  0  0  0  0  0  0  0
   42.9020   75.7740   59.1350 C   0  0  0  0  0  0  0  0  0  0  0  0
   42.4840   77.1340   59.1680 N   0  0  0  0  0  0  0  0  0  0  0  0
   43.7120   74.9620   59.6640 O   0  0  0  0  0  0  0  0  0  0  0  0
   41.5845   67.4624   57.5009 H   0  0  0  0  0  0  0  0  0  0  0  0
   42.1099   66.5987   59.7867 H   0  0  0  0  0  0  0  0  0  0  0  0
   44.3119   68.8445   61.7065 H   0  0  0  0  0  0  0  0  0  0  0  0
   45.1458   68.4879   64.0157 H   0  0  0  0  0  0  0  0  0  0  0  0
   43.6118   67.6876   65.7715 H   0  0  0  0  0  0  0  0  0  0  0  0
   41.3967   66.9856   66.4072 H   0  0  0  0  0  0  0  0  0  0  0  0
   39.0127   66.5133   65.8930 H   0  0  0  0  0  0  0  0  0  0  0  0
   38.2880   66.9074   63.5320 H   0  0  0  0  0  0  0  0  0  0  0  0
   39.8595   67.7092   61.8383 H   0  0  0  0  0  0  0  0  0  0  0  0
   38.9792   71.8299   59.3812 H   0  0  0  0  0  0  0  0  0  0  0  0
   38.1756   75.9605   60.0923 H   0  0  0  0  0  0  0  0  0  0  0  0
   39.9371   76.0080   60.2422 H   0  0  0  0  0  0  0  0  0  0  0  0
   38.5061   77.7586   58.6705 H   0  0  0  0  0  0  0  0  0  0  0  0
   40.1977   77.2629   58.2880 H   0  0  0  0  0  0  0  0  0  0  0  0
   36.8435   76.1045   57.9711 H   0  0  0  0  0  0  0  0  0  0  0  0
   37.1742   75.3155   56.3907 H   0  0  0  0  0  0  0  0  0  0  0  0
   37.1612   73.9682   58.7706 H   0  0  0  0  0  0  0  0  0  0  0  0
   38.1414   73.4576   57.3858 H   0  0  0  0  0  0  0  0  0  0  0  0
   42.9318   77.7948   59.8190 H   0  0  0  0  0  0  0  0  0  0  0  0
   41.7337   77.4575   58.5409 H   0  0  0  0  0  0  0  0  0  0  0  0
  1  2  2  0
  2  3  1  0
  3  7  1  0
  4  3  2  0
  5  4  1  0
  6  1  1  0
  6  5  2  0
  7  8  2  0
  7 16  1  0
  8  9  1  0
  9 10  2  0
 11 10  1  0
 11 12  2  0
 13 12  1  0
 14 13  2  0
 15 16  2  0
 15 14  1  0
 16 11  1  0
 17 18  2  0
 17  5  1  0
 19 22  1  0
 19 18  1  0
 20 21  1  0
 20 19  2  0
 21 17  1  0
 22 23  1  0
 24 23  1  0
 25 26  1  0
 25 24  1  0
 26 27  1  0
 27 22  1  0
 28 20  1  0
 28 29  1  0
 29 30  1  0
 29 31  2  0
  1 32  1  0
  2 33  1  0
  8 34  1  0
  9 35  1  0
 10 36  1  0
 12 37  1  0
 13 38  1  0
 14 39  1  0
 15 40  1  0
 18 41  1  0
 23 42  1  0
 23 43  1  0
 24 44  1  0
 24 45  1  0
 26 46  1  0
 26 47  1  0
 27 48  1  0
 27 49  1  0
 30 50  1  0
 30 51  1  0
M  END
>  <Score>  (1) 
-7.73092

$$$$
