
     RDKit          3D

 46 50  0  0  0  0  0  0  0  0999 V2000
   41.4530   67.6650   58.4750 C   0  0  0  0  0  0  0  0  0  0  0  0
   41.7470   67.2580   59.7910 C   0  0  0  0  0  0  0  0  0  0  0  0
   41.9080   68.1610   60.8400 C   0  0  0  0  0  0  0  0  0  0  0  0
   41.7520   69.4740   60.4520 N   0  0  0  0  0  0  0  0  0  0  0  0
   41.4690   69.8700   59.1910 C   0  0  0  0  0  0  0  0  0  0  0  0
   41.3270   68.9630   58.2320 N   0  0  0  0  0  0  0  0  0  0  0  0
   42.2220   67.9690   62.2010 C   0  0  0  0  0  0  0  0  0  0  0  0
   43.5770   68.2210   62.5350 C   0  0  0  0  0  0  0  0  0  0  0  0
   44.0940   68.0900   63.8150 C   0  0  0  0  0  0  0  0  0  0  0  0
   43.2470   67.6910   64.8290 C   0  0  0  0  0  0  0  0  0  0  0  0
   41.9070   67.4290   64.5670 C   0  0  0  0  0  0  0  0  0  0  0  0
   41.0530   67.0340   65.5530 C   0  0  0  0  0  0  0  0  0  0  0  0
   39.7200   66.7630   65.3380 C   0  0  0  0  0  0  0  0  0  0  0  0
   39.2910   66.9230   64.0160 C   0  0  0  0  0  0  0  0  0  0  0  0
   40.1740   67.3240   63.0370 C   0  0  0  0  0  0  0  0  0  0  0  0
   41.4800   67.5820   63.2790 C   0  0  0  0  0  0  0  0  0  0  0  0
   41.3250   71.2900   58.8940 C   0  0  0  0  0  0  0  0  0  0  0  0
   41.3690   71.8180   57.6130 C   0  0  0  0  0  0  0  0  0  0  0  0
   41.1890   73.1860   57.8170 C   0  0  0  0  0  0  0  0  0  0  0  0
   41.0470   73.4030   59.1940 C   0  0  0  0  0  0  0  0  0  0  0  0
   41.1400   72.2310   59.7630 O   0  0  0  0  0  0  0  0  0  0  0  0
   40.8450   74.6800   59.7860 N   0  0  0  0  0  0  0  0  0  0  0  0
   41.4530   75.8410   59.1740 C   0  0  0  0  0  0  0  0  0  0  0  0
   40.7720   77.1210   59.6050 C   0  0  0  0  0  0  0  0  0  0  0  0
   39.4450   76.8340   59.8620 O   0  0  0  0  0  0  0  0  0  0  0  0
   39.3040   76.1070   61.0420 C   0  0  0  0  0  0  0  0  0  0  0  0
   40.0390   74.7840   60.9860 C   0  0  0  0  0  0  0  0  0  0  0  0
   41.3310   66.9257   57.6697 H   0  0  0  0  0  0  0  0  0  0  0  0
   41.8539   66.1832   59.9992 H   0  0  0  0  0  0  0  0  0  0  0  0
   44.2578   68.5390   61.7316 H   0  0  0  0  0  0  0  0  0  0  0  0
   45.1547   68.2993   64.0175 H   0  0  0  0  0  0  0  0  0  0  0  0
   43.6351   67.5794   65.8522 H   0  0  0  0  0  0  0  0  0  0  0  0
   41.4490   66.9261   66.5735 H   0  0  0  0  0  0  0  0  0  0  0  0
   39.0435   66.4447   66.1449 H   0  0  0  0  0  0  0  0  0  0  0  0
   38.2403   66.7271   63.7559 H   0  0  0  0  0  0  0  0  0  0  0  0
   39.7991   67.4399   62.0094 H   0  0  0  0  0  0  0  0  0  0  0  0
   41.5119   71.2847   56.6616 H   0  0  0  0  0  0  0  0  0  0  0  0
   41.1631   73.9587   57.0345 H   0  0  0  0  0  0  0  0  0  0  0  0
   41.3782   75.7480   58.0805 H   0  0  0  0  0  0  0  0  0  0  0  0
   42.5043   75.8869   59.4944 H   0  0  0  0  0  0  0  0  0  0  0  0
   41.2523   77.5112   60.5144 H   0  0  0  0  0  0  0  0  0  0  0  0
   40.8519   77.8810   58.8138 H   0  0  0  0  0  0  0  0  0  0  0  0
   39.7064   76.7016   61.8754 H   0  0  0  0  0  0  0  0  0  0  0  0
   38.2340   75.8949   61.1840 H   0  0  0  0  0  0  0  0  0  0  0  0
   39.3045   73.9653   60.9964 H   0  0  0  0  0  0  0  0  0  0  0  0
   40.7055   74.7198   61.8587 H   0  0  0  0  0  0  0  0  0  0  0  0
  1  2  2  0
  2  3  1  0
  3  7  1  0
  4  3  2  0
  5  4  1  0
  6  1  1  0
  6  5  2  0
  7  8  2  0
  7 16  1  0
  8  9  1  0
  9 10  2  0
 11 10  1  0
 11 12  2  0
 13 12  1  0
 14 13  2  0
 15 16  2  0
 15 14  1  0
 16 11  1  0
 17  5  1  0
 17 21  1  0
 18 19  1  0
 18 17  2  0
 19 20  2  0
 20 21  1  0
 20 22  1  0
 22 27  1  0
 23 24  1  0
 23 22  1  0
 24 25  1  0
 25 26  1  0
 27 26  1  0
  1 28  1  0
  2 29  1  0
  8 30  1  0
  9 31  1  0
 10 32  1  0
 12 33  1  0
 13 34  1  0
 14 35  1  0
 15 36  1  0
 18 37  1  0
 19 38  1  0
 23 39  1  0
 23 40  1  0
 24 41  1  0
 24 42  1  0
 26 43  1  0
 26 44  1  0
 27 45  1  0
 27 46  1  0
M  END
>  <Score>  (1) 
-7.50397

$$$$
