
     RDKit          3D

 48 52  0  0  0  0  0  0  0  0999 V2000
   42.2630   68.8050   61.4540 N   0  0  0  0  0  0  0  0  0  0  0  0
   42.2260   70.0290   61.8730 C   0  0  0  0  0  0  0  0  0  0  0  0
   42.9570   71.0080   61.2430 C   0  0  0  0  0  0  0  0  0  0  0  0
   43.7030   70.6610   60.1920 C   0  0  0  0  0  0  0  0  0  0  0  0
   44.3840   71.5370   59.5940 O   0  0  0  0  0  0  0  0  0  0  0  0
   43.7030   69.3620   59.7960 N   0  0  0  0  0  0  0  0  0  0  0  0
   42.9760   68.4010   60.4260 C   0  0  0  0  0  0  0  0  0  0  0  0
   43.0510   67.2310   59.9750 O   0  0  0  0  0  0  0  0  0  0  0  0
   40.3910   66.1380   63.8310 C   0  0  0  0  0  0  0  0  0  0  0  0
   39.9020   66.1350   62.5560 C   0  0  0  0  0  0  0  0  0  0  0  0
   40.4800   67.0060   61.6890 C   0  0  0  0  0  0  0  0  0  0  0  0
   41.4780   67.7990   62.1430 C   0  0  0  0  0  0  0  0  0  0  0  0
   41.6770   67.3510   63.8950 S   0  0  0  0  0  0  0  0  0  0  0  0
   39.9780   65.3210   64.9840 C   0  0  0  0  0  0  0  0  0  0  0  0
   39.9650   65.7770   66.2890 C   0  0  0  0  0  0  0  0  0  0  0  0
   39.5470   64.8840   67.2720 C   0  0  0  0  0  0  0  0  0  0  0  0
   39.1800   63.6350   66.9200 N   0  0  0  0  0  0  0  0  0  0  0  0
   39.1990   63.2040   65.6330 C   0  0  0  0  0  0  0  0  0  0  0  0
   39.6010   64.0750   64.7150 N   0  0  0  0  0  0  0  0  0  0  0  0
   38.8130   61.9000   65.2820 N   0  0  0  0  0  0  0  0  0  0  0  0
   42.8460   72.3880   61.8020 C   0  0  0  0  0  0  0  0  0  0  0  0
   42.2770   73.2280   60.6930 C   0  0  0  0  0  0  0  0  0  0  0  0
   42.8280   74.3070   59.9990 C   0  0  0  0  0  0  0  0  0  0  0  0
   41.8940   74.7530   59.0500 C   0  0  0  0  0  0  0  0  0  0  0  0
   40.8240   73.9070   59.2300 C   0  0  0  0  0  0  0  0  0  0  0  0
   41.0800   73.0380   60.1880 O   0  0  0  0  0  0  0  0  0  0  0  0
   39.5690   73.9650   58.4590 C   0  0  0  0  0  0  0  0  0  0  0  0
   38.9970   72.8130   57.9600 C   0  0  0  0  0  0  0  0  0  0  0  0
   37.8230   72.8610   57.2370 C   0  0  0  0  0  0  0  0  0  0  0  0
   37.2200   74.0900   57.0160 C   0  0  0  0  0  0  0  0  0  0  0  0
   37.8110   75.2370   57.5250 C   0  0  0  0  0  0  0  0  0  0  0  0
   38.9700   75.1450   58.2330 N   0  0  0  0  0  0  0  0  0  0  0  0
   41.6034   70.2885   62.7419 H   0  0  0  0  0  0  0  0  0  0  0  0
   44.2777   69.0935   58.9845 H   0  0  0  0  0  0  0  0  0  0  0  0
   39.0858   65.4648   62.2485 H   0  0  0  0  0  0  0  0  0  0  0  0
   40.1449   67.0654   60.6430 H   0  0  0  0  0  0  0  0  0  0  0  0
   40.2722   66.8029   66.5403 H   0  0  0  0  0  0  0  0  0  0  0  0
   39.5164   65.1946   68.3268 H   0  0  0  0  0  0  0  0  0  0  0  0
   38.8385   61.6031   64.2960 H   0  0  0  0  0  0  0  0  0  0  0  0
   38.5044   61.2406   66.0106 H   0  0  0  0  0  0  0  0  0  0  0  0
   42.1748   72.3966   62.6735 H   0  0  0  0  0  0  0  0  0  0  0  0
   43.8200   72.7690   62.1429 H   0  0  0  0  0  0  0  0  0  0  0  0
   43.8268   74.7360   60.1675 H   0  0  0  0  0  0  0  0  0  0  0  0
   41.9940   75.5815   58.3333 H   0  0  0  0  0  0  0  0  0  0  0  0
   39.4835   71.8432   58.1410 H   0  0  0  0  0  0  0  0  0  0  0  0
   37.3722   71.9386   56.8420 H   0  0  0  0  0  0  0  0  0  0  0  0
   36.2831   74.1546   56.4432 H   0  0  0  0  0  0  0  0  0  0  0  0
   37.3442   76.2187   57.3569 H   0  0  0  0  0  0  0  0  0  0  0  0
  1  2  1  0
  1 12  1  0
  3 21  1  0
  3  2  2  0
  4  3  1  0
  5  4  2  0
  6  4  1  0
  6  7  1  0
  7  1  1  0
  8  7  2  0
  9 13  1  0
  9 14  1  0
 10  9  2  0
 11 12  2  0
 11 10  1  0
 12 13  1  0
 14 15  2  0
 15 16  1  0
 17 16  2  0
 18 17  1  0
 19 14  1  0
 19 18  2  0
 20 18  1  0
 22 21  1  0
 23 22  2  0
 24 25  2  0
 24 23  1  0
 25 26  1  0
 26 22  1  0
 27 25  1  0
 28 27  2  0
 29 28  1  0
 30 29  2  0
 30 31  1  0
 31 32  2  0
 32 27  1  0
  2 33  1  0
  6 34  1  0
 10 35  1  0
 11 36  1  0
 15 37  1  0
 16 38  1  0
 20 39  1  0
 20 40  1  0
 21 41  1  0
 21 42  1  0
 23 43  1  0
 24 44  1  0
 28 45  1  0
 29 46  1  0
 30 47  1  0
 31 48  1  0
M  END
>  <Score>  (1) 
-7.85675

$$$$
