
     RDKit          3D

 38 41  0  0  0  0  0  0  0  0999 V2000
   40.4660   66.2520   63.9930 C   0  0  0  0  0  0  0  0  0  0  0  0
   40.2400   66.1690   62.6330 C   0  0  0  0  0  0  0  0  0  0  0  0
   40.7550   67.1540   61.8800 C   0  0  0  0  0  0  0  0  0  0  0  0
   41.4550   68.1520   62.4730 C   0  0  0  0  0  0  0  0  0  0  0  0
   41.4080   67.7110   64.2350 S   0  0  0  0  0  0  0  0  0  0  0  0
   40.0110   65.3310   65.0360 C   0  0  0  0  0  0  0  0  0  0  0  0
   40.0100   65.6820   66.3920 C   0  0  0  0  0  0  0  0  0  0  0  0
   39.5470   64.7240   67.2870 C   0  0  0  0  0  0  0  0  0  0  0  0
   39.1260   63.5210   66.8110 N   0  0  0  0  0  0  0  0  0  0  0  0
   39.1420   63.2170   65.4930 C   0  0  0  0  0  0  0  0  0  0  0  0
   39.5870   64.1430   64.6470 N   0  0  0  0  0  0  0  0  0  0  0  0
   38.6970   61.9540   65.0140 N   0  0  0  0  0  0  0  0  0  0  0  0
   42.1100   69.3070   61.9350 N   0  0  0  0  0  0  0  0  0  0  0  0
   41.7970   70.4910   62.3850 C   0  0  0  0  0  0  0  0  0  0  0  0
   42.4200   71.6110   61.8740 C   0  0  0  0  0  0  0  0  0  0  0  0
   43.3430   71.4390   60.9120 C   0  0  0  0  0  0  0  0  0  0  0  0
   43.9210   72.4530   60.4360 O   0  0  0  0  0  0  0  0  0  0  0  0
   43.6300   70.1850   60.4800 N   0  0  0  0  0  0  0  0  0  0  0  0
   43.0100   69.0870   60.9910 C   0  0  0  0  0  0  0  0  0  0  0  0
   43.3530   67.9680   60.5130 O   0  0  0  0  0  0  0  0  0  0  0  0
   41.9700   72.9080   62.4310 C   0  0  0  0  0  0  0  0  0  0  0  0
   40.9540   73.3800   61.4790 N   0  0  0  0  0  0  0  0  0  0  0  0
   41.0230   74.1660   60.3980 C   0  0  0  0  0  0  0  0  0  0  0  0
   39.8010   74.3110   59.8410 N   0  0  0  0  0  0  0  0  0  0  0  0
   38.9590   73.5750   60.6260 C   0  0  0  0  0  0  0  0  0  0  0  0
   39.7010   73.0280   61.6070 N   0  0  0  0  0  0  0  0  0  0  0  0
   39.6684   65.3399   62.1903 H   0  0  0  0  0  0  0  0  0  0  0  0
   40.6100   67.1512   60.7896 H   0  0  0  0  0  0  0  0  0  0  0  0
   40.3587   66.6681   66.7324 H   0  0  0  0  0  0  0  0  0  0  0  0
   39.5214   64.9360   68.3661 H   0  0  0  0  0  0  0  0  0  0  0  0
   38.7200   61.7487   64.0049 H   0  0  0  0  0  0  0  0  0  0  0  0
   38.3517   61.2446   65.6762 H   0  0  0  0  0  0  0  0  0  0  0  0
   41.0360   70.5963   63.1722 H   0  0  0  0  0  0  0  0  0  0  0  0
   44.3387   70.0607   59.7429 H   0  0  0  0  0  0  0  0  0  0  0  0
   41.5331   72.7718   63.4313 H   0  0  0  0  0  0  0  0  0  0  0  0
   42.7972   73.6231   62.5514 H   0  0  0  0  0  0  0  0  0  0  0  0
   41.9452   74.6289   60.0167 H   0  0  0  0  0  0  0  0  0  0  0  0
   37.8753   73.4522   60.4828 H   0  0  0  0  0  0  0  0  0  0  0  0
  1  5  1  0
  1  6  1  0
  2  1  2  0
  3  4  2  0
  3  2  1  0
  4  5  1  0
  6  7  2  0
  7  8  1  0
  9  8  2  0
 10  9  1  0
 11  6  1  0
 11 10  2  0
 12 10  1  0
 13 14  1  0
 13  4  1  0
 15 14  2  0
 15 21  1  0
 16 15  1  0
 17 16  2  0
 18 16  1  0
 18 19  1  0
 19 13  1  0
 20 19  2  0
 22 26  1  0
 22 21  1  0
 23 22  1  0
 24 23  2  0
 24 25  1  0
 25 26  2  0
  2 27  1  0
  3 28  1  0
  7 29  1  0
  8 30  1  0
 12 31  1  0
 12 32  1  0
 14 33  1  0
 18 34  1  0
 21 35  1  0
 21 36  1  0
 23 37  1  0
 25 38  1  0
M  END
>  <Score>  (1) 
-7.33305

$$$$
