
     RDKit          3D

 38 42  0  0  0  0  0  0  0  0999 V2000
   41.6430   66.3770   62.4220 C   0  0  0  0  0  0  0  0  0  0  0  0
   40.8530   66.9230   61.4030 C   0  0  0  0  0  0  0  0  0  0  0  0
   41.3040   66.6890   60.0900 C   0  0  0  0  0  0  0  0  0  0  0  0
   42.4270   65.9820   59.8780 N   0  0  0  0  0  0  0  0  0  0  0  0
   43.1730   65.4650   60.8760 C   0  0  0  0  0  0  0  0  0  0  0  0
   42.7240   65.7000   62.1060 N   0  0  0  0  0  0  0  0  0  0  0  0
   41.2180   66.6020   63.8040 C   0  0  0  0  0  0  0  0  0  0  0  0
   41.4590   67.7390   64.5890 C   0  0  0  0  0  0  0  0  0  0  0  0
   40.8880   67.5300   65.7940 N   0  0  0  0  0  0  0  0  0  0  0  0
   40.2940   66.3100   65.8150 C   0  0  0  0  0  0  0  0  0  0  0  0
   39.5860   65.6310   66.7950 C   0  0  0  0  0  0  0  0  0  0  0  0
   39.0720   64.3660   66.5550 C   0  0  0  0  0  0  0  0  0  0  0  0
   39.2780   63.7760   65.3030 C   0  0  0  0  0  0  0  0  0  0  0  0
   39.9860   64.4560   64.3270 C   0  0  0  0  0  0  0  0  0  0  0  0
   40.4980   65.7190   64.5670 C   0  0  0  0  0  0  0  0  0  0  0  0
   44.4050   64.6770   60.8790 C   0  0  0  0  0  0  0  0  0  0  0  0
   45.5160   65.0080   61.5840 N   0  0  0  0  0  0  0  0  0  0  0  0
   46.6420   64.2990   61.5940 C   0  0  0  0  0  0  0  0  0  0  0  0
   46.7620   63.1650   60.8820 N   0  0  0  0  0  0  0  0  0  0  0  0
   45.7110   62.7360   60.1380 C   0  0  0  0  0  0  0  0  0  0  0  0
   45.8430   61.5730   59.4110 C   0  0  0  0  0  0  0  0  0  0  0  0
   44.7910   61.1140   58.6480 C   0  0  0  0  0  0  0  0  0  0  0  0
   43.6210   61.8730   58.6520 C   0  0  0  0  0  0  0  0  0  0  0  0
   43.5600   63.0200   59.3980 C   0  0  0  0  0  0  0  0  0  0  0  0
   44.5800   63.5130   60.1710 C   0  0  0  0  0  0  0  0  0  0  0  0
   39.9392   67.4976   61.6146 H   0  0  0  0  0  0  0  0  0  0  0  0
   40.7359   67.0858   59.2357 H   0  0  0  0  0  0  0  0  0  0  0  0
   42.0126   68.6376   64.2790 H   0  0  0  0  0  0  0  0  0  0  0  0
   40.9011   68.1962   66.5794 H   0  0  0  0  0  0  0  0  0  0  0  0
   39.4300   66.1026   67.7765 H   0  0  0  0  0  0  0  0  0  0  0  0
   38.5106   63.8340   67.3372 H   0  0  0  0  0  0  0  0  0  0  0  0
   38.8777   62.7728   65.0946 H   0  0  0  0  0  0  0  0  0  0  0  0
   40.1440   63.9851   63.3455 H   0  0  0  0  0  0  0  0  0  0  0  0
   47.4927   64.6482   62.1977 H   0  0  0  0  0  0  0  0  0  0  0  0
   46.7881   61.0108   59.4396 H   0  0  0  0  0  0  0  0  0  0  0  0
   44.8709   60.1876   58.0603 H   0  0  0  0  0  0  0  0  0  0  0  0
   42.7518   61.5521   58.0591 H   0  0  0  0  0  0  0  0  0  0  0  0
   42.6196   63.5902   59.3754 H   0  0  0  0  0  0  0  0  0  0  0  0
  1  7  1  0
  2  1  2  0
  3  2  1  0
  4  3  2  0
  4  5  1  0
  5 16  1  0
  5  6  2  0
  6  1  1  0
  7 15  1  0
  7  8  2  0
  8  9  1  0
  9 10  1  0
 10 11  2  0
 12 11  1  0
 13 12  2  0
 14 15  2  0
 14 13  1  0
 15 10  1  0
 16 17  2  0
 17 18  1  0
 19 18  2  0
 20 25  2  0
 20 19  1  0
 21 20  1  0
 22 23  1  0
 22 21  2  0
 23 24  2  0
 24 25  1  0
 25 16  1  0
  2 26  1  0
  3 27  1  0
  8 28  1  0
  9 29  1  0
 11 30  1  0
 12 31  1  0
 13 32  1  0
 14 33  1  0
 18 34  1  0
 21 35  1  0
 22 36  1  0
 23 37  1  0
 24 38  1  0
M  END
>  <Score>  (1) 
-7.17046

$$$$
