
     RDKit          3D

 44 48  0  0  0  0  0  0  0  0999 V2000
   41.9690   69.4530   62.0450 C   0  0  0  0  0  0  0  0  0  0  0  0
   41.9850   70.3990   63.0490 C   0  0  0  0  0  0  0  0  0  0  0  0
   42.2820   71.6140   62.4580 C   0  0  0  0  0  0  0  0  0  0  0  0
   42.4320   71.3360   61.1200 C   0  0  0  0  0  0  0  0  0  0  0  0
   42.2400   70.0630   60.9290 O   0  0  0  0  0  0  0  0  0  0  0  0
   40.9170   66.1960   63.5480 C   0  0  0  0  0  0  0  0  0  0  0  0
   41.1840   67.5410   63.3620 C   0  0  0  0  0  0  0  0  0  0  0  0
   41.7050   68.0500   62.1980 C   0  0  0  0  0  0  0  0  0  0  0  0
   41.9560   67.1630   61.2050 N   0  0  0  0  0  0  0  0  0  0  0  0
   41.7020   65.8470   61.3690 C   0  0  0  0  0  0  0  0  0  0  0  0
   41.1900   65.3710   62.5240 N   0  0  0  0  0  0  0  0  0  0  0  0
   40.3760   65.6450   64.7520 C   0  0  0  0  0  0  0  0  0  0  0  0
   40.3490   66.4270   65.8720 C   0  0  0  0  0  0  0  0  0  0  0  0
   39.8360   65.9540   67.0720 C   0  0  0  0  0  0  0  0  0  0  0  0
   39.3320   64.6630   67.1740 C   0  0  0  0  0  0  0  0  0  0  0  0
   39.3510   63.8620   66.0580 C   0  0  0  0  0  0  0  0  0  0  0  0
   39.8600   64.3430   64.8810 C   0  0  0  0  0  0  0  0  0  0  0  0
   42.7530   72.3090   60.0840 C   0  0  0  0  0  0  0  0  0  0  0  0
   42.6820   71.9880   58.8750 O   0  0  0  0  0  0  0  0  0  0  0  0
   43.1380   73.5920   60.4290 O   0  0  0  0  0  0  0  0  0  0  0  0
   42.7690   74.6700   59.6350 C   0  0  0  0  0  0  0  0  0  0  0  0
   43.5080   75.3680   58.6780 C   0  0  0  0  0  0  0  0  0  0  0  0
   42.7530   76.3550   58.1410 N   0  0  0  0  0  0  0  0  0  0  0  0
   41.5300   76.3200   58.7250 C   0  0  0  0  0  0  0  0  0  0  0  0
   40.4140   77.1200   58.5180 C   0  0  0  0  0  0  0  0  0  0  0  0
   39.3000   76.8280   59.2810 C   0  0  0  0  0  0  0  0  0  0  0  0
   39.2240   75.8260   60.2090 C   0  0  0  0  0  0  0  0  0  0  0  0
   40.3590   75.0540   60.3840 C   0  0  0  0  0  0  0  0  0  0  0  0
   41.5200   75.2940   59.6450 C   0  0  0  0  0  0  0  0  0  0  0  0
   41.7970   70.2208   64.1181 H   0  0  0  0  0  0  0  0  0  0  0  0
   42.3776   72.5920   62.9523 H   0  0  0  0  0  0  0  0  0  0  0  0
   40.9684   68.2362   64.1867 H   0  0  0  0  0  0  0  0  0  0  0  0
   41.9163   65.1495   60.5459 H   0  0  0  0  0  0  0  0  0  0  0  0
   40.7421   67.4531   65.8218 H   0  0  0  0  0  0  0  0  0  0  0  0
   39.8283   66.6104   67.9547 H   0  0  0  0  0  0  0  0  0  0  0  0
   38.9270   64.2909   68.1266 H   0  0  0  0  0  0  0  0  0  0  0  0
   38.9580   62.8359   66.1097 H   0  0  0  0  0  0  0  0  0  0  0  0
   39.8655   63.6839   64.0003 H   0  0  0  0  0  0  0  0  0  0  0  0
   44.5497   75.1484   58.4013 H   0  0  0  0  0  0  0  0  0  0  0  0
   43.0557   77.0186   57.4137 H   0  0  0  0  0  0  0  0  0  0  0  0
   40.4168   77.9414   57.7864 H   0  0  0  0  0  0  0  0  0  0  0  0
   38.4048   77.4494   59.1306 H   0  0  0  0  0  0  0  0  0  0  0  0
   38.3064   75.6430   60.7873 H   0  0  0  0  0  0  0  0  0  0  0  0
   40.3468   74.2357   61.1190 H   0  0  0  0  0  0  0  0  0  0  0  0
  1  8  1  0
  1  2  2  0
  3  2  1  0
  4  3  2  0
  5  4  1  0
  5  1  1  0
  6 12  1  0
  7  6  2  0
  8  7  1  0
  9 10  1  0
  9  8  2  0
 10 11  2  0
 11  6  1  0
 12 17  1  0
 12 13  2  0
 13 14  1  0
 14 15  2  0
 16 15  1  0
 17 16  2  0
 18 20  1  0
 18  4  1  0
 19 18  2  0
 21 29  1  0
 21 20  1  0
 22 21  2  0
 23 22  1  0
 23 24  1  0
 24 29  2  0
 25 24  1  0
 25 26  2  0
 26 27  1  0
 27 28  2  0
 29 28  1  0
  2 30  1  0
  3 31  1  0
  7 32  1  0
 10 33  1  0
 13 34  1  0
 14 35  1  0
 15 36  1  0
 16 37  1  0
 17 38  1  0
 22 39  1  0
 23 40  1  0
 25 41  1  0
 26 42  1  0
 27 43  1  0
 28 44  1  0
M  END
>  <Score>  (1) 
-8.11457

$$$$
