
     RDKit          3D

 41 45  0  0  0  0  0  0  0  0999 V2000
   40.9840   66.1710   63.4560 C   0  0  0  0  0  0  0  0  0  0  0  0
   41.1080   67.5530   63.3580 C   0  0  0  0  0  0  0  0  0  0  0  0
   41.7060   68.1400   62.2600 C   0  0  0  0  0  0  0  0  0  0  0  0
   42.1700   67.3220   61.2740 N   0  0  0  0  0  0  0  0  0  0  0  0
   42.0420   65.9900   61.3840 C   0  0  0  0  0  0  0  0  0  0  0  0
   41.4560   65.4190   62.4620 N   0  0  0  0  0  0  0  0  0  0  0  0
   40.3720   65.5210   64.5830 C   0  0  0  0  0  0  0  0  0  0  0  0
   40.4000   66.1620   65.7990 C   0  0  0  0  0  0  0  0  0  0  0  0
   39.8230   65.5820   66.9360 C   0  0  0  0  0  0  0  0  0  0  0  0
   39.2090   64.3490   66.8610 C   0  0  0  0  0  0  0  0  0  0  0  0
   39.1720   63.6940   65.6470 C   0  0  0  0  0  0  0  0  0  0  0  0
   39.7420   64.2720   64.5390 C   0  0  0  0  0  0  0  0  0  0  0  0
   41.8390   69.5740   62.1680 C   0  0  0  0  0  0  0  0  0  0  0  0
   42.3010   70.4150   63.1590 C   0  0  0  0  0  0  0  0  0  0  0  0
   42.2510   71.6860   62.6220 C   0  0  0  0  0  0  0  0  0  0  0  0
   41.7700   71.5570   61.3540 C   0  0  0  0  0  0  0  0  0  0  0  0
   41.5450   70.3030   61.1420 O   0  0  0  0  0  0  0  0  0  0  0  0
   41.4940   72.5160   60.3030 C   0  0  0  0  0  0  0  0  0  0  0  0
   41.9770   72.4410   59.0020 C   0  0  0  0  0  0  0  0  0  0  0  0
   41.5540   73.4730   58.2490 N   0  0  0  0  0  0  0  0  0  0  0  0
   40.7810   74.2720   59.0030 C   0  0  0  0  0  0  0  0  0  0  0  0
   40.1010   75.4440   58.7500 C   0  0  0  0  0  0  0  0  0  0  0  0
   39.3660   76.0740   59.7210 C   0  0  0  0  0  0  0  0  0  0  0  0
   39.3370   75.4790   60.9720 C   0  0  0  0  0  0  0  0  0  0  0  0
   40.0240   74.3080   61.2070 C   0  0  0  0  0  0  0  0  0  0  0  0
   40.7600   73.6720   60.2430 C   0  0  0  0  0  0  0  0  0  0  0  0
   40.7233   68.1892   64.1687 H   0  0  0  0  0  0  0  0  0  0  0  0
   42.4231   65.3465   60.5774 H   0  0  0  0  0  0  0  0  0  0  0  0
   40.8835   67.1467   65.8803 H   0  0  0  0  0  0  0  0  0  0  0  0
   39.8598   66.1147   67.8977 H   0  0  0  0  0  0  0  0  0  0  0  0
   38.7561   63.8951   67.7548 H   0  0  0  0  0  0  0  0  0  0  0  0
   38.6866   62.7102   65.5667 H   0  0  0  0  0  0  0  0  0  0  0  0
   39.7018   63.7329   63.5810 H   0  0  0  0  0  0  0  0  0  0  0  0
   42.6388   70.1320   64.1669 H   0  0  0  0  0  0  0  0  0  0  0  0
   42.5430   72.6216   63.1214 H   0  0  0  0  0  0  0  0  0  0  0  0
   42.6272   71.6346   58.6321 H   0  0  0  0  0  0  0  0  0  0  0  0
   41.7851   73.6253   57.2569 H   0  0  0  0  0  0  0  0  0  0  0  0
   40.1492   75.8851   57.7435 H   0  0  0  0  0  0  0  0  0  0  0  0
   38.8241   77.0091   59.5162 H   0  0  0  0  0  0  0  0  0  0  0  0
   38.7606   75.9455   61.7845 H   0  0  0  0  0  0  0  0  0  0  0  0
   39.9794   73.8647   62.2127 H   0  0  0  0  0  0  0  0  0  0  0  0
  1  7  1  0
  2  1  2  0
  3  2  1  0
  4  5  1  0
  4  3  2  0
  5  6  2  0
  6  1  1  0
  7  8  2  0
  8  9  1  0
 10  9  2  0
 11 10  1  0
 12  7  1  0
 12 11  2  0
 13  3  1  0
 13 14  2  0
 15 14  1  0
 16 15  2  0
 17 16  1  0
 17 13  1  0
 18 16  1  0
 19 18  2  0
 20 19  1  0
 20 21  1  0
 21 26  2  0
 22 21  1  0
 22 23  2  0
 23 24  1  0
 24 25  2  0
 26 18  1  0
 26 25  1  0
  2 27  1  0
  5 28  1  0
  8 29  1  0
  9 30  1  0
 10 31  1  0
 11 32  1  0
 12 33  1  0
 14 34  1  0
 15 35  1  0
 19 36  1  0
 20 37  1  0
 22 38  1  0
 23 39  1  0
 24 40  1  0
 25 41  1  0
M  END
>  <Score>  (1) 
-8.28495

$$$$
