
     RDKit          3D

 47 51  0  0  1  0  0  0  0  0999 V2000
   41.5760   66.3450   62.3840 C   0  0  0  0  0  0  0  0  0  0  0  0
   40.9430   67.1250   61.4030 C   0  0  0  0  0  0  0  0  0  0  0  0
   41.3050   66.8960   60.0650 C   0  0  0  0  0  0  0  0  0  0  0  0
   42.2250   65.9610   59.7790 N   0  0  0  0  0  0  0  0  0  0  0  0
   42.8260   65.2150   60.7710 C   0  0  0  0  0  0  0  0  0  0  0  0
   42.4960   65.4170   62.0500 N   0  0  0  0  0  0  0  0  0  0  0  0
   43.7880   64.2220   60.3980 N   0  0  0  0  0  0  0  0  0  0  0  0
   45.0990   63.9560   60.6480 C   0  0  0  0  0  0  0  0  0  0  0  0
   45.4110   62.7970   59.9630 N   0  0  0  0  0  0  0  0  0  0  0  0
   44.3270   62.4370   59.3130 C   0  0  0  0  0  0  0  0  0  0  0  0
   43.3020   63.2860   59.5540 N   0  0  0  0  0  0  0  0  0  0  0  0
   41.2050   66.5730   63.7800 C   0  0  0  0  0  0  0  0  0  0  0  0
   41.4990   67.6880   64.5600 C   0  0  0  0  0  0  0  0  0  0  0  0
   40.9740   67.4890   65.7720 N   0  0  0  0  0  0  0  0  0  0  0  0
   40.3390   66.2700   65.8180 C   0  0  0  0  0  0  0  0  0  0  0  0
   39.6470   65.6020   66.8270 C   0  0  0  0  0  0  0  0  0  0  0  0
   39.1000   64.3430   66.5630 C   0  0  0  0  0  0  0  0  0  0  0  0
   39.2400   63.7640   65.3200 C   0  0  0  0  0  0  0  0  0  0  0  0
   39.9250   64.4320   64.3280 C   0  0  0  0  0  0  0  0  0  0  0  0
   40.4850   65.6970   64.5670 C   0  0  0  0  0  0  0  0  0  0  0  0
   44.4400   61.3190   58.4900 C   0  0  0  0  0  0  0  0  0  0  0  0
   43.8790   61.2590   57.3640 O   0  0  0  0  0  0  0  0  0  0  0  0
   45.0460   60.0880   58.4920 O   0  0  0  0  0  0  0  0  0  0  0  0
   43.1300   59.0960   59.1930 N   0  0  0  0  0  0  0  0  0  0  0  0
   42.5040   57.8120   58.9740 C   0  0  0  0  0  0  0  0  0  0  0  0
   43.4080   57.0150   58.0960 C   0  0  0  0  0  0  0  0  0  0  0  0
   44.6320   57.8530   57.8420 C   0  0  0  0  0  0  0  0  0  0  0  0
   44.5640   58.8830   58.9440 C   0  0  1  0  0  0  0  0  0  0  0  0
   40.1940   67.8846   61.6712 H   0  0  0  0  0  0  0  0  0  0  0  0
   40.8379   67.4787   59.2574 H   0  0  0  0  0  0  0  0  0  0  0  0
   45.7277   64.7860   60.2933 H   0  0  0  0  0  0  0  0  0  0  0  0
   45.2778   63.8361   61.7267 H   0  0  0  0  0  0  0  0  0  0  0  0
   42.3470   63.2302   59.1723 H   0  0  0  0  0  0  0  0  0  0  0  0
   42.0632   68.5749   64.2359 H   0  0  0  0  0  0  0  0  0  0  0  0
   41.0358   68.1520   66.5578 H   0  0  0  0  0  0  0  0  0  0  0  0
   39.5326   66.0607   67.8202 H   0  0  0  0  0  0  0  0  0  0  0  0
   38.5529   63.8096   67.3543 H   0  0  0  0  0  0  0  0  0  0  0  0
   38.8068   62.7728   65.1206 H   0  0  0  0  0  0  0  0  0  0  0  0
   40.0343   63.9682   63.3366 H   0  0  0  0  0  0  0  0  0  0  0  0
   42.7516   59.7968   58.5398 H   0  0  0  0  0  0  0  0  0  0  0  0
   42.3620   57.2950   59.9345 H   0  0  0  0  0  0  0  0  0  0  0  0
   41.5184   57.9376   58.5021 H   0  0  0  0  0  0  0  0  0  0  0  0
   43.6903   56.0774   58.5973 H   0  0  0  0  0  0  0  0  0  0  0  0
   42.9077   56.7571   57.1509 H   0  0  0  0  0  0  0  0  0  0  0  0
   45.5486   57.2498   57.9190 H   0  0  0  0  0  0  0  0  0  0  0  0
   44.6581   58.2932   56.8343 H   0  0  0  0  0  0  0  0  0  0  0  0
   45.1357   58.5479   59.8220 H   0  0  0  0  0  0  0  0  0  0  0  0
  1 12  1  0
  2  1  2  0
  3  2  1  0
  4  3  2  0
  4  5  1  0
  5  6  2  0
  6  1  1  0
  7  8  1  0
  7  5  1  0
  9  8  1  0
 10 11  1  0
 10  9  2  0
 11  7  1  0
 12 13  2  0
 12 20  1  0
 13 14  1  0
 14 15  1  0
 15 16  2  0
 17 16  1  0
 18 17  2  0
 19 20  2  0
 19 18  1  0
 20 15  1  0
 21 23  1  0
 21 10  1  0
 22 21  2  0
 25 24  1  0
 26 25  1  0
 27 26  1  0
 27 28  1  0
 28 23  1  0
 28 24  1  0
  2 29  1  0
  3 30  1  0
  8 31  1  0
  8 32  1  0
 11 33  1  0
 13 34  1  0
 14 35  1  0
 16 36  1  0
 17 37  1  0
 18 38  1  0
 19 39  1  0
 24 40  1  0
 25 41  1  0
 25 42  1  0
 26 43  1  0
 26 44  1  0
 27 45  1  0
 27 46  1  0
 28 47  1  1
M  END
>  <Score>  (1) 
-7.02759

$$$$
