
     RDKit          3D

 45 49  0  0  0  0  0  0  0  0999 V2000
   41.5370   68.0580   58.4010 C   0  0  0  0  0  0  0  0  0  0  0  0
   41.8490   67.5940   59.6930 C   0  0  0  0  0  0  0  0  0  0  0  0
   41.9320   68.4380   60.8060 C   0  0  0  0  0  0  0  0  0  0  0  0
   41.6760   69.7750   60.5030 N   0  0  0  0  0  0  0  0  0  0  0  0
   41.3740   70.1980   59.2360 C   0  0  0  0  0  0  0  0  0  0  0  0
   41.3120   69.3500   58.2260 N   0  0  0  0  0  0  0  0  0  0  0  0
   42.2390   68.1850   62.1510 C   0  0  0  0  0  0  0  0  0  0  0  0
   43.5860   68.4290   62.4930 C   0  0  0  0  0  0  0  0  0  0  0  0
   44.0860   68.2410   63.7810 C   0  0  0  0  0  0  0  0  0  0  0  0
   43.2420   67.7990   64.7660 C   0  0  0  0  0  0  0  0  0  0  0  0
   41.9050   67.5410   64.4880 C   0  0  0  0  0  0  0  0  0  0  0  0
   41.0350   67.1030   65.4490 C   0  0  0  0  0  0  0  0  0  0  0  0
   39.7240   66.8460   65.2060 C   0  0  0  0  0  0  0  0  0  0  0  0
   39.3210   67.0610   63.9060 C   0  0  0  0  0  0  0  0  0  0  0  0
   40.1960   67.5030   62.9360 C   0  0  0  0  0  0  0  0  0  0  0  0
   41.4940   67.7530   63.1970 C   0  0  0  0  0  0  0  0  0  0  0  0
   41.1190   71.6220   59.0420 C   0  0  0  0  0  0  0  0  0  0  0  0
   40.1660   72.1140   58.1860 C   0  0  0  0  0  0  0  0  0  0  0  0
   40.2660   73.5130   58.3200 C   0  0  0  0  0  0  0  0  0  0  0  0
   41.2650   73.7570   59.2370 C   0  0  0  0  0  0  0  0  0  0  0  0
   41.7470   72.5910   59.6420 O   0  0  0  0  0  0  0  0  0  0  0  0
   39.3900   74.3930   57.5790 C   0  0  0  0  0  0  0  0  0  0  0  0
   38.1550   74.8250   58.0080 C   0  0  0  0  0  0  0  0  0  0  0  0
   37.5490   75.6460   57.0940 C   0  0  0  0  0  0  0  0  0  0  0  0
   38.4100   75.7270   56.0950 N   0  0  0  0  0  0  0  0  0  0  0  0
   39.4310   75.0080   56.4090 N   0  0  0  0  0  0  0  0  0  0  0  0
   41.7880   74.9040   59.7480 O   0  0  0  0  0  0  0  0  0  0  0  0
   41.6230   76.1940   59.3180 C   0  0  0  0  0  0  0  0  0  0  0  0
   42.3580   76.7470   58.2370 N   0  0  0  0  0  0  0  0  0  0  0  0
   40.7390   76.4600   60.1790 O   0  0  0  0  0  0  0  0  0  0  0  0
   41.4813   67.3596   57.5530 H   0  0  0  0  0  0  0  0  0  0  0  0
   42.0360   66.5192   59.8340 H   0  0  0  0  0  0  0  0  0  0  0  0
   44.2717   68.7831   61.7092 H   0  0  0  0  0  0  0  0  0  0  0  0
   45.1438   68.4448   64.0035 H   0  0  0  0  0  0  0  0  0  0  0  0
   43.6261   67.6471   65.7855 H   0  0  0  0  0  0  0  0  0  0  0  0
   41.4167   66.9515   66.4695 H   0  0  0  0  0  0  0  0  0  0  0  0
   39.0356   66.4928   65.9879 H   0  0  0  0  0  0  0  0  0  0  0  0
   38.2715   66.8748   63.6342 H   0  0  0  0  0  0  0  0  0  0  0  0
   39.8211   67.6568   61.9134 H   0  0  0  0  0  0  0  0  0  0  0  0
   39.4797   71.5452   57.5414 H   0  0  0  0  0  0  0  0  0  0  0  0
   37.7071   74.5436   58.9725 H   0  0  0  0  0  0  0  0  0  0  0  0
   36.5645   76.1302   57.1740 H   0  0  0  0  0  0  0  0  0  0  0  0
   38.2872   76.2657   55.2257 H   0  0  0  0  0  0  0  0  0  0  0  0
   42.1975   77.7234   57.9512 H   0  0  0  0  0  0  0  0  0  0  0  0
   43.0519   76.1719   57.7384 H   0  0  0  0  0  0  0  0  0  0  0  0
  1  2  2  0
  2  3  1  0
  3  7  1  0
  4  3  2  0
  5  4  1  0
  6  1  1  0
  6  5  2  0
  7  8  2  0
  7 16  1  0
  8  9  1  0
  9 10  2  0
 11 10  1  0
 11 12  2  0
 13 12  1  0
 14 13  2  0
 15 16  2  0
 15 14  1  0
 16 11  1  0
 17  5  1  0
 17 21  1  0
 18 19  1  0
 18 17  2  0
 19 20  2  0
 20 21  1  0
 20 27  1  0
 22 23  1  0
 22 19  1  0
 24 23  2  0
 25 26  1  0
 25 24  1  0
 26 22  2  0
 28 27  1  0
 28 30  2  0
 29 28  1  0
  1 31  1  0
  2 32  1  0
  8 33  1  0
  9 34  1  0
 10 35  1  0
 12 36  1  0
 13 37  1  0
 14 38  1  0
 15 39  1  0
 18 40  1  0
 23 41  1  0
 24 42  1  0
 25 43  1  0
 29 44  1  0
 29 45  1  0
M  END
>  <Score>  (1) 
-7.27107

$$$$
