
     RDKit          3D

 42 46  0  0  0  0  0  0  0  0999 V2000
   41.5330   66.2910   62.4540 C   0  0  0  0  0  0  0  0  0  0  0  0
   40.8570   67.0170   61.4580 C   0  0  0  0  0  0  0  0  0  0  0  0
   41.2170   66.7730   60.1250 C   0  0  0  0  0  0  0  0  0  0  0  0
   42.1830   65.8650   59.8570 N   0  0  0  0  0  0  0  0  0  0  0  0
   42.8200   65.1760   60.8440 C   0  0  0  0  0  0  0  0  0  0  0  0
   42.4800   65.4070   62.1140 N   0  0  0  0  0  0  0  0  0  0  0  0
   43.8310   64.2300   60.4920 N   0  0  0  0  0  0  0  0  0  0  0  0
   45.1440   64.0540   60.6830 C   0  0  0  0  0  0  0  0  0  0  0  0
   45.5480   62.9240   60.0780 N   0  0  0  0  0  0  0  0  0  0  0  0
   44.4580   62.3790   59.4920 C   0  0  0  0  0  0  0  0  0  0  0  0
   43.4030   63.1910   59.7520 N   0  0  0  0  0  0  0  0  0  0  0  0
   44.3340   61.1690   58.7150 N   0  0  0  0  0  0  0  0  0  0  0  0
   43.8090   60.0750   59.2950 C   0  0  0  0  0  0  0  0  0  0  0  0
   43.6890   58.9040   58.5460 C   0  0  0  0  0  0  0  0  0  0  0  0
   44.1210   58.9360   57.2360 C   0  0  0  0  0  0  0  0  0  0  0  0
   44.0160   57.8780   56.5450 O   0  0  0  0  0  0  0  0  0  0  0  0
   44.6310   60.0620   56.7290 N   0  0  0  0  0  0  0  0  0  0  0  0
   44.7600   61.2170   57.4410 C   0  0  0  0  0  0  0  0  0  0  0  0
   45.2460   62.2560   56.9290 O   0  0  0  0  0  0  0  0  0  0  0  0
   41.1650   66.5410   63.8390 C   0  0  0  0  0  0  0  0  0  0  0  0
   41.4390   67.6820   64.5990 C   0  0  0  0  0  0  0  0  0  0  0  0
   40.9200   67.4930   65.8230 N   0  0  0  0  0  0  0  0  0  0  0  0
   40.3130   66.2710   65.8960 C   0  0  0  0  0  0  0  0  0  0  0  0
   39.6370   65.5960   66.9060 C   0  0  0  0  0  0  0  0  0  0  0  0
   39.1120   64.3340   66.6910 C   0  0  0  0  0  0  0  0  0  0  0  0
   39.2630   63.7290   65.4470 C   0  0  0  0  0  0  0  0  0  0  0  0
   39.9320   64.3870   64.4340 C   0  0  0  0  0  0  0  0  0  0  0  0
   40.4660   65.6690   64.6470 C   0  0  0  0  0  0  0  0  0  0  0  0
   40.0760   67.7480   61.7144 H   0  0  0  0  0  0  0  0  0  0  0  0
   40.7195   67.3139   59.3065 H   0  0  0  0  0  0  0  0  0  0  0  0
   45.6917   64.9094   60.2607 H   0  0  0  0  0  0  0  0  0  0  0  0
   45.3456   63.9786   61.7617 H   0  0  0  0  0  0  0  0  0  0  0  0
   42.4349   63.0376   59.4355 H   0  0  0  0  0  0  0  0  0  0  0  0
   43.4792   60.1030   60.3440 H   0  0  0  0  0  0  0  0  0  0  0  0
   43.2653   57.9883   58.9841 H   0  0  0  0  0  0  0  0  0  0  0  0
   44.9434   60.0569   55.7475 H   0  0  0  0  0  0  0  0  0  0  0  0
   41.9824   68.5747   64.2558 H   0  0  0  0  0  0  0  0  0  0  0  0
   40.9720   68.1718   66.5959 H   0  0  0  0  0  0  0  0  0  0  0  0
   39.5178   66.0721   67.8904 H   0  0  0  0  0  0  0  0  0  0  0  0
   38.5783   63.8119   67.4988 H   0  0  0  0  0  0  0  0  0  0  0  0
   38.8489   62.7253   65.2704 H   0  0  0  0  0  0  0  0  0  0  0  0
   40.0478   63.9037   63.4526 H   0  0  0  0  0  0  0  0  0  0  0  0
  1 20  1  0
  2  1  2  0
  3  2  1  0
  4  3  2  0
  4  5  1  0
  5  6  2  0
  6  1  1  0
  7  8  1  0
  7  5  1  0
  9  8  1  0
 10 11  1  0
 10  9  2  0
 11  7  1  0
 12 13  1  0
 12 10  1  0
 14 13  2  0
 15 14  1  0
 16 15  2  0
 17 15  1  0
 17 18  1  0
 18 12  1  0
 19 18  2  0
 20 21  2  0
 20 28  1  0
 21 22  1  0
 22 23  1  0
 23 24  2  0
 25 24  1  0
 26 25  2  0
 27 28  2  0
 27 26  1  0
 28 23  1  0
  2 29  1  0
  3 30  1  0
  8 31  1  0
  8 32  1  0
 11 33  1  0
 13 34  1  0
 14 35  1  0
 17 36  1  0
 21 37  1  0
 22 38  1  0
 24 39  1  0
 25 40  1  0
 26 41  1  0
 27 42  1  0
M  END
>  <Score>  (1) 
-8.18283

$$$$
