
     RDKit          3D

 53 57  0  0  0  0  0  0  0  0999 V2000
   41.2980   67.7390   58.4890 C   0  0  0  0  0  0  0  0  0  0  0  0
   41.6030   67.3330   59.8010 C   0  0  0  0  0  0  0  0  0  0  0  0
   41.8440   68.2530   60.8360 C   0  0  0  0  0  0  0  0  0  0  0  0
   41.7460   69.5680   60.4280 N   0  0  0  0  0  0  0  0  0  0  0  0
   41.4490   69.9350   59.1510 C   0  0  0  0  0  0  0  0  0  0  0  0
   41.2330   69.0330   58.2190 N   0  0  0  0  0  0  0  0  0  0  0  0
   42.1760   68.0580   62.1890 C   0  0  0  0  0  0  0  0  0  0  0  0
   43.5270   68.3380   62.4970 C   0  0  0  0  0  0  0  0  0  0  0  0
   44.0510   68.2040   63.7820 C   0  0  0  0  0  0  0  0  0  0  0  0
   43.2320   67.7850   64.7950 C   0  0  0  0  0  0  0  0  0  0  0  0
   41.9110   67.5000   64.5420 C   0  0  0  0  0  0  0  0  0  0  0  0
   41.0550   67.0740   65.5410 C   0  0  0  0  0  0  0  0  0  0  0  0
   39.7340   66.7790   65.3350 C   0  0  0  0  0  0  0  0  0  0  0  0
   39.3020   66.9410   64.0320 C   0  0  0  0  0  0  0  0  0  0  0  0
   40.1630   67.3680   63.0380 C   0  0  0  0  0  0  0  0  0  0  0  0
   41.4610   67.6480   63.2820 C   0  0  0  0  0  0  0  0  0  0  0  0
   41.3680   71.3640   58.7980 C   0  0  0  0  0  0  0  0  0  0  0  0
   39.9770   71.8510   58.5980 C   0  0  0  0  0  0  0  0  0  0  0  0
   39.8070   73.0840   59.4200 C   0  0  0  0  0  0  0  0  0  0  0  0
   39.5690   73.1930   60.7950 C   0  0  0  0  0  0  0  0  0  0  0  0
   39.4880   74.5510   61.0720 C   0  0  0  0  0  0  0  0  0  0  0  0
   39.6820   75.2050   59.8490 C   0  0  0  0  0  0  0  0  0  0  0  0
   39.8620   74.3090   58.9280 O   0  0  0  0  0  0  0  0  0  0  0  0
   39.6830   76.6270   59.6370 N   0  0  0  0  0  0  0  0  0  0  0  0
   39.0580   77.2170   58.4690 C   0  0  0  0  0  0  0  0  0  0  0  0
   39.8930   78.3410   57.8960 C   0  0  0  0  0  0  0  0  0  0  0  0
   40.4750   79.1830   58.9190 N   0  0  0  0  0  0  0  0  0  0  0  0
   41.2780   78.4090   59.8470 C   0  0  0  0  0  0  0  0  0  0  0  0
   40.3170   77.5140   60.5950 C   0  0  0  0  0  0  0  0  0  0  0  0
   41.1166   66.9935   57.7008 H   0  0  0  0  0  0  0  0  0  0  0  0
   41.6547   66.2573   60.0248 H   0  0  0  0  0  0  0  0  0  0  0  0
   44.1926   68.6757   61.6890 H   0  0  0  0  0  0  0  0  0  0  0  0
   45.1089   68.4321   63.9790 H   0  0  0  0  0  0  0  0  0  0  0  0
   43.6315   67.6759   65.8141 H   0  0  0  0  0  0  0  0  0  0  0  0
   41.4582   66.9660   66.5587 H   0  0  0  0  0  0  0  0  0  0  0  0
   39.0688   66.4398   66.1428 H   0  0  0  0  0  0  0  0  0  0  0  0
   38.2528   66.7260   63.7810 H   0  0  0  0  0  0  0  0  0  0  0  0
   39.7776   67.4834   62.0142 H   0  0  0  0  0  0  0  0  0  0  0  0
   41.8279   71.9488   59.6083 H   0  0  0  0  0  0  0  0  0  0  0  0
   41.8941   71.4895   57.8402 H   0  0  0  0  0  0  0  0  0  0  0  0
   39.8100   72.0827   57.5357 H   0  0  0  0  0  0  0  0  0  0  0  0
   39.2516   71.0819   58.9016 H   0  0  0  0  0  0  0  0  0  0  0  0
   39.4665   72.3665   61.5136 H   0  0  0  0  0  0  0  0  0  0  0  0
   39.3082   75.0178   62.0517 H   0  0  0  0  0  0  0  0  0  0  0  0
   38.9316   76.4395   57.7012 H   0  0  0  0  0  0  0  0  0  0  0  0
   38.0858   77.6322   58.7729 H   0  0  0  0  0  0  0  0  0  0  0  0
   40.7049   77.9051   57.2953 H   0  0  0  0  0  0  0  0  0  0  0  0
   39.2283   78.9707   57.2864 H   0  0  0  0  0  0  0  0  0  0  0  0
   41.0718   79.8922   58.4699 H   0  0  0  0  0  0  0  0  0  0  0  0
   42.0151   77.8032   59.2995 H   0  0  0  0  0  0  0  0  0  0  0  0
   41.8344   79.0621   60.5354 H   0  0  0  0  0  0  0  0  0  0  0  0
   39.5535   78.1256   61.0979 H   0  0  0  0  0  0  0  0  0  0  0  0
   40.8561   76.9292   61.3548 H   0  0  0  0  0  0  0  0  0  0  0  0
  1  2  2  0
  2  3  1  0
  3  7  1  0
  4  3  2  0
  5  4  1  0
  6  1  1  0
  6  5  2  0
  7  8  2  0
  7 16  1  0
  8  9  1  0
  9 10  2  0
 11 10  1  0
 11 12  2  0
 13 12  1  0
 14 13  2  0
 15 16  2  0
 15 14  1  0
 16 11  1  0
 17  5  1  0
 18 17  1  0
 18 19  1  0
 19 20  2  0
 20 21  1  0
 22 21  2  0
 23 19  1  0
 23 22  1  0
 24 22  1  0
 24 29  1  0
 25 24  1  0
 26 25  1  0
 26 27  1  0
 27 28  1  0
 28 29  1  0
  1 30  1  0
  2 31  1  0
  8 32  1  0
  9 33  1  0
 10 34  1  0
 12 35  1  0
 13 36  1  0
 14 37  1  0
 15 38  1  0
 17 39  1  0
 17 40  1  0
 18 41  1  0
 18 42  1  0
 20 43  1  0
 21 44  1  0
 25 45  1  0
 25 46  1  0
 26 47  1  0
 26 48  1  0
 27 49  1  0
 28 50  1  0
 28 51  1  0
 29 52  1  0
 29 53  1  0
M  END
>  <Score>  (1) 
-7.98456

$$$$
