
     RDKit          3D

 37 40  0  0  0  0  0  0  0  0999 V2000
   42.0990   69.2910   61.9440 N   0  0  0  0  0  0  0  0  0  0  0  0
   41.7630   70.4740   62.3810 C   0  0  0  0  0  0  0  0  0  0  0  0
   42.3630   71.6100   61.8900 C   0  0  0  0  0  0  0  0  0  0  0  0
   43.3140   71.4440   60.9370 C   0  0  0  0  0  0  0  0  0  0  0  0
   43.8700   72.4820   60.4810 O   0  0  0  0  0  0  0  0  0  0  0  0
   43.6270   70.1900   60.5160 N   0  0  0  0  0  0  0  0  0  0  0  0
   43.0140   69.0890   61.0230 C   0  0  0  0  0  0  0  0  0  0  0  0
   43.3800   67.9750   60.5620 O   0  0  0  0  0  0  0  0  0  0  0  0
   40.4370   66.2360   63.9900 C   0  0  0  0  0  0  0  0  0  0  0  0
   40.2360   66.1380   62.6360 C   0  0  0  0  0  0  0  0  0  0  0  0
   40.7580   67.1180   61.8640 C   0  0  0  0  0  0  0  0  0  0  0  0
   41.4430   68.1290   62.4820 C   0  0  0  0  0  0  0  0  0  0  0  0
   41.3720   67.7170   64.2470 S   0  0  0  0  0  0  0  0  0  0  0  0
   39.9890   65.3280   65.0520 C   0  0  0  0  0  0  0  0  0  0  0  0
   39.9880   65.6680   66.3950 C   0  0  0  0  0  0  0  0  0  0  0  0
   39.5350   64.7010   67.2830 C   0  0  0  0  0  0  0  0  0  0  0  0
   39.1230   63.4940   66.8150 N   0  0  0  0  0  0  0  0  0  0  0  0
   39.1370   63.1910   65.4950 C   0  0  0  0  0  0  0  0  0  0  0  0
   39.5740   64.1350   64.6740 N   0  0  0  0  0  0  0  0  0  0  0  0
   38.7070   61.9280   65.0060 N   0  0  0  0  0  0  0  0  0  0  0  0
   41.9110   72.9150   62.4400 C   0  0  0  0  0  0  0  0  0  0  0  0
   40.8560   73.4080   61.5030 C   0  0  0  0  0  0  0  0  0  0  0  0
   40.9880   74.2480   60.4390 N   0  0  0  0  0  0  0  0  0  0  0  0
   39.8180   74.4320   59.8700 O   0  0  0  0  0  0  0  0  0  0  0  0
   38.8950   73.7490   60.5080 C   0  0  0  0  0  0  0  0  0  0  0  0
   39.5300   73.1170   61.5130 N   0  0  0  0  0  0  0  0  0  0  0  0
   40.9867   70.5640   63.1552 H   0  0  0  0  0  0  0  0  0  0  0  0
   44.3497   70.0713   59.7918 H   0  0  0  0  0  0  0  0  0  0  0  0
   39.6750   65.2993   62.1980 H   0  0  0  0  0  0  0  0  0  0  0  0
   40.6356   67.1030   60.7709 H   0  0  0  0  0  0  0  0  0  0  0  0
   40.3291   66.6549   66.7409 H   0  0  0  0  0  0  0  0  0  0  0  0
   39.5099   64.9118   68.3623 H   0  0  0  0  0  0  0  0  0  0  0  0
   38.7312   61.7317   63.9952 H   0  0  0  0  0  0  0  0  0  0  0  0
   38.3711   61.2088   65.6624 H   0  0  0  0  0  0  0  0  0  0  0  0
   41.4949   72.7818   63.4495 H   0  0  0  0  0  0  0  0  0  0  0  0
   42.7435   73.6291   62.5244 H   0  0  0  0  0  0  0  0  0  0  0  0
   37.8221   73.7028   60.2698 H   0  0  0  0  0  0  0  0  0  0  0  0
  1  2  1  0
  1 12  1  0
  3  2  2  0
  3 21  1  0
  4  3  1  0
  5  4  2  0
  6  4  1  0
  6  7  1  0
  7  1  1  0
  8  7  2  0
  9 13  1  0
  9 14  1  0
 10  9  2  0
 11 12  2  0
 11 10  1  0
 12 13  1  0
 14 15  2  0
 15 16  1  0
 17 16  2  0
 18 17  1  0
 19 14  1  0
 19 18  2  0
 20 18  1  0
 22 26  1  0
 22 21  1  0
 23 22  2  0
 24 23  1  0
 24 25  1  0
 25 26  2  0
  2 27  1  0
  6 28  1  0
 10 29  1  0
 11 30  1  0
 15 31  1  0
 16 32  1  0
 20 33  1  0
 20 34  1  0
 21 35  1  0
 21 36  1  0
 25 37  1  0
M  END
>  <Score>  (1) 
-7.45909

$$$$
