
     RDKit          3D

 42 46  0  0  1  0  0  0  0  0999 V2000
   40.1880   66.1900   64.5760 C   0  0  0  0  0  0  0  0  0  0  0  0
   39.7700   65.4060   63.5410 C   0  0  0  0  0  0  0  0  0  0  0  0
   40.0480   65.8210   62.2480 C   0  0  0  0  0  0  0  0  0  0  0  0
   40.7070   66.9860   62.0720 N   0  0  0  0  0  0  0  0  0  0  0  0
   41.1070   67.7670   63.1100 C   0  0  0  0  0  0  0  0  0  0  0  0
   40.8330   67.3320   64.3450 N   0  0  0  0  0  0  0  0  0  0  0  0
   41.6370   69.0420   62.8130 N   0  0  0  0  0  0  0  0  0  0  0  0
   41.8150   70.0670   63.6830 C   0  0  0  0  0  0  0  0  0  0  0  0
   42.2940   71.1490   63.0290 N   0  0  0  0  0  0  0  0  0  0  0  0
   42.4140   70.7950   61.7600 C   0  0  0  0  0  0  0  0  0  0  0  0
   42.8700   71.4070   60.6160 C   0  0  1  0  0  0  0  0  0  0  0  0
   42.7550   70.7920   59.4190 N   0  0  0  0  0  0  0  0  0  0  0  0
   42.3400   69.5110   59.3090 C   0  0  0  0  0  0  0  0  0  0  0  0
   41.9780   68.8880   60.4180 N   0  0  0  0  0  0  0  0  0  0  0  0
   42.0100   69.4930   61.6080 C   0  0  0  0  0  0  0  0  0  0  0  0
   39.9250   65.6610   65.8490 N   0  0  0  0  0  0  0  0  0  0  0  0
   40.2700   66.5120   66.8670 C   0  0  0  0  0  0  0  0  0  0  0  0
   39.9470   65.7980   68.0450 C   0  0  0  0  0  0  0  0  0  0  0  0
   39.4450   64.5990   67.6940 N   0  0  0  0  0  0  0  0  0  0  0  0
   39.4300   64.5080   66.3420 C   0  0  0  0  0  0  0  0  0  0  0  0
   38.9740   63.3570   65.5560 C   0  0  0  0  0  0  0  0  0  0  0  0
   37.5770   63.4170   65.5880 F   0  0  0  0  0  0  0  0  0  0  0  0
   39.2060   62.1250   66.1240 F   0  0  0  0  0  0  0  0  0  0  0  0
   39.3720   63.3770   64.2420 F   0  0  0  0  0  0  0  0  0  0  0  0
   42.6940   72.8560   60.5070 N   0  0  0  0  0  0  0  0  0  0  0  0
   43.3570   73.6290   59.4750 C   0  0  0  0  0  0  0  0  0  0  0  0
   44.5240   74.0350   58.8430 C   0  0  0  0  0  0  0  0  0  0  0  0
   44.1370   74.8840   57.8310 C   0  0  0  0  0  0  0  0  0  0  0  0
   42.7740   74.9640   57.8790 C   0  0  0  0  0  0  0  0  0  0  0  0
   42.3180   74.2070   58.8680 O   0  0  0  0  0  0  0  0  0  0  0  0
   39.2261   64.4683   63.7277 H   0  0  0  0  0  0  0  0  0  0  0  0
   39.7384   65.2143   61.3842 H   0  0  0  0  0  0  0  0  0  0  0  0
   41.6013   70.0244   64.7612 H   0  0  0  0  0  0  0  0  0  0  0  0
   43.9258   71.2308   60.8693 H   0  0  0  0  0  0  0  0  0  0  0  0
   42.3045   69.0049   58.3330 H   0  0  0  0  0  0  0  0  0  0  0  0
   41.6627   67.9090   60.3623 H   0  0  0  0  0  0  0  0  0  0  0  0
   40.7004   67.5211   66.7863 H   0  0  0  0  0  0  0  0  0  0  0  0
   40.0831   66.1613   69.0743 H   0  0  0  0  0  0  0  0  0  0  0  0
   42.0832   73.3391   61.1811 H   0  0  0  0  0  0  0  0  0  0  0  0
   45.5517   73.7380   59.0993 H   0  0  0  0  0  0  0  0  0  0  0  0
   44.7988   75.3996   57.1195 H   0  0  0  0  0  0  0  0  0  0  0  0
   42.1500   75.5646   57.2009 H   0  0  0  0  0  0  0  0  0  0  0  0
  1 16  1  0
  2  1  2  0
  3  2  1  0
  4  3  2  0
  4  5  1  0
  5  6  2  0
  6  1  1  0
  7  5  1  0
  7  8  1  0
  9  8  2  0
 10  9  1  0
 11 10  1  0
 12 11  1  0
 13 12  2  0
 13 14  1  0
 14 15  1  0
 15 10  2  0
 15  7  1  0
 16 20  1  0
 16 17  1  0
 17 18  2  0
 19 18  1  0
 20 19  2  0
 21 22  1  0
 21 23  1  0
 21 20  1  0
 24 21  1  0
 25 11  1  0
 26 25  1  0
 27 26  2  0
 28 29  2  0
 28 27  1  0
 29 30  1  0
 30 26  1  0
  2 31  1  0
  3 32  1  0
  8 33  1  0
 11 34  1  1
 13 35  1  0
 14 36  1  0
 17 37  1  0
 18 38  1  0
 25 39  1  0
 27 40  1  0
 28 41  1  0
 29 42  1  0
M  END
>  <Score>  (1) 
-7.10972

$$$$
