
     RDKit          3D

 43 47  0  0  0  0  0  0  0  0999 V2000
   42.1770   69.2240   61.6640 N   0  0  0  0  0  0  0  0  0  0  0  0
   41.6580   70.4120   61.7980 C   0  0  0  0  0  0  0  0  0  0  0  0
   42.2540   71.5250   61.2490 C   0  0  0  0  0  0  0  0  0  0  0  0
   43.4060   71.3210   60.5620 C   0  0  0  0  0  0  0  0  0  0  0  0
   43.9630   72.3280   60.0530 O   0  0  0  0  0  0  0  0  0  0  0  0
   43.9090   70.0650   60.4470 N   0  0  0  0  0  0  0  0  0  0  0  0
   43.2910   68.9910   61.0050 C   0  0  0  0  0  0  0  0  0  0  0  0
   43.8460   67.8680   60.8360 O   0  0  0  0  0  0  0  0  0  0  0  0
   40.5350   66.2760   63.8700 C   0  0  0  0  0  0  0  0  0  0  0  0
   40.3310   66.1160   62.5290 C   0  0  0  0  0  0  0  0  0  0  0  0
   40.8430   67.0550   61.7100 C   0  0  0  0  0  0  0  0  0  0  0  0
   41.5240   68.0930   62.2570 C   0  0  0  0  0  0  0  0  0  0  0  0
   41.4650   67.7670   64.0510 S   0  0  0  0  0  0  0  0  0  0  0  0
   40.0900   65.4180   64.9760 C   0  0  0  0  0  0  0  0  0  0  0  0
   40.1140   65.8170   66.3050 C   0  0  0  0  0  0  0  0  0  0  0  0
   39.6620   64.9100   67.2540 C   0  0  0  0  0  0  0  0  0  0  0  0
   39.2190   63.6820   66.8360 N   0  0  0  0  0  0  0  0  0  0  0  0
   39.2080   63.3260   65.5280 C   0  0  0  0  0  0  0  0  0  0  0  0
   39.6490   64.2170   64.6490 N   0  0  0  0  0  0  0  0  0  0  0  0
   38.7460   62.0480   65.1090 N   0  0  0  0  0  0  0  0  0  0  0  0
   41.5780   72.8300   61.4580 C   0  0  0  0  0  0  0  0  0  0  0  0
   40.7200   73.2040   60.3580 N   0  0  0  0  0  0  0  0  0  0  0  0
   40.2640   72.3010   59.4630 C   0  0  0  0  0  0  0  0  0  0  0  0
   39.4790   72.9120   58.5340 N   0  0  0  0  0  0  0  0  0  0  0  0
   39.4190   74.2110   58.8180 C   0  0  0  0  0  0  0  0  0  0  0  0
   38.8200   75.3490   58.2990 C   0  0  0  0  0  0  0  0  0  0  0  0
   38.9610   76.5840   58.8430 N   0  0  0  0  0  0  0  0  0  0  0  0
   39.7360   76.6760   59.9560 C   0  0  0  0  0  0  0  0  0  0  0  0
   40.3520   75.5930   60.5150 N   0  0  0  0  0  0  0  0  0  0  0  0
   40.1890   74.3660   59.9410 C   0  0  0  0  0  0  0  0  0  0  0  0
   40.7215   70.5281   62.3632 H   0  0  0  0  0  0  0  0  0  0  0  0
   44.7836   69.9223   59.9220 H   0  0  0  0  0  0  0  0  0  0  0  0
   39.7714   65.2554   62.1338 H   0  0  0  0  0  0  0  0  0  0  0  0
   40.7116   66.9816   60.6203 H   0  0  0  0  0  0  0  0  0  0  0  0
   40.4773   66.8138   66.5954 H   0  0  0  0  0  0  0  0  0  0  0  0
   39.6594   65.1722   68.3223 H   0  0  0  0  0  0  0  0  0  0  0  0
   38.7480   61.8022   64.1088 H   0  0  0  0  0  0  0  0  0  0  0  0
   38.4094   61.3682   65.8057 H   0  0  0  0  0  0  0  0  0  0  0  0
   40.9689   72.7668   62.3718 H   0  0  0  0  0  0  0  0  0  0  0  0
   42.3620   73.5973   61.5392 H   0  0  0  0  0  0  0  0  0  0  0  0
   40.4942   71.2255   59.4822 H   0  0  0  0  0  0  0  0  0  0  0  0
   38.1973   75.2449   57.3982 H   0  0  0  0  0  0  0  0  0  0  0  0
   39.8723   77.6617   60.4249 H   0  0  0  0  0  0  0  0  0  0  0  0
  1  2  1  0
  1 12  1  0
  3 21  1  0
  3  2  2  0
  4  3  1  0
  5  4  2  0
  6  4  1  0
  6  7  1  0
  7  1  1  0
  8  7  2  0
  9 13  1  0
  9 14  1  0
 10  9  2  0
 11 12  2  0
 11 10  1  0
 12 13  1  0
 14 15  2  0
 15 16  1  0
 17 16  2  0
 18 17  1  0
 19 14  1  0
 19 18  2  0
 20 18  1  0
 22 21  1  0
 23 22  1  0
 24 25  1  0
 24 23  2  0
 25 30  2  0
 26 25  1  0
 26 27  2  0
 27 28  1  0
 28 29  2  0
 30 22  1  0
 30 29  1  0
  2 31  1  0
  6 32  1  0
 10 33  1  0
 11 34  1  0
 15 35  1  0
 16 36  1  0
 20 37  1  0
 20 38  1  0
 21 39  1  0
 21 40  1  0
 23 41  1  0
 26 42  1  0
 28 43  1  0
M  END
>  <Score>  (1) 
-7.89749

$$$$
