
     RDKit          3D

 36 39  0  0  0  0  0  0  0  0999 V2000
   42.2230   68.4920   62.3610 C   0  0  0  0  0  0  0  0  0  0  0  0
   43.5840   68.6180   62.7160 C   0  0  0  0  0  0  0  0  0  0  0  0
   44.1120   68.2180   63.9270 C   0  0  0  0  0  0  0  0  0  0  0  0
   43.2640   67.6560   64.8640 C   0  0  0  0  0  0  0  0  0  0  0  0
   41.9150   67.5030   64.5800 C   0  0  0  0  0  0  0  0  0  0  0  0
   41.0690   66.9500   65.5040 C   0  0  0  0  0  0  0  0  0  0  0  0
   39.7120   66.7830   65.2600 C   0  0  0  0  0  0  0  0  0  0  0  0
   39.2750   67.2180   64.0120 C   0  0  0  0  0  0  0  0  0  0  0  0
   40.1620   67.7670   63.1140 C   0  0  0  0  0  0  0  0  0  0  0  0
   41.4920   67.9280   63.3590 C   0  0  0  0  0  0  0  0  0  0  0  0
   41.2650   68.9540   58.6970 C   0  0  0  0  0  0  0  0  0  0  0  0
   41.5280   68.2990   59.9060 C   0  0  0  0  0  0  0  0  0  0  0  0
   41.8880   68.9580   61.0610 C   0  0  0  0  0  0  0  0  0  0  0  0
   41.9550   70.3140   60.8910 N   0  0  0  0  0  0  0  0  0  0  0  0
   41.7100   70.9730   59.7490 C   0  0  0  0  0  0  0  0  0  0  0  0
   41.3700   70.2840   58.6730 N   0  0  0  0  0  0  0  0  0  0  0  0
   41.8140   72.3900   59.6930 N   0  0  0  0  0  0  0  0  0  0  0  0
   42.8680   72.8420   58.9800 C   0  0  0  0  0  0  0  0  0  0  0  0
   43.0790   74.2170   58.8500 C   0  0  0  0  0  0  0  0  0  0  0  0
   42.1680   75.0660   59.4790 C   0  0  0  0  0  0  0  0  0  0  0  0
   42.2550   76.3060   59.4320 O   0  0  0  0  0  0  0  0  0  0  0  0
   41.1420   74.5520   60.1730 N   0  0  0  0  0  0  0  0  0  0  0  0
   40.9430   73.2250   60.2950 C   0  0  0  0  0  0  0  0  0  0  0  0
   40.0040   72.6830   60.9300 O   0  0  0  0  0  0  0  0  0  0  0  0
   44.2682   69.0641   61.9792 H   0  0  0  0  0  0  0  0  0  0  0  0
   45.1835   68.3434   64.1421 H   0  0  0  0  0  0  0  0  0  0  0  0
   43.6604   67.3296   65.8368 H   0  0  0  0  0  0  0  0  0  0  0  0
   41.4782   66.6270   66.4726 H   0  0  0  0  0  0  0  0  0  0  0  0
   39.0308   66.3385   66.0005 H   0  0  0  0  0  0  0  0  0  0  0  0
   38.2131   67.1223   63.7415 H   0  0  0  0  0  0  0  0  0  0  0  0
   39.7729   68.0957   62.1390 H   0  0  0  0  0  0  0  0  0  0  0  0
   40.9810   68.3905   57.7960 H   0  0  0  0  0  0  0  0  0  0  0  0
   41.4429   67.2027   59.9352 H   0  0  0  0  0  0  0  0  0  0  0  0
   43.5580   72.1302   58.5033 H   0  0  0  0  0  0  0  0  0  0  0  0
   43.9287   74.6139   58.2752 H   0  0  0  0  0  0  0  0  0  0  0  0
   40.4810   75.1962   60.6301 H   0  0  0  0  0  0  0  0  0  0  0  0
  1  2  2  0
  1 10  1  0
  2  3  1  0
  3  4  2  0
  5  4  1  0
  5  6  2  0
  7  6  1  0
  8  7  2  0
  9 10  2  0
  9  8  1  0
 10  5  1  0
 11 12  2  0
 12 13  1  0
 13  1  1  0
 14 13  2  0
 15 14  1  0
 16 11  1  0
 16 15  2  0
 17 15  1  0
 17 23  1  0
 18 17  1  0
 19 18  2  0
 19 20  1  0
 20 22  1  0
 21 20  2  0
 22 23  1  0
 23 24  2  0
  2 25  1  0
  3 26  1  0
  4 27  1  0
  6 28  1  0
  7 29  1  0
  8 30  1  0
  9 31  1  0
 11 32  1  0
 12 33  1  0
 18 34  1  0
 19 35  1  0
 22 36  1  0
M  END
>  <Score>  (1) 
-7.10911

$$$$
