
     RDKit          3D

 48 52  0  0  1  0  0  0  0  0999 V2000
   41.8540   69.2430   59.3460 C   0  0  0  0  0  0  0  0  0  0  0  0
   42.0980   69.1740   60.7430 C   0  0  0  0  0  0  0  0  0  0  0  0
   41.8370   70.3480   61.4500 C   0  0  0  0  0  0  0  0  0  0  0  0
   41.4040   71.3620   60.7440 N   0  0  0  0  0  0  0  0  0  0  0  0
   41.1640   71.4970   59.4870 C   0  0  0  0  0  0  0  0  0  0  0  0
   41.4200   70.3540   58.8260 N   0  0  0  0  0  0  0  0  0  0  0  0
   40.7580   72.6210   58.7020 C   0  0  1  0  0  0  0  0  0  0  0  0
   40.3830   72.4350   57.4110 N   0  0  0  0  0  0  0  0  0  0  0  0
   39.8140   73.3090   56.6140 C   0  0  0  0  0  0  0  0  0  0  0  0
   39.4270   74.5040   57.0880 N   0  0  0  0  0  0  0  0  0  0  0  0
   39.6370   74.7630   58.4450 C   0  0  0  0  0  0  0  0  0  0  0  0
   39.1950   75.9320   58.9570 C   0  0  0  0  0  0  0  0  0  0  0  0
   39.3140   76.1750   60.2790 C   0  0  0  0  0  0  0  0  0  0  0  0
   39.8940   75.1910   61.0480 C   0  0  0  0  0  0  0  0  0  0  0  0
   40.3130   74.0420   60.4520 C   0  0  0  0  0  0  0  0  0  0  0  0
   40.2110   73.7800   59.1640 C   0  0  0  0  0  0  0  0  0  0  0  0
   42.0610   70.3940   62.8710 C   0  0  0  0  0  0  0  0  0  0  0  0
   43.4080   70.1320   63.2160 F   0  0  0  0  0  0  0  0  0  0  0  0
   41.8400   71.6420   63.3810 F   0  0  0  0  0  0  0  0  0  0  0  0
   41.3560   69.4720   63.5440 F   0  0  0  0  0  0  0  0  0  0  0  0
   42.5970   67.9260   61.2310 C   0  0  0  0  0  0  0  0  0  0  0  0
   43.3280   67.8010   62.2580 O   0  0  0  0  0  0  0  0  0  0  0  0
   42.2760   66.6630   60.5390 C   0  0  1  0  0  0  0  0  0  0  0  0
   42.4650   65.3540   61.2500 C   0  0  0  0  0  0  0  0  0  0  0  0
   41.0830   65.8480   61.1030 C   0  0  1  0  0  0  0  0  0  0  0  0
   40.4530   66.2500   62.3720 C   0  0  0  0  0  0  0  0  0  0  0  0
   40.9770   65.5470   63.4420 C   0  0  0  0  0  0  0  0  0  0  0  0
   40.5600   65.7540   64.7620 C   0  0  0  0  0  0  0  0  0  0  0  0
   39.5830   66.6910   65.0360 C   0  0  0  0  0  0  0  0  0  0  0  0
   39.0670   67.3850   63.9630 C   0  0  0  0  0  0  0  0  0  0  0  0
   39.4780   67.1820   62.6660 C   0  0  0  0  0  0  0  0  0  0  0  0
   42.0305   68.3642   58.7083 H   0  0  0  0  0  0  0  0  0  0  0  0
   41.8267   72.8174   58.8732 H   0  0  0  0  0  0  0  0  0  0  0  0
   39.6537   73.0615   55.5542 H   0  0  0  0  0  0  0  0  0  0  0  0
   38.9905   75.2054   56.4729 H   0  0  0  0  0  0  0  0  0  0  0  0
   38.7387   76.6848   58.2974 H   0  0  0  0  0  0  0  0  0  0  0  0
   38.9629   77.1182   60.7230 H   0  0  0  0  0  0  0  0  0  0  0  0
   40.0172   75.3323   62.1319 H   0  0  0  0  0  0  0  0  0  0  0  0
   40.7712   73.2742   61.0927 H   0  0  0  0  0  0  0  0  0  0  0  0
   42.5932   67.0662   59.5660 H   0  0  0  0  0  0  0  0  0  0  0  0
   42.7880   64.4697   60.6810 H   0  0  0  0  0  0  0  0  0  0  0  0
   43.0720   65.0361   62.1105 H   0  0  0  0  0  0  0  0  0  0  0  0
   40.1363   65.5047   60.6604 H   0  0  0  0  0  0  0  0  0  0  0  0
   41.7543   64.7934   63.2472 H   0  0  0  0  0  0  0  0  0  0  0  0
   41.0096   65.1715   65.5796 H   0  0  0  0  0  0  0  0  0  0  0  0
   39.2331   66.8747   66.0626 H   0  0  0  0  0  0  0  0  0  0  0  0
   38.2882   68.1383   64.1530 H   0  0  0  0  0  0  0  0  0  0  0  0
   39.0245   67.7691   61.8538 H   0  0  0  0  0  0  0  0  0  0  0  0
  1  2  2  0
  2 21  1  0
  2  3  1  0
  3 17  1  0
  4  3  2  0
  5  4  1  0
  6  1  1  0
  6  5  2  0
  7 16  1  0
  7  5  1  0
  8  7  1  0
  9 10  1  0
  9  8  2  0
 10 11  1  0
 11 12  2  0
 11 16  1  0
 12 13  1  0
 13 14  2  0
 15 14  1  0
 16 15  2  0
 17 18  1  0
 17 19  1  0
 17 20  1  0
 21 22  2  0
 23 25  1  0
 23 21  1  0
 23 24  1  0
 25 24  1  0
 25 26  1  0
 26 31  1  0
 26 27  2  0
 27 28  1  0
 28 29  2  0
 30 29  1  0
 31 30  2  0
  1 32  1  0
  7 33  1  6
  9 34  1  0
 10 35  1  0
 12 36  1  0
 13 37  1  0
 14 38  1  0
 15 39  1  0
 23 40  1  6
 24 41  1  0
 24 42  1  0
 25 43  1  6
 27 44  1  0
 28 45  1  0
 29 46  1  0
 30 47  1  0
 31 48  1  0
M  END
>  <Score>  (1) 
-7.34507

$$$$
