
     RDKit          3D

 54 58  0  0  1  0  0  0  0  0999 V2000
   39.5390   64.0730   65.4270 C   0  0  0  0  0  0  0  0  0  0  0  0
   39.2900   65.0310   66.4460 C   0  0  0  0  0  0  0  0  0  0  0  0
   39.7870   66.3180   66.2580 C   0  0  0  0  0  0  0  0  0  0  0  0
   40.4830   66.5930   65.1150 N   0  0  0  0  0  0  0  0  0  0  0  0
   40.6900   65.6410   64.1750 C   0  0  0  0  0  0  0  0  0  0  0  0
   40.2300   64.3910   64.3160 N   0  0  0  0  0  0  0  0  0  0  0  0
   41.4140   66.0180   63.0090 N   0  0  0  0  0  0  0  0  0  0  0  0
   42.0470   65.3640   62.0160 C   0  0  0  0  0  0  0  0  0  0  0  0
   42.5570   66.2240   61.1430 N   0  0  0  0  0  0  0  0  0  0  0  0
   42.2440   67.4680   61.5860 C   0  0  0  0  0  0  0  0  0  0  0  0
   42.5140   68.7140   61.0840 C   0  0  0  0  0  0  0  0  0  0  0  0
   43.1740   68.7710   60.0100 O   0  0  0  0  0  0  0  0  0  0  0  0
   42.1140   69.8620   61.6820 N   0  0  0  0  0  0  0  0  0  0  0  0
   41.4400   69.6950   62.7920 C   0  0  0  0  0  0  0  0  0  0  0  0
   41.0420   70.8460   63.5490 N   0  0  0  0  0  0  0  0  0  0  0  0
   41.1430   68.5220   63.3300 N   0  0  0  0  0  0  0  0  0  0  0  0
   41.5200   67.3530   62.7690 C   0  0  0  0  0  0  0  0  0  0  0  0
   41.0300   73.7180   60.8400 N   0  0  0  0  0  0  0  0  0  0  0  0
   41.7750   73.5150   62.0250 C   0  0  0  0  0  0  0  0  0  0  0  0
   42.3880   72.2260   62.2430 C   0  0  0  0  0  0  0  0  0  0  0  0
   42.3780   71.1910   61.1380 C   0  0  2  0  0  0  0  0  0  0  0  0
   41.4960   71.5280   59.9870 C   0  0  0  0  0  0  0  0  0  0  0  0
   41.5890   73.0330   59.7180 C   0  0  1  0  0  0  0  0  0  0  0  0
   40.7860   73.3390   58.5860 N   0  0  0  0  0  0  0  0  0  0  0  0
   40.4140   72.2960   57.7180 C   0  0  0  0  0  0  0  0  0  0  0  0
   38.9860   71.8740   57.7180 C   0  0  0  0  0  0  0  0  0  0  0  0
   38.0130   73.0130   57.7290 C   0  0  0  0  0  0  0  0  0  0  0  0
   38.4040   73.9930   58.7830 C   0  0  0  0  0  0  0  0  0  0  0  0
   39.8520   74.3980   58.7660 C   0  0  0  0  0  0  0  0  0  0  0  0
   39.1586   63.0480   65.5484 H   0  0  0  0  0  0  0  0  0  0  0  0
   38.7246   64.7655   67.3514 H   0  0  0  0  0  0  0  0  0  0  0  0
   39.6224   67.0985   67.0154 H   0  0  0  0  0  0  0  0  0  0  0  0
   42.1297   64.2698   61.9393 H   0  0  0  0  0  0  0  0  0  0  0  0
   40.5114   70.7287   64.4240 H   0  0  0  0  0  0  0  0  0  0  0  0
   41.2867   71.7901   63.2178 H   0  0  0  0  0  0  0  0  0  0  0  0
   40.0701   73.3764   60.9908 H   0  0  0  0  0  0  0  0  0  0  0  0
   42.5813   74.2632   62.0334 H   0  0  0  0  0  0  0  0  0  0  0  0
   41.0285   73.5967   62.8288 H   0  0  0  0  0  0  0  0  0  0  0  0
   43.4424   72.4133   62.4943 H   0  0  0  0  0  0  0  0  0  0  0  0
   41.7579   71.7727   63.0224 H   0  0  0  0  0  0  0  0  0  0  0  0
   43.3887   71.1913   60.7039 H   0  0  0  0  0  0  0  0  0  0  0  0
   41.8227   70.9722   59.0957 H   0  0  0  0  0  0  0  0  0  0  0  0
   40.4565   71.2534   60.2197 H   0  0  0  0  0  0  0  0  0  0  0  0
   42.6349   73.3289   59.5488 H   0  0  0  0  0  0  0  0  0  0  0  0
   41.0171   71.4155   57.9844 H   0  0  0  0  0  0  0  0  0  0  0  0
   40.5859   72.6984   56.7088 H   0  0  0  0  0  0  0  0  0  0  0  0
   38.8034   71.2721   56.8156 H   0  0  0  0  0  0  0  0  0  0  0  0
   38.8222   71.3071   58.6463 H   0  0  0  0  0  0  0  0  0  0  0  0
   38.0186   73.5091   56.7473 H   0  0  0  0  0  0  0  0  0  0  0  0
   37.0039   72.6302   57.9415 H   0  0  0  0  0  0  0  0  0  0  0  0
   37.7944   74.8989   58.6502 H   0  0  0  0  0  0  0  0  0  0  0  0
   38.2354   73.4919   59.7476 H   0  0  0  0  0  0  0  0  0  0  0  0
   40.0773   74.8883   59.7245 H   0  0  0  0  0  0  0  0  0  0  0  0
   39.9700   75.0544   57.8913 H   0  0  0  0  0  0  0  0  0  0  0  0
  1  2  2  0
  3  2  1  0
  4  3  2  0
  5  6  2  0
  5  4  1  0
  6  1  1  0
  7  5  1  0
  8  7  1  0
  9 10  1  0
  9  8  2  0
 10 17  2  0
 11 10  1  0
 11 13  1  0
 12 11  2  0
 13 14  1  0
 14 16  2  0
 14 15  1  0
 17  7  1  0
 17 16  1  0
 18 19  1  0
 19 20  1  0
 21 13  1  0
 21 20  1  0
 22 21  1  0
 23 22  1  0
 23 18  1  0
 24 29  1  0
 24 23  1  0
 25 26  1  0
 25 24  1  0
 26 27  1  0
 27 28  1  0
 29 28  1  0
  1 30  1  0
  2 31  1  0
  3 32  1  0
  8 33  1  0
 15 34  1  0
 15 35  1  0
 18 36  1  0
 19 37  1  0
 19 38  1  0
 20 39  1  0
 20 40  1  0
 21 41  1  6
 22 42  1  0
 22 43  1  0
 23 44  1  6
 25 45  1  0
 25 46  1  0
 26 47  1  0
 26 48  1  0
 27 49  1  0
 27 50  1  0
 28 51  1  0
 28 52  1  0
 29 53  1  0
 29 54  1  0
M  END
>  <Score>  (1) 
-7.81863

$$$$
