
     RDKit          3D

 35 38  0  0  0  0  0  0  0  0999 V2000
   41.5460   66.3110   62.4160 C   0  0  0  0  0  0  0  0  0  0  0  0
   40.9020   67.0900   61.4320 C   0  0  0  0  0  0  0  0  0  0  0  0
   41.2590   66.8630   60.0990 C   0  0  0  0  0  0  0  0  0  0  0  0
   42.1880   65.9260   59.8110 N   0  0  0  0  0  0  0  0  0  0  0  0
   42.7960   65.1880   60.7790 C   0  0  0  0  0  0  0  0  0  0  0  0
   42.4570   65.4010   62.0610 N   0  0  0  0  0  0  0  0  0  0  0  0
   43.7720   64.2100   60.4210 N   0  0  0  0  0  0  0  0  0  0  0  0
   45.0740   63.9770   60.6220 C   0  0  0  0  0  0  0  0  0  0  0  0
   45.4250   62.8350   59.9930 N   0  0  0  0  0  0  0  0  0  0  0  0
   44.3260   62.3610   59.3990 C   0  0  0  0  0  0  0  0  0  0  0  0
   43.3080   63.2040   59.6610 N   0  0  0  0  0  0  0  0  0  0  0  0
   41.1760   66.5470   63.7990 C   0  0  0  0  0  0  0  0  0  0  0  0
   41.4530   67.6740   64.5730 C   0  0  0  0  0  0  0  0  0  0  0  0
   40.9240   67.4750   65.8040 N   0  0  0  0  0  0  0  0  0  0  0  0
   40.3140   66.2590   65.8560 C   0  0  0  0  0  0  0  0  0  0  0  0
   39.6340   65.5830   66.8610 C   0  0  0  0  0  0  0  0  0  0  0  0
   39.0990   64.3090   66.6200 C   0  0  0  0  0  0  0  0  0  0  0  0
   39.2540   63.7280   65.3690 C   0  0  0  0  0  0  0  0  0  0  0  0
   39.9310   64.4050   64.3780 C   0  0  0  0  0  0  0  0  0  0  0  0
   40.4700   65.6720   64.5990 C   0  0  0  0  0  0  0  0  0  0  0  0
   44.2390   61.1000   58.5790 C   0  0  0  0  0  0  0  0  0  0  0  0
   40.1495   67.8454   61.7022 H   0  0  0  0  0  0  0  0  0  0  0  0
   40.7871   67.4427   59.2920 H   0  0  0  0  0  0  0  0  0  0  0  0
   45.6635   64.8141   60.2199 H   0  0  0  0  0  0  0  0  0  0  0  0
   45.2687   63.8788   61.7002 H   0  0  0  0  0  0  0  0  0  0  0  0
   42.3374   63.0954   59.3337 H   0  0  0  0  0  0  0  0  0  0  0  0
   42.0038   68.5668   64.2421 H   0  0  0  0  0  0  0  0  0  0  0  0
   40.9756   68.1445   66.5850 H   0  0  0  0  0  0  0  0  0  0  0  0
   39.5145   66.0489   67.8503 H   0  0  0  0  0  0  0  0  0  0  0  0
   38.5606   63.7743   67.4164 H   0  0  0  0  0  0  0  0  0  0  0  0
   38.8375   62.7297   65.1692 H   0  0  0  0  0  0  0  0  0  0  0  0
   40.0489   63.9354   63.3903 H   0  0  0  0  0  0  0  0  0  0  0  0
   44.1790   60.2300   59.2495 H   0  0  0  0  0  0  0  0  0  0  0  0
   43.3412   61.1365   57.9444 H   0  0  0  0  0  0  0  0  0  0  0  0
   45.1333   61.0128   57.9444 H   0  0  0  0  0  0  0  0  0  0  0  0
  1 12  1  0
  2  1  2  0
  3  2  1  0
  4  3  2  0
  4  5  1  0
  5  6  2  0
  6  1  1  0
  7  8  1  0
  7  5  1  0
  9  8  1  0
 10 11  1  0
 10  9  2  0
 11  7  1  0
 12 13  2  0
 12 20  1  0
 13 14  1  0
 14 15  1  0
 15 16  2  0
 17 16  1  0
 18 17  2  0
 19 20  2  0
 19 18  1  0
 20 15  1  0
 21 10  1  0
  2 22  1  0
  3 23  1  0
  8 24  1  0
  8 25  1  0
 11 26  1  0
 13 27  1  0
 14 28  1  0
 16 29  1  0
 17 30  1  0
 18 31  1  0
 19 32  1  0
 21 33  1  0
 21 34  1  0
 21 35  1  0
M  END
>  <Score>  (1) 
-7.14964

$$$$
