
     RDKit          3D

 43 47  0  0  0  0  0  0  0  0999 V2000
   41.3940   67.7020   58.4710 C   0  0  0  0  0  0  0  0  0  0  0  0
   41.7040   67.3080   59.7900 C   0  0  0  0  0  0  0  0  0  0  0  0
   41.8780   68.2180   60.8240 C   0  0  0  0  0  0  0  0  0  0  0  0
   41.7160   69.5280   60.4240 N   0  0  0  0  0  0  0  0  0  0  0  0
   41.4200   69.9140   59.1650 C   0  0  0  0  0  0  0  0  0  0  0  0
   41.2660   69.0000   58.2200 N   0  0  0  0  0  0  0  0  0  0  0  0
   42.2110   68.0410   62.1850 C   0  0  0  0  0  0  0  0  0  0  0  0
   43.5710   68.2880   62.4950 C   0  0  0  0  0  0  0  0  0  0  0  0
   44.1000   68.1700   63.7750 C   0  0  0  0  0  0  0  0  0  0  0  0
   43.2660   67.7910   64.8050 C   0  0  0  0  0  0  0  0  0  0  0  0
   41.9260   67.5330   64.5670 C   0  0  0  0  0  0  0  0  0  0  0  0
   41.0730   67.1580   65.5630 C   0  0  0  0  0  0  0  0  0  0  0  0
   39.7350   66.8950   65.3630 C   0  0  0  0  0  0  0  0  0  0  0  0
   39.3020   67.0410   64.0550 C   0  0  0  0  0  0  0  0  0  0  0  0
   40.1730   67.4210   63.0590 C   0  0  0  0  0  0  0  0  0  0  0  0
   41.4890   67.6740   63.2790 C   0  0  0  0  0  0  0  0  0  0  0  0
   41.2730   71.3300   58.8510 C   0  0  0  0  0  0  0  0  0  0  0  0
   41.4060   71.8570   57.5790 C   0  0  0  0  0  0  0  0  0  0  0  0
   41.1850   73.2230   57.7690 C   0  0  0  0  0  0  0  0  0  0  0  0
   40.9360   73.4370   59.1160 C   0  0  0  0  0  0  0  0  0  0  0  0
   41.0020   72.2610   59.7130 O   0  0  0  0  0  0  0  0  0  0  0  0
   40.6600   74.7390   59.6910 C   0  0  0  0  0  0  0  0  0  0  0  0
   39.7220   74.9200   60.6860 C   0  0  0  0  0  0  0  0  0  0  0  0
   39.5150   76.2010   61.1850 C   0  0  0  0  0  0  0  0  0  0  0  0
   40.1970   77.3230   60.7470 C   0  0  0  0  0  0  0  0  0  0  0  0
   41.1370   77.1150   59.7450 C   0  0  0  0  0  0  0  0  0  0  0  0
   41.3530   75.8470   59.2390 C   0  0  0  0  0  0  0  0  0  0  0  0
   41.2622   66.9557   57.6737 H   0  0  0  0  0  0  0  0  0  0  0  0
   41.8123   66.2353   60.0081 H   0  0  0  0  0  0  0  0  0  0  0  0
   44.2445   68.5893   61.6791 H   0  0  0  0  0  0  0  0  0  0  0  0
   45.1643   68.3752   63.9625 H   0  0  0  0  0  0  0  0  0  0  0  0
   43.6678   67.6926   65.8242 H   0  0  0  0  0  0  0  0  0  0  0  0
   41.4752   67.0601   66.5822 H   0  0  0  0  0  0  0  0  0  0  0  0
   39.0625   66.5924   66.1792 H   0  0  0  0  0  0  0  0  0  0  0  0
   38.2470   66.8505   63.8088 H   0  0  0  0  0  0  0  0  0  0  0  0
   39.7842   67.5248   62.0353 H   0  0  0  0  0  0  0  0  0  0  0  0
   41.6318   71.3270   56.6419 H   0  0  0  0  0  0  0  0  0  0  0  0
   41.2050   73.9951   56.9858 H   0  0  0  0  0  0  0  0  0  0  0  0
   39.1485   74.0668   61.0773 H   0  0  0  0  0  0  0  0  0  0  0  0
   38.7627   76.3309   61.9769 H   0  0  0  0  0  0  0  0  0  0  0  0
   40.0060   78.3213   61.1677 H   0  0  0  0  0  0  0  0  0  0  0  0
   41.7133   77.9654   59.3517 H   0  0  0  0  0  0  0  0  0  0  0  0
   42.1046   75.7143   58.4468 H   0  0  0  0  0  0  0  0  0  0  0  0
  1  2  2  0
  2  3  1  0
  3  7  1  0
  4  3  2  0
  5  4  1  0
  6  1  1  0
  6  5  2  0
  7  8  2  0
  7 16  1  0
  8  9  1  0
  9 10  2  0
 11 10  1  0
 11 12  2  0
 13 12  1  0
 14 13  2  0
 15 16  2  0
 15 14  1  0
 16 11  1  0
 17  5  1  0
 17 21  1  0
 18 19  1  0
 18 17  2  0
 19 20  2  0
 20 22  1  0
 20 21  1  0
 22 23  2  0
 23 24  1  0
 25 24  2  0
 26 25  1  0
 27 22  1  0
 27 26  2  0
  1 28  1  0
  2 29  1  0
  8 30  1  0
  9 31  1  0
 10 32  1  0
 12 33  1  0
 13 34  1  0
 14 35  1  0
 15 36  1  0
 18 37  1  0
 19 38  1  0
 23 39  1  0
 24 40  1  0
 25 41  1  0
 26 42  1  0
 27 43  1  0
M  END
>  <Score>  (1) 
-7.89939

$$$$
