
     RDKit          3D

 55 59  0  0  0  0  0  0  0  0999 V2000
   42.3150   68.6450   61.3130 N   0  0  0  0  0  0  0  0  0  0  0  0
   42.3150   69.8690   61.7420 C   0  0  0  0  0  0  0  0  0  0  0  0
   43.0780   70.8280   61.1190 C   0  0  0  0  0  0  0  0  0  0  0  0
   43.8140   70.4620   60.0640 C   0  0  0  0  0  0  0  0  0  0  0  0
   44.5240   71.3190   59.4720 O   0  0  0  0  0  0  0  0  0  0  0  0
   43.7730   69.1660   59.6600 N   0  0  0  0  0  0  0  0  0  0  0  0
   43.0120   68.2270   60.2870 C   0  0  0  0  0  0  0  0  0  0  0  0
   43.0490   67.0590   59.8310 O   0  0  0  0  0  0  0  0  0  0  0  0
   40.3770   66.0090   63.6730 C   0  0  0  0  0  0  0  0  0  0  0  0
   39.8370   66.0840   62.4210 C   0  0  0  0  0  0  0  0  0  0  0  0
   40.4310   66.9500   61.5620 C   0  0  0  0  0  0  0  0  0  0  0  0
   41.4950   67.6630   61.9970 C   0  0  0  0  0  0  0  0  0  0  0  0
   41.7380   67.1400   63.7180 S   0  0  0  0  0  0  0  0  0  0  0  0
   39.9560   65.1730   64.8110 C   0  0  0  0  0  0  0  0  0  0  0  0
   39.9600   65.6060   66.1270 C   0  0  0  0  0  0  0  0  0  0  0  0
   39.5370   64.7180   67.1010 C   0  0  0  0  0  0  0  0  0  0  0  0
   39.1390   63.4740   66.7280 N   0  0  0  0  0  0  0  0  0  0  0  0
   39.1460   63.0810   65.4370 C   0  0  0  0  0  0  0  0  0  0  0  0
   39.5540   63.9420   64.5190 N   0  0  0  0  0  0  0  0  0  0  0  0
   38.7270   61.7750   65.0550 N   0  0  0  0  0  0  0  0  0  0  0  0
   43.0140   72.2050   61.6830 C   0  0  0  0  0  0  0  0  0  0  0  0
   42.4370   73.0660   60.5910 C   0  0  0  0  0  0  0  0  0  0  0  0
   42.9380   74.2180   59.9880 C   0  0  0  0  0  0  0  0  0  0  0  0
   42.0280   74.6500   59.0220 C   0  0  0  0  0  0  0  0  0  0  0  0
   41.0170   73.7220   59.0960 C   0  0  0  0  0  0  0  0  0  0  0  0
   41.2760   72.8240   60.0040 O   0  0  0  0  0  0  0  0  0  0  0  0
   39.7870   73.7290   58.2590 C   0  0  0  0  0  0  0  0  0  0  0  0
   39.2340   72.3470   58.0020 C   0  0  0  0  0  0  0  0  0  0  0  0
   37.9340   72.5310   57.2580 C   0  0  0  0  0  0  0  0  0  0  0  0
   37.7610   73.9230   56.6890 C   0  0  0  0  0  0  0  0  0  0  0  0
   37.7190   74.9630   57.7770 C   0  0  0  0  0  0  0  0  0  0  0  0
   38.7170   74.6390   58.8620 C   0  0  0  0  0  0  0  0  0  0  0  0
   41.6993   70.1421   62.6117 H   0  0  0  0  0  0  0  0  0  0  0  0
   44.3395   68.8825   58.8479 H   0  0  0  0  0  0  0  0  0  0  0  0
   38.9690   65.4763   62.1255 H   0  0  0  0  0  0  0  0  0  0  0  0
   40.0558   67.0696   60.5349 H   0  0  0  0  0  0  0  0  0  0  0  0
   40.2886   66.6224   66.3894 H   0  0  0  0  0  0  0  0  0  0  0  0
   39.5234   65.0150   68.1601 H   0  0  0  0  0  0  0  0  0  0  0  0
   38.7416   61.4991   64.0627 H   0  0  0  0  0  0  0  0  0  0  0  0
   38.4092   61.1061   65.7709 H   0  0  0  0  0  0  0  0  0  0  0  0
   42.3653   72.2260   62.5711 H   0  0  0  0  0  0  0  0  0  0  0  0
   44.0057   72.5607   61.9993 H   0  0  0  0  0  0  0  0  0  0  0  0
   43.8928   74.7062   60.2329 H   0  0  0  0  0  0  0  0  0  0  0  0
   42.1023   75.5248   58.3593 H   0  0  0  0  0  0  0  0  0  0  0  0
   40.0848   74.1325   57.2799 H   0  0  0  0  0  0  0  0  0  0  0  0
   39.9400   71.7635   57.3928 H   0  0  0  0  0  0  0  0  0  0  0  0
   39.0765   71.8025   58.9447 H   0  0  0  0  0  0  0  0  0  0  0  0
   37.9009   71.8085   56.4292 H   0  0  0  0  0  0  0  0  0  0  0  0
   37.1200   72.3711   57.9804 H   0  0  0  0  0  0  0  0  0  0  0  0
   38.6044   74.1420   56.0177 H   0  0  0  0  0  0  0  0  0  0  0  0
   36.8067   73.9563   56.1429 H   0  0  0  0  0  0  0  0  0  0  0  0
   37.9598   75.9462   57.3465 H   0  0  0  0  0  0  0  0  0  0  0  0
   36.7104   74.9758   58.2159 H   0  0  0  0  0  0  0  0  0  0  0  0
   38.2123   74.1233   59.6923 H   0  0  0  0  0  0  0  0  0  0  0  0
   39.1730   75.5612   59.2512 H   0  0  0  0  0  0  0  0  0  0  0  0
  1  2  1  0
  1 12  1  0
  3 21  1  0
  3  2  2  0
  4  3  1  0
  5  4  2  0
  6  4  1  0
  6  7  1  0
  7  1  1  0
  8  7  2  0
  9 13  1  0
  9 14  1  0
 10  9  2  0
 11 12  2  0
 11 10  1  0
 12 13  1  0
 14 15  2  0
 15 16  1  0
 17 16  2  0
 18 17  1  0
 19 14  1  0
 19 18  2  0
 20 18  1  0
 22 21  1  0
 23 22  2  0
 24 25  2  0
 24 23  1  0
 25 26  1  0
 26 22  1  0
 27 32  1  0
 27 25  1  0
 28 27  1  0
 29 28  1  0
 30 29  1  0
 30 31  1  0
 31 32  1  0
  2 33  1  0
  6 34  1  0
 10 35  1  0
 11 36  1  0
 15 37  1  0
 16 38  1  0
 20 39  1  0
 20 40  1  0
 21 41  1  0
 21 42  1  0
 23 43  1  0
 24 44  1  0
 27 45  1  0
 28 46  1  0
 28 47  1  0
 29 48  1  0
 29 49  1  0
 30 50  1  0
 30 51  1  0
 31 52  1  0
 31 53  1  0
 32 54  1  0
 32 55  1  0
M  END
>  <Score>  (1) 
-7.78707

$$$$
