
     RDKit          3D

 35 39  0  0  0  0  0  0  0  0999 V2000
   39.6670   64.0960   65.1270 C   0  0  0  0  0  0  0  0  0  0  0  0
   39.8130   64.8780   66.3080 C   0  0  0  0  0  0  0  0  0  0  0  0
   40.3960   66.1270   66.1730 C   0  0  0  0  0  0  0  0  0  0  0  0
   40.7960   66.5340   64.9270 N   0  0  0  0  0  0  0  0  0  0  0  0
   40.6350   65.7520   63.8310 C   0  0  0  0  0  0  0  0  0  0  0  0
   40.0740   64.5320   63.9130 N   0  0  0  0  0  0  0  0  0  0  0  0
   41.0780   66.2550   62.5790 N   0  0  0  0  0  0  0  0  0  0  0  0
   41.3790   65.7400   61.3840 C   0  0  0  0  0  0  0  0  0  0  0  0
   41.7560   66.6930   60.5400 N   0  0  0  0  0  0  0  0  0  0  0  0
   41.6970   67.8560   61.2090 C   0  0  0  0  0  0  0  0  0  0  0  0
   41.9720   69.1430   60.8260 C   0  0  0  0  0  0  0  0  0  0  0  0
   42.3640   69.3200   59.6180 O   0  0  0  0  0  0  0  0  0  0  0  0
   41.8440   70.2180   61.6730 N   0  0  0  0  0  0  0  0  0  0  0  0
   41.4360   69.9160   62.8860 C   0  0  0  0  0  0  0  0  0  0  0  0
   41.2650   70.9630   63.8430 N   0  0  0  0  0  0  0  0  0  0  0  0
   41.1570   68.6870   63.3040 N   0  0  0  0  0  0  0  0  0  0  0  0
   41.2690   67.5960   62.5040 C   0  0  0  0  0  0  0  0  0  0  0  0
   40.8230   74.6350   60.2620 N   0  0  0  0  0  0  0  0  0  0  0  0
   39.7900   74.0320   60.8410 C   0  0  0  0  0  0  0  0  0  0  0  0
   40.1580   72.8190   61.1990 N   0  0  0  0  0  0  0  0  0  0  0  0
   41.3990   72.5550   60.8950 C   0  0  0  0  0  0  0  0  0  0  0  0
   42.1870   71.4690   61.0650 C   0  0  0  0  0  0  0  0  0  0  0  0
   43.4230   71.6430   60.5890 N   0  0  0  0  0  0  0  0  0  0  0  0
   43.8690   72.7370   60.0100 C   0  0  0  0  0  0  0  0  0  0  0  0
   43.0750   73.8210   59.8420 N   0  0  0  0  0  0  0  0  0  0  0  0
   41.7910   73.7230   60.3050 C   0  0  0  0  0  0  0  0  0  0  0  0
   39.2061   63.1003   65.2048 H   0  0  0  0  0  0  0  0  0  0  0  0
   39.4767   64.5056   67.2869 H   0  0  0  0  0  0  0  0  0  0  0  0
   40.5351   66.7790   67.0480 H   0  0  0  0  0  0  0  0  0  0  0  0
   41.3222   64.6705   61.1329 H   0  0  0  0  0  0  0  0  0  0  0  0
   40.9460   70.7417   64.7970 H   0  0  0  0  0  0  0  0  0  0  0  0
   41.4607   71.9391   63.5789 H   0  0  0  0  0  0  0  0  0  0  0  0
   40.8647   75.5869   59.8709 H   0  0  0  0  0  0  0  0  0  0  0  0
   38.7939   74.4723   60.9955 H   0  0  0  0  0  0  0  0  0  0  0  0
   44.9094   72.7719   59.6547 H   0  0  0  0  0  0  0  0  0  0  0  0
  1  2  2  0
  3  2  1  0
  4  3  2  0
  5  6  2  0
  5  4  1  0
  6  1  1  0
  7  5  1  0
  8  7  1  0
  9 10  1  0
  9  8  2  0
 10 17  2  0
 11 10  1  0
 11 13  1  0
 12 11  2  0
 13 14  1  0
 14 16  2  0
 14 15  1  0
 17  7  1  0
 17 16  1  0
 18 26  1  0
 18 19  1  0
 19 20  2  0
 21 22  2  0
 21 20  1  0
 22 13  1  0
 23 22  1  0
 24 23  2  0
 25 24  1  0
 25 26  2  0
 26 21  1  0
  1 27  1  0
  2 28  1  0
  3 29  1  0
  8 30  1  0
 15 31  1  0
 15 32  1  0
 18 33  1  0
 19 34  1  0
 24 35  1  0
M  END
>  <Score>  (1) 
-7.57237

$$$$
