
     RDKit          3D

 38 41  0  0  1  0  0  0  0  0999 V2000
   40.4720   66.1310   64.5850 C   0  0  0  0  0  0  0  0  0  0  0  0
   40.4990   65.1900   63.6080 C   0  0  0  0  0  0  0  0  0  0  0  0
   40.8160   65.5810   62.3240 C   0  0  0  0  0  0  0  0  0  0  0  0
   41.0980   66.8850   62.1040 N   0  0  0  0  0  0  0  0  0  0  0  0
   41.0820   67.8150   63.0830 C   0  0  0  0  0  0  0  0  0  0  0  0
   40.7590   67.4080   64.3130 N   0  0  0  0  0  0  0  0  0  0  0  0
   41.5940   69.1050   62.7890 N   0  0  0  0  0  0  0  0  0  0  0  0
   41.8880   70.1030   63.6800 C   0  0  0  0  0  0  0  0  0  0  0  0
   42.4740   71.1350   63.0450 N   0  0  0  0  0  0  0  0  0  0  0  0
   42.5480   70.7930   61.7670 C   0  0  0  0  0  0  0  0  0  0  0  0
   43.0670   71.3570   60.6280 C   0  0  1  0  0  0  0  0  0  0  0  0
   42.8750   70.8080   59.4170 N   0  0  0  0  0  0  0  0  0  0  0  0
   42.3190   69.5830   59.2950 C   0  0  0  0  0  0  0  0  0  0  0  0
   41.8960   68.9690   60.3940 N   0  0  0  0  0  0  0  0  0  0  0  0
   42.0020   69.5390   61.5850 C   0  0  0  0  0  0  0  0  0  0  0  0
   40.0910   65.6350   65.8400 N   0  0  0  0  0  0  0  0  0  0  0  0
   40.3310   66.5220   66.8570 C   0  0  0  0  0  0  0  0  0  0  0  0
   39.8850   65.8560   68.0170 C   0  0  0  0  0  0  0  0  0  0  0  0
   39.4120   64.6400   67.6580 N   0  0  0  0  0  0  0  0  0  0  0  0
   39.5410   64.5080   66.3190 C   0  0  0  0  0  0  0  0  0  0  0  0
   39.1370   63.3380   65.5320 C   0  0  0  0  0  0  0  0  0  0  0  0
   37.7050   63.3440   65.5750 F   0  0  0  0  0  0  0  0  0  0  0  0
   39.4280   62.1320   66.0770 F   0  0  0  0  0  0  0  0  0  0  0  0
   39.1430   63.4920   64.1740 F   0  0  0  0  0  0  0  0  0  0  0  0
   43.1150   72.8110   60.5750 N   0  0  0  0  0  0  0  0  0  0  0  0
   44.0380   73.5760   59.8160 C   0  0  0  0  0  0  0  0  0  0  0  0
   43.9780   73.7290   58.5490 O   0  0  0  0  0  0  0  0  0  0  0  0
   45.1090   74.2360   60.4260 O   0  0  0  0  0  0  0  0  0  0  0  0
   40.2729   64.1377   63.8351 H   0  0  0  0  0  0  0  0  0  0  0  0
   40.8388   64.8516   61.5009 H   0  0  0  0  0  0  0  0  0  0  0  0
   41.6758   70.0663   64.7587 H   0  0  0  0  0  0  0  0  0  0  0  0
   44.0778   70.9856   60.8521 H   0  0  0  0  0  0  0  0  0  0  0  0
   42.2190   69.1055   58.3091 H   0  0  0  0  0  0  0  0  0  0  0  0
   41.4772   68.0310   60.3188 H   0  0  0  0  0  0  0  0  0  0  0  0
   40.7722   67.5270   66.7845 H   0  0  0  0  0  0  0  0  0  0  0  0
   39.9163   66.2571   69.0408 H   0  0  0  0  0  0  0  0  0  0  0  0
   42.4215   73.3272   61.1349 H   0  0  0  0  0  0  0  0  0  0  0  0
   45.7416   74.7646   59.8779 H   0  0  0  0  0  0  0  0  0  0  0  0
  1 16  1  0
  2  1  2  0
  3  2  1  0
  4  3  2  0
  4  5  1  0
  5  6  2  0
  6  1  1  0
  7  5  1  0
  7  8  1  0
  9  8  2  0
 10  9  1  0
 11 10  1  0
 12 11  1  0
 13 12  2  0
 13 14  1  0
 14 15  1  0
 15 10  2  0
 15  7  1  0
 16 20  1  0
 16 17  1  0
 17 18  2  0
 19 18  1  0
 20 19  2  0
 21 22  1  0
 21 23  1  0
 21 20  1  0
 24 21  1  0
 25 11  1  0
 26 28  1  0
 26 25  1  0
 27 26  2  0
  2 29  1  0
  3 30  1  0
  8 31  1  0
 11 32  1  1
 13 33  1  0
 14 34  1  0
 17 35  1  0
 18 36  1  0
 25 37  1  0
 28 38  1  0
M  END
>  <Score>  (1) 
-7.22663

$$$$
