
     RDKit          3D

 47 50  0  0  1  0  0  0  0  0999 V2000
   39.5600   65.4890   68.9560 N   0  0  0  0  0  0  0  0  0  0  0  0
   38.3830   65.2690   73.4290 N   0  0  0  0  0  0  0  0  0  0  0  0
   37.7800   64.2690   72.7190 C   0  0  0  0  0  0  0  0  0  0  0  0
   38.1610   64.3970   71.4250 N   0  0  0  0  0  0  0  0  0  0  0  0
   38.9750   65.4450   71.3460 C   0  0  0  0  0  0  0  0  0  0  0  0
   39.6250   65.9900   70.2780 C   0  0  2  0  0  0  0  0  0  0  0  0
   40.3940   67.0730   70.5240 N   0  0  0  0  0  0  0  0  0  0  0  0
   40.5530   67.6330   71.7290 C   0  0  0  0  0  0  0  0  0  0  0  0
   39.9210   67.1070   72.7860 N   0  0  0  0  0  0  0  0  0  0  0  0
   39.1370   66.0220   72.6040 C   0  0  0  0  0  0  0  0  0  0  0  0
   41.4110   68.7780   71.7820 N   0  0  0  0  0  0  0  0  0  0  0  0
   41.1720   69.9520   71.1700 C   0  0  0  0  0  0  0  0  0  0  0  0
   42.1170   70.9520   71.3330 C   0  0  0  0  0  0  0  0  0  0  0  0
   41.8270   72.2320   70.6460 C   0  0  0  0  0  0  0  0  0  0  0  0
   43.2700   70.7620   72.0970 C   0  0  0  0  0  0  0  0  0  0  0  0
   44.1020   71.6960   72.2190 O   0  0  0  0  0  0  0  0  0  0  0  0
   43.4320   69.5490   72.6810 N   0  0  0  0  0  0  0  0  0  0  0  0
   42.5100   68.5580   72.5270 C   0  0  0  0  0  0  0  0  0  0  0  0
   42.7790   67.4800   73.1200 O   0  0  0  0  0  0  0  0  0  0  0  0
   39.7000   66.3810   67.8070 C   0  0  0  0  0  0  0  0  0  0  0  0
   39.1740   63.5380   65.4190 C   0  0  0  0  0  0  0  0  0  0  0  0
   39.1460   64.2940   66.6100 C   0  0  0  0  0  0  0  0  0  0  0  0
   39.7170   65.5740   66.5870 C   0  0  0  0  0  0  0  0  0  0  0  0
   40.2640   66.0190   65.4230 N   0  0  0  0  0  0  0  0  0  0  0  0
   40.2660   65.2530   64.2970 C   0  0  0  0  0  0  0  0  0  0  0  0
   39.7300   64.0320   64.2960 N   0  0  0  0  0  0  0  0  0  0  0  0
   40.8470   65.7210   63.0490 C   0  0  0  0  0  0  0  0  0  0  0  0
   41.6570   65.0510   62.3790 O   0  0  0  0  0  0  0  0  0  0  0  0
   40.5730   66.9440   62.4680 O   0  0  0  0  0  0  0  0  0  0  0  0
   41.2980   68.1110   62.7960 C   0  0  0  0  0  0  0  0  0  0  0  0
   40.4990   68.8300   63.6650 F   0  0  0  0  0  0  0  0  0  0  0  0
   41.6380   68.8470   61.6770 F   0  0  0  0  0  0  0  0  0  0  0  0
   42.4530   67.8200   63.4690 F   0  0  0  0  0  0  0  0  0  0  0  0
   40.3064   64.7842   68.8726 H   0  0  0  0  0  0  0  0  0  0  0  0
   38.2772   65.4238   74.4418 H   0  0  0  0  0  0  0  0  0  0  0  0
   37.1070   63.4993   73.1247 H   0  0  0  0  0  0  0  0  0  0  0  0
   40.4832   65.3337   70.4845 H   0  0  0  0  0  0  0  0  0  0  0  0
   40.0308   67.5227   73.7220 H   0  0  0  0  0  0  0  0  0  0  0  0
   40.2661   70.1110   70.5667 H   0  0  0  0  0  0  0  0  0  0  0  0
   41.6489   73.0179   71.3948 H   0  0  0  0  0  0  0  0  0  0  0  0
   42.6843   72.5127   70.0165 H   0  0  0  0  0  0  0  0  0  0  0  0
   40.9324   72.1158   70.0165 H   0  0  0  0  0  0  0  0  0  0  0  0
   44.2701   69.3731   73.2533 H   0  0  0  0  0  0  0  0  0  0  0  0
   38.8520   67.0810   67.7762 H   0  0  0  0  0  0  0  0  0  0  0  0
   40.6344   66.9555   67.8898 H   0  0  0  0  0  0  0  0  0  0  0  0
   38.7349   62.5295   65.4074 H   0  0  0  0  0  0  0  0  0  0  0  0
   38.6907   63.8919   67.5271 H   0  0  0  0  0  0  0  0  0  0  0  0
  3  2  1  0
  4  3  2  0
  5  4  1  0
  5 10  2  0
  6  1  1  0
  6  7  1  0
  6  5  1  0
  7  8  2  0
  8 11  1  0
  8  9  1  0
 10  9  1  0
 10  2  1  0
 11 18  1  0
 12 13  2  0
 12 11  1  0
 13 15  1  0
 14 13  1  0
 15 16  2  0
 15 17  1  0
 18 17  1  0
 18 19  2  0
 20  1  1  0
 21 22  2  0
 23 22  1  0
 23 20  1  0
 24 23  2  0
 25 24  1  0
 26 25  2  0
 26 21  1  0
 27 25  1  0
 28 27  2  0
 29 30  1  0
 29 27  1  0
 30 33  1  0
 30 31  1  0
 32 30  1  0
  1 34  1  0
  2 35  1  0
  3 36  1  0
  6 37  1  1
  9 38  1  0
 12 39  1  0
 14 40  1  0
 14 41  1  0
 14 42  1  0
 17 43  1  0
 20 44  1  0
 20 45  1  0
 21 46  1  0
 22 47  1  0
M  END
>  <Score>  (1) 
-7.29412

$$$$
