
     RDKit          3D

 49 54  0  0  0  0  0  0  0  0999 V2000
   43.8010   64.5320   60.6790 C   0  0  0  0  0  0  0  0  0  0  0  0
   43.6160   63.3670   59.9650 C   0  0  0  0  0  0  0  0  0  0  0  0
   44.7360   62.5840   59.7110 C   0  0  0  0  0  0  0  0  0  0  0  0
   45.9570   63.0150   60.1840 C   0  0  0  0  0  0  0  0  0  0  0  0
   46.1490   64.1640   60.8900 C   0  0  0  0  0  0  0  0  0  0  0  0
   45.0300   64.9730   61.1590 C   0  0  0  0  0  0  0  0  0  0  0  0
   41.0680   66.2870   62.3910 C   0  0  0  0  0  0  0  0  0  0  0  0
   40.4880   67.0560   61.3440 C   0  0  0  0  0  0  0  0  0  0  0  0
   41.0800   66.9270   60.0820 C   0  0  0  0  0  0  0  0  0  0  0  0
   42.1380   66.1050   59.9260 N   0  0  0  0  0  0  0  0  0  0  0  0
   42.6540   65.3930   60.9520 C   0  0  0  0  0  0  0  0  0  0  0  0
   42.1340   65.4690   62.1920 N   0  0  0  0  0  0  0  0  0  0  0  0
   40.4880   66.4060   63.6620 N   0  0  0  0  0  0  0  0  0  0  0  0
   40.0180   67.5890   64.0840 C   0  0  0  0  0  0  0  0  0  0  0  0
   39.4980   67.5350   65.3340 N   0  0  0  0  0  0  0  0  0  0  0  0
   39.6360   66.2780   65.7330 C   0  0  0  0  0  0  0  0  0  0  0  0
   39.3650   65.4680   66.8440 C   0  0  0  0  0  0  0  0  0  0  0  0
   39.6340   64.1690   66.9000 N   0  0  0  0  0  0  0  0  0  0  0  0
   40.2220   63.5800   65.8550 C   0  0  0  0  0  0  0  0  0  0  0  0
   40.5520   64.2430   64.7280 N   0  0  0  0  0  0  0  0  0  0  0  0
   40.2490   65.5840   64.6930 C   0  0  0  0  0  0  0  0  0  0  0  0
   45.2430   66.2150   61.8710 C   0  0  0  0  0  0  0  0  0  0  0  0
   46.4020   66.5960   62.1510 O   0  0  0  0  0  0  0  0  0  0  0  0
   44.5550   67.3360   62.4500 C   0  0  0  0  0  0  0  0  0  0  0  0
   44.2830   67.1410   63.7760 N   0  0  0  0  0  0  0  0  0  0  0  0
   43.6040   67.9730   64.5450 C   0  0  0  0  0  0  0  0  0  0  0  0
   43.1260   69.1170   64.0070 N   0  0  0  0  0  0  0  0  0  0  0  0
   43.3560   69.3780   62.6870 C   0  0  0  0  0  0  0  0  0  0  0  0
   42.8310   70.4930   62.0690 C   0  0  0  0  0  0  0  0  0  0  0  0
   43.0210   70.7010   60.7130 C   0  0  0  0  0  0  0  0  0  0  0  0
   43.7450   69.7700   59.9880 C   0  0  0  0  0  0  0  0  0  0  0  0
   44.2920   68.6390   60.5530 C   0  0  0  0  0  0  0  0  0  0  0  0
   44.0780   68.4840   61.8850 C   0  0  0  0  0  0  0  0  0  0  0  0
   42.6188   63.0683   59.6095 H   0  0  0  0  0  0  0  0  0  0  0  0
   44.6502   61.6438   59.1466 H   0  0  0  0  0  0  0  0  0  0  0  0
   46.8368   62.3879   59.9771 H   0  0  0  0  0  0  0  0  0  0  0  0
   47.1514   64.4514   61.2401 H   0  0  0  0  0  0  0  0  0  0  0  0
   39.6238   67.7143   61.5163 H   0  0  0  0  0  0  0  0  0  0  0  0
   40.6855   67.4916   59.2243 H   0  0  0  0  0  0  0  0  0  0  0  0
   40.0512   68.5069   63.4788 H   0  0  0  0  0  0  0  0  0  0  0  0
   39.9112   65.9219   67.6840 H   0  0  0  0  0  0  0  0  0  0  0  0
   38.2652   65.4529   66.8279 H   0  0  0  0  0  0  0  0  0  0  0  0
   40.4473   62.5051   65.9166 H   0  0  0  0  0  0  0  0  0  0  0  0
   41.0073   63.7696   63.9346 H   0  0  0  0  0  0  0  0  0  0  0  0
   43.4305   67.7387   65.6057 H   0  0  0  0  0  0  0  0  0  0  0  0
   42.2565   71.2234   62.6577 H   0  0  0  0  0  0  0  0  0  0  0  0
   42.6035   71.5914   60.2201 H   0  0  0  0  0  0  0  0  0  0  0  0
   43.8902   69.9413   58.9112 H   0  0  0  0  0  0  0  0  0  0  0  0
   44.8652   67.9085   59.9632 H   0  0  0  0  0  0  0  0  0  0  0  0
  1 11  1  0
  1  6  1  0
  2  1  2  0
  3  2  1  0
  3  4  2  0
  4  5  1  0
  5  6  2  0
  6 22  1  0
  7 13  1  0
  8  7  2  0
  9  8  1  0
 10  9  2  0
 10 11  1  0
 11 12  2  0
 12  7  1  0
 13 14  1  0
 13 21  1  0
 14 15  2  0
 15 16  1  0
 16 17  1  0
 17 18  1  0
 19 18  2  0
 20 19  1  0
 21 20  1  0
 21 16  2  0
 22 23  2  0
 22 24  1  0
 24 25  2  0
 25 26  1  0
 27 26  2  0
 28 27  1  0
 29 28  2  0
 30 29  1  0
 31 32  1  0
 31 30  2  0
 32 33  2  0
 33 24  1  0
 33 28  1  0
  2 34  1  0
  3 35  1  0
  4 36  1  0
  5 37  1  0
  8 38  1  0
  9 39  1  0
 14 40  1  0
 17 41  1  0
 17 42  1  0
 19 43  1  0
 20 44  1  0
 26 45  1  0
 29 46  1  0
 30 47  1  0
 31 48  1  0
 32 49  1  0
M  END
>  <Score>  (1) 
-7.94046

$$$$
