
     RDKit          3D

 46 50  0  0  0  0  0  0  0  0999 V2000
   42.2150   69.0640   61.5560 N   0  0  0  0  0  0  0  0  0  0  0  0
   41.9130   70.2650   61.9260 C   0  0  0  0  0  0  0  0  0  0  0  0
   42.5640   71.3490   61.3800 C   0  0  0  0  0  0  0  0  0  0  0  0
   43.5100   71.1200   60.4640 C   0  0  0  0  0  0  0  0  0  0  0  0
   44.1250   72.0920   59.9450 O   0  0  0  0  0  0  0  0  0  0  0  0
   43.7890   69.8370   60.1090 N   0  0  0  0  0  0  0  0  0  0  0  0
   43.1330   68.7780   60.6610 C   0  0  0  0  0  0  0  0  0  0  0  0
   43.4720   67.6320   60.2610 O   0  0  0  0  0  0  0  0  0  0  0  0
   40.4740   66.1280   63.7090 C   0  0  0  0  0  0  0  0  0  0  0  0
   40.1770   66.0530   62.3750 C   0  0  0  0  0  0  0  0  0  0  0  0
   40.7230   67.0030   61.5790 C   0  0  0  0  0  0  0  0  0  0  0  0
   41.5110   67.9440   62.1480 C   0  0  0  0  0  0  0  0  0  0  0  0
   41.5290   67.5290   63.9100 S   0  0  0  0  0  0  0  0  0  0  0  0
   40.0180   65.2420   64.7890 C   0  0  0  0  0  0  0  0  0  0  0  0
   40.0450   65.6170   66.1280 C   0  0  0  0  0  0  0  0  0  0  0  0
   39.5810   64.6940   67.0650 C   0  0  0  0  0  0  0  0  0  0  0  0
   39.1370   63.5040   66.6290 N   0  0  0  0  0  0  0  0  0  0  0  0
   39.1210   63.1570   65.3050 C   0  0  0  0  0  0  0  0  0  0  0  0
   39.5680   64.0550   64.4460 N   0  0  0  0  0  0  0  0  0  0  0  0
   38.6540   61.8910   64.8710 N   0  0  0  0  0  0  0  0  0  0  0  0
   42.1480   72.6960   61.8680 C   0  0  0  0  0  0  0  0  0  0  0  0
   41.5760   73.3980   60.6670 C   0  0  0  0  0  0  0  0  0  0  0  0
   42.0580   74.4900   59.9440 C   0  0  0  0  0  0  0  0  0  0  0  0
   41.1650   74.7770   58.9030 C   0  0  0  0  0  0  0  0  0  0  0  0
   40.1830   73.8270   59.0620 C   0  0  0  0  0  0  0  0  0  0  0  0
   40.4440   73.0510   60.0800 O   0  0  0  0  0  0  0  0  0  0  0  0
   38.9960   73.6740   58.2300 C   0  0  0  0  0  0  0  0  0  0  0  0
   38.2220   74.7290   57.7980 C   0  0  0  0  0  0  0  0  0  0  0  0
   37.1800   74.2020   57.0300 C   0  0  0  0  0  0  0  0  0  0  0  0
   37.3660   72.8530   57.0300 N   0  0  0  0  0  0  0  0  0  0  0  0
   38.4550   72.5400   57.7500 N   0  0  0  0  0  0  0  0  0  0  0  0
   41.1302   70.4226   62.6826 H   0  0  0  0  0  0  0  0  0  0  0  0
   44.5174   69.6608   59.4023 H   0  0  0  0  0  0  0  0  0  0  0  0
   39.5284   65.2621   61.9704 H   0  0  0  0  0  0  0  0  0  0  0  0
   40.5304   67.0093   60.4960 H   0  0  0  0  0  0  0  0  0  0  0  0
   40.4184   66.6046   66.4365 H   0  0  0  0  0  0  0  0  0  0  0  0
   39.5788   64.9356   68.1381 H   0  0  0  0  0  0  0  0  0  0  0  0
   38.6540   61.6583   63.8676 H   0  0  0  0  0  0  0  0  0  0  0  0
   38.3146   61.2037   65.5590 H   0  0  0  0  0  0  0  0  0  0  0  0
   41.3872   72.6013   62.6568 H   0  0  0  0  0  0  0  0  0  0  0  0
   42.9919   73.2517   62.3027 H   0  0  0  0  0  0  0  0  0  0  0  0
   42.9884   75.0369   60.1569 H   0  0  0  0  0  0  0  0  0  0  0  0
   41.2328   75.5695   58.1432 H   0  0  0  0  0  0  0  0  0  0  0  0
   38.3932   75.7931   58.0178 H   0  0  0  0  0  0  0  0  0  0  0  0
   36.3760   74.7612   56.5292 H   0  0  0  0  0  0  0  0  0  0  0  0
   36.7604   72.1730   56.5486 H   0  0  0  0  0  0  0  0  0  0  0  0
  1  2  1  0
  1 12  1  0
  3 21  1  0
  3  2  2  0
  4  3  1  0
  5  4  2  0
  6  4  1  0
  6  7  1  0
  7  1  1  0
  8  7  2  0
  9 13  1  0
  9 14  1  0
 10  9  2  0
 11 12  2  0
 11 10  1  0
 12 13  1  0
 14 15  2  0
 15 16  1  0
 17 16  2  0
 18 17  1  0
 19 14  1  0
 19 18  2  0
 20 18  1  0
 22 21  1  0
 23 22  2  0
 24 25  2  0
 24 23  1  0
 25 26  1  0
 26 22  1  0
 27 25  1  0
 28 27  1  0
 29 30  1  0
 29 28  2  0
 30 31  1  0
 31 27  2  0
  2 32  1  0
  6 33  1  0
 10 34  1  0
 11 35  1  0
 15 36  1  0
 16 37  1  0
 20 38  1  0
 20 39  1  0
 21 40  1  0
 21 41  1  0
 23 42  1  0
 24 43  1  0
 28 44  1  0
 29 45  1  0
 30 46  1  0
M  END
>  <Score>  (1) 
-7.9212

$$$$
