
     RDKit          3D

 53 58  0  0  1  0  0  0  0  0999 V2000
   40.9600   73.5070   60.2010 N   0  0  0  0  0  0  0  0  0  0  0  0
   40.9860   73.4340   61.6130 C   0  0  0  0  0  0  0  0  0  0  0  0
   41.5840   72.2760   62.2390 C   0  0  0  0  0  0  0  0  0  0  0  0
   42.3050   71.2510   61.3840 C   0  0  2  0  0  0  0  0  0  0  0  0
   42.0690   71.4020   59.9140 C   0  0  0  0  0  0  0  0  0  0  0  0
   42.0570   72.9070   59.5880 C   0  0  1  0  0  0  0  0  0  0  0  0
   39.4390   63.9770   65.4010 C   0  0  0  0  0  0  0  0  0  0  0  0
   39.3250   64.8640   66.4970 C   0  0  0  0  0  0  0  0  0  0  0  0
   39.8600   66.1430   66.3470 C   0  0  0  0  0  0  0  0  0  0  0  0
   40.4570   66.4620   65.1640 N   0  0  0  0  0  0  0  0  0  0  0  0
   40.5370   65.5780   64.1510 C   0  0  0  0  0  0  0  0  0  0  0  0
   40.0390   64.3520   64.2600 N   0  0  0  0  0  0  0  0  0  0  0  0
   41.1650   66.0050   62.9480 N   0  0  0  0  0  0  0  0  0  0  0  0
   41.6410   65.4040   61.8440 C   0  0  0  0  0  0  0  0  0  0  0  0
   42.1220   66.2990   60.9900 N   0  0  0  0  0  0  0  0  0  0  0  0
   41.9520   67.5180   61.5610 C   0  0  0  0  0  0  0  0  0  0  0  0
   42.2620   68.7820   61.1260 C   0  0  0  0  0  0  0  0  0  0  0  0
   42.8080   68.8880   60.0000 O   0  0  0  0  0  0  0  0  0  0  0  0
   42.0080   69.8980   61.8560 N   0  0  0  0  0  0  0  0  0  0  0  0
   41.4440   69.6800   63.0170 C   0  0  0  0  0  0  0  0  0  0  0  0
   41.2160   70.7850   63.9000 N   0  0  0  0  0  0  0  0  0  0  0  0
   41.1160   68.4890   63.4960 N   0  0  0  0  0  0  0  0  0  0  0  0
   41.3460   67.3520   62.8040 C   0  0  0  0  0  0  0  0  0  0  0  0
   42.4260   73.2070   58.2280 C   0  0  0  0  0  0  0  0  0  0  0  0
   41.5270   73.2560   57.1960 N   0  0  0  0  0  0  0  0  0  0  0  0
   41.8500   73.5240   55.9340 C   0  0  0  0  0  0  0  0  0  0  0  0
   43.1120   73.7760   55.5460 N   0  0  0  0  0  0  0  0  0  0  0  0
   44.0770   73.7550   56.4780 C   0  0  0  0  0  0  0  0  0  0  0  0
   45.3850   74.0120   56.1240 C   0  0  0  0  0  0  0  0  0  0  0  0
   46.3940   73.9990   57.0650 C   0  0  0  0  0  0  0  0  0  0  0  0
   46.0630   73.7190   58.3950 C   0  0  0  0  0  0  0  0  0  0  0  0
   44.7420   73.4690   58.6930 C   0  0  0  0  0  0  0  0  0  0  0  0
   43.7210   73.4760   57.7770 C   0  0  0  0  0  0  0  0  0  0  0  0
   40.1052   73.0394   59.8671 H   0  0  0  0  0  0  0  0  0  0  0  0
   41.5361   74.3162   61.9724 H   0  0  0  0  0  0  0  0  0  0  0  0
   39.9249   73.3716   61.8960 H   0  0  0  0  0  0  0  0  0  0  0  0
   42.3134   72.6502   62.9725 H   0  0  0  0  0  0  0  0  0  0  0  0
   40.7196   71.7209   62.6323 H   0  0  0  0  0  0  0  0  0  0  0  0
   43.3813   71.4415   61.5079 H   0  0  0  0  0  0  0  0  0  0  0  0
   42.8742   70.9047   59.3533 H   0  0  0  0  0  0  0  0  0  0  0  0
   41.1112   70.9412   59.6306 H   0  0  0  0  0  0  0  0  0  0  0  0
   42.8939   73.4473   60.0546 H   0  0  0  0  0  0  0  0  0  0  0  0
   39.0280   62.9601   65.4852 H   0  0  0  0  0  0  0  0  0  0  0  0
   38.8332   64.5566   67.4317 H   0  0  0  0  0  0  0  0  0  0  0  0
   39.8016   66.8771   67.1641 H   0  0  0  0  0  0  0  0  0  0  0  0
   41.6330   64.3176   61.6716 H   0  0  0  0  0  0  0  0  0  0  0  0
   40.7732   70.6288   64.8167 H   0  0  0  0  0  0  0  0  0  0  0  0
   41.4949   71.7356   63.6181 H   0  0  0  0  0  0  0  0  0  0  0  0
   41.0520   73.5401   55.1771 H   0  0  0  0  0  0  0  0  0  0  0  0
   45.6279   74.2310   55.0737 H   0  0  0  0  0  0  0  0  0  0  0  0
   47.4353   74.2042   56.7759 H   0  0  0  0  0  0  0  0  0  0  0  0
   46.8344   73.6991   59.1789 H   0  0  0  0  0  0  0  0  0  0  0  0
   44.4875   73.2480   59.7401 H   0  0  0  0  0  0  0  0  0  0  0  0
  1  2  1  0
  2  3  1  0
  4 19  1  0
  4  3  1  0
  5  4  1  0
  6  5  1  0
  6  1  1  0
  7  8  2  0
  9  8  1  0
 10  9  2  0
 11 12  2  0
 11 10  1  0
 12  7  1  0
 13 11  1  0
 14 13  1  0
 15 16  1  0
 15 14  2  0
 16 23  2  0
 17 16  1  0
 17 19  1  0
 18 17  2  0
 19 20  1  0
 20 22  2  0
 20 21  1  0
 23 13  1  0
 23 22  1  0
 24  6  1  0
 25 24  2  0
 26 25  1  0
 27 26  2  0
 27 28  1  0
 28 33  2  0
 29 28  1  0
 29 30  2  0
 30 31  1  0
 31 32  2  0
 33 24  1  0
 33 32  1  0
  1 34  1  0
  2 35  1  0
  2 36  1  0
  3 37  1  0
  3 38  1  0
  4 39  1  6
  5 40  1  0
  5 41  1  0
  6 42  1  1
  7 43  1  0
  8 44  1  0
  9 45  1  0
 14 46  1  0
 21 47  1  0
 21 48  1  0
 26 49  1  0
 29 50  1  0
 30 51  1  0
 31 52  1  0
 32 53  1  0
M  END
>  <Score>  (1) 
-8.14317

$$$$
