
     RDKit          3D

 37 41  0  0  0  0  0  0  0  0999 V2000
   41.2940   68.5120   58.5760 C   0  0  0  0  0  0  0  0  0  0  0  0
   41.5620   67.9570   59.8360 C   0  0  0  0  0  0  0  0  0  0  0  0
   41.8840   68.7200   60.9440 C   0  0  0  0  0  0  0  0  0  0  0  0
   41.9080   70.0590   60.6680 N   0  0  0  0  0  0  0  0  0  0  0  0
   41.6570   70.6180   59.4790 C   0  0  0  0  0  0  0  0  0  0  0  0
   41.3560   69.8400   58.4540 N   0  0  0  0  0  0  0  0  0  0  0  0
   41.7150   72.0330   59.3170 N   0  0  0  0  0  0  0  0  0  0  0  0
   42.5800   72.6820   58.5110 C   0  0  0  0  0  0  0  0  0  0  0  0
   42.3190   74.0000   58.6350 N   0  0  0  0  0  0  0  0  0  0  0  0
   41.3200   74.1710   59.4950 C   0  0  0  0  0  0  0  0  0  0  0  0
   40.6730   75.3140   59.9690 C   0  0  0  0  0  0  0  0  0  0  0  0
   39.6680   75.1490   60.8600 N   0  0  0  0  0  0  0  0  0  0  0  0
   39.3080   73.9140   61.2710 C   0  0  0  0  0  0  0  0  0  0  0  0
   39.9270   72.7960   60.8190 N   0  0  0  0  0  0  0  0  0  0  0  0
   40.9220   72.9250   59.9400 C   0  0  0  0  0  0  0  0  0  0  0  0
   42.2150   68.3620   62.2770 C   0  0  0  0  0  0  0  0  0  0  0  0
   43.5690   68.5340   62.6260 C   0  0  0  0  0  0  0  0  0  0  0  0
   44.0950   68.2380   63.8710 C   0  0  0  0  0  0  0  0  0  0  0  0
   43.2570   67.7420   64.8420 C   0  0  0  0  0  0  0  0  0  0  0  0
   41.9130   67.5480   64.5650 C   0  0  0  0  0  0  0  0  0  0  0  0
   41.0580   67.0570   65.5230 C   0  0  0  0  0  0  0  0  0  0  0  0
   39.7040   66.8540   65.2860 C   0  0  0  0  0  0  0  0  0  0  0  0
   39.2710   67.1820   64.0070 C   0  0  0  0  0  0  0  0  0  0  0  0
   40.1570   67.6710   63.0720 C   0  0  0  0  0  0  0  0  0  0  0  0
   41.4830   67.8670   63.3160 C   0  0  0  0  0  0  0  0  0  0  0  0
   41.0410   67.8739   57.7165 H   0  0  0  0  0  0  0  0  0  0  0  0
   41.5139   66.8638   59.9483 H   0  0  0  0  0  0  0  0  0  0  0  0
   43.3512   72.2242   57.8740 H   0  0  0  0  0  0  0  0  0  0  0  0
   40.9708   76.3168   59.6289 H   0  0  0  0  0  0  0  0  0  0  0  0
   38.4865   73.8121   61.9954 H   0  0  0  0  0  0  0  0  0  0  0  0
   44.2519   68.9290   61.8594 H   0  0  0  0  0  0  0  0  0  0  0  0
   45.1633   68.3964   64.0802 H   0  0  0  0  0  0  0  0  0  0  0  0
   43.6536   67.4992   65.8389 H   0  0  0  0  0  0  0  0  0  0  0  0
   41.4620   66.8151   66.5171 H   0  0  0  0  0  0  0  0  0  0  0  0
   39.0234   66.4616   66.0559 H   0  0  0  0  0  0  0  0  0  0  0  0
   38.2124   67.0502   63.7389 H   0  0  0  0  0  0  0  0  0  0  0  0
   39.7718   67.9172   62.0715 H   0  0  0  0  0  0  0  0  0  0  0  0
  1  2  2  0
  2  3  1  0
  3 16  1  0
  4  3  2  0
  5  4  1  0
  6  1  1  0
  6  5  2  0
  7  5  1  0
  7 15  1  0
  8  9  2  0
  8  7  1  0
  9 10  1  0
 10 15  2  0
 10 11  1  0
 11 12  2  0
 12 13  1  0
 14 13  2  0
 15 14  1  0
 16 17  2  0
 16 25  1  0
 17 18  1  0
 18 19  2  0
 20 19  1  0
 20 21  2  0
 22 21  1  0
 23 22  2  0
 24 25  2  0
 24 23  1  0
 25 20  1  0
  1 26  1  0
  2 27  1  0
  8 28  1  0
 11 29  1  0
 13 30  1  0
 17 31  1  0
 18 32  1  0
 19 33  1  0
 21 34  1  0
 22 35  1  0
 23 36  1  0
 24 37  1  0
M  END
>  <Score>  (1) 
-7.61593

$$$$
