
     RDKit          3D

 46 50  0  0  0  0  0  0  0  0999 V2000
   41.3800   67.7630   58.4660 C   0  0  0  0  0  0  0  0  0  0  0  0
   41.6820   67.3360   59.7740 C   0  0  0  0  0  0  0  0  0  0  0  0
   41.8770   68.2280   60.8250 C   0  0  0  0  0  0  0  0  0  0  0  0
   41.7430   69.5470   60.4470 N   0  0  0  0  0  0  0  0  0  0  0  0
   41.4530   69.9540   59.1920 C   0  0  0  0  0  0  0  0  0  0  0  0
   41.2790   69.0690   58.2360 N   0  0  0  0  0  0  0  0  0  0  0  0
   42.2070   68.0210   62.1840 C   0  0  0  0  0  0  0  0  0  0  0  0
   43.5610   68.2790   62.5090 C   0  0  0  0  0  0  0  0  0  0  0  0
   44.0810   68.1340   63.7880 C   0  0  0  0  0  0  0  0  0  0  0  0
   43.2430   67.7180   64.8050 C   0  0  0  0  0  0  0  0  0  0  0  0
   41.9130   67.4510   64.5460 C   0  0  0  0  0  0  0  0  0  0  0  0
   41.0610   67.0380   65.5320 C   0  0  0  0  0  0  0  0  0  0  0  0
   39.7290   66.7610   65.3200 C   0  0  0  0  0  0  0  0  0  0  0  0
   39.3000   66.9340   64.0120 C   0  0  0  0  0  0  0  0  0  0  0  0
   40.1720   67.3530   63.0290 C   0  0  0  0  0  0  0  0  0  0  0  0
   41.4850   67.6200   63.2610 C   0  0  0  0  0  0  0  0  0  0  0  0
   41.3360   71.3830   58.9060 C   0  0  0  0  0  0  0  0  0  0  0  0
   41.0300   71.9030   57.6600 C   0  0  0  0  0  0  0  0  0  0  0  0
   41.0290   73.2820   57.8730 C   0  0  0  0  0  0  0  0  0  0  0  0
   41.3290   73.5180   59.2160 C   0  0  0  0  0  0  0  0  0  0  0  0
   41.5000   72.3350   59.7740 O   0  0  0  0  0  0  0  0  0  0  0  0
   41.4240   74.8430   59.8430 C   0  0  0  0  0  0  0  0  0  0  0  0
   40.3250   75.7770   59.4590 C   0  0  0  0  0  0  0  0  0  0  0  0
   41.0430   77.1240   59.4910 C   0  0  0  0  0  0  0  0  0  0  0  0
   42.3120   76.8040   58.7620 C   0  0  0  0  0  0  0  0  0  0  0  0
   42.7250   75.4830   59.3730 C   0  0  0  0  0  0  0  0  0  0  0  0
   41.2315   67.0346   57.6553 H   0  0  0  0  0  0  0  0  0  0  0  0
   41.7669   66.2574   59.9724 H   0  0  0  0  0  0  0  0  0  0  0  0
   44.2357   68.6115   61.7064 H   0  0  0  0  0  0  0  0  0  0  0  0
   45.1415   68.3465   63.9884 H   0  0  0  0  0  0  0  0  0  0  0  0
   43.6369   67.5990   65.8251 H   0  0  0  0  0  0  0  0  0  0  0  0
   41.4612   66.9206   66.5499 H   0  0  0  0  0  0  0  0  0  0  0  0
   39.0573   66.4284   66.1251 H   0  0  0  0  0  0  0  0  0  0  0  0
   38.2492   66.7341   63.7552 H   0  0  0  0  0  0  0  0  0  0  0  0
   39.7861   67.4774   62.0064 H   0  0  0  0  0  0  0  0  0  0  0  0
   40.8342   71.3585   56.7245 H   0  0  0  0  0  0  0  0  0  0  0  0
   40.8266   74.0512   57.1132 H   0  0  0  0  0  0  0  0  0  0  0  0
   41.3664   74.6856   60.9302 H   0  0  0  0  0  0  0  0  0  0  0  0
   39.4989   75.7450   60.1846 H   0  0  0  0  0  0  0  0  0  0  0  0
   39.8554   75.5427   58.4923 H   0  0  0  0  0  0  0  0  0  0  0  0
   40.4644   77.9002   58.9687 H   0  0  0  0  0  0  0  0  0  0  0  0
   41.1967   77.5261   60.5033 H   0  0  0  0  0  0  0  0  0  0  0  0
   43.0749   77.5770   58.9363 H   0  0  0  0  0  0  0  0  0  0  0  0
   42.1876   76.7590   57.6700 H   0  0  0  0  0  0  0  0  0  0  0  0
   43.2197   74.8480   58.6234 H   0  0  0  0  0  0  0  0  0  0  0  0
   43.4423   75.6145   60.1965 H   0  0  0  0  0  0  0  0  0  0  0  0
  1  2  2  0
  2  3  1  0
  3  7  1  0
  4  3  2  0
  5  4  1  0
  6  1  1  0
  6  5  2  0
  7  8  2  0
  7 16  1  0
  8  9  1  0
  9 10  2  0
 11 10  1  0
 11 12  2  0
 13 12  1  0
 14 13  2  0
 15 16  2  0
 15 14  1  0
 16 11  1  0
 17  5  1  0
 17 21  1  0
 18 19  1  0
 18 17  2  0
 19 20  2  0
 20 21  1  0
 20 22  1  0
 23 24  1  0
 23 22  1  0
 25 26  1  0
 25 24  1  0
 26 22  1  0
  1 27  1  0
  2 28  1  0
  8 29  1  0
  9 30  1  0
 10 31  1  0
 12 32  1  0
 13 33  1  0
 14 34  1  0
 15 35  1  0
 18 36  1  0
 19 37  1  0
 22 38  1  0
 23 39  1  0
 23 40  1  0
 24 41  1  0
 24 42  1  0
 25 43  1  0
 25 44  1  0
 26 45  1  0
 26 46  1  0
M  END
>  <Score>  (1) 
-7.30524

$$$$
