
     RDKit          3D

 41 45  0  0  1  0  0  0  0  0999 V2000
   41.5770   67.9510   60.8740 C   0  0  0  0  0  0  0  0  0  0  0  0
   41.4780   66.8500   60.0430 C   0  0  0  0  0  0  0  0  0  0  0  0
   41.4610   67.4010   58.7860 C   0  0  0  0  0  0  0  0  0  0  0  0
   41.5430   68.7440   58.8170 N   0  0  0  0  0  0  0  0  0  0  0  0
   41.6110   69.0490   60.1000 N   0  0  0  0  0  0  0  0  0  0  0  0
   41.3560   69.4300   54.1980 N   0  0  0  0  0  0  0  0  0  0  0  0
   41.2670   68.1190   54.5140 C   0  0  0  0  0  0  0  0  0  0  0  0
   41.3270   68.0100   55.8550 N   0  0  0  0  0  0  0  0  0  0  0  0
   41.4530   69.1980   56.4320 C   0  0  0  0  0  0  0  0  0  0  0  0
   41.5560   69.6380   57.7470 C   0  0  1  0  0  0  0  0  0  0  0  0
   41.6710   70.9430   57.9440 N   0  0  0  0  0  0  0  0  0  0  0  0
   41.6910   71.8410   56.9180 C   0  0  0  0  0  0  0  0  0  0  0  0
   41.5890   71.4060   55.6280 N   0  0  0  0  0  0  0  0  0  0  0  0
   41.4690   70.0820   55.3680 C   0  0  0  0  0  0  0  0  0  0  0  0
   41.8480   73.5920   57.2090 S   0  0  0  0  0  0  0  0  0  0  0  0
   41.0690   66.9390   64.3430 C   0  0  0  0  0  0  0  0  0  0  0  0
   41.7560   67.9510   64.9990 C   0  0  0  0  0  0  0  0  0  0  0  0
   42.3900   68.9720   64.3280 C   0  0  0  0  0  0  0  0  0  0  0  0
   42.3050   68.9340   62.9750 N   0  0  0  0  0  0  0  0  0  0  0  0
   41.6350   67.9450   62.3440 C   0  0  0  0  0  0  0  0  0  0  0  0
   41.0180   66.9510   62.9950 N   0  0  0  0  0  0  0  0  0  0  0  0
   40.4070   65.8690   65.0380 C   0  0  0  0  0  0  0  0  0  0  0  0
   40.2410   65.9990   66.4010 C   0  0  0  0  0  0  0  0  0  0  0  0
   39.6130   65.0220   67.1710 C   0  0  0  0  0  0  0  0  0  0  0  0
   39.1440   63.8800   66.5120 C   0  0  0  0  0  0  0  0  0  0  0  0
   39.2960   63.7200   65.1470 C   0  0  0  0  0  0  0  0  0  0  0  0
   39.9170   64.7080   64.4450 C   0  0  0  0  0  0  0  0  0  0  0  0
   41.4255   65.7874   60.3224 H   0  0  0  0  0  0  0  0  0  0  0  0
   41.3887   66.8124   57.8595 H   0  0  0  0  0  0  0  0  0  0  0  0
   41.3404   69.8441   53.2551 H   0  0  0  0  0  0  0  0  0  0  0  0
   41.1637   67.2874   53.8014 H   0  0  0  0  0  0  0  0  0  0  0  0
   42.6510   69.5500   57.6907 H   0  0  0  0  0  0  0  0  0  0  0  0
   41.6033   72.0841   54.8529 H   0  0  0  0  0  0  0  0  0  0  0  0
   41.8694   73.8306   58.5579 H   0  0  0  0  0  0  0  0  0  0  0  0
   41.7953   67.9365   66.0982 H   0  0  0  0  0  0  0  0  0  0  0  0
   42.9323   69.7697   64.8567 H   0  0  0  0  0  0  0  0  0  0  0  0
   40.6175   66.9055   66.8975 H   0  0  0  0  0  0  0  0  0  0  0  0
   39.4904   65.1440   68.2573 H   0  0  0  0  0  0  0  0  0  0  0  0
   38.6431   63.0917   67.0931 H   0  0  0  0  0  0  0  0  0  0  0  0
   38.9245   62.8169   64.6406 H   0  0  0  0  0  0  0  0  0  0  0  0
   40.0372   64.5832   63.3587 H   0  0  0  0  0  0  0  0  0  0  0  0
  1 20  1  0
  2  1  1  0
  3  4  1  0
  3  2  2  0
  4  5  1  0
  5  1  2  0
  6  7  1  0
  6 14  1  0
  7  8  2  0
  8  9  1  0
  9 10  1  0
 10 11  1  0
 10  4  1  0
 12 15  1  0
 12 11  2  0
 13 12  1  0
 14 13  1  0
 14  9  2  0
 16 17  2  0
 16 22  1  0
 18 17  1  0
 19 18  2  0
 20 19  1  0
 20 21  2  0
 21 16  1  0
 22 23  2  0
 23 24  1  0
 25 24  2  0
 26 25  1  0
 27 22  1  0
 27 26  2  0
  2 28  1  0
  3 29  1  0
  6 30  1  0
  7 31  1  0
 10 32  1  6
 13 33  1  0
 15 34  1  0
 17 35  1  0
 18 36  1  0
 23 37  1  0
 24 38  1  0
 25 39  1  0
 26 40  1  0
 27 41  1  0
M  END
>  <Score>  (1) 
-7.28973

$$$$
