
     RDKit          3D

 42 46  0  0  0  0  0  0  0  0999 V2000
   41.5020   67.7630   58.4130 C   0  0  0  0  0  0  0  0  0  0  0  0
   41.8200   67.3670   59.7230 C   0  0  0  0  0  0  0  0  0  0  0  0
   41.9130   68.2500   60.7920 C   0  0  0  0  0  0  0  0  0  0  0  0
   41.6570   69.5640   60.4310 N   0  0  0  0  0  0  0  0  0  0  0  0
   41.3480   69.9530   59.1640 C   0  0  0  0  0  0  0  0  0  0  0  0
   41.2780   69.0480   58.1870 N   0  0  0  0  0  0  0  0  0  0  0  0
   42.2270   68.0630   62.1500 C   0  0  0  0  0  0  0  0  0  0  0  0
   43.5740   68.3420   62.4840 C   0  0  0  0  0  0  0  0  0  0  0  0
   44.0770   68.2180   63.7770 C   0  0  0  0  0  0  0  0  0  0  0  0
   43.2370   67.8060   64.7830 C   0  0  0  0  0  0  0  0  0  0  0  0
   41.9000   67.5160   64.5240 C   0  0  0  0  0  0  0  0  0  0  0  0
   41.0410   67.1070   65.4940 C   0  0  0  0  0  0  0  0  0  0  0  0
   39.7230   66.8150   65.2670 C   0  0  0  0  0  0  0  0  0  0  0  0
   39.3200   66.9670   63.9590 C   0  0  0  0  0  0  0  0  0  0  0  0
   40.1840   67.3810   62.9700 C   0  0  0  0  0  0  0  0  0  0  0  0
   41.4740   67.6620   63.2240 C   0  0  0  0  0  0  0  0  0  0  0  0
   41.0970   71.3610   58.8850 C   0  0  0  0  0  0  0  0  0  0  0  0
   41.3140   71.9510   57.6660 C   0  0  0  0  0  0  0  0  0  0  0  0
   40.9420   73.2790   57.8650 C   0  0  0  0  0  0  0  0  0  0  0  0
   40.5280   73.4060   59.1850 C   0  0  0  0  0  0  0  0  0  0  0  0
   40.6440   72.2180   59.7460 O   0  0  0  0  0  0  0  0  0  0  0  0
   40.0530   74.4560   59.9650 O   0  0  0  0  0  0  0  0  0  0  0  0
   40.7030   75.7050   59.8940 C   0  0  0  0  0  0  0  0  0  0  0  0
   39.9620   76.7630   60.4010 C   0  0  0  0  0  0  0  0  0  0  0  0
   41.1130   78.2300   60.1490 S   0  0  0  0  0  0  0  0  0  0  0  0
   42.4000   77.0620   59.3850 C   0  0  0  0  0  0  0  0  0  0  0  0
   41.8870   76.0650   59.4380 N   0  0  0  0  0  0  0  0  0  0  0  0
   41.4409   67.0263   57.5984 H   0  0  0  0  0  0  0  0  0  0  0  0
   42.0055   66.2995   59.9128 H   0  0  0  0  0  0  0  0  0  0  0  0
   44.2549   68.6720   61.6856 H   0  0  0  0  0  0  0  0  0  0  0  0
   45.1318   68.4467   63.9896 H   0  0  0  0  0  0  0  0  0  0  0  0
   43.6259   67.7038   65.8069 H   0  0  0  0  0  0  0  0  0  0  0  0
   41.4263   67.0048   66.5192 H   0  0  0  0  0  0  0  0  0  0  0  0
   39.0411   66.4856   66.0648 H   0  0  0  0  0  0  0  0  0  0  0  0
   38.2741   66.7507   63.6958 H   0  0  0  0  0  0  0  0  0  0  0  0
   39.8076   67.4849   61.9416 H   0  0  0  0  0  0  0  0  0  0  0  0
   41.6936   71.4842   56.7451 H   0  0  0  0  0  0  0  0  0  0  0  0
   40.9709   74.0814   57.1131 H   0  0  0  0  0  0  0  0  0  0  0  0
   39.0237   76.8942   59.8422 H   0  0  0  0  0  0  0  0  0  0  0  0
   39.6577   76.6211   61.4485 H   0  0  0  0  0  0  0  0  0  0  0  0
   43.3318   77.0608   59.9695 H   0  0  0  0  0  0  0  0  0  0  0  0
   42.6991   77.3468   58.3655 H   0  0  0  0  0  0  0  0  0  0  0  0
  1  2  2  0
  2  3  1  0
  3  7  1  0
  4  3  2  0
  5  4  1  0
  6  1  1  0
  6  5  2  0
  7  8  2  0
  7 16  1  0
  8  9  1  0
  9 10  2  0
 11 10  1  0
 11 12  2  0
 13 12  1  0
 14 13  2  0
 15 16  2  0
 15 14  1  0
 16 11  1  0
 17  5  1  0
 17 21  1  0
 18 19  1  0
 18 17  2  0
 19 20  2  0
 20 21  1  0
 20 22  1  0
 23 22  1  0
 23 24  1  0
 25 24  1  0
 26 27  1  0
 26 25  1  0
 27 23  2  0
  1 28  1  0
  2 29  1  0
  8 30  1  0
  9 31  1  0
 10 32  1  0
 12 33  1  0
 13 34  1  0
 14 35  1  0
 15 36  1  0
 18 37  1  0
 19 38  1  0
 24 39  1  0
 24 40  1  0
 26 41  1  0
 26 42  1  0
M  END
>  <Score>  (1) 
-7.25049

$$$$
