
     RDKit          3D

 41 44  0  0  0  0  0  0  0  0999 V2000
   41.4460   67.7640   58.4570 C   0  0  0  0  0  0  0  0  0  0  0  0
   41.7630   67.3470   59.7660 C   0  0  0  0  0  0  0  0  0  0  0  0
   41.8970   68.2300   60.8370 C   0  0  0  0  0  0  0  0  0  0  0  0
   41.6840   69.5600   60.4750 N   0  0  0  0  0  0  0  0  0  0  0  0
   41.3790   69.9460   59.2040 C   0  0  0  0  0  0  0  0  0  0  0  0
   41.2650   69.0530   58.2270 N   0  0  0  0  0  0  0  0  0  0  0  0
   42.2170   68.0330   62.1850 C   0  0  0  0  0  0  0  0  0  0  0  0
   43.5630   68.3000   62.5070 C   0  0  0  0  0  0  0  0  0  0  0  0
   44.0710   68.1630   63.8040 C   0  0  0  0  0  0  0  0  0  0  0  0
   43.2420   67.7540   64.8130 C   0  0  0  0  0  0  0  0  0  0  0  0
   41.9090   67.4760   64.5540 C   0  0  0  0  0  0  0  0  0  0  0  0
   41.0520   67.0660   65.5220 C   0  0  0  0  0  0  0  0  0  0  0  0
   39.7310   66.7810   65.3050 C   0  0  0  0  0  0  0  0  0  0  0  0
   39.3240   66.9440   64.0010 C   0  0  0  0  0  0  0  0  0  0  0  0
   40.1840   67.3610   63.0080 C   0  0  0  0  0  0  0  0  0  0  0  0
   41.4940   67.6360   63.2620 C   0  0  0  0  0  0  0  0  0  0  0  0
   41.1790   71.3670   58.9230 C   0  0  0  0  0  0  0  0  0  0  0  0
   41.2620   71.9340   57.6860 C   0  0  0  0  0  0  0  0  0  0  0  0
   41.0000   73.2930   57.9140 C   0  0  0  0  0  0  0  0  0  0  0  0
   40.7780   73.4560   59.2720 C   0  0  0  0  0  0  0  0  0  0  0  0
   40.9000   72.2620   59.8210 O   0  0  0  0  0  0  0  0  0  0  0  0
   40.9710   74.3730   56.9320 C   0  0  0  0  0  0  0  0  0  0  0  0
   39.6180   74.5990   56.6140 F   0  0  0  0  0  0  0  0  0  0  0  0
   41.4610   75.5740   57.3330 F   0  0  0  0  0  0  0  0  0  0  0  0
   41.4980   73.9020   55.7380 F   0  0  0  0  0  0  0  0  0  0  0  0
   40.4840   74.5290   60.0510 O   0  0  0  0  0  0  0  0  0  0  0  0
   39.2410   75.1310   60.2260 C   0  0  0  0  0  0  0  0  0  0  0  0
   38.7680   76.1010   59.3000 N   0  0  0  0  0  0  0  0  0  0  0  0
   38.9410   74.5010   61.3060 O   0  0  0  0  0  0  0  0  0  0  0  0
   41.3511   67.0306   57.6427 H   0  0  0  0  0  0  0  0  0  0  0  0
   41.9118   66.2730   59.9515 H   0  0  0  0  0  0  0  0  0  0  0  0
   44.2417   68.6294   61.7065 H   0  0  0  0  0  0  0  0  0  0  0  0
   45.1289   68.3825   64.0107 H   0  0  0  0  0  0  0  0  0  0  0  0
   43.6354   67.6453   65.8345 H   0  0  0  0  0  0  0  0  0  0  0  0
   41.4426   66.9557   66.5444 H   0  0  0  0  0  0  0  0  0  0  0  0
   39.0526   66.4498   66.1051 H   0  0  0  0  0  0  0  0  0  0  0  0
   38.2757   66.7342   63.7419 H   0  0  0  0  0  0  0  0  0  0  0  0
   39.8024   67.4749   61.9826 H   0  0  0  0  0  0  0  0  0  0  0  0
   41.4836   71.4393   56.7288 H   0  0  0  0  0  0  0  0  0  0  0  0
   37.8467   76.5399   59.4395 H   0  0  0  0  0  0  0  0  0  0  0  0
   39.3467   76.3647   58.4898 H   0  0  0  0  0  0  0  0  0  0  0  0
  1  2  2  0
  2  3  1  0
  3  7  1  0
  4  3  2  0
  5  4  1  0
  6  1  1  0
  6  5  2  0
  7  8  2  0
  7 16  1  0
  8  9  1  0
  9 10  2  0
 11 10  1  0
 11 12  2  0
 13 12  1  0
 14 13  2  0
 15 16  2  0
 15 14  1  0
 16 11  1  0
 17  5  1  0
 17 21  1  0
 18 19  1  0
 18 17  2  0
 19 20  2  0
 20 21  1  0
 20 26  1  0
 22 24  1  0
 22 19  1  0
 23 22  1  0
 25 22  1  0
 26 27  1  0
 27 29  2  0
 28 27  1  0
  1 30  1  0
  2 31  1  0
  8 32  1  0
  9 33  1  0
 10 34  1  0
 12 35  1  0
 13 36  1  0
 14 37  1  0
 15 38  1  0
 18 39  1  0
 28 40  1  0
 28 41  1  0
M  END
>  <Score>  (1) 
-7.01527

$$$$
