
     RDKit          3D

 48 51  0  0  1  0  0  0  0  0999 V2000
   42.4550   70.6990   62.0680 C   0  0  2  0  0  0  0  0  0  0  0  0
   39.7860   64.4810   64.4540 C   0  0  0  0  0  0  0  0  0  0  0  0
   39.4130   65.1300   65.6360 C   0  0  0  0  0  0  0  0  0  0  0  0
   39.8580   66.4190   65.7900 C   0  0  0  0  0  0  0  0  0  0  0  0
   40.6120   66.9560   64.8020 N   0  0  0  0  0  0  0  0  0  0  0  0
   40.9620   66.3010   63.6580 C   0  0  0  0  0  0  0  0  0  0  0  0
   40.5440   65.0530   63.4860 N   0  0  0  0  0  0  0  0  0  0  0  0
   41.7590   67.1120   62.8430 N   0  0  0  0  0  0  0  0  0  0  0  0
   41.6140   68.4540   62.7950 C   0  0  0  0  0  0  0  0  0  0  0  0
   42.5060   69.1910   61.9860 C   0  0  0  0  0  0  0  0  0  0  0  0
   43.4600   68.4960   61.2960 C   0  0  0  0  0  0  0  0  0  0  0  0
   44.3200   69.2650   60.4550 N   0  0  0  0  0  0  0  0  0  0  0  0
   43.5680   67.1520   61.3730 N   0  0  0  0  0  0  0  0  0  0  0  0
   42.7050   66.4250   62.1610 C   0  0  0  0  0  0  0  0  0  0  0  0
   42.8370   65.1890   62.2040 O   0  0  0  0  0  0  0  0  0  0  0  0
   41.5640   71.2060   63.0840 C   0  0  0  0  0  0  0  0  0  0  0  0
   41.8400   71.0770   60.6180 C   0  0  0  0  0  0  0  0  0  0  0  0
   42.4910   72.2980   60.2430 N   0  0  0  0  0  0  0  0  0  0  0  0
   43.7320   72.6030   60.6400 N   0  0  0  0  0  0  0  0  0  0  0  0
   44.1030   73.8000   60.1510 C   0  0  0  0  0  0  0  0  0  0  0  0
   43.0800   74.3080   59.4050 C   0  0  0  0  0  0  0  0  0  0  0  0
   42.1110   73.3380   59.4970 C   0  0  0  0  0  0  0  0  0  0  0  0
   40.8080   73.3330   58.9070 N   0  0  0  0  0  0  0  0  0  0  0  0
   40.7040   72.8090   57.6630 C   0  0  0  0  0  0  0  0  0  0  0  0
   39.4610   72.7880   57.0640 C   0  0  0  0  0  0  0  0  0  0  0  0
   38.3430   73.2990   57.7310 C   0  0  0  0  0  0  0  0  0  0  0  0
   37.0780   73.2610   57.0830 N   0  0  0  0  0  0  0  0  0  0  0  0
   38.5140   73.7980   58.9480 N   0  0  0  0  0  0  0  0  0  0  0  0
   39.7160   73.8320   59.5580 C   0  0  0  0  0  0  0  0  0  0  0  0
   39.9100   74.3010   60.7130 O   0  0  0  0  0  0  0  0  0  0  0  0
   43.4392   71.1213   62.3189 H   0  0  0  0  0  0  0  0  0  0  0  0
   39.4445   63.4466   64.3010 H   0  0  0  0  0  0  0  0  0  0  0  0
   38.7966   64.6341   66.4003 H   0  0  0  0  0  0  0  0  0  0  0  0
   39.6091   66.9995   66.6906 H   0  0  0  0  0  0  0  0  0  0  0  0
   40.8234   68.9584   63.3699 H   0  0  0  0  0  0  0  0  0  0  0  0
   44.2183   70.2891   60.4131 H   0  0  0  0  0  0  0  0  0  0  0  0
   45.0422   68.7957   59.8901 H   0  0  0  0  0  0  0  0  0  0  0  0
   41.9722   70.9737   64.0787 H   0  0  0  0  0  0  0  0  0  0  0  0
   41.4646   72.2959   62.9738 H   0  0  0  0  0  0  0  0  0  0  0  0
   40.5762   70.7347   62.9738 H   0  0  0  0  0  0  0  0  0  0  0  0
   42.0571   70.2836   59.8877 H   0  0  0  0  0  0  0  0  0  0  0  0
   40.7459   71.1863   60.6501 H   0  0  0  0  0  0  0  0  0  0  0  0
   45.0728   74.2893   60.3243 H   0  0  0  0  0  0  0  0  0  0  0  0
   43.0404   75.2633   58.8612 H   0  0  0  0  0  0  0  0  0  0  0  0
   41.5876   72.4103   57.1431 H   0  0  0  0  0  0  0  0  0  0  0  0
   39.3487   72.3662   56.0543 H   0  0  0  0  0  0  0  0  0  0  0  0
   36.2440   73.6329   57.5594 H   0  0  0  0  0  0  0  0  0  0  0  0
   36.9957   72.8616   56.1372 H   0  0  0  0  0  0  0  0  0  0  0  0
  1 16  1  0
  2  3  2  0
  3  4  1  0
  5  4  2  0
  6  5  1  0
  7  6  2  0
  7  2  1  0
  8  6  1  0
  9  8  1  0
 10  1  1  0
 10  9  2  0
 11 13  2  0
 11 10  1  0
 12 11  1  0
 13 14  1  0
 14 15  2  0
 14  8  1  0
 17  1  1  0
 18 17  1  0
 18 19  1  0
 20 19  2  0
 21 22  2  0
 21 20  1  0
 22 18  1  0
 23 22  1  0
 23 29  1  0
 24 23  1  0
 25 24  2  0
 25 26  1  0
 26 28  2  0
 27 26  1  0
 28 29  1  0
 29 30  2  0
  1 31  1  1
  2 32  1  0
  3 33  1  0
  4 34  1  0
  9 35  1  0
 12 36  1  0
 12 37  1  0
 16 38  1  0
 16 39  1  0
 16 40  1  0
 17 41  1  0
 17 42  1  0
 20 43  1  0
 21 44  1  0
 24 45  1  0
 25 46  1  0
 27 47  1  0
 27 48  1  0
M  END
>  <Score>  (1) 
-7.93158

$$$$
