
     RDKit          3D

 37 40  0  0  0  0  0  0  0  0999 V2000
   41.5870   66.3080   62.3850 C   0  0  0  0  0  0  0  0  0  0  0  0
   40.9760   67.1360   61.3970 C   0  0  0  0  0  0  0  0  0  0  0  0
   41.3560   66.9000   60.0660 C   0  0  0  0  0  0  0  0  0  0  0  0
   42.2580   65.9250   59.7910 N   0  0  0  0  0  0  0  0  0  0  0  0
   42.8140   65.1610   60.7660 C   0  0  0  0  0  0  0  0  0  0  0  0
   42.4720   65.3590   62.0620 N   0  0  0  0  0  0  0  0  0  0  0  0
   43.7490   64.1670   60.3580 N   0  0  0  0  0  0  0  0  0  0  0  0
   43.5550   63.1350   59.5250 C   0  0  0  0  0  0  0  0  0  0  0  0
   44.6170   62.2940   59.2740 C   0  0  0  0  0  0  0  0  0  0  0  0
   44.3810   61.1560   58.3490 C   0  0  0  0  0  0  0  0  0  0  0  0
   45.8660   62.4570   59.8310 C   0  0  0  0  0  0  0  0  0  0  0  0
   46.8050   61.6620   59.5710 O   0  0  0  0  0  0  0  0  0  0  0  0
   45.9940   63.5160   60.6620 N   0  0  0  0  0  0  0  0  0  0  0  0
   44.9690   64.3610   60.9290 C   0  0  0  0  0  0  0  0  0  0  0  0
   45.2730   65.2880   61.7220 O   0  0  0  0  0  0  0  0  0  0  0  0
   41.1960   66.5490   63.7740 C   0  0  0  0  0  0  0  0  0  0  0  0
   41.4720   67.6870   64.5460 C   0  0  0  0  0  0  0  0  0  0  0  0
   40.9260   67.4930   65.7690 N   0  0  0  0  0  0  0  0  0  0  0  0
   40.3160   66.2830   65.8090 C   0  0  0  0  0  0  0  0  0  0  0  0
   39.6110   65.6010   66.8130 C   0  0  0  0  0  0  0  0  0  0  0  0
   39.0800   64.3440   66.5760 C   0  0  0  0  0  0  0  0  0  0  0  0
   39.2490   63.7570   65.3290 C   0  0  0  0  0  0  0  0  0  0  0  0
   39.9420   64.4210   64.3340 C   0  0  0  0  0  0  0  0  0  0  0  0
   40.4790   65.6840   64.5630 C   0  0  0  0  0  0  0  0  0  0  0  0
   40.2476   67.9161   61.6631 H   0  0  0  0  0  0  0  0  0  0  0  0
   40.9252   67.5016   59.2520 H   0  0  0  0  0  0  0  0  0  0  0  0
   42.5753   62.9643   59.0549 H   0  0  0  0  0  0  0  0  0  0  0  0
   44.1916   60.2427   58.9321 H   0  0  0  0  0  0  0  0  0  0  0  0
   43.5089   61.3737   57.7149 H   0  0  0  0  0  0  0  0  0  0  0  0
   45.2677   61.0089   57.7149 H   0  0  0  0  0  0  0  0  0  0  0  0
   46.9059   63.6869   61.1093 H   0  0  0  0  0  0  0  0  0  0  0  0
   42.0307   68.5757   64.2172 H   0  0  0  0  0  0  0  0  0  0  0  0
   40.9676   68.1627   66.5504 H   0  0  0  0  0  0  0  0  0  0  0  0
   39.4788   66.0701   67.7991 H   0  0  0  0  0  0  0  0  0  0  0  0
   38.5295   63.8156   67.3683 H   0  0  0  0  0  0  0  0  0  0  0  0
   38.8297   62.7593   65.1320 H   0  0  0  0  0  0  0  0  0  0  0  0
   40.0703   63.9456   63.3504 H   0  0  0  0  0  0  0  0  0  0  0  0
  1 16  1  0
  2  1  2  0
  3  2  1  0
  4  3  2  0
  4  5  1  0
  5  6  2  0
  6  1  1  0
  7  5  1  0
  7 14  1  0
  8  7  1  0
  9  8  2  0
  9 11  1  0
 10  9  1  0
 11 13  1  0
 12 11  2  0
 13 14  1  0
 14 15  2  0
 16 17  2  0
 16 24  1  0
 17 18  1  0
 18 19  1  0
 19 20  2  0
 21 20  1  0
 22 21  2  0
 23 24  2  0
 23 22  1  0
 24 19  1  0
  2 25  1  0
  3 26  1  0
  8 27  1  0
 10 28  1  0
 10 29  1  0
 10 30  1  0
 13 31  1  0
 17 32  1  0
 18 33  1  0
 20 34  1  0
 21 35  1  0
 22 36  1  0
 23 37  1  0
M  END
>  <Score>  (1) 
-7.43046

$$$$
