
     RDKit          3D

 45 49  0  0  0  0  0  0  0  0999 V2000
   41.8980   72.2000   59.6770 C   0  0  0  0  0  0  0  0  0  0  0  0
   42.5180   69.2460   61.8130 N   0  0  0  0  0  0  0  0  0  0  0  0
   43.6420   68.7080   61.2970 C   0  0  0  0  0  0  0  0  0  0  0  0
   44.2390   69.3270   60.1970 C   0  0  0  0  0  0  0  0  0  0  0  0
   43.5980   70.4480   59.7510 C   0  0  0  0  0  0  0  0  0  0  0  0
   44.1330   71.0280   58.7430 O   0  0  0  0  0  0  0  0  0  0  0  0
   42.4870   71.0050   60.2380 N   0  0  0  0  0  0  0  0  0  0  0  0
   41.9370   70.3690   61.3090 C   0  0  0  0  0  0  0  0  0  0  0  0
   40.8920   70.8540   61.8040 O   0  0  0  0  0  0  0  0  0  0  0  0
   41.8820   68.6350   62.9400 C   0  0  0  0  0  0  0  0  0  0  0  0
   42.5080   68.9910   64.1250 C   0  0  0  0  0  0  0  0  0  0  0  0
   41.9850   68.4590   65.3280 C   0  0  0  0  0  0  0  0  0  0  0  0
   40.8920   67.6270   65.2280 N   0  0  0  0  0  0  0  0  0  0  0  0
   40.3240   67.3150   64.0590 C   0  0  0  0  0  0  0  0  0  0  0  0
   40.8240   67.8230   62.9080 N   0  0  0  0  0  0  0  0  0  0  0  0
   42.1340   73.4050   60.5390 C   0  0  0  0  0  0  0  0  0  0  0  0
   41.0900   74.4440   60.4360 C   0  0  0  0  0  0  0  0  0  0  0  0
   40.1960   74.9050   61.3130 N   0  0  0  0  0  0  0  0  0  0  0  0
   39.5110   75.8260   60.7050 O   0  0  0  0  0  0  0  0  0  0  0  0
   39.9200   75.9860   59.4760 C   0  0  0  0  0  0  0  0  0  0  0  0
   40.9290   75.1140   59.2780 N   0  0  0  0  0  0  0  0  0  0  0  0
   39.3850   76.9220   58.5180 N   0  0  0  0  0  0  0  0  0  0  0  0
   39.7170   78.2070   58.3890 C   0  0  0  0  0  0  0  0  0  0  0  0
   38.9650   78.7000   57.3630 N   0  0  0  0  0  0  0  0  0  0  0  0
   38.1930   77.7190   56.8860 C   0  0  0  0  0  0  0  0  0  0  0  0
   37.2450   77.5700   55.8940 C   0  0  0  0  0  0  0  0  0  0  0  0
   36.9580   78.5710   55.1880 O   0  0  0  0  0  0  0  0  0  0  0  0
   36.6170   76.3940   55.6530 N   0  0  0  0  0  0  0  0  0  0  0  0
   36.8920   75.3010   56.3820 C   0  0  0  0  0  0  0  0  0  0  0  0
   36.3430   74.0150   56.2720 N   0  0  0  0  0  0  0  0  0  0  0  0
   37.8130   75.4210   57.3570 N   0  0  0  0  0  0  0  0  0  0  0  0
   38.4480   76.5770   57.6130 C   0  0  0  0  0  0  0  0  0  0  0  0
   42.3395   72.3812   58.6859 H   0  0  0  0  0  0  0  0  0  0  0  0
   40.8117   72.0412   59.6077 H   0  0  0  0  0  0  0  0  0  0  0  0
   44.0801   67.7988   61.7345 H   0  0  0  0  0  0  0  0  0  0  0  0
   45.1552   68.9416   59.7257 H   0  0  0  0  0  0  0  0  0  0  0  0
   43.3793   69.6624   64.1300 H   0  0  0  0  0  0  0  0  0  0  0  0
   42.4333   68.7003   66.3031 H   0  0  0  0  0  0  0  0  0  0  0  0
   39.4511   66.6461   64.0322 H   0  0  0  0  0  0  0  0  0  0  0  0
   42.1868   73.0734   61.5865 H   0  0  0  0  0  0  0  0  0  0  0  0
   43.0692   73.8644   60.1862 H   0  0  0  0  0  0  0  0  0  0  0  0
   40.4524   78.7606   58.9913 H   0  0  0  0  0  0  0  0  0  0  0  0
   35.9178   76.3378   54.8988 H   0  0  0  0  0  0  0  0  0  0  0  0
   36.6539   73.2662   56.9073 H   0  0  0  0  0  0  0  0  0  0  0  0
   35.6289   73.8194   55.5559 H   0  0  0  0  0  0  0  0  0  0  0  0
  1  7  1  0
  1 16  1  0
  2 10  1  0
  3  2  1  0
  4  3  2  0
  5  4  1  0
  5  7  1  0
  6  5  2  0
  7  8  1  0
  8  9  2  0
  8  2  1  0
 10 11  2  0
 11 12  1  0
 13 12  2  0
 14 13  1  0
 15 10  1  0
 15 14  2  0
 17 16  1  0
 17 18  2  0
 19 18  1  0
 20 19  1  0
 21 20  2  0
 21 17  1  0
 22 20  1  0
 23 22  1  0
 24 23  2  0
 25 24  1  0
 25 32  2  0
 26 25  1  0
 27 26  2  0
 28 26  1  0
 28 29  1  0
 29 31  2  0
 30 29  1  0
 31 32  1  0
 32 22  1  0
  1 33  1  0
  1 34  1  0
  3 35  1  0
  4 36  1  0
 11 37  1  0
 12 38  1  0
 14 39  1  0
 16 40  1  0
 16 41  1  0
 23 42  1  0
 28 43  1  0
 30 44  1  0
 30 45  1  0
M  END
>  <Score>  (1) 
-7.53627

$$$$
