
     RDKit          3D

 45 48  0  0  1  0  0  0  0  0999 V2000
   42.5320   70.6310   62.0870 C   0  0  2  0  0  0  0  0  0  0  0  0
   39.7600   64.4660   64.4950 C   0  0  0  0  0  0  0  0  0  0  0  0
   39.3960   65.1170   65.6740 C   0  0  0  0  0  0  0  0  0  0  0  0
   39.8630   66.3990   65.8300 C   0  0  0  0  0  0  0  0  0  0  0  0
   40.6270   66.9230   64.8430 N   0  0  0  0  0  0  0  0  0  0  0  0
   40.9670   66.2600   63.6990 C   0  0  0  0  0  0  0  0  0  0  0  0
   40.5290   65.0170   63.5210 N   0  0  0  0  0  0  0  0  0  0  0  0
   41.7810   67.0560   62.8790 N   0  0  0  0  0  0  0  0  0  0  0  0
   41.6560   68.3990   62.8320 C   0  0  0  0  0  0  0  0  0  0  0  0
   42.5570   69.1200   62.0180 C   0  0  0  0  0  0  0  0  0  0  0  0
   43.5010   68.4110   61.3240 C   0  0  0  0  0  0  0  0  0  0  0  0
   44.3700   69.1630   60.4790 N   0  0  0  0  0  0  0  0  0  0  0  0
   43.5860   67.0620   61.4030 N   0  0  0  0  0  0  0  0  0  0  0  0
   42.7130   66.3520   62.1940 C   0  0  0  0  0  0  0  0  0  0  0  0
   42.8220   65.1170   62.2400 O   0  0  0  0  0  0  0  0  0  0  0  0
   41.6370   71.1550   63.0900 C   0  0  0  0  0  0  0  0  0  0  0  0
   41.9400   71.0080   60.6220 C   0  0  0  0  0  0  0  0  0  0  0  0
   42.5540   72.2560   60.2830 N   0  0  0  0  0  0  0  0  0  0  0  0
   43.8840   72.4150   60.2230 N   0  0  0  0  0  0  0  0  0  0  0  0
   44.1980   73.6680   59.8880 C   0  0  0  0  0  0  0  0  0  0  0  0
   43.0500   74.3840   59.7140 C   0  0  0  0  0  0  0  0  0  0  0  0
   42.0620   73.4590   59.9720 C   0  0  0  0  0  0  0  0  0  0  0  0
   40.6230   73.7470   59.9130 C   0  0  0  0  0  0  0  0  0  0  0  0
   39.9430   74.1150   61.0780 C   0  0  0  0  0  0  0  0  0  0  0  0
   38.6040   74.4150   61.1920 C   0  0  0  0  0  0  0  0  0  0  0  0
   37.9000   74.3360   60.0340 N   0  0  0  0  0  0  0  0  0  0  0  0
   38.5220   73.9860   58.8930 C   0  0  0  0  0  0  0  0  0  0  0  0
   39.8330   73.7020   58.8360 N   0  0  0  0  0  0  0  0  0  0  0  0
   43.5192   71.0425   62.3442 H   0  0  0  0  0  0  0  0  0  0  0  0
   39.3999   63.4376   64.3444 H   0  0  0  0  0  0  0  0  0  0  0  0
   38.7697   64.6305   66.4363 H   0  0  0  0  0  0  0  0  0  0  0  0
   39.6232   66.9831   66.7308 H   0  0  0  0  0  0  0  0  0  0  0  0
   40.8761   68.9162   63.4101 H   0  0  0  0  0  0  0  0  0  0  0  0
   44.2859   70.1887   60.4359 H   0  0  0  0  0  0  0  0  0  0  0  0
   45.0816   68.6803   59.9119 H   0  0  0  0  0  0  0  0  0  0  0  0
   42.0317   70.9239   64.0904 H   0  0  0  0  0  0  0  0  0  0  0  0
   41.5522   72.2454   62.9722 H   0  0  0  0  0  0  0  0  0  0  0  0
   40.6447   70.6952   62.9722 H   0  0  0  0  0  0  0  0  0  0  0  0
   42.2060   70.2342   59.8869 H   0  0  0  0  0  0  0  0  0  0  0  0
   40.8421   71.0757   60.6254 H   0  0  0  0  0  0  0  0  0  0  0  0
   45.2189   74.0605   59.7709 H   0  0  0  0  0  0  0  0  0  0  0  0
   42.9399   75.4424   59.4355 H   0  0  0  0  0  0  0  0  0  0  0  0
   40.5403   74.1707   62.0000 H   0  0  0  0  0  0  0  0  0  0  0  0
   38.1401   74.6972   62.1486 H   0  0  0  0  0  0  0  0  0  0  0  0
   37.9307   73.9302   57.9671 H   0  0  0  0  0  0  0  0  0  0  0  0
  1 16  1  0
  2  3  2  0
  3  4  1  0
  5  4  2  0
  6  5  1  0
  7  6  2  0
  7  2  1  0
  8  6  1  0
  9  8  1  0
 10  1  1  0
 10  9  2  0
 11 13  2  0
 11 10  1  0
 12 11  1  0
 13 14  1  0
 14 15  2  0
 14  8  1  0
 17  1  1  0
 18 17  1  0
 19 18  1  0
 20 19  2  0
 21 20  1  0
 21 22  2  0
 22 18  1  0
 23 22  1  0
 23 24  2  0
 24 25  1  0
 26 25  2  0
 27 26  1  0
 28 27  2  0
 28 23  1  0
  1 29  1  1
  2 30  1  0
  3 31  1  0
  4 32  1  0
  9 33  1  0
 12 34  1  0
 12 35  1  0
 16 36  1  0
 16 37  1  0
 16 38  1  0
 17 39  1  0
 17 40  1  0
 20 41  1  0
 21 42  1  0
 24 43  1  0
 25 44  1  0
 27 45  1  0
M  END
>  <Score>  (1) 
-7.55582

$$$$
