
     RDKit          3D

 42 46  0  0  0  0  0  0  0  0999 V2000
   42.5590   71.7020   59.7920 C   0  0  0  0  0  0  0  0  0  0  0  0
   42.5340   68.8390   62.1050 N   0  0  0  0  0  0  0  0  0  0  0  0
   43.6690   68.1710   61.8240 C   0  0  0  0  0  0  0  0  0  0  0  0
   44.4950   68.6750   60.8260 C   0  0  0  0  0  0  0  0  0  0  0  0
   44.0500   69.8210   60.2260 C   0  0  0  0  0  0  0  0  0  0  0  0
   44.8100   70.2930   59.3020 O   0  0  0  0  0  0  0  0  0  0  0  0
   42.9360   70.5030   60.4820 N   0  0  0  0  0  0  0  0  0  0  0  0
   42.1510   69.9660   61.4770 C   0  0  0  0  0  0  0  0  0  0  0  0
   41.0840   70.5730   61.7580 O   0  0  0  0  0  0  0  0  0  0  0  0
   41.6640   68.3450   63.1270 C   0  0  0  0  0  0  0  0  0  0  0  0
   42.1080   68.7100   64.4000 C   0  0  0  0  0  0  0  0  0  0  0  0
   41.3370   68.2850   65.5040 C   0  0  0  0  0  0  0  0  0  0  0  0
   40.2140   67.5480   65.2550 N   0  0  0  0  0  0  0  0  0  0  0  0
   39.8250   67.2190   64.0170 C   0  0  0  0  0  0  0  0  0  0  0  0
   40.5650   67.6290   62.9720 N   0  0  0  0  0  0  0  0  0  0  0  0
   42.7090   72.9330   60.6700 C   0  0  0  0  0  0  0  0  0  0  0  0
   41.5470   73.8350   60.6190 C   0  0  0  0  0  0  0  0  0  0  0  0
   40.5280   74.0370   61.4570 N   0  0  0  0  0  0  0  0  0  0  0  0
   39.7790   74.9520   60.9260 O   0  0  0  0  0  0  0  0  0  0  0  0
   40.2530   75.3630   59.7850 C   0  0  0  0  0  0  0  0  0  0  0  0
   41.3830   74.6640   59.5670 N   0  0  0  0  0  0  0  0  0  0  0  0
   39.7160   76.3500   58.9120 N   0  0  0  0  0  0  0  0  0  0  0  0
   40.0800   77.6300   58.8300 C   0  0  0  0  0  0  0  0  0  0  0  0
   39.3610   78.2950   57.8870 N   0  0  0  0  0  0  0  0  0  0  0  0
   38.5150   77.3960   57.3570 C   0  0  0  0  0  0  0  0  0  0  0  0
   37.5840   77.6050   56.3610 C   0  0  0  0  0  0  0  0  0  0  0  0
   36.8490   76.5150   56.0070 N   0  0  0  0  0  0  0  0  0  0  0  0
   37.0620   75.3200   56.6320 C   0  0  0  0  0  0  0  0  0  0  0  0
   37.9880   75.1310   57.6170 N   0  0  0  0  0  0  0  0  0  0  0  0
   38.7450   76.1920   58.0010 C   0  0  0  0  0  0  0  0  0  0  0  0
   43.1991   71.8179   58.9050 H   0  0  0  0  0  0  0  0  0  0  0  0
   41.4999   71.6130   59.5084 H   0  0  0  0  0  0  0  0  0  0  0  0
   43.9348   67.2529   62.3685 H   0  0  0  0  0  0  0  0  0  0  0  0
   45.4385   68.1875   60.5394 H   0  0  0  0  0  0  0  0  0  0  0  0
   43.0227   69.3054   64.5372 H   0  0  0  0  0  0  0  0  0  0  0  0
   41.6315   68.5395   66.5328 H   0  0  0  0  0  0  0  0  0  0  0  0
   38.9145   66.6228   63.8573 H   0  0  0  0  0  0  0  0  0  0  0  0
   42.8490   72.6039   61.7102 H   0  0  0  0  0  0  0  0  0  0  0  0
   43.5739   73.4974   60.2913 H   0  0  0  0  0  0  0  0  0  0  0  0
   40.8645   78.0907   59.4484 H   0  0  0  0  0  0  0  0  0  0  0  0
   37.4447   78.5866   55.8846 H   0  0  0  0  0  0  0  0  0  0  0  0
   36.4513   74.4586   56.3236 H   0  0  0  0  0  0  0  0  0  0  0  0
  1  7  1  0
  1 16  1  0
  2 10  1  0
  3  2  1  0
  4  3  2  0
  5  7  1  0
  5  4  1  0
  6  5  2  0
  7  8  1  0
  8  9  2  0
  8  2  1  0
 10 11  2  0
 11 12  1  0
 13 12  2  0
 14 13  1  0
 15 10  1  0
 15 14  2  0
 17 16  1  0
 17 18  2  0
 19 18  1  0
 20 19  1  0
 21 20  2  0
 21 17  1  0
 22 20  1  0
 23 22  1  0
 24 23  2  0
 25 24  1  0
 25 30  2  0
 26 25  1  0
 27 26  2  0
 27 28  1  0
 28 29  2  0
 29 30  1  0
 30 22  1  0
  1 31  1  0
  1 32  1  0
  3 33  1  0
  4 34  1  0
 11 35  1  0
 12 36  1  0
 14 37  1  0
 16 38  1  0
 16 39  1  0
 23 40  1  0
 26 41  1  0
 28 42  1  0
M  END
>  <Score>  (1) 
-7.02809

$$$$
