
     RDKit          3D

 34 37  0  0  0  0  0  0  0  0999 V2000
   40.9260   66.0950   63.5520 C   0  0  0  0  0  0  0  0  0  0  0  0
   41.0750   67.4780   63.4730 C   0  0  0  0  0  0  0  0  0  0  0  0
   41.6570   68.0730   62.3570 C   0  0  0  0  0  0  0  0  0  0  0  0
   42.0670   67.2560   61.3620 N   0  0  0  0  0  0  0  0  0  0  0  0
   41.9190   65.9220   61.4460 C   0  0  0  0  0  0  0  0  0  0  0  0
   41.3530   65.3420   62.5330 N   0  0  0  0  0  0  0  0  0  0  0  0
   40.3310   65.4450   64.6870 C   0  0  0  0  0  0  0  0  0  0  0  0
   40.3820   66.0700   65.9030 C   0  0  0  0  0  0  0  0  0  0  0  0
   39.8250   65.4970   67.0440 C   0  0  0  0  0  0  0  0  0  0  0  0
   39.2030   64.2750   66.9830 C   0  0  0  0  0  0  0  0  0  0  0  0
   39.1420   63.6300   65.7640 C   0  0  0  0  0  0  0  0  0  0  0  0
   39.6920   64.2020   64.6500 C   0  0  0  0  0  0  0  0  0  0  0  0
   41.8030   69.5070   62.2920 C   0  0  0  0  0  0  0  0  0  0  0  0
   41.7590   70.3830   63.3440 C   0  0  0  0  0  0  0  0  0  0  0  0
   41.9490   71.6520   62.7990 C   0  0  0  0  0  0  0  0  0  0  0  0
   42.0960   71.4570   61.4420 C   0  0  0  0  0  0  0  0  0  0  0  0
   42.0030   70.1890   61.1950 O   0  0  0  0  0  0  0  0  0  0  0  0
   42.3130   72.4710   60.4710 N   0  0  0  0  0  0  0  0  0  0  0  0
   43.4050   73.2650   60.6520 C   0  0  0  0  0  0  0  0  0  0  0  0
   43.4750   74.1930   59.6320 C   0  0  0  0  0  0  0  0  0  0  0  0
   42.4230   73.9500   58.8430 N   0  0  0  0  0  0  0  0  0  0  0  0
   41.7190   72.9080   59.3480 C   0  0  0  0  0  0  0  0  0  0  0  0
   40.7278   68.1089   64.3045 H   0  0  0  0  0  0  0  0  0  0  0  0
   42.2642   65.2884   60.6157 H   0  0  0  0  0  0  0  0  0  0  0  0
   40.8754   67.0500   65.9817 H   0  0  0  0  0  0  0  0  0  0  0  0
   39.8843   66.0298   68.0045 H   0  0  0  0  0  0  0  0  0  0  0  0
   38.7639   63.8207   67.8834 H   0  0  0  0  0  0  0  0  0  0  0  0
   38.6481   62.6501   65.6881 H   0  0  0  0  0  0  0  0  0  0  0  0
   39.6294   63.6655   63.6918 H   0  0  0  0  0  0  0  0  0  0  0  0
   41.6049   70.1353   64.4046 H   0  0  0  0  0  0  0  0  0  0  0  0
   41.9760   72.6098   63.3393 H   0  0  0  0  0  0  0  0  0  0  0  0
   44.1208   73.1799   61.4829 H   0  0  0  0  0  0  0  0  0  0  0  0
   44.2393   74.9723   59.4963 H   0  0  0  0  0  0  0  0  0  0  0  0
   40.8039   72.4858   58.9072 H   0  0  0  0  0  0  0  0  0  0  0  0
  1  7  1  0
  2  1  2  0
  3  2  1  0
  4  5  1  0
  4  3  2  0
  5  6  2  0
  6  1  1  0
  7  8  2  0
  8  9  1  0
 10  9  2  0
 11 10  1  0
 12  7  1  0
 12 11  2  0
 13  3  1  0
 13 14  2  0
 15 14  1  0
 16 15  2  0
 17 16  1  0
 17 13  1  0
 18 19  1  0
 18 16  1  0
 20 19  2  0
 21 22  2  0
 21 20  1  0
 22 18  1  0
  2 23  1  0
  5 24  1  0
  8 25  1  0
  9 26  1  0
 10 27  1  0
 11 28  1  0
 12 29  1  0
 14 30  1  0
 15 31  1  0
 19 32  1  0
 20 33  1  0
 22 34  1  0
M  END
>  <Score>  (1) 
-7.01414

$$$$
