
     RDKit          3D

 47 51  0  0  0  0  0  0  0  0999 V2000
   42.2430   69.0150   61.5610 N   0  0  0  0  0  0  0  0  0  0  0  0
   41.7110   70.1950   61.5700 C   0  0  0  0  0  0  0  0  0  0  0  0
   42.3590   71.2600   60.9730 C   0  0  0  0  0  0  0  0  0  0  0  0
   43.5440   71.0260   60.3910 C   0  0  0  0  0  0  0  0  0  0  0  0
   44.1540   71.9780   59.8380 O   0  0  0  0  0  0  0  0  0  0  0  0
   44.0450   69.7690   60.4160 N   0  0  0  0  0  0  0  0  0  0  0  0
   43.3980   68.7330   61.0070 C   0  0  0  0  0  0  0  0  0  0  0  0
   43.9600   67.6120   60.9680 O   0  0  0  0  0  0  0  0  0  0  0  0
   40.4870   66.1660   63.8140 C   0  0  0  0  0  0  0  0  0  0  0  0
   40.1800   66.0500   62.4890 C   0  0  0  0  0  0  0  0  0  0  0  0
   40.7330   66.9730   61.6630 C   0  0  0  0  0  0  0  0  0  0  0  0
   41.5330   67.9230   62.1990 C   0  0  0  0  0  0  0  0  0  0  0  0
   41.5600   67.5650   63.9810 S   0  0  0  0  0  0  0  0  0  0  0  0
   40.0470   65.3280   64.9460 C   0  0  0  0  0  0  0  0  0  0  0  0
   40.0720   65.7440   66.2650 C   0  0  0  0  0  0  0  0  0  0  0  0
   39.6240   64.8460   67.2260 C   0  0  0  0  0  0  0  0  0  0  0  0
   39.1910   63.6260   66.8420 N   0  0  0  0  0  0  0  0  0  0  0  0
   39.1790   63.2460   65.5390 C   0  0  0  0  0  0  0  0  0  0  0  0
   39.6090   64.1200   64.6470 N   0  0  0  0  0  0  0  0  0  0  0  0
   38.7220   61.9560   65.1420 N   0  0  0  0  0  0  0  0  0  0  0  0
   41.6710   72.5780   61.0320 C   0  0  0  0  0  0  0  0  0  0  0  0
   40.7870   72.6250   59.8160 C   0  0  0  0  0  0  0  0  0  0  0  0
   40.4720   71.6360   58.8860 C   0  0  0  0  0  0  0  0  0  0  0  0
   39.6000   72.1720   57.9280 C   0  0  0  0  0  0  0  0  0  0  0  0
   39.4370   73.4700   58.3440 C   0  0  0  0  0  0  0  0  0  0  0  0
   40.1290   73.7030   59.4290 O   0  0  0  0  0  0  0  0  0  0  0  0
   38.6170   74.4910   57.6990 C   0  0  0  0  0  0  0  0  0  0  0  0
   37.4910   74.1280   56.9880 C   0  0  0  0  0  0  0  0  0  0  0  0
   36.7150   75.0970   56.3780 C   0  0  0  0  0  0  0  0  0  0  0  0
   37.0300   76.4050   56.4580 N   0  0  0  0  0  0  0  0  0  0  0  0
   38.1500   76.7260   57.1690 C   0  0  0  0  0  0  0  0  0  0  0  0
   38.9350   75.7970   57.7810 N   0  0  0  0  0  0  0  0  0  0  0  0
   40.7367   70.3513   62.0560 H   0  0  0  0  0  0  0  0  0  0  0  0
   44.9552   69.5914   59.9678 H   0  0  0  0  0  0  0  0  0  0  0  0
   39.5216   65.2533   62.1125 H   0  0  0  0  0  0  0  0  0  0  0  0
   40.5353   66.9495   60.5812 H   0  0  0  0  0  0  0  0  0  0  0  0
   40.4322   66.7458   66.5420 H   0  0  0  0  0  0  0  0  0  0  0  0
   39.6221   65.1263   68.2897 H   0  0  0  0  0  0  0  0  0  0  0  0
   38.7235   61.6931   64.1461 H   0  0  0  0  0  0  0  0  0  0  0  0
   38.3902   61.2865   65.8509 H   0  0  0  0  0  0  0  0  0  0  0  0
   41.0681   72.6562   61.9487 H   0  0  0  0  0  0  0  0  0  0  0  0
   42.3879   73.4121   61.0477 H   0  0  0  0  0  0  0  0  0  0  0  0
   40.8469   70.6020   58.9012 H   0  0  0  0  0  0  0  0  0  0  0  0
   39.1544   71.6733   57.0546 H   0  0  0  0  0  0  0  0  0  0  0  0
   37.2106   73.0675   56.9064 H   0  0  0  0  0  0  0  0  0  0  0  0
   35.8204   74.7931   55.8147 H   0  0  0  0  0  0  0  0  0  0  0  0
   38.4319   77.7860   57.2515 H   0  0  0  0  0  0  0  0  0  0  0  0
  1  2  1  0
  1 12  1  0
  3 21  1  0
  3  2  2  0
  4  6  1  0
  4  3  1  0
  5  4  2  0
  6  7  1  0
  7  1  1  0
  8  7  2  0
  9 13  1  0
  9 14  1  0
 10  9  2  0
 11 12  2  0
 11 10  1  0
 12 13  1  0
 14 15  2  0
 15 16  1  0
 17 16  2  0
 18 17  1  0
 19 14  1  0
 19 18  2  0
 20 18  1  0
 22 21  1  0
 23 22  2  0
 24 25  2  0
 24 23  1  0
 25 26  1  0
 26 22  1  0
 27 32  1  0
 27 25  1  0
 28 27  2  0
 29 30  2  0
 29 28  1  0
 30 31  1  0
 31 32  2  0
  2 33  1  0
  6 34  1  0
 10 35  1  0
 11 36  1  0
 15 37  1  0
 16 38  1  0
 20 39  1  0
 20 40  1  0
 21 41  1  0
 21 42  1  0
 23 43  1  0
 24 44  1  0
 28 45  1  0
 29 46  1  0
 31 47  1  0
M  END
>  <Score>  (1) 
-8.03029

$$$$
