
     RDKit          3D

 47 51  0  0  0  0  0  0  0  0999 V2000
   41.5400   68.0480   58.3850 C   0  0  0  0  0  0  0  0  0  0  0  0
   41.8490   67.5980   59.6730 C   0  0  0  0  0  0  0  0  0  0  0  0
   41.9370   68.4390   60.7840 C   0  0  0  0  0  0  0  0  0  0  0  0
   41.6820   69.7750   60.4750 N   0  0  0  0  0  0  0  0  0  0  0  0
   41.3790   70.1940   59.2040 C   0  0  0  0  0  0  0  0  0  0  0  0
   41.3150   69.3410   58.2050 N   0  0  0  0  0  0  0  0  0  0  0  0
   42.2430   68.1920   62.1360 C   0  0  0  0  0  0  0  0  0  0  0  0
   43.5860   68.4360   62.4710 C   0  0  0  0  0  0  0  0  0  0  0  0
   44.0840   68.2500   63.7620 C   0  0  0  0  0  0  0  0  0  0  0  0
   43.2420   67.8140   64.7450 C   0  0  0  0  0  0  0  0  0  0  0  0
   41.8990   67.5550   64.4690 C   0  0  0  0  0  0  0  0  0  0  0  0
   41.0350   67.1210   65.4300 C   0  0  0  0  0  0  0  0  0  0  0  0
   39.7230   66.8650   65.1900 C   0  0  0  0  0  0  0  0  0  0  0  0
   39.3190   67.0770   63.8870 C   0  0  0  0  0  0  0  0  0  0  0  0
   40.1960   67.5160   62.9170 C   0  0  0  0  0  0  0  0  0  0  0  0
   41.4980   67.7630   63.1840 C   0  0  0  0  0  0  0  0  0  0  0  0
   41.1110   71.6150   59.0090 C   0  0  0  0  0  0  0  0  0  0  0  0
   40.1450   72.1020   58.1520 C   0  0  0  0  0  0  0  0  0  0  0  0
   40.2400   73.4990   58.2960 C   0  0  0  0  0  0  0  0  0  0  0  0
   41.2390   73.7530   59.2090 C   0  0  0  0  0  0  0  0  0  0  0  0
   41.7300   72.5960   59.6080 O   0  0  0  0  0  0  0  0  0  0  0  0
   39.3490   74.3570   57.5510 C   0  0  0  0  0  0  0  0  0  0  0  0
   37.9860   74.2120   57.6600 C   0  0  0  0  0  0  0  0  0  0  0  0
   37.0850   74.9800   56.9660 C   0  0  0  0  0  0  0  0  0  0  0  0
   37.4800   75.9660   56.0960 C   0  0  0  0  0  0  0  0  0  0  0  0
   38.8370   76.0990   55.9980 C   0  0  0  0  0  0  0  0  0  0  0  0
   39.6420   75.3200   56.7000 N   0  0  0  0  0  0  0  0  0  0  0  0
   41.7470   74.9040   59.7130 O   0  0  0  0  0  0  0  0  0  0  0  0
   41.5890   76.1930   59.2830 C   0  0  0  0  0  0  0  0  0  0  0  0
   42.2640   76.7330   58.1530 N   0  0  0  0  0  0  0  0  0  0  0  0
   40.7700   76.4640   60.2030 O   0  0  0  0  0  0  0  0  0  0  0  0
   41.4851   67.3445   57.5412 H   0  0  0  0  0  0  0  0  0  0  0  0
   42.0326   66.5232   59.8184 H   0  0  0  0  0  0  0  0  0  0  0  0
   44.2714   68.7872   61.6855 H   0  0  0  0  0  0  0  0  0  0  0  0
   45.1420   68.4522   63.9848 H   0  0  0  0  0  0  0  0  0  0  0  0
   43.6266   67.6655   65.7648 H   0  0  0  0  0  0  0  0  0  0  0  0
   41.4193   66.9708   66.4497 H   0  0  0  0  0  0  0  0  0  0  0  0
   39.0349   66.5155   65.9738 H   0  0  0  0  0  0  0  0  0  0  0  0
   38.2695   66.8908   63.6150 H   0  0  0  0  0  0  0  0  0  0  0  0
   39.8240   67.6700   61.8933 H   0  0  0  0  0  0  0  0  0  0  0  0
   39.4605   71.5315   57.5069 H   0  0  0  0  0  0  0  0  0  0  0  0
   37.5972   73.4394   58.3396 H   0  0  0  0  0  0  0  0  0  0  0  0
   36.0097   74.7995   57.1117 H   0  0  0  0  0  0  0  0  0  0  0  0
   36.7716   76.5899   55.5313 H   0  0  0  0  0  0  0  0  0  0  0  0
   39.2630   76.8612   55.3289 H   0  0  0  0  0  0  0  0  0  0  0  0
   42.1042   77.7124   57.8772 H   0  0  0  0  0  0  0  0  0  0  0  0
   42.9125   76.1445   57.6107 H   0  0  0  0  0  0  0  0  0  0  0  0
  1  2  2  0
  2  3  1  0
  3  7  1  0
  4  3  2  0
  5  4  1  0
  6  1  1  0
  6  5  2  0
  7  8  2  0
  7 16  1  0
  8  9  1  0
  9 10  2  0
 11 10  1  0
 11 12  2  0
 13 12  1  0
 14 13  2  0
 15 16  2  0
 15 14  1  0
 16 11  1  0
 17  5  1  0
 17 21  1  0
 18 19  1  0
 18 17  2  0
 19 20  2  0
 20 21  1  0
 20 28  1  0
 22 23  2  0
 22 19  1  0
 24 23  1  0
 25 24  2  0
 26 25  1  0
 26 27  2  0
 27 22  1  0
 29 28  1  0
 29 31  2  0
 30 29  1  0
  1 32  1  0
  2 33  1  0
  8 34  1  0
  9 35  1  0
 10 36  1  0
 12 37  1  0
 13 38  1  0
 14 39  1  0
 15 40  1  0
 18 41  1  0
 23 42  1  0
 24 43  1  0
 25 44  1  0
 26 45  1  0
 30 46  1  0
 30 47  1  0
M  END
>  <Score>  (1) 
-7.4761

$$$$
