
     RDKit          3D

 49 54  0  0  0  0  0  0  0  0999 V2000
   41.5790   66.3000   62.3980 C   0  0  0  0  0  0  0  0  0  0  0  0
   40.9440   67.1060   61.4370 C   0  0  0  0  0  0  0  0  0  0  0  0
   41.3040   66.9070   60.0910 C   0  0  0  0  0  0  0  0  0  0  0  0
   42.2190   65.9740   59.7860 N   0  0  0  0  0  0  0  0  0  0  0  0
   42.8260   65.1940   60.7620 C   0  0  0  0  0  0  0  0  0  0  0  0
   42.4840   65.3840   62.0310 N   0  0  0  0  0  0  0  0  0  0  0  0
   43.7800   64.2150   60.3700 N   0  0  0  0  0  0  0  0  0  0  0  0
   45.0790   63.9300   60.6080 C   0  0  0  0  0  0  0  0  0  0  0  0
   45.3920   62.7890   59.9250 N   0  0  0  0  0  0  0  0  0  0  0  0
   44.3200   62.4370   59.2430 C   0  0  0  0  0  0  0  0  0  0  0  0
   43.2870   63.3060   59.5030 N   0  0  0  0  0  0  0  0  0  0  0  0
   41.2090   66.5000   63.8000 C   0  0  0  0  0  0  0  0  0  0  0  0
   41.5280   67.5840   64.6100 C   0  0  0  0  0  0  0  0  0  0  0  0
   40.9960   67.3680   65.8170 N   0  0  0  0  0  0  0  0  0  0  0  0
   40.3320   66.1700   65.8320 C   0  0  0  0  0  0  0  0  0  0  0  0
   39.6250   65.4940   66.8110 C   0  0  0  0  0  0  0  0  0  0  0  0
   39.0420   64.2520   66.5210 C   0  0  0  0  0  0  0  0  0  0  0  0
   39.1690   63.7010   65.2610 C   0  0  0  0  0  0  0  0  0  0  0  0
   39.8730   64.3750   64.2860 C   0  0  0  0  0  0  0  0  0  0  0  0
   40.4670   65.6270   64.5620 C   0  0  0  0  0  0  0  0  0  0  0  0
   44.4050   61.3240   58.4040 C   0  0  0  0  0  0  0  0  0  0  0  0
   43.7690   61.2600   57.3200 O   0  0  0  0  0  0  0  0  0  0  0  0
   45.0350   60.1210   58.3620 O   0  0  0  0  0  0  0  0  0  0  0  0
   44.4410   58.9190   58.0010 C   0  0  0  0  0  0  0  0  0  0  0  0
   44.2520   58.5550   56.7050 N   0  0  0  0  0  0  0  0  0  0  0  0
   43.6640   57.3680   56.4070 C   0  0  0  0  0  0  0  0  0  0  0  0
   43.2570   56.5220   57.3890 N   0  0  0  0  0  0  0  0  0  0  0  0
   43.4150   56.8270   58.6720 C   0  0  0  0  0  0  0  0  0  0  0  0
   43.0260   56.0210   59.7320 C   0  0  0  0  0  0  0  0  0  0  0  0
   43.2240   56.4010   61.0400 C   0  0  0  0  0  0  0  0  0  0  0  0
   43.8200   57.6080   61.3430 C   0  0  0  0  0  0  0  0  0  0  0  0
   44.2000   58.3960   60.2790 C   0  0  0  0  0  0  0  0  0  0  0  0
   44.0140   58.0380   58.9540 C   0  0  0  0  0  0  0  0  0  0  0  0
   40.1971   67.8605   61.7249 H   0  0  0  0  0  0  0  0  0  0  0  0
   40.8399   67.5103   59.2969 H   0  0  0  0  0  0  0  0  0  0  0  0
   45.7130   64.7591   60.2605 H   0  0  0  0  0  0  0  0  0  0  0  0
   45.2485   63.7894   61.6857 H   0  0  0  0  0  0  0  0  0  0  0  0
   42.3332   63.2706   59.1158 H   0  0  0  0  0  0  0  0  0  0  0  0
   42.1150   68.4646   64.3102 H   0  0  0  0  0  0  0  0  0  0  0  0
   41.0740   68.0092   66.6193 H   0  0  0  0  0  0  0  0  0  0  0  0
   39.5205   65.9304   67.8153 H   0  0  0  0  0  0  0  0  0  0  0  0
   38.4814   63.7146   67.3001 H   0  0  0  0  0  0  0  0  0  0  0  0
   38.7097   62.7271   65.0360 H   0  0  0  0  0  0  0  0  0  0  0  0
   39.9733   63.9338   63.2834 H   0  0  0  0  0  0  0  0  0  0  0  0
   43.5148   57.0869   55.3540 H   0  0  0  0  0  0  0  0  0  0  0  0
   42.5470   55.0533   59.5217 H   0  0  0  0  0  0  0  0  0  0  0  0
   42.9031   55.7342   61.8539 H   0  0  0  0  0  0  0  0  0  0  0  0
   43.9837   57.9255   62.3834 H   0  0  0  0  0  0  0  0  0  0  0  0
   44.6777   59.3633   60.4936 H   0  0  0  0  0  0  0  0  0  0  0  0
  1 12  1  0
  2  1  2  0
  3  2  1  0
  4  3  2  0
  4  5  1  0
  5  6  2  0
  6  1  1  0
  7  8  1  0
  7  5  1  0
  9  8  1  0
 10 11  1  0
 10  9  2  0
 11  7  1  0
 12 20  1  0
 12 13  2  0
 13 14  1  0
 14 15  1  0
 15 16  2  0
 17 16  1  0
 18 17  2  0
 19 20  2  0
 19 18  1  0
 20 15  1  0
 21 10  1  0
 22 21  2  0
 23 21  1  0
 24 23  1  0
 24 33  1  0
 25 24  2  0
 26 25  1  0
 26 27  2  0
 27 28  1  0
 28 33  2  0
 28 29  1  0
 29 30  2  0
 30 31  1  0
 32 31  2  0
 33 32  1  0
  2 34  1  0
  3 35  1  0
  8 36  1  0
  8 37  1  0
 11 38  1  0
 13 39  1  0
 14 40  1  0
 16 41  1  0
 17 42  1  0
 18 43  1  0
 19 44  1  0
 26 45  1  0
 29 46  1  0
 30 47  1  0
 31 48  1  0
 32 49  1  0
M  END
>  <Score>  (1) 
-7.39679

$$$$
