
     RDKit          3D

 37 41  0  0  0  0  0  0  0  0999 V2000
   41.5810   66.1880   62.4070 C   0  0  0  0  0  0  0  0  0  0  0  0
   40.8570   66.9300   61.4460 C   0  0  0  0  0  0  0  0  0  0  0  0
   41.3200   66.8860   60.1240 C   0  0  0  0  0  0  0  0  0  0  0  0
   42.4190   66.1450   59.8460 N   0  0  0  0  0  0  0  0  0  0  0  0
   43.0790   65.4520   60.7980 C   0  0  0  0  0  0  0  0  0  0  0  0
   42.6610   65.4730   62.0730 N   0  0  0  0  0  0  0  0  0  0  0  0
   44.2320   64.6840   60.4600 N   0  0  0  0  0  0  0  0  0  0  0  0
   45.5110   65.1260   60.5000 C   0  0  0  0  0  0  0  0  0  0  0  0
   46.3730   64.1490   60.1180 N   0  0  0  0  0  0  0  0  0  0  0  0
   45.6080   63.0690   59.8310 C   0  0  0  0  0  0  0  0  0  0  0  0
   45.8950   61.7850   59.3960 C   0  0  0  0  0  0  0  0  0  0  0  0
   47.0870   61.4220   59.1840 O   0  0  0  0  0  0  0  0  0  0  0  0
   44.9250   60.8550   59.1740 N   0  0  0  0  0  0  0  0  0  0  0  0
   43.6620   61.2650   59.4050 C   0  0  0  0  0  0  0  0  0  0  0  0
   42.6600   60.2840   59.1700 N   0  0  0  0  0  0  0  0  0  0  0  0
   43.3000   62.4900   59.8280 N   0  0  0  0  0  0  0  0  0  0  0  0
   44.2670   63.3910   60.0410 C   0  0  0  0  0  0  0  0  0  0  0  0
   41.1140   66.2340   63.7380 N   0  0  0  0  0  0  0  0  0  0  0  0
   41.3930   67.2970   64.5290 C   0  0  0  0  0  0  0  0  0  0  0  0
   40.8660   67.1680   65.7640 N   0  0  0  0  0  0  0  0  0  0  0  0
   40.2310   65.9980   65.7850 C   0  0  0  0  0  0  0  0  0  0  0  0
   39.4820   65.2090   66.6600 C   0  0  0  0  0  0  0  0  0  0  0  0
   38.9610   64.0190   66.3400 N   0  0  0  0  0  0  0  0  0  0  0  0
   39.1670   63.5500   65.1020 C   0  0  0  0  0  0  0  0  0  0  0  0
   39.8680   64.2140   64.1720 N   0  0  0  0  0  0  0  0  0  0  0  0
   40.3860   65.4190   64.5240 C   0  0  0  0  0  0  0  0  0  0  0  0
   39.9688   67.5164   61.7238 H   0  0  0  0  0  0  0  0  0  0  0  0
   40.8016   67.4417   59.3287 H   0  0  0  0  0  0  0  0  0  0  0  0
   45.8115   66.1403   60.8015 H   0  0  0  0  0  0  0  0  0  0  0  0
   45.1423   59.9014   58.8509 H   0  0  0  0  0  0  0  0  0  0  0  0
   41.6678   60.5146   59.3222 H   0  0  0  0  0  0  0  0  0  0  0  0
   42.9264   59.3427   58.8476 H   0  0  0  0  0  0  0  0  0  0  0  0
   41.9821   68.1664   64.2019 H   0  0  0  0  0  0  0  0  0  0  0  0
   40.1341   65.0247   67.5265 H   0  0  0  0  0  0  0  0  0  0  0  0
   38.5694   65.8156   66.7565 H   0  0  0  0  0  0  0  0  0  0  0  0
   38.7399   62.5719   64.8355 H   0  0  0  0  0  0  0  0  0  0  0  0
   40.0081   63.8258   63.2283 H   0  0  0  0  0  0  0  0  0  0  0  0
  1 18  1  0
  2  1  2  0
  3  2  1  0
  4  3  2  0
  4  5  1  0
  5  6  2  0
  6  1  1  0
  7  8  1  0
  7  5  1  0
  9  8  2  0
 10 17  2  0
 10  9  1  0
 11 10  1  0
 12 11  2  0
 13 11  1  0
 13 14  1  0
 14 16  2  0
 15 14  1  0
 16 17  1  0
 17  7  1  0
 18 26  1  0
 18 19  1  0
 19 20  2  0
 20 21  1  0
 21 22  1  0
 23 22  1  0
 24 23  2  0
 25 26  1  0
 25 24  1  0
 26 21  2  0
  2 27  1  0
  3 28  1  0
  8 29  1  0
 13 30  1  0
 15 31  1  0
 15 32  1  0
 19 33  1  0
 22 34  1  0
 22 35  1  0
 24 36  1  0
 25 37  1  0
M  END
>  <Score>  (1) 
-7.22787

$$$$
