
     RDKit          3D

 45 49  0  0  0  0  0  0  0  0999 V2000
   41.0900   66.1980   62.5530 C   0  0  0  0  0  0  0  0  0  0  0  0
   40.3840   66.7970   61.4730 C   0  0  0  0  0  0  0  0  0  0  0  0
   40.9390   66.6260   60.1980 C   0  0  0  0  0  0  0  0  0  0  0  0
   42.0780   65.9250   60.0660 N   0  0  0  0  0  0  0  0  0  0  0  0
   42.7200   65.3710   61.1170 C   0  0  0  0  0  0  0  0  0  0  0  0
   42.2290   65.5030   62.3670 N   0  0  0  0  0  0  0  0  0  0  0  0
   40.5320   66.3650   63.8330 N   0  0  0  0  0  0  0  0  0  0  0  0
   40.1560   67.5730   64.2720 C   0  0  0  0  0  0  0  0  0  0  0  0
   39.6510   67.5360   65.5180 N   0  0  0  0  0  0  0  0  0  0  0  0
   39.6950   66.2640   65.9120 C   0  0  0  0  0  0  0  0  0  0  0  0
   39.3890   65.4600   67.0190 C   0  0  0  0  0  0  0  0  0  0  0  0
   39.5510   64.1470   67.0630 N   0  0  0  0  0  0  0  0  0  0  0  0
   40.0890   63.5260   65.9990 C   0  0  0  0  0  0  0  0  0  0  0  0
   40.4520   64.1780   64.8760 N   0  0  0  0  0  0  0  0  0  0  0  0
   40.2440   65.5300   64.8620 C   0  0  0  0  0  0  0  0  0  0  0  0
   43.9520   64.6310   60.8550 C   0  0  0  0  0  0  0  0  0  0  0  0
   43.9140   63.4820   60.1200 C   0  0  0  0  0  0  0  0  0  0  0  0
   45.0910   62.7950   59.8800 C   0  0  0  0  0  0  0  0  0  0  0  0
   46.2560   63.3290   60.4150 C   0  0  0  0  0  0  0  0  0  0  0  0
   46.3170   64.4790   61.1550 C   0  0  0  0  0  0  0  0  0  0  0  0
   45.1280   65.1770   61.3980 C   0  0  0  0  0  0  0  0  0  0  0  0
   45.1780   66.3950   62.1730 C   0  0  0  0  0  0  0  0  0  0  0  0
   45.8380   66.4370   63.2530 O   0  0  0  0  0  0  0  0  0  0  0  0
   44.5570   67.6800   61.9040 C   0  0  0  0  0  0  0  0  0  0  0  0
   44.7450   68.1950   60.6220 C   0  0  0  0  0  0  0  0  0  0  0  0
   44.2350   69.3800   60.1580 C   0  0  0  0  0  0  0  0  0  0  0  0
   43.4770   70.0980   61.0590 C   0  0  0  0  0  0  0  0  0  0  0  0
   43.2480   69.6390   62.3640 C   0  0  0  0  0  0  0  0  0  0  0  0
   43.7950   68.4370   62.7560 C   0  0  0  0  0  0  0  0  0  0  0  0
   39.4540   67.3630   61.6302 H   0  0  0  0  0  0  0  0  0  0  0  0
   40.4480   67.0607   59.3148 H   0  0  0  0  0  0  0  0  0  0  0  0
   40.2499   68.4945   63.6786 H   0  0  0  0  0  0  0  0  0  0  0  0
   39.9903   65.8594   67.8490 H   0  0  0  0  0  0  0  0  0  0  0  0
   38.2911   65.5284   67.0213 H   0  0  0  0  0  0  0  0  0  0  0  0
   40.2398   62.4374   66.0467 H   0  0  0  0  0  0  0  0  0  0  0  0
   40.8640   63.6843   64.0714 H   0  0  0  0  0  0  0  0  0  0  0  0
   42.9593   63.1064   59.7231 H   0  0  0  0  0  0  0  0  0  0  0  0
   45.1033   61.8661   59.2909 H   0  0  0  0  0  0  0  0  0  0  0  0
   47.1968   62.7894   60.2310 H   0  0  0  0  0  0  0  0  0  0  0  0
   47.2764   64.8456   61.5489 H   0  0  0  0  0  0  0  0  0  0  0  0
   45.3535   67.6007   59.9244 H   0  0  0  0  0  0  0  0  0  0  0  0
   44.4186   69.7351   59.1332 H   0  0  0  0  0  0  0  0  0  0  0  0
   43.0399   71.0574   60.7452 H   0  0  0  0  0  0  0  0  0  0  0  0
   42.6402   70.2303   63.0647 H   0  0  0  0  0  0  0  0  0  0  0  0
   43.6157   68.0752   63.7792 H   0  0  0  0  0  0  0  0  0  0  0  0
  1  7  1  0
  2  1  2  0
  3  2  1  0
  4  3  2  0
  4  5  1  0
  5  6  2  0
  6  1  1  0
  7  8  1  0
  7 15  1  0
  8  9  2  0
  9 10  1  0
 10 11  1  0
 11 12  1  0
 13 12  2  0
 14 13  1  0
 15 14  1  0
 15 10  2  0
 16  5  1  0
 16 21  1  0
 17 16  2  0
 18 17  1  0
 18 19  2  0
 19 20  1  0
 20 21  2  0
 21 22  1  0
 22 23  2  0
 24 22  1  0
 24 29  1  0
 25 24  2  0
 26 25  1  0
 26 27  2  0
 27 28  1  0
 28 29  2  0
  2 30  1  0
  3 31  1  0
  8 32  1  0
 11 33  1  0
 11 34  1  0
 13 35  1  0
 14 36  1  0
 17 37  1  0
 18 38  1  0
 19 39  1  0
 20 40  1  0
 25 41  1  0
 26 42  1  0
 27 43  1  0
 28 44  1  0
 29 45  1  0
M  END
>  <Score>  (1) 
-7.23459

$$$$
