
     RDKit          3D

 33 35  0  0  0  0  0  0  0  0999 V2000
   40.7430   66.1440   63.6140 C   0  0  0  0  0  0  0  0  0  0  0  0
   41.1070   67.4730   63.4870 C   0  0  0  0  0  0  0  0  0  0  0  0
   41.5760   68.0010   62.2960 C   0  0  0  0  0  0  0  0  0  0  0  0
   41.6680   67.1640   61.2480 N   0  0  0  0  0  0  0  0  0  0  0  0
   41.3190   65.8680   61.3560 C   0  0  0  0  0  0  0  0  0  0  0  0
   40.8600   65.3570   62.5260 N   0  0  0  0  0  0  0  0  0  0  0  0
   40.2560   65.5600   64.8220 C   0  0  0  0  0  0  0  0  0  0  0  0
   40.2900   66.3300   65.9680 C   0  0  0  0  0  0  0  0  0  0  0  0
   39.8260   65.8140   67.1830 C   0  0  0  0  0  0  0  0  0  0  0  0
   39.3280   64.5340   67.2750 C   0  0  0  0  0  0  0  0  0  0  0  0
   39.2880   63.7470   66.1320 C   0  0  0  0  0  0  0  0  0  0  0  0
   39.7420   64.2540   64.9400 C   0  0  0  0  0  0  0  0  0  0  0  0
   41.9460   69.3940   62.2100 C   0  0  0  0  0  0  0  0  0  0  0  0
   41.7280   70.3630   63.1640 C   0  0  0  0  0  0  0  0  0  0  0  0
   42.2490   71.5460   62.6500 C   0  0  0  0  0  0  0  0  0  0  0  0
   42.7500   71.2020   61.4110 C   0  0  0  0  0  0  0  0  0  0  0  0
   42.5570   69.9310   61.1800 O   0  0  0  0  0  0  0  0  0  0  0  0
   43.4050   72.1250   60.4850 C   0  0  0  0  0  0  0  0  0  0  0  0
   43.5450   71.8110   59.2810 O   0  0  0  0  0  0  0  0  0  0  0  0
   43.8730   73.3560   60.9450 O   0  0  0  0  0  0  0  0  0  0  0  0
   44.4080   74.2550   60.0390 C   0  0  0  0  0  0  0  0  0  0  0  0
   43.7450   75.2050   59.5440 O   0  0  0  0  0  0  0  0  0  0  0  0
   45.7400   74.0850   59.6730 O   0  0  0  0  0  0  0  0  0  0  0  0
   41.0208   68.1330   64.3628 H   0  0  0  0  0  0  0  0  0  0  0  0
   41.4078   65.2107   60.4785 H   0  0  0  0  0  0  0  0  0  0  0  0
   40.6845   67.3559   65.9253 H   0  0  0  0  0  0  0  0  0  0  0  0
   39.8599   66.4445   68.0837 H   0  0  0  0  0  0  0  0  0  0  0  0
   38.9680   64.1415   68.2375 H   0  0  0  0  0  0  0  0  0  0  0  0
   38.8940   62.7212   66.1814 H   0  0  0  0  0  0  0  0  0  0  0  0
   39.7030   63.6170   64.0441 H   0  0  0  0  0  0  0  0  0  0  0  0
   41.2385   70.2281   64.1398 H   0  0  0  0  0  0  0  0  0  0  0  0
   42.2594   72.5375   63.1263 H   0  0  0  0  0  0  0  0  0  0  0  0
   46.1593   74.7075   59.0274 H   0  0  0  0  0  0  0  0  0  0  0  0
  1  7  1  0
  2  1  2  0
  3  2  1  0
  4  5  1  0
  4  3  2  0
  5  6  2  0
  6  1  1  0
  7 12  1  0
  7  8  2  0
  8  9  1  0
  9 10  2  0
 11 10  1  0
 12 11  2  0
 13  3  1  0
 13 14  2  0
 15 14  1  0
 16 15  2  0
 17 16  1  0
 17 13  1  0
 18 20  1  0
 18 16  1  0
 19 18  2  0
 21 20  1  0
 22 21  2  0
 23 21  1  0
  2 24  1  0
  5 25  1  0
  8 26  1  0
  9 27  1  0
 10 28  1  0
 11 29  1  0
 12 30  1  0
 14 31  1  0
 15 32  1  0
 23 33  1  0
M  END
>  <Score>  (1) 
-7.03569

$$$$
