
     RDKit          3D

 42 46  0  0  0  0  0  0  0  0999 V2000
   41.5300   66.3570   62.4260 C   0  0  0  0  0  0  0  0  0  0  0  0
   40.9240   67.1590   61.4410 C   0  0  0  0  0  0  0  0  0  0  0  0
   41.2700   66.9380   60.1040 C   0  0  0  0  0  0  0  0  0  0  0  0
   42.1660   65.9770   59.8090 N   0  0  0  0  0  0  0  0  0  0  0  0
   42.7500   65.2020   60.7810 C   0  0  0  0  0  0  0  0  0  0  0  0
   42.4170   65.4150   62.0520 N   0  0  0  0  0  0  0  0  0  0  0  0
   43.6870   64.2050   60.3940 N   0  0  0  0  0  0  0  0  0  0  0  0
   44.9960   63.9370   60.5890 C   0  0  0  0  0  0  0  0  0  0  0  0
   45.3200   62.8090   59.9430 N   0  0  0  0  0  0  0  0  0  0  0  0
   44.2130   62.3690   59.3390 C   0  0  0  0  0  0  0  0  0  0  0  0
   43.1920   63.2300   59.6140 N   0  0  0  0  0  0  0  0  0  0  0  0
   41.1710   66.5850   63.8150 C   0  0  0  0  0  0  0  0  0  0  0  0
   41.4570   67.7200   64.5860 C   0  0  0  0  0  0  0  0  0  0  0  0
   40.9400   67.5160   65.8210 N   0  0  0  0  0  0  0  0  0  0  0  0
   40.3290   66.2830   65.8690 C   0  0  0  0  0  0  0  0  0  0  0  0
   39.6590   65.5960   66.8700 C   0  0  0  0  0  0  0  0  0  0  0  0
   39.1290   64.3390   66.6410 C   0  0  0  0  0  0  0  0  0  0  0  0
   39.2740   63.7610   65.3920 C   0  0  0  0  0  0  0  0  0  0  0  0
   39.9420   64.4350   64.3810 C   0  0  0  0  0  0  0  0  0  0  0  0
   40.4800   65.7110   64.6080 C   0  0  0  0  0  0  0  0  0  0  0  0
   44.2120   61.1490   58.5390 C   0  0  0  0  0  0  0  0  0  0  0  0
   43.8730   60.0000   59.2430 C   0  0  0  0  0  0  0  0  0  0  0  0
   43.8420   58.7770   58.5690 C   0  0  0  0  0  0  0  0  0  0  0  0
   44.1520   58.7660   57.2290 C   0  0  0  0  0  0  0  0  0  0  0  0
   44.4920   59.8910   56.5050 C   0  0  0  0  0  0  0  0  0  0  0  0
   44.5190   61.1100   57.1930 C   0  0  0  0  0  0  0  0  0  0  0  0
   40.1979   67.9385   61.7152 H   0  0  0  0  0  0  0  0  0  0  0  0
   40.8162   67.5413   59.3039 H   0  0  0  0  0  0  0  0  0  0  0  0
   45.6026   64.7689   60.2018 H   0  0  0  0  0  0  0  0  0  0  0  0
   45.1895   63.8131   61.6647 H   0  0  0  0  0  0  0  0  0  0  0  0
   42.2197   63.1478   59.2841 H   0  0  0  0  0  0  0  0  0  0  0  0
   42.0023   68.6140   64.2492 H   0  0  0  0  0  0  0  0  0  0  0  0
   40.9954   68.1818   66.6049 H   0  0  0  0  0  0  0  0  0  0  0  0
   39.5472   66.0580   67.8620 H   0  0  0  0  0  0  0  0  0  0  0  0
   38.5982   63.8048   67.4428 H   0  0  0  0  0  0  0  0  0  0  0  0
   38.8570   62.7613   65.2002 H   0  0  0  0  0  0  0  0  0  0  0  0
   40.0512   63.9653   63.3923 H   0  0  0  0  0  0  0  0  0  0  0  0
   43.6326   60.0528   60.3151 H   0  0  0  0  0  0  0  0  0  0  0  0
   43.5770   57.8482   59.0954 H   0  0  0  0  0  0  0  0  0  0  0  0
   44.1275   57.8010   56.7016 H   0  0  0  0  0  0  0  0  0  0  0  0
   44.7316   59.8322   55.4330 H   0  0  0  0  0  0  0  0  0  0  0  0
   44.7845   62.0360   56.6619 H   0  0  0  0  0  0  0  0  0  0  0  0
  1 12  1  0
  2  1  2  0
  3  2  1  0
  4  3  2  0
  4  5  1  0
  5  6  2  0
  6  1  1  0
  7  8  1  0
  7  5  1  0
  9  8  1  0
 10 11  1  0
 10  9  2  0
 11  7  1  0
 12 13  2  0
 12 20  1  0
 13 14  1  0
 14 15  1  0
 15 16  2  0
 17 16  1  0
 18 17  2  0
 19 20  2  0
 19 18  1  0
 20 15  1  0
 21 22  2  0
 21 10  1  0
 23 22  1  0
 24 23  2  0
 25 26  2  0
 25 24  1  0
 26 21  1  0
  2 27  1  0
  3 28  1  0
  8 29  1  0
  8 30  1  0
 11 31  1  0
 13 32  1  0
 14 33  1  0
 16 34  1  0
 17 35  1  0
 18 36  1  0
 19 37  1  0
 22 38  1  0
 23 39  1  0
 24 40  1  0
 25 41  1  0
 26 42  1  0
M  END
>  <Score>  (1) 
-7.86747

$$$$
