
     RDKit          3D

 44 47  0  0  1  0  0  0  0  0999 V2000
   42.5430   70.6230   61.9570 C   0  0  2  0  0  0  0  0  0  0  0  0
   39.7710   64.4980   64.4460 C   0  0  0  0  0  0  0  0  0  0  0  0
   39.4880   65.1450   65.6590 C   0  0  0  0  0  0  0  0  0  0  0  0
   39.9960   66.4210   65.8150 C   0  0  0  0  0  0  0  0  0  0  0  0
   40.7240   66.9520   64.7970 N   0  0  0  0  0  0  0  0  0  0  0  0
   40.9800   66.3020   63.6410 C   0  0  0  0  0  0  0  0  0  0  0  0
   40.5000   65.0640   63.4640 N   0  0  0  0  0  0  0  0  0  0  0  0
   41.7710   67.0840   62.7810 N   0  0  0  0  0  0  0  0  0  0  0  0
   41.6900   68.4330   62.7730 C   0  0  0  0  0  0  0  0  0  0  0  0
   42.5370   69.1440   61.9270 C   0  0  0  0  0  0  0  0  0  0  0  0
   43.4210   68.4210   61.1380 C   0  0  0  0  0  0  0  0  0  0  0  0
   44.2680   69.1600   60.2700 N   0  0  0  0  0  0  0  0  0  0  0  0
   43.4590   67.0690   61.1870 N   0  0  0  0  0  0  0  0  0  0  0  0
   42.6240   66.3710   62.0200 C   0  0  0  0  0  0  0  0  0  0  0  0
   42.6940   65.1250   62.0270 O   0  0  0  0  0  0  0  0  0  0  0  0
   41.8410   71.1680   63.1690 C   0  0  0  0  0  0  0  0  0  0  0  0
   41.7710   71.1050   60.7100 C   0  0  0  0  0  0  0  0  0  0  0  0
   41.9070   72.4630   60.2990 C   0  0  0  0  0  0  0  0  0  0  0  0
   43.0710   72.8150   59.6710 N   0  0  0  0  0  0  0  0  0  0  0  0
   43.2710   74.0510   59.1940 C   0  0  0  0  0  0  0  0  0  0  0  0
   42.3520   75.0270   59.2960 N   0  0  0  0  0  0  0  0  0  0  0  0
   41.1740   74.7800   59.9010 C   0  0  0  0  0  0  0  0  0  0  0  0
   40.2570   75.7790   60.0230 C   0  0  0  0  0  0  0  0  0  0  0  0
   39.0760   75.4850   60.6750 C   0  0  0  0  0  0  0  0  0  0  0  0
   38.8720   74.2090   61.1730 C   0  0  0  0  0  0  0  0  0  0  0  0
   39.8180   73.2440   61.0240 C   0  0  0  0  0  0  0  0  0  0  0  0
   41.0060   73.5140   60.3720 C   0  0  0  0  0  0  0  0  0  0  0  0
   43.5859   70.9719   61.9802 H   0  0  0  0  0  0  0  0  0  0  0  0
   39.3796   63.4819   64.2897 H   0  0  0  0  0  0  0  0  0  0  0  0
   38.8916   64.6607   66.4463 H   0  0  0  0  0  0  0  0  0  0  0  0
   39.8161   66.9915   66.7381 H   0  0  0  0  0  0  0  0  0  0  0  0
   40.9714   68.9573   63.4200 H   0  0  0  0  0  0  0  0  0  0  0  0
   44.2174   70.1886   60.2537 H   0  0  0  0  0  0  0  0  0  0  0  0
   44.9329   68.6673   59.6567 H   0  0  0  0  0  0  0  0  0  0  0  0
   42.3304   70.7881   64.0780 H   0  0  0  0  0  0  0  0  0  0  0  0
   41.8902   72.2668   63.1581 H   0  0  0  0  0  0  0  0  0  0  0  0
   40.7886   70.8480   63.1581 H   0  0  0  0  0  0  0  0  0  0  0  0
   42.0961   70.4782   59.8666 H   0  0  0  0  0  0  0  0  0  0  0  0
   40.7142   71.0212   61.0034 H   0  0  0  0  0  0  0  0  0  0  0  0
   44.2268   74.2765   58.6984 H   0  0  0  0  0  0  0  0  0  0  0  0
   40.4499   76.7830   59.6172 H   0  0  0  0  0  0  0  0  0  0  0  0
   38.3033   76.2582   60.7979 H   0  0  0  0  0  0  0  0  0  0  0  0
   37.9331   73.9734   61.6955 H   0  0  0  0  0  0  0  0  0  0  0  0
   39.6356   72.2369   61.4270 H   0  0  0  0  0  0  0  0  0  0  0  0
  1 16  1  0
  2  3  2  0
  3  4  1  0
  5  4  2  0
  6  5  1  0
  7  6  2  0
  7  2  1  0
  8  6  1  0
  9  8  1  0
 10  1  1  0
 10  9  2  0
 11 13  2  0
 11 10  1  0
 12 11  1  0
 13 14  1  0
 14 15  2  0
 14  8  1  0
 17  1  1  0
 18 27  1  0
 18 17  1  0
 19 18  2  0
 20 21  2  0
 20 19  1  0
 21 22  1  0
 22 23  1  0
 22 27  2  0
 23 24  2  0
 24 25  1  0
 26 25  2  0
 27 26  1  0
  1 28  1  6
  2 29  1  0
  3 30  1  0
  4 31  1  0
  9 32  1  0
 12 33  1  0
 12 34  1  0
 16 35  1  0
 16 36  1  0
 16 37  1  0
 17 38  1  0
 17 39  1  0
 20 40  1  0
 23 41  1  0
 24 42  1  0
 25 43  1  0
 26 44  1  0
M  END
>  <Score>  (1) 
-7.68829

$$$$
