
     RDKit          3D

 47 51  0  0  0  0  0  0  0  0999 V2000
   41.1090   66.1810   62.4310 C   0  0  0  0  0  0  0  0  0  0  0  0
   40.4290   66.8210   61.3600 C   0  0  0  0  0  0  0  0  0  0  0  0
   40.9490   66.6010   60.0740 C   0  0  0  0  0  0  0  0  0  0  0  0
   42.0350   65.8200   59.9230 N   0  0  0  0  0  0  0  0  0  0  0  0
   42.6510   65.2310   60.9670 C   0  0  0  0  0  0  0  0  0  0  0  0
   42.1990   65.4030   62.2370 N   0  0  0  0  0  0  0  0  0  0  0  0
   40.5980   66.3940   63.7180 N   0  0  0  0  0  0  0  0  0  0  0  0
   40.2740   67.6290   64.1390 C   0  0  0  0  0  0  0  0  0  0  0  0
   39.8000   67.6350   65.4010 N   0  0  0  0  0  0  0  0  0  0  0  0
   39.8130   66.3650   65.8200 C   0  0  0  0  0  0  0  0  0  0  0  0
   39.4900   65.6070   66.9530 C   0  0  0  0  0  0  0  0  0  0  0  0
   39.6410   64.2800   67.0220 N   0  0  0  0  0  0  0  0  0  0  0  0
   40.1260   63.6310   65.9640 C   0  0  0  0  0  0  0  0  0  0  0  0
   40.4740   64.2390   64.8200 N   0  0  0  0  0  0  0  0  0  0  0  0
   40.3110   65.6020   64.7660 C   0  0  0  0  0  0  0  0  0  0  0  0
   43.8160   64.4090   60.6820 C   0  0  0  0  0  0  0  0  0  0  0  0
   43.7180   63.3660   59.7980 C   0  0  0  0  0  0  0  0  0  0  0  0
   44.8460   62.6030   59.5490 C   0  0  0  0  0  0  0  0  0  0  0  0
   46.0160   62.9410   60.2120 C   0  0  0  0  0  0  0  0  0  0  0  0
   46.1290   63.9750   61.0930 C   0  0  0  0  0  0  0  0  0  0  0  0
   45.0010   64.7560   61.3570 C   0  0  0  0  0  0  0  0  0  0  0  0
   45.1120   65.8550   62.2920 C   0  0  0  0  0  0  0  0  0  0  0  0
   45.5200   65.6600   63.4720 O   0  0  0  0  0  0  0  0  0  0  0  0
   44.8410   67.2450   62.1780 N   0  0  0  0  0  0  0  0  0  0  0  0
   45.2890   67.9800   61.0140 C   0  0  0  0  0  0  0  0  0  0  0  0
   43.9470   68.5300   60.5140 C   0  0  0  0  0  0  0  0  0  0  0  0
   43.4560   69.1590   61.8160 C   0  0  0  0  0  0  0  0  0  0  0  0
   44.2060   68.3800   62.8570 C   0  0  0  0  0  0  0  0  0  0  0  0
   39.5449   67.4533   61.5286 H   0  0  0  0  0  0  0  0  0  0  0  0
   40.4725   67.0633   59.1969 H   0  0  0  0  0  0  0  0  0  0  0  0
   40.3834   68.5335   63.5226 H   0  0  0  0  0  0  0  0  0  0  0  0
   40.0941   66.0211   67.7737 H   0  0  0  0  0  0  0  0  0  0  0  0
   38.3939   65.6987   66.9666 H   0  0  0  0  0  0  0  0  0  0  0  0
   40.2473   62.5398   66.0323 H   0  0  0  0  0  0  0  0  0  0  0  0
   40.8461   63.7086   64.0193 H   0  0  0  0  0  0  0  0  0  0  0  0
   42.7647   63.1404   59.2978 H   0  0  0  0  0  0  0  0  0  0  0  0
   44.8151   61.7560   58.8479 H   0  0  0  0  0  0  0  0  0  0  0  0
   46.9122   62.3347   60.0139 H   0  0  0  0  0  0  0  0  0  0  0  0
   47.0885   64.1901   61.5860 H   0  0  0  0  0  0  0  0  0  0  0  0
   45.9859   68.7871   61.2841 H   0  0  0  0  0  0  0  0  0  0  0  0
   45.8494   67.3852   60.2777 H   0  0  0  0  0  0  0  0  0  0  0  0
   44.0771   69.2769   59.7169 H   0  0  0  0  0  0  0  0  0  0  0  0
   43.2708   67.7925   60.0569 H   0  0  0  0  0  0  0  0  0  0  0  0
   43.7092   70.2285   61.8609 H   0  0  0  0  0  0  0  0  0  0  0  0
   42.3637   69.1160   61.9389 H   0  0  0  0  0  0  0  0  0  0  0  0
   43.5113   68.0165   63.6285 H   0  0  0  0  0  0  0  0  0  0  0  0
   44.9604   69.0120   63.3484 H   0  0  0  0  0  0  0  0  0  0  0  0
  1  7  1  0
  2  1  2  0
  3  2  1  0
  4  3  2  0
  4  5  1  0
  5  6  2  0
  6  1  1  0
  7  8  1  0
  7 15  1  0
  8  9  2  0
  9 10  1  0
 10 11  1  0
 11 12  1  0
 13 12  2  0
 14 13  1  0
 15 14  1  0
 15 10  2  0
 16  5  1  0
 16 21  1  0
 17 16  2  0
 18 17  1  0
 18 19  2  0
 19 20  1  0
 20 21  2  0
 21 22  1  0
 22 23  2  0
 24 22  1  0
 24 28  1  0
 25 24  1  0
 26 25  1  0
 26 27  1  0
 27 28  1  0
  2 29  1  0
  3 30  1  0
  8 31  1  0
 11 32  1  0
 11 33  1  0
 13 34  1  0
 14 35  1  0
 17 36  1  0
 18 37  1  0
 19 38  1  0
 20 39  1  0
 25 40  1  0
 25 41  1  0
 26 42  1  0
 26 43  1  0
 27 44  1  0
 27 45  1  0
 28 46  1  0
 28 47  1  0
M  END
>  <Score>  (1) 
-7.20096

$$$$
