
     RDKit          3D

 53 58  0  0  0  0  0  0  0  0999 V2000
   41.2330   71.9250   59.2620 C   0  0  0  0  0  0  0  0  0  0  0  0
   41.4980   68.3700   58.5190 C   0  0  0  0  0  0  0  0  0  0  0  0
   41.7990   67.8330   59.7920 C   0  0  0  0  0  0  0  0  0  0  0  0
   41.9220   68.6380   60.9360 C   0  0  0  0  0  0  0  0  0  0  0  0
   41.7190   69.9780   60.6790 N   0  0  0  0  0  0  0  0  0  0  0  0
   41.4310   70.4760   59.4490 C   0  0  0  0  0  0  0  0  0  0  0  0
   41.3280   69.6670   58.4020 N   0  0  0  0  0  0  0  0  0  0  0  0
   42.2320   68.3090   62.2650 C   0  0  0  0  0  0  0  0  0  0  0  0
   43.5890   68.5110   62.6060 C   0  0  0  0  0  0  0  0  0  0  0  0
   44.1040   68.2450   63.8750 C   0  0  0  0  0  0  0  0  0  0  0  0
   43.2550   67.7640   64.8470 C   0  0  0  0  0  0  0  0  0  0  0  0
   41.9320   67.5510   64.5680 C   0  0  0  0  0  0  0  0  0  0  0  0
   41.0530   67.0720   65.5100 C   0  0  0  0  0  0  0  0  0  0  0  0
   39.7240   66.8450   65.2730 C   0  0  0  0  0  0  0  0  0  0  0  0
   39.3050   67.1370   63.9840 C   0  0  0  0  0  0  0  0  0  0  0  0
   40.1910   67.6210   63.0360 C   0  0  0  0  0  0  0  0  0  0  0  0
   41.4960   67.8300   63.3120 C   0  0  0  0  0  0  0  0  0  0  0  0
   39.8030   72.3290   59.2200 C   0  0  0  0  0  0  0  0  0  0  0  0
   39.7050   73.7220   59.7280 C   0  0  0  0  0  0  0  0  0  0  0  0
   39.4290   74.1680   61.0250 C   0  0  0  0  0  0  0  0  0  0  0  0
   39.4500   75.5600   60.9740 C   0  0  0  0  0  0  0  0  0  0  0  0
   39.7350   75.8880   59.6500 C   0  0  0  0  0  0  0  0  0  0  0  0
   39.8720   74.7900   58.9760 O   0  0  0  0  0  0  0  0  0  0  0  0
   39.8250   77.2540   59.2770 N   0  0  0  0  0  0  0  0  0  0  0  0
   40.5150   78.2180   59.9350 C   0  0  0  0  0  0  0  0  0  0  0  0
   40.3760   79.4120   59.2890 N   0  0  0  0  0  0  0  0  0  0  0  0
   39.5920   79.1720   58.2230 C   0  0  0  0  0  0  0  0  0  0  0  0
   39.1690   80.0870   57.2630 C   0  0  0  0  0  0  0  0  0  0  0  0
   39.4990   81.2860   57.3050 O   0  0  0  0  0  0  0  0  0  0  0  0
   38.3770   79.6010   56.2760 N   0  0  0  0  0  0  0  0  0  0  0  0
   38.0380   78.2850   56.2640 C   0  0  0  0  0  0  0  0  0  0  0  0
   37.1980   77.8530   55.1890 N   0  0  0  0  0  0  0  0  0  0  0  0
   38.4470   77.3810   57.2010 N   0  0  0  0  0  0  0  0  0  0  0  0
   39.2430   77.8270   58.2080 C   0  0  0  0  0  0  0  0  0  0  0  0
   41.7193   72.4530   60.0955 H   0  0  0  0  0  0  0  0  0  0  0  0
   41.6715   72.1878   58.2880 H   0  0  0  0  0  0  0  0  0  0  0  0
   41.4078   67.7126   57.6417 H   0  0  0  0  0  0  0  0  0  0  0  0
   41.9418   66.7467   59.8896 H   0  0  0  0  0  0  0  0  0  0  0  0
   44.2713   68.8963   61.8340 H   0  0  0  0  0  0  0  0  0  0  0  0
   45.1681   68.4162   64.0951 H   0  0  0  0  0  0  0  0  0  0  0  0
   43.6426   67.5497   65.8539 H   0  0  0  0  0  0  0  0  0  0  0  0
   41.4415   66.8578   66.5166 H   0  0  0  0  0  0  0  0  0  0  0  0
   39.0414   66.4607   66.0453 H   0  0  0  0  0  0  0  0  0  0  0  0
   38.2511   66.9816   63.7097 H   0  0  0  0  0  0  0  0  0  0  0  0
   39.8192   67.8425   62.0247 H   0  0  0  0  0  0  0  0  0  0  0  0
   39.4318   72.2818   58.1856 H   0  0  0  0  0  0  0  0  0  0  0  0
   39.1961   71.6524   59.8396 H   0  0  0  0  0  0  0  0  0  0  0  0
   39.2341   73.5436   61.9094 H   0  0  0  0  0  0  0  0  0  0  0  0
   39.2772   76.2568   61.8074 H   0  0  0  0  0  0  0  0  0  0  0  0
   41.1000   78.0610   60.8532 H   0  0  0  0  0  0  0  0  0  0  0  0
   38.0324   80.2287   55.5356 H   0  0  0  0  0  0  0  0  0  0  0  0
   36.9076   76.8667   55.1267 H   0  0  0  0  0  0  0  0  0  0  0  0
   36.8838   78.5283   54.4776 H   0  0  0  0  0  0  0  0  0  0  0  0
  1  6  1  0
  2  3  2  0
  3  4  1  0
  4  8  1  0
  5  4  2  0
  6  5  1  0
  7  2  1  0
  7  6  2  0
  8  9  2  0
  8 17  1  0
  9 10  1  0
 10 11  2  0
 12 11  1  0
 12 13  2  0
 14 13  1  0
 15 14  2  0
 16 17  2  0
 16 15  1  0
 17 12  1  0
 18  1  1  0
 18 19  1  0
 19 20  2  0
 21 20  1  0
 22 21  2  0
 23 22  1  0
 23 19  1  0
 24 22  1  0
 24 25  1  0
 26 25  2  0
 27 26  1  0
 28 29  2  0
 28 27  1  0
 30 28  1  0
 31 30  1  0
 31 33  2  0
 32 31  1  0
 33 34  1  0
 34 27  2  0
 34 24  1  0
  1 35  1  0
  1 36  1  0
  2 37  1  0
  3 38  1  0
  9 39  1  0
 10 40  1  0
 11 41  1  0
 13 42  1  0
 14 43  1  0
 15 44  1  0
 16 45  1  0
 18 46  1  0
 18 47  1  0
 20 48  1  0
 21 49  1  0
 25 50  1  0
 30 51  1  0
 32 52  1  0
 32 53  1  0
M  END
>  <Score>  (1) 
-9.20321

$$$$
