
     RDKit          3D

 37 41  0  0  0  0  0  0  0  0999 V2000
   41.5400   66.3120   62.4200 C   0  0  0  0  0  0  0  0  0  0  0  0
   40.8990   67.0880   61.4340 C   0  0  0  0  0  0  0  0  0  0  0  0
   41.2650   66.8540   60.0970 C   0  0  0  0  0  0  0  0  0  0  0  0
   42.1900   65.9200   59.8160 N   0  0  0  0  0  0  0  0  0  0  0  0
   42.7960   65.1820   60.7880 C   0  0  0  0  0  0  0  0  0  0  0  0
   42.4540   65.3970   62.0670 N   0  0  0  0  0  0  0  0  0  0  0  0
   43.7690   64.2080   60.4240 N   0  0  0  0  0  0  0  0  0  0  0  0
   45.0820   63.9870   60.6260 C   0  0  0  0  0  0  0  0  0  0  0  0
   45.4440   62.8490   60.0000 N   0  0  0  0  0  0  0  0  0  0  0  0
   44.3450   62.3540   59.4000 C   0  0  0  0  0  0  0  0  0  0  0  0
   43.3120   63.1960   59.6640 N   0  0  0  0  0  0  0  0  0  0  0  0
   41.1710   66.5450   63.8040 C   0  0  0  0  0  0  0  0  0  0  0  0
   41.4550   67.6770   64.5730 C   0  0  0  0  0  0  0  0  0  0  0  0
   40.9270   67.4720   65.8050 N   0  0  0  0  0  0  0  0  0  0  0  0
   40.3120   66.2440   65.8500 C   0  0  0  0  0  0  0  0  0  0  0  0
   39.6320   65.5740   66.8610 C   0  0  0  0  0  0  0  0  0  0  0  0
   39.0960   64.3030   66.6200 C   0  0  0  0  0  0  0  0  0  0  0  0
   39.2510   63.7280   65.3680 C   0  0  0  0  0  0  0  0  0  0  0  0
   39.9290   64.4070   64.3720 C   0  0  0  0  0  0  0  0  0  0  0  0
   40.4690   65.6750   64.5980 C   0  0  0  0  0  0  0  0  0  0  0  0
   44.2350   61.1370   58.6010 C   0  0  0  0  0  0  0  0  0  0  0  0
   44.1670   60.8490   57.2770 N   0  0  0  0  0  0  0  0  0  0  0  0
   44.0760   59.5510   57.1380 O   0  0  0  0  0  0  0  0  0  0  0  0
   44.0790   58.9580   58.3250 C   0  0  0  0  0  0  0  0  0  0  0  0
   44.1780   59.9510   59.2410 N   0  0  0  0  0  0  0  0  0  0  0  0
   40.1451   67.8439   61.6988 H   0  0  0  0  0  0  0  0  0  0  0  0
   40.7974   67.4315   59.2859 H   0  0  0  0  0  0  0  0  0  0  0  0
   45.6628   64.8293   60.2220 H   0  0  0  0  0  0  0  0  0  0  0  0
   45.2781   63.8927   61.7043 H   0  0  0  0  0  0  0  0  0  0  0  0
   42.3422   63.0793   59.3373 H   0  0  0  0  0  0  0  0  0  0  0  0
   42.0053   68.5695   64.2402 H   0  0  0  0  0  0  0  0  0  0  0  0
   40.9791   68.1372   66.5897 H   0  0  0  0  0  0  0  0  0  0  0  0
   39.5152   66.0421   67.8495 H   0  0  0  0  0  0  0  0  0  0  0  0
   38.5578   63.7666   67.4154 H   0  0  0  0  0  0  0  0  0  0  0  0
   38.8341   62.7302   65.1665 H   0  0  0  0  0  0  0  0  0  0  0  0
   40.0451   63.9395   63.3831 H   0  0  0  0  0  0  0  0  0  0  0  0
   44.0142   57.8782   58.5248 H   0  0  0  0  0  0  0  0  0  0  0  0
  1 12  1  0
  2  1  2  0
  3  2  1  0
  4  3  2  0
  4  5  1  0
  5  6  2  0
  6  1  1  0
  7  8  1  0
  7  5  1  0
  9  8  1  0
 10 11  1  0
 10  9  2  0
 11  7  1  0
 12 13  2  0
 12 20  1  0
 13 14  1  0
 14 15  1  0
 15 16  2  0
 17 16  1  0
 18 17  2  0
 19 20  2  0
 19 18  1  0
 20 15  1  0
 21 25  1  0
 21 10  1  0
 22 21  2  0
 23 22  1  0
 23 24  1  0
 24 25  2  0
  2 26  1  0
  3 27  1  0
  8 28  1  0
  8 29  1  0
 11 30  1  0
 13 31  1  0
 14 32  1  0
 16 33  1  0
 17 34  1  0
 18 35  1  0
 19 36  1  0
 24 37  1  0
M  END
>  <Score>  (1) 
-7.31451

$$$$
