
     RDKit          3D

 38 42  0  0  0  0  0  0  0  0999 V2000
   41.5700   66.5760   62.1800 C   0  0  0  0  0  0  0  0  0  0  0  0
   40.9380   67.0770   61.0250 C   0  0  0  0  0  0  0  0  0  0  0  0
   41.4420   66.7110   59.7720 C   0  0  0  0  0  0  0  0  0  0  0  0
   42.5200   65.8880   59.7350 N   0  0  0  0  0  0  0  0  0  0  0  0
   43.1100   65.4190   60.8580 C   0  0  0  0  0  0  0  0  0  0  0  0
   42.6200   65.7750   62.0550 N   0  0  0  0  0  0  0  0  0  0  0  0
   41.0240   66.9730   63.4660 C   0  0  0  0  0  0  0  0  0  0  0  0
   40.9370   68.2530   64.0070 C   0  0  0  0  0  0  0  0  0  0  0  0
   40.3600   68.1530   65.2190 N   0  0  0  0  0  0  0  0  0  0  0  0
   40.0640   66.8440   65.4940 C   0  0  0  0  0  0  0  0  0  0  0  0
   39.4770   66.2180   66.5850 C   0  0  0  0  0  0  0  0  0  0  0  0
   39.2940   64.8480   66.5960 C   0  0  0  0  0  0  0  0  0  0  0  0
   39.7060   64.1010   65.5040 C   0  0  0  0  0  0  0  0  0  0  0  0
   40.2900   64.7140   64.4180 C   0  0  0  0  0  0  0  0  0  0  0  0
   40.4830   66.1030   64.3890 C   0  0  0  0  0  0  0  0  0  0  0  0
   44.2650   64.5390   60.7290 C   0  0  0  0  0  0  0  0  0  0  0  0
   45.4790   64.7760   61.3520 C   0  0  0  0  0  0  0  0  0  0  0  0
   46.2480   63.7420   60.9740 N   0  0  0  0  0  0  0  0  0  0  0  0
   45.6080   62.8780   60.1660 C   0  0  0  0  0  0  0  0  0  0  0  0
   45.9870   61.7060   59.5480 C   0  0  0  0  0  0  0  0  0  0  0  0
   45.0800   61.0250   58.7560 C   0  0  0  0  0  0  0  0  0  0  0  0
   43.8070   61.5120   58.5810 C   0  0  0  0  0  0  0  0  0  0  0  0
   43.4260   62.6940   59.2040 C   0  0  0  0  0  0  0  0  0  0  0  0
   44.3310   63.3730   59.9960 C   0  0  0  0  0  0  0  0  0  0  0  0
   40.0659   67.7425   61.1065 H   0  0  0  0  0  0  0  0  0  0  0  0
   40.9782   67.0794   58.8451 H   0  0  0  0  0  0  0  0  0  0  0  0
   41.2795   69.1823   63.5283 H   0  0  0  0  0  0  0  0  0  0  0  0
   40.1688   68.9456   65.8483 H   0  0  0  0  0  0  0  0  0  0  0  0
   39.1545   66.8178   67.4489 H   0  0  0  0  0  0  0  0  0  0  0  0
   38.8266   64.3562   67.4618 H   0  0  0  0  0  0  0  0  0  0  0  0
   39.5655   63.0100   65.5047 H   0  0  0  0  0  0  0  0  0  0  0  0
   40.6102   64.1049   63.5598 H   0  0  0  0  0  0  0  0  0  0  0  0
   45.7508   65.6176   62.0060 H   0  0  0  0  0  0  0  0  0  0  0  0
   47.2267   63.6229   61.2720 H   0  0  0  0  0  0  0  0  0  0  0  0
   47.0057   61.3139   59.6838 H   0  0  0  0  0  0  0  0  0  0  0  0
   45.3796   60.0882   58.2634 H   0  0  0  0  0  0  0  0  0  0  0  0
   43.0907   60.9669   57.9487 H   0  0  0  0  0  0  0  0  0  0  0  0
   42.4079   63.0873   59.0670 H   0  0  0  0  0  0  0  0  0  0  0  0
  1  7  1  0
  2  1  2  0
  3  2  1  0
  4  3  2  0
  4  5  1  0
  5  6  2  0
  6  1  1  0
  7  8  2  0
  7 15  1  0
  8  9  1  0
  9 10  1  0
 10 11  2  0
 11 12  1  0
 13 12  2  0
 14 13  1  0
 15 14  2  0
 15 10  1  0
 16  5  1  0
 16 17  2  0
 18 17  1  0
 19 18  1  0
 20 19  2  0
 21 20  1  0
 22 21  2  0
 22 23  1  0
 23 24  2  0
 24 19  1  0
 24 16  1  0
  2 25  1  0
  3 26  1  0
  8 27  1  0
  9 28  1  0
 11 29  1  0
 12 30  1  0
 13 31  1  0
 14 32  1  0
 17 33  1  0
 18 34  1  0
 20 35  1  0
 21 36  1  0
 22 37  1  0
 23 38  1  0
M  END
>  <Score>  (1) 
-7.34844

$$$$
