
     RDKit          3D

 39 42  0  0  0  0  0  0  0  0999 V2000
   42.1320   69.0640   61.7250 N   0  0  0  0  0  0  0  0  0  0  0  0
   41.9260   70.2430   62.2400 C   0  0  0  0  0  0  0  0  0  0  0  0
   42.5560   71.3530   61.7300 C   0  0  0  0  0  0  0  0  0  0  0  0
   43.3850   71.1770   60.6870 C   0  0  0  0  0  0  0  0  0  0  0  0
   43.9800   72.1730   60.1940 O   0  0  0  0  0  0  0  0  0  0  0  0
   43.5640   69.9250   60.1880 N   0  0  0  0  0  0  0  0  0  0  0  0
   42.9330   68.8350   60.7050 C   0  0  0  0  0  0  0  0  0  0  0  0
   43.1680   67.7290   60.1690 O   0  0  0  0  0  0  0  0  0  0  0  0
   40.4220   66.0630   63.8130 C   0  0  0  0  0  0  0  0  0  0  0  0
   40.1650   65.9850   62.4650 C   0  0  0  0  0  0  0  0  0  0  0  0
   40.7040   66.9560   61.6970 C   0  0  0  0  0  0  0  0  0  0  0  0
   41.4500   67.9280   62.2870 C   0  0  0  0  0  0  0  0  0  0  0  0
   41.4250   67.4940   64.0490 S   0  0  0  0  0  0  0  0  0  0  0  0
   39.9670   65.1630   64.8750 C   0  0  0  0  0  0  0  0  0  0  0  0
   39.9770   65.5120   66.2230 C   0  0  0  0  0  0  0  0  0  0  0  0
   39.5180   64.5660   67.1280 C   0  0  0  0  0  0  0  0  0  0  0  0
   39.0890   63.3630   66.6720 N   0  0  0  0  0  0  0  0  0  0  0  0
   39.0910   63.0480   65.3500 C   0  0  0  0  0  0  0  0  0  0  0  0
   39.5350   63.9700   64.5040 N   0  0  0  0  0  0  0  0  0  0  0  0
   38.6400   61.7900   64.8880 N   0  0  0  0  0  0  0  0  0  0  0  0
   42.2320   72.6540   62.3680 C   0  0  0  0  0  0  0  0  0  0  0  0
   41.0770   73.2170   61.6050 C   0  0  0  0  0  0  0  0  0  0  0  0
   41.0240   74.1300   60.5500 C   0  0  0  0  0  0  0  0  0  0  0  0
   39.6910   74.3360   60.1830 C   0  0  0  0  0  0  0  0  0  0  0  0
   38.9980   73.5240   61.0520 C   0  0  0  0  0  0  0  0  0  0  0  0
   39.8190   72.8950   61.8560 O   0  0  0  0  0  0  0  0  0  0  0  0
   41.2399   70.3513   63.0929 H   0  0  0  0  0  0  0  0  0  0  0  0
   44.2009   69.7963   59.3888 H   0  0  0  0  0  0  0  0  0  0  0  0
   39.5544   65.1768   62.0359 H   0  0  0  0  0  0  0  0  0  0  0  0
   40.5419   66.9608   60.6090 H   0  0  0  0  0  0  0  0  0  0  0  0
   40.3342   66.4974   66.5566 H   0  0  0  0  0  0  0  0  0  0  0  0
   39.5022   64.7895   68.2049 H   0  0  0  0  0  0  0  0  0  0  0  0
   38.6521   61.5768   63.8804 H   0  0  0  0  0  0  0  0  0  0  0  0
   38.2994   61.0868   65.5591 H   0  0  0  0  0  0  0  0  0  0  0  0
   41.9555   72.5034   63.4220 H   0  0  0  0  0  0  0  0  0  0  0  0
   43.0952   73.3356   62.3488 H   0  0  0  0  0  0  0  0  0  0  0  0
   41.8947   74.6117   60.0811 H   0  0  0  0  0  0  0  0  0  0  0  0
   39.2927   74.9884   59.3920 H   0  0  0  0  0  0  0  0  0  0  0  0
   37.9033   73.4177   61.0690 H   0  0  0  0  0  0  0  0  0  0  0  0
  1  2  1  0
  1 12  1  0
  3  2  2  0
  3 21  1  0
  4  3  1  0
  5  4  2  0
  6  4  1  0
  6  7  1  0
  7  1  1  0
  8  7  2  0
  9 13  1  0
  9 14  1  0
 10  9  2  0
 11 12  2  0
 11 10  1  0
 12 13  1  0
 14 15  2  0
 15 16  1  0
 17 16  2  0
 18 17  1  0
 19 14  1  0
 19 18  2  0
 20 18  1  0
 22 26  1  0
 22 21  1  0
 23 22  2  0
 24 23  1  0
 24 25  2  0
 25 26  1  0
  2 27  1  0
  6 28  1  0
 10 29  1  0
 11 30  1  0
 15 31  1  0
 16 32  1  0
 20 33  1  0
 20 34  1  0
 21 35  1  0
 21 36  1  0
 23 37  1  0
 24 38  1  0
 25 39  1  0
M  END
>  <Score>  (1) 
-7.54193

$$$$
