
     RDKit          3D

 53 57  0  0  1  0  0  0  0  0999 V2000
   39.8090   64.2560   65.3130 C   0  0  0  0  0  0  0  0  0  0  0  0
   39.6420   65.2080   66.3440 C   0  0  0  0  0  0  0  0  0  0  0  0
   40.0940   66.5220   66.0940 C   0  0  0  0  0  0  0  0  0  0  0  0
   40.6590   66.7910   64.8820 N   0  0  0  0  0  0  0  0  0  0  0  0
   40.7900   65.8390   63.9390 C   0  0  0  0  0  0  0  0  0  0  0  0
   40.3750   64.5960   64.1450 N   0  0  0  0  0  0  0  0  0  0  0  0
   41.3760   66.2170   62.6960 N   0  0  0  0  0  0  0  0  0  0  0  0
   41.8980   65.5720   61.6380 C   0  0  0  0  0  0  0  0  0  0  0  0
   42.2860   66.4270   60.7060 N   0  0  0  0  0  0  0  0  0  0  0  0
   42.0090   67.6660   61.1750 C   0  0  0  0  0  0  0  0  0  0  0  0
   42.1930   68.9110   60.6360 C   0  0  0  0  0  0  0  0  0  0  0  0
   42.7120   68.9840   59.4940 O   0  0  0  0  0  0  0  0  0  0  0  0
   41.8410   70.0570   61.2780 N   0  0  0  0  0  0  0  0  0  0  0  0
   41.3100   69.8940   62.4630 C   0  0  0  0  0  0  0  0  0  0  0  0
   40.9900   71.0510   63.2480 N   0  0  0  0  0  0  0  0  0  0  0  0
   41.1020   68.7200   63.0380 N   0  0  0  0  0  0  0  0  0  0  0  0
   41.4300   67.5550   62.4410 C   0  0  0  0  0  0  0  0  0  0  0  0
   40.6530   73.7710   59.9880 N   0  0  0  0  0  0  0  0  0  0  0  0
   40.9100   73.6190   61.3700 C   0  0  0  0  0  0  0  0  0  0  0  0
   41.6840   72.4570   61.7600 C   0  0  0  0  0  0  0  0  0  0  0  0
   42.0020   71.3930   60.7200 C   0  0  2  0  0  0  0  0  0  0  0  0
   41.3160   71.5560   59.4120 C   0  0  0  0  0  0  0  0  0  0  0  0
   41.3990   73.0480   59.0610 C   0  0  2  0  0  0  0  0  0  0  0  0
   42.7890   73.3740   59.0110 N   0  0  0  0  0  0  0  0  0  0  0  0
   43.2190   74.3910   59.9160 C   0  0  0  0  0  0  0  0  0  0  0  0
   44.7460   74.2890   60.0130 C   0  0  0  0  0  0  0  0  0  0  0  0
   45.3200   73.8820   58.7430 N   0  0  0  0  0  0  0  0  0  0  0  0
   44.9200   72.5400   58.3780 C   0  0  0  0  0  0  0  0  0  0  0  0
   43.6650   72.2410   59.1700 C   0  0  0  0  0  0  0  0  0  0  0  0
   39.4701   63.2214   65.4703 H   0  0  0  0  0  0  0  0  0  0  0  0
   39.1781   64.9360   67.3036 H   0  0  0  0  0  0  0  0  0  0  0  0
   39.9932   67.3082   66.8567 H   0  0  0  0  0  0  0  0  0  0  0  0
   41.9902   64.4788   61.5580 H   0  0  0  0  0  0  0  0  0  0  0  0
   40.5716   70.9396   64.1826 H   0  0  0  0  0  0  0  0  0  0  0  0
   41.1786   71.9932   62.8771 H   0  0  0  0  0  0  0  0  0  0  0  0
   39.6658   73.5177   59.8388 H   0  0  0  0  0  0  0  0  0  0  0  0
   41.4548   74.5125   61.7089 H   0  0  0  0  0  0  0  0  0  0  0  0
   39.9232   73.4813   61.8362 H   0  0  0  0  0  0  0  0  0  0  0  0
   42.6455   72.8263   62.1461 H   0  0  0  0  0  0  0  0  0  0  0  0
   41.0308   71.9361   62.4755 H   0  0  0  0  0  0  0  0  0  0  0  0
   43.0624   71.5397   60.4670 H   0  0  0  0  0  0  0  0  0  0  0  0
   41.8202   70.9553   58.6407 H   0  0  0  0  0  0  0  0  0  0  0  0
   40.2710   71.2168   59.4652 H   0  0  0  0  0  0  0  0  0  0  0  0
   40.9634   73.3033   58.0837 H   0  0  0  0  0  0  0  0  0  0  0  0
   42.9301   75.3819   59.5356 H   0  0  0  0  0  0  0  0  0  0  0  0
   42.7534   74.2596   60.9039 H   0  0  0  0  0  0  0  0  0  0  0  0
   45.1553   75.2703   60.2952 H   0  0  0  0  0  0  0  0  0  0  0  0
   45.0002   73.5340   60.7715 H   0  0  0  0  0  0  0  0  0  0  0  0
   45.0056   74.5344   58.0106 H   0  0  0  0  0  0  0  0  0  0  0  0
   44.7120   72.4846   57.2993 H   0  0  0  0  0  0  0  0  0  0  0  0
   45.7147   71.8120   58.5979 H   0  0  0  0  0  0  0  0  0  0  0  0
   43.9128   72.1008   60.2325 H   0  0  0  0  0  0  0  0  0  0  0  0
   43.1842   71.3187   58.8120 H   0  0  0  0  0  0  0  0  0  0  0  0
  1  2  2  0
  3  2  1  0
  4  3  2  0
  5  6  2  0
  5  4  1  0
  6  1  1  0
  7  5  1  0
  8  7  1  0
  9 10  1  0
  9  8  2  0
 10 17  2  0
 11 10  1  0
 11 13  1  0
 12 11  2  0
 13 14  1  0
 14 16  2  0
 14 15  1  0
 17  7  1  0
 17 16  1  0
 18 19  1  0
 19 20  1  0
 21 13  1  0
 21 20  1  0
 22 21  1  0
 23 22  1  0
 23 18  1  0
 24 23  1  0
 24 29  1  0
 24 25  1  0
 25 26  1  0
 27 26  1  0
 28 27  1  0
 28 29  1  0
  1 30  1  0
  2 31  1  0
  3 32  1  0
  8 33  1  0
 15 34  1  0
 15 35  1  0
 18 36  1  0
 19 37  1  0
 19 38  1  0
 20 39  1  0
 20 40  1  0
 21 41  1  6
 22 42  1  0
 22 43  1  0
 23 44  1  6
 25 45  1  0
 25 46  1  0
 26 47  1  0
 26 48  1  0
 27 49  1  0
 28 50  1  0
 28 51  1  0
 29 52  1  0
 29 53  1  0
M  END
>  <Score>  (1) 
-7.39177

$$$$
