
     RDKit          3D

 44 47  0  0  1  0  0  0  0  0999 V2000
   42.5580   70.5860   62.1290 C   0  0  2  0  0  0  0  0  0  0  0  0
   39.7310   64.4230   64.4970 C   0  0  0  0  0  0  0  0  0  0  0  0
   39.3880   65.0780   65.6880 C   0  0  0  0  0  0  0  0  0  0  0  0
   39.8700   66.3510   65.8490 C   0  0  0  0  0  0  0  0  0  0  0  0
   40.6300   66.8740   64.8580 N   0  0  0  0  0  0  0  0  0  0  0  0
   40.9520   66.2170   63.7070 C   0  0  0  0  0  0  0  0  0  0  0  0
   40.4960   64.9820   63.5290 N   0  0  0  0  0  0  0  0  0  0  0  0
   41.7640   67.0090   62.8870 N   0  0  0  0  0  0  0  0  0  0  0  0
   41.6580   68.3570   62.8540 C   0  0  0  0  0  0  0  0  0  0  0  0
   42.5600   69.0760   62.0370 C   0  0  0  0  0  0  0  0  0  0  0  0
   43.4850   68.3580   61.3260 C   0  0  0  0  0  0  0  0  0  0  0  0
   44.3560   69.1070   60.4830 N   0  0  0  0  0  0  0  0  0  0  0  0
   43.5500   67.0110   61.3910 N   0  0  0  0  0  0  0  0  0  0  0  0
   42.6770   66.3030   62.1850 C   0  0  0  0  0  0  0  0  0  0  0  0
   42.7710   65.0640   62.2160 O   0  0  0  0  0  0  0  0  0  0  0  0
   41.7310   71.1080   63.1890 C   0  0  0  0  0  0  0  0  0  0  0  0
   41.8720   70.9850   60.7100 C   0  0  0  0  0  0  0  0  0  0  0  0
   42.4990   72.2180   60.3320 N   0  0  0  0  0  0  0  0  0  0  0  0
   43.7790   72.2840   59.9340 N   0  0  0  0  0  0  0  0  0  0  0  0
   44.1230   73.5450   59.6400 C   0  0  0  0  0  0  0  0  0  0  0  0
   43.0390   74.3460   59.8480 C   0  0  0  0  0  0  0  0  0  0  0  0
   42.0620   73.4800   60.2740 C   0  0  0  0  0  0  0  0  0  0  0  0
   40.6910   73.8580   60.6330 C   0  0  0  0  0  0  0  0  0  0  0  0
   40.1760   75.1540   60.6450 C   0  0  0  0  0  0  0  0  0  0  0  0
   38.8490   75.1590   61.0300 C   0  0  0  0  0  0  0  0  0  0  0  0
   38.5840   73.8570   61.2450 N   0  0  0  0  0  0  0  0  0  0  0  0
   39.6460   73.1030   61.0170 N   0  0  0  0  0  0  0  0  0  0  0  0
   43.5645   70.9817   62.3301 H   0  0  0  0  0  0  0  0  0  0  0  0
   39.3588   63.3998   64.3401 H   0  0  0  0  0  0  0  0  0  0  0  0
   38.7639   64.5950   66.4543 H   0  0  0  0  0  0  0  0  0  0  0  0
   39.6460   66.9307   66.7566 H   0  0  0  0  0  0  0  0  0  0  0  0
   40.8917   68.8789   63.4460 H   0  0  0  0  0  0  0  0  0  0  0  0
   44.2854   70.1341   60.4522 H   0  0  0  0  0  0  0  0  0  0  0  0
   45.0562   68.6213   59.9045 H   0  0  0  0  0  0  0  0  0  0  0  0
   42.1653   70.8339   64.1617 H   0  0  0  0  0  0  0  0  0  0  0  0
   41.6779   72.2036   63.1069 H   0  0  0  0  0  0  0  0  0  0  0  0
   40.7191   70.6846   63.1069 H   0  0  0  0  0  0  0  0  0  0  0  0
   42.0618   70.2070   59.9559 H   0  0  0  0  0  0  0  0  0  0  0  0
   40.7794   71.0833   60.7909 H   0  0  0  0  0  0  0  0  0  0  0  0
   45.1115   73.8777   59.2904 H   0  0  0  0  0  0  0  0  0  0  0  0
   42.9645   75.4344   59.7071 H   0  0  0  0  0  0  0  0  0  0  0  0
   40.7509   76.0543   60.3824 H   0  0  0  0  0  0  0  0  0  0  0  0
   38.1722   76.0197   61.1354 H   0  0  0  0  0  0  0  0  0  0  0  0
   37.6693   73.4938   61.5488 H   0  0  0  0  0  0  0  0  0  0  0  0
  1 16  1  0
  2  3  2  0
  3  4  1  0
  5  4  2  0
  6  5  1  0
  7  6  2  0
  7  2  1  0
  8  6  1  0
  9  8  1  0
 10  1  1  0
 10  9  2  0
 11 13  2  0
 11 10  1  0
 12 11  1  0
 13 14  1  0
 14 15  2  0
 14  8  1  0
 17  1  1  0
 18 17  1  0
 19 18  1  0
 20 21  1  0
 20 19  2  0
 21 22  2  0
 22 18  1  0
 22 23  1  0
 23 24  1  0
 23 27  2  0
 24 25  2  0
 25 26  1  0
 27 26  1  0
  1 28  1  6
  2 29  1  0
  3 30  1  0
  4 31  1  0
  9 32  1  0
 12 33  1  0
 12 34  1  0
 16 35  1  0
 16 36  1  0
 16 37  1  0
 17 38  1  0
 17 39  1  0
 20 40  1  0
 21 41  1  0
 24 42  1  0
 25 43  1  0
 26 44  1  0
M  END
>  <Score>  (1) 
-7.39184

$$$$
