
     RDKit          3D

 34 37  0  0  0  0  0  0  0  0999 V2000
   40.9510   66.0830   63.5670 C   0  0  0  0  0  0  0  0  0  0  0  0
   41.1860   67.4540   63.4850 C   0  0  0  0  0  0  0  0  0  0  0  0
   41.7620   68.0100   62.3590 C   0  0  0  0  0  0  0  0  0  0  0  0
   42.0850   67.1710   61.3470 N   0  0  0  0  0  0  0  0  0  0  0  0
   41.8520   65.8440   61.4370 C   0  0  0  0  0  0  0  0  0  0  0  0
   41.2910   65.3080   62.5360 N   0  0  0  0  0  0  0  0  0  0  0  0
   40.3580   65.4680   64.7230 C   0  0  0  0  0  0  0  0  0  0  0  0
   40.4110   66.1420   65.9240 C   0  0  0  0  0  0  0  0  0  0  0  0
   39.8530   65.5890   67.0790 C   0  0  0  0  0  0  0  0  0  0  0  0
   39.2330   64.3560   67.0470 C   0  0  0  0  0  0  0  0  0  0  0  0
   39.1720   63.6690   65.8510 C   0  0  0  0  0  0  0  0  0  0  0  0
   39.7230   64.2220   64.7330 C   0  0  0  0  0  0  0  0  0  0  0  0
   42.0110   69.4210   62.2700 C   0  0  0  0  0  0  0  0  0  0  0  0
   41.6740   70.3620   63.2050 C   0  0  0  0  0  0  0  0  0  0  0  0
   42.0930   71.5980   62.7320 C   0  0  0  0  0  0  0  0  0  0  0  0
   42.6690   71.3160   61.5140 C   0  0  0  0  0  0  0  0  0  0  0  0
   42.5940   70.0390   61.2950 O   0  0  0  0  0  0  0  0  0  0  0  0
   43.2750   72.2880   60.5950 C   0  0  0  0  0  0  0  0  0  0  0  0
   43.4950   72.1230   59.2400 C   0  0  0  0  0  0  0  0  0  0  0  0
   44.0730   73.2470   58.7530 N   0  0  0  0  0  0  0  0  0  0  0  0
   44.2170   74.1110   59.7840 C   0  0  0  0  0  0  0  0  0  0  0  0
   43.7280   73.5090   60.8880 N   0  0  0  0  0  0  0  0  0  0  0  0
   40.9089   68.1029   64.3289 H   0  0  0  0  0  0  0  0  0  0  0  0
   42.1259   65.1894   60.5965 H   0  0  0  0  0  0  0  0  0  0  0  0
   40.8984   67.1269   65.9736 H   0  0  0  0  0  0  0  0  0  0  0  0
   39.9084   66.1437   68.0273 H   0  0  0  0  0  0  0  0  0  0  0  0
   38.7944   63.9275   67.9602 H   0  0  0  0  0  0  0  0  0  0  0  0
   38.6835   62.6847   65.8005 H   0  0  0  0  0  0  0  0  0  0  0  0
   39.6650   63.6588   63.7899 H   0  0  0  0  0  0  0  0  0  0  0  0
   41.1626   70.1727   64.1603 H   0  0  0  0  0  0  0  0  0  0  0  0
   41.9886   72.5787   63.2192 H   0  0  0  0  0  0  0  0  0  0  0  0
   43.2423   71.2269   58.6542 H   0  0  0  0  0  0  0  0  0  0  0  0
   44.6529   75.1196   59.7318 H   0  0  0  0  0  0  0  0  0  0  0  0
   43.7071   73.9327   61.8266 H   0  0  0  0  0  0  0  0  0  0  0  0
  1  7  1  0
  2  1  2  0
  3  2  1  0
  4  5  1  0
  4  3  2  0
  5  6  2  0
  6  1  1  0
  7 12  1  0
  7  8  2  0
  8  9  1  0
 10  9  2  0
 11 10  1  0
 12 11  2  0
 13  3  1  0
 13 14  2  0
 15 14  1  0
 16 15  2  0
 17 16  1  0
 17 13  1  0
 18 22  1  0
 18 16  1  0
 19 18  2  0
 20 19  1  0
 20 21  2  0
 21 22  1  0
  2 23  1  0
  5 24  1  0
  8 25  1  0
  9 26  1  0
 10 27  1  0
 11 28  1  0
 12 29  1  0
 14 30  1  0
 15 31  1  0
 19 32  1  0
 21 33  1  0
 22 34  1  0
M  END
>  <Score>  (1) 
-7.04227

$$$$
