
     RDKit          3D

 34 37  0  0  0  0  0  0  0  0999 V2000
   39.3440   63.7610   65.0910 C   0  0  0  0  0  0  0  0  0  0  0  0
   39.1560   63.7820   66.5020 C   0  0  0  0  0  0  0  0  0  0  0  0
   39.6760   64.8740   67.2070 C   0  0  0  0  0  0  0  0  0  0  0  0
   40.3260   65.8440   66.5080 N   0  0  0  0  0  0  0  0  0  0  0  0
   40.4890   65.7960   65.1760 C   0  0  0  0  0  0  0  0  0  0  0  0
   39.9990   64.7560   64.4600 N   0  0  0  0  0  0  0  0  0  0  0  0
   41.1710   66.8120   64.4420 N   0  0  0  0  0  0  0  0  0  0  0  0
   41.2670   68.0250   65.0430 C   0  0  0  0  0  0  0  0  0  0  0  0
   41.9210   69.0260   64.3570 C   0  0  0  0  0  0  0  0  0  0  0  0
   42.4390   68.7590   63.1110 C   0  0  0  0  0  0  0  0  0  0  0  0
   43.0490   69.6420   62.4390 O   0  0  0  0  0  0  0  0  0  0  0  0
   42.3290   67.5390   62.5340 N   0  0  0  0  0  0  0  0  0  0  0  0
   41.6920   66.5720   63.2070 C   0  0  0  0  0  0  0  0  0  0  0  0
   41.5160   65.3900   62.7900 O   0  0  0  0  0  0  0  0  0  0  0  0
   42.8510   67.2460   61.2640 C   0  0  0  0  0  0  0  0  0  0  0  0
   42.4370   67.7310   60.0620 N   0  0  0  0  0  0  0  0  0  0  0  0
   43.0600   67.3370   58.9310 C   0  0  0  0  0  0  0  0  0  0  0  0
   44.0930   66.4720   58.9350 N   0  0  0  0  0  0  0  0  0  0  0  0
   44.5460   65.9610   60.0810 C   0  0  0  0  0  0  0  0  0  0  0  0
   45.6020   65.0780   60.0700 C   0  0  0  0  0  0  0  0  0  0  0  0
   46.0680   64.5510   61.2580 C   0  0  0  0  0  0  0  0  0  0  0  0
   45.4760   64.9120   62.4500 C   0  0  0  0  0  0  0  0  0  0  0  0
   44.4200   65.8010   62.4140 C   0  0  0  0  0  0  0  0  0  0  0  0
   43.9200   66.3530   61.2470 C   0  0  0  0  0  0  0  0  0  0  0  0
   38.9479   62.9182   64.5055 H   0  0  0  0  0  0  0  0  0  0  0  0
   38.6223   62.9708   67.0188 H   0  0  0  0  0  0  0  0  0  0  0  0
   39.5620   64.9462   68.2987 H   0  0  0  0  0  0  0  0  0  0  0  0
   40.8388   68.2028   66.0405 H   0  0  0  0  0  0  0  0  0  0  0  0
   42.0274   70.0268   64.8009 H   0  0  0  0  0  0  0  0  0  0  0  0
   42.7105   67.7380   57.9682 H   0  0  0  0  0  0  0  0  0  0  0  0
   46.0731   64.7932   59.1177 H   0  0  0  0  0  0  0  0  0  0  0  0
   46.9106   63.8439   61.2537 H   0  0  0  0  0  0  0  0  0  0  0  0
   45.8359   64.5022   63.4053 H   0  0  0  0  0  0  0  0  0  0  0  0
   43.9495   66.0867   63.3664 H   0  0  0  0  0  0  0  0  0  0  0  0
  1  2  2  0
  2  3  1  0
  4  3  2  0
  5  4  1  0
  6  1  1  0
  6  5  2  0
  7  8  1  0
  7  5  1  0
  9  8  2  0
 10  9  1  0
 11 10  2  0
 12 10  1  0
 12 13  1  0
 13  7  1  0
 14 13  2  0
 15 12  1  0
 16 15  2  0
 17 18  2  0
 17 16  1  0
 18 19  1  0
 19 24  2  0
 20 19  1  0
 20 21  2  0
 21 22  1  0
 23 22  2  0
 24 15  1  0
 24 23  1  0
  1 25  1  0
  2 26  1  0
  3 27  1  0
  8 28  1  0
  9 29  1  0
 17 30  1  0
 20 31  1  0
 21 32  1  0
 22 33  1  0
 23 34  1  0
M  END
>  <Score>  (1) 
-7.41812

$$$$
