
     RDKit          3D

 49 51  0  0  1  0  0  0  0  0999 V2000
   39.7440   64.4500   64.4840 C   0  0  0  0  0  0  0  0  0  0  0  0
   39.3980   65.0970   65.6720 C   0  0  0  0  0  0  0  0  0  0  0  0
   39.8740   66.3740   65.8280 C   0  0  0  0  0  0  0  0  0  0  0  0
   40.6320   66.9040   64.8340 N   0  0  0  0  0  0  0  0  0  0  0  0
   40.9530   66.2450   63.6820 C   0  0  0  0  0  0  0  0  0  0  0  0
   40.5040   65.0070   63.5090 N   0  0  0  0  0  0  0  0  0  0  0  0
   41.7640   67.0380   62.8600 N   0  0  0  0  0  0  0  0  0  0  0  0
   41.6470   68.3870   62.8250 C   0  0  0  0  0  0  0  0  0  0  0  0
   42.5520   69.1040   62.0140 C   0  0  0  0  0  0  0  0  0  0  0  0
   43.4860   68.3920   61.3100 C   0  0  0  0  0  0  0  0  0  0  0  0
   44.3590   69.1480   60.4700 N   0  0  0  0  0  0  0  0  0  0  0  0
   43.5600   67.0460   61.3780 N   0  0  0  0  0  0  0  0  0  0  0  0
   42.6880   66.3320   62.1640 C   0  0  0  0  0  0  0  0  0  0  0  0
   42.7860   65.0960   62.2020 O   0  0  0  0  0  0  0  0  0  0  0  0
   42.5380   70.6130   62.1080 C   0  0  2  0  0  0  0  0  0  0  0  0
   41.7190   71.1350   63.1730 C   0  0  0  0  0  0  0  0  0  0  0  0
   41.8770   71.0160   60.6830 C   0  0  0  0  0  0  0  0  0  0  0  0
   42.4950   72.2590   60.3240 N   0  0  0  0  0  0  0  0  0  0  0  0
   43.8270   72.4120   60.2860 N   0  0  0  0  0  0  0  0  0  0  0  0
   44.1480   73.6650   59.9240 C   0  0  0  0  0  0  0  0  0  0  0  0
   42.9990   74.3670   59.7140 C   0  0  0  0  0  0  0  0  0  0  0  0
   42.0070   73.4520   59.9750 C   0  0  0  0  0  0  0  0  0  0  0  0
   40.5300   73.7040   59.8940 C   0  0  0  0  0  0  0  0  0  0  0  0
   39.9550   73.7040   61.3120 C   0  0  0  0  0  0  0  0  0  0  0  0
   40.2630   75.1090   59.3540 C   0  0  0  0  0  0  0  0  0  0  0  0
   39.7920   72.6390   59.1470 C   0  0  0  0  0  0  0  0  0  0  0  0
   39.3772   63.4245   64.3295 H   0  0  0  0  0  0  0  0  0  0  0  0
   38.7786   64.6101   66.4396 H   0  0  0  0  0  0  0  0  0  0  0  0
   39.6475   66.9537   66.7350 H   0  0  0  0  0  0  0  0  0  0  0  0
   40.8727   68.9060   63.4090 H   0  0  0  0  0  0  0  0  0  0  0  0
   44.2809   70.1745   60.4372 H   0  0  0  0  0  0  0  0  0  0  0  0
   45.0668   68.6668   59.8970 H   0  0  0  0  0  0  0  0  0  0  0  0
   43.5404   71.0147   62.3175 H   0  0  0  0  0  0  0  0  0  0  0  0
   42.1569   70.8559   64.1427 H   0  0  0  0  0  0  0  0  0  0  0  0
   41.6703   72.2311   63.0945 H   0  0  0  0  0  0  0  0  0  0  0  0
   40.7048   70.7163   63.0945 H   0  0  0  0  0  0  0  0  0  0  0  0
   42.0899   70.2461   59.9268 H   0  0  0  0  0  0  0  0  0  0  0  0
   40.7822   71.1025   60.7457 H   0  0  0  0  0  0  0  0  0  0  0  0
   45.1691   74.0592   59.8151 H   0  0  0  0  0  0  0  0  0  0  0  0
   42.8909   75.4180   59.4078 H   0  0  0  0  0  0  0  0  0  0  0  0
   39.8172   72.6669   61.6518 H   0  0  0  0  0  0  0  0  0  0  0  0
   40.6495   74.2225   61.9893 H   0  0  0  0  0  0  0  0  0  0  0  0
   38.9849   74.2225   61.3143 H   0  0  0  0  0  0  0  0  0  0  0  0
   40.1306   75.8059   60.1947 H   0  0  0  0  0  0  0  0  0  0  0  0
   41.1155   75.4337   58.7394 H   0  0  0  0  0  0  0  0  0  0  0  0
   39.3508   75.0984   58.7394 H   0  0  0  0  0  0  0  0  0  0  0  0
   39.3160   71.9522   59.8623 H   0  0  0  0  0  0  0  0  0  0  0  0
   39.0204   73.1023   58.5146 H   0  0  0  0  0  0  0  0  0  0  0  0
   40.4968   72.0792   58.5146 H   0  0  0  0  0  0  0  0  0  0  0  0
  1  2  2  0
  2  3  1  0
  4  3  2  0
  5  4  1  0
  6  5  2  0
  6  1  1  0
  7  5  1  0
  8  7  1  0
  9 15  1  0
  9  8  2  0
 10 12  2  0
 10  9  1  0
 11 10  1  0
 12 13  1  0
 13 14  2  0
 13  7  1  0
 15 16  1  0
 17 15  1  0
 18 17  1  0
 19 18  1  0
 20 19  2  0
 21 20  1  0
 21 22  2  0
 22 18  1  0
 23 22  1  0
 23 24  1  0
 25 23  1  0
 26 23  1  0
  1 27  1  0
  2 28  1  0
  3 29  1  0
  8 30  1  0
 11 31  1  0
 11 32  1  0
 15 33  1  6
 16 34  1  0
 16 35  1  0
 16 36  1  0
 17 37  1  0
 17 38  1  0
 20 39  1  0
 21 40  1  0
 24 41  1  0
 24 42  1  0
 24 43  1  0
 25 44  1  0
 25 45  1  0
 25 46  1  0
 26 47  1  0
 26 48  1  0
 26 49  1  0
M  END
>  <Score>  (1) 
-7.04713

$$$$
