
     RDKit          3D

 38 42  0  0  0  0  0  0  0  0999 V2000
   40.0180   64.5440   65.1190 C   0  0  0  0  0  0  0  0  0  0  0  0
   40.0980   65.4850   66.1650 C   0  0  0  0  0  0  0  0  0  0  0  0
   40.6220   66.7550   65.8650 C   0  0  0  0  0  0  0  0  0  0  0  0
   41.0270   67.0170   64.5800 N   0  0  0  0  0  0  0  0  0  0  0  0
   40.9270   66.0760   63.6150 C   0  0  0  0  0  0  0  0  0  0  0  0
   40.4300   64.8560   63.8780 N   0  0  0  0  0  0  0  0  0  0  0  0
   41.3660   66.4230   62.3130 N   0  0  0  0  0  0  0  0  0  0  0  0
   41.7120   65.7450   61.1970 C   0  0  0  0  0  0  0  0  0  0  0  0
   42.0590   66.5990   60.2280 N   0  0  0  0  0  0  0  0  0  0  0  0
   41.9350   67.8540   60.7310 C   0  0  0  0  0  0  0  0  0  0  0  0
   42.1550   69.1020   60.1770 C   0  0  0  0  0  0  0  0  0  0  0  0
   42.5670   69.1100   58.9920 O   0  0  0  0  0  0  0  0  0  0  0  0
   41.9630   70.2310   60.8510 N   0  0  0  0  0  0  0  0  0  0  0  0
   41.5480   70.0900   62.1060 C   0  0  0  0  0  0  0  0  0  0  0  0
   41.2800   71.2730   62.9280 N   0  0  0  0  0  0  0  0  0  0  0  0
   41.3240   68.9190   62.6870 N   0  0  0  0  0  0  0  0  0  0  0  0
   41.4960   67.7530   62.0530 C   0  0  0  0  0  0  0  0  0  0  0  0
   42.2310   71.5790   60.5770 C   0  0  0  0  0  0  0  0  0  0  0  0
   43.4600   72.0160   60.3650 N   0  0  0  0  0  0  0  0  0  0  0  0
   43.9620   73.1990   60.1500 C   0  0  0  0  0  0  0  0  0  0  0  0
   43.1040   74.2240   60.1290 N   0  0  0  0  0  0  0  0  0  0  0  0
   41.7890   73.9810   60.3330 C   0  0  0  0  0  0  0  0  0  0  0  0
   40.9480   75.0580   60.3940 C   0  0  0  0  0  0  0  0  0  0  0  0
   39.6000   74.8670   60.7080 C   0  0  0  0  0  0  0  0  0  0  0  0
   39.2020   73.5480   60.9450 C   0  0  0  0  0  0  0  0  0  0  0  0
   40.1550   72.5750   60.8460 C   0  0  0  0  0  0  0  0  0  0  0  0
   41.4650   72.6750   60.5430 C   0  0  0  0  0  0  0  0  0  0  0  0
   39.6132   63.5413   65.3206 H   0  0  0  0  0  0  0  0  0  0  0  0
   39.7618   65.2345   67.1820 H   0  0  0  0  0  0  0  0  0  0  0  0
   40.7058   67.5248   66.6463 H   0  0  0  0  0  0  0  0  0  0  0  0
   41.7088   64.6493   61.0994 H   0  0  0  0  0  0  0  0  0  0  0  0
   40.9585   71.1625   63.9003 H   0  0  0  0  0  0  0  0  0  0  0  0
   41.4131   72.2151   62.5335 H   0  0  0  0  0  0  0  0  0  0  0  0
   45.0406   73.3473   59.9932 H   0  0  0  0  0  0  0  0  0  0  0  0
   41.3312   76.0700   60.1967 H   0  0  0  0  0  0  0  0  0  0  0  0
   38.8920   75.7069   60.7655 H   0  0  0  0  0  0  0  0  0  0  0  0
   38.1607   73.3032   61.2015 H   0  0  0  0  0  0  0  0  0  0  0  0
   39.7994   71.5530   61.0438 H   0  0  0  0  0  0  0  0  0  0  0  0
  1  2  2  0
  3  2  1  0
  4  3  2  0
  5  6  2  0
  5  4  1  0
  6  1  1  0
  7  5  1  0
  8  7  1  0
  9 10  1  0
  9  8  2  0
 10 17  2  0
 11 10  1  0
 11 13  1  0
 12 11  2  0
 13 14  1  0
 14 16  2  0
 14 15  1  0
 17  7  1  0
 17 16  1  0
 18 13  1  0
 19 18  2  0
 20 19  1  0
 21 20  2  0
 21 22  1  0
 22 23  1  0
 22 27  2  0
 23 24  2  0
 24 25  1  0
 26 25  2  0
 27 18  1  0
 27 26  1  0
  1 28  1  0
  2 29  1  0
  3 30  1  0
  8 31  1  0
 15 32  1  0
 15 33  1  0
 20 34  1  0
 23 35  1  0
 24 36  1  0
 25 37  1  0
 26 38  1  0
M  END
>  <Score>  (1) 
-8.08801

$$$$
