
     RDKit          3D

 41 45  0  0  1  0  0  0  0  0999 V2000
   40.2150   66.1820   64.5610 C   0  0  0  0  0  0  0  0  0  0  0  0
   39.8620   65.3690   63.5240 C   0  0  0  0  0  0  0  0  0  0  0  0
   40.1510   65.7960   62.2400 C   0  0  0  0  0  0  0  0  0  0  0  0
   40.7540   66.9950   62.0760 N   0  0  0  0  0  0  0  0  0  0  0  0
   41.0890   67.8000   63.1080 C   0  0  0  0  0  0  0  0  0  0  0  0
   40.8080   67.3570   64.3370 N   0  0  0  0  0  0  0  0  0  0  0  0
   41.5840   69.0830   62.8230 N   0  0  0  0  0  0  0  0  0  0  0  0
   41.7830   70.1060   63.7160 C   0  0  0  0  0  0  0  0  0  0  0  0
   42.2520   71.1940   63.0720 N   0  0  0  0  0  0  0  0  0  0  0  0
   42.3470   70.8680   61.7980 C   0  0  0  0  0  0  0  0  0  0  0  0
   42.7780   71.4720   60.6490 C   0  0  1  0  0  0  0  0  0  0  0  0
   42.6500   70.9020   59.4290 N   0  0  0  0  0  0  0  0  0  0  0  0
   42.2240   69.6240   59.3150 C   0  0  0  0  0  0  0  0  0  0  0  0
   41.8780   68.9710   60.4180 N   0  0  0  0  0  0  0  0  0  0  0  0
   41.9330   69.5560   61.6140 C   0  0  0  0  0  0  0  0  0  0  0  0
   39.9520   65.6470   65.8340 N   0  0  0  0  0  0  0  0  0  0  0  0
   40.3100   66.4880   66.8580 C   0  0  0  0  0  0  0  0  0  0  0  0
   39.9780   65.7670   68.0270 C   0  0  0  0  0  0  0  0  0  0  0  0
   39.4590   64.5760   67.6690 N   0  0  0  0  0  0  0  0  0  0  0  0
   39.4430   64.5020   66.3190 C   0  0  0  0  0  0  0  0  0  0  0  0
   38.9690   63.3590   65.5290 C   0  0  0  0  0  0  0  0  0  0  0  0
   37.5710   63.4250   65.5770 F   0  0  0  0  0  0  0  0  0  0  0  0
   39.2000   62.1180   66.0800 F   0  0  0  0  0  0  0  0  0  0  0  0
   39.3410   63.3890   64.2030 F   0  0  0  0  0  0  0  0  0  0  0  0
   42.6530   72.9250   60.5660 N   0  0  0  0  0  0  0  0  0  0  0  0
   41.3870   73.5650   60.4880 C   0  0  0  0  0  0  0  0  0  0  0  0
   41.2910   74.8370   59.8730 C   0  0  0  0  0  0  0  0  0  0  0  0
   39.4820   75.2430   60.0140 S   0  0  0  0  0  0  0  0  0  0  0  0
   39.1940   73.5870   60.8960 C   0  0  0  0  0  0  0  0  0  0  0  0
   40.2280   73.1190   60.9330 N   0  0  0  0  0  0  0  0  0  0  0  0
   39.3636   64.4049   63.7029 H   0  0  0  0  0  0  0  0  0  0  0  0
   39.8954   65.1727   61.3704 H   0  0  0  0  0  0  0  0  0  0  0  0
   41.5887   70.0471   64.7971 H   0  0  0  0  0  0  0  0  0  0  0  0
   43.8136   71.1966   60.8972 H   0  0  0  0  0  0  0  0  0  0  0  0
   42.1654   69.1363   58.3308 H   0  0  0  0  0  0  0  0  0  0  0  0
   41.5610   67.9935   60.3479 H   0  0  0  0  0  0  0  0  0  0  0  0
   40.7533   67.4921   66.7853 H   0  0  0  0  0  0  0  0  0  0  0  0
   40.1198   66.1198   69.0592 H   0  0  0  0  0  0  0  0  0  0  0  0
   43.5065   73.5016   60.5640 H   0  0  0  0  0  0  0  0  0  0  0  0
   42.0929   75.4393   59.4211 H   0  0  0  0  0  0  0  0  0  0  0  0
   38.2484   73.1773   61.2806 H   0  0  0  0  0  0  0  0  0  0  0  0
  1 16  1  0
  2  1  2  0
  3  2  1  0
  4  3  2  0
  4  5  1  0
  5  6  2  0
  6  1  1  0
  7  5  1  0
  7  8  1  0
  9  8  2  0
 10  9  1  0
 11 10  1  0
 12 11  1  0
 13 12  2  0
 13 14  1  0
 14 15  1  0
 15 10  2  0
 15  7  1  0
 16 20  1  0
 16 17  1  0
 17 18  2  0
 19 18  1  0
 20 19  2  0
 21 22  1  0
 21 23  1  0
 21 20  1  0
 24 21  1  0
 25 11  1  0
 26 25  1  0
 26 30  1  0
 27 28  1  0
 27 26  2  0
 28 29  1  0
 29 30  2  0
  2 31  1  0
  3 32  1  0
  8 33  1  0
 11 34  1  1
 13 35  1  0
 14 36  1  0
 17 37  1  0
 18 38  1  0
 25 39  1  0
 27 40  1  0
 29 41  1  0
M  END
>  <Score>  (1) 
-7.42858

$$$$
