
     RDKit          3D

 38 42  0  0  0  0  0  0  0  0999 V2000
   41.7810   66.5660   62.3300 C   0  0  0  0  0  0  0  0  0  0  0  0
   40.9600   67.0530   61.2870 C   0  0  0  0  0  0  0  0  0  0  0  0
   41.3220   66.7360   59.9680 C   0  0  0  0  0  0  0  0  0  0  0  0
   42.4320   65.9850   59.7680 N   0  0  0  0  0  0  0  0  0  0  0  0
   43.1990   65.5330   60.7820 C   0  0  0  0  0  0  0  0  0  0  0  0
   42.8560   65.8340   62.0440 N   0  0  0  0  0  0  0  0  0  0  0  0
   44.3670   64.7430   60.5840 N   0  0  0  0  0  0  0  0  0  0  0  0
   45.6420   65.1100   60.8050 C   0  0  0  0  0  0  0  0  0  0  0  0
   46.4930   64.0980   60.5050 N   0  0  0  0  0  0  0  0  0  0  0  0
   45.7440   63.0480   60.0770 C   0  0  0  0  0  0  0  0  0  0  0  0
   46.0230   61.7800   59.6450 C   0  0  0  0  0  0  0  0  0  0  0  0
   47.2360   61.3960   59.5940 O   0  0  0  0  0  0  0  0  0  0  0  0
   45.0570   60.9030   59.2620 N   0  0  0  0  0  0  0  0  0  0  0  0
   43.8060   61.3830   59.3450 C   0  0  0  0  0  0  0  0  0  0  0  0
   42.7130   60.5520   58.9710 N   0  0  0  0  0  0  0  0  0  0  0  0
   43.4580   62.6120   59.7590 N   0  0  0  0  0  0  0  0  0  0  0  0
   44.4230   63.4650   60.1320 C   0  0  0  0  0  0  0  0  0  0  0  0
   41.3890   66.9060   63.6900 C   0  0  0  0  0  0  0  0  0  0  0  0
   41.6370   68.0830   64.3830 C   0  0  0  0  0  0  0  0  0  0  0  0
   41.0950   67.9690   65.6070 N   0  0  0  0  0  0  0  0  0  0  0  0
   40.4960   66.7460   65.7370 C   0  0  0  0  0  0  0  0  0  0  0  0
   39.8020   66.1340   66.7830 C   0  0  0  0  0  0  0  0  0  0  0  0
   39.2920   64.8680   66.6400 C   0  0  0  0  0  0  0  0  0  0  0  0
   39.4700   64.1900   65.4400 C   0  0  0  0  0  0  0  0  0  0  0  0
   40.1530   64.7780   64.3950 C   0  0  0  0  0  0  0  0  0  0  0  0
   40.6750   66.0650   64.5280 C   0  0  0  0  0  0  0  0  0  0  0  0
   40.0679   67.6597   61.5017 H   0  0  0  0  0  0  0  0  0  0  0  0
   40.7194   67.0886   59.1180 H   0  0  0  0  0  0  0  0  0  0  0  0
   45.9522   66.0971   61.1784 H   0  0  0  0  0  0  0  0  0  0  0  0
   45.2677   59.9492   58.9352 H   0  0  0  0  0  0  0  0  0  0  0  0
   41.7493   60.9106   59.0310 H   0  0  0  0  0  0  0  0  0  0  0  0
   42.8856   59.5919   58.6403 H   0  0  0  0  0  0  0  0  0  0  0  0
   42.1824   68.9569   63.9971 H   0  0  0  0  0  0  0  0  0  0  0  0
   41.1258   68.6939   66.3381 H   0  0  0  0  0  0  0  0  0  0  0  0
   39.6626   66.6726   67.7319 H   0  0  0  0  0  0  0  0  0  0  0  0
   38.7464   64.3935   67.4690 H   0  0  0  0  0  0  0  0  0  0  0  0
   39.0626   63.1751   65.3221 H   0  0  0  0  0  0  0  0  0  0  0  0
   40.2867   64.2287   63.4514 H   0  0  0  0  0  0  0  0  0  0  0  0
  1 18  1  0
  2  1  2  0
  3  2  1  0
  4  3  2  0
  4  5  1  0
  5  6  2  0
  6  1  1  0
  7  5  1  0
  7  8  1  0
  9  8  2  0
 10 17  2  0
 10  9  1  0
 11 10  1  0
 12 11  2  0
 13 14  1  0
 13 11  1  0
 14 16  2  0
 15 14  1  0
 16 17  1  0
 17  7  1  0
 18 19  2  0
 18 26  1  0
 19 20  1  0
 20 21  1  0
 21 22  2  0
 23 22  1  0
 24 23  2  0
 25 26  2  0
 25 24  1  0
 26 21  1  0
  2 27  1  0
  3 28  1  0
  8 29  1  0
 13 30  1  0
 15 31  1  0
 15 32  1  0
 19 33  1  0
 20 34  1  0
 22 35  1  0
 23 36  1  0
 24 37  1  0
 25 38  1  0
M  END
>  <Score>  (1) 
-7.67683

$$$$
