
     RDKit          3D

 45 49  0  0  0  0  0  0  0  0999 V2000
   41.5330   66.3220   62.4500 C   0  0  0  0  0  0  0  0  0  0  0  0
   40.8840   67.0720   61.4570 C   0  0  0  0  0  0  0  0  0  0  0  0
   41.2490   66.8350   60.1310 C   0  0  0  0  0  0  0  0  0  0  0  0
   42.1900   65.9160   59.8550 N   0  0  0  0  0  0  0  0  0  0  0  0
   42.8090   65.1960   60.8460 C   0  0  0  0  0  0  0  0  0  0  0  0
   42.4620   65.4220   62.1050 N   0  0  0  0  0  0  0  0  0  0  0  0
   43.8020   64.2330   60.4820 N   0  0  0  0  0  0  0  0  0  0  0  0
   45.1190   64.0410   60.6900 C   0  0  0  0  0  0  0  0  0  0  0  0
   45.4950   62.9030   60.0590 N   0  0  0  0  0  0  0  0  0  0  0  0
   44.4070   62.4040   59.4670 C   0  0  0  0  0  0  0  0  0  0  0  0
   43.3600   63.2120   59.7200 N   0  0  0  0  0  0  0  0  0  0  0  0
   44.3440   61.2110   58.6910 N   0  0  0  0  0  0  0  0  0  0  0  0
   43.2700   60.2520   58.8760 C   0  0  0  0  0  0  0  0  0  0  0  0
   43.9550   58.8970   59.0590 C   0  0  0  0  0  0  0  0  0  0  0  0
   45.3280   58.9920   59.1310 O   0  0  0  0  0  0  0  0  0  0  0  0
   45.8690   59.5280   57.9590 C   0  0  0  0  0  0  0  0  0  0  0  0
   45.3580   60.9210   57.6900 C   0  0  0  0  0  0  0  0  0  0  0  0
   41.1610   66.5600   63.8380 C   0  0  0  0  0  0  0  0  0  0  0  0
   41.4330   67.7050   64.6010 C   0  0  0  0  0  0  0  0  0  0  0  0
   40.9110   67.5100   65.8330 N   0  0  0  0  0  0  0  0  0  0  0  0
   40.3120   66.2840   65.8920 C   0  0  0  0  0  0  0  0  0  0  0  0
   39.6430   65.6130   66.9020 C   0  0  0  0  0  0  0  0  0  0  0  0
   39.1180   64.3370   66.6840 C   0  0  0  0  0  0  0  0  0  0  0  0
   39.2730   63.7430   65.4390 C   0  0  0  0  0  0  0  0  0  0  0  0
   39.9410   64.4080   64.4260 C   0  0  0  0  0  0  0  0  0  0  0  0
   40.4730   65.6940   64.6380 C   0  0  0  0  0  0  0  0  0  0  0  0
   40.1173   67.8178   61.7139 H   0  0  0  0  0  0  0  0  0  0  0  0
   40.7692   67.3972   59.3163 H   0  0  0  0  0  0  0  0  0  0  0  0
   45.6859   64.8930   60.2866 H   0  0  0  0  0  0  0  0  0  0  0  0
   45.3207   63.9570   61.7681 H   0  0  0  0  0  0  0  0  0  0  0  0
   42.3939   63.0747   59.3903 H   0  0  0  0  0  0  0  0  0  0  0  0
   42.6776   60.5062   59.7673 H   0  0  0  0  0  0  0  0  0  0  0  0
   42.5782   60.2459   58.0208 H   0  0  0  0  0  0  0  0  0  0  0  0
   43.5861   58.4408   59.9895 H   0  0  0  0  0  0  0  0  0  0  0  0
   43.7138   58.2851   58.1773 H   0  0  0  0  0  0  0  0  0  0  0  0
   46.9641   59.5635   58.0566 H   0  0  0  0  0  0  0  0  0  0  0  0
   45.5665   58.8856   57.1189 H   0  0  0  0  0  0  0  0  0  0  0  0
   46.1819   61.6457   57.7680 H   0  0  0  0  0  0  0  0  0  0  0  0
   44.9360   60.9918   56.6766 H   0  0  0  0  0  0  0  0  0  0  0  0
   41.9734   68.6000   64.2589 H   0  0  0  0  0  0  0  0  0  0  0  0
   40.9580   68.1845   66.6100 H   0  0  0  0  0  0  0  0  0  0  0  0
   39.5238   66.0898   67.8861 H   0  0  0  0  0  0  0  0  0  0  0  0
   38.5876   63.8087   67.4900 H   0  0  0  0  0  0  0  0  0  0  0  0
   38.8628   62.7387   65.2568 H   0  0  0  0  0  0  0  0  0  0  0  0
   40.0577   63.9264   63.4440 H   0  0  0  0  0  0  0  0  0  0  0  0
  1 18  1  0
  2  1  2  0
  3  2  1  0
  4  3  2  0
  4  5  1  0
  5  6  2  0
  6  1  1  0
  7  8  1  0
  7  5  1  0
  9  8  1  0
 10 11  1  0
 10  9  2  0
 11  7  1  0
 12 13  1  0
 12 10  1  0
 13 14  1  0
 14 15  1  0
 16 15  1  0
 17 16  1  0
 17 12  1  0
 18 19  2  0
 18 26  1  0
 19 20  1  0
 20 21  1  0
 21 22  2  0
 23 22  1  0
 24 23  2  0
 25 26  2  0
 25 24  1  0
 26 21  1  0
  2 27  1  0
  3 28  1  0
  8 29  1  0
  8 30  1  0
 11 31  1  0
 13 32  1  0
 13 33  1  0
 14 34  1  0
 14 35  1  0
 16 36  1  0
 16 37  1  0
 17 38  1  0
 17 39  1  0
 19 40  1  0
 20 41  1  0
 22 42  1  0
 23 43  1  0
 24 44  1  0
 25 45  1  0
M  END
>  <Score>  (1) 
-7.74401

$$$$
