
     RDKit          3D

 44 48  0  0  0  0  0  0  0  0999 V2000
   41.3600   67.6610   58.4270 C   0  0  0  0  0  0  0  0  0  0  0  0
   41.6810   67.2980   59.7520 C   0  0  0  0  0  0  0  0  0  0  0  0
   41.8620   68.2260   60.7730 C   0  0  0  0  0  0  0  0  0  0  0  0
   41.6940   69.5390   60.3550 N   0  0  0  0  0  0  0  0  0  0  0  0
   41.3850   69.8850   59.0760 C   0  0  0  0  0  0  0  0  0  0  0  0
   41.2260   68.9470   58.1470 N   0  0  0  0  0  0  0  0  0  0  0  0
   42.1980   68.0770   62.1290 C   0  0  0  0  0  0  0  0  0  0  0  0
   43.5550   68.3490   62.4290 C   0  0  0  0  0  0  0  0  0  0  0  0
   44.0830   68.2560   63.7160 C   0  0  0  0  0  0  0  0  0  0  0  0
   43.2540   67.8840   64.7520 C   0  0  0  0  0  0  0  0  0  0  0  0
   41.9160   67.6050   64.5170 C   0  0  0  0  0  0  0  0  0  0  0  0
   41.0680   67.2330   65.5220 C   0  0  0  0  0  0  0  0  0  0  0  0
   39.7430   66.9500   65.3300 C   0  0  0  0  0  0  0  0  0  0  0  0
   39.3160   67.0700   64.0230 C   0  0  0  0  0  0  0  0  0  0  0  0
   40.1670   67.4460   63.0080 C   0  0  0  0  0  0  0  0  0  0  0  0
   41.4710   67.7170   63.2350 C   0  0  0  0  0  0  0  0  0  0  0  0
   41.2330   71.2960   58.7390 C   0  0  0  0  0  0  0  0  0  0  0  0
   40.2350   71.7920   57.9390 C   0  0  0  0  0  0  0  0  0  0  0  0
   40.5030   73.1680   57.9100 C   0  0  0  0  0  0  0  0  0  0  0  0
   41.6240   73.4180   58.6760 C   0  0  0  0  0  0  0  0  0  0  0  0
   42.0180   72.2510   59.1490 O   0  0  0  0  0  0  0  0  0  0  0  0
   42.3400   74.5380   59.0110 O   0  0  0  0  0  0  0  0  0  0  0  0
   41.7000   75.6730   59.5440 C   0  0  0  0  0  0  0  0  0  0  0  0
   42.3580   76.8650   59.3510 C   0  0  0  0  0  0  0  0  0  0  0  0
   41.7740   78.0070   59.8530 C   0  0  0  0  0  0  0  0  0  0  0  0
   40.5730   77.9670   60.5250 C   0  0  0  0  0  0  0  0  0  0  0  0
   39.9180   76.7750   60.7170 C   0  0  0  0  0  0  0  0  0  0  0  0
   40.4920   75.6240   60.2180 C   0  0  0  0  0  0  0  0  0  0  0  0
   41.2249   66.8959   57.6483 H   0  0  0  0  0  0  0  0  0  0  0  0
   41.7936   66.2299   59.9894 H   0  0  0  0  0  0  0  0  0  0  0  0
   44.2237   68.6476   61.6083 H   0  0  0  0  0  0  0  0  0  0  0  0
   45.1447   68.4761   63.9015 H   0  0  0  0  0  0  0  0  0  0  0  0
   43.6565   67.8078   65.7729 H   0  0  0  0  0  0  0  0  0  0  0  0
   41.4730   67.1568   66.5419 H   0  0  0  0  0  0  0  0  0  0  0  0
   39.0733   66.6514   66.1499 H   0  0  0  0  0  0  0  0  0  0  0  0
   38.2631   66.8587   63.7848 H   0  0  0  0  0  0  0  0  0  0  0  0
   39.7743   67.5280   61.9838 H   0  0  0  0  0  0  0  0  0  0  0  0
   39.4219   71.2434   57.4411 H   0  0  0  0  0  0  0  0  0  0  0  0
   39.9168   73.9236   57.3666 H   0  0  0  0  0  0  0  0  0  0  0  0
   43.3174   76.9051   58.8144 H   0  0  0  0  0  0  0  0  0  0  0  0
   42.2792   78.9741   59.7137 H   0  0  0  0  0  0  0  0  0  0  0  0
   40.1338   78.8984   60.9118 H   0  0  0  0  0  0  0  0  0  0  0  0
   38.9594   76.7390   61.2554 H   0  0  0  0  0  0  0  0  0  0  0  0
   39.9847   74.6579   60.3571 H   0  0  0  0  0  0  0  0  0  0  0  0
  1  2  2  0
  2  3  1  0
  3  7  1  0
  4  3  2  0
  5  4  1  0
  6  1  1  0
  6  5  2  0
  7  8  2  0
  7 16  1  0
  8  9  1  0
  9 10  2  0
 11 10  1  0
 11 12  2  0
 13 12  1  0
 14 13  2  0
 15 16  2  0
 15 14  1  0
 16 11  1  0
 17  5  1  0
 17 21  1  0
 18 17  2  0
 19 18  1  0
 19 20  2  0
 20 22  1  0
 20 21  1  0
 22 23  1  0
 23 28  1  0
 24 23  2  0
 24 25  1  0
 25 26  2  0
 26 27  1  0
 28 27  2  0
  1 29  1  0
  2 30  1  0
  8 31  1  0
  9 32  1  0
 10 33  1  0
 12 34  1  0
 13 35  1  0
 14 36  1  0
 15 37  1  0
 18 38  1  0
 19 39  1  0
 24 40  1  0
 25 41  1  0
 26 42  1  0
 27 43  1  0
 28 44  1  0
M  END
>  <Score>  (1) 
-7.8465

$$$$
