
     RDKit          3D

 43 47  0  0  0  0  0  0  0  0999 V2000
   41.4880   66.9450   64.0690 C   0  0  0  0  0  0  0  0  0  0  0  0
   42.5120   67.6850   64.6590 C   0  0  0  0  0  0  0  0  0  0  0  0
   43.2780   68.5730   63.9160 C   0  0  0  0  0  0  0  0  0  0  0  0
   42.9780   68.6760   62.6020 N   0  0  0  0  0  0  0  0  0  0  0  0
   41.9830   67.9500   62.0440 C   0  0  0  0  0  0  0  0  0  0  0  0
   41.2240   67.0810   62.7470 N   0  0  0  0  0  0  0  0  0  0  0  0
   40.6690   66.0160   64.8180 C   0  0  0  0  0  0  0  0  0  0  0  0
   40.3650   66.3570   66.1280 C   0  0  0  0  0  0  0  0  0  0  0  0
   39.5850   65.5390   66.9350 C   0  0  0  0  0  0  0  0  0  0  0  0
   39.1080   64.3510   66.3860 C   0  0  0  0  0  0  0  0  0  0  0  0
   39.3940   63.9860   65.0860 C   0  0  0  0  0  0  0  0  0  0  0  0
   40.1640   64.8220   64.3330 C   0  0  0  0  0  0  0  0  0  0  0  0
   41.7070   68.1050   60.6180 C   0  0  0  0  0  0  0  0  0  0  0  0
   41.4180   67.0680   59.7250 C   0  0  0  0  0  0  0  0  0  0  0  0
   41.2390   67.7170   58.5250 C   0  0  0  0  0  0  0  0  0  0  0  0
   41.4020   69.0330   58.6670 N   0  0  0  0  0  0  0  0  0  0  0  0
   41.6930   69.2990   59.9460 N   0  0  0  0  0  0  0  0  0  0  0  0
   41.2770   69.9660   57.5950 C   0  0  0  0  0  0  0  0  0  0  0  0
   41.1390   71.3090   57.8770 C   0  0  0  0  0  0  0  0  0  0  0  0
   41.0120   72.2880   56.9100 C   0  0  0  0  0  0  0  0  0  0  0  0
   41.0240   71.8990   55.5710 C   0  0  0  0  0  0  0  0  0  0  0  0
   41.1620   70.5570   55.2790 C   0  0  0  0  0  0  0  0  0  0  0  0
   41.1810   70.1010   53.9610 C   0  0  0  0  0  0  0  0  0  0  0  0
   41.3170   68.7760   53.5980 C   0  0  0  0  0  0  0  0  0  0  0  0
   41.4400   67.8420   54.6250 C   0  0  0  0  0  0  0  0  0  0  0  0
   41.4260   68.2460   55.9640 C   0  0  0  0  0  0  0  0  0  0  0  0
   41.2890   69.5850   56.2650 C   0  0  0  0  0  0  0  0  0  0  0  0
   42.7166   67.5629   65.7329 H   0  0  0  0  0  0  0  0  0  0  0  0
   44.0869   69.1621   64.3728 H   0  0  0  0  0  0  0  0  0  0  0  0
   40.7524   67.3011   66.5387 H   0  0  0  0  0  0  0  0  0  0  0  0
   39.3518   65.8198   67.9727 H   0  0  0  0  0  0  0  0  0  0  0  0
   38.4871   63.6864   67.0047 H   0  0  0  0  0  0  0  0  0  0  0  0
   39.0101   63.0438   64.6678 H   0  0  0  0  0  0  0  0  0  0  0  0
   40.3937   64.5355   63.2961 H   0  0  0  0  0  0  0  0  0  0  0  0
   41.3500   65.9899   59.9327 H   0  0  0  0  0  0  0  0  0  0  0  0
   40.9943   67.2175   57.5760 H   0  0  0  0  0  0  0  0  0  0  0  0
   41.1295   71.6187   58.9325 H   0  0  0  0  0  0  0  0  0  0  0  0
   40.9043   73.3465   57.1893 H   0  0  0  0  0  0  0  0  0  0  0  0
   40.9259   72.6434   54.7671 H   0  0  0  0  0  0  0  0  0  0  0  0
   41.0810   70.8461   53.1580 H   0  0  0  0  0  0  0  0  0  0  0  0
   41.3278   68.4700   52.5415 H   0  0  0  0  0  0  0  0  0  0  0  0
   41.5493   66.7753   54.3798 H   0  0  0  0  0  0  0  0  0  0  0  0
   41.5233   67.5030   56.7692 H   0  0  0  0  0  0  0  0  0  0  0  0
  1  2  2  0
  1  7  1  0
  3  2  1  0
  4  3  2  0
  5  4  1  0
  5  6  2  0
  6  1  1  0
  7  8  2  0
  8  9  1  0
 10  9  2  0
 11 10  1  0
 12  7  1  0
 12 11  2  0
 13  5  1  0
 14 13  1  0
 15 16  1  0
 15 14  2  0
 16 17  1  0
 17 13  2  0
 18 19  2  0
 18 16  1  0
 20 19  1  0
 21 20  2  0
 22 21  1  0
 22 27  2  0
 23 22  1  0
 24 23  2  0
 24 25  1  0
 25 26  2  0
 26 27  1  0
 27 18  1  0
  2 28  1  0
  3 29  1  0
  8 30  1  0
  9 31  1  0
 10 32  1  0
 11 33  1  0
 12 34  1  0
 14 35  1  0
 15 36  1  0
 19 37  1  0
 20 38  1  0
 21 39  1  0
 23 40  1  0
 24 41  1  0
 25 42  1  0
 26 43  1  0
M  END
>  <Score>  (1) 
-7.29853

$$$$
