
     RDKit          3D

 40 43  0  0  0  0  0  0  0  0999 V2000
   40.9260   66.1680   63.4740 C   0  0  0  0  0  0  0  0  0  0  0  0
   41.0640   67.5530   63.3940 C   0  0  0  0  0  0  0  0  0  0  0  0
   41.6470   68.1550   62.2970 C   0  0  0  0  0  0  0  0  0  0  0  0
   42.0790   67.3520   61.3000 N   0  0  0  0  0  0  0  0  0  0  0  0
   41.9450   66.0120   61.3780 C   0  0  0  0  0  0  0  0  0  0  0  0
   41.3740   65.4350   62.4560 N   0  0  0  0  0  0  0  0  0  0  0  0
   40.3290   65.5010   64.5970 C   0  0  0  0  0  0  0  0  0  0  0  0
   40.3510   66.1430   65.8170 C   0  0  0  0  0  0  0  0  0  0  0  0
   39.7830   65.5390   66.9490 C   0  0  0  0  0  0  0  0  0  0  0  0
   39.1910   64.2940   66.8720 C   0  0  0  0  0  0  0  0  0  0  0  0
   39.1650   63.6460   65.6550 C   0  0  0  0  0  0  0  0  0  0  0  0
   39.7220   64.2410   64.5500 C   0  0  0  0  0  0  0  0  0  0  0  0
   41.7880   69.5820   62.2240 C   0  0  0  0  0  0  0  0  0  0  0  0
   42.5410   70.3760   63.0780 C   0  0  0  0  0  0  0  0  0  0  0  0
   42.3950   71.6850   62.6480 C   0  0  0  0  0  0  0  0  0  0  0  0
   41.5600   71.6060   61.5550 C   0  0  0  0  0  0  0  0  0  0  0  0
   41.2320   70.3600   61.3470 O   0  0  0  0  0  0  0  0  0  0  0  0
   40.1560   74.9170   59.3000 C   0  0  0  0  0  0  0  0  0  0  0  0
   39.7690   74.7320   60.6140 C   0  0  0  0  0  0  0  0  0  0  0  0
   40.2450   73.6520   61.3030 C   0  0  0  0  0  0  0  0  0  0  0  0
   41.1010   72.7300   60.7440 C   0  0  0  0  0  0  0  0  0  0  0  0
   41.4870   72.9080   59.4440 C   0  0  0  0  0  0  0  0  0  0  0  0
   41.0100   74.0040   58.7290 C   0  0  0  0  0  0  0  0  0  0  0  0
   39.5350   76.3130   58.4250 S   0  0  0  0  0  0  0  0  0  0  0  0
   38.1150   76.0580   58.0110 O   0  0  0  0  0  0  0  0  0  0  0  0
   39.5370   77.5170   59.3100 O   0  0  0  0  0  0  0  0  0  0  0  0
   40.7008   68.1791   64.2223 H   0  0  0  0  0  0  0  0  0  0  0  0
   42.3059   65.3814   60.5521 H   0  0  0  0  0  0  0  0  0  0  0  0
   40.8171   67.1356   65.9035 H   0  0  0  0  0  0  0  0  0  0  0  0
   39.8098   66.0663   67.9140 H   0  0  0  0  0  0  0  0  0  0  0  0
   38.7484   63.8278   67.7646 H   0  0  0  0  0  0  0  0  0  0  0  0
   38.6985   62.6535   65.5696 H   0  0  0  0  0  0  0  0  0  0  0  0
   39.6898   63.7059   63.5895 H   0  0  0  0  0  0  0  0  0  0  0  0
   43.1400   70.0314   63.9338 H   0  0  0  0  0  0  0  0  0  0  0  0
   42.8465   72.5886   63.0835 H   0  0  0  0  0  0  0  0  0  0  0  0
   39.0864   75.4452   61.0991 H   0  0  0  0  0  0  0  0  0  0  0  0
   39.9310   73.5136   62.3481 H   0  0  0  0  0  0  0  0  0  0  0  0
   42.1699   72.1901   58.9662 H   0  0  0  0  0  0  0  0  0  0  0  0
   41.3239   74.1420   57.6838 H   0  0  0  0  0  0  0  0  0  0  0  0
   40.3316   76.5243   57.3306 H   0  0  0  0  0  0  0  0  0  0  0  0
  1  7  1  0
  2  1  2  0
  3  2  1  0
  4  5  1  0
  4  3  2  0
  5  6  2  0
  6  1  1  0
  7  8  2  0
  8  9  1  0
 10  9  2  0
 11 10  1  0
 12  7  1  0
 12 11  2  0
 13  3  1  0
 13 14  2  0
 15 14  1  0
 16 15  2  0
 17 16  1  0
 17 13  1  0
 18 19  2  0
 19 20  1  0
 21 20  2  0
 21 16  1  0
 22 21  1  0
 23 18  1  0
 23 22  2  0
 24 18  1  0
 24 26  2  0
 25 24  2  0
  2 27  1  0
  5 28  1  0
  8 29  1  0
  9 30  1  0
 10 31  1  0
 11 32  1  0
 12 33  1  0
 14 34  1  0
 15 35  1  0
 19 36  1  0
 20 37  1  0
 22 38  1  0
 23 39  1  0
 24 40  1  0
M  END
>  <Score>  (1) 
-7.68684

$$$$
