
     RDKit          3D

 54 58  0  0  0  0  0  0  0  0999 V2000
   41.3060   67.6620   58.4560 C   0  0  0  0  0  0  0  0  0  0  0  0
   41.6050   67.2830   59.7800 C   0  0  0  0  0  0  0  0  0  0  0  0
   41.8490   68.2210   60.7980 C   0  0  0  0  0  0  0  0  0  0  0  0
   41.7670   69.5260   60.3600 N   0  0  0  0  0  0  0  0  0  0  0  0
   41.4770   69.8770   59.0780 C   0  0  0  0  0  0  0  0  0  0  0  0
   41.2550   68.9500   58.1610 N   0  0  0  0  0  0  0  0  0  0  0  0
   42.1770   68.0470   62.1510 C   0  0  0  0  0  0  0  0  0  0  0  0
   43.5310   68.3340   62.4580 C   0  0  0  0  0  0  0  0  0  0  0  0
   44.0530   68.2220   63.7460 C   0  0  0  0  0  0  0  0  0  0  0  0
   43.2320   67.8170   64.7700 C   0  0  0  0  0  0  0  0  0  0  0  0
   41.9150   67.5300   64.5130 C   0  0  0  0  0  0  0  0  0  0  0  0
   41.0510   67.1180   65.5140 C   0  0  0  0  0  0  0  0  0  0  0  0
   39.7300   66.8190   65.3140 C   0  0  0  0  0  0  0  0  0  0  0  0
   39.3010   66.9580   64.0060 C   0  0  0  0  0  0  0  0  0  0  0  0
   40.1630   67.3690   63.0060 C   0  0  0  0  0  0  0  0  0  0  0  0
   41.4610   67.6540   63.2500 C   0  0  0  0  0  0  0  0  0  0  0  0
   41.4110   71.2950   58.6910 C   0  0  0  0  0  0  0  0  0  0  0  0
   40.0350   71.8520   58.7090 C   0  0  0  0  0  0  0  0  0  0  0  0
   40.0970   73.2030   59.3330 C   0  0  0  0  0  0  0  0  0  0  0  0
   39.8290   73.5720   60.6580 C   0  0  0  0  0  0  0  0  0  0  0  0
   40.0330   74.9450   60.7260 C   0  0  0  0  0  0  0  0  0  0  0  0
   40.4100   75.3410   59.4560 C   0  0  0  0  0  0  0  0  0  0  0  0
   40.4320   74.3010   58.6950 O   0  0  0  0  0  0  0  0  0  0  0  0
   40.7200   76.6770   59.0740 N   0  0  0  0  0  0  0  0  0  0  0  0
   39.8890   77.4470   58.1800 C   0  0  0  0  0  0  0  0  0  0  0  0
   39.5900   78.8190   58.6720 C   0  0  0  0  0  0  0  0  0  0  0  0
   40.4470   79.3740   59.7360 C   0  0  0  0  0  0  0  0  0  0  0  0
   41.4080   78.4810   60.4120 C   0  0  0  0  0  0  0  0  0  0  0  0
   41.9150   77.3200   59.5910 C   0  0  0  0  0  0  0  0  0  0  0  0
   41.1188   66.9017   57.6835 H   0  0  0  0  0  0  0  0  0  0  0  0
   41.6491   66.2118   60.0263 H   0  0  0  0  0  0  0  0  0  0  0  0
   44.1979   68.6588   61.6457 H   0  0  0  0  0  0  0  0  0  0  0  0
   45.1103   68.4553   63.9399 H   0  0  0  0  0  0  0  0  0  0  0  0
   43.6286   67.7231   65.7917 H   0  0  0  0  0  0  0  0  0  0  0  0
   41.4515   67.0251   66.5343 H   0  0  0  0  0  0  0  0  0  0  0  0
   39.0639   66.4946   66.1271 H   0  0  0  0  0  0  0  0  0  0  0  0
   38.2527   66.7370   63.7565 H   0  0  0  0  0  0  0  0  0  0  0  0
   39.7799   67.4670   61.9795 H   0  0  0  0  0  0  0  0  0  0  0  0
   41.8142   71.3968   57.6726 H   0  0  0  0  0  0  0  0  0  0  0  0
   41.9974   71.8592   59.4311 H   0  0  0  0  0  0  0  0  0  0  0  0
   39.6506   71.9320   57.6815 H   0  0  0  0  0  0  0  0  0  0  0  0
   39.3630   71.1956   59.2814 H   0  0  0  0  0  0  0  0  0  0  0  0
   39.5195   72.9085   61.4790 H   0  0  0  0  0  0  0  0  0  0  0  0
   39.9178   75.5872   61.6116 H   0  0  0  0  0  0  0  0  0  0  0  0
   38.9375   76.9122   58.0437 H   0  0  0  0  0  0  0  0  0  0  0  0
   40.4474   77.5582   57.2388 H   0  0  0  0  0  0  0  0  0  0  0  0
   39.6581   79.4981   57.8093 H   0  0  0  0  0  0  0  0  0  0  0  0
   38.5959   78.7346   59.1353 H   0  0  0  0  0  0  0  0  0  0  0  0
   41.0273   80.1946   59.2889 H   0  0  0  0  0  0  0  0  0  0  0  0
   39.7388   79.6531   60.5300 H   0  0  0  0  0  0  0  0  0  0  0  0
   42.2760   79.0856   60.7137 H   0  0  0  0  0  0  0  0  0  0  0  0
   40.8595   78.0344   61.2544 H   0  0  0  0  0  0  0  0  0  0  0  0
   42.4883   76.6228   60.2196 H   0  0  0  0  0  0  0  0  0  0  0  0
   42.5906   77.6459   58.7864 H   0  0  0  0  0  0  0  0  0  0  0  0
  1  2  2  0
  2  3  1  0
  3  7  1  0
  4  3  2  0
  5  4  1  0
  6  1  1  0
  6  5  2  0
  7  8  2  0
  7 16  1  0
  8  9  1  0
  9 10  2  0
 11 10  1  0
 11 12  2  0
 13 12  1  0
 14 13  2  0
 15 16  2  0
 15 14  1  0
 16 11  1  0
 17 18  1  0
 17  5  1  0
 18 19  1  0
 19 20  2  0
 20 21  1  0
 22 21  2  0
 23 19  1  0
 23 22  1  0
 24 22  1  0
 24 29  1  0
 25 26  1  0
 25 24  1  0
 26 27  1  0
 27 28  1  0
 29 28  1  0
  1 30  1  0
  2 31  1  0
  8 32  1  0
  9 33  1  0
 10 34  1  0
 12 35  1  0
 13 36  1  0
 14 37  1  0
 15 38  1  0
 17 39  1  0
 17 40  1  0
 18 41  1  0
 18 42  1  0
 20 43  1  0
 21 44  1  0
 25 45  1  0
 25 46  1  0
 26 47  1  0
 26 48  1  0
 27 49  1  0
 27 50  1  0
 28 51  1  0
 28 52  1  0
 29 53  1  0
 29 54  1  0
M  END
>  <Score>  (1) 
-7.90141

$$$$
