
     RDKit          3D

 39 43  0  0  0  0  0  0  0  0999 V2000
   41.5240   66.2770   62.4540 C   0  0  0  0  0  0  0  0  0  0  0  0
   40.8600   67.0330   61.4650 C   0  0  0  0  0  0  0  0  0  0  0  0
   41.2240   66.8090   60.1320 C   0  0  0  0  0  0  0  0  0  0  0  0
   42.1750   65.8970   59.8530 N   0  0  0  0  0  0  0  0  0  0  0  0
   42.7970   65.1820   60.8330 C   0  0  0  0  0  0  0  0  0  0  0  0
   42.4530   65.3930   62.1060 N   0  0  0  0  0  0  0  0  0  0  0  0
   43.7970   64.2300   60.4690 N   0  0  0  0  0  0  0  0  0  0  0  0
   45.1170   64.0370   60.6680 C   0  0  0  0  0  0  0  0  0  0  0  0
   45.4980   62.9170   60.0450 N   0  0  0  0  0  0  0  0  0  0  0  0
   44.4160   62.3910   59.4440 C   0  0  0  0  0  0  0  0  0  0  0  0
   43.3720   63.2110   59.7120 N   0  0  0  0  0  0  0  0  0  0  0  0
   41.1450   66.5110   63.8390 C   0  0  0  0  0  0  0  0  0  0  0  0
   41.4190   67.6520   64.6090 C   0  0  0  0  0  0  0  0  0  0  0  0
   40.8890   67.4500   65.8340 N   0  0  0  0  0  0  0  0  0  0  0  0
   40.2790   66.2180   65.8880 C   0  0  0  0  0  0  0  0  0  0  0  0
   39.6080   65.5600   66.8950 C   0  0  0  0  0  0  0  0  0  0  0  0
   39.0790   64.2830   66.6580 C   0  0  0  0  0  0  0  0  0  0  0  0
   39.2390   63.6920   65.4070 C   0  0  0  0  0  0  0  0  0  0  0  0
   39.9150   64.3660   64.4080 C   0  0  0  0  0  0  0  0  0  0  0  0
   40.4450   65.6330   64.6280 C   0  0  0  0  0  0  0  0  0  0  0  0
   44.3210   61.1710   58.6400 C   0  0  0  0  0  0  0  0  0  0  0  0
   44.4680   61.2340   57.2810 C   0  0  0  0  0  0  0  0  0  0  0  0
   44.3290   59.9420   56.8080 C   0  0  0  0  0  0  0  0  0  0  0  0
   44.1010   59.1490   57.9170 C   0  0  0  0  0  0  0  0  0  0  0  0
   44.1080   59.9230   58.9580 O   0  0  0  0  0  0  0  0  0  0  0  0
   40.0870   67.7691   61.7308 H   0  0  0  0  0  0  0  0  0  0  0  0
   40.7385   67.3718   59.3211 H   0  0  0  0  0  0  0  0  0  0  0  0
   45.6786   64.8919   60.2634 H   0  0  0  0  0  0  0  0  0  0  0  0
   45.3181   63.9463   61.7456 H   0  0  0  0  0  0  0  0  0  0  0  0
   42.4050   63.0726   59.3854 H   0  0  0  0  0  0  0  0  0  0  0  0
   41.9653   68.5466   64.2755 H   0  0  0  0  0  0  0  0  0  0  0  0
   40.9346   68.1205   66.6145 H   0  0  0  0  0  0  0  0  0  0  0  0
   39.4876   66.0339   67.8804 H   0  0  0  0  0  0  0  0  0  0  0  0
   38.5405   63.7509   67.4560 H   0  0  0  0  0  0  0  0  0  0  0  0
   38.8278   62.6901   65.2145 H   0  0  0  0  0  0  0  0  0  0  0  0
   40.0360   63.8927   63.4224 H   0  0  0  0  0  0  0  0  0  0  0  0
   44.6594   62.1363   56.6817 H   0  0  0  0  0  0  0  0  0  0  0  0
   44.3880   59.6119   55.7604 H   0  0  0  0  0  0  0  0  0  0  0  0
   43.9426   58.0605   57.9168 H   0  0  0  0  0  0  0  0  0  0  0  0
  1 12  1  0
  2  1  2  0
  3  2  1  0
  4  3  2  0
  4  5  1  0
  5  6  2  0
  6  1  1  0
  7  8  1  0
  7  5  1  0
  9  8  1  0
 10 11  1  0
 10  9  2  0
 11  7  1  0
 12 13  2  0
 12 20  1  0
 13 14  1  0
 14 15  1  0
 15 16  2  0
 17 16  1  0
 18 17  2  0
 19 20  2  0
 19 18  1  0
 20 15  1  0
 21 25  1  0
 21 10  1  0
 22 21  2  0
 23 22  1  0
 23 24  2  0
 24 25  1  0
  2 26  1  0
  3 27  1  0
  8 28  1  0
  8 29  1  0
 11 30  1  0
 13 31  1  0
 14 32  1  0
 16 33  1  0
 17 34  1  0
 18 35  1  0
 19 36  1  0
 22 37  1  0
 23 38  1  0
 24 39  1  0
M  END
>  <Score>  (1) 
-7.43765

$$$$
