
     RDKit          3D

 43 46  0  0  0  0  0  0  0  0999 V2000
   41.3010   67.6310   58.4480 C   0  0  0  0  0  0  0  0  0  0  0  0
   41.5850   67.2570   59.7760 C   0  0  0  0  0  0  0  0  0  0  0  0
   41.8430   68.1850   60.7820 C   0  0  0  0  0  0  0  0  0  0  0  0
   41.7900   69.4850   60.3350 N   0  0  0  0  0  0  0  0  0  0  0  0
   41.5190   69.8460   59.0640 C   0  0  0  0  0  0  0  0  0  0  0  0
   41.2820   68.9200   58.1480 N   0  0  0  0  0  0  0  0  0  0  0  0
   42.1710   68.0230   62.1440 C   0  0  0  0  0  0  0  0  0  0  0  0
   43.5210   68.3160   62.4610 C   0  0  0  0  0  0  0  0  0  0  0  0
   44.0460   68.2190   63.7420 C   0  0  0  0  0  0  0  0  0  0  0  0
   43.2190   67.8160   64.7700 C   0  0  0  0  0  0  0  0  0  0  0  0
   41.8940   67.5170   64.5260 C   0  0  0  0  0  0  0  0  0  0  0  0
   41.0480   67.1140   65.5260 C   0  0  0  0  0  0  0  0  0  0  0  0
   39.7150   66.8060   65.3120 C   0  0  0  0  0  0  0  0  0  0  0  0
   39.2870   66.9340   64.0040 C   0  0  0  0  0  0  0  0  0  0  0  0
   40.1560   67.3410   63.0090 C   0  0  0  0  0  0  0  0  0  0  0  0
   41.4570   67.6400   63.2310 C   0  0  0  0  0  0  0  0  0  0  0  0
   41.4820   71.2660   58.6660 C   0  0  0  0  0  0  0  0  0  0  0  0
   40.1040   71.7800   58.4230 C   0  0  0  0  0  0  0  0  0  0  0  0
   39.7200   72.8470   59.3160 N   0  0  0  0  0  0  0  0  0  0  0  0
   40.4840   73.0030   60.4120 C   0  0  0  0  0  0  0  0  0  0  0  0
   40.1390   74.0130   61.2780 C   0  0  0  0  0  0  0  0  0  0  0  0
   39.0410   74.7620   60.9250 C   0  0  0  0  0  0  0  0  0  0  0  0
   38.5970   75.8280   61.7430 N   0  0  0  0  0  0  0  0  0  0  0  0
   38.2940   74.5660   59.8000 N   0  0  0  0  0  0  0  0  0  0  0  0
   38.6440   73.5620   58.9470 C   0  0  0  0  0  0  0  0  0  0  0  0
   38.0180   73.3080   57.8900 O   0  0  0  0  0  0  0  0  0  0  0  0
   41.0999   66.8705   57.6791 H   0  0  0  0  0  0  0  0  0  0  0  0
   41.6038   66.1867   60.0292 H   0  0  0  0  0  0  0  0  0  0  0  0
   44.1885   68.6376   61.6480 H   0  0  0  0  0  0  0  0  0  0  0  0
   45.1022   68.4590   63.9341 H   0  0  0  0  0  0  0  0  0  0  0  0
   43.6185   67.7324   65.7915 H   0  0  0  0  0  0  0  0  0  0  0  0
   41.4470   67.0312   66.5477 H   0  0  0  0  0  0  0  0  0  0  0  0
   39.0460   66.4832   66.1233 H   0  0  0  0  0  0  0  0  0  0  0  0
   38.2404   66.7089   63.7513 H   0  0  0  0  0  0  0  0  0  0  0  0
   39.7696   67.4263   61.9826 H   0  0  0  0  0  0  0  0  0  0  0  0
   41.9404   71.8642   59.4673 H   0  0  0  0  0  0  0  0  0  0  0  0
   42.0307   71.3501   57.7163 H   0  0  0  0  0  0  0  0  0  0  0  0
   40.0495   72.1543   57.3901 H   0  0  0  0  0  0  0  0  0  0  0  0
   39.4115   70.9443   58.6020 H   0  0  0  0  0  0  0  0  0  0  0  0
   41.3477   72.3503   60.6068 H   0  0  0  0  0  0  0  0  0  0  0  0
   40.7074   74.2105   62.1988 H   0  0  0  0  0  0  0  0  0  0  0  0
   37.7731   76.3807   61.4664 H   0  0  0  0  0  0  0  0  0  0  0  0
   39.0978   76.0511   62.6150 H   0  0  0  0  0  0  0  0  0  0  0  0
  1  2  2  0
  2  3  1  0
  3  7  1  0
  4  3  2  0
  5  4  1  0
  6  1  1  0
  6  5  2  0
  7  8  2  0
  7 16  1  0
  8  9  1  0
  9 10  2  0
 11 10  1  0
 11 12  2  0
 13 12  1  0
 14 13  2  0
 15 16  2  0
 15 14  1  0
 16 11  1  0
 17  5  1  0
 18 17  1  0
 18 19  1  0
 19 20  1  0
 20 21  2  0
 22 21  1  0
 22 23  1  0
 24 22  2  0
 25 19  1  0
 25 24  1  0
 26 25  2  0
  1 27  1  0
  2 28  1  0
  8 29  1  0
  9 30  1  0
 10 31  1  0
 12 32  1  0
 13 33  1  0
 14 34  1  0
 15 35  1  0
 17 36  1  0
 17 37  1  0
 18 38  1  0
 18 39  1  0
 20 40  1  0
 21 41  1  0
 23 42  1  0
 23 43  1  0
M  END
>  <Score>  (1) 
-7.60558

$$$$
