
     RDKit          3D

 46 50  0  0  0  0  0  0  0  0999 V2000
   41.7630   67.7770   58.4230 C   0  0  0  0  0  0  0  0  0  0  0  0
   42.0550   67.3660   59.7360 C   0  0  0  0  0  0  0  0  0  0  0  0
   42.0260   68.2310   60.8220 C   0  0  0  0  0  0  0  0  0  0  0  0
   41.6830   69.5190   60.4690 N   0  0  0  0  0  0  0  0  0  0  0  0
   41.4020   69.9160   59.2130 C   0  0  0  0  0  0  0  0  0  0  0  0
   41.4460   69.0520   58.2210 N   0  0  0  0  0  0  0  0  0  0  0  0
   42.3030   68.0330   62.1930 C   0  0  0  0  0  0  0  0  0  0  0  0
   43.6360   68.2900   62.5720 C   0  0  0  0  0  0  0  0  0  0  0  0
   44.1180   68.1590   63.8660 C   0  0  0  0  0  0  0  0  0  0  0  0
   43.2350   67.7490   64.8530 C   0  0  0  0  0  0  0  0  0  0  0  0
   41.9170   67.4810   64.5480 C   0  0  0  0  0  0  0  0  0  0  0  0
   41.0300   67.0750   65.5010 C   0  0  0  0  0  0  0  0  0  0  0  0
   39.7070   66.7970   65.2430 C   0  0  0  0  0  0  0  0  0  0  0  0
   39.3280   66.9600   63.9190 C   0  0  0  0  0  0  0  0  0  0  0  0
   40.2310   67.3700   62.9620 C   0  0  0  0  0  0  0  0  0  0  0  0
   41.5420   67.6380   63.2540 C   0  0  0  0  0  0  0  0  0  0  0  0
   41.0520   71.3100   58.9600 C   0  0  0  0  0  0  0  0  0  0  0  0
   40.7490   71.8200   57.7040 C   0  0  0  0  0  0  0  0  0  0  0  0
   40.4840   73.1650   57.9490 C   0  0  0  0  0  0  0  0  0  0  0  0
   40.6370   73.4060   59.3190 C   0  0  0  0  0  0  0  0  0  0  0  0
   40.9790   72.2440   59.8600 O   0  0  0  0  0  0  0  0  0  0  0  0
   40.4520   74.6640   59.9570 N   0  0  0  0  0  0  0  0  0  0  0  0
   41.2380   75.6840   59.5880 C   0  0  0  0  0  0  0  0  0  0  0  0
   41.0700   76.9130   60.1980 C   0  0  0  0  0  0  0  0  0  0  0  0
   41.8820   78.1140   59.8710 C   0  0  0  0  0  0  0  0  0  0  0  0
   40.0770   76.9650   61.1570 C   0  0  0  0  0  0  0  0  0  0  0  0
   39.8940   78.0680   61.7350 O   0  0  0  0  0  0  0  0  0  0  0  0
   39.2810   75.9360   61.5320 N   0  0  0  0  0  0  0  0  0  0  0  0
   39.4920   74.7480   60.8960 C   0  0  0  0  0  0  0  0  0  0  0  0
   38.7490   73.8170   61.2580 O   0  0  0  0  0  0  0  0  0  0  0  0
   41.7960   67.0633   57.5866 H   0  0  0  0  0  0  0  0  0  0  0  0
   42.3181   66.3123   59.9105 H   0  0  0  0  0  0  0  0  0  0  0  0
   44.3393   68.6154   61.7913 H   0  0  0  0  0  0  0  0  0  0  0  0
   45.1705   68.3742   64.1023 H   0  0  0  0  0  0  0  0  0  0  0  0
   43.5887   67.6365   65.8885 H   0  0  0  0  0  0  0  0  0  0  0  0
   41.3922   66.9635   66.5336 H   0  0  0  0  0  0  0  0  0  0  0  0
   39.0056   66.4712   66.0252 H   0  0  0  0  0  0  0  0  0  0  0  0
   38.2868   66.7582   63.6271 H   0  0  0  0  0  0  0  0  0  0  0  0
   39.8857   67.4864   61.9241 H   0  0  0  0  0  0  0  0  0  0  0  0
   40.7242   71.2869   56.7421 H   0  0  0  0  0  0  0  0  0  0  0  0
   40.2018   73.9123   57.1928 H   0  0  0  0  0  0  0  0  0  0  0  0
   42.0051   75.5458   58.8118 H   0  0  0  0  0  0  0  0  0  0  0  0
   42.2101   78.5993   60.8020 H   0  0  0  0  0  0  0  0  0  0  0  0
   42.7625   77.8127   59.2845 H   0  0  0  0  0  0  0  0  0  0  0  0
   41.2744   78.8188   59.2845 H   0  0  0  0  0  0  0  0  0  0  0  0
   38.5570   76.0442   62.2566 H   0  0  0  0  0  0  0  0  0  0  0  0
  1  2  2  0
  2  3  1  0
  3  7  1  0
  4  3  2  0
  5  4  1  0
  6  1  1  0
  6  5  2  0
  7  8  2  0
  7 16  1  0
  8  9  1  0
  9 10  2  0
 11 10  1  0
 11 12  2  0
 13 12  1  0
 14 13  2  0
 15 16  2  0
 15 14  1  0
 16 11  1  0
 17  5  1  0
 17 21  1  0
 18 19  1  0
 18 17  2  0
 19 20  2  0
 20 21  1  0
 20 22  1  0
 22 29  1  0
 23 22  1  0
 23 24  2  0
 24 26  1  0
 25 24  1  0
 26 28  1  0
 26 27  2  0
 29 30  2  0
 29 28  1  0
  1 31  1  0
  2 32  1  0
  8 33  1  0
  9 34  1  0
 10 35  1  0
 12 36  1  0
 13 37  1  0
 14 38  1  0
 15 39  1  0
 18 40  1  0
 19 41  1  0
 23 42  1  0
 25 43  1  0
 25 44  1  0
 25 45  1  0
 28 46  1  0
M  END
>  <Score>  (1) 
-8.53878

$$$$
