
     RDKit          3D

 40 43  0  0  0  0  0  0  0  0999 V2000
   42.2130   68.9910   61.5660 N   0  0  0  0  0  0  0  0  0  0  0  0
   41.9500   70.2070   62.0140 C   0  0  0  0  0  0  0  0  0  0  0  0
   42.6230   71.2890   61.4590 C   0  0  0  0  0  0  0  0  0  0  0  0
   43.5180   71.0550   60.4830 C   0  0  0  0  0  0  0  0  0  0  0  0
   44.1210   72.0400   59.9870 O   0  0  0  0  0  0  0  0  0  0  0  0
   43.7320   69.7800   60.0790 N   0  0  0  0  0  0  0  0  0  0  0  0
   43.0770   68.7250   60.6200 C   0  0  0  0  0  0  0  0  0  0  0  0
   43.3570   67.5790   60.1600 O   0  0  0  0  0  0  0  0  0  0  0  0
   40.4730   66.0740   63.7360 C   0  0  0  0  0  0  0  0  0  0  0  0
   40.1880   65.9820   62.4100 C   0  0  0  0  0  0  0  0  0  0  0  0
   40.7260   66.9200   61.5860 C   0  0  0  0  0  0  0  0  0  0  0  0
   41.5090   67.8780   62.1470 C   0  0  0  0  0  0  0  0  0  0  0  0
   41.5220   67.4830   63.9430 S   0  0  0  0  0  0  0  0  0  0  0  0
   40.0140   65.1890   64.8050 C   0  0  0  0  0  0  0  0  0  0  0  0
   40.0390   65.5590   66.1530 C   0  0  0  0  0  0  0  0  0  0  0  0
   39.5770   64.6420   67.0880 C   0  0  0  0  0  0  0  0  0  0  0  0
   39.1230   63.4260   66.6410 N   0  0  0  0  0  0  0  0  0  0  0  0
   39.1110   63.0980   65.3400 C   0  0  0  0  0  0  0  0  0  0  0  0
   39.5590   63.9970   64.4720 N   0  0  0  0  0  0  0  0  0  0  0  0
   38.6410   61.8360   64.8940 N   0  0  0  0  0  0  0  0  0  0  0  0
   42.2660   72.6310   62.0440 C   0  0  0  0  0  0  0  0  0  0  0  0
   41.1250   73.2510   61.3720 C   0  0  0  0  0  0  0  0  0  0  0  0
   39.7800   73.1100   61.5900 C   0  0  0  0  0  0  0  0  0  0  0  0
   38.8190   73.7700   60.8590 C   0  0  0  0  0  0  0  0  0  0  0  0
   39.2580   74.5890   59.8860 N   0  0  0  0  0  0  0  0  0  0  0  0
   40.5620   74.7630   59.6320 C   0  0  0  0  0  0  0  0  0  0  0  0
   41.4730   74.1030   60.3640 N   0  0  0  0  0  0  0  0  0  0  0  0
   41.2101   70.3598   62.8135 H   0  0  0  0  0  0  0  0  0  0  0  0
   44.4192   69.6060   59.3317 H   0  0  0  0  0  0  0  0  0  0  0  0
   39.5463   65.1789   62.0185 H   0  0  0  0  0  0  0  0  0  0  0  0
   40.5340   66.9038   60.5030 H   0  0  0  0  0  0  0  0  0  0  0  0
   40.4130   66.5458   66.4634 H   0  0  0  0  0  0  0  0  0  0  0  0
   39.5749   64.8842   68.1610 H   0  0  0  0  0  0  0  0  0  0  0  0
   38.6434   61.6114   63.8888 H   0  0  0  0  0  0  0  0  0  0  0  0
   38.2973   61.1443   65.5754 H   0  0  0  0  0  0  0  0  0  0  0  0
   42.0187   72.4973   63.1075 H   0  0  0  0  0  0  0  0  0  0  0  0
   43.1330   73.2946   61.9098 H   0  0  0  0  0  0  0  0  0  0  0  0
   39.4506   72.4331   62.3921 H   0  0  0  0  0  0  0  0  0  0  0  0
   37.7460   73.6348   61.0600 H   0  0  0  0  0  0  0  0  0  0  0  0
   40.8838   75.4423   58.8289 H   0  0  0  0  0  0  0  0  0  0  0  0
  1  2  1  0
  1 12  1  0
  3  2  2  0
  3 21  1  0
  4  3  1  0
  5  4  2  0
  6  4  1  0
  6  7  1  0
  7  1  1  0
  8  7  2  0
  9 13  1  0
  9 14  1  0
 10  9  2  0
 11 12  2  0
 11 10  1  0
 12 13  1  0
 14 15  2  0
 15 16  1  0
 17 16  2  0
 18 17  1  0
 19 14  1  0
 19 18  2  0
 20 18  1  0
 22 23  2  0
 22 21  1  0
 24 23  1  0
 25 24  2  0
 26 25  1  0
 26 27  2  0
 27 22  1  0
  2 28  1  0
  6 29  1  0
 10 30  1  0
 11 31  1  0
 15 32  1  0
 16 33  1  0
 20 34  1  0
 20 35  1  0
 21 36  1  0
 21 37  1  0
 23 38  1  0
 24 39  1  0
 26 40  1  0
M  END
>  <Score>  (1) 
-7.58639

$$$$
