
     RDKit          3D

 43 47  0  0  1  0  0  0  0  0999 V2000
   41.3900   66.5360   62.4010 C   0  0  0  0  0  0  0  0  0  0  0  0
   42.2260   65.4750   62.0620 C   0  0  0  0  0  0  0  0  0  0  0  0
   42.5700   65.3880   60.6960 C   0  0  0  0  0  0  0  0  0  0  0  0
   42.0850   66.3060   59.8150 N   0  0  0  0  0  0  0  0  0  0  0  0
   41.2850   67.3050   60.1890 C   0  0  0  0  0  0  0  0  0  0  0  0
   40.9730   67.3760   61.4670 N   0  0  0  0  0  0  0  0  0  0  0  0
   43.2480   64.3130   60.0510 C   0  0  2  0  0  0  0  0  0  0  0  0
   43.8390   63.3740   59.4870 N   0  0  0  0  0  0  0  0  0  0  0  0
   44.3490   62.4380   58.8860 C   0  0  0  0  0  0  0  0  0  0  0  0
   45.5040   62.5400   59.5530 N   0  0  0  0  0  0  0  0  0  0  0  0
   45.6450   63.5160   60.5070 C   0  0  0  0  0  0  0  0  0  0  0  0
   46.9300   63.5490   61.0740 C   0  0  0  0  0  0  0  0  0  0  0  0
   47.1570   64.5550   61.9730 C   0  0  0  0  0  0  0  0  0  0  0  0
   46.2500   65.5130   62.3550 C   0  0  0  0  0  0  0  0  0  0  0  0
   45.0360   65.3170   61.6910 C   0  0  0  0  0  0  0  0  0  0  0  0
   44.5360   64.3750   60.7370 C   0  0  0  0  0  0  0  0  0  0  0  0
   41.0060   66.6800   63.7830 N   0  0  0  0  0  0  0  0  0  0  0  0
   41.2420   67.7610   64.5710 C   0  0  0  0  0  0  0  0  0  0  0  0
   40.7320   67.4650   65.7900 N   0  0  0  0  0  0  0  0  0  0  0  0
   40.2040   66.2580   65.7610 C   0  0  0  0  0  0  0  0  0  0  0  0
   39.5600   65.4320   66.6580 C   0  0  2  0  0  0  0  0  0  0  0  0
   39.1230   64.2020   66.2920 N   0  0  0  0  0  0  0  0  0  0  0  0
   39.3020   63.7290   65.0350 C   0  0  0  0  0  0  0  0  0  0  0  0
   39.9300   64.5130   64.1380 N   0  0  0  0  0  0  0  0  0  0  0  0
   40.3650   65.7270   64.4810 C   0  0  0  0  0  0  0  0  0  0  0  0
   39.4060   65.9370   67.9680 N   0  0  0  0  0  0  0  0  0  0  0  0
   42.5930   64.7543   62.8076 H   0  0  0  0  0  0  0  0  0  0  0  0
   40.9025   68.0373   59.4628 H   0  0  0  0  0  0  0  0  0  0  0  0
   43.6223   65.0085   59.2854 H   0  0  0  0  0  0  0  0  0  0  0  0
   44.6179   63.9945   59.2241 H   0  0  0  0  0  0  0  0  0  0  0  0
   43.8331   61.4806   59.0511 H   0  0  0  0  0  0  0  0  0  0  0  0
   44.3706   62.4661   57.7866 H   0  0  0  0  0  0  0  0  0  0  0  0
   46.2795   61.8925   59.3525 H   0  0  0  0  0  0  0  0  0  0  0  0
   47.7042   62.8129   60.8118 H   0  0  0  0  0  0  0  0  0  0  0  0
   48.1560   64.6007   62.4312 H   0  0  0  0  0  0  0  0  0  0  0  0
   46.4500   66.3173   63.0782 H   0  0  0  0  0  0  0  0  0  0  0  0
   44.2826   66.0687   61.9690 H   0  0  0  0  0  0  0  0  0  0  0  0
   41.7475   68.6927   64.2770 H   0  0  0  0  0  0  0  0  0  0  0  0
   40.5255   64.9883   66.9426 H   0  0  0  0  0  0  0  0  0  0  0  0
   38.9428   62.7281   64.7538 H   0  0  0  0  0  0  0  0  0  0  0  0
   40.0761   64.1720   63.1771 H   0  0  0  0  0  0  0  0  0  0  0  0
   39.6313   65.1982   68.6494 H   0  0  0  0  0  0  0  0  0  0  0  0
   40.0416   66.7358   68.1049 H   0  0  0  0  0  0  0  0  0  0  0  0
  1 17  1  0
  2  1  2  0
  3  2  1  0
  4  5  1  0
  4  3  2  0
  5  6  2  0
  6  1  1  0
  7  3  1  0
  7 16  1  0
  8  7  1  0
  9  8  1  0
  9 10  1  0
 10 11  1  0
 11 16  2  0
 11 12  1  0
 12 13  2  0
 13 14  1  0
 15 14  2  0
 16 15  1  0
 17 25  1  0
 17 18  1  0
 18 19  2  0
 20 19  1  0
 20 21  1  0
 21 26  1  0
 22 21  1  0
 23 22  2  0
 24 25  1  0
 24 23  1  0
 25 20  2  0
  2 27  1  0
  5 28  1  0
  7 29  1  6
  8 30  1  0
  9 31  1  0
  9 32  1  0
 10 33  1  0
 12 34  1  0
 13 35  1  0
 14 36  1  0
 15 37  1  0
 18 38  1  0
 21 39  1  1
 23 40  1  0
 24 41  1  0
 26 42  1  0
 26 43  1  0
M  END
>  <Score>  (1) 
-7.0535

$$$$
