
     RDKit          3D

 34 37  0  0  0  0  0  0  0  0999 V2000
   41.6250   66.2730   62.3920 C   0  0  0  0  0  0  0  0  0  0  0  0
   40.9700   66.9990   61.3740 C   0  0  0  0  0  0  0  0  0  0  0  0
   41.3480   66.7560   60.0540 C   0  0  0  0  0  0  0  0  0  0  0  0
   42.3170   65.8430   59.8260 N   0  0  0  0  0  0  0  0  0  0  0  0
   42.9420   65.1490   60.8310 C   0  0  0  0  0  0  0  0  0  0  0  0
   42.5780   65.3830   62.1060 N   0  0  0  0  0  0  0  0  0  0  0  0
   43.9520   64.2090   60.4760 N   0  0  0  0  0  0  0  0  0  0  0  0
   43.5790   63.2270   59.6030 C   0  0  0  0  0  0  0  0  0  0  0  0
   44.4680   62.2580   59.1850 C   0  0  0  0  0  0  0  0  0  0  0  0
   45.7450   62.3470   59.7040 C   0  0  0  0  0  0  0  0  0  0  0  0
   46.6820   61.5300   59.4170 O   0  0  0  0  0  0  0  0  0  0  0  0
   46.1370   63.3190   60.5770 N   0  0  0  0  0  0  0  0  0  0  0  0
   45.2240   64.2430   60.9530 C   0  0  0  0  0  0  0  0  0  0  0  0
   45.4900   65.1780   61.7540 O   0  0  0  0  0  0  0  0  0  0  0  0
   41.2080   66.5490   63.7710 C   0  0  0  0  0  0  0  0  0  0  0  0
   41.4510   67.7030   64.5310 C   0  0  0  0  0  0  0  0  0  0  0  0
   40.8880   67.5240   65.7370 N   0  0  0  0  0  0  0  0  0  0  0  0
   40.2880   66.3070   65.7980 C   0  0  0  0  0  0  0  0  0  0  0  0
   39.5740   65.6360   66.7980 C   0  0  0  0  0  0  0  0  0  0  0  0
   39.0610   64.3700   66.5830 C   0  0  0  0  0  0  0  0  0  0  0  0
   39.2610   63.7630   65.3570 C   0  0  0  0  0  0  0  0  0  0  0  0
   39.9630   64.4010   64.3520 C   0  0  0  0  0  0  0  0  0  0  0  0
   40.4840   65.6800   64.5580 C   0  0  0  0  0  0  0  0  0  0  0  0
   40.1866   67.7328   61.6143 H   0  0  0  0  0  0  0  0  0  0  0  0
   40.8702   67.2930   59.2213 H   0  0  0  0  0  0  0  0  0  0  0  0
   42.5463   63.2082   59.2245 H   0  0  0  0  0  0  0  0  0  0  0  0
   44.1776   61.4636   58.4818 H   0  0  0  0  0  0  0  0  0  0  0  0
   47.1007   63.3484   60.9394 H   0  0  0  0  0  0  0  0  0  0  0  0
   42.0034   68.5943   64.1987 H   0  0  0  0  0  0  0  0  0  0  0  0
   40.9083   68.2104   66.5047 H   0  0  0  0  0  0  0  0  0  0  0  0
   39.4184   66.1242   67.7714 H   0  0  0  0  0  0  0  0  0  0  0  0
   38.5015   63.8530   67.3765 H   0  0  0  0  0  0  0  0  0  0  0  0
   38.8550   62.7564   65.1787 H   0  0  0  0  0  0  0  0  0  0  0  0
   40.1121   63.8987   63.3848 H   0  0  0  0  0  0  0  0  0  0  0  0
  1 15  1  0
  2  1  2  0
  3  2  1  0
  4  3  2  0
  4  5  1  0
  5  6  2  0
  6  1  1  0
  7  5  1  0
  7 13  1  0
  8  7  1  0
  9  8  2  0
  9 10  1  0
 10 12  1  0
 11 10  2  0
 12 13  1  0
 13 14  2  0
 15 16  2  0
 15 23  1  0
 16 17  1  0
 17 18  1  0
 18 19  2  0
 20 19  1  0
 21 20  2  0
 22 23  2  0
 22 21  1  0
 23 18  1  0
  2 24  1  0
  3 25  1  0
  8 26  1  0
  9 27  1  0
 12 28  1  0
 16 29  1  0
 17 30  1  0
 19 31  1  0
 20 32  1  0
 21 33  1  0
 22 34  1  0
M  END
>  <Score>  (1) 
-7.12707

$$$$
