
     RDKit          3D

 49 53  0  0  1  0  0  0  0  0999 V2000
   42.4750   71.9110   60.6970 N   0  0  0  0  0  0  0  0  0  0  0  0
   43.4380   72.9060   61.1900 C   0  0  0  0  0  0  0  0  0  0  0  0
   43.8140   73.9190   60.1510 C   0  0  0  0  0  0  0  0  0  0  0  0
   43.9470   73.2420   58.8220 C   0  0  0  0  0  0  0  0  0  0  0  0
   42.6540   72.6480   58.3630 C   0  0  0  0  0  0  0  0  0  0  0  0
   41.8040   72.0470   59.4750 C   0  0  2  0  0  0  0  0  0  0  0  0
   41.6800   69.8500   63.6700 C   0  0  0  0  0  0  0  0  0  0  0  0
   41.9120   70.9400   62.8520 C   0  0  0  0  0  0  0  0  0  0  0  0
   42.2470   70.7930   61.5080 C   0  0  0  0  0  0  0  0  0  0  0  0
   42.3280   69.5290   61.0610 N   0  0  0  0  0  0  0  0  0  0  0  0
   42.1030   68.4500   61.8500 C   0  0  0  0  0  0  0  0  0  0  0  0
   41.7780   68.6380   63.1570 N   0  0  0  0  0  0  0  0  0  0  0  0
   40.5330   72.8140   59.6350 C   0  0  0  0  0  0  0  0  0  0  0  0
   39.7390   72.9700   60.7700 C   0  0  0  0  0  0  0  0  0  0  0  0
   38.6580   73.7560   60.4740 C   0  0  0  0  0  0  0  0  0  0  0  0
   38.8360   74.0570   59.1350 C   0  0  0  0  0  0  0  0  0  0  0  0
   39.9340   73.4800   58.7280 O   0  0  0  0  0  0  0  0  0  0  0  0
   37.9120   74.9040   58.3120 C   0  0  0  0  0  0  0  0  0  0  0  0
   38.4620   76.2640   58.0810 C   0  0  0  0  0  0  0  0  0  0  0  0
   38.3020   77.0250   56.9160 C   0  0  0  0  0  0  0  0  0  0  0  0
   38.9690   78.2030   57.0990 N   0  0  0  0  0  0  0  0  0  0  0  0
   39.5540   78.2370   58.3250 C   0  0  0  0  0  0  0  0  0  0  0  0
   40.3110   79.2280   58.9110 C   0  0  0  0  0  0  0  0  0  0  0  0
   40.7950   79.0050   60.2070 C   0  0  0  0  0  0  0  0  0  0  0  0
   40.4870   77.8010   60.8340 C   0  0  0  0  0  0  0  0  0  0  0  0
   39.7230   76.8420   60.2020 C   0  0  0  0  0  0  0  0  0  0  0  0
   39.2360   77.0390   58.9230 C   0  0  0  0  0  0  0  0  0  0  0  0
   42.9918   73.4315   62.0472 H   0  0  0  0  0  0  0  0  0  0  0  0
   44.3544   72.3668   61.4720 H   0  0  0  0  0  0  0  0  0  0  0  0
   43.0336   74.6920   60.0927 H   0  0  0  0  0  0  0  0  0  0  0  0
   44.7719   74.3863   60.4230 H   0  0  0  0  0  0  0  0  0  0  0  0
   44.2816   73.9810   58.0791 H   0  0  0  0  0  0  0  0  0  0  0  0
   44.6766   72.4257   58.9285 H   0  0  0  0  0  0  0  0  0  0  0  0
   42.0679   73.4388   57.8720 H   0  0  0  0  0  0  0  0  0  0  0  0
   42.9131   71.8207   57.6859 H   0  0  0  0  0  0  0  0  0  0  0  0
   41.5687   71.0200   59.1590 H   0  0  0  0  0  0  0  0  0  0  0  0
   41.4185   69.9903   64.7292 H   0  0  0  0  0  0  0  0  0  0  0  0
   41.8297   71.9523   63.2745 H   0  0  0  0  0  0  0  0  0  0  0  0
   42.1824   67.4334   61.4375 H   0  0  0  0  0  0  0  0  0  0  0  0
   39.9494   72.5281   61.7551 H   0  0  0  0  0  0  0  0  0  0  0  0
   37.8427   74.0727   61.1411 H   0  0  0  0  0  0  0  0  0  0  0  0
   37.7536   74.4150   57.3395 H   0  0  0  0  0  0  0  0  0  0  0  0
   36.9659   75.0091   58.8632 H   0  0  0  0  0  0  0  0  0  0  0  0
   37.7413   76.7281   56.0174 H   0  0  0  0  0  0  0  0  0  0  0  0
   39.0213   78.9610   56.4035 H   0  0  0  0  0  0  0  0  0  0  0  0
   40.5287   80.1653   58.3779 H   0  0  0  0  0  0  0  0  0  0  0  0
   41.4049   79.7647   60.7177 H   0  0  0  0  0  0  0  0  0  0  0  0
   40.8594   77.6109   61.8514 H   0  0  0  0  0  0  0  0  0  0  0  0
   39.4967   75.9017   60.7260 H   0  0  0  0  0  0  0  0  0  0  0  0
  1  2  1  0
  1  9  1  0
  3  2  1  0
  4  3  1  0
  5  4  1  0
  5  6  1  0
  6 13  1  0
  6  1  1  0
  8  7  2  0
  9  8  1  0
 10  9  2  0
 10 11  1  0
 11 12  2  0
 12  7  1  0
 13 14  2  0
 15 14  1  0
 16 15  2  0
 17 16  1  0
 17 13  1  0
 18 16  1  0
 19 18  1  0
 19 27  1  0
 20 21  1  0
 20 19  2  0
 21 22  1  0
 22 23  1  0
 22 27  2  0
 23 24  2  0
 24 25  1  0
 26 25  2  0
 27 26  1  0
  2 28  1  0
  2 29  1  0
  3 30  1  0
  3 31  1  0
  4 32  1  0
  4 33  1  0
  5 34  1  0
  5 35  1  0
  6 36  1  6
  7 37  1  0
  8 38  1  0
 11 39  1  0
 14 40  1  0
 15 41  1  0
 18 42  1  0
 18 43  1  0
 20 44  1  0
 21 45  1  0
 23 46  1  0
 24 47  1  0
 25 48  1  0
 26 49  1  0
M  END
>  <Score>  (1) 
-7.30598

$$$$
