
     RDKit          3D

 39 42  0  0  0  0  0  0  0  0999 V2000
   42.5210   73.6600   60.3750 C   0  0  0  0  0  0  0  0  0  0  0  0
   43.8250   73.6820   59.8460 C   0  0  0  0  0  0  0  0  0  0  0  0
   44.1780   74.5910   58.8770 C   0  0  0  0  0  0  0  0  0  0  0  0
   43.2800   75.5070   58.3900 C   0  0  0  0  0  0  0  0  0  0  0  0
   41.9900   75.4960   58.8980 C   0  0  0  0  0  0  0  0  0  0  0  0
   41.1340   76.4520   58.4480 C   0  0  0  0  0  0  0  0  0  0  0  0
   39.8730   76.5380   58.9530 C   0  0  0  0  0  0  0  0  0  0  0  0
   39.4900   75.6160   59.9330 C   0  0  0  0  0  0  0  0  0  0  0  0
   40.3930   74.6550   60.3600 C   0  0  0  0  0  0  0  0  0  0  0  0
   41.6600   74.5790   59.8600 C   0  0  0  0  0  0  0  0  0  0  0  0
   42.1110   70.8010   62.4540 C   0  0  0  0  0  0  0  0  0  0  0  0
   41.6360   71.7400   63.2620 N   0  0  0  0  0  0  0  0  0  0  0  0
   41.6830   72.8800   62.7110 O   0  0  0  0  0  0  0  0  0  0  0  0
   42.1960   72.7790   61.4850 C   0  0  0  0  0  0  0  0  0  0  0  0
   42.4650   71.4730   61.3370 N   0  0  0  0  0  0  0  0  0  0  0  0
   42.0540   67.1060   61.6570 C   0  0  0  0  0  0  0  0  0  0  0  0
   41.8080   68.4790   61.4770 C   0  0  0  0  0  0  0  0  0  0  0  0
   42.2740   69.3430   62.4830 C   0  0  0  0  0  0  0  0  0  0  0  0
   42.9180   68.8420   63.5450 N   0  0  0  0  0  0  0  0  0  0  0  0
   43.1260   67.5050   63.6630 C   0  0  0  0  0  0  0  0  0  0  0  0
   42.7010   66.6430   62.7340 N   0  0  0  0  0  0  0  0  0  0  0  0
   43.8120   67.0790   64.8380 N   0  0  0  0  0  0  0  0  0  0  0  0
   39.6440   73.7070   61.2220 C   0  0  0  0  0  0  0  0  0  0  0  0
   38.1090   74.1080   61.1520 C   0  0  0  0  0  0  0  0  0  0  0  0
   44.5717   72.9623   60.2128 H   0  0  0  0  0  0  0  0  0  0  0  0
   45.2049   74.5838   58.4827 H   0  0  0  0  0  0  0  0  0  0  0  0
   43.5758   76.2312   57.6167 H   0  0  0  0  0  0  0  0  0  0  0  0
   41.4623   77.1593   57.6721 H   0  0  0  0  0  0  0  0  0  0  0  0
   39.1744   77.3110   58.6003 H   0  0  0  0  0  0  0  0  0  0  0  0
   38.4779   75.6535   60.3623 H   0  0  0  0  0  0  0  0  0  0  0  0
   41.7061   66.3945   60.8937 H   0  0  0  0  0  0  0  0  0  0  0  0
   41.2766   68.8584   60.5917 H   0  0  0  0  0  0  0  0  0  0  0  0
   44.0019   66.0780   64.9891 H   0  0  0  0  0  0  0  0  0  0  0  0
   44.1177   67.7722   65.5358 H   0  0  0  0  0  0  0  0  0  0  0  0
   39.7805   72.6786   60.8561 H   0  0  0  0  0  0  0  0  0  0  0  0
   40.0097   73.7542   62.2584 H   0  0  0  0  0  0  0  0  0  0  0  0
   37.7104   74.2121   62.1719 H   0  0  0  0  0  0  0  0  0  0  0  0
   38.0037   75.0638   60.6178 H   0  0  0  0  0  0  0  0  0  0  0  0
   37.5497   73.3258   60.6178 H   0  0  0  0  0  0  0  0  0  0  0  0
  1 14  1  0
  2  1  2  0
  3  2  1  0
  4  3  2  0
  4  5  1  0
  5 10  2  0
  6  5  1  0
  6  7  2  0
  7  8  1  0
  8  9  2  0
  9 23  1  0
 10  9  1  0
 10  1  1  0
 11 18  1  0
 11 12  2  0
 13 12  1  0
 14 13  1  0
 15 14  2  0
 15 11  1  0
 16 21  2  0
 17 16  1  0
 17 18  2  0
 18 19  1  0
 19 20  2  0
 20 22  1  0
 21 20  1  0
 24 23  1  0
  2 25  1  0
  3 26  1  0
  4 27  1  0
  6 28  1  0
  7 29  1  0
  8 30  1  0
 16 31  1  0
 17 32  1  0
 22 33  1  0
 22 34  1  0
 23 35  1  0
 23 36  1  0
 24 37  1  0
 24 38  1  0
 24 39  1  0
M  END
>  <Score>  (1) 
-7.17173

$$$$
