
     RDKit          3D

 34 37  0  0  0  0  0  0  0  0999 V2000
   39.7980   64.3140   64.6650 C   0  0  0  0  0  0  0  0  0  0  0  0
   39.3370   64.9770   65.8170 C   0  0  0  0  0  0  0  0  0  0  0  0
   39.6500   66.3480   65.9310 C   0  0  0  0  0  0  0  0  0  0  0  0
   40.3660   66.9380   64.9420 N   0  0  0  0  0  0  0  0  0  0  0  0
   40.7860   66.2430   63.8510 C   0  0  0  0  0  0  0  0  0  0  0  0
   40.5050   64.9320   63.7060 N   0  0  0  0  0  0  0  0  0  0  0  0
   41.5130   67.1040   62.9770 N   0  0  0  0  0  0  0  0  0  0  0  0
   41.2550   68.4170   62.8890 C   0  0  0  0  0  0  0  0  0  0  0  0
   41.9930   69.1950   62.0240 C   0  0  0  0  0  0  0  0  0  0  0  0
   42.9830   68.5560   61.2820 C   0  0  0  0  0  0  0  0  0  0  0  0
   43.7360   69.3590   60.3980 N   0  0  0  0  0  0  0  0  0  0  0  0
   43.2020   67.2260   61.4090 N   0  0  0  0  0  0  0  0  0  0  0  0
   42.4610   66.4700   62.2700 C   0  0  0  0  0  0  0  0  0  0  0  0
   42.7100   65.2530   62.3420 O   0  0  0  0  0  0  0  0  0  0  0  0
   41.7670   70.6010   61.8850 N   0  0  0  0  0  0  0  0  0  0  0  0
   41.8550   71.4550   62.9400 C   0  0  0  0  0  0  0  0  0  0  0  0
   41.5900   72.7100   62.5010 N   0  0  0  0  0  0  0  0  0  0  0  0
   41.3370   72.6640   61.1870 C   0  0  0  0  0  0  0  0  0  0  0  0
   41.0120   73.5490   60.1810 C   0  0  0  0  0  0  0  0  0  0  0  0
   40.8180   73.1470   58.9120 N   0  0  0  0  0  0  0  0  0  0  0  0
   40.9350   71.8430   58.5700 C   0  0  0  0  0  0  0  0  0  0  0  0
   41.2510   70.9490   59.5250 N   0  0  0  0  0  0  0  0  0  0  0  0
   41.4480   71.3270   60.7930 C   0  0  0  0  0  0  0  0  0  0  0  0
   40.8830   74.9240   60.5130 N   0  0  0  0  0  0  0  0  0  0  0  0
   39.5695   63.2447   64.5452 H   0  0  0  0  0  0  0  0  0  0  0  0
   38.7599   64.4514   66.5921 H   0  0  0  0  0  0  0  0  0  0  0  0
   39.3195   66.9274   66.8057 H   0  0  0  0  0  0  0  0  0  0  0  0
   40.4612   68.8688   63.5020 H   0  0  0  0  0  0  0  0  0  0  0  0
   43.5421   70.3681   60.3269 H   0  0  0  0  0  0  0  0  0  0  0  0
   44.4793   68.9357   59.8241 H   0  0  0  0  0  0  0  0  0  0  0  0
   42.0999   71.1746   63.9751 H   0  0  0  0  0  0  0  0  0  0  0  0
   40.7748   71.5197   57.5308 H   0  0  0  0  0  0  0  0  0  0  0  0
   40.6411   75.6095   59.7833 H   0  0  0  0  0  0  0  0  0  0  0  0
   41.0314   75.2356   61.4835 H   0  0  0  0  0  0  0  0  0  0  0  0
  1  2  2  0
  2  3  1  0
  4  3  2  0
  5  4  1  0
  6  5  2  0
  6  1  1  0
  7  5  1  0
  8  7  1  0
  9  8  2  0
 10 12  2  0
 10  9  1  0
 11 10  1  0
 12 13  1  0
 13 14  2  0
 13  7  1  0
 15  9  1  0
 15 16  1  0
 17 16  2  0
 18 17  1  0
 19 24  1  0
 19 18  2  0
 20 19  1  0
 21 20  2  0
 21 22  1  0
 22 23  2  0
 23 18  1  0
 23 15  1  0
  1 25  1  0
  2 26  1  0
  3 27  1  0
  8 28  1  0
 11 29  1  0
 11 30  1  0
 16 31  1  0
 21 32  1  0
 24 33  1  0
 24 34  1  0
M  END
>  <Score>  (1) 
-7.12985

$$$$
