
     RDKit          3D

 43 47  0  0  0  0  0  0  0  0999 V2000
   41.5010   66.3300   62.5310 C   0  0  0  0  0  0  0  0  0  0  0  0
   40.8320   67.0880   61.5700 C   0  0  0  0  0  0  0  0  0  0  0  0
   41.2080   66.9070   60.2290 C   0  0  0  0  0  0  0  0  0  0  0  0
   42.1800   66.0270   59.9310 N   0  0  0  0  0  0  0  0  0  0  0  0
   42.8210   65.2940   60.9040 C   0  0  0  0  0  0  0  0  0  0  0  0
   42.4570   65.4720   62.1700 N   0  0  0  0  0  0  0  0  0  0  0  0
   43.8250   64.3650   60.5180 N   0  0  0  0  0  0  0  0  0  0  0  0
   45.1590   64.1760   60.7440 C   0  0  0  0  0  0  0  0  0  0  0  0
   45.5290   63.0050   60.1070 N   0  0  0  0  0  0  0  0  0  0  0  0
   44.4820   62.6240   59.4120 C   0  0  0  0  0  0  0  0  0  0  0  0
   43.4190   63.4300   59.6560 N   0  0  0  0  0  0  0  0  0  0  0  0
   41.1150   66.5150   63.9290 C   0  0  0  0  0  0  0  0  0  0  0  0
   41.3820   67.6210   64.7350 C   0  0  0  0  0  0  0  0  0  0  0  0
   40.8600   67.3870   65.9410 N   0  0  0  0  0  0  0  0  0  0  0  0
   40.2510   66.1580   65.9680 C   0  0  0  0  0  0  0  0  0  0  0  0
   39.5750   65.4440   66.9460 C   0  0  0  0  0  0  0  0  0  0  0  0
   39.0570   64.1850   66.6700 C   0  0  0  0  0  0  0  0  0  0  0  0
   39.2220   63.6370   65.3900 C   0  0  0  0  0  0  0  0  0  0  0  0
   39.8910   64.3500   64.4310 C   0  0  0  0  0  0  0  0  0  0  0  0
   40.4160   65.6150   64.6960 C   0  0  0  0  0  0  0  0  0  0  0  0
   44.5990   61.4870   58.5940 C   0  0  0  0  0  0  0  0  0  0  0  0
   44.9570   61.5360   57.3970 O   0  0  0  0  0  0  0  0  0  0  0  0
   44.4110   60.0960   58.9920 C   0  0  0  0  0  0  0  0  0  0  0  0
   43.3280   59.3020   58.8320 C   0  0  0  0  0  0  0  0  0  0  0  0
   43.2990   57.9960   59.2650 C   0  0  0  0  0  0  0  0  0  0  0  0
   44.4060   57.4310   59.8950 C   0  0  0  0  0  0  0  0  0  0  0  0
   45.4730   58.2690   60.0330 C   0  0  0  0  0  0  0  0  0  0  0  0
   45.4980   59.5470   59.6100 N   0  0  0  0  0  0  0  0  0  0  0  0
   40.0414   67.7992   61.8513 H   0  0  0  0  0  0  0  0  0  0  0  0
   40.7125   67.4792   59.4308 H   0  0  0  0  0  0  0  0  0  0  0  0
   45.7321   65.0219   60.3366 H   0  0  0  0  0  0  0  0  0  0  0  0
   45.3627   64.1100   61.8230 H   0  0  0  0  0  0  0  0  0  0  0  0
   42.4759   63.3381   59.2522 H   0  0  0  0  0  0  0  0  0  0  0  0
   41.9268   68.5268   64.4306 H   0  0  0  0  0  0  0  0  0  0  0  0
   40.9077   68.0371   66.7385 H   0  0  0  0  0  0  0  0  0  0  0  0
   39.4479   65.8783   67.9486 H   0  0  0  0  0  0  0  0  0  0  0  0
   38.5218   63.6226   67.4492 H   0  0  0  0  0  0  0  0  0  0  0  0
   38.8168   62.6411   65.1576 H   0  0  0  0  0  0  0  0  0  0  0  0
   40.0173   63.9151   63.4285 H   0  0  0  0  0  0  0  0  0  0  0  0
   42.4369   59.7156   58.3372 H   0  0  0  0  0  0  0  0  0  0  0  0
   42.3925   57.3919   59.1122 H   0  0  0  0  0  0  0  0  0  0  0  0
   44.4183   56.3909   60.2529 H   0  0  0  0  0  0  0  0  0  0  0  0
   46.3749   57.8738   60.5234 H   0  0  0  0  0  0  0  0  0  0  0  0
  1 12  1  0
  2  1  2  0
  3  2  1  0
  4  3  2  0
  4  5  1  0
  5  6  2  0
  6  1  1  0
  7  8  1  0
  7  5  1  0
  9  8  1  0
 10 11  1  0
 10  9  2  0
 11  7  1  0
 12 20  1  0
 12 13  2  0
 13 14  1  0
 14 15  1  0
 15 16  2  0
 17 16  1  0
 18 17  2  0
 19 20  2  0
 19 18  1  0
 20 15  1  0
 21 23  1  0
 21 10  1  0
 22 21  2  0
 23 28  1  0
 24 23  2  0
 24 25  1  0
 25 26  2  0
 26 27  1  0
 28 27  2  0
  2 29  1  0
  3 30  1  0
  8 31  1  0
  8 32  1  0
 11 33  1  0
 13 34  1  0
 14 35  1  0
 16 36  1  0
 17 37  1  0
 18 38  1  0
 19 39  1  0
 24 40  1  0
 25 41  1  0
 26 42  1  0
 27 43  1  0
M  END
>  <Score>  (1) 
-7.10663

$$$$
