
     RDKit          3D

 44 47  0  0  1  0  0  0  0  0999 V2000
   42.5150   70.6480   62.1020 C   0  0  2  0  0  0  0  0  0  0  0  0
   39.7530   64.4640   64.4810 C   0  0  0  0  0  0  0  0  0  0  0  0
   39.3980   65.1210   65.6730 C   0  0  0  0  0  0  0  0  0  0  0  0
   39.8670   66.4000   65.8280 C   0  0  0  0  0  0  0  0  0  0  0  0
   40.6230   66.9230   64.8380 N   0  0  0  0  0  0  0  0  0  0  0  0
   40.9550   66.2660   63.6890 C   0  0  0  0  0  0  0  0  0  0  0  0
   40.5160   65.0270   63.5100 N   0  0  0  0  0  0  0  0  0  0  0  0
   41.7630   67.0660   62.8680 N   0  0  0  0  0  0  0  0  0  0  0  0
   41.6410   68.4120   62.8310 C   0  0  0  0  0  0  0  0  0  0  0  0
   42.5390   69.1380   62.0190 C   0  0  0  0  0  0  0  0  0  0  0  0
   43.4750   68.4300   61.3160 C   0  0  0  0  0  0  0  0  0  0  0  0
   44.3480   69.1880   60.4770 N   0  0  0  0  0  0  0  0  0  0  0  0
   43.5570   67.0860   61.3830 N   0  0  0  0  0  0  0  0  0  0  0  0
   42.6890   66.3670   62.1730 C   0  0  0  0  0  0  0  0  0  0  0  0
   42.7950   65.1320   62.2090 O   0  0  0  0  0  0  0  0  0  0  0  0
   41.6350   71.1640   63.1220 C   0  0  0  0  0  0  0  0  0  0  0  0
   41.8880   71.0370   60.6550 C   0  0  0  0  0  0  0  0  0  0  0  0
   42.5120   72.2790   60.3020 N   0  0  0  0  0  0  0  0  0  0  0  0
   43.8380   72.4010   60.1550 N   0  0  0  0  0  0  0  0  0  0  0  0
   44.1730   73.6560   59.8260 C   0  0  0  0  0  0  0  0  0  0  0  0
   43.0330   74.3980   59.7530 C   0  0  0  0  0  0  0  0  0  0  0  0
   42.0360   73.5010   60.0540 C   0  0  0  0  0  0  0  0  0  0  0  0
   40.6160   73.7190   60.1300 N   0  0  0  0  0  0  0  0  0  0  0  0
   39.9600   73.9840   61.2750 C   0  0  0  0  0  0  0  0  0  0  0  0
   38.6430   74.1170   60.8810 C   0  0  0  0  0  0  0  0  0  0  0  0
   38.5000   73.9410   59.5540 N   0  0  0  0  0  0  0  0  0  0  0  0
   39.7400   73.6920   59.0850 C   0  0  0  0  0  0  0  0  0  0  0  0
   43.5081   71.0545   62.3438 H   0  0  0  0  0  0  0  0  0  0  0  0
   39.3920   63.4364   64.3272 H   0  0  0  0  0  0  0  0  0  0  0  0
   38.7772   64.6346   66.4399 H   0  0  0  0  0  0  0  0  0  0  0  0
   39.6347   66.9829   66.7315 H   0  0  0  0  0  0  0  0  0  0  0  0
   40.8647   68.9263   63.4165 H   0  0  0  0  0  0  0  0  0  0  0  0
   44.2664   70.2142   60.4424 H   0  0  0  0  0  0  0  0  0  0  0  0
   45.0590   68.7084   59.9067 H   0  0  0  0  0  0  0  0  0  0  0  0
   42.0439   70.9242   64.1146 H   0  0  0  0  0  0  0  0  0  0  0  0
   41.5493   72.2554   63.0146 H   0  0  0  0  0  0  0  0  0  0  0  0
   40.6407   70.7058   63.0146 H   0  0  0  0  0  0  0  0  0  0  0  0
   42.1223   70.2614   59.9110 H   0  0  0  0  0  0  0  0  0  0  0  0
   40.7917   71.1202   60.6886 H   0  0  0  0  0  0  0  0  0  0  0  0
   45.1938   74.0240   59.6457 H   0  0  0  0  0  0  0  0  0  0  0  0
   42.9335   75.4662   59.5098 H   0  0  0  0  0  0  0  0  0  0  0  0
   40.3762   74.0738   62.2892 H   0  0  0  0  0  0  0  0  0  0  0  0
   37.8127   74.3395   61.5673 H   0  0  0  0  0  0  0  0  0  0  0  0
   40.0013   73.4992   58.0340 H   0  0  0  0  0  0  0  0  0  0  0  0
  1 16  1  0
  2  3  2  0
  3  4  1  0
  5  4  2  0
  6  5  1  0
  7  6  2  0
  7  2  1  0
  8  6  1  0
  9  8  1  0
 10  1  1  0
 10  9  2  0
 11 13  2  0
 11 10  1  0
 12 11  1  0
 13 14  1  0
 14 15  2  0
 14  8  1  0
 17  1  1  0
 18 17  1  0
 19 18  1  0
 20 19  2  0
 21 20  1  0
 21 22  2  0
 22 23  1  0
 22 18  1  0
 23 24  1  0
 25 24  2  0
 26 25  1  0
 27 26  2  0
 27 23  1  0
  1 28  1  1
  2 29  1  0
  3 30  1  0
  4 31  1  0
  9 32  1  0
 12 33  1  0
 12 34  1  0
 16 35  1  0
 16 36  1  0
 16 37  1  0
 17 38  1  0
 17 39  1  0
 20 40  1  0
 21 41  1  0
 24 42  1  0
 25 43  1  0
 27 44  1  0
M  END
>  <Score>  (1) 
-7.26949

$$$$
