
     RDKit          3D

 52 56  0  0  1  0  0  0  0  0999 V2000
   43.5270   73.2230   58.9400 C   0  0  0  0  0  0  0  0  0  0  0  0
   44.9140   73.5250   58.9450 C   0  0  0  0  0  0  0  0  0  0  0  0
   45.5390   73.9600   57.8000 C   0  0  0  0  0  0  0  0  0  0  0  0
   44.8570   74.1140   56.6290 C   0  0  0  0  0  0  0  0  0  0  0  0
   43.5050   73.8170   56.6230 C   0  0  0  0  0  0  0  0  0  0  0  0
   42.8530   73.9590   55.4510 C   0  0  0  0  0  0  0  0  0  0  0  0
   41.5350   73.6720   55.3590 C   0  0  0  0  0  0  0  0  0  0  0  0
   40.8900   73.2360   56.4700 C   0  0  0  0  0  0  0  0  0  0  0  0
   41.5630   73.0820   57.6970 C   0  0  0  0  0  0  0  0  0  0  0  0
   42.8790   73.3810   57.7720 C   0  0  0  0  0  0  0  0  0  0  0  0
   42.2150   71.4270   61.7210 C   0  0  0  0  0  0  0  0  0  0  0  0
   41.9330   72.6880   62.0660 N   0  0  0  0  0  0  0  0  0  0  0  0
   42.3360   73.4630   61.1770 O   0  0  0  0  0  0  0  0  0  0  0  0
   42.9090   72.8420   60.1700 C   0  0  0  0  0  0  0  0  0  0  0  0
   42.8270   71.5430   60.5290 N   0  0  0  0  0  0  0  0  0  0  0  0
   41.8390   67.7140   62.2450 C   0  0  0  0  0  0  0  0  0  0  0  0
   41.9920   68.9240   61.5390 C   0  0  0  0  0  0  0  0  0  0  0  0
   42.0550   70.0870   62.2920 C   0  0  0  0  0  0  0  0  0  0  0  0
   41.9710   70.0010   63.6250 N   0  0  0  0  0  0  0  0  0  0  0  0
   41.8260   68.8200   64.2580 C   0  0  0  0  0  0  0  0  0  0  0  0
   41.7600   67.6810   63.5770 N   0  0  0  0  0  0  0  0  0  0  0  0
   41.7580   68.8340   65.6730 N   0  0  0  0  0  0  0  0  0  0  0  0
   40.6630   72.5710   58.7420 C   0  0  2  0  0  0  0  0  0  0  0  0
   39.7840   71.4160   58.0960 C   0  0  0  0  0  0  0  0  0  0  0  0
   39.4980   73.5080   58.9730 C   0  0  0  0  0  0  0  0  0  0  0  0
   39.7460   74.7550   59.6050 N   0  0  0  0  0  0  0  0  0  0  0  0
   40.3520   75.9240   59.3760 C   0  0  0  0  0  0  0  0  0  0  0  0
   40.4140   76.9990   60.1890 C   0  0  0  0  0  0  0  0  0  0  0  0
   39.8030   76.9690   61.4230 C   0  0  0  0  0  0  0  0  0  0  0  0
   39.8480   77.9560   62.1950 O   0  0  0  0  0  0  0  0  0  0  0  0
   39.1640   75.8350   61.7490 N   0  0  0  0  0  0  0  0  0  0  0  0
   39.1590   74.8000   60.8540 C   0  0  0  0  0  0  0  0  0  0  0  0
   38.5000   73.8220   61.3570 O   0  0  0  0  0  0  0  0  0  0  0  0
   45.4938   73.4101   59.8727 H   0  0  0  0  0  0  0  0  0  0  0  0
   46.6145   74.1892   57.8292 H   0  0  0  0  0  0  0  0  0  0  0  0
   45.3652   74.4632   55.7181 H   0  0  0  0  0  0  0  0  0  0  0  0
   43.3979   74.3112   54.5627 H   0  0  0  0  0  0  0  0  0  0  0  0
   40.9984   73.7892   54.4059 H   0  0  0  0  0  0  0  0  0  0  0  0
   39.8178   72.9976   56.4109 H   0  0  0  0  0  0  0  0  0  0  0  0
   41.7831   66.7703   61.6826 H   0  0  0  0  0  0  0  0  0  0  0  0
   42.0584   68.9451   60.4412 H   0  0  0  0  0  0  0  0  0  0  0  0
   41.6474   67.9512   66.1920 H   0  0  0  0  0  0  0  0  0  0  0  0
   41.8192   69.7269   66.1827 H   0  0  0  0  0  0  0  0  0  0  0  0
   41.3033   72.3552   59.6100 H   0  0  0  0  0  0  0  0  0  0  0  0
   39.3257   70.8139   58.8944 H   0  0  0  0  0  0  0  0  0  0  0  0
   38.9941   71.8611   57.4732 H   0  0  0  0  0  0  0  0  0  0  0  0
   40.4235   70.7733   57.4732 H   0  0  0  0  0  0  0  0  0  0  0  0
   39.0558   73.7248   57.9894 H   0  0  0  0  0  0  0  0  0  0  0  0
   38.8559   72.9686   59.6849 H   0  0  0  0  0  0  0  0  0  0  0  0
   40.8624   76.0216   58.4065 H   0  0  0  0  0  0  0  0  0  0  0  0
   40.9537   77.9013   59.8656 H   0  0  0  0  0  0  0  0  0  0  0  0
   38.6858   75.7452   62.6568 H   0  0  0  0  0  0  0  0  0  0  0  0
  1  2  2  0
  1 14  1  0
  3  2  1  0
  4  3  2  0
  5  4  1  0
  5 10  2  0
  6  5  1  0
  7  6  2  0
  7  8  1  0
  8  9  2  0
  9 10  1  0
  9 23  1  0
 10  1  1  0
 11 12  2  0
 11 18  1  0
 13 12  1  0
 14 15  2  0
 14 13  1  0
 15 11  1  0
 16 21  2  0
 17 16  1  0
 17 18  2  0
 18 19  1  0
 19 20  2  0
 20 22  1  0
 21 20  1  0
 23 25  1  0
 24 23  1  0
 25 26  1  0
 26 32  1  0
 27 26  1  0
 27 28  2  0
 28 29  1  0
 29 31  1  0
 29 30  2  0
 32 33  2  0
 32 31  1  0
  2 34  1  0
  3 35  1  0
  4 36  1  0
  6 37  1  0
  7 38  1  0
  8 39  1  0
 16 40  1  0
 17 41  1  0
 22 42  1  0
 22 43  1  0
 23 44  1  1
 24 45  1  0
 24 46  1  0
 24 47  1  0
 25 48  1  0
 25 49  1  0
 27 50  1  0
 28 51  1  0
 31 52  1  0
M  END
>  <Score>  (1) 
-7.14609

$$$$
