
     RDKit          3D

 51 54  0  0  1  0  0  0  0  0999 V2000
   39.6960   64.1570   65.1950 C   0  0  0  0  0  0  0  0  0  0  0  0
   39.6850   65.0090   66.3230 C   0  0  0  0  0  0  0  0  0  0  0  0
   40.1900   66.3040   66.1650 C   0  0  0  0  0  0  0  0  0  0  0  0
   40.6640   66.6680   64.9370 N   0  0  0  0  0  0  0  0  0  0  0  0
   40.6520   65.8140   63.8910 C   0  0  0  0  0  0  0  0  0  0  0  0
   40.1770   64.5780   64.0150 N   0  0  0  0  0  0  0  0  0  0  0  0
   41.1640   66.2890   62.6560 N   0  0  0  0  0  0  0  0  0  0  0  0
   41.5700   65.7220   61.5020 C   0  0  0  0  0  0  0  0  0  0  0  0
   41.9630   66.6460   60.6380 N   0  0  0  0  0  0  0  0  0  0  0  0
   41.8080   67.8520   61.2480 C   0  0  0  0  0  0  0  0  0  0  0  0
   42.0550   69.1270   60.8270 C   0  0  0  0  0  0  0  0  0  0  0  0
   42.5150   69.2720   59.6640 O   0  0  0  0  0  0  0  0  0  0  0  0
   41.8320   70.2200   61.6010 N   0  0  0  0  0  0  0  0  0  0  0  0
   41.3610   69.9600   62.7940 C   0  0  0  0  0  0  0  0  0  0  0  0
   41.1790   71.0410   63.7160 N   0  0  0  0  0  0  0  0  0  0  0  0
   41.0990   68.7530   63.2630 N   0  0  0  0  0  0  0  0  0  0  0  0
   41.3040   67.6360   62.5250 C   0  0  0  0  0  0  0  0  0  0  0  0
   40.7210   73.8500   60.0300 N   0  0  0  0  0  0  0  0  0  0  0  0
   40.6400   73.7060   61.4310 C   0  0  0  0  0  0  0  0  0  0  0  0
   41.2970   72.5670   62.0140 C   0  0  0  0  0  0  0  0  0  0  0  0
   42.0670   71.5870   61.1510 C   0  0  2  0  0  0  0  0  0  0  0  0
   41.8450   71.7660   59.6980 C   0  0  0  0  0  0  0  0  0  0  0  0
   41.7600   73.2420   59.3470 C   0  0  2  0  0  0  0  0  0  0  0  0
   43.0680   73.9340   59.2120 C   0  0  0  0  0  0  0  0  0  0  0  0
   43.8580   73.6130   60.4760 C   0  0  0  0  0  0  0  0  0  0  0  0
   42.7810   75.4370   59.3190 C   0  0  0  0  0  0  0  0  0  0  0  0
   43.9120   73.6950   58.0420 C   0  0  0  0  0  0  0  0  0  0  0  0
   39.3043   63.1331   65.2859 H   0  0  0  0  0  0  0  0  0  0  0  0
   39.2929   64.6655   67.2916 H   0  0  0  0  0  0  0  0  0  0  0  0
   40.2049   67.0107   67.0079 H   0  0  0  0  0  0  0  0  0  0  0  0
   41.5743   64.6398   61.3049 H   0  0  0  0  0  0  0  0  0  0  0  0
   40.8095   70.8564   64.6595 H   0  0  0  0  0  0  0  0  0  0  0  0
   41.4177   72.0029   63.4354 H   0  0  0  0  0  0  0  0  0  0  0  0
   39.8445   73.4771   59.6381 H   0  0  0  0  0  0  0  0  0  0  0  0
   41.0790   74.6080   61.8823 H   0  0  0  0  0  0  0  0  0  0  0  0
   39.5706   73.5535   61.6389 H   0  0  0  0  0  0  0  0  0  0  0  0
   42.0100   72.9610   62.7532 H   0  0  0  0  0  0  0  0  0  0  0  0
   40.4547   71.9605   62.3784 H   0  0  0  0  0  0  0  0  0  0  0  0
   43.1359   71.8090   61.2859 H   0  0  0  0  0  0  0  0  0  0  0  0
   42.6805   71.3108   59.1460 H   0  0  0  0  0  0  0  0  0  0  0  0
   40.8970   71.2810   59.4220 H   0  0  0  0  0  0  0  0  0  0  0  0
   41.4524   73.3520   58.2966 H   0  0  0  0  0  0  0  0  0  0  0  0
   43.2515   73.8594   61.3600 H   0  0  0  0  0  0  0  0  0  0  0  0
   44.1081   72.5419   60.4900 H   0  0  0  0  0  0  0  0  0  0  0  0
   44.7843   74.2061   60.4900 H   0  0  0  0  0  0  0  0  0  0  0  0
   42.7260   75.7252   60.3791 H   0  0  0  0  0  0  0  0  0  0  0  0
   43.5878   76.0003   58.8273 H   0  0  0  0  0  0  0  0  0  0  0  0
   41.8234   75.6634   58.8273 H   0  0  0  0  0  0  0  0  0  0  0  0
   44.9220   73.4090   58.3707 H   0  0  0  0  0  0  0  0  0  0  0  0
   43.4797   72.8839   57.4376 H   0  0  0  0  0  0  0  0  0  0  0  0
   43.9691   74.6123   57.4376 H   0  0  0  0  0  0  0  0  0  0  0  0
  1  2  2  0
  3  2  1  0
  4  3  2  0
  5  6  2  0
  5  4  1  0
  6  1  1  0
  7  5  1  0
  8  7  1  0
  9 10  1  0
  9  8  2  0
 10 17  2  0
 11 10  1  0
 11 13  1  0
 12 11  2  0
 13 14  1  0
 14 16  2  0
 14 15  1  0
 17  7  1  0
 17 16  1  0
 18 19  1  0
 19 20  1  0
 21 13  1  0
 21 20  1  0
 22 21  1  0
 23 22  1  0
 23 18  1  0
 24 26  1  0
 24 23  1  0
 24 25  1  0
 27 24  1  0
  1 28  1  0
  2 29  1  0
  3 30  1  0
  8 31  1  0
 15 32  1  0
 15 33  1  0
 18 34  1  0
 19 35  1  0
 19 36  1  0
 20 37  1  0
 20 38  1  0
 21 39  1  6
 22 40  1  0
 22 41  1  0
 23 42  1  6
 25 43  1  0
 25 44  1  0
 25 45  1  0
 26 46  1  0
 26 47  1  0
 26 48  1  0
 27 49  1  0
 27 50  1  0
 27 51  1  0
M  END
>  <Score>  (1) 
-7.58892

$$$$
