
     RDKit          3D

 44 49  0  0  0  0  0  0  0  0999 V2000
   41.6660   67.7410   58.3370 C   0  0  0  0  0  0  0  0  0  0  0  0
   41.9780   67.3570   59.6540 C   0  0  0  0  0  0  0  0  0  0  0  0
   41.9490   68.2420   60.7230 C   0  0  0  0  0  0  0  0  0  0  0  0
   41.5870   69.5200   60.3570 N   0  0  0  0  0  0  0  0  0  0  0  0
   41.2860   69.8900   59.0920 C   0  0  0  0  0  0  0  0  0  0  0  0
   41.3300   69.0080   58.1150 N   0  0  0  0  0  0  0  0  0  0  0  0
   42.2460   68.0750   62.0960 C   0  0  0  0  0  0  0  0  0  0  0  0
   43.5830   68.3660   62.4510 C   0  0  0  0  0  0  0  0  0  0  0  0
   44.0770   68.2670   63.7440 C   0  0  0  0  0  0  0  0  0  0  0  0
   43.2130   67.8580   64.7530 C   0  0  0  0  0  0  0  0  0  0  0  0
   41.8990   67.5600   64.4640 C   0  0  0  0  0  0  0  0  0  0  0  0
   41.0330   67.1570   65.4370 C   0  0  0  0  0  0  0  0  0  0  0  0
   39.7130   66.8480   65.1990 C   0  0  0  0  0  0  0  0  0  0  0  0
   39.3140   66.9790   63.8740 C   0  0  0  0  0  0  0  0  0  0  0  0
   40.2010   67.3890   62.9030 C   0  0  0  0  0  0  0  0  0  0  0  0
   41.5070   67.6880   63.1710 C   0  0  0  0  0  0  0  0  0  0  0  0
   40.9140   71.2820   58.8200 C   0  0  0  0  0  0  0  0  0  0  0  0
   39.6750   71.6780   58.3550 C   0  0  0  0  0  0  0  0  0  0  0  0
   39.7840   73.0600   58.2490 C   0  0  0  0  0  0  0  0  0  0  0  0
   41.0760   73.4310   58.6500 C   0  0  0  0  0  0  0  0  0  0  0  0
   41.6930   72.3070   58.9790 O   0  0  0  0  0  0  0  0  0  0  0  0
   41.6470   74.7370   58.7100 N   0  0  0  0  0  0  0  0  0  0  0  0
   42.7130   75.1830   58.0190 C   0  0  0  0  0  0  0  0  0  0  0  0
   42.9140   76.4720   58.3740 N   0  0  0  0  0  0  0  0  0  0  0  0
   41.9650   76.7890   59.2730 C   0  0  0  0  0  0  0  0  0  0  0  0
   41.6990   77.9690   59.9630 C   0  0  0  0  0  0  0  0  0  0  0  0
   40.6620   78.0230   60.8300 N   0  0  0  0  0  0  0  0  0  0  0  0
   39.9000   76.9350   61.0140 C   0  0  0  0  0  0  0  0  0  0  0  0
   40.1110   75.7700   60.3740 N   0  0  0  0  0  0  0  0  0  0  0  0
   41.1430   75.6910   59.5020 C   0  0  0  0  0  0  0  0  0  0  0  0
   41.6992   67.0127   57.5133 H   0  0  0  0  0  0  0  0  0  0  0  0
   42.2570   66.3102   59.8448 H   0  0  0  0  0  0  0  0  0  0  0  0
   44.2715   68.6896   61.6565 H   0  0  0  0  0  0  0  0  0  0  0  0
   45.1276   68.5066   63.9652 H   0  0  0  0  0  0  0  0  0  0  0  0
   43.5796   67.7718   65.7865 H   0  0  0  0  0  0  0  0  0  0  0  0
   41.4094   67.0744   66.4673 H   0  0  0  0  0  0  0  0  0  0  0  0
   39.0273   66.5227   65.9953 H   0  0  0  0  0  0  0  0  0  0  0  0
   38.2741   66.7518   63.5965 H   0  0  0  0  0  0  0  0  0  0  0  0
   39.8423   67.4796   61.8671 H   0  0  0  0  0  0  0  0  0  0  0  0
   38.8046   71.0468   58.1226 H   0  0  0  0  0  0  0  0  0  0  0  0
   38.9931   73.7448   57.9091 H   0  0  0  0  0  0  0  0  0  0  0  0
   43.3103   74.6051   57.2984 H   0  0  0  0  0  0  0  0  0  0  0  0
   42.3307   78.8552   59.8034 H   0  0  0  0  0  0  0  0  0  0  0  0
   39.0612   76.9978   61.7229 H   0  0  0  0  0  0  0  0  0  0  0  0
  1  2  2  0
  2  3  1  0
  3  7  1  0
  4  3  2  0
  5  4  1  0
  6  1  1  0
  6  5  2  0
  7  8  2  0
  7 16  1  0
  8  9  1  0
  9 10  2  0
 11 10  1  0
 11 12  2  0
 13 12  1  0
 14 13  2  0
 15 16  2  0
 15 14  1  0
 16 11  1  0
 17 21  1  0
 17  5  1  0
 18 17  2  0
 19 18  1  0
 19 20  2  0
 20 22  1  0
 20 21  1  0
 22 30  1  0
 23 24  2  0
 23 22  1  0
 24 25  1  0
 25 30  2  0
 25 26  1  0
 26 27  2  0
 27 28  1  0
 29 28  2  0
 30 29  1  0
  1 31  1  0
  2 32  1  0
  8 33  1  0
  9 34  1  0
 10 35  1  0
 12 36  1  0
 13 37  1  0
 14 38  1  0
 15 39  1  0
 18 40  1  0
 19 41  1  0
 23 42  1  0
 26 43  1  0
 28 44  1  0
M  END
>  <Score>  (1) 
-8.05474

$$$$
