
     RDKit          3D

 49 53  0  0  0  0  0  0  0  0999 V2000
   41.3010   68.9250   58.7050 C   0  0  0  0  0  0  0  0  0  0  0  0
   41.5670   68.2590   59.9130 C   0  0  0  0  0  0  0  0  0  0  0  0
   41.9060   68.9240   61.0830 C   0  0  0  0  0  0  0  0  0  0  0  0
   41.9500   70.2940   60.9240 N   0  0  0  0  0  0  0  0  0  0  0  0
   41.6950   70.9380   59.7640 C   0  0  0  0  0  0  0  0  0  0  0  0
   41.3790   70.2510   58.6880 N   0  0  0  0  0  0  0  0  0  0  0  0
   42.2320   68.4550   62.3750 C   0  0  0  0  0  0  0  0  0  0  0  0
   43.6010   68.5780   62.7200 C   0  0  0  0  0  0  0  0  0  0  0  0
   44.1190   68.1740   63.9430 C   0  0  0  0  0  0  0  0  0  0  0  0
   43.2720   67.6250   64.8750 C   0  0  0  0  0  0  0  0  0  0  0  0
   41.9250   67.4780   64.6020 C   0  0  0  0  0  0  0  0  0  0  0  0
   41.0530   66.9380   65.5040 C   0  0  0  0  0  0  0  0  0  0  0  0
   39.7060   66.7740   65.2670 C   0  0  0  0  0  0  0  0  0  0  0  0
   39.2840   67.2060   64.0220 C   0  0  0  0  0  0  0  0  0  0  0  0
   40.1680   67.7500   63.1160 C   0  0  0  0  0  0  0  0  0  0  0  0
   41.4890   67.8980   63.3780 C   0  0  0  0  0  0  0  0  0  0  0  0
   41.7750   72.3940   59.7140 C   0  0  0  0  0  0  0  0  0  0  0  0
   42.9270   73.1160   59.9800 C   0  0  0  0  0  0  0  0  0  0  0  0
   42.5410   74.4400   59.8130 C   0  0  0  0  0  0  0  0  0  0  0  0
   41.1980   74.4540   59.4600 C   0  0  0  0  0  0  0  0  0  0  0  0
   40.8020   73.1960   59.4190 O   0  0  0  0  0  0  0  0  0  0  0  0
   40.3330   75.6500   59.1750 C   0  0  0  0  0  0  0  0  0  0  0  0
   41.2420   76.7920   58.8970 C   0  0  0  0  0  0  0  0  0  0  0  0
   40.5500   78.0760   59.3540 C   0  0  0  0  0  0  0  0  0  0  0  0
   40.5320   77.9740   60.8670 C   0  0  0  0  0  0  0  0  0  0  0  0
   39.7030   76.8080   61.3400 C   0  0  0  0  0  0  0  0  0  0  0  0
   39.3170   75.8650   60.2530 C   0  0  0  0  0  0  0  0  0  0  0  0
   41.0352   68.3634   57.7973 H   0  0  0  0  0  0  0  0  0  0  0  0
   41.5037   67.1610   59.9324 H   0  0  0  0  0  0  0  0  0  0  0  0
   44.2882   69.0159   61.9811 H   0  0  0  0  0  0  0  0  0  0  0  0
   45.1905   68.2916   64.1623 H   0  0  0  0  0  0  0  0  0  0  0  0
   43.6695   67.2994   65.8476 H   0  0  0  0  0  0  0  0  0  0  0  0
   41.4500   66.6148   66.4776 H   0  0  0  0  0  0  0  0  0  0  0  0
   39.0212   66.3351   66.0076 H   0  0  0  0  0  0  0  0  0  0  0  0
   38.2221   67.1133   63.7504 H   0  0  0  0  0  0  0  0  0  0  0  0
   39.7850   68.0781   62.1384 H   0  0  0  0  0  0  0  0  0  0  0  0
   43.9185   72.7300   60.2590 H   0  0  0  0  0  0  0  0  0  0  0  0
   43.1859   75.3223   59.9384 H   0  0  0  0  0  0  0  0  0  0  0  0
   39.7055   75.5061   58.2831 H   0  0  0  0  0  0  0  0  0  0  0  0
   42.1845   76.6604   59.4487 H   0  0  0  0  0  0  0  0  0  0  0  0
   41.4681   76.8444   57.8218 H   0  0  0  0  0  0  0  0  0  0  0  0
   41.1173   78.9609   59.0299 H   0  0  0  0  0  0  0  0  0  0  0  0
   39.5416   78.1844   58.9281 H   0  0  0  0  0  0  0  0  0  0  0  0
   41.5635   77.8469   61.2275 H   0  0  0  0  0  0  0  0  0  0  0  0
   40.0841   78.8959   61.2663 H   0  0  0  0  0  0  0  0  0  0  0  0
   40.2829   76.2523   62.0916 H   0  0  0  0  0  0  0  0  0  0  0  0
   38.7706   77.2231   61.7504 H   0  0  0  0  0  0  0  0  0  0  0  0
   38.4028   76.2533   59.7803 H   0  0  0  0  0  0  0  0  0  0  0  0
   39.1931   74.8870   60.7410 H   0  0  0  0  0  0  0  0  0  0  0  0
  1  2  2  0
  2  3  1  0
  3  7  1  0
  4  3  2  0
  5  4  1  0
  6  1  1  0
  6  5  2  0
  7  8  2  0
  7 16  1  0
  8  9  1  0
  9 10  2  0
 11 10  1  0
 11 12  2  0
 13 12  1  0
 14 13  2  0
 15 16  2  0
 15 14  1  0
 16 11  1  0
 17  5  1  0
 17 18  2  0
 19 18  1  0
 20 19  2  0
 21 20  1  0
 21 17  1  0
 22 20  1  0
 22 27  1  0
 23 22  1  0
 23 24  1  0
 24 25  1  0
 25 26  1  0
 27 26  1  0
  1 28  1  0
  2 29  1  0
  8 30  1  0
  9 31  1  0
 10 32  1  0
 12 33  1  0
 13 34  1  0
 14 35  1  0
 15 36  1  0
 18 37  1  0
 19 38  1  0
 22 39  1  0
 23 40  1  0
 23 41  1  0
 24 42  1  0
 24 43  1  0
 25 44  1  0
 25 45  1  0
 26 46  1  0
 26 47  1  0
 27 48  1  0
 27 49  1  0
M  END
>  <Score>  (1) 
-7.79976

$$$$
