
     RDKit          3D

 50 55  0  0  1  0  0  0  0  0999 V2000
   41.6010   67.9310   61.0090 C   0  0  0  0  0  0  0  0  0  0  0  0
   41.4500   66.8540   60.1590 C   0  0  0  0  0  0  0  0  0  0  0  0
   41.4850   67.4210   58.9070 C   0  0  0  0  0  0  0  0  0  0  0  0
   41.6450   68.7560   58.9620 N   0  0  0  0  0  0  0  0  0  0  0  0
   41.7110   69.0180   60.2480 N   0  0  0  0  0  0  0  0  0  0  0  0
   41.4330   69.5600   54.3670 N   0  0  0  0  0  0  0  0  0  0  0  0
   41.2150   68.2510   54.6570 C   0  0  0  0  0  0  0  0  0  0  0  0
   41.2910   68.1000   55.9930 N   0  0  0  0  0  0  0  0  0  0  0  0
   41.5520   69.2680   56.5900 C   0  0  0  0  0  0  0  0  0  0  0  0
   41.7270   69.6670   57.9080 C   0  0  1  0  0  0  0  0  0  0  0  0
   41.9810   70.9550   58.1350 N   0  0  0  0  0  0  0  0  0  0  0  0
   42.0680   71.8550   57.1180 C   0  0  0  0  0  0  0  0  0  0  0  0
   41.8960   71.4670   55.8260 N   0  0  0  0  0  0  0  0  0  0  0  0
   41.6340   70.1570   55.5410 C   0  0  0  0  0  0  0  0  0  0  0  0
   42.3500   73.2470   57.4550 C   0  0  0  0  0  0  0  0  0  0  0  0
   43.6520   73.6770   57.5840 C   0  0  0  0  0  0  0  0  0  0  0  0
   43.9210   75.0020   57.9040 C   0  0  0  0  0  0  0  0  0  0  0  0
   42.8350   75.8510   58.0840 C   0  0  0  0  0  0  0  0  0  0  0  0
   41.5240   75.4210   57.9550 C   0  0  0  0  0  0  0  0  0  0  0  0
   41.2990   74.1020   57.6360 C   0  0  0  0  0  0  0  0  0  0  0  0
   41.0450   66.8310   64.4530 C   0  0  0  0  0  0  0  0  0  0  0  0
   41.7390   67.8200   65.1350 C   0  0  0  0  0  0  0  0  0  0  0  0
   42.3880   68.8500   64.4860 C   0  0  0  0  0  0  0  0  0  0  0  0
   42.3150   68.8460   63.1350 N   0  0  0  0  0  0  0  0  0  0  0  0
   41.6360   67.8780   62.4740 C   0  0  0  0  0  0  0  0  0  0  0  0
   41.0000   66.8720   63.0950 N   0  0  0  0  0  0  0  0  0  0  0  0
   40.3640   65.7500   65.1110 C   0  0  0  0  0  0  0  0  0  0  0  0
   40.1900   65.8480   66.4750 C   0  0  0  0  0  0  0  0  0  0  0  0
   39.5510   64.8630   67.2280 C   0  0  0  0  0  0  0  0  0  0  0  0
   39.0810   63.7460   66.5360 C   0  0  0  0  0  0  0  0  0  0  0  0
   39.2410   63.6150   65.1500 C   0  0  0  0  0  0  0  0  0  0  0  0
   39.8750   64.6110   64.4690 C   0  0  0  0  0  0  0  0  0  0  0  0
   41.3300   65.7925   60.4214 H   0  0  0  0  0  0  0  0  0  0  0  0
   41.3931   66.8507   57.9709 H   0  0  0  0  0  0  0  0  0  0  0  0
   41.4412   69.9989   53.4352 H   0  0  0  0  0  0  0  0  0  0  0  0
   41.0118   67.4532   53.9275 H   0  0  0  0  0  0  0  0  0  0  0  0
   42.8058   69.4689   57.8247 H   0  0  0  0  0  0  0  0  0  0  0  0
   41.9630   72.1582   55.0653 H   0  0  0  0  0  0  0  0  0  0  0  0
   44.4809   72.9697   57.4333 H   0  0  0  0  0  0  0  0  0  0  0  0
   44.9538   75.3653   58.0108 H   0  0  0  0  0  0  0  0  0  0  0  0
   43.0236   76.9044   58.3386 H   0  0  0  0  0  0  0  0  0  0  0  0
   40.6849   76.1165   58.1039 H   0  0  0  0  0  0  0  0  0  0  0  0
   40.2684   73.7335   57.5260 H   0  0  0  0  0  0  0  0  0  0  0  0
   41.7730   67.7815   66.2338 H   0  0  0  0  0  0  0  0  0  0  0  0
   42.9341   69.6306   65.0360 H   0  0  0  0  0  0  0  0  0  0  0  0
   40.5714   66.7411   66.9916 H   0  0  0  0  0  0  0  0  0  0  0  0
   39.4235   64.9620   68.3161 H   0  0  0  0  0  0  0  0  0  0  0  0
   38.5711   62.9466   67.0937 H   0  0  0  0  0  0  0  0  0  0  0  0
   38.8628   62.7268   64.6226 H   0  0  0  0  0  0  0  0  0  0  0  0
   40.0052   64.5144   63.3810 H   0  0  0  0  0  0  0  0  0  0  0  0
  1 25  1  0
  2  1  1  0
  3  4  1  0
  3  2  2  0
  4  5  1  0
  5  1  2  0
  6  7  1  0
  6 14  1  0
  7  8  2  0
  8  9  1  0
  9 10  1  0
 10 11  1  0
 10  4  1  0
 12 15  1  0
 12 11  2  0
 13 12  1  0
 14 13  1  0
 14  9  2  0
 15 16  2  0
 15 20  1  0
 16 17  1  0
 17 18  2  0
 19 18  1  0
 20 19  2  0
 21 27  1  0
 21 22  2  0
 23 22  1  0
 24 23  2  0
 25 26  2  0
 25 24  1  0
 26 21  1  0
 27 28  2  0
 28 29  1  0
 30 29  2  0
 31 30  1  0
 32 27  1  0
 32 31  2  0
  2 33  1  0
  3 34  1  0
  6 35  1  0
  7 36  1  0
 10 37  1  6
 13 38  1  0
 16 39  1  0
 17 40  1  0
 18 41  1  0
 19 42  1  0
 20 43  1  0
 22 44  1  0
 23 45  1  0
 28 46  1  0
 29 47  1  0
 30 48  1  0
 31 49  1  0
 32 50  1  0
M  END
>  <Score>  (1) 
-7.96326

$$$$
