
     RDKit          3D

 46 50  0  0  1  0  0  0  0  0999 V2000
   43.4560   67.3290   61.6650 N   0  0  0  0  0  0  0  0  0  0  0  0
   44.5980   67.4990   62.5690 C   0  0  0  0  0  0  0  0  0  0  0  0
   45.7510   67.1140   61.7270 C   0  0  0  0  0  0  0  0  0  0  0  0
   45.3980   67.6380   60.3540 C   0  0  0  0  0  0  0  0  0  0  0  0
   43.9510   67.9760   60.4500 C   0  0  2  0  0  0  0  0  0  0  0  0
   42.2080   66.7040   61.9010 C   0  0  0  0  0  0  0  0  0  0  0  0
   41.3250   66.3540   60.8510 C   0  0  0  0  0  0  0  0  0  0  0  0
   40.1140   65.7410   61.1820 C   0  0  0  0  0  0  0  0  0  0  0  0
   39.8420   65.5090   62.5040 N   0  0  0  0  0  0  0  0  0  0  0  0
   40.7180   65.8630   63.4680 C   0  0  0  0  0  0  0  0  0  0  0  0
   41.8850   66.4530   63.1700 N   0  0  0  0  0  0  0  0  0  0  0  0
   40.3030   65.5620   64.7960 N   0  0  0  0  0  0  0  0  0  0  0  0
   39.5290   64.5400   65.1830 C   0  0  0  0  0  0  0  0  0  0  0  0
   39.2080   64.3780   66.5320 C   0  0  0  0  0  0  0  0  0  0  0  0
   39.6930   65.2810   67.4810 C   0  0  0  0  0  0  0  0  0  0  0  0
   39.3440   65.0830   68.8480 N   0  0  0  0  0  0  0  0  0  0  0  0
   40.4780   66.3080   67.0540 N   0  0  0  0  0  0  0  0  0  0  0  0
   40.7660   66.4310   65.7340 C   0  0  0  0  0  0  0  0  0  0  0  0
   41.4980   67.4180   65.4670 O   0  0  0  0  0  0  0  0  0  0  0  0
   43.6880   69.4050   60.5910 N   0  0  0  0  0  0  0  0  0  0  0  0
   44.2460   70.3350   59.7930 C   0  0  0  0  0  0  0  0  0  0  0  0
   43.8040   71.5600   60.1790 N   0  0  0  0  0  0  0  0  0  0  0  0
   42.9740   71.4080   61.2100 C   0  0  0  0  0  0  0  0  0  0  0  0
   42.2340   72.2720   62.0040 C   0  0  0  0  0  0  0  0  0  0  0  0
   41.4810   71.7660   62.9830 N   0  0  0  0  0  0  0  0  0  0  0  0
   41.4120   70.4460   63.2330 C   0  0  0  0  0  0  0  0  0  0  0  0
   42.1260   69.5770   62.4710 N   0  0  0  0  0  0  0  0  0  0  0  0
   42.9120   70.0410   61.4560 C   0  0  0  0  0  0  0  0  0  0  0  0
   44.6846   68.5431   62.9040 H   0  0  0  0  0  0  0  0  0  0  0  0
   44.5148   66.9012   63.4886 H   0  0  0  0  0  0  0  0  0  0  0  0
   46.6766   67.5796   62.0963 H   0  0  0  0  0  0  0  0  0  0  0  0
   45.9319   66.0290   61.7305 H   0  0  0  0  0  0  0  0  0  0  0  0
   45.5682   66.8678   59.5873 H   0  0  0  0  0  0  0  0  0  0  0  0
   46.0131   68.5023   60.0631 H   0  0  0  0  0  0  0  0  0  0  0  0
   43.4634   67.6429   59.5219 H   0  0  0  0  0  0  0  0  0  0  0  0
   41.5856   66.5593   59.8022 H   0  0  0  0  0  0  0  0  0  0  0  0
   39.3966   65.4518   60.3999 H   0  0  0  0  0  0  0  0  0  0  0  0
   39.1459   63.8277   64.4375 H   0  0  0  0  0  0  0  0  0  0  0  0
   38.5721   63.5379   66.8481 H   0  0  0  0  0  0  0  0  0  0  0  0
   39.6888   65.7348   69.5672 H   0  0  0  0  0  0  0  0  0  0  0  0
   38.7469   64.2881   69.1171 H   0  0  0  0  0  0  0  0  0  0  0  0
   44.9436   70.1359   58.9662 H   0  0  0  0  0  0  0  0  0  0  0  0
   42.9451   72.9689   62.4716 H   0  0  0  0  0  0  0  0  0  0  0  0
   41.5030   72.7093   61.3080 H   0  0  0  0  0  0  0  0  0  0  0  0
   40.7797   70.0716   64.0515 H   0  0  0  0  0  0  0  0  0  0  0  0
   42.0741   68.5657   62.6596 H   0  0  0  0  0  0  0  0  0  0  0  0
  1  6  1  0
  1  2  1  0
  3  2  1  0
  4  5  1  0
  4  3  1  0
  5 20  1  0
  5  1  1  0
  6 11  2  0
  7  8  2  0
  7  6  1  0
  8  9  1  0
  9 10  2  0
 10 12  1  0
 11 10  1  0
 12 13  1  0
 12 18  1  0
 13 14  2  0
 14 15  1  0
 15 16  1  0
 17 15  2  0
 18 17  1  0
 19 18  2  0
 20 28  1  0
 21 22  2  0
 21 20  1  0
 22 23  1  0
 23 28  2  0
 23 24  1  0
 24 25  1  0
 25 26  2  0
 27 26  1  0
 28 27  1  0
  2 29  1  0
  2 30  1  0
  3 31  1  0
  3 32  1  0
  4 33  1  0
  4 34  1  0
  5 35  1  6
  7 36  1  0
  8 37  1  0
 13 38  1  0
 14 39  1  0
 16 40  1  0
 16 41  1  0
 21 42  1  0
 24 43  1  0
 24 44  1  0
 26 45  1  0
 27 46  1  0
M  END
>  <Score>  (1) 
-7.12434

$$$$
