
     RDKit          3D

 47 52  0  0  1  0  0  0  0  0999 V2000
   41.5840   67.9340   60.9380 C   0  0  0  0  0  0  0  0  0  0  0  0
   41.5380   66.8390   60.0910 C   0  0  0  0  0  0  0  0  0  0  0  0
   41.4670   67.4040   58.8440 C   0  0  0  0  0  0  0  0  0  0  0  0
   41.4680   68.7490   58.8920 N   0  0  0  0  0  0  0  0  0  0  0  0
   41.5390   69.0410   60.1750 N   0  0  0  0  0  0  0  0  0  0  0  0
   41.2970   69.4840   54.2840 N   0  0  0  0  0  0  0  0  0  0  0  0
   41.3260   68.1640   54.5740 C   0  0  0  0  0  0  0  0  0  0  0  0
   41.3730   68.0330   55.9150 N   0  0  0  0  0  0  0  0  0  0  0  0
   41.3750   69.2270   56.5090 C   0  0  0  0  0  0  0  0  0  0  0  0
   41.4130   69.6530   57.8280 C   0  0  1  0  0  0  0  0  0  0  0  0
   41.4000   70.9620   58.0480 N   0  0  0  0  0  0  0  0  0  0  0  0
   41.3510   71.8710   57.0360 C   0  0  0  0  0  0  0  0  0  0  0  0
   41.3150   71.4520   55.7410 N   0  0  0  0  0  0  0  0  0  0  0  0
   41.3270   70.1180   55.4590 C   0  0  0  0  0  0  0  0  0  0  0  0
   41.3400   73.2680   57.3320 N   0  0  0  0  0  0  0  0  0  0  0  0
   41.3800   73.7280   58.6060 C   0  0  0  0  0  0  0  0  0  0  0  0
   41.3550   75.1210   58.5400 C   0  0  0  0  0  0  0  0  0  0  0  0
   41.3000   75.4460   57.2400 N   0  0  0  0  0  0  0  0  0  0  0  0
   41.2920   74.3220   56.5220 C   0  0  0  0  0  0  0  0  0  0  0  0
   41.1150   66.8920   64.4050 C   0  0  0  0  0  0  0  0  0  0  0  0
   41.8600   67.8680   65.0590 C   0  0  0  0  0  0  0  0  0  0  0  0
   42.5150   68.8680   64.3820 C   0  0  0  0  0  0  0  0  0  0  0  0
   42.3980   68.8550   63.0320 N   0  0  0  0  0  0  0  0  0  0  0  0
   41.6680   67.8970   62.3980 C   0  0  0  0  0  0  0  0  0  0  0  0
   41.0210   66.9130   63.0450 N   0  0  0  0  0  0  0  0  0  0  0  0
   40.4270   65.8350   65.0980 C   0  0  0  0  0  0  0  0  0  0  0  0
   40.2580   65.9820   66.4610 C   0  0  0  0  0  0  0  0  0  0  0  0
   39.6100   65.0160   67.2400 C   0  0  0  0  0  0  0  0  0  0  0  0
   39.1370   63.8880   66.5890 C   0  0  0  0  0  0  0  0  0  0  0  0
   39.2930   63.7100   65.2040 C   0  0  0  0  0  0  0  0  0  0  0  0
   39.9300   64.6810   64.4920 C   0  0  0  0  0  0  0  0  0  0  0  0
   41.5545   65.7714   60.3556 H   0  0  0  0  0  0  0  0  0  0  0  0
   41.4151   66.8242   57.9106 H   0  0  0  0  0  0  0  0  0  0  0  0
   41.2595   69.9130   53.3483 H   0  0  0  0  0  0  0  0  0  0  0  0
   41.3135   67.3412   53.8440 H   0  0  0  0  0  0  0  0  0  0  0  0
   42.5122   69.6702   57.7908 H   0  0  0  0  0  0  0  0  0  0  0  0
   41.2788   72.1410   54.9763 H   0  0  0  0  0  0  0  0  0  0  0  0
   41.4239   73.1177   59.5201 H   0  0  0  0  0  0  0  0  0  0  0  0
   41.3763   75.8185   59.3903 H   0  0  0  0  0  0  0  0  0  0  0  0
   41.2517   74.2738   55.4238 H   0  0  0  0  0  0  0  0  0  0  0  0
   41.9270   67.8380   66.1565 H   0  0  0  0  0  0  0  0  0  0  0  0
   43.1018   69.6365   64.9066 H   0  0  0  0  0  0  0  0  0  0  0  0
   40.6453   66.8878   66.9504 H   0  0  0  0  0  0  0  0  0  0  0  0
   39.4816   65.1471   68.3246 H   0  0  0  0  0  0  0  0  0  0  0  0
   38.6246   63.1095   67.1733 H   0  0  0  0  0  0  0  0  0  0  0  0
   38.9095   62.8072   64.7061 H   0  0  0  0  0  0  0  0  0  0  0  0
   40.0562   64.5513   63.4070 H   0  0  0  0  0  0  0  0  0  0  0  0
  1 24  1  0
  2  1  1  0
  3  4  1  0
  3  2  2  0
  4  5  1  0
  5  1  2  0
  6  7  1  0
  6 14  1  0
  7  8  2  0
  8  9  1  0
  9 10  1  0
 10 11  1  0
 10  4  1  0
 12 15  1  0
 12 11  2  0
 13 12  1  0
 14 13  1  0
 14  9  2  0
 15 16  1  0
 17 16  2  0
 18 17  1  0
 19 18  2  0
 19 15  1  0
 20 21  2  0
 20 26  1  0
 22 21  1  0
 23 22  2  0
 24 23  1  0
 24 25  2  0
 25 20  1  0
 26 27  2  0
 27 28  1  0
 29 28  2  0
 30 29  1  0
 31 26  1  0
 31 30  2  0
  2 32  1  0
  3 33  1  0
  6 34  1  0
  7 35  1  0
 10 36  1  6
 13 37  1  0
 16 38  1  0
 17 39  1  0
 19 40  1  0
 21 41  1  0
 22 42  1  0
 27 43  1  0
 28 44  1  0
 29 45  1  0
 30 46  1  0
 31 47  1  0
M  END
>  <Score>  (1) 
-7.95386

$$$$
