
     RDKit          3D

 38 42  0  0  0  0  0  0  0  0999 V2000
   40.9370   66.1130   63.5270 C   0  0  0  0  0  0  0  0  0  0  0  0
   41.0910   67.4940   63.4370 C   0  0  0  0  0  0  0  0  0  0  0  0
   41.6520   68.0850   62.3210 C   0  0  0  0  0  0  0  0  0  0  0  0
   42.0440   67.2630   61.3260 N   0  0  0  0  0  0  0  0  0  0  0  0
   41.8910   65.9270   61.4230 C   0  0  0  0  0  0  0  0  0  0  0  0
   41.3440   65.3540   62.5090 N   0  0  0  0  0  0  0  0  0  0  0  0
   40.3440   65.4750   64.6950 C   0  0  0  0  0  0  0  0  0  0  0  0
   40.4000   66.1240   65.8910 C   0  0  0  0  0  0  0  0  0  0  0  0
   39.8370   65.5340   67.0330 C   0  0  0  0  0  0  0  0  0  0  0  0
   39.2280   64.3190   66.9820 C   0  0  0  0  0  0  0  0  0  0  0  0
   39.1710   63.6590   65.7710 C   0  0  0  0  0  0  0  0  0  0  0  0
   39.7180   64.2250   64.6490 C   0  0  0  0  0  0  0  0  0  0  0  0
   41.8090   69.5130   62.2330 C   0  0  0  0  0  0  0  0  0  0  0  0
   42.1630   70.3490   63.2800 C   0  0  0  0  0  0  0  0  0  0  0  0
   42.1900   71.6260   62.7260 C   0  0  0  0  0  0  0  0  0  0  0  0
   41.8520   71.4840   61.3800 C   0  0  0  0  0  0  0  0  0  0  0  0
   41.6390   70.2270   61.1450 O   0  0  0  0  0  0  0  0  0  0  0  0
   41.7700   72.5840   60.4630 N   0  0  0  0  0  0  0  0  0  0  0  0
   42.5590   73.0490   59.4860 C   0  0  0  0  0  0  0  0  0  0  0  0
   41.9590   74.1470   58.9420 N   0  0  0  0  0  0  0  0  0  0  0  0
   40.7870   74.3500   59.6040 C   0  0  0  0  0  0  0  0  0  0  0  0
   39.8750   75.3570   59.3660 C   0  0  0  0  0  0  0  0  0  0  0  0
   38.7790   75.3500   60.1600 N   0  0  0  0  0  0  0  0  0  0  0  0
   38.6370   74.4020   61.1020 C   0  0  0  0  0  0  0  0  0  0  0  0
   39.5310   73.4230   61.3270 N   0  0  0  0  0  0  0  0  0  0  0  0
   40.6530   73.3580   60.5800 C   0  0  0  0  0  0  0  0  0  0  0  0
   40.7589   68.1281   64.2722 H   0  0  0  0  0  0  0  0  0  0  0  0
   42.2228   65.2886   60.5909 H   0  0  0  0  0  0  0  0  0  0  0  0
   40.8855   67.1085   65.9617 H   0  0  0  0  0  0  0  0  0  0  0  0
   39.8896   66.0676   67.9935 H   0  0  0  0  0  0  0  0  0  0  0  0
   38.7902   63.8718   67.8866 H   0  0  0  0  0  0  0  0  0  0  0  0
   38.6845   62.6746   65.7062 H   0  0  0  0  0  0  0  0  0  0  0  0
   39.6636   63.6849   63.6923 H   0  0  0  0  0  0  0  0  0  0  0  0
   42.3761   70.0656   64.3213 H   0  0  0  0  0  0  0  0  0  0  0  0
   42.4309   72.5639   63.2478 H   0  0  0  0  0  0  0  0  0  0  0  0
   43.5234   72.6202   59.1759 H   0  0  0  0  0  0  0  0  0  0  0  0
   40.0282   76.1148   58.5835 H   0  0  0  0  0  0  0  0  0  0  0  0
   37.7330   74.4286   61.7281 H   0  0  0  0  0  0  0  0  0  0  0  0
  1  7  1  0
  2  1  2  0
  3  2  1  0
  4  5  1  0
  4  3  2  0
  5  6  2  0
  6  1  1  0
  7  8  2  0
  8  9  1  0
 10  9  2  0
 11 10  1  0
 12  7  1  0
 12 11  2  0
 13  3  1  0
 13 14  2  0
 15 14  1  0
 16 15  2  0
 17 16  1  0
 17 13  1  0
 18 26  1  0
 18 16  1  0
 19 18  1  0
 20 19  2  0
 20 21  1  0
 21 26  2  0
 22 21  1  0
 22 23  2  0
 23 24  1  0
 24 25  2  0
 26 25  1  0
  2 27  1  0
  5 28  1  0
  8 29  1  0
  9 30  1  0
 10 31  1  0
 11 32  1  0
 12 33  1  0
 14 34  1  0
 15 35  1  0
 19 36  1  0
 22 37  1  0
 24 38  1  0
M  END
>  <Score>  (1) 
-8.09768

$$$$
