
     RDKit          3D

 46 51  0  0  1  0  0  0  0  0999 V2000
   41.5570   67.9040   60.9850 C   0  0  0  0  0  0  0  0  0  0  0  0
   41.5350   66.8210   60.1290 C   0  0  0  0  0  0  0  0  0  0  0  0
   41.4630   67.4000   58.8780 C   0  0  0  0  0  0  0  0  0  0  0  0
   41.4420   68.7320   58.9450 N   0  0  0  0  0  0  0  0  0  0  0  0
   41.4990   68.9990   60.2240 N   0  0  0  0  0  0  0  0  0  0  0  0
   41.2930   69.5430   54.3480 N   0  0  0  0  0  0  0  0  0  0  0  0
   41.3550   68.2150   54.6220 C   0  0  0  0  0  0  0  0  0  0  0  0
   41.3940   68.0610   55.9610 N   0  0  0  0  0  0  0  0  0  0  0  0
   41.3590   69.2470   56.5710 C   0  0  0  0  0  0  0  0  0  0  0  0
   41.3740   69.6620   57.8980 C   0  0  1  0  0  0  0  0  0  0  0  0
   41.3260   70.9670   58.1360 N   0  0  0  0  0  0  0  0  0  0  0  0
   41.2630   71.8860   57.1290 C   0  0  0  0  0  0  0  0  0  0  0  0
   41.2490   71.4730   55.8290 N   0  0  0  0  0  0  0  0  0  0  0  0
   41.2960   70.1500   55.5310 C   0  0  0  0  0  0  0  0  0  0  0  0
   41.2150   73.2510   57.5330 N   0  0  0  0  0  0  0  0  0  0  0  0
   41.7330   73.4830   58.7750 C   0  0  0  0  0  0  0  0  0  0  0  0
   41.6320   74.7960   59.0400 N   0  0  0  0  0  0  0  0  0  0  0  0
   41.0560   75.3470   57.9570 C   0  0  0  0  0  0  0  0  0  0  0  0
   40.8050   74.4060   57.0450 N   0  0  0  0  0  0  0  0  0  0  0  0
   41.0740   66.8220   64.4440 C   0  0  0  0  0  0  0  0  0  0  0  0
   41.8080   67.7950   65.1070 C   0  0  0  0  0  0  0  0  0  0  0  0
   42.4610   68.8100   64.4390 C   0  0  0  0  0  0  0  0  0  0  0  0
   42.3520   68.8090   63.0920 N   0  0  0  0  0  0  0  0  0  0  0  0
   41.6320   67.8520   62.4480 C   0  0  0  0  0  0  0  0  0  0  0  0
   40.9910   66.8610   63.0850 N   0  0  0  0  0  0  0  0  0  0  0  0
   40.3890   65.7560   65.1190 C   0  0  0  0  0  0  0  0  0  0  0  0
   40.2240   65.8760   66.4850 C   0  0  0  0  0  0  0  0  0  0  0  0
   39.5780   64.9040   67.2580 C   0  0  0  0  0  0  0  0  0  0  0  0
   39.0950   63.7800   66.5790 C   0  0  0  0  0  0  0  0  0  0  0  0
   39.2470   63.6280   65.1930 C   0  0  0  0  0  0  0  0  0  0  0  0
   39.8850   64.6110   64.4970 C   0  0  0  0  0  0  0  0  0  0  0  0
   41.5672   65.7513   60.3834 H   0  0  0  0  0  0  0  0  0  0  0  0
   41.4272   66.8306   57.9375 H   0  0  0  0  0  0  0  0  0  0  0  0
   41.2522   69.9869   53.4195 H   0  0  0  0  0  0  0  0  0  0  0  0
   41.3707   67.4038   53.8793 H   0  0  0  0  0  0  0  0  0  0  0  0
   42.4727   69.7073   57.8714 H   0  0  0  0  0  0  0  0  0  0  0  0
   41.2026   72.1682   55.0705 H   0  0  0  0  0  0  0  0  0  0  0  0
   42.1608   72.7230   59.4453 H   0  0  0  0  0  0  0  0  0  0  0  0
   40.8256   76.4162   57.8402 H   0  0  0  0  0  0  0  0  0  0  0  0
   41.8715   67.7556   66.2045 H   0  0  0  0  0  0  0  0  0  0  0  0
   43.0389   69.5783   64.9736 H   0  0  0  0  0  0  0  0  0  0  0  0
   40.6166   66.7729   66.9865 H   0  0  0  0  0  0  0  0  0  0  0  0
   39.4562   65.0182   68.3452 H   0  0  0  0  0  0  0  0  0  0  0  0
   38.5808   62.9922   67.1491 H   0  0  0  0  0  0  0  0  0  0  0  0
   38.8600   62.7356   64.6793 H   0  0  0  0  0  0  0  0  0  0  0  0
   40.0071   64.4991   63.4095 H   0  0  0  0  0  0  0  0  0  0  0  0
  1 24  1  0
  2  1  1  0
  3  4  1  0
  3  2  2  0
  4  5  1  0
  5  1  2  0
  6  7  1  0
  6 14  1  0
  7  8  2  0
  8  9  1  0
  9 10  1  0
 10 11  1  0
 10  4  1  0
 12 15  1  0
 12 11  2  0
 13 12  1  0
 14 13  1  0
 14  9  2  0
 15 16  1  0
 16 17  2  0
 18 17  1  0
 19 15  1  0
 19 18  2  0
 20 21  2  0
 20 26  1  0
 22 21  1  0
 23 22  2  0
 24 25  2  0
 24 23  1  0
 25 20  1  0
 26 27  2  0
 27 28  1  0
 29 28  2  0
 30 29  1  0
 31 26  1  0
 31 30  2  0
  2 32  1  0
  3 33  1  0
  6 34  1  0
  7 35  1  0
 10 36  1  6
 13 37  1  0
 16 38  1  0
 18 39  1  0
 21 40  1  0
 22 41  1  0
 27 42  1  0
 28 43  1  0
 29 44  1  0
 30 45  1  0
 31 46  1  0
M  END
>  <Score>  (1) 
-7.97649

$$$$
