
     RDKit          3D

 42 46  0  0  1  0  0  0  0  0999 V2000
   41.5920   67.9660   60.8840 C   0  0  0  0  0  0  0  0  0  0  0  0
   41.4590   66.8640   60.0590 C   0  0  0  0  0  0  0  0  0  0  0  0
   41.4940   67.4050   58.7900 C   0  0  0  0  0  0  0  0  0  0  0  0
   41.6370   68.7410   58.8170 N   0  0  0  0  0  0  0  0  0  0  0  0
   41.6920   69.0350   60.0940 N   0  0  0  0  0  0  0  0  0  0  0  0
   41.4270   69.4270   54.2050 N   0  0  0  0  0  0  0  0  0  0  0  0
   41.2160   68.1290   54.5260 C   0  0  0  0  0  0  0  0  0  0  0  0
   41.2890   68.0100   55.8640 N   0  0  0  0  0  0  0  0  0  0  0  0
   41.5440   69.1910   56.4310 C   0  0  0  0  0  0  0  0  0  0  0  0
   41.7160   69.6260   57.7430 C   0  0  1  0  0  0  0  0  0  0  0  0
   41.9630   70.9160   57.9290 N   0  0  0  0  0  0  0  0  0  0  0  0
   42.0480   71.7990   56.9010 C   0  0  0  0  0  0  0  0  0  0  0  0
   41.8800   71.3720   55.6160 N   0  0  0  0  0  0  0  0  0  0  0  0
   41.6260   70.0660   55.3650 C   0  0  0  0  0  0  0  0  0  0  0  0
   42.3160   73.1700   57.1720 N   0  0  0  0  0  0  0  0  0  0  0  0
   41.0420   66.9500   64.3480 C   0  0  0  0  0  0  0  0  0  0  0  0
   41.7050   67.9740   65.0140 C   0  0  0  0  0  0  0  0  0  0  0  0
   42.3320   69.0020   64.3410 C   0  0  0  0  0  0  0  0  0  0  0  0
   42.2670   68.9590   62.9890 N   0  0  0  0  0  0  0  0  0  0  0  0
   41.6190   67.9560   62.3510 C   0  0  0  0  0  0  0  0  0  0  0  0
   41.0080   66.9560   62.9970 N   0  0  0  0  0  0  0  0  0  0  0  0
   40.3860   65.8710   65.0340 C   0  0  0  0  0  0  0  0  0  0  0  0
   40.2280   65.9990   66.4020 C   0  0  0  0  0  0  0  0  0  0  0  0
   39.6050   65.0060   67.1790 C   0  0  0  0  0  0  0  0  0  0  0  0
   39.1440   63.8630   66.5010 C   0  0  0  0  0  0  0  0  0  0  0  0
   39.2950   63.7170   65.1170 C   0  0  0  0  0  0  0  0  0  0  0  0
   39.9070   64.7130   64.4180 C   0  0  0  0  0  0  0  0  0  0  0  0
   41.3510   65.8076   60.3461 H   0  0  0  0  0  0  0  0  0  0  0  0
   41.4143   66.8131   57.8662 H   0  0  0  0  0  0  0  0  0  0  0  0
   41.4332   69.8392   53.2611 H   0  0  0  0  0  0  0  0  0  0  0  0
   41.0189   67.3126   53.8156 H   0  0  0  0  0  0  0  0  0  0  0  0
   42.7957   69.4303   57.6663 H   0  0  0  0  0  0  0  0  0  0  0  0
   41.9464   72.0429   54.8373 H   0  0  0  0  0  0  0  0  0  0  0  0
   42.3817   73.8449   56.3967 H   0  0  0  0  0  0  0  0  0  0  0  0
   42.4443   73.4874   58.1434 H   0  0  0  0  0  0  0  0  0  0  0  0
   41.7306   67.9644   66.1137 H   0  0  0  0  0  0  0  0  0  0  0  0
   42.8551   69.8108   64.8723 H   0  0  0  0  0  0  0  0  0  0  0  0
   40.6017   66.9068   66.8983 H   0  0  0  0  0  0  0  0  0  0  0  0
   39.4838   65.1180   68.2666 H   0  0  0  0  0  0  0  0  0  0  0  0
   38.6519   63.0629   67.0734 H   0  0  0  0  0  0  0  0  0  0  0  0
   38.9268   62.8161   64.6043 H   0  0  0  0  0  0  0  0  0  0  0  0
   40.0281   64.6013   63.3304 H   0  0  0  0  0  0  0  0  0  0  0  0
  1 20  1  0
  2  1  1  0
  3  4  1  0
  3  2  2  0
  4  5  1  0
  5  1  2  0
  6  7  1  0
  6 14  1  0
  7  8  2  0
  8  9  1  0
  9 10  1  0
 10 11  1  0
 10  4  1  0
 12 15  1  0
 12 11  2  0
 13 12  1  0
 14 13  1  0
 14  9  2  0
 16 17  2  0
 16 22  1  0
 18 17  1  0
 19 18  2  0
 20 19  1  0
 20 21  2  0
 21 16  1  0
 22 23  2  0
 23 24  1  0
 25 24  2  0
 26 25  1  0
 27 22  1  0
 27 26  2  0
  2 28  1  0
  3 29  1  0
  6 30  1  0
  7 31  1  0
 10 32  1  6
 13 33  1  0
 15 34  1  0
 15 35  1  0
 17 36  1  0
 18 37  1  0
 23 38  1  0
 24 39  1  0
 25 40  1  0
 26 41  1  0
 27 42  1  0
M  END
>  <Score>  (1) 
-7.26196

$$$$
