
     RDKit          3D

 34 37  0  0  0  0  0  0  0  0999 V2000
   40.7260   65.7230   63.3220 C   0  0  0  0  0  0  0  0  0  0  0  0
   40.0140   66.6670   62.5690 C   0  0  0  0  0  0  0  0  0  0  0  0
   40.5210   67.0880   61.3370 C   0  0  0  0  0  0  0  0  0  0  0  0
   41.7110   66.5310   60.9400 N   0  0  0  0  0  0  0  0  0  0  0  0
   42.3610   65.6300   61.6880 C   0  0  0  0  0  0  0  0  0  0  0  0
   41.8720   65.2250   62.8770 N   0  0  0  0  0  0  0  0  0  0  0  0
   43.5910   65.0890   61.2220 N   0  0  0  0  0  0  0  0  0  0  0  0
   43.7480   64.1800   60.2360 C   0  0  0  0  0  0  0  0  0  0  0  0
   45.0370   63.8670   60.0270 N   0  0  0  0  0  0  0  0  0  0  0  0
   45.7290   64.6160   60.9270 C   0  0  0  0  0  0  0  0  0  0  0  0
   47.0730   64.6780   61.1380 C   0  0  0  0  0  0  0  0  0  0  0  0
   47.9530   64.0270   60.5140 O   0  0  0  0  0  0  0  0  0  0  0  0
   47.5470   65.4980   62.0920 N   0  0  0  0  0  0  0  0  0  0  0  0
   46.6480   66.2210   62.7930 C   0  0  0  0  0  0  0  0  0  0  0  0
   47.0350   67.1230   63.8290 N   0  0  0  0  0  0  0  0  0  0  0  0
   45.2980   66.1800   62.6050 N   0  0  0  0  0  0  0  0  0  0  0  0
   44.8230   65.3580   61.6490 C   0  0  0  0  0  0  0  0  0  0  0  0
   40.2130   65.2670   64.6170 C   0  0  0  0  0  0  0  0  0  0  0  0
   40.3720   66.0910   65.7000 C   0  0  0  0  0  0  0  0  0  0  0  0
   39.9280   65.7630   66.9770 C   0  0  0  0  0  0  0  0  0  0  0  0
   39.3060   64.5590   67.1320 C   0  0  0  0  0  0  0  0  0  0  0  0
   39.1200   63.6970   66.0890 C   0  0  0  0  0  0  0  0  0  0  0  0
   39.5800   64.0630   64.8320 C   0  0  0  0  0  0  0  0  0  0  0  0
   39.0635   67.0732   62.9452 H   0  0  0  0  0  0  0  0  0  0  0  0
   39.9935   67.8279   60.7170 H   0  0  0  0  0  0  0  0  0  0  0  0
   42.9131   63.7445   59.6674 H   0  0  0  0  0  0  0  0  0  0  0  0
   48.5569   65.5718   62.2807 H   0  0  0  0  0  0  0  0  0  0  0  0
   46.3185   67.6570   64.3411 H   0  0  0  0  0  0  0  0  0  0  0  0
   48.0309   67.2400   64.0646 H   0  0  0  0  0  0  0  0  0  0  0  0
   40.8748   67.0582   65.5528 H   0  0  0  0  0  0  0  0  0  0  0  0
   40.0726   66.4465   67.8267 H   0  0  0  0  0  0  0  0  0  0  0  0
   38.9422   64.2728   68.1299 H   0  0  0  0  0  0  0  0  0  0  0  0
   38.6155   62.7316   66.2424 H   0  0  0  0  0  0  0  0  0  0  0  0
   39.4355   63.3744   63.9864 H   0  0  0  0  0  0  0  0  0  0  0  0
  1 18  1  0
  2  1  2  0
  3  2  1  0
  4  3  2  0
  4  5  1  0
  5  6  2  0
  6  1  1  0
  7 17  1  0
  7  5  1  0
  8  7  1  0
  9  8  2  0
  9 10  1  0
 10 11  1  0
 10 17  2  0
 11 13  1  0
 12 11  2  0
 13 14  1  0
 14 15  1  0
 16 14  2  0
 17 16  1  0
 18 23  1  0
 18 19  2  0
 19 20  1  0
 20 21  2  0
 22 21  1  0
 23 22  2  0
  2 24  1  0
  3 25  1  0
  8 26  1  0
 13 27  1  0
 15 28  1  0
 15 29  1  0
 19 30  1  0
 20 31  1  0
 21 32  1  0
 22 33  1  0
 23 34  1  0
M  END
>  <Score>  (1) 
-7.16782

$$$$
