
     RDKit          3D

 40 43  0  0  0  0  0  0  0  0999 V2000
   40.8660   66.2000   63.4270 C   0  0  0  0  0  0  0  0  0  0  0  0
   41.0450   67.5810   63.3790 C   0  0  0  0  0  0  0  0  0  0  0  0
   41.5930   68.2010   62.2680 C   0  0  0  0  0  0  0  0  0  0  0  0
   41.9510   67.4160   61.2270 N   0  0  0  0  0  0  0  0  0  0  0  0
   41.7740   66.0760   61.2820 C   0  0  0  0  0  0  0  0  0  0  0  0
   41.2390   65.4750   62.3670 N   0  0  0  0  0  0  0  0  0  0  0  0
   40.3020   65.5250   64.5620 C   0  0  0  0  0  0  0  0  0  0  0  0
   40.3240   66.1610   65.7750 C   0  0  0  0  0  0  0  0  0  0  0  0
   39.7880   65.5550   66.9210 C   0  0  0  0  0  0  0  0  0  0  0  0
   39.2280   64.3120   66.8630 C   0  0  0  0  0  0  0  0  0  0  0  0
   39.1980   63.6570   65.6510 C   0  0  0  0  0  0  0  0  0  0  0  0
   39.7230   64.2530   64.5290 C   0  0  0  0  0  0  0  0  0  0  0  0
   41.7730   69.6250   62.2320 C   0  0  0  0  0  0  0  0  0  0  0  0
   42.1320   70.4250   63.2890 C   0  0  0  0  0  0  0  0  0  0  0  0
   42.1930   71.7330   62.8230 C   0  0  0  0  0  0  0  0  0  0  0  0
   41.8600   71.6340   61.4890 C   0  0  0  0  0  0  0  0  0  0  0  0
   41.6220   70.3870   61.1810 O   0  0  0  0  0  0  0  0  0  0  0  0
   41.8080   72.7830   60.6390 N   0  0  0  0  0  0  0  0  0  0  0  0
   42.8220   73.3050   59.9240 C   0  0  0  0  0  0  0  0  0  0  0  0
   42.5990   74.4250   59.1490 C   0  0  0  0  0  0  0  0  0  0  0  0
   43.7240   74.9780   58.3750 C   0  0  0  0  0  0  0  0  0  0  0  0
   41.3700   75.0530   59.0650 C   0  0  0  0  0  0  0  0  0  0  0  0
   41.2000   76.0800   58.3430 O   0  0  0  0  0  0  0  0  0  0  0  0
   40.3790   74.5030   59.7940 N   0  0  0  0  0  0  0  0  0  0  0  0
   40.5990   73.4100   60.5490 C   0  0  0  0  0  0  0  0  0  0  0  0
   39.5930   72.9780   61.1940 O   0  0  0  0  0  0  0  0  0  0  0  0
   40.7445   68.1925   64.2425 H   0  0  0  0  0  0  0  0  0  0  0  0
   42.0734   65.4601   60.4212 H   0  0  0  0  0  0  0  0  0  0  0  0
   40.7695   67.1638   65.8517 H   0  0  0  0  0  0  0  0  0  0  0  0
   39.8196   66.0902   67.8815 H   0  0  0  0  0  0  0  0  0  0  0  0
   38.8091   63.8425   67.7653 H   0  0  0  0  0  0  0  0  0  0  0  0
   38.7524   62.6537   65.5811 H   0  0  0  0  0  0  0  0  0  0  0  0
   39.6863   63.7106   63.5727 H   0  0  0  0  0  0  0  0  0  0  0  0
   42.3344   70.0912   64.3174 H   0  0  0  0  0  0  0  0  0  0  0  0
   42.4487   72.6405   63.3896 H   0  0  0  0  0  0  0  0  0  0  0  0
   43.8197   72.8429   59.9571 H   0  0  0  0  0  0  0  0  0  0  0  0
   44.4930   75.3560   59.0648 H   0  0  0  0  0  0  0  0  0  0  0  0
   44.1557   74.1894   57.7411 H   0  0  0  0  0  0  0  0  0  0  0  0
   43.3633   75.8015   57.7411 H   0  0  0  0  0  0  0  0  0  0  0  0
   39.4396   74.9249   59.7734 H   0  0  0  0  0  0  0  0  0  0  0  0
  1  7  1  0
  2  1  2  0
  3  2  1  0
  4  5  1  0
  4  3  2  0
  5  6  2  0
  6  1  1  0
  7  8  2  0
  8  9  1  0
 10  9  2  0
 11 10  1  0
 12  7  1  0
 12 11  2  0
 13  3  1  0
 13 14  2  0
 15 14  1  0
 16 15  2  0
 17 16  1  0
 17 13  1  0
 18 16  1  0
 19 18  1  0
 20 19  2  0
 21 20  1  0
 22 20  1  0
 22 24  1  0
 23 22  2  0
 24 25  1  0
 25 18  1  0
 25 26  2  0
  2 27  1  0
  5 28  1  0
  8 29  1  0
  9 30  1  0
 10 31  1  0
 11 32  1  0
 12 33  1  0
 14 34  1  0
 15 35  1  0
 19 36  1  0
 21 37  1  0
 21 38  1  0
 21 39  1  0
 24 40  1  0
M  END
>  <Score>  (1) 
-7.85131

$$$$
