
     RDKit          3D

 49 53  0  0  0  0  0  0  0  0999 V2000
   41.0930   66.1840   62.3730 C   0  0  0  0  0  0  0  0  0  0  0  0
   40.4350   66.8610   61.3080 C   0  0  0  0  0  0  0  0  0  0  0  0
   40.9490   66.6430   60.0190 C   0  0  0  0  0  0  0  0  0  0  0  0
   42.0110   65.8280   59.8580 N   0  0  0  0  0  0  0  0  0  0  0  0
   42.6030   65.2070   60.8970 C   0  0  0  0  0  0  0  0  0  0  0  0
   42.1580   65.3730   62.1680 N   0  0  0  0  0  0  0  0  0  0  0  0
   40.5850   66.3940   63.6590 N   0  0  0  0  0  0  0  0  0  0  0  0
   40.2440   67.6240   64.0740 C   0  0  0  0  0  0  0  0  0  0  0  0
   39.7700   67.6310   65.3420 N   0  0  0  0  0  0  0  0  0  0  0  0
   39.8060   66.3610   65.7620 C   0  0  0  0  0  0  0  0  0  0  0  0
   39.4950   65.6030   66.9000 C   0  0  0  0  0  0  0  0  0  0  0  0
   39.6620   64.2860   66.9800 N   0  0  0  0  0  0  0  0  0  0  0  0
   40.1580   63.6340   65.9170 C   0  0  0  0  0  0  0  0  0  0  0  0
   40.4940   64.2430   64.7740 N   0  0  0  0  0  0  0  0  0  0  0  0
   40.3130   65.6040   64.7100 C   0  0  0  0  0  0  0  0  0  0  0  0
   43.7440   64.3510   60.6030 C   0  0  0  0  0  0  0  0  0  0  0  0
   43.5940   63.2460   59.8120 C   0  0  0  0  0  0  0  0  0  0  0  0
   44.6880   62.4560   59.5510 C   0  0  0  0  0  0  0  0  0  0  0  0
   45.8990   62.8270   60.1120 C   0  0  0  0  0  0  0  0  0  0  0  0
   46.0790   63.9200   60.9030 C   0  0  0  0  0  0  0  0  0  0  0  0
   44.9710   64.7330   61.1750 C   0  0  0  0  0  0  0  0  0  0  0  0
   45.1510   65.9010   62.0120 C   0  0  0  0  0  0  0  0  0  0  0  0
   45.5830   65.7880   63.1950 O   0  0  0  0  0  0  0  0  0  0  0  0
   44.9600   67.2980   61.8620 N   0  0  0  0  0  0  0  0  0  0  0  0
   45.7310   67.9320   60.8170 C   0  0  0  0  0  0  0  0  0  0  0  0
   44.7550   68.1650   59.6580 C   0  0  0  0  0  0  0  0  0  0  0  0
   43.4830   68.6460   60.1670 N   0  0  0  0  0  0  0  0  0  0  0  0
   43.6810   69.2800   61.4600 C   0  0  0  0  0  0  0  0  0  0  0  0
   44.1290   68.3150   62.5280 C   0  0  0  0  0  0  0  0  0  0  0  0
   39.5713   67.5189   61.4846 H   0  0  0  0  0  0  0  0  0  0  0  0
   40.4890   67.1331   59.1483 H   0  0  0  0  0  0  0  0  0  0  0  0
   40.3392   68.5266   63.4525 H   0  0  0  0  0  0  0  0  0  0  0  0
   40.0943   66.0307   67.7173 H   0  0  0  0  0  0  0  0  0  0  0  0
   38.3976   65.6779   66.9104 H   0  0  0  0  0  0  0  0  0  0  0  0
   40.2951   62.5450   65.9890 H   0  0  0  0  0  0  0  0  0  0  0  0
   40.8725   63.7140   63.9754 H   0  0  0  0  0  0  0  0  0  0  0  0
   42.6104   62.9925   59.3899 H   0  0  0  0  0  0  0  0  0  0  0  0
   44.6048   61.5600   58.9184 H   0  0  0  0  0  0  0  0  0  0  0  0
   46.7751   62.1951   59.9040 H   0  0  0  0  0  0  0  0  0  0  0  0
   47.0693   64.1589   61.3181 H   0  0  0  0  0  0  0  0  0  0  0  0
   46.1405   68.8896   61.1709 H   0  0  0  0  0  0  0  0  0  0  0  0
   46.5831   67.3085   60.5086 H   0  0  0  0  0  0  0  0  0  0  0  0
   44.5972   67.2190   59.1193 H   0  0  0  0  0  0  0  0  0  0  0  0
   45.1781   68.9174   58.9762 H   0  0  0  0  0  0  0  0  0  0  0  0
   43.0869   69.3305   59.5071 H   0  0  0  0  0  0  0  0  0  0  0  0
   44.4457   70.0634   61.3526 H   0  0  0  0  0  0  0  0  0  0  0  0
   42.7113   69.6924   61.7756 H   0  0  0  0  0  0  0  0  0  0  0  0
   43.2559   67.8407   63.0000 H   0  0  0  0  0  0  0  0  0  0  0  0
   44.6957   68.8334   63.3154 H   0  0  0  0  0  0  0  0  0  0  0  0
  1  7  1  0
  2  1  2  0
  3  2  1  0
  4  3  2  0
  4  5  1  0
  5  6  2  0
  6  1  1  0
  7  8  1  0
  7 15  1  0
  8  9  2  0
  9 10  1  0
 10 11  1  0
 11 12  1  0
 13 12  2  0
 14 13  1  0
 15 14  1  0
 15 10  2  0
 16  5  1  0
 16 21  1  0
 17 16  2  0
 18 17  1  0
 18 19  2  0
 19 20  1  0
 20 21  2  0
 21 22  1  0
 22 23  2  0
 24 22  1  0
 24 29  1  0
 25 24  1  0
 26 27  1  0
 26 25  1  0
 27 28  1  0
 28 29  1  0
  2 30  1  0
  3 31  1  0
  8 32  1  0
 11 33  1  0
 11 34  1  0
 13 35  1  0
 14 36  1  0
 17 37  1  0
 18 38  1  0
 19 39  1  0
 20 40  1  0
 25 41  1  0
 25 42  1  0
 26 43  1  0
 26 44  1  0
 27 45  1  0
 28 46  1  0
 28 47  1  0
 29 48  1  0
 29 49  1  0
M  END
>  <Score>  (1) 
-7.13656

$$$$
