
     RDKit          3D

 41 44  0  0  0  0  0  0  0  0999 V2000
   41.5140   66.2660   62.4490 C   0  0  0  0  0  0  0  0  0  0  0  0
   40.8370   67.0260   61.4890 C   0  0  0  0  0  0  0  0  0  0  0  0
   41.1980   66.8340   60.1490 C   0  0  0  0  0  0  0  0  0  0  0  0
   42.1580   65.9460   59.8380 N   0  0  0  0  0  0  0  0  0  0  0  0
   42.8050   65.2120   60.8080 C   0  0  0  0  0  0  0  0  0  0  0  0
   42.4560   65.4010   62.0750 N   0  0  0  0  0  0  0  0  0  0  0  0
   43.7940   64.2750   60.4130 N   0  0  0  0  0  0  0  0  0  0  0  0
   45.1340   64.0840   60.6120 C   0  0  0  0  0  0  0  0  0  0  0  0
   45.4770   62.8860   60.0010 N   0  0  0  0  0  0  0  0  0  0  0  0
   44.4220   62.5160   59.3130 C   0  0  0  0  0  0  0  0  0  0  0  0
   43.3780   63.3400   59.5660 N   0  0  0  0  0  0  0  0  0  0  0  0
   41.1510   66.4520   63.8550 C   0  0  0  0  0  0  0  0  0  0  0  0
   41.4690   67.5490   64.6700 C   0  0  0  0  0  0  0  0  0  0  0  0
   40.9470   67.3160   65.8800 N   0  0  0  0  0  0  0  0  0  0  0  0
   40.2980   66.1070   65.8900 C   0  0  0  0  0  0  0  0  0  0  0  0
   39.5990   65.4090   66.8770 C   0  0  0  0  0  0  0  0  0  0  0  0
   39.0340   64.1810   66.5960 C   0  0  0  0  0  0  0  0  0  0  0  0
   39.1600   63.6290   65.3150 C   0  0  0  0  0  0  0  0  0  0  0  0
   39.8500   64.3210   64.3450 C   0  0  0  0  0  0  0  0  0  0  0  0
   40.4290   65.5730   64.6230 C   0  0  0  0  0  0  0  0  0  0  0  0
   44.5360   61.3780   58.5110 C   0  0  0  0  0  0  0  0  0  0  0  0
   44.1540   61.3610   57.3060 O   0  0  0  0  0  0  0  0  0  0  0  0
   45.1290   60.1060   58.7820 N   0  0  0  0  0  0  0  0  0  0  0  0
   44.5770   59.0530   59.5220 C   0  0  0  0  0  0  0  0  0  0  0  0
   43.4080   59.2070   60.0350 N   0  0  0  0  0  0  0  0  0  0  0  0
   45.3230   57.8270   59.6980 N   0  0  0  0  0  0  0  0  0  0  0  0
   42.8770   58.5360   60.5960 H   0  0  0  0  0  0  0  0  0  0  0  0
   40.0542   67.7441   61.7744 H   0  0  0  0  0  0  0  0  0  0  0  0
   40.6979   67.4076   59.3547 H   0  0  0  0  0  0  0  0  0  0  0  0
   45.7027   64.9116   60.1629 H   0  0  0  0  0  0  0  0  0  0  0  0
   45.3668   64.0529   61.6866 H   0  0  0  0  0  0  0  0  0  0  0  0
   42.4300   63.2568   59.1719 H   0  0  0  0  0  0  0  0  0  0  0  0
   42.0426   68.4381   64.3693 H   0  0  0  0  0  0  0  0  0  0  0  0
   41.0216   67.9519   66.6868 H   0  0  0  0  0  0  0  0  0  0  0  0
   39.4980   65.8400   67.8840 H   0  0  0  0  0  0  0  0  0  0  0  0
   38.4849   63.6362   67.3781 H   0  0  0  0  0  0  0  0  0  0  0  0
   38.7116   62.6510   65.0858 H   0  0  0  0  0  0  0  0  0  0  0  0
   39.9500   63.8889   63.3384 H   0  0  0  0  0  0  0  0  0  0  0  0
   46.0675   59.9459   58.3890 H   0  0  0  0  0  0  0  0  0  0  0  0
   44.9184   57.0516   60.2420 H   0  0  0  0  0  0  0  0  0  0  0  0
   46.2590   57.7291   59.2794 H   0  0  0  0  0  0  0  0  0  0  0  0
  1 12  1  0
  2  1  2  0
  3  2  1  0
  4  3  2  0
  4  5  1  0
  5  6  2  0
  6  1  1  0
  7  8  1  0
  7  5  1  0
  9  8  1  0
 10 11  1  0
 10  9  2  0
 11  7  1  0
 12 20  1  0
 12 13  2  0
 13 14  1  0
 14 15  1  0
 15 16  2  0
 17 16  1  0
 18 17  2  0
 19 20  2  0
 19 18  1  0
 20 15  1  0
 21 23  1  0
 21 10  1  0
 22 21  2  0
 23 24  1  0
 24 26  1  0
 24 25  2  0
 25 27  1  0
  2 28  1  0
  3 29  1  0
  8 30  1  0
  8 31  1  0
 11 32  1  0
 13 33  1  0
 14 34  1  0
 16 35  1  0
 17 36  1  0
 18 37  1  0
 19 38  1  0
 23 39  1  0
 26 40  1  0
 26 41  1  0
M  END
>  <Score>  (1) 
-7.27767

$$$$
