
     RDKit          3D

 43 45  0  0  1  0  0  0  0  0999 V2000
   39.8660   64.5770   64.3830 C   0  0  0  0  0  0  0  0  0  0  0  0
   39.4430   65.3000   65.5230 C   0  0  0  0  0  0  0  0  0  0  0  0
   39.8740   66.6110   65.6270 C   0  0  0  0  0  0  0  0  0  0  0  0
   40.6610   67.1040   64.6380 N   0  0  0  0  0  0  0  0  0  0  0  0
   41.0510   66.3910   63.5570 C   0  0  0  0  0  0  0  0  0  0  0  0
   40.6460   65.1240   63.4380 N   0  0  0  0  0  0  0  0  0  0  0  0
   41.8690   67.1600   62.7090 N   0  0  0  0  0  0  0  0  0  0  0  0
   41.7150   68.4950   62.5880 C   0  0  0  0  0  0  0  0  0  0  0  0
   42.5870   69.1920   61.7490 C   0  0  0  0  0  0  0  0  0  0  0  0
   43.5530   68.4560   61.0960 C   0  0  0  0  0  0  0  0  0  0  0  0
   44.4200   69.1860   60.2120 N   0  0  0  0  0  0  0  0  0  0  0  0
   43.6690   67.1260   61.2450 N   0  0  0  0  0  0  0  0  0  0  0  0
   42.8140   66.4450   62.0690 C   0  0  0  0  0  0  0  0  0  0  0  0
   42.9560   65.2090   62.1800 O   0  0  0  0  0  0  0  0  0  0  0  0
   42.5100   70.6890   61.6920 C   0  0  2  0  0  0  0  0  0  0  0  0
   41.9170   71.2770   62.9100 C   0  0  0  0  0  0  0  0  0  0  0  0
   41.5510   70.9890   60.4880 C   0  0  0  0  0  0  0  0  0  0  0  0
   41.2390   75.2270   59.8520 C   0  0  0  0  0  0  0  0  0  0  0  0
   40.1430   74.5170   60.2950 C   0  0  0  0  0  0  0  0  0  0  0  0
   40.2080   73.1560   60.5090 C   0  0  0  0  0  0  0  0  0  0  0  0
   41.3580   72.4240   60.2980 C   0  0  0  0  0  0  0  0  0  0  0  0
   42.4610   73.1610   59.8480 C   0  0  0  0  0  0  0  0  0  0  0  0
   42.3910   74.5140   59.6360 C   0  0  0  0  0  0  0  0  0  0  0  0
   41.2420   76.9380   59.5570 S   0  0  0  0  0  0  0  0  0  0  0  0
   40.4010   77.6530   60.5960 O   0  0  0  0  0  0  0  0  0  0  0  0
   42.6310   77.5220   59.6890 O   0  0  0  0  0  0  0  0  0  0  0  0
   39.5447   63.5313   64.2673 H   0  0  0  0  0  0  0  0  0  0  0  0
   38.8018   64.8418   66.2905 H   0  0  0  0  0  0  0  0  0  0  0  0
   39.5869   67.2349   66.4862 H   0  0  0  0  0  0  0  0  0  0  0  0
   40.9211   69.0220   63.1374 H   0  0  0  0  0  0  0  0  0  0  0  0
   44.3139   70.2057   60.1126 H   0  0  0  0  0  0  0  0  0  0  0  0
   45.1474   68.6894   59.6780 H   0  0  0  0  0  0  0  0  0  0  0  0
   43.5183   71.1173   61.5924 H   0  0  0  0  0  0  0  0  0  0  0  0
   42.3771   70.8207   63.7989 H   0  0  0  0  0  0  0  0  0  0  0  0
   42.0985   72.3619   62.9192 H   0  0  0  0  0  0  0  0  0  0  0  0
   40.8337   71.0864   62.9192 H   0  0  0  0  0  0  0  0  0  0  0  0
   41.9850   70.5629   59.5714 H   0  0  0  0  0  0  0  0  0  0  0  0
   40.5725   70.5367   60.7070 H   0  0  0  0  0  0  0  0  0  0  0  0
   39.1973   75.0470   60.4816 H   0  0  0  0  0  0  0  0  0  0  0  0
   39.3068   72.6334   60.8620 H   0  0  0  0  0  0  0  0  0  0  0  0
   43.4108   72.6393   59.6592 H   0  0  0  0  0  0  0  0  0  0  0  0
   43.2870   75.0445   59.2815 H   0  0  0  0  0  0  0  0  0  0  0  0
   40.7549   77.1099   58.2881 H   0  0  0  0  0  0  0  0  0  0  0  0
  1  2  2  0
  2  3  1  0
  4  3  2  0
  5  4  1  0
  6  5  2  0
  6  1  1  0
  7  5  1  0
  8  7  1  0
  9  8  2  0
 10 12  2  0
 10  9  1  0
 11 10  1  0
 12 13  1  0
 13 14  2  0
 13  7  1  0
 15  9  1  0
 15 16  1  0
 17 15  1  0
 18 19  2  0
 19 20  1  0
 21 17  1  0
 21 20  2  0
 22 21  1  0
 23 22  2  0
 23 18  1  0
 24 26  2  0
 24 18  1  0
 24 25  2  0
  1 27  1  0
  2 28  1  0
  3 29  1  0
  8 30  1  0
 11 31  1  0
 11 32  1  0
 15 33  1  6
 16 34  1  0
 16 35  1  0
 16 36  1  0
 17 37  1  0
 17 38  1  0
 19 39  1  0
 20 40  1  0
 22 41  1  0
 23 42  1  0
 24 43  1  0
M  END
>  <Score>  (1) 
-7.09294

$$$$
