
     RDKit          3D

 42 45  0  0  1  0  0  0  0  0999 V2000
   39.5090   64.2080   65.3940 C   0  0  0  0  0  0  0  0  0  0  0  0
   39.6110   65.1030   66.4810 C   0  0  0  0  0  0  0  0  0  0  0  0
   40.2060   66.3440   66.2430 C   0  0  0  0  0  0  0  0  0  0  0  0
   40.6500   66.6170   64.9820 N   0  0  0  0  0  0  0  0  0  0  0  0
   40.5280   65.7250   63.9800 C   0  0  0  0  0  0  0  0  0  0  0  0
   39.9670   64.5360   64.1750 N   0  0  0  0  0  0  0  0  0  0  0  0
   41.0170   66.1060   62.7020 N   0  0  0  0  0  0  0  0  0  0  0  0
   41.3150   65.4610   61.5550 C   0  0  0  0  0  0  0  0  0  0  0  0
   41.7380   66.3180   60.6340 N   0  0  0  0  0  0  0  0  0  0  0  0
   41.7130   67.5530   61.1980 C   0  0  0  0  0  0  0  0  0  0  0  0
   42.0390   68.7840   60.7100 C   0  0  0  0  0  0  0  0  0  0  0  0
   42.4490   68.8480   59.5210 O   0  0  0  0  0  0  0  0  0  0  0  0
   41.9440   69.9230   61.4460 N   0  0  0  0  0  0  0  0  0  0  0  0
   41.5160   69.7510   62.6710 C   0  0  0  0  0  0  0  0  0  0  0  0
   41.4600   70.8800   63.5530 N   0  0  0  0  0  0  0  0  0  0  0  0
   41.1820   68.5890   63.2070 N   0  0  0  0  0  0  0  0  0  0  0  0
   41.2570   67.4280   62.5090 C   0  0  0  0  0  0  0  0  0  0  0  0
   42.6620   72.5840   58.4160 N   0  0  0  0  0  0  0  0  0  0  0  0
   41.3390   72.5360   58.9150 C   0  0  0  0  0  0  0  0  0  0  0  0
   41.0970   71.8110   60.1410 C   0  0  0  0  0  0  0  0  0  0  0  0
   42.2670   71.2500   60.9270 C   0  0  2  0  0  0  0  0  0  0  0  0
   43.5640   71.2890   60.2060 C   0  0  0  0  0  0  0  0  0  0  0  0
   43.6560   72.5940   59.4130 C   0  0  2  0  0  0  0  0  0  0  0  0
   43.7230   73.7890   60.3000 C   0  0  0  0  0  0  0  0  0  0  0  0
   44.8960   74.4730   60.3010 F   0  0  0  0  0  0  0  0  0  0  0  0
   43.5680   73.3010   61.6050 F   0  0  0  0  0  0  0  0  0  0  0  0
   42.6290   74.5950   60.0810 F   0  0  0  0  0  0  0  0  0  0  0  0
   39.0452   63.2226   65.5486 H   0  0  0  0  0  0  0  0  0  0  0  0
   39.2356   64.8328   67.4790 H   0  0  0  0  0  0  0  0  0  0  0  0
   40.3139   67.0823   67.0513 H   0  0  0  0  0  0  0  0  0  0  0  0
   41.2205   64.3755   61.4041 H   0  0  0  0  0  0  0  0  0  0  0  0
   41.1257   70.7620   64.5201 H   0  0  0  0  0  0  0  0  0  0  0  0
   41.7541   71.8091   63.2196 H   0  0  0  0  0  0  0  0  0  0  0  0
   42.8120   71.7582   57.8189 H   0  0  0  0  0  0  0  0  0  0  0  0
   41.0152   73.5741   59.0808 H   0  0  0  0  0  0  0  0  0  0  0  0
   40.7804   71.9744   58.1518 H   0  0  0  0  0  0  0  0  0  0  0  0
   40.5588   72.4942   60.8145 H   0  0  0  0  0  0  0  0  0  0  0  0
   40.5603   70.9117   59.8046 H   0  0  0  0  0  0  0  0  0  0  0  0
   42.4232   71.9248   61.7815 H   0  0  0  0  0  0  0  0  0  0  0  0
   44.3901   71.2392   60.9307 H   0  0  0  0  0  0  0  0  0  0  0  0
   43.6327   70.4322   59.5195 H   0  0  0  0  0  0  0  0  0  0  0  0
   44.6124   72.6709   58.8751 H   0  0  0  0  0  0  0  0  0  0  0  0
  1  2  2  0
  3  2  1  0
  4  3  2  0
  5  6  2  0
  5  4  1  0
  6  1  1  0
  7  5  1  0
  8  7  1  0
  9 10  1  0
  9  8  2  0
 10 17  2  0
 11 10  1  0
 11 13  1  0
 12 11  2  0
 13 14  1  0
 14 16  2  0
 14 15  1  0
 17  7  1  0
 17 16  1  0
 18 19  1  0
 18 23  1  0
 19 20  1  0
 20 21  1  0
 21 13  1  0
 22 21  1  0
 23 22  1  0
 23 24  1  0
 24 25  1  0
 24 26  1  0
 27 24  1  0
  1 28  1  0
  2 29  1  0
  3 30  1  0
  8 31  1  0
 15 32  1  0
 15 33  1  0
 18 34  1  0
 19 35  1  0
 19 36  1  0
 20 37  1  0
 20 38  1  0
 21 39  1  1
 22 40  1  0
 22 41  1  0
 23 42  1  6
M  END
>  <Score>  (1) 
-7.36581

$$$$
