
     RDKit          3D

 45 49  0  0  1  0  0  0  0  0999 V2000
   42.6150   72.2150   60.4380 N   0  0  0  0  0  0  0  0  0  0  0  0
   43.5700   73.2030   60.9540 C   0  0  0  0  0  0  0  0  0  0  0  0
   44.0670   74.1370   59.8960 C   0  0  0  0  0  0  0  0  0  0  0  0
   44.2580   73.3850   58.6200 C   0  0  0  0  0  0  0  0  0  0  0  0
   42.9750   72.8210   58.0950 C   0  0  0  0  0  0  0  0  0  0  0  0
   42.0330   72.2990   59.1510 C   0  0  2  0  0  0  0  0  0  0  0  0
   41.5330   70.3370   63.4500 C   0  0  0  0  0  0  0  0  0  0  0  0
   41.8670   71.3890   62.5960 C   0  0  0  0  0  0  0  0  0  0  0  0
   42.2880   71.1540   61.2890 C   0  0  0  0  0  0  0  0  0  0  0  0
   42.3490   69.8620   60.9120 N   0  0  0  0  0  0  0  0  0  0  0  0
   42.0270   68.8350   61.7350 C   0  0  0  0  0  0  0  0  0  0  0  0
   41.6210   69.0990   63.0030 N   0  0  0  0  0  0  0  0  0  0  0  0
   40.7730   73.1240   59.2070 C   0  0  0  0  0  0  0  0  0  0  0  0
   39.6470   72.9820   60.0260 C   0  0  0  0  0  0  0  0  0  0  0  0
   38.7490   73.9780   59.7110 C   0  0  0  0  0  0  0  0  0  0  0  0
   39.3700   74.6920   58.7080 C   0  0  0  0  0  0  0  0  0  0  0  0
   40.5280   74.1470   58.4670 O   0  0  0  0  0  0  0  0  0  0  0  0
   38.8490   75.8350   58.0340 N   0  0  0  0  0  0  0  0  0  0  0  0
   37.9230   75.8950   57.0600 C   0  0  0  0  0  0  0  0  0  0  0  0
   37.7140   77.1800   56.6940 N   0  0  0  0  0  0  0  0  0  0  0  0
   38.4970   77.9660   57.4210 C   0  0  0  0  0  0  0  0  0  0  0  0
   38.7910   79.2990   57.5740 C   0  0  0  0  0  0  0  0  0  0  0  0
   39.6910   79.7760   58.4580 N   0  0  0  0  0  0  0  0  0  0  0  0
   40.3570   78.9240   59.2520 C   0  0  0  0  0  0  0  0  0  0  0  0
   40.1070   77.5940   59.1440 N   0  0  0  0  0  0  0  0  0  0  0  0
   39.1970   77.1180   58.2490 C   0  0  0  0  0  0  0  0  0  0  0  0
   38.0800   80.2170   56.7250 N   0  0  0  0  0  0  0  0  0  0  0  0
   43.0752   73.7931   61.7395 H   0  0  0  0  0  0  0  0  0  0  0  0
   44.4386   72.6518   61.3436 H   0  0  0  0  0  0  0  0  0  0  0  0
   43.3323   74.9410   59.7417 H   0  0  0  0  0  0  0  0  0  0  0  0
   45.0259   74.5734   60.2122 H   0  0  0  0  0  0  0  0  0  0  0  0
   44.6787   74.0675   57.8669 H   0  0  0  0  0  0  0  0  0  0  0  0
   44.9367   72.5437   58.8238 H   0  0  0  0  0  0  0  0  0  0  0  0
   42.4564   73.6138   57.5359 H   0  0  0  0  0  0  0  0  0  0  0  0
   43.2493   71.9574   57.4714 H   0  0  0  0  0  0  0  0  0  0  0  0
   41.7867   71.2709   58.8471 H   0  0  0  0  0  0  0  0  0  0  0  0
   41.2016   70.5370   64.4796 H   0  0  0  0  0  0  0  0  0  0  0  0
   41.7965   72.4239   62.9620 H   0  0  0  0  0  0  0  0  0  0  0  0
   42.0940   67.7965   61.3787 H   0  0  0  0  0  0  0  0  0  0  0  0
   39.5033   72.2059   60.7921 H   0  0  0  0  0  0  0  0  0  0  0  0
   37.7609   74.1620   60.1581 H   0  0  0  0  0  0  0  0  0  0  0  0
   37.4101   75.0249   56.6244 H   0  0  0  0  0  0  0  0  0  0  0  0
   41.0937   79.2970   59.9787 H   0  0  0  0  0  0  0  0  0  0  0  0
   38.2598   81.2287   56.7958 H   0  0  0  0  0  0  0  0  0  0  0  0
   37.3911   79.8626   56.0462 H   0  0  0  0  0  0  0  0  0  0  0  0
  1  2  1  0
  1  9  1  0
  3  2  1  0
  4  3  1  0
  5  4  1  0
  5  6  1  0
  6 13  1  0
  6  1  1  0
  8  7  2  0
  9  8  1  0
 10  9  2  0
 10 11  1  0
 11 12  2  0
 12  7  1  0
 13 14  2  0
 15 14  1  0
 16 15  2  0
 17 16  1  0
 17 13  1  0
 18 26  1  0
 18 16  1  0
 19 18  1  0
 20 19  2  0
 20 21  1  0
 21 22  2  0
 21 26  1  0
 22 23  1  0
 23 24  2  0
 25 24  1  0
 26 25  2  0
 27 22  1  0
  2 28  1  0
  2 29  1  0
  3 30  1  0
  3 31  1  0
  4 32  1  0
  4 33  1  0
  5 34  1  0
  5 35  1  0
  6 36  1  6
  7 37  1  0
  8 38  1  0
 11 39  1  0
 14 40  1  0
 15 41  1  0
 19 42  1  0
 24 43  1  0
 27 44  1  0
 27 45  1  0
M  END
>  <Score>  (1) 
-7.23775

$$$$
