
     RDKit          3D

 49 54  0  0  0  0  0  0  0  0999 V2000
   41.5640   67.6890   61.3250 N   0  0  0  0  0  0  0  0  0  0  0  0
   41.9110   68.9280   60.9070 C   0  0  0  0  0  0  0  0  0  0  0  0
   42.0690   69.1610   59.5590 C   0  0  0  0  0  0  0  0  0  0  0  0
   41.8650   68.1180   58.6840 C   0  0  0  0  0  0  0  0  0  0  0  0
   42.0250   68.3350   57.2790 N   0  0  0  0  0  0  0  0  0  0  0  0
   41.5140   66.8760   59.1440 N   0  0  0  0  0  0  0  0  0  0  0  0
   41.3720   66.7000   60.4800 C   0  0  0  0  0  0  0  0  0  0  0  0
   41.0440   65.5520   60.9310 O   0  0  0  0  0  0  0  0  0  0  0  0
   42.4340   70.4540   59.0890 N   0  0  0  0  0  0  0  0  0  0  0  0
   43.5710   71.1390   59.1880 C   0  0  0  0  0  0  0  0  0  0  0  0
   43.3740   72.3260   58.5580 N   0  0  0  0  0  0  0  0  0  0  0  0
   42.1110   72.3740   58.0670 C   0  0  0  0  0  0  0  0  0  0  0  0
   41.4370   73.3530   57.3600 C   0  0  0  0  0  0  0  0  0  0  0  0
   41.9580   74.4460   57.0400 O   0  0  0  0  0  0  0  0  0  0  0  0
   40.1610   73.1610   56.9780 N   0  0  0  0  0  0  0  0  0  0  0  0
   39.5910   71.9750   57.3240 C   0  0  0  0  0  0  0  0  0  0  0  0
   38.2420   71.5880   57.0050 N   0  0  0  0  0  0  0  0  0  0  0  0
   40.2140   71.0010   58.0100 N   0  0  0  0  0  0  0  0  0  0  0  0
   41.5040   71.1760   58.4050 C   0  0  0  0  0  0  0  0  0  0  0  0
   40.8470   66.7310   64.8800 C   0  0  0  0  0  0  0  0  0  0  0  0
   40.8670   66.6720   63.5210 C   0  0  0  0  0  0  0  0  0  0  0  0
   41.4360   67.5720   62.7230 C   0  0  0  0  0  0  0  0  0  0  0  0
   42.0030   68.5680   63.3980 C   0  0  0  0  0  0  0  0  0  0  0  0
   41.7190   68.2160   65.2080 S   0  0  0  0  0  0  0  0  0  0  0  0
   40.2510   65.7970   65.8300 C   0  0  0  0  0  0  0  0  0  0  0  0
   40.0970   66.1620   67.1670 C   0  0  0  0  0  0  0  0  0  0  0  0
   39.5100   65.1810   67.9880 C   0  0  0  0  0  0  0  0  0  0  0  0
   39.1430   63.9730   67.4300 N   0  0  0  0  0  0  0  0  0  0  0  0
   39.3240   63.6890   66.1240 C   0  0  0  0  0  0  0  0  0  0  0  0
   39.8750   64.6140   65.3590 N   0  0  0  0  0  0  0  0  0  0  0  0
   38.9240   62.4220   65.6060 N   0  0  0  0  0  0  0  0  0  0  0  0
   39.1860   61.2120   66.1210 C   0  0  0  0  0  0  0  0  0  0  0  0
   38.5850   60.3020   65.2580 C   0  0  0  0  0  0  0  0  0  0  0  0
   37.9820   60.9580   64.2580 N   0  0  0  0  0  0  0  0  0  0  0  0
   38.1990   62.2510   64.4870 C   0  0  0  0  0  0  0  0  0  0  0  0
   42.0649   69.7387   61.6344 H   0  0  0  0  0  0  0  0  0  0  0  0
   42.2888   69.2670   56.9286 H   0  0  0  0  0  0  0  0  0  0  0  0
   41.8764   67.5593   56.6179 H   0  0  0  0  0  0  0  0  0  0  0  0
   44.4943   70.8070   59.6853 H   0  0  0  0  0  0  0  0  0  0  0  0
   39.6415   73.8765   56.4498 H   0  0  0  0  0  0  0  0  0  0  0  0
   37.8853   70.6693   57.3045 H   0  0  0  0  0  0  0  0  0  0  0  0
   37.6333   72.2297   56.4772 H   0  0  0  0  0  0  0  0  0  0  0  0
   40.3737   65.8122   63.0441 H   0  0  0  0  0  0  0  0  0  0  0  0
   42.5356   69.4311   62.9720 H   0  0  0  0  0  0  0  0  0  0  0  0
   40.4109   67.1436   67.5514 H   0  0  0  0  0  0  0  0  0  0  0  0
   39.3461   65.3741   69.0584 H   0  0  0  0  0  0  0  0  0  0  0  0
   39.7564   60.9865   67.0341 H   0  0  0  0  0  0  0  0  0  0  0  0
   38.6023   59.2088   65.3785 H   0  0  0  0  0  0  0  0  0  0  0  0
   37.8346   63.0685   63.8476 H   0  0  0  0  0  0  0  0  0  0  0  0
  1 22  1  0
  2  1  1  0
  3  2  2  0
  4  6  2  0
  4  3  1  0
  5  4  1  0
  6  7  1  0
  7  8  2  0
  7  1  1  0
  9 10  1  0
  9  3  1  0
 11 10  2  0
 12 19  2  0
 12 11  1  0
 13 12  1  0
 14 13  2  0
 15 16  1  0
 15 13  1  0
 16 18  2  0
 17 16  1  0
 18 19  1  0
 19  9  1  0
 20 24  1  0
 20 25  1  0
 21 20  2  0
 22 23  2  0
 22 21  1  0
 23 24  1  0
 25 26  2  0
 26 27  1  0
 28 27  2  0
 29 28  1  0
 30 25  1  0
 30 29  2  0
 31 32  1  0
 31 29  1  0
 33 32  2  0
 34 35  2  0
 34 33  1  0
 35 31  1  0
  2 36  1  0
  5 37  1  0
  5 38  1  0
 10 39  1  0
 15 40  1  0
 17 41  1  0
 17 42  1  0
 21 43  1  0
 23 44  1  0
 26 45  1  0
 27 46  1  0
 32 47  1  0
 33 48  1  0
 35 49  1  0
M  END
>  <Score>  (1) 
-7.06653

$$$$
