
     RDKit          3D

 41 44  0  0  0  0  0  0  0  0999 V2000
   42.2360   69.0120   61.5640 N   0  0  0  0  0  0  0  0  0  0  0  0
   41.9720   70.2340   61.9150 C   0  0  0  0  0  0  0  0  0  0  0  0
   42.6390   71.2880   61.3390 C   0  0  0  0  0  0  0  0  0  0  0  0
   43.5620   71.0150   60.4100 C   0  0  0  0  0  0  0  0  0  0  0  0
   44.1930   71.9590   59.8610 O   0  0  0  0  0  0  0  0  0  0  0  0
   43.7950   69.7210   60.0830 N   0  0  0  0  0  0  0  0  0  0  0  0
   43.1270   68.6840   60.6620 C   0  0  0  0  0  0  0  0  0  0  0  0
   43.4230   67.5180   60.2820 O   0  0  0  0  0  0  0  0  0  0  0  0
   40.4560   66.1760   63.8200 C   0  0  0  0  0  0  0  0  0  0  0  0
   40.0990   66.1010   62.5000 C   0  0  0  0  0  0  0  0  0  0  0  0
   40.6530   67.0190   61.6740 C   0  0  0  0  0  0  0  0  0  0  0  0
   41.5070   67.9300   62.1970 C   0  0  0  0  0  0  0  0  0  0  0  0
   41.5850   67.5330   63.9710 S   0  0  0  0  0  0  0  0  0  0  0  0
   40.0250   65.3300   64.9450 C   0  0  0  0  0  0  0  0  0  0  0  0
   40.0510   65.7290   66.2680 C   0  0  0  0  0  0  0  0  0  0  0  0
   39.6110   64.8220   67.2220 C   0  0  0  0  0  0  0  0  0  0  0  0
   39.1830   63.6050   66.8250 N   0  0  0  0  0  0  0  0  0  0  0  0
   39.1680   63.2380   65.5200 C   0  0  0  0  0  0  0  0  0  0  0  0
   39.5900   64.1180   64.6330 N   0  0  0  0  0  0  0  0  0  0  0  0
   38.7160   61.9470   65.1220 N   0  0  0  0  0  0  0  0  0  0  0  0
   42.2660   72.6570   61.8110 C   0  0  0  0  0  0  0  0  0  0  0  0
   41.0000   72.9930   61.0870 C   0  0  0  0  0  0  0  0  0  0  0  0
   40.6190   72.7910   59.7580 C   0  0  0  0  0  0  0  0  0  0  0  0
   39.3160   73.2890   59.5720 C   0  0  0  0  0  0  0  0  0  0  0  0
   38.9810   73.7690   60.8160 C   0  0  0  0  0  0  0  0  0  0  0  0
   39.9640   73.5850   61.6630 O   0  0  0  0  0  0  0  0  0  0  0  0
   37.7120   74.3680   61.0500 N   0  0  0  0  0  0  0  0  0  0  0  0
   41.2067   70.4272   62.6811 H   0  0  0  0  0  0  0  0  0  0  0  0
   44.5061   69.5126   59.3676 H   0  0  0  0  0  0  0  0  0  0  0  0
   39.3999   65.3361   62.1310 H   0  0  0  0  0  0  0  0  0  0  0  0
   40.4143   67.0247   60.6002 H   0  0  0  0  0  0  0  0  0  0  0  0
   40.4076   66.7294   66.5546 H   0  0  0  0  0  0  0  0  0  0  0  0
   39.6111   65.0916   68.2884 H   0  0  0  0  0  0  0  0  0  0  0  0
   38.7123   61.6873   64.1253 H   0  0  0  0  0  0  0  0  0  0  0  0
   38.3928   61.2733   65.8309 H   0  0  0  0  0  0  0  0  0  0  0  0
   42.0998   72.6577   62.8984 H   0  0  0  0  0  0  0  0  0  0  0  0
   43.0605   73.3907   61.6100 H   0  0  0  0  0  0  0  0  0  0  0  0
   41.2384   72.3184   58.9814 H   0  0  0  0  0  0  0  0  0  0  0  0
   38.7114   73.2932   58.6530 H   0  0  0  0  0  0  0  0  0  0  0  0
   37.4751   74.7231   61.9874 H   0  0  0  0  0  0  0  0  0  0  0  0
   37.0301   74.4466   60.2820 H   0  0  0  0  0  0  0  0  0  0  0  0
  1  2  1  0
  1 12  1  0
  3 21  1  0
  3  2  2  0
  4  3  1  0
  5  4  2  0
  6  4  1  0
  6  7  1  0
  7  1  1  0
  8  7  2  0
  9 13  1  0
  9 14  1  0
 10  9  2  0
 11 12  2  0
 11 10  1  0
 12 13  1  0
 14 15  2  0
 15 16  1  0
 17 16  2  0
 18 17  1  0
 19 14  1  0
 19 18  2  0
 20 18  1  0
 22 26  1  0
 22 21  1  0
 23 22  2  0
 24 23  1  0
 24 25  2  0
 25 27  1  0
 25 26  1  0
  2 28  1  0
  6 29  1  0
 10 30  1  0
 11 31  1  0
 15 32  1  0
 16 33  1  0
 20 34  1  0
 20 35  1  0
 21 36  1  0
 21 37  1  0
 23 38  1  0
 24 39  1  0
 27 40  1  0
 27 41  1  0
M  END
>  <Score>  (1) 
-7.74166

$$$$
