
     RDKit          3D

 50 54  0  0  0  0  0  0  0  0999 V2000
   41.0980   66.1660   62.3690 C   0  0  0  0  0  0  0  0  0  0  0  0
   40.4190   66.8160   61.3000 C   0  0  0  0  0  0  0  0  0  0  0  0
   40.9250   66.5840   60.0130 C   0  0  0  0  0  0  0  0  0  0  0  0
   41.9960   65.7830   59.8550 N   0  0  0  0  0  0  0  0  0  0  0  0
   42.6080   65.1880   60.8980 C   0  0  0  0  0  0  0  0  0  0  0  0
   42.1700   65.3710   62.1630 N   0  0  0  0  0  0  0  0  0  0  0  0
   40.5960   66.3910   63.6570 N   0  0  0  0  0  0  0  0  0  0  0  0
   40.2680   67.6210   64.0600 C   0  0  0  0  0  0  0  0  0  0  0  0
   39.7980   67.6450   65.3250 N   0  0  0  0  0  0  0  0  0  0  0  0
   39.8210   66.3820   65.7590 C   0  0  0  0  0  0  0  0  0  0  0  0
   39.5080   65.6280   66.9050 C   0  0  0  0  0  0  0  0  0  0  0  0
   39.6650   64.3110   66.9920 N   0  0  0  0  0  0  0  0  0  0  0  0
   40.1550   63.6480   65.9340 C   0  0  0  0  0  0  0  0  0  0  0  0
   40.4910   64.2470   64.7870 N   0  0  0  0  0  0  0  0  0  0  0  0
   40.3190   65.6090   64.7170 C   0  0  0  0  0  0  0  0  0  0  0  0
   43.7600   64.3430   60.6070 C   0  0  0  0  0  0  0  0  0  0  0  0
   43.6150   63.2480   59.8000 C   0  0  0  0  0  0  0  0  0  0  0  0
   44.7270   62.4670   59.5430 C   0  0  0  0  0  0  0  0  0  0  0  0
   45.9270   62.8400   60.1200 C   0  0  0  0  0  0  0  0  0  0  0  0
   46.0890   63.9280   60.9270 C   0  0  0  0  0  0  0  0  0  0  0  0
   44.9770   64.7270   61.1970 C   0  0  0  0  0  0  0  0  0  0  0  0
   45.1370   65.8870   62.0490 C   0  0  0  0  0  0  0  0  0  0  0  0
   45.5220   65.7660   63.2440 O   0  0  0  0  0  0  0  0  0  0  0  0
   44.9680   67.2880   61.9080 N   0  0  0  0  0  0  0  0  0  0  0  0
   45.7890   67.9150   60.8940 C   0  0  0  0  0  0  0  0  0  0  0  0
   44.9370   68.2210   59.6620 C   0  0  0  0  0  0  0  0  0  0  0  0
   43.5840   68.7220   60.1170 C   0  0  0  0  0  0  0  0  0  0  0  0
   43.6770   69.3200   61.5060 C   0  0  0  0  0  0  0  0  0  0  0  0
   44.1260   68.3130   62.5470 C   0  0  0  0  0  0  0  0  0  0  0  0
   39.5469   67.4635   61.4737 H   0  0  0  0  0  0  0  0  0  0  0  0
   40.4504   67.0530   59.1385 H   0  0  0  0  0  0  0  0  0  0  0  0
   40.3697   68.5169   63.4299 H   0  0  0  0  0  0  0  0  0  0  0  0
   40.1134   66.0552   67.7180 H   0  0  0  0  0  0  0  0  0  0  0  0
   38.4111   65.7100   66.9172 H   0  0  0  0  0  0  0  0  0  0  0  0
   40.2868   62.5588   66.0139 H   0  0  0  0  0  0  0  0  0  0  0  0
   40.8628   63.7109   63.9899 H   0  0  0  0  0  0  0  0  0  0  0  0
   42.6367   62.9946   59.3656 H   0  0  0  0  0  0  0  0  0  0  0  0
   44.6590   61.5772   58.8999 H   0  0  0  0  0  0  0  0  0  0  0  0
   46.8104   62.2176   59.9145 H   0  0  0  0  0  0  0  0  0  0  0  0
   47.0731   64.1699   61.3549 H   0  0  0  0  0  0  0  0  0  0  0  0
   46.2092   68.8511   61.2903 H   0  0  0  0  0  0  0  0  0  0  0  0
   46.6064   67.2346   60.6133 H   0  0  0  0  0  0  0  0  0  0  0  0
   44.8106   67.3067   59.0636 H   0  0  0  0  0  0  0  0  0  0  0  0
   45.4315   68.9870   59.0465 H   0  0  0  0  0  0  0  0  0  0  0  0
   43.2284   69.4909   59.4153 H   0  0  0  0  0  0  0  0  0  0  0  0
   42.8819   67.8755   60.1413 H   0  0  0  0  0  0  0  0  0  0  0  0
   44.3989   70.1497   61.4845 H   0  0  0  0  0  0  0  0  0  0  0  0
   42.6709   69.6638   61.7881 H   0  0  0  0  0  0  0  0  0  0  0  0
   43.2444   67.8342   62.9980 H   0  0  0  0  0  0  0  0  0  0  0  0
   44.7044   68.8272   63.3287 H   0  0  0  0  0  0  0  0  0  0  0  0
  1  7  1  0
  2  1  2  0
  3  2  1  0
  4  3  2  0
  4  5  1  0
  5  6  2  0
  6  1  1  0
  7  8  1  0
  7 15  1  0
  8  9  2  0
  9 10  1  0
 10 11  1  0
 11 12  1  0
 13 12  2  0
 14 13  1  0
 15 14  1  0
 15 10  2  0
 16  5  1  0
 16 21  1  0
 17 16  2  0
 18 17  1  0
 18 19  2  0
 19 20  1  0
 20 21  2  0
 21 22  1  0
 22 23  2  0
 24 22  1  0
 24 29  1  0
 25 24  1  0
 26 27  1  0
 26 25  1  0
 27 28  1  0
 28 29  1  0
  2 30  1  0
  3 31  1  0
  8 32  1  0
 11 33  1  0
 11 34  1  0
 13 35  1  0
 14 36  1  0
 17 37  1  0
 18 38  1  0
 19 39  1  0
 20 40  1  0
 25 41  1  0
 25 42  1  0
 26 43  1  0
 26 44  1  0
 27 45  1  0
 27 46  1  0
 28 47  1  0
 28 48  1  0
 29 49  1  0
 29 50  1  0
M  END
>  <Score>  (1) 
-7.11868

$$$$
