
     RDKit          3D

 43 47  0  0  0  0  0  0  0  0999 V2000
   41.2670   67.6490   58.4380 C   0  0  0  0  0  0  0  0  0  0  0  0
   41.5490   67.2800   59.7690 C   0  0  0  0  0  0  0  0  0  0  0  0
   41.8260   68.2120   60.7650 C   0  0  0  0  0  0  0  0  0  0  0  0
   41.7920   69.5100   60.3100 N   0  0  0  0  0  0  0  0  0  0  0  0
   41.5230   69.8720   59.0380 C   0  0  0  0  0  0  0  0  0  0  0  0
   41.2660   68.9340   58.1290 N   0  0  0  0  0  0  0  0  0  0  0  0
   42.1580   68.0490   62.1260 C   0  0  0  0  0  0  0  0  0  0  0  0
   43.5110   68.3430   62.4370 C   0  0  0  0  0  0  0  0  0  0  0  0
   44.0440   68.2430   63.7140 C   0  0  0  0  0  0  0  0  0  0  0  0
   43.2130   67.8330   64.7510 C   0  0  0  0  0  0  0  0  0  0  0  0
   41.8900   67.5350   64.4970 C   0  0  0  0  0  0  0  0  0  0  0  0
   41.0570   67.1270   65.5130 C   0  0  0  0  0  0  0  0  0  0  0  0
   39.7230   66.8190   65.3030 C   0  0  0  0  0  0  0  0  0  0  0  0
   39.2870   66.9500   63.9960 C   0  0  0  0  0  0  0  0  0  0  0  0
   40.1540   67.3630   63.0000 C   0  0  0  0  0  0  0  0  0  0  0  0
   41.4540   67.6610   63.2170 C   0  0  0  0  0  0  0  0  0  0  0  0
   41.5110   71.2810   58.6410 C   0  0  0  0  0  0  0  0  0  0  0  0
   40.1530   71.8980   58.6700 C   0  0  0  0  0  0  0  0  0  0  0  0
   40.0930   73.0380   59.5480 N   0  0  0  0  0  0  0  0  0  0  0  0
   40.3040   72.8830   60.8640 C   0  0  0  0  0  0  0  0  0  0  0  0
   40.1970   74.0860   61.4960 N   0  0  0  0  0  0  0  0  0  0  0  0
   39.9170   75.0170   60.5810 C   0  0  0  0  0  0  0  0  0  0  0  0
   39.6860   76.3810   60.5070 C   0  0  0  0  0  0  0  0  0  0  0  0
   39.4230   77.0040   59.3460 N   0  0  0  0  0  0  0  0  0  0  0  0
   39.3720   76.3070   58.1850 C   0  0  0  0  0  0  0  0  0  0  0  0
   39.5920   74.9780   58.2210 N   0  0  0  0  0  0  0  0  0  0  0  0
   39.8570   74.3500   59.3820 C   0  0  0  0  0  0  0  0  0  0  0  0
   41.0530   66.8860   57.6751 H   0  0  0  0  0  0  0  0  0  0  0  0
   41.5502   66.2117   60.0312 H   0  0  0  0  0  0  0  0  0  0  0  0
   44.1733   68.6679   61.6211 H   0  0  0  0  0  0  0  0  0  0  0  0
   45.1009   68.4828   63.9022 H   0  0  0  0  0  0  0  0  0  0  0  0
   43.6102   67.7463   65.7731 H   0  0  0  0  0  0  0  0  0  0  0  0
   41.4658   67.0422   66.5307 H   0  0  0  0  0  0  0  0  0  0  0  0
   39.0579   66.4937   66.1165 H   0  0  0  0  0  0  0  0  0  0  0  0
   38.2399   66.7233   63.7464 H   0  0  0  0  0  0  0  0  0  0  0  0
   39.7637   67.4537   61.9756 H   0  0  0  0  0  0  0  0  0  0  0  0
   41.9058   71.3572   57.6171 H   0  0  0  0  0  0  0  0  0  0  0  0
   42.1289   71.8267   59.3693 H   0  0  0  0  0  0  0  0  0  0  0  0
   39.8883   72.2203   57.6521 H   0  0  0  0  0  0  0  0  0  0  0  0
   39.4468   71.1435   59.0469 H   0  0  0  0  0  0  0  0  0  0  0  0
   40.5298   71.9271   61.3593 H   0  0  0  0  0  0  0  0  0  0  0  0
   39.7191   76.9753   61.4320 H   0  0  0  0  0  0  0  0  0  0  0  0
   39.1557   76.8151   57.2337 H   0  0  0  0  0  0  0  0  0  0  0  0
  1  2  2  0
  2  3  1  0
  3  7  1  0
  4  3  2  0
  5  4  1  0
  6  1  1  0
  6  5  2  0
  7  8  2  0
  7 16  1  0
  8  9  1  0
  9 10  2  0
 11 10  1  0
 11 12  2  0
 13 12  1  0
 14 13  2  0
 15 16  2  0
 15 14  1  0
 16 11  1  0
 17 18  1  0
 17  5  1  0
 18 19  1  0
 19 20  1  0
 20 21  2  0
 22 21  1  0
 23 22  2  0
 24 23  1  0
 25 26  1  0
 25 24  2  0
 26 27  2  0
 27 19  1  0
 27 22  1  0
  1 28  1  0
  2 29  1  0
  8 30  1  0
  9 31  1  0
 10 32  1  0
 12 33  1  0
 13 34  1  0
 14 35  1  0
 15 36  1  0
 17 37  1  0
 17 38  1  0
 18 39  1  0
 18 40  1  0
 20 41  1  0
 23 42  1  0
 25 43  1  0
M  END
>  <Score>  (1) 
-7.36052

$$$$
