
     RDKit          3D

 46 50  0  0  0  0  0  0  0  0999 V2000
   41.5660   66.3370   62.3840 C   0  0  0  0  0  0  0  0  0  0  0  0
   40.9190   67.1050   61.4010 C   0  0  0  0  0  0  0  0  0  0  0  0
   41.2830   66.8720   60.0680 C   0  0  0  0  0  0  0  0  0  0  0  0
   42.2140   65.9470   59.7840 N   0  0  0  0  0  0  0  0  0  0  0  0
   42.8300   65.2100   60.7720 C   0  0  0  0  0  0  0  0  0  0  0  0
   42.4860   65.4290   62.0420 N   0  0  0  0  0  0  0  0  0  0  0  0
   43.7930   64.2360   60.4000 N   0  0  0  0  0  0  0  0  0  0  0  0
   45.1250   64.0100   60.6150 C   0  0  0  0  0  0  0  0  0  0  0  0
   45.4350   62.7910   60.0330 N   0  0  0  0  0  0  0  0  0  0  0  0
   44.3710   62.4360   59.3380 C   0  0  0  0  0  0  0  0  0  0  0  0
   43.3510   63.3000   59.5670 N   0  0  0  0  0  0  0  0  0  0  0  0
   41.1970   66.5660   63.7830 C   0  0  0  0  0  0  0  0  0  0  0  0
   41.4950   67.6900   64.5560 C   0  0  0  0  0  0  0  0  0  0  0  0
   40.9720   67.4870   65.7730 N   0  0  0  0  0  0  0  0  0  0  0  0
   40.3410   66.2690   65.8250 C   0  0  0  0  0  0  0  0  0  0  0  0
   39.6540   65.5970   66.8320 C   0  0  0  0  0  0  0  0  0  0  0  0
   39.1060   64.3400   66.5850 C   0  0  0  0  0  0  0  0  0  0  0  0
   39.2480   63.7540   65.3280 C   0  0  0  0  0  0  0  0  0  0  0  0
   39.9290   64.4270   64.3350 C   0  0  0  0  0  0  0  0  0  0  0  0
   40.4850   65.6970   64.5740 C   0  0  0  0  0  0  0  0  0  0  0  0
   44.4450   61.2720   58.5800 C   0  0  0  0  0  0  0  0  0  0  0  0
   44.7590   61.2750   57.3670 O   0  0  0  0  0  0  0  0  0  0  0  0
   44.3710   59.8810   58.6280 N   0  0  0  0  0  0  0  0  0  0  0  0
   44.6160   58.9930   57.5150 C   0  0  0  0  0  0  0  0  0  0  0  0
   43.6360   57.8640   57.6550 C   0  0  0  0  0  0  0  0  0  0  0  0
   43.2550   57.8460   59.0970 C   0  0  0  0  0  0  0  0  0  0  0  0
   44.0560   58.9460   59.6940 C   0  0  0  0  0  0  0  0  0  0  0  0
   40.1603   67.8560   61.6662 H   0  0  0  0  0  0  0  0  0  0  0  0
   40.8080   67.4445   59.2576 H   0  0  0  0  0  0  0  0  0  0  0  0
   45.7220   64.8103   60.1533 H   0  0  0  0  0  0  0  0  0  0  0  0
   45.3489   63.9958   61.6919 H   0  0  0  0  0  0  0  0  0  0  0  0
   42.4037   63.2411   59.1669 H   0  0  0  0  0  0  0  0  0  0  0  0
   42.0552   68.5776   64.2270 H   0  0  0  0  0  0  0  0  0  0  0  0
   41.0346   68.1508   66.5581 H   0  0  0  0  0  0  0  0  0  0  0  0
   39.5436   66.0590   67.8242 H   0  0  0  0  0  0  0  0  0  0  0  0
   38.5619   63.8105   67.3810 H   0  0  0  0  0  0  0  0  0  0  0  0
   38.8194   62.7606   65.1292 H   0  0  0  0  0  0  0  0  0  0  0  0
   40.0388   63.9645   63.3430 H   0  0  0  0  0  0  0  0  0  0  0  0
   45.6465   58.6101   57.5526 H   0  0  0  0  0  0  0  0  0  0  0  0
   44.4933   59.5129   56.5534 H   0  0  0  0  0  0  0  0  0  0  0  0
   42.7516   58.0419   57.0256 H   0  0  0  0  0  0  0  0  0  0  0  0
   44.0688   56.9048   57.3345 H   0  0  0  0  0  0  0  0  0  0  0  0
   42.1784   58.0353   59.2194 H   0  0  0  0  0  0  0  0  0  0  0  0
   43.4488   56.8740   59.5741 H   0  0  0  0  0  0  0  0  0  0  0  0
   44.9834   58.5435   60.1275 H   0  0  0  0  0  0  0  0  0  0  0  0
   43.4928   59.4460   60.4958 H   0  0  0  0  0  0  0  0  0  0  0  0
  1 12  1  0
  2  1  2  0
  3  2  1  0
  4  3  2  0
  4  5  1  0
  5  6  2  0
  6  1  1  0
  7  8  1  0
  7  5  1  0
  9  8  1  0
 10 11  1  0
 10  9  2  0
 11  7  1  0
 12 13  2  0
 12 20  1  0
 13 14  1  0
 14 15  1  0
 15 16  2  0
 17 16  1  0
 18 17  2  0
 19 20  2  0
 19 18  1  0
 20 15  1  0
 21 23  1  0
 21 10  1  0
 22 21  2  0
 23 27  1  0
 24 25  1  0
 24 23  1  0
 25 26  1  0
 26 27  1  0
  2 28  1  0
  3 29  1  0
  8 30  1  0
  8 31  1  0
 11 32  1  0
 13 33  1  0
 14 34  1  0
 16 35  1  0
 17 36  1  0
 18 37  1  0
 19 38  1  0
 24 39  1  0
 24 40  1  0
 25 41  1  0
 25 42  1  0
 26 43  1  0
 26 44  1  0
 27 45  1  0
 27 46  1  0
M  END
>  <Score>  (1) 
-7.42656

$$$$
