
     RDKit          3D

 48 52  0  0  0  0  0  0  0  0999 V2000
   41.2470   67.8930   58.4400 C   0  0  0  0  0  0  0  0  0  0  0  0
   41.5580   67.4720   59.7460 C   0  0  0  0  0  0  0  0  0  0  0  0
   41.8200   68.3620   60.7820 C   0  0  0  0  0  0  0  0  0  0  0  0
   41.7380   69.6780   60.3770 N   0  0  0  0  0  0  0  0  0  0  0  0
   41.4420   70.0840   59.1330 C   0  0  0  0  0  0  0  0  0  0  0  0
   41.2030   69.1930   58.1890 N   0  0  0  0  0  0  0  0  0  0  0  0
   42.1730   68.1500   62.1330 C   0  0  0  0  0  0  0  0  0  0  0  0
   43.5340   68.3830   62.4310 C   0  0  0  0  0  0  0  0  0  0  0  0
   44.0850   68.2290   63.6930 C   0  0  0  0  0  0  0  0  0  0  0  0
   43.2720   67.8270   64.7240 C   0  0  0  0  0  0  0  0  0  0  0  0
   41.9450   67.5830   64.5040 C   0  0  0  0  0  0  0  0  0  0  0  0
   41.1060   67.1800   65.5160 C   0  0  0  0  0  0  0  0  0  0  0  0
   39.7500   66.9240   65.3240 C   0  0  0  0  0  0  0  0  0  0  0  0
   39.3030   67.1070   64.0330 C   0  0  0  0  0  0  0  0  0  0  0  0
   40.1590   67.5140   63.0290 C   0  0  0  0  0  0  0  0  0  0  0  0
   41.4790   67.7600   63.2280 C   0  0  0  0  0  0  0  0  0  0  0  0
   41.3850   71.5220   58.8080 C   0  0  0  0  0  0  0  0  0  0  0  0
   41.8930   72.3940   59.9100 C   0  0  0  0  0  0  0  0  0  0  0  0
   40.9200   73.4270   60.2860 C   0  0  0  0  0  0  0  0  0  0  0  0
   39.7100   73.0760   60.8970 C   0  0  0  0  0  0  0  0  0  0  0  0
   38.7840   74.0610   61.2330 C   0  0  0  0  0  0  0  0  0  0  0  0
   39.0360   75.3940   60.9750 C   0  0  0  0  0  0  0  0  0  0  0  0
   40.2190   75.7800   60.3740 C   0  0  0  0  0  0  0  0  0  0  0  0
   40.4890   77.1120   60.1130 C   0  0  0  0  0  0  0  0  0  0  0  0
   41.6740   77.4920   59.5180 C   0  0  0  0  0  0  0  0  0  0  0  0
   42.6160   76.5310   59.1710 C   0  0  0  0  0  0  0  0  0  0  0  0
   42.3000   75.2070   59.4530 C   0  0  0  0  0  0  0  0  0  0  0  0
   41.1240   74.7710   60.0490 C   0  0  0  0  0  0  0  0  0  0  0  0
   41.0450   67.1595   57.6456 H   0  0  0  0  0  0  0  0  0  0  0  0
   41.5955   66.3930   59.9566 H   0  0  0  0  0  0  0  0  0  0  0  0
   44.1952   68.7056   61.6132 H   0  0  0  0  0  0  0  0  0  0  0  0
   45.1535   68.4251   63.8657 H   0  0  0  0  0  0  0  0  0  0  0  0
   43.6911   67.7005   65.7332 H   0  0  0  0  0  0  0  0  0  0  0  0
   41.5253   67.0537   66.5251 H   0  0  0  0  0  0  0  0  0  0  0  0
   39.0870   66.6007   66.1400 H   0  0  0  0  0  0  0  0  0  0  0  0
   38.2439   66.9253   63.7981 H   0  0  0  0  0  0  0  0  0  0  0  0
   39.7504   67.6456   62.0162 H   0  0  0  0  0  0  0  0  0  0  0  0
   41.9945   71.7021   57.9102 H   0  0  0  0  0  0  0  0  0  0  0  0
   40.3277   71.7797   58.6475 H   0  0  0  0  0  0  0  0  0  0  0  0
   42.1044   71.7681   60.7895 H   0  0  0  0  0  0  0  0  0  0  0  0
   42.8031   72.8980   59.5527 H   0  0  0  0  0  0  0  0  0  0  0  0
   39.4901   72.0199   61.1122 H   0  0  0  0  0  0  0  0  0  0  0  0
   37.8366   73.7723   61.7116 H   0  0  0  0  0  0  0  0  0  0  0  0
   38.2898   76.1540   61.2498 H   0  0  0  0  0  0  0  0  0  0  0  0
   39.7481   77.8786   60.3839 H   0  0  0  0  0  0  0  0  0  0  0  0
   41.8733   78.5552   59.3183 H   0  0  0  0  0  0  0  0  0  0  0  0
   43.5687   76.8057   58.6947 H   0  0  0  0  0  0  0  0  0  0  0  0
   43.0424   74.4419   59.1818 H   0  0  0  0  0  0  0  0  0  0  0  0
  1  2  2  0
  2  3  1  0
  3  7  1  0
  4  3  2  0
  5  4  1  0
  6  1  1  0
  6  5  2  0
  7  8  2  0
  7 16  1  0
  8  9  1  0
  9 10  2  0
 11 10  1  0
 11 12  2  0
 13 12  1  0
 14 13  2  0
 15 16  2  0
 15 14  1  0
 16 11  1  0
 17  5  1  0
 17 18  1  0
 18 19  1  0
 19 20  2  0
 20 21  1  0
 22 21  2  0
 23 22  1  0
 24 23  2  0
 25 24  1  0
 26 27  1  0
 26 25  2  0
 27 28  2  0
 28 19  1  0
 28 23  1  0
  1 29  1  0
  2 30  1  0
  8 31  1  0
  9 32  1  0
 10 33  1  0
 12 34  1  0
 13 35  1  0
 14 36  1  0
 15 37  1  0
 17 38  1  0
 17 39  1  0
 18 40  1  0
 18 41  1  0
 20 42  1  0
 21 43  1  0
 22 44  1  0
 24 45  1  0
 25 46  1  0
 26 47  1  0
 27 48  1  0
M  END
>  <Score>  (1) 
-8.32206

$$$$
