
     RDKit          3D

 45 49  0  0  0  0  0  0  0  0999 V2000
   41.5040   67.7890   58.4340 C   0  0  0  0  0  0  0  0  0  0  0  0
   41.8220   67.3610   59.7430 C   0  0  0  0  0  0  0  0  0  0  0  0
   41.9240   68.2470   60.8220 C   0  0  0  0  0  0  0  0  0  0  0  0
   41.6820   69.5740   60.4720 N   0  0  0  0  0  0  0  0  0  0  0  0
   41.3750   69.9640   59.1980 C   0  0  0  0  0  0  0  0  0  0  0  0
   41.2930   69.0770   58.2150 N   0  0  0  0  0  0  0  0  0  0  0  0
   42.2370   68.0470   62.1730 C   0  0  0  0  0  0  0  0  0  0  0  0
   43.5840   68.3120   62.5000 C   0  0  0  0  0  0  0  0  0  0  0  0
   44.0880   68.1700   63.7950 C   0  0  0  0  0  0  0  0  0  0  0  0
   43.2450   67.7560   64.7980 C   0  0  0  0  0  0  0  0  0  0  0  0
   41.9030   67.4780   64.5360 C   0  0  0  0  0  0  0  0  0  0  0  0
   41.0420   67.0680   65.4970 C   0  0  0  0  0  0  0  0  0  0  0  0
   39.7250   66.7890   65.2690 C   0  0  0  0  0  0  0  0  0  0  0  0
   39.3280   66.9600   63.9660 C   0  0  0  0  0  0  0  0  0  0  0  0
   40.1940   67.3760   62.9780 C   0  0  0  0  0  0  0  0  0  0  0  0
   41.4870   67.6430   63.2380 C   0  0  0  0  0  0  0  0  0  0  0  0
   41.1400   71.3770   58.9240 C   0  0  0  0  0  0  0  0  0  0  0  0
   41.1580   71.9480   57.6810 C   0  0  0  0  0  0  0  0  0  0  0  0
   40.8810   73.3000   57.9310 C   0  0  0  0  0  0  0  0  0  0  0  0
   40.7140   73.4570   59.2970 C   0  0  0  0  0  0  0  0  0  0  0  0
   40.8820   72.2710   59.8320 O   0  0  0  0  0  0  0  0  0  0  0  0
   40.7710   74.3820   57.0180 N   0  0  0  0  0  0  0  0  0  0  0  0
   39.7630   74.3940   56.1640 N   0  0  0  0  0  0  0  0  0  0  0  0
   39.8200   75.4860   55.3830 C   0  0  0  0  0  0  0  0  0  0  0  0
   40.9530   76.1890   55.7990 C   0  0  0  0  0  0  0  0  0  0  0  0
   41.5450   75.4690   56.8420 C   0  0  0  0  0  0  0  0  0  0  0  0
   40.4340   74.5340   60.0900 O   0  0  0  0  0  0  0  0  0  0  0  0
   39.2280   75.1820   60.2200 C   0  0  0  0  0  0  0  0  0  0  0  0
   38.7720   76.1560   59.2790 N   0  0  0  0  0  0  0  0  0  0  0  0
   38.9210   74.5800   61.2940 O   0  0  0  0  0  0  0  0  0  0  0  0
   41.4330   67.0632   57.6105 H   0  0  0  0  0  0  0  0  0  0  0  0
   41.9962   66.2895   59.9209 H   0  0  0  0  0  0  0  0  0  0  0  0
   44.2649   68.6440   61.7024 H   0  0  0  0  0  0  0  0  0  0  0  0
   45.1450   68.3866   64.0089 H   0  0  0  0  0  0  0  0  0  0  0  0
   43.6332   67.6422   65.8209 H   0  0  0  0  0  0  0  0  0  0  0  0
   41.4259   66.9529   66.5214 H   0  0  0  0  0  0  0  0  0  0  0  0
   39.0400   66.4554   66.0624 H   0  0  0  0  0  0  0  0  0  0  0  0
   38.2798   66.7575   63.7008 H   0  0  0  0  0  0  0  0  0  0  0  0
   39.8187   67.4928   61.9506 H   0  0  0  0  0  0  0  0  0  0  0  0
   41.3457   71.4611   56.7127 H   0  0  0  0  0  0  0  0  0  0  0  0
   39.1200   75.7677   54.5826 H   0  0  0  0  0  0  0  0  0  0  0  0
   41.3153   77.1397   55.3808 H   0  0  0  0  0  0  0  0  0  0  0  0
   42.4537   75.7356   57.4017 H   0  0  0  0  0  0  0  0  0  0  0  0
   37.8612   76.6171   59.4156 H   0  0  0  0  0  0  0  0  0  0  0  0
   39.3542   76.3969   58.4642 H   0  0  0  0  0  0  0  0  0  0  0  0
  1  2  2  0
  2  3  1  0
  3  7  1  0
  4  3  2  0
  5  4  1  0
  6  1  1  0
  6  5  2  0
  7  8  2  0
  7 16  1  0
  8  9  1  0
  9 10  2  0
 11 10  1  0
 11 12  2  0
 13 12  1  0
 14 13  2  0
 15 16  2  0
 15 14  1  0
 16 11  1  0
 17  5  1  0
 17 21  1  0
 18 19  1  0
 18 17  2  0
 19 20  2  0
 20 21  1  0
 20 27  1  0
 22 19  1  0
 23 22  1  0
 24 25  1  0
 24 23  2  0
 25 26  2  0
 26 22  1  0
 27 28  1  0
 28 30  2  0
 29 28  1  0
  1 31  1  0
  2 32  1  0
  8 33  1  0
  9 34  1  0
 10 35  1  0
 12 36  1  0
 13 37  1  0
 14 38  1  0
 15 39  1  0
 18 40  1  0
 24 41  1  0
 25 42  1  0
 26 43  1  0
 29 44  1  0
 29 45  1  0
M  END
>  <Score>  (1) 
-7.22402

$$$$
