
     RDKit          3D

 34 37  0  0  0  0  0  0  0  0999 V2000
   41.3300   67.3240   63.9730 C   0  0  0  0  0  0  0  0  0  0  0  0
   40.9960   68.6630   64.2210 C   0  0  0  0  0  0  0  0  0  0  0  0
   41.5590   69.6750   63.4400 C   0  0  0  0  0  0  0  0  0  0  0  0
   42.4200   69.2870   62.4600 N   0  0  0  0  0  0  0  0  0  0  0  0
   42.7300   67.9840   62.2380 C   0  0  0  0  0  0  0  0  0  0  0  0
   42.1910   67.0190   62.9840 N   0  0  0  0  0  0  0  0  0  0  0  0
   43.6420   67.6810   61.1880 N   0  0  0  0  0  0  0  0  0  0  0  0
   44.4320   68.5250   60.5030 C   0  0  0  0  0  0  0  0  0  0  0  0
   45.1690   67.8890   59.5760 N   0  0  0  0  0  0  0  0  0  0  0  0
   44.8520   66.5870   59.6560 C   0  0  0  0  0  0  0  0  0  0  0  0
   45.2450   65.4240   58.9970 C   0  0  0  0  0  0  0  0  0  0  0  0
   44.7220   64.2290   59.3210 N   0  0  0  0  0  0  0  0  0  0  0  0
   43.8090   64.1430   60.2930 C   0  0  0  0  0  0  0  0  0  0  0  0
   43.3940   65.2390   60.9650 N   0  0  0  0  0  0  0  0  0  0  0  0
   43.9000   66.4680   60.6640 C   0  0  0  0  0  0  0  0  0  0  0  0
   40.7640   66.2950   64.7610 N   0  0  0  0  0  0  0  0  0  0  0  0
   40.6010   66.4550   66.1000 C   0  0  0  0  0  0  0  0  0  0  0  0
   40.0400   65.4230   66.8500 C   0  0  0  0  0  0  0  0  0  0  0  0
   39.7020   64.3200   66.1200 C   0  0  0  0  0  0  0  0  0  0  0  0
   39.1860   63.3600   66.7810 O   0  0  0  0  0  0  0  0  0  0  0  0
   39.8410   64.1160   64.8050 N   0  0  0  0  0  0  0  0  0  0  0  0
   40.3930   65.1530   64.1260 C   0  0  0  0  0  0  0  0  0  0  0  0
   40.5490   65.0160   62.8840 O   0  0  0  0  0  0  0  0  0  0  0  0
   39.8240   65.5040   68.3050 C   0  0  0  0  0  0  0  0  0  0  0  0
   40.2927   68.9157   65.0282 H   0  0  0  0  0  0  0  0  0  0  0  0
   41.3180   70.7349   63.6090 H   0  0  0  0  0  0  0  0  0  0  0  0
   44.4711   69.6099   60.6802 H   0  0  0  0  0  0  0  0  0  0  0  0
   45.9972   65.4850   58.1967 H   0  0  0  0  0  0  0  0  0  0  0  0
   43.3871   63.1605   60.5510 H   0  0  0  0  0  0  0  0  0  0  0  0
   40.9092   67.3913   66.5883 H   0  0  0  0  0  0  0  0  0  0  0  0
   39.5519   63.2411   64.3446 H   0  0  0  0  0  0  0  0  0  0  0  0
   40.7293   65.1645   68.8295 H   0  0  0  0  0  0  0  0  0  0  0  0
   39.6061   66.5449   68.5859 H   0  0  0  0  0  0  0  0  0  0  0  0
   38.9753   64.8630   68.5859 H   0  0  0  0  0  0  0  0  0  0  0  0
  1  2  2  0
  1 16  1  0
  3  2  1  0
  4  3  2  0
  5  4  1  0
  5  6  2  0
  6  1  1  0
  7  5  1  0
  8  7  1  0
  9 10  1  0
  9  8  2  0
 10 15  2  0
 11 12  2  0
 11 10  1  0
 12 13  1  0
 13 14  2  0
 15 14  1  0
 15  7  1  0
 16 17  1  0
 17 18  2  0
 18 24  1  0
 19 20  2  0
 19 18  1  0
 21 19  1  0
 22 16  1  0
 22 21  1  0
 23 22  2  0
  2 25  1  0
  3 26  1  0
  8 27  1  0
 11 28  1  0
 13 29  1  0
 17 30  1  0
 21 31  1  0
 24 32  1  0
 24 33  1  0
 24 34  1  0
M  END
>  <Score>  (1) 
-7.01631

$$$$
