
     RDKit          3D

 48 53  0  0  0  0  0  0  0  0999 V2000
   41.5360   66.1720   62.4570 C   0  0  0  0  0  0  0  0  0  0  0  0
   40.7850   66.8190   61.4560 C   0  0  0  0  0  0  0  0  0  0  0  0
   41.1600   66.5900   60.1260 C   0  0  0  0  0  0  0  0  0  0  0  0
   42.1950   65.7840   59.8530 N   0  0  0  0  0  0  0  0  0  0  0  0
   42.9120   65.1630   60.8550 C   0  0  0  0  0  0  0  0  0  0  0  0
   42.5630   65.3750   62.1250 N   0  0  0  0  0  0  0  0  0  0  0  0
   43.9860   64.2980   60.5080 N   0  0  0  0  0  0  0  0  0  0  0  0
   45.3330   64.2360   60.7170 C   0  0  0  0  0  0  0  0  0  0  0  0
   45.7820   63.0470   60.1430 N   0  0  0  0  0  0  0  0  0  0  0  0
   44.7580   62.5510   59.4780 C   0  0  0  0  0  0  0  0  0  0  0  0
   43.6540   63.2910   59.7080 N   0  0  0  0  0  0  0  0  0  0  0  0
   41.1590   66.4030   63.8460 C   0  0  0  0  0  0  0  0  0  0  0  0
   41.4600   67.5150   64.6290 C   0  0  0  0  0  0  0  0  0  0  0  0
   40.9260   67.3220   65.8360 N   0  0  0  0  0  0  0  0  0  0  0  0
   40.2810   66.1250   65.8870 C   0  0  0  0  0  0  0  0  0  0  0  0
   39.5780   65.4490   66.8690 C   0  0  0  0  0  0  0  0  0  0  0  0
   39.0170   64.2120   66.6290 C   0  0  0  0  0  0  0  0  0  0  0  0
   39.1630   63.6240   65.3650 C   0  0  0  0  0  0  0  0  0  0  0  0
   39.8600   64.2840   64.3840 C   0  0  0  0  0  0  0  0  0  0  0  0
   40.4280   65.5420   64.6280 C   0  0  0  0  0  0  0  0  0  0  0  0
   44.9920   61.3910   58.7430 C   0  0  0  0  0  0  0  0  0  0  0  0
   45.0470   61.4210   57.4780 O   0  0  0  0  0  0  0  0  0  0  0  0
   45.2650   60.1120   59.4570 C   0  0  0  0  0  0  0  0  0  0  0  0
   46.4670   60.0150   60.1090 N   0  0  0  0  0  0  0  0  0  0  0  0
   46.8530   58.9390   60.7850 C   0  0  0  0  0  0  0  0  0  0  0  0
   46.0710   57.8510   60.8780 N   0  0  0  0  0  0  0  0  0  0  0  0
   44.8740   57.8670   60.2650 C   0  0  0  0  0  0  0  0  0  0  0  0
   43.9940   56.8080   60.2890 C   0  0  0  0  0  0  0  0  0  0  0  0
   42.7610   56.7950   59.6650 C   0  0  0  0  0  0  0  0  0  0  0  0
   42.4310   57.9660   58.9730 C   0  0  0  0  0  0  0  0  0  0  0  0
   43.2980   59.0360   58.9390 C   0  0  0  0  0  0  0  0  0  0  0  0
   44.5000   58.9890   59.5740 C   0  0  0  0  0  0  0  0  0  0  0  0
   39.9398   67.4763   61.7082 H   0  0  0  0  0  0  0  0  0  0  0  0
   40.6056   67.0712   59.3068 H   0  0  0  0  0  0  0  0  0  0  0  0
   45.8287   65.0953   60.2417 H   0  0  0  0  0  0  0  0  0  0  0  0
   45.5644   64.2640   61.7920 H   0  0  0  0  0  0  0  0  0  0  0  0
   42.7144   63.1068   59.3283 H   0  0  0  0  0  0  0  0  0  0  0  0
   42.0358   68.3959   64.3088 H   0  0  0  0  0  0  0  0  0  0  0  0
   40.9926   67.9865   66.6202 H   0  0  0  0  0  0  0  0  0  0  0  0
   39.4642   65.9081   67.8621 H   0  0  0  0  0  0  0  0  0  0  0  0
   38.4602   63.6917   67.4222 H   0  0  0  0  0  0  0  0  0  0  0  0
   38.7209   62.6378   65.1602 H   0  0  0  0  0  0  0  0  0  0  0  0
   39.9744   63.8197   63.3934 H   0  0  0  0  0  0  0  0  0  0  0  0
   47.8354   58.9388   61.2799 H   0  0  0  0  0  0  0  0  0  0  0  0
   44.2942   55.9075   60.8449 H   0  0  0  0  0  0  0  0  0  0  0  0
   42.0872   55.9266   59.7090 H   0  0  0  0  0  0  0  0  0  0  0  0
   41.4661   58.0328   58.4491 H   0  0  0  0  0  0  0  0  0  0  0  0
   43.0131   59.9447   58.3885 H   0  0  0  0  0  0  0  0  0  0  0  0
  1 12  1  0
  2  1  2  0
  3  2  1  0
  4  3  2  0
  4  5  1  0
  5  6  2  0
  6  1  1  0
  7  8  1  0
  7  5  1  0
  9  8  1  0
 10 11  1  0
 10  9  2  0
 11  7  1  0
 12 20  1  0
 12 13  2  0
 13 14  1  0
 14 15  1  0
 15 16  2  0
 17 16  1  0
 18 17  2  0
 19 20  2  0
 19 18  1  0
 20 15  1  0
 21 23  1  0
 21 10  1  0
 22 21  2  0
 23 32  1  0
 23 24  2  0
 24 25  1  0
 25 26  2  0
 27 28  2  0
 27 26  1  0
 29 28  1  0
 30 29  2  0
 31 30  1  0
 31 32  2  0
 32 27  1  0
  2 33  1  0
  3 34  1  0
  8 35  1  0
  8 36  1  0
 11 37  1  0
 13 38  1  0
 14 39  1  0
 16 40  1  0
 17 41  1  0
 18 42  1  0
 19 43  1  0
 25 44  1  0
 28 45  1  0
 29 46  1  0
 30 47  1  0
 31 48  1  0
M  END
>  <Score>  (1) 
-7.49048

$$$$
