
     RDKit          3D

 51 55  0  0  0  0  0  0  0  0999 V2000
   42.0640   68.0680   58.3990 C   0  0  0  0  0  0  0  0  0  0  0  0
   42.3380   67.5990   59.6970 C   0  0  0  0  0  0  0  0  0  0  0  0
   42.1940   68.3770   60.8420 C   0  0  0  0  0  0  0  0  0  0  0  0
   41.7490   69.6680   60.5640 N   0  0  0  0  0  0  0  0  0  0  0  0
   41.4880   70.1030   59.2890 C   0  0  0  0  0  0  0  0  0  0  0  0
   41.6470   69.3130   58.2530 N   0  0  0  0  0  0  0  0  0  0  0  0
   42.4230   68.1130   62.2000 C   0  0  0  0  0  0  0  0  0  0  0  0
   43.7430   68.3580   62.6250 C   0  0  0  0  0  0  0  0  0  0  0  0
   44.1660   68.1570   63.9390 C   0  0  0  0  0  0  0  0  0  0  0  0
   43.2670   67.7010   64.8670 C   0  0  0  0  0  0  0  0  0  0  0  0
   41.9520   67.4420   64.5060 C   0  0  0  0  0  0  0  0  0  0  0  0
   41.0240   66.9880   65.3960 C   0  0  0  0  0  0  0  0  0  0  0  0
   39.7300   66.7230   65.0770 C   0  0  0  0  0  0  0  0  0  0  0  0
   39.4090   66.9530   63.7600 C   0  0  0  0  0  0  0  0  0  0  0  0
   40.3360   67.4120   62.8470 C   0  0  0  0  0  0  0  0  0  0  0  0
   41.6230   67.6670   63.1980 C   0  0  0  0  0  0  0  0  0  0  0  0
   41.0260   71.4850   59.1120 C   0  0  0  0  0  0  0  0  0  0  0  0
   40.6140   72.0090   57.9150 C   0  0  0  0  0  0  0  0  0  0  0  0
   40.2750   73.3290   58.2370 C   0  0  0  0  0  0  0  0  0  0  0  0
   40.5010   73.5160   59.5920 C   0  0  0  0  0  0  0  0  0  0  0  0
   40.9500   72.3730   60.0580 O   0  0  0  0  0  0  0  0  0  0  0  0
   39.7800   74.3660   57.3970 N   0  0  0  0  0  0  0  0  0  0  0  0
   40.0760   75.6230   57.7880 C   0  0  0  0  0  0  0  0  0  0  0  0
   39.6410   76.6990   57.0400 C   0  0  0  0  0  0  0  0  0  0  0  0
   39.9520   78.0780   57.4490 C   0  0  0  0  0  0  0  0  0  0  0  0
   38.9080   76.4250   55.9030 C   0  0  0  0  0  0  0  0  0  0  0  0
   38.5060   77.3850   55.2120 O   0  0  0  0  0  0  0  0  0  0  0  0
   38.6220   75.1440   55.5280 N   0  0  0  0  0  0  0  0  0  0  0  0
   39.0630   74.1030   56.2830 C   0  0  0  0  0  0  0  0  0  0  0  0
   38.8080   72.9110   55.9510 O   0  0  0  0  0  0  0  0  0  0  0  0
   40.3480   74.5830   60.4310 O   0  0  0  0  0  0  0  0  0  0  0  0
   39.2330   74.9020   61.1750 C   0  0  0  0  0  0  0  0  0  0  0  0
   39.1060   76.1400   61.8710 N   0  0  0  0  0  0  0  0  0  0  0  0
   38.6380   73.8060   60.9280 O   0  0  0  0  0  0  0  0  0  0  0  0
   42.1941   67.4125   57.5252 H   0  0  0  0  0  0  0  0  0  0  0  0
   42.6847   66.5615   59.8130 H   0  0  0  0  0  0  0  0  0  0  0  0
   44.4730   68.7241   61.8881 H   0  0  0  0  0  0  0  0  0  0  0  0
   45.2078   68.3619   64.2264 H   0  0  0  0  0  0  0  0  0  0  0  0
   43.5898   67.5389   65.9060 H   0  0  0  0  0  0  0  0  0  0  0  0
   41.3426   66.8263   66.4364 H   0  0  0  0  0  0  0  0  0  0  0  0
   38.9993   66.3547   65.8121 H   0  0  0  0  0  0  0  0  0  0  0  0
   38.3789   66.7648   63.4231 H   0  0  0  0  0  0  0  0  0  0  0  0
   40.0238   67.5761   61.8051 H   0  0  0  0  0  0  0  0  0  0  0  0
   40.5619   71.5117   56.9352 H   0  0  0  0  0  0  0  0  0  0  0  0
   40.6638   75.7905   58.7026 H   0  0  0  0  0  0  0  0  0  0  0  0
   39.9661   78.1404   58.5471 H   0  0  0  0  0  0  0  0  0  0  0  0
   40.9373   78.3646   57.0528 H   0  0  0  0  0  0  0  0  0  0  0  0
   39.1851   78.7598   57.0528 H   0  0  0  0  0  0  0  0  0  0  0  0
   38.0731   74.9665   54.6747 H   0  0  0  0  0  0  0  0  0  0  0  0
   38.2552   76.3393   62.4163 H   0  0  0  0  0  0  0  0  0  0  0  0
   39.8650   76.8349   61.8285 H   0  0  0  0  0  0  0  0  0  0  0  0
  1  2  2  0
  2  3  1  0
  3  7  1  0
  4  3  2  0
  5  4  1  0
  6  1  1  0
  6  5  2  0
  7  8  2  0
  7 16  1  0
  8  9  1  0
  9 10  2  0
 11 10  1  0
 11 12  2  0
 13 12  1  0
 14 13  2  0
 15 16  2  0
 15 14  1  0
 16 11  1  0
 17  5  1  0
 17 21  1  0
 18 19  1  0
 18 17  2  0
 19 20  2  0
 20 21  1  0
 20 31  1  0
 22 23  1  0
 22 19  1  0
 24 25  1  0
 24 23  2  0
 26 24  1  0
 27 26  2  0
 28 26  1  0
 28 29  1  0
 29 22  1  0
 30 29  2  0
 31 32  1  0
 32 33  1  0
 34 32  2  0
  1 35  1  0
  2 36  1  0
  8 37  1  0
  9 38  1  0
 10 39  1  0
 12 40  1  0
 13 41  1  0
 14 42  1  0
 15 43  1  0
 18 44  1  0
 23 45  1  0
 25 46  1  0
 25 47  1  0
 25 48  1  0
 28 49  1  0
 33 50  1  0
 33 51  1  0
M  END
>  <Score>  (1) 
-7.86195

$$$$
