
     RDKit          3D

 45 49  0  0  0  0  0  0  0  0999 V2000
   42.3090   68.7210   61.4050 N   0  0  0  0  0  0  0  0  0  0  0  0
   42.1730   69.9430   61.8060 C   0  0  0  0  0  0  0  0  0  0  0  0
   42.8900   70.9580   61.2180 C   0  0  0  0  0  0  0  0  0  0  0  0
   43.7330   70.6370   60.2170 C   0  0  0  0  0  0  0  0  0  0  0  0
   44.4050   71.5440   59.6580 O   0  0  0  0  0  0  0  0  0  0  0  0
   43.8330   69.3410   59.8410 N   0  0  0  0  0  0  0  0  0  0  0  0
   43.1130   68.3510   60.4360 C   0  0  0  0  0  0  0  0  0  0  0  0
   43.2880   67.1800   60.0020 O   0  0  0  0  0  0  0  0  0  0  0  0
   40.4240   65.9730   63.6780 C   0  0  0  0  0  0  0  0  0  0  0  0
   40.0220   65.9390   62.3700 C   0  0  0  0  0  0  0  0  0  0  0  0
   40.6110   66.8340   61.5400 C   0  0  0  0  0  0  0  0  0  0  0  0
   41.5340   67.6800   62.0500 C   0  0  0  0  0  0  0  0  0  0  0  0
   41.6390   67.2530   63.8080 S   0  0  0  0  0  0  0  0  0  0  0  0
   39.9780   65.1420   64.8060 C   0  0  0  0  0  0  0  0  0  0  0  0
   39.9870   65.5520   66.1270 C   0  0  0  0  0  0  0  0  0  0  0  0
   39.5390   64.6620   67.0850 C   0  0  0  0  0  0  0  0  0  0  0  0
   39.1100   63.4270   66.6950 N   0  0  0  0  0  0  0  0  0  0  0  0
   39.1120   63.0550   65.3980 C   0  0  0  0  0  0  0  0  0  0  0  0
   39.5470   63.9320   64.5090 N   0  0  0  0  0  0  0  0  0  0  0  0
   38.6660   61.7600   64.9970 N   0  0  0  0  0  0  0  0  0  0  0  0
   42.6720   72.3340   61.7430 C   0  0  0  0  0  0  0  0  0  0  0  0
   41.9760   73.0790   60.6370 C   0  0  0  0  0  0  0  0  0  0  0  0
   42.2500   74.3080   60.0490 C   0  0  0  0  0  0  0  0  0  0  0  0
   41.3090   74.5680   59.0540 C   0  0  0  0  0  0  0  0  0  0  0  0
   40.4970   73.4600   59.0920 C   0  0  0  0  0  0  0  0  0  0  0  0
   40.8990   72.6240   60.0030 O   0  0  0  0  0  0  0  0  0  0  0  0
   39.3570   73.1780   58.2860 N   0  0  0  0  0  0  0  0  0  0  0  0
   39.0810   71.9520   57.7970 C   0  0  0  0  0  0  0  0  0  0  0  0
   37.9610   71.9640   57.0790 N   0  0  0  0  0  0  0  0  0  0  0  0
   37.5020   73.2360   57.1080 C   0  0  0  0  0  0  0  0  0  0  0  0
   38.3610   73.9640   57.8450 N   0  0  0  0  0  0  0  0  0  0  0  0
   41.4765   70.1726   62.6259 H   0  0  0  0  0  0  0  0  0  0  0  0
   44.4777   69.0946   59.0764 H   0  0  0  0  0  0  0  0  0  0  0  0
   39.2642   65.2260   62.0129 H   0  0  0  0  0  0  0  0  0  0  0  0
   40.3436   66.8713   60.4736 H   0  0  0  0  0  0  0  0  0  0  0  0
   40.3399   66.5556   66.4066 H   0  0  0  0  0  0  0  0  0  0  0  0
   39.5285   64.9457   68.1477 H   0  0  0  0  0  0  0  0  0  0  0  0
   38.6762   61.4973   64.0011 H   0  0  0  0  0  0  0  0  0  0  0  0
   38.3339   61.0881   65.7035 H   0  0  0  0  0  0  0  0  0  0  0  0
   42.0419   72.3065   62.6442 H   0  0  0  0  0  0  0  0  0  0  0  0
   43.6181   72.8170   62.0288 H   0  0  0  0  0  0  0  0  0  0  0  0
   43.0812   74.9731   60.3260 H   0  0  0  0  0  0  0  0  0  0  0  0
   41.2344   75.4473   58.3973 H   0  0  0  0  0  0  0  0  0  0  0  0
   39.7004   71.0594   57.9691 H   0  0  0  0  0  0  0  0  0  0  0  0
   36.5906   73.6084   56.6174 H   0  0  0  0  0  0  0  0  0  0  0  0
  1  2  1  0
  1 12  1  0
  3 21  1  0
  3  2  2  0
  4  3  1  0
  5  4  2  0
  6  4  1  0
  6  7  1  0
  7  1  1  0
  8  7  2  0
  9 13  1  0
  9 14  1  0
 10  9  2  0
 11 12  2  0
 11 10  1  0
 12 13  1  0
 14 15  2  0
 15 16  1  0
 17 16  2  0
 18 17  1  0
 19 14  1  0
 19 18  2  0
 20 18  1  0
 22 21  1  0
 23 22  2  0
 24 25  2  0
 24 23  1  0
 25 26  1  0
 26 22  1  0
 27 25  1  0
 28 27  1  0
 29 30  1  0
 29 28  2  0
 30 31  2  0
 31 27  1  0
  2 32  1  0
  6 33  1  0
 10 34  1  0
 11 35  1  0
 15 36  1  0
 16 37  1  0
 20 38  1  0
 20 39  1  0
 21 40  1  0
 21 41  1  0
 23 42  1  0
 24 43  1  0
 28 44  1  0
 30 45  1  0
M  END
>  <Score>  (1) 
-7.72196

$$$$
