
     RDKit          3D

 38 42  0  0  1  0  0  0  0  0999 V2000
   41.5980   66.3650   62.3810 C   0  0  0  0  0  0  0  0  0  0  0  0
   42.7490   65.5830   62.1510 C   0  0  0  0  0  0  0  0  0  0  0  0
   43.1620   65.3620   60.8450 C   0  0  0  0  0  0  0  0  0  0  0  0
   42.4240   65.9180   59.8510 N   0  0  0  0  0  0  0  0  0  0  0  0
   41.3330   66.6580   60.0900 C   0  0  0  0  0  0  0  0  0  0  0  0
   40.9140   66.8860   61.3470 N   0  0  0  0  0  0  0  0  0  0  0  0
   44.3150   64.5810   60.5650 N   0  0  0  0  0  0  0  0  0  0  0  0
   45.5710   64.9600   60.7920 C   0  0  0  0  0  0  0  0  0  0  0  0
   46.3970   63.9530   60.3980 N   0  0  0  0  0  0  0  0  0  0  0  0
   45.6190   62.9610   59.9300 C   0  0  0  0  0  0  0  0  0  0  0  0
   45.8460   61.6950   59.3940 C   0  0  0  0  0  0  0  0  0  0  0  0
   44.8010   60.9270   59.0080 N   0  0  0  0  0  0  0  0  0  0  0  0
   43.5340   61.3540   59.1290 C   0  0  0  0  0  0  0  0  0  0  0  0
   43.2720   62.5830   59.6470 N   0  0  0  0  0  0  0  0  0  0  0  0
   44.2810   63.3490   60.0300 C   0  0  0  0  0  0  0  0  0  0  0  0
   41.1780   66.5890   63.7350 N   0  0  0  0  0  0  0  0  0  0  0  0
   41.4210   67.6830   64.4770 C   0  0  0  0  0  0  0  0  0  0  0  0
   40.8430   67.4650   65.6900 N   0  0  0  0  0  0  0  0  0  0  0  0
   40.2670   66.2830   65.6910 C   0  0  0  0  0  0  0  0  0  0  0  0
   39.5420   65.5170   66.5950 C   0  0  2  0  0  0  0  0  0  0  0  0
   39.0810   64.3040   66.2630 N   0  0  0  0  0  0  0  0  0  0  0  0
   39.2960   63.7690   65.0420 C   0  0  0  0  0  0  0  0  0  0  0  0
   39.9890   64.4660   64.1360 N   0  0  0  0  0  0  0  0  0  0  0  0
   40.4630   65.6880   64.4470 C   0  0  0  0  0  0  0  0  0  0  0  0
   39.3310   66.1060   67.8700 N   0  0  0  0  0  0  0  0  0  0  0  0
   47.1980   61.2670   59.2770 N   0  0  0  0  0  0  0  0  0  0  0  0
   43.3107   65.1548   62.9943 H   0  0  0  0  0  0  0  0  0  0  0  0
   40.7720   67.0851   59.2457 H   0  0  0  0  0  0  0  0  0  0  0  0
   45.8865   65.9213   61.2236 H   0  0  0  0  0  0  0  0  0  0  0  0
   42.7047   60.7067   58.8077 H   0  0  0  0  0  0  0  0  0  0  0  0
   41.9778   68.5789   64.1652 H   0  0  0  0  0  0  0  0  0  0  0  0
   40.4755   65.0632   66.9591 H   0  0  0  0  0  0  0  0  0  0  0  0
   38.9052   62.7707   64.7956 H   0  0  0  0  0  0  0  0  0  0  0  0
   40.1604   64.0691   63.2011 H   0  0  0  0  0  0  0  0  0  0  0  0
   39.5740   65.4277   68.6060 H   0  0  0  0  0  0  0  0  0  0  0  0
   39.9247   66.9424   67.9643 H   0  0  0  0  0  0  0  0  0  0  0  0
   47.4122   60.3384   58.8862 H   0  0  0  0  0  0  0  0  0  0  0  0
   47.9624   61.8858   59.5831 H   0  0  0  0  0  0  0  0  0  0  0  0
  1 16  1  0
  2  1  2  0
  3  2  1  0
  4  5  1  0
  4  3  2  0
  5  6  2  0
  6  1  1  0
  7  8  1  0
  7  3  1  0
  9  8  2  0
 10 15  2  0
 10  9  1  0
 11 10  1  0
 12 13  1  0
 12 11  2  0
 13 14  2  0
 14 15  1  0
 15  7  1  0
 16 24  1  0
 16 17  1  0
 17 18  2  0
 18 19  1  0
 19 20  1  0
 20 25  1  0
 21 20  1  0
 22 21  2  0
 23 24  1  0
 23 22  1  0
 24 19  2  0
 26 11  1  0
  2 27  1  0
  5 28  1  0
  8 29  1  0
 13 30  1  0
 17 31  1  0
 20 32  1  1
 22 33  1  0
 23 34  1  0
 25 35  1  0
 25 36  1  0
 26 37  1  0
 26 38  1  0
M  END
>  <Score>  (1) 
-7.32912

$$$$
