
     RDKit          3D

 52 56  0  0  1  0  0  0  0  0999 V2000
   41.5950   67.9680   60.9050 C   0  0  0  0  0  0  0  0  0  0  0  0
   41.4750   66.8670   60.0750 C   0  0  0  0  0  0  0  0  0  0  0  0
   41.4650   67.4230   58.8140 C   0  0  0  0  0  0  0  0  0  0  0  0
   41.5700   68.7600   58.8470 N   0  0  0  0  0  0  0  0  0  0  0  0
   41.6470   69.0500   60.1280 N   0  0  0  0  0  0  0  0  0  0  0  0
   41.3630   69.4690   54.2370 N   0  0  0  0  0  0  0  0  0  0  0  0
   41.2460   68.1510   54.5450 C   0  0  0  0  0  0  0  0  0  0  0  0
   41.3140   68.0260   55.8840 N   0  0  0  0  0  0  0  0  0  0  0  0
   41.4720   69.2230   56.4670 C   0  0  0  0  0  0  0  0  0  0  0  0
   41.5960   69.6580   57.7810 C   0  0  1  0  0  0  0  0  0  0  0  0
   41.7420   70.9630   57.9750 N   0  0  0  0  0  0  0  0  0  0  0  0
   41.7720   71.8520   56.9510 C   0  0  0  0  0  0  0  0  0  0  0  0
   41.6500   71.4170   55.6680 N   0  0  0  0  0  0  0  0  0  0  0  0
   41.4980   70.0990   55.4010 C   0  0  0  0  0  0  0  0  0  0  0  0
   41.9390   73.3040   57.2490 C   0  0  0  0  0  0  0  0  0  0  0  0
   43.1730   73.8030   56.5340 C   0  0  0  0  0  0  0  0  0  0  0  0
   42.0740   73.4630   58.7490 C   0  0  0  0  0  0  0  0  0  0  0  0
   40.7040   74.0480   56.8270 C   0  0  0  0  0  0  0  0  0  0  0  0
   41.1020   66.9240   64.3750 C   0  0  0  0  0  0  0  0  0  0  0  0
   41.8200   67.9160   65.0300 C   0  0  0  0  0  0  0  0  0  0  0  0
   42.4650   68.9290   64.3500 C   0  0  0  0  0  0  0  0  0  0  0  0
   42.3630   68.9060   63.0030 N   0  0  0  0  0  0  0  0  0  0  0  0
   41.6560   67.9270   62.3660 C   0  0  0  0  0  0  0  0  0  0  0  0
   41.0290   66.9450   63.0230 N   0  0  0  0  0  0  0  0  0  0  0  0
   40.4260   65.8640   65.0690 C   0  0  0  0  0  0  0  0  0  0  0  0
   40.2540   66.0050   66.4360 C   0  0  0  0  0  0  0  0  0  0  0  0
   39.6100   65.0270   67.1950 C   0  0  0  0  0  0  0  0  0  0  0  0
   39.1370   63.8890   66.5280 C   0  0  0  0  0  0  0  0  0  0  0  0
   39.2960   63.7220   65.1600 C   0  0  0  0  0  0  0  0  0  0  0  0
   39.9310   64.7040   64.4710 C   0  0  0  0  0  0  0  0  0  0  0  0
   41.4046   65.8053   60.3542 H   0  0  0  0  0  0  0  0  0  0  0  0
   41.3806   66.8375   57.8866 H   0  0  0  0  0  0  0  0  0  0  0  0
   41.3499   69.8923   53.2981 H   0  0  0  0  0  0  0  0  0  0  0  0
   41.1180   67.3288   53.8255 H   0  0  0  0  0  0  0  0  0  0  0  0
   42.6883   69.5456   57.7151 H   0  0  0  0  0  0  0  0  0  0  0  0
   41.6735   72.0959   54.8938 H   0  0  0  0  0  0  0  0  0  0  0  0
   43.9274   74.1081   57.2741 H   0  0  0  0  0  0  0  0  0  0  0  0
   43.5817   72.9995   55.9037 H   0  0  0  0  0  0  0  0  0  0  0  0
   42.9083   74.6647   55.9037 H   0  0  0  0  0  0  0  0  0  0  0  0
   41.4418   72.7185   59.2550 H   0  0  0  0  0  0  0  0  0  0  0  0
   43.1238   73.3117   59.0408 H   0  0  0  0  0  0  0  0  0  0  0  0
   41.7545   74.4743   59.0408 H   0  0  0  0  0  0  0  0  0  0  0  0
   40.1530   74.3799   57.7193 H   0  0  0  0  0  0  0  0  0  0  0  0
   40.9908   74.9238   56.2263 H   0  0  0  0  0  0  0  0  0  0  0  0
   40.0639   73.3851   56.2263 H   0  0  0  0  0  0  0  0  0  0  0  0
   41.8765   67.8936   66.1283 H   0  0  0  0  0  0  0  0  0  0  0  0
   43.0310   69.7121   64.8758 H   0  0  0  0  0  0  0  0  0  0  0  0
   40.6338   66.9088   66.9349 H   0  0  0  0  0  0  0  0  0  0  0  0
   39.4781   65.1454   68.2806 H   0  0  0  0  0  0  0  0  0  0  0  0
   38.6249   63.1055   67.1058 H   0  0  0  0  0  0  0  0  0  0  0  0
   38.9196   62.8229   64.6502 H   0  0  0  0  0  0  0  0  0  0  0  0
   40.0622   64.5793   63.3860 H   0  0  0  0  0  0  0  0  0  0  0  0
  1 23  1  0
  2  1  1  0
  3  4  1  0
  3  2  2  0
  4  5  1  0
  5  1  2  0
  6  7  1  0
  6 14  1  0
  7  8  2  0
  8  9  1  0
  9 10  1  0
 10 11  1  0
 10  4  1  0
 12 15  1  0
 12 11  2  0
 13 12  1  0
 14 13  1  0
 14  9  2  0
 15 17  1  0
 16 15  1  0
 18 15  1  0
 19 20  2  0
 19 25  1  0
 21 20  1  0
 22 21  2  0
 23 22  1  0
 23 24  2  0
 24 19  1  0
 25 26  2  0
 26 27  1  0
 28 27  2  0
 29 28  1  0
 30 25  1  0
 30 29  2  0
  2 31  1  0
  3 32  1  0
  6 33  1  0
  7 34  1  0
 10 35  1  6
 13 36  1  0
 16 37  1  0
 16 38  1  0
 16 39  1  0
 17 40  1  0
 17 41  1  0
 17 42  1  0
 18 43  1  0
 18 44  1  0
 18 45  1  0
 20 46  1  0
 21 47  1  0
 26 48  1  0
 27 49  1  0
 28 50  1  0
 29 51  1  0
 30 52  1  0
M  END
>  <Score>  (1) 
-7.39642

$$$$
