
     RDKit          3D

 49 53  0  0  0  0  0  0  0  0999 V2000
   41.3110   67.7950   58.4630 C   0  0  0  0  0  0  0  0  0  0  0  0
   41.6250   67.3860   59.7760 C   0  0  0  0  0  0  0  0  0  0  0  0
   41.8500   68.3010   60.8180 C   0  0  0  0  0  0  0  0  0  0  0  0
   41.7280   69.6170   60.4190 N   0  0  0  0  0  0  0  0  0  0  0  0
   41.4240   69.9980   59.1510 C   0  0  0  0  0  0  0  0  0  0  0  0
   41.2240   69.0920   58.2080 N   0  0  0  0  0  0  0  0  0  0  0  0
   42.1920   68.0990   62.1650 C   0  0  0  0  0  0  0  0  0  0  0  0
   43.5570   68.3440   62.4570 C   0  0  0  0  0  0  0  0  0  0  0  0
   44.0920   68.1980   63.7360 C   0  0  0  0  0  0  0  0  0  0  0  0
   43.2730   67.8020   64.7630 C   0  0  0  0  0  0  0  0  0  0  0  0
   41.9440   67.5560   64.5230 C   0  0  0  0  0  0  0  0  0  0  0  0
   41.0870   67.1550   65.5330 C   0  0  0  0  0  0  0  0  0  0  0  0
   39.7550   66.8970   65.3450 C   0  0  0  0  0  0  0  0  0  0  0  0
   39.3120   67.0670   64.0460 C   0  0  0  0  0  0  0  0  0  0  0  0
   40.1730   67.4670   63.0410 C   0  0  0  0  0  0  0  0  0  0  0  0
   41.4880   67.7160   63.2580 C   0  0  0  0  0  0  0  0  0  0  0  0
   41.3170   71.4220   58.8050 C   0  0  0  0  0  0  0  0  0  0  0  0
   39.9150   71.8890   58.6440 C   0  0  0  0  0  0  0  0  0  0  0  0
   39.7540   73.1350   59.4400 C   0  0  0  0  0  0  0  0  0  0  0  0
   39.3830   73.2750   60.7820 C   0  0  0  0  0  0  0  0  0  0  0  0
   39.3780   74.6410   61.0470 C   0  0  0  0  0  0  0  0  0  0  0  0
   39.7460   75.2560   59.8570 C   0  0  0  0  0  0  0  0  0  0  0  0
   39.9500   74.3460   58.9670 O   0  0  0  0  0  0  0  0  0  0  0  0
   39.8690   76.7000   59.6800 C   0  0  0  0  0  0  0  0  0  0  0  0
   39.3210   77.3090   58.5710 C   0  0  0  0  0  0  0  0  0  0  0  0
   39.4730   78.6900   58.4600 C   0  0  0  0  0  0  0  0  0  0  0  0
   40.1360   79.4600   59.3920 C   0  0  0  0  0  0  0  0  0  0  0  0
   40.6900   78.8460   60.5140 C   0  0  0  0  0  0  0  0  0  0  0  0
   40.5280   77.4850   60.6040 C   0  0  0  0  0  0  0  0  0  0  0  0
   41.1421   67.0533   57.6684 H   0  0  0  0  0  0  0  0  0  0  0  0
   41.6964   66.3098   59.9922 H   0  0  0  0  0  0  0  0  0  0  0  0
   44.2219   68.6626   61.6406 H   0  0  0  0  0  0  0  0  0  0  0  0
   45.1580   68.3979   63.9196 H   0  0  0  0  0  0  0  0  0  0  0  0
   43.6808   67.6818   65.7775 H   0  0  0  0  0  0  0  0  0  0  0  0
   41.4996   67.0366   66.5458 H   0  0  0  0  0  0  0  0  0  0  0  0
   39.0905   66.5798   66.1622 H   0  0  0  0  0  0  0  0  0  0  0  0
   38.2544   66.8804   63.8079 H   0  0  0  0  0  0  0  0  0  0  0  0
   39.7746   67.5883   62.0229 H   0  0  0  0  0  0  0  0  0  0  0  0
   41.7907   72.0111   59.6041 H   0  0  0  0  0  0  0  0  0  0  0  0
   41.8169   71.5578   57.8346 H   0  0  0  0  0  0  0  0  0  0  0  0
   39.7088   72.0940   57.5831 H   0  0  0  0  0  0  0  0  0  0  0  0
   39.2119   71.1181   58.9925 H   0  0  0  0  0  0  0  0  0  0  0  0
   39.1430   72.4658   61.4874 H   0  0  0  0  0  0  0  0  0  0  0  0
   39.1335   75.1318   62.0006 H   0  0  0  0  0  0  0  0  0  0  0  0
   38.7857   76.7286   57.8051 H   0  0  0  0  0  0  0  0  0  0  0  0
   39.0410   79.1924   57.5820 H   0  0  0  0  0  0  0  0  0  0  0  0
   40.2268   80.5472   59.2516 H   0  0  0  0  0  0  0  0  0  0  0  0
   41.2268   79.4192   61.2842 H   0  0  0  0  0  0  0  0  0  0  0  0
   40.9576   76.9808   61.4822 H   0  0  0  0  0  0  0  0  0  0  0  0
  1  2  2  0
  2  3  1  0
  3  7  1  0
  4  3  2  0
  5  4  1  0
  6  1  1  0
  6  5  2  0
  7  8  2  0
  7 16  1  0
  8  9  1  0
  9 10  2  0
 11 10  1  0
 11 12  2  0
 13 12  1  0
 14 13  2  0
 15 16  2  0
 15 14  1  0
 16 11  1  0
 17  5  1  0
 18 17  1  0
 18 19  1  0
 19 20  2  0
 20 21  1  0
 22 21  2  0
 23 19  1  0
 23 22  1  0
 24 22  1  0
 24 29  1  0
 25 24  2  0
 26 25  1  0
 26 27  2  0
 27 28  1  0
 28 29  2  0
  1 30  1  0
  2 31  1  0
  8 32  1  0
  9 33  1  0
 10 34  1  0
 12 35  1  0
 13 36  1  0
 14 37  1  0
 15 38  1  0
 17 39  1  0
 17 40  1  0
 18 41  1  0
 18 42  1  0
 20 43  1  0
 21 44  1  0
 25 45  1  0
 26 46  1  0
 27 47  1  0
 28 48  1  0
 29 49  1  0
M  END
>  <Score>  (1) 
-8.26284

$$$$
