
     RDKit          3D

 40 44  0  0  0  0  0  0  0  0999 V2000
   41.7710   69.1480   58.5680 C   0  0  0  0  0  0  0  0  0  0  0  0
   42.0660   68.4730   59.7590 C   0  0  0  0  0  0  0  0  0  0  0  0
   42.0150   69.0790   61.0000 C   0  0  0  0  0  0  0  0  0  0  0  0
   41.6490   70.3940   60.9310 N   0  0  0  0  0  0  0  0  0  0  0  0
   41.3620   71.0640   59.8050 C   0  0  0  0  0  0  0  0  0  0  0  0
   41.4290   70.4300   58.6440 N   0  0  0  0  0  0  0  0  0  0  0  0
   40.9920   72.4380   59.8480 N   0  0  0  0  0  0  0  0  0  0  0  0
   41.6570   73.3730   60.5680 C   0  0  0  0  0  0  0  0  0  0  0  0
   41.0950   74.5910   60.4300 N   0  0  0  0  0  0  0  0  0  0  0  0
   40.0390   74.4370   59.6010 C   0  0  0  0  0  0  0  0  0  0  0  0
   39.1210   75.3580   59.1270 C   0  0  0  0  0  0  0  0  0  0  0  0
   39.2070   76.5470   59.4680 O   0  0  0  0  0  0  0  0  0  0  0  0
   38.1690   74.8940   58.3020 N   0  0  0  0  0  0  0  0  0  0  0  0
   38.1300   73.5730   57.9630 C   0  0  0  0  0  0  0  0  0  0  0  0
   37.0650   73.2010   57.0760 N   0  0  0  0  0  0  0  0  0  0  0  0
   39.0310   72.6610   58.4280 N   0  0  0  0  0  0  0  0  0  0  0  0
   39.9890   73.1000   59.2500 C   0  0  0  0  0  0  0  0  0  0  0  0
   42.3000   68.6000   62.3080 C   0  0  0  0  0  0  0  0  0  0  0  0
   43.6450   68.7230   62.7200 C   0  0  0  0  0  0  0  0  0  0  0  0
   44.1230   68.3090   63.9410 C   0  0  0  0  0  0  0  0  0  0  0  0
   43.2460   67.7310   64.8360 C   0  0  0  0  0  0  0  0  0  0  0  0
   41.9180   67.5760   64.5060 C   0  0  0  0  0  0  0  0  0  0  0  0
   41.0280   67.0100   65.3820 C   0  0  0  0  0  0  0  0  0  0  0  0
   39.6830   66.8460   65.0840 C   0  0  0  0  0  0  0  0  0  0  0  0
   39.2980   67.2960   63.8310 C   0  0  0  0  0  0  0  0  0  0  0  0
   40.2150   67.8610   62.9720 C   0  0  0  0  0  0  0  0  0  0  0  0
   41.5340   68.0190   63.2710 C   0  0  0  0  0  0  0  0  0  0  0  0
   41.8209   68.6321   57.5978 H   0  0  0  0  0  0  0  0  0  0  0  0
   42.3513   67.4121   59.7042 H   0  0  0  0  0  0  0  0  0  0  0  0
   42.5426   73.1652   61.1865 H   0  0  0  0  0  0  0  0  0  0  0  0
   37.4626   75.5402   57.9220 H   0  0  0  0  0  0  0  0  0  0  0  0
   36.9661   72.2218   56.7722 H   0  0  0  0  0  0  0  0  0  0  0  0
   36.3995   73.9132   56.7432 H   0  0  0  0  0  0  0  0  0  0  0  0
   44.3575   69.1803   62.0177 H   0  0  0  0  0  0  0  0  0  0  0  0
   45.1846   68.4362   64.1995 H   0  0  0  0  0  0  0  0  0  0  0  0
   43.6093   67.3925   65.8175 H   0  0  0  0  0  0  0  0  0  0  0  0
   41.3957   66.6718   66.3620 H   0  0  0  0  0  0  0  0  0  0  0  0
   38.9734   66.3916   65.7911 H   0  0  0  0  0  0  0  0  0  0  0  0
   38.2476   67.2009   63.5186 H   0  0  0  0  0  0  0  0  0  0  0  0
   39.8615   68.2041   61.9885 H   0  0  0  0  0  0  0  0  0  0  0  0
  1  6  2  0
  1  2  1  0
  2  3  2  0
  3 18  1  0
  4  3  1  0
  5  7  1  0
  5  4  2  0
  6  5  1  0
  7  8  1  0
  9  8  2  0
 10  9  1  0
 11 12  2  0
 11 10  1  0
 13 11  1  0
 14 13  1  0
 14 16  2  0
 15 14  1  0
 16 17  1  0
 17 10  2  0
 17  7  1  0
 18 19  2  0
 18 27  1  0
 19 20  1  0
 20 21  2  0
 22 21  1  0
 22 23  2  0
 24 23  1  0
 25 24  2  0
 26 27  2  0
 26 25  1  0
 27 22  1  0
  1 28  1  0
  2 29  1  0
  8 30  1  0
 13 31  1  0
 15 32  1  0
 15 33  1  0
 19 34  1  0
 20 35  1  0
 21 36  1  0
 23 37  1  0
 24 38  1  0
 25 39  1  0
 26 40  1  0
M  END
>  <Score>  (1) 
-8.32684

$$$$
