
     RDKit          3D

 43 46  0  0  1  0  0  0  0  0999 V2000
   42.5440   70.6010   62.1320 C   0  0  2  0  0  0  0  0  0  0  0  0
   39.7240   64.4340   64.4830 C   0  0  0  0  0  0  0  0  0  0  0  0
   39.4030   65.0800   65.6790 C   0  0  0  0  0  0  0  0  0  0  0  0
   39.8900   66.3490   65.8530 C   0  0  0  0  0  0  0  0  0  0  0  0
   40.6430   66.8800   64.8560 N   0  0  0  0  0  0  0  0  0  0  0  0
   40.9450   66.2290   63.6940 C   0  0  0  0  0  0  0  0  0  0  0  0
   40.4820   64.9940   63.5060 N   0  0  0  0  0  0  0  0  0  0  0  0
   41.7540   67.0250   62.8740 N   0  0  0  0  0  0  0  0  0  0  0  0
   41.6480   68.3730   62.8450 C   0  0  0  0  0  0  0  0  0  0  0  0
   42.5500   69.0920   62.0330 C   0  0  0  0  0  0  0  0  0  0  0  0
   43.4770   68.3820   61.3210 C   0  0  0  0  0  0  0  0  0  0  0  0
   44.3470   69.1350   60.4830 N   0  0  0  0  0  0  0  0  0  0  0  0
   43.5410   67.0330   61.3800 N   0  0  0  0  0  0  0  0  0  0  0  0
   42.6700   66.3190   62.1690 C   0  0  0  0  0  0  0  0  0  0  0  0
   42.7640   65.0800   62.1980 O   0  0  0  0  0  0  0  0  0  0  0  0
   41.7260   71.1160   63.2050 C   0  0  0  0  0  0  0  0  0  0  0  0
   41.8450   71.0110   60.7250 C   0  0  0  0  0  0  0  0  0  0  0  0
   42.4920   72.2310   60.3340 N   0  0  0  0  0  0  0  0  0  0  0  0
   43.7770   72.2780   59.9530 N   0  0  0  0  0  0  0  0  0  0  0  0
   44.1250   73.5320   59.6470 C   0  0  0  0  0  0  0  0  0  0  0  0
   43.0520   74.3550   59.8270 C   0  0  0  0  0  0  0  0  0  0  0  0
   42.0700   73.4950   60.2530 C   0  0  0  0  0  0  0  0  0  0  0  0
   40.7160   73.8440   60.5900 N   0  0  0  0  0  0  0  0  0  0  0  0
   39.6140   73.1460   60.9220 C   0  0  0  0  0  0  0  0  0  0  0  0
   38.6030   74.0110   61.1390 N   0  0  0  0  0  0  0  0  0  0  0  0
   39.0680   75.2630   60.9450 C   0  0  0  0  0  0  0  0  0  0  0  0
   40.3780   75.1420   60.6060 N   0  0  0  0  0  0  0  0  0  0  0  0
   43.5526   70.9959   62.3240 H   0  0  0  0  0  0  0  0  0  0  0  0
   39.3414   63.4150   64.3240 H   0  0  0  0  0  0  0  0  0  0  0  0
   38.7862   64.5914   66.4477 H   0  0  0  0  0  0  0  0  0  0  0  0
   39.6779   66.9184   66.7699 H   0  0  0  0  0  0  0  0  0  0  0  0
   40.8809   68.8934   63.4372 H   0  0  0  0  0  0  0  0  0  0  0  0
   44.2762   70.1622   60.4577 H   0  0  0  0  0  0  0  0  0  0  0  0
   45.0474   68.6526   59.9019 H   0  0  0  0  0  0  0  0  0  0  0  0
   42.1704   70.8362   64.1716 H   0  0  0  0  0  0  0  0  0  0  0  0
   41.6708   72.2121   63.1304 H   0  0  0  0  0  0  0  0  0  0  0  0
   40.7138   70.6920   63.1304 H   0  0  0  0  0  0  0  0  0  0  0  0
   42.0065   70.2278   59.9697 H   0  0  0  0  0  0  0  0  0  0  0  0
   40.7561   71.1323   60.8230 H   0  0  0  0  0  0  0  0  0  0  0  0
   45.1205   73.8503   59.3039 H   0  0  0  0  0  0  0  0  0  0  0  0
   42.9889   75.4418   59.6694 H   0  0  0  0  0  0  0  0  0  0  0  0
   39.5491   72.0509   61.0029 H   0  0  0  0  0  0  0  0  0  0  0  0
   38.4978   76.1986   61.0423 H   0  0  0  0  0  0  0  0  0  0  0  0
  1 16  1  0
  2  3  2  0
  3  4  1  0
  5  4  2  0
  6  5  1  0
  7  6  2  0
  7  2  1  0
  8  6  1  0
  9  8  1  0
 10  1  1  0
 10  9  2  0
 11 13  2  0
 11 10  1  0
 12 11  1  0
 13 14  1  0
 14 15  2  0
 14  8  1  0
 17  1  1  0
 18 17  1  0
 19 18  1  0
 20 21  1  0
 20 19  2  0
 21 22  2  0
 22 18  1  0
 22 23  1  0
 23 27  1  0
 23 24  1  0
 24 25  2  0
 26 25  1  0
 27 26  2  0
  1 28  1  6
  2 29  1  0
  3 30  1  0
  4 31  1  0
  9 32  1  0
 12 33  1  0
 12 34  1  0
 16 35  1  0
 16 36  1  0
 16 37  1  0
 17 38  1  0
 17 39  1  0
 20 40  1  0
 21 41  1  0
 24 42  1  0
 26 43  1  0
M  END
>  <Score>  (1) 
-7.29739

$$$$
