
     RDKit          3D

 43 45  0  0  0  0  0  0  0  0999 V2000
   41.6620   68.0600   63.4600 C   0  0  0  0  0  0  0  0  0  0  0  0
   42.0250   68.9750   59.8400 C   0  0  0  0  0  0  0  0  0  0  0  0
   41.7610   68.2220   60.9850 C   0  0  0  0  0  0  0  0  0  0  0  0
   41.9290   68.8240   62.2380 C   0  0  0  0  0  0  0  0  0  0  0  0
   42.3440   70.1190   62.2550 N   0  0  0  0  0  0  0  0  0  0  0  0
   42.5930   70.8280   61.1400 C   0  0  0  0  0  0  0  0  0  0  0  0
   42.4350   70.2620   59.9220 N   0  0  0  0  0  0  0  0  0  0  0  0
   43.0310   72.1970   61.1990 N   0  0  0  0  0  0  0  0  0  0  0  0
   43.6230   72.8380   60.0860 C   0  0  0  0  0  0  0  0  0  0  0  0
   43.9480   72.0740   59.1030 N   0  0  0  0  0  0  0  0  0  0  0  0
   43.8470   74.2460   60.0540 N   0  0  0  0  0  0  0  0  0  0  0  0
   44.4440   72.4910   58.2730 H   0  0  0  0  0  0  0  0  0  0  0  0
   42.5000   66.8080   63.4110 C   0  0  0  0  0  0  0  0  0  0  0  0
   42.2300   68.8740   64.6380 C   0  0  0  0  0  0  0  0  0  0  0  0
   40.2130   67.7290   63.6770 C   0  0  0  0  0  0  0  0  0  0  0  0
   39.9920   66.3920   64.1150 N   0  0  0  0  0  0  0  0  0  0  0  0
   39.9060   65.3500   63.2700 C   0  0  0  0  0  0  0  0  0  0  0  0
   39.6960   64.2200   63.9500 N   0  0  0  0  0  0  0  0  0  0  0  0
   39.6460   64.5300   65.2450 C   0  0  0  0  0  0  0  0  0  0  0  0
   39.4580   63.8260   66.4340 C   0  0  0  0  0  0  0  0  0  0  0  0
   39.2880   62.5700   66.3270 O   0  0  0  0  0  0  0  0  0  0  0  0
   39.4600   64.4680   67.6380 N   0  0  0  0  0  0  0  0  0  0  0  0
   39.6440   65.8000   67.6980 C   0  0  0  0  0  0  0  0  0  0  0  0
   39.6210   66.3210   69.0210 N   0  0  0  0  0  0  0  0  0  0  0  0
   39.8280   66.5080   66.5690 N   0  0  0  0  0  0  0  0  0  0  0  0
   39.8320   65.9100   65.3610 C   0  0  0  0  0  0  0  0  0  0  0  0
   41.8971   68.5126   58.8501 H   0  0  0  0  0  0  0  0  0  0  0  0
   41.4277   67.1768   60.9048 H   0  0  0  0  0  0  0  0  0  0  0  0
   42.9102   72.7245   62.0754 H   0  0  0  0  0  0  0  0  0  0  0  0
   44.2807   74.6798   59.2266 H   0  0  0  0  0  0  0  0  0  0  0  0
   43.5751   74.8292   60.8583 H   0  0  0  0  0  0  0  0  0  0  0  0
   42.7226   66.4754   64.4356 H   0  0  0  0  0  0  0  0  0  0  0  0
   41.9481   66.0179   62.8808 H   0  0  0  0  0  0  0  0  0  0  0  0
   43.4409   67.0170   62.8808 H   0  0  0  0  0  0  0  0  0  0  0  0
   41.9114   68.4174   65.5867 H   0  0  0  0  0  0  0  0  0  0  0  0
   43.3287   68.8790   64.5843 H   0  0  0  0  0  0  0  0  0  0  0  0
   41.8556   69.9069   64.5843 H   0  0  0  0  0  0  0  0  0  0  0  0
   39.8098   68.4148   64.4367 H   0  0  0  0  0  0  0  0  0  0  0  0
   39.7089   67.8371   62.7053 H   0  0  0  0  0  0  0  0  0  0  0  0
   39.9957   65.4183   62.1758 H   0  0  0  0  0  0  0  0  0  0  0  0
   39.3200   63.9306   68.5054 H   0  0  0  0  0  0  0  0  0  0  0  0
   39.7522   67.3303   69.1794 H   0  0  0  0  0  0  0  0  0  0  0  0
   39.4732   65.6891   69.8208 H   0  0  0  0  0  0  0  0  0  0  0  0
  1 15  1  0
  1 14  1  0
  2  7  2  0
  2  3  1  0
  3  4  2  0
  4  5  1  0
  4  1  1  0
  6  8  1  0
  6  5  2  0
  7  6  1  0
  9  8  1  0
 10  9  2  0
 11  9  1  0
 12 10  1  0
 13  1  1  0
 15 16  1  0
 16 26  1  0
 17 18  2  0
 17 16  1  0
 18 19  1  0
 19 26  2  0
 19 20  1  0
 20 22  1  0
 21 20  2  0
 22 23  1  0
 23 24  1  0
 25 23  2  0
 26 25  1  0
  2 27  1  0
  3 28  1  0
  8 29  1  0
 11 30  1  0
 11 31  1  0
 13 32  1  0
 13 33  1  0
 13 34  1  0
 14 35  1  0
 14 36  1  0
 14 37  1  0
 15 38  1  0
 15 39  1  0
 17 40  1  0
 22 41  1  0
 24 42  1  0
 24 43  1  0
M  END
>  <Score>  (1) 
-7.01372

$$$$
