
     RDKit          3D

 46 51  0  0  0  0  0  0  0  0999 V2000
   41.1090   66.1990   62.5240 C   0  0  0  0  0  0  0  0  0  0  0  0
   40.4230   66.8200   61.4410 C   0  0  0  0  0  0  0  0  0  0  0  0
   40.9910   66.6390   60.1690 C   0  0  0  0  0  0  0  0  0  0  0  0
   42.1220   65.9070   60.0390 N   0  0  0  0  0  0  0  0  0  0  0  0
   42.7330   65.3390   61.0990 C   0  0  0  0  0  0  0  0  0  0  0  0
   42.2440   65.4720   62.3540 N   0  0  0  0  0  0  0  0  0  0  0  0
   40.5500   66.3690   63.7970 N   0  0  0  0  0  0  0  0  0  0  0  0
   40.1640   67.5820   64.2290 C   0  0  0  0  0  0  0  0  0  0  0  0
   39.6560   67.5450   65.4670 N   0  0  0  0  0  0  0  0  0  0  0  0
   39.7010   66.2820   65.8740 C   0  0  0  0  0  0  0  0  0  0  0  0
   39.3810   65.4860   66.9850 C   0  0  0  0  0  0  0  0  0  0  0  0
   39.5730   64.1730   67.0460 N   0  0  0  0  0  0  0  0  0  0  0  0
   40.1210   63.5530   65.9850 C   0  0  0  0  0  0  0  0  0  0  0  0
   40.4770   64.1930   64.8650 N   0  0  0  0  0  0  0  0  0  0  0  0
   40.2600   65.5500   64.8290 C   0  0  0  0  0  0  0  0  0  0  0  0
   43.9520   64.5720   60.8500 C   0  0  0  0  0  0  0  0  0  0  0  0
   43.9010   63.4360   60.0810 C   0  0  0  0  0  0  0  0  0  0  0  0
   45.0530   62.7320   59.8480 C   0  0  0  0  0  0  0  0  0  0  0  0
   46.2190   63.2150   60.4140 C   0  0  0  0  0  0  0  0  0  0  0  0
   46.2980   64.3420   61.1830 C   0  0  0  0  0  0  0  0  0  0  0  0
   45.1230   65.0850   61.4350 C   0  0  0  0  0  0  0  0  0  0  0  0
   45.1970   66.3060   62.2050 C   0  0  0  0  0  0  0  0  0  0  0  0
   45.9610   66.3200   63.2200 O   0  0  0  0  0  0  0  0  0  0  0  0
   44.0620   69.9510   59.5240 N   0  0  0  0  0  0  0  0  0  0  0  0
   44.7920   69.0540   58.8410 C   0  0  0  0  0  0  0  0  0  0  0  0
   45.0940   68.0380   59.6600 N   0  0  0  0  0  0  0  0  0  0  0  0
   44.5710   68.2580   60.8640 C   0  0  0  0  0  0  0  0  0  0  0  0
   44.5400   67.6120   62.0530 C   0  0  0  0  0  0  0  0  0  0  0  0
   43.8660   68.2320   63.0360 N   0  0  0  0  0  0  0  0  0  0  0  0
   43.2370   69.3880   62.9670 C   0  0  0  0  0  0  0  0  0  0  0  0
   43.2500   70.0520   61.7990 N   0  0  0  0  0  0  0  0  0  0  0  0
   43.9100   69.4930   60.7580 C   0  0  0  0  0  0  0  0  0  0  0  0
   39.5042   67.4058   61.5916 H   0  0  0  0  0  0  0  0  0  0  0  0
   40.5192   67.0897   59.2834 H   0  0  0  0  0  0  0  0  0  0  0  0
   40.2553   68.5016   63.6323 H   0  0  0  0  0  0  0  0  0  0  0  0
   39.9502   65.9083   67.8262 H   0  0  0  0  0  0  0  0  0  0  0  0
   38.2822   65.5322   66.9613 H   0  0  0  0  0  0  0  0  0  0  0  0
   40.2844   62.4666   66.0410 H   0  0  0  0  0  0  0  0  0  0  0  0
   40.8940   63.6923   64.0673 H   0  0  0  0  0  0  0  0  0  0  0  0
   42.9454   63.0946   59.6564 H   0  0  0  0  0  0  0  0  0  0  0  0
   45.0507   61.8187   59.2350 H   0  0  0  0  0  0  0  0  0  0  0  0
   47.1471   62.6530   60.2326 H   0  0  0  0  0  0  0  0  0  0  0  0
   47.2629   64.6661   61.5999 H   0  0  0  0  0  0  0  0  0  0  0  0
   43.6874   70.8365   59.1546 H   0  0  0  0  0  0  0  0  0  0  0  0
   45.0916   69.1394   57.7860 H   0  0  0  0  0  0  0  0  0  0  0  0
   42.7145   69.7989   63.8435 H   0  0  0  0  0  0  0  0  0  0  0  0
  1  7  1  0
  2  1  2  0
  3  2  1  0
  4  3  2  0
  4  5  1  0
  5  6  2  0
  6  1  1  0
  7  8  1  0
  7 15  1  0
  8  9  2  0
  9 10  1  0
 10 11  1  0
 11 12  1  0
 13 12  2  0
 14 13  1  0
 15 14  1  0
 15 10  2  0
 16  5  1  0
 16 21  1  0
 17 16  2  0
 18 17  1  0
 18 19  2  0
 19 20  1  0
 20 21  2  0
 21 22  1  0
 22 23  2  0
 24 32  1  0
 25 24  1  0
 25 26  2  0
 26 27  1  0
 27 28  1  0
 28 22  1  0
 28 29  2  0
 30 29  1  0
 31 30  2  0
 32 27  2  0
 32 31  1  0
  2 33  1  0
  3 34  1  0
  8 35  1  0
 11 36  1  0
 11 37  1  0
 13 38  1  0
 14 39  1  0
 17 40  1  0
 18 41  1  0
 19 42  1  0
 20 43  1  0
 24 44  1  0
 25 45  1  0
 30 46  1  0
M  END
>  <Score>  (1) 
-7.49232

$$$$
