
     RDKit          3D

 45 49  0  0  0  0  0  0  0  0999 V2000
   42.2590   68.7820   61.4160 N   0  0  0  0  0  0  0  0  0  0  0  0
   42.1750   70.0010   61.8470 C   0  0  0  0  0  0  0  0  0  0  0  0
   42.9020   71.0040   61.2430 C   0  0  0  0  0  0  0  0  0  0  0  0
   43.6890   70.6780   60.2080 C   0  0  0  0  0  0  0  0  0  0  0  0
   44.3660   71.5720   59.6360 O   0  0  0  0  0  0  0  0  0  0  0  0
   43.7360   69.3850   59.8030 N   0  0  0  0  0  0  0  0  0  0  0  0
   43.0160   68.4010   60.4030 C   0  0  0  0  0  0  0  0  0  0  0  0
   43.1290   67.2450   59.9520 O   0  0  0  0  0  0  0  0  0  0  0  0
   40.3800   66.0400   63.7030 C   0  0  0  0  0  0  0  0  0  0  0  0
   39.8990   66.0730   62.4220 C   0  0  0  0  0  0  0  0  0  0  0  0
   40.4860   66.9750   61.5920 C   0  0  0  0  0  0  0  0  0  0  0  0
   41.4770   67.7560   62.0770 C   0  0  0  0  0  0  0  0  0  0  0  0
   41.6630   67.2570   63.8080 S   0  0  0  0  0  0  0  0  0  0  0  0
   39.9540   65.1850   64.8270 C   0  0  0  0  0  0  0  0  0  0  0  0
   39.9610   65.6030   66.1500 C   0  0  0  0  0  0  0  0  0  0  0  0
   39.5320   64.6980   67.1080 C   0  0  0  0  0  0  0  0  0  0  0  0
   39.1330   63.4650   66.7160 N   0  0  0  0  0  0  0  0  0  0  0  0
   39.1350   63.0770   65.4100 C   0  0  0  0  0  0  0  0  0  0  0  0
   39.5530   63.9740   64.5210 N   0  0  0  0  0  0  0  0  0  0  0  0
   38.7180   61.7940   65.0190 N   0  0  0  0  0  0  0  0  0  0  0  0
   42.7230   72.3750   61.8090 C   0  0  0  0  0  0  0  0  0  0  0  0
   42.1920   73.2170   60.6860 C   0  0  0  0  0  0  0  0  0  0  0  0
   42.7480   74.2790   59.9910 C   0  0  0  0  0  0  0  0  0  0  0  0
   41.8440   74.7200   59.0330 C   0  0  0  0  0  0  0  0  0  0  0  0
   40.7460   73.8830   59.1910 C   0  0  0  0  0  0  0  0  0  0  0  0
   41.0050   73.0300   60.1660 O   0  0  0  0  0  0  0  0  0  0  0  0
   39.4910   73.9410   58.3960 C   0  0  0  0  0  0  0  0  0  0  0  0
   38.8950   75.2830   58.1120 C   0  0  0  0  0  0  0  0  0  0  0  0
   37.3960   74.6930   57.1160 S   0  0  0  0  0  0  0  0  0  0  0  0
   37.8660   72.8600   57.2870 C   0  0  0  0  0  0  0  0  0  0  0  0
   38.9020   72.8520   57.9460 N   0  0  0  0  0  0  0  0  0  0  0  0
   41.5203   70.2365   62.6990 H   0  0  0  0  0  0  0  0  0  0  0  0
   44.3424   69.1384   59.0078 H   0  0  0  0  0  0  0  0  0  0  0  0
   39.0878   65.4107   62.0853 H   0  0  0  0  0  0  0  0  0  0  0  0
   40.1608   67.0678   60.5453 H   0  0  0  0  0  0  0  0  0  0  0  0
   40.2942   66.6138   66.4278 H   0  0  0  0  0  0  0  0  0  0  0  0
   39.5159   64.9775   68.1718 H   0  0  0  0  0  0  0  0  0  0  0  0
   38.7307   61.5294   64.0236 H   0  0  0  0  0  0  0  0  0  0  0  0
   38.3995   61.1177   65.7276 H   0  0  0  0  0  0  0  0  0  0  0  0
   42.0066   72.3540   62.6434 H   0  0  0  0  0  0  0  0  0  0  0  0
   43.6685   72.7762   62.2027 H   0  0  0  0  0  0  0  0  0  0  0  0
   43.7463   74.7050   60.1695 H   0  0  0  0  0  0  0  0  0  0  0  0
   41.9687   75.5431   58.3140 H   0  0  0  0  0  0  0  0  0  0  0  0
   39.2238   76.2944   58.3931 H   0  0  0  0  0  0  0  0  0  0  0  0
   37.3256   71.9916   56.8822 H   0  0  0  0  0  0  0  0  0  0  0  0
  1  2  1  0
  1 12  1  0
  3 21  1  0
  3  2  2  0
  4  3  1  0
  5  4  2  0
  6  4  1  0
  6  7  1  0
  7  1  1  0
  8  7  2  0
  9 13  1  0
  9 14  1  0
 10  9  2  0
 11 12  2  0
 11 10  1  0
 12 13  1  0
 14 15  2  0
 15 16  1  0
 17 16  2  0
 18 17  1  0
 19 14  1  0
 19 18  2  0
 20 18  1  0
 22 21  1  0
 23 22  2  0
 24 25  2  0
 24 23  1  0
 25 26  1  0
 26 22  1  0
 27 25  1  0
 28 27  2  0
 29 30  1  0
 29 28  1  0
 30 31  2  0
 31 27  1  0
  2 32  1  0
  6 33  1  0
 10 34  1  0
 11 35  1  0
 15 36  1  0
 16 37  1  0
 20 38  1  0
 20 39  1  0
 21 40  1  0
 21 41  1  0
 23 42  1  0
 24 43  1  0
 28 44  1  0
 30 45  1  0
M  END
>  <Score>  (1) 
-7.66311

$$$$
