
     RDKit          3D

 45 48  0  0  0  0  0  0  0  0999 V2000
   42.1050   69.5420   61.9190 N   0  0  0  0  0  0  0  0  0  0  0  0
   41.5540   70.6980   62.1640 C   0  0  0  0  0  0  0  0  0  0  0  0
   42.1020   71.8720   61.6440 C   0  0  0  0  0  0  0  0  0  0  0  0
   43.2110   71.7420   60.8890 C   0  0  0  0  0  0  0  0  0  0  0  0
   43.7230   72.7810   60.4120 O   0  0  0  0  0  0  0  0  0  0  0  0
   43.7310   70.5120   60.6740 N   0  0  0  0  0  0  0  0  0  0  0  0
   43.1800   69.3790   61.1920 C   0  0  0  0  0  0  0  0  0  0  0  0
   43.7570   68.2910   60.9200 O   0  0  0  0  0  0  0  0  0  0  0  0
   40.5400   66.4440   63.9740 C   0  0  0  0  0  0  0  0  0  0  0  0
   40.4210   66.2930   62.6300 C   0  0  0  0  0  0  0  0  0  0  0  0
   40.9150   67.2800   61.8490 C   0  0  0  0  0  0  0  0  0  0  0  0
   41.5000   68.3580   62.4700 C   0  0  0  0  0  0  0  0  0  0  0  0
   41.3600   67.9900   64.2440 S   0  0  0  0  0  0  0  0  0  0  0  0
   40.0910   65.5290   65.0260 C   0  0  0  0  0  0  0  0  0  0  0  0
   40.1020   65.8730   66.3850 C   0  0  0  0  0  0  0  0  0  0  0  0
   39.6490   64.9200   67.2910 C   0  0  0  0  0  0  0  0  0  0  0  0
   39.2220   63.7060   66.8070 N   0  0  0  0  0  0  0  0  0  0  0  0
   39.2260   63.4130   65.5000 C   0  0  0  0  0  0  0  0  0  0  0  0
   39.6610   64.3300   64.6340 N   0  0  0  0  0  0  0  0  0  0  0  0
   38.7770   62.1580   65.0350 N   0  0  0  0  0  0  0  0  0  0  0  0
   41.3760   73.1240   61.9760 C   0  0  0  0  0  0  0  0  0  0  0  0
   40.4460   73.4420   60.9540 N   0  0  0  0  0  0  0  0  0  0  0  0
   40.3620   72.4200   60.0590 C   0  0  0  0  0  0  0  0  0  0  0  0
   39.5560   72.4350   58.9270 C   0  0  0  0  0  0  0  0  0  0  0  0
   39.4360   71.3520   57.9370 C   0  0  0  0  0  0  0  0  0  0  0  0
   38.7790   73.5680   58.6870 C   0  0  0  0  0  0  0  0  0  0  0  0
   38.0200   73.6740   57.6940 O   0  0  0  0  0  0  0  0  0  0  0  0
   38.8740   74.5600   59.5750 N   0  0  0  0  0  0  0  0  0  0  0  0
   39.6690   74.4850   60.6450 C   0  0  0  0  0  0  0  0  0  0  0  0
   39.7400   75.4260   61.4670 O   0  0  0  0  0  0  0  0  0  0  0  0
   40.6485   70.7487   62.7865 H   0  0  0  0  0  0  0  0  0  0  0  0
   44.5786   70.4286   60.0947 H   0  0  0  0  0  0  0  0  0  0  0  0
   39.9421   65.4038   62.1942 H   0  0  0  0  0  0  0  0  0  0  0  0
   40.8509   67.2223   60.7524 H   0  0  0  0  0  0  0  0  0  0  0  0
   40.4553   66.8588   66.7218 H   0  0  0  0  0  0  0  0  0  0  0  0
   39.6327   65.1326   68.3701 H   0  0  0  0  0  0  0  0  0  0  0  0
   38.7867   61.9489   64.0265 H   0  0  0  0  0  0  0  0  0  0  0  0
   38.4397   61.4514   65.7042 H   0  0  0  0  0  0  0  0  0  0  0  0
   40.8385   72.9901   62.9263 H   0  0  0  0  0  0  0  0  0  0  0  0
   42.1027   73.9449   62.0651 H   0  0  0  0  0  0  0  0  0  0  0  0
   40.9720   71.5235   60.2438 H   0  0  0  0  0  0  0  0  0  0  0  0
   39.3293   70.3891   58.4580 H   0  0  0  0  0  0  0  0  0  0  0  0
   38.5518   71.5278   57.3066 H   0  0  0  0  0  0  0  0  0  0  0  0
   40.3372   71.3299   57.3066 H   0  0  0  0  0  0  0  0  0  0  0  0
   38.3148   75.4127   59.4298 H   0  0  0  0  0  0  0  0  0  0  0  0
  1  2  1  0
  1 12  1  0
  3 21  1  0
  3  2  2  0
  4  3  1  0
  5  4  2  0
  6  4  1  0
  6  7  1  0
  7  1  1  0
  8  7  2  0
  9 13  1  0
  9 14  1  0
 10  9  2  0
 11 12  2  0
 11 10  1  0
 12 13  1  0
 14 15  2  0
 15 16  1  0
 17 16  2  0
 18 17  1  0
 19 14  1  0
 19 18  2  0
 20 18  1  0
 22 21  1  0
 23 22  1  0
 24 23  2  0
 25 24  1  0
 26 24  1  0
 26 28  1  0
 27 26  2  0
 28 29  1  0
 29 22  1  0
 29 30  2  0
  2 31  1  0
  6 32  1  0
 10 33  1  0
 11 34  1  0
 15 35  1  0
 16 36  1  0
 20 37  1  0
 20 38  1  0
 21 39  1  0
 21 40  1  0
 23 41  1  0
 25 42  1  0
 25 43  1  0
 25 44  1  0
 28 45  1  0
M  END
>  <Score>  (1) 
-7.84767

$$$$
