
     RDKit          3D

 42 45  0  0  1  0  0  0  0  0999 V2000
   42.1640   71.3020   63.1200 O   0  0  0  0  0  0  0  0  0  0  0  0
   42.1180   71.9080   61.8950 C   0  0  0  0  0  0  0  0  0  0  0  0
   43.2010   72.3500   61.0370 C   0  0  0  0  0  0  0  0  0  0  0  0
   42.2780   73.1850   59.6480 S   0  0  0  0  0  0  0  0  0  0  0  0
   40.6210   72.8110   60.4740 C   0  0  1  0  0  0  0  0  0  0  0  0
   40.9090   72.1810   61.3280 N   0  0  0  0  0  0  0  0  0  0  0  0
   40.0560   74.1950   60.7050 C   0  0  0  0  0  0  0  0  0  0  0  0
   38.8910   74.5300   61.3300 C   0  0  0  0  0  0  0  0  0  0  0  0
   38.8140   75.8920   61.2910 N   0  0  0  0  0  0  0  0  0  0  0  0
   39.8980   76.4000   60.6600 C   0  0  0  0  0  0  0  0  0  0  0  0
   40.2420   77.7070   60.3910 C   0  0  0  0  0  0  0  0  0  0  0  0
   41.4240   77.9230   59.7220 C   0  0  0  0  0  0  0  0  0  0  0  0
   42.2510   76.8720   59.3280 C   0  0  0  0  0  0  0  0  0  0  0  0
   41.9060   75.5630   59.5970 C   0  0  0  0  0  0  0  0  0  0  0  0
   40.7060   75.3310   60.2750 C   0  0  0  0  0  0  0  0  0  0  0  0
   42.2430   69.9300   63.2320 C   0  0  0  0  0  0  0  0  0  0  0  0
   43.3620   69.4630   63.0650 O   0  0  0  0  0  0  0  0  0  0  0  0
   41.0760   69.2910   63.5080 O   0  0  0  0  0  0  0  0  0  0  0  0
   41.0300   67.9830   63.9170 C   0  0  0  0  0  0  0  0  0  0  0  0
   39.6460   67.5730   64.4190 C   0  0  0  0  0  0  0  0  0  0  0  0
   39.8350   65.2150   67.3290 C   0  0  0  0  0  0  0  0  0  0  0  0
   39.7630   66.3890   66.5970 C   0  0  0  0  0  0  0  0  0  0  0  0
   39.7220   66.3350   65.2110 C   0  0  0  0  0  0  0  0  0  0  0  0
   39.7550   65.1120   64.6400 N   0  0  0  0  0  0  0  0  0  0  0  0
   39.8260   63.9540   65.3550 C   0  0  0  0  0  0  0  0  0  0  0  0
   39.8650   64.0400   66.7190 N   0  0  0  0  0  0  0  0  0  0  0  0
   43.8620   73.0571   61.5596 H   0  0  0  0  0  0  0  0  0  0  0  0
   43.8634   71.5373   60.7042 H   0  0  0  0  0  0  0  0  0  0  0  0
   39.8252   72.2497   59.9626 H   0  0  0  0  0  0  0  0  0  0  0  0
   38.1596   73.8402   61.7763 H   0  0  0  0  0  0  0  0  0  0  0  0
   38.0437   76.4513   61.6842 H   0  0  0  0  0  0  0  0  0  0  0  0
   39.5974   78.5435   60.6988 H   0  0  0  0  0  0  0  0  0  0  0  0
   41.7258   78.9553   59.4910 H   0  0  0  0  0  0  0  0  0  0  0  0
   43.1894   77.0886   58.7965 H   0  0  0  0  0  0  0  0  0  0  0  0
   42.5542   74.7297   59.2880 H   0  0  0  0  0  0  0  0  0  0  0  0
   41.3021   67.3386   63.0681 H   0  0  0  0  0  0  0  0  0  0  0  0
   41.7350   67.8704   64.7538 H   0  0  0  0  0  0  0  0  0  0  0  0
   39.2373   68.3782   65.0471 H   0  0  0  0  0  0  0  0  0  0  0  0
   38.9945   67.3961   63.5505 H   0  0  0  0  0  0  0  0  0  0  0  0
   39.8676   65.2593   68.4276 H   0  0  0  0  0  0  0  0  0  0  0  0
   39.7384   67.3604   67.1126 H   0  0  0  0  0  0  0  0  0  0  0  0
   39.8512   62.9776   64.8490 H   0  0  0  0  0  0  0  0  0  0  0  0
  1 16  1  0
  2  1  1  0
  3  2  1  0
  4  5  1  0
  4  3  1  0
  5  7  1  0
  5  6  1  0
  6  2  2  0
  7  8  2  0
  9  8  1  0
 10  9  1  0
 11 10  2  0
 12 11  1  0
 13 14  1  0
 13 12  2  0
 14 15  2  0
 15 10  1  0
 15  7  1  0
 16 18  1  0
 17 16  2  0
 18 19  1  0
 19 20  1  0
 20 23  1  0
 22 21  2  0
 23 22  1  0
 24 23  2  0
 24 25  1  0
 25 26  2  0
 26 21  1  0
  3 27  1  0
  3 28  1  0
  5 29  1  6
  8 30  1  0
  9 31  1  0
 11 32  1  0
 12 33  1  0
 13 34  1  0
 14 35  1  0
 19 36  1  0
 19 37  1  0
 20 38  1  0
 20 39  1  0
 21 40  1  0
 22 41  1  0
 25 42  1  0
M  END
>  <Score>  (1) 
-7.1347

$$$$
