
     RDKit          3D

 46 49  0  0  1  0  0  0  0  0999 V2000
   39.7940   64.5260   64.4280 C   0  0  0  0  0  0  0  0  0  0  0  0
   39.4590   65.2010   65.6230 C   0  0  0  0  0  0  0  0  0  0  0  0
   39.9600   66.5000   65.7610 C   0  0  0  0  0  0  0  0  0  0  0  0
   40.7130   66.9980   64.7520 N   0  0  0  0  0  0  0  0  0  0  0  0
   41.0110   66.3240   63.6250 C   0  0  0  0  0  0  0  0  0  0  0  0
   40.5470   65.0870   63.4690 N   0  0  0  0  0  0  0  0  0  0  0  0
   41.8180   67.0970   62.7670 N   0  0  0  0  0  0  0  0  0  0  0  0
   41.7200   68.4450   62.7190 C   0  0  0  0  0  0  0  0  0  0  0  0
   42.5740   69.1460   61.8680 C   0  0  0  0  0  0  0  0  0  0  0  0
   43.4750   68.4130   61.1170 C   0  0  0  0  0  0  0  0  0  0  0  0
   44.3240   69.1370   60.2390 N   0  0  0  0  0  0  0  0  0  0  0  0
   43.5310   67.0620   61.2030 N   0  0  0  0  0  0  0  0  0  0  0  0
   42.6950   66.3780   62.0390 C   0  0  0  0  0  0  0  0  0  0  0  0
   42.7850   65.1300   62.0830 O   0  0  0  0  0  0  0  0  0  0  0  0
   42.5650   70.6480   61.8840 C   0  0  2  0  0  0  0  0  0  0  0  0
   41.9500   71.1910   63.1170 C   0  0  0  0  0  0  0  0  0  0  0  0
   41.7160   71.0620   60.6510 C   0  0  0  0  0  0  0  0  0  0  0  0
   41.8750   72.4590   60.2810 C   0  0  0  0  0  0  0  0  0  0  0  0
   43.1000   72.7970   59.6900 C   0  0  0  0  0  0  0  0  0  0  0  0
   43.4490   74.0480   59.2420 C   0  0  0  0  0  0  0  0  0  0  0  0
   42.5400   75.0720   59.3710 C   0  0  0  0  0  0  0  0  0  0  0  0
   41.3100   74.7870   59.9510 C   0  0  0  0  0  0  0  0  0  0  0  0
   40.3600   75.7940   60.1150 C   0  0  0  0  0  0  0  0  0  0  0  0
   39.1380   75.5040   60.7050 C   0  0  0  0  0  0  0  0  0  0  0  0
   38.8610   74.2120   61.1340 C   0  0  0  0  0  0  0  0  0  0  0  0
   39.7890   73.1940   60.9830 C   0  0  0  0  0  0  0  0  0  0  0  0
   40.9880   73.5030   60.3960 C   0  0  0  0  0  0  0  0  0  0  0  0
   39.4235   63.5012   64.2777 H   0  0  0  0  0  0  0  0  0  0  0  0
   38.8392   64.7317   66.4012 H   0  0  0  0  0  0  0  0  0  0  0  0
   39.7489   67.0974   66.6602 H   0  0  0  0  0  0  0  0  0  0  0  0
   40.9825   68.9771   63.3379 H   0  0  0  0  0  0  0  0  0  0  0  0
   44.2614   70.1640   60.1926 H   0  0  0  0  0  0  0  0  0  0  0  0
   45.0025   68.6352   59.6485 H   0  0  0  0  0  0  0  0  0  0  0  0
   43.5916   71.0419   61.8539 H   0  0  0  0  0  0  0  0  0  0  0  0
   42.4450   70.7540   63.9968 H   0  0  0  0  0  0  0  0  0  0  0  0
   42.0686   72.2844   63.1350 H   0  0  0  0  0  0  0  0  0  0  0  0
   40.8797   70.9379   63.1350 H   0  0  0  0  0  0  0  0  0  0  0  0
   42.0167   70.4388   59.7959 H   0  0  0  0  0  0  0  0  0  0  0  0
   40.6597   70.9168   60.9215 H   0  0  0  0  0  0  0  0  0  0  0  0
   43.8434   71.9944   59.5754 H   0  0  0  0  0  0  0  0  0  0  0  0
   44.4354   74.2270   58.7893 H   0  0  0  0  0  0  0  0  0  0  0  0
   42.7800   76.0881   59.0247 H   0  0  0  0  0  0  0  0  0  0  0  0
   40.5789   76.8176   59.7770 H   0  0  0  0  0  0  0  0  0  0  0  0
   38.3877   76.2981   60.8332 H   0  0  0  0  0  0  0  0  0  0  0  0
   37.8893   73.9936   61.6011 H   0  0  0  0  0  0  0  0  0  0  0  0
   39.5702   72.1711   61.3233 H   0  0  0  0  0  0  0  0  0  0  0  0
  1  2  2  0
  2  3  1  0
  4  3  2  0
  5  4  1  0
  6  5  2  0
  6  1  1  0
  7  5  1  0
  8  7  1  0
  9 15  1  0
  9  8  2  0
 10 12  2  0
 10  9  1  0
 11 10  1  0
 12 13  1  0
 13 14  2  0
 13  7  1  0
 15 16  1  0
 17 15  1  0
 18 27  1  0
 18 17  1  0
 19 18  2  0
 20 21  2  0
 20 19  1  0
 21 22  1  0
 22 23  1  0
 22 27  2  0
 23 24  2  0
 24 25  1  0
 26 25  2  0
 27 26  1  0
  1 28  1  0
  2 29  1  0
  3 30  1  0
  8 31  1  0
 11 32  1  0
 11 33  1  0
 15 34  1  6
 16 35  1  0
 16 36  1  0
 16 37  1  0
 17 38  1  0
 17 39  1  0
 19 40  1  0
 20 41  1  0
 21 42  1  0
 23 43  1  0
 24 44  1  0
 25 45  1  0
 26 46  1  0
M  END
>  <Score>  (1) 
-7.80847

$$$$
