
     RDKit          3D

 41 45  0  0  0  0  0  0  0  0999 V2000
   41.5540   66.3600   62.3930 C   0  0  0  0  0  0  0  0  0  0  0  0
   40.9540   67.1650   61.4200 C   0  0  0  0  0  0  0  0  0  0  0  0
   41.2970   66.9460   60.0890 C   0  0  0  0  0  0  0  0  0  0  0  0
   42.1840   65.9790   59.7840 N   0  0  0  0  0  0  0  0  0  0  0  0
   42.7630   65.1980   60.7580 C   0  0  0  0  0  0  0  0  0  0  0  0
   42.4360   65.4050   62.0390 N   0  0  0  0  0  0  0  0  0  0  0  0
   43.6980   64.1890   60.3770 N   0  0  0  0  0  0  0  0  0  0  0  0
   44.9990   63.9140   60.5750 C   0  0  0  0  0  0  0  0  0  0  0  0
   45.3180   62.7770   59.9330 N   0  0  0  0  0  0  0  0  0  0  0  0
   44.1900   62.3380   59.3230 C   0  0  0  0  0  0  0  0  0  0  0  0
   43.2000   63.2140   59.6030 N   0  0  0  0  0  0  0  0  0  0  0  0
   41.1900   66.5930   63.7900 C   0  0  0  0  0  0  0  0  0  0  0  0
   41.4780   67.7230   64.5660 C   0  0  0  0  0  0  0  0  0  0  0  0
   40.9580   67.5190   65.7960 N   0  0  0  0  0  0  0  0  0  0  0  0
   40.3380   66.2900   65.8440 C   0  0  0  0  0  0  0  0  0  0  0  0
   39.6650   65.6160   66.8410 C   0  0  0  0  0  0  0  0  0  0  0  0
   39.1230   64.3500   66.6130 C   0  0  0  0  0  0  0  0  0  0  0  0
   39.2740   63.7870   65.3670 C   0  0  0  0  0  0  0  0  0  0  0  0
   39.9440   64.4430   64.3490 C   0  0  0  0  0  0  0  0  0  0  0  0
   40.4880   65.7170   64.5840 C   0  0  0  0  0  0  0  0  0  0  0  0
   44.2060   61.1220   58.5430 C   0  0  0  0  0  0  0  0  0  0  0  0
   44.4190   61.1650   57.1700 C   0  0  0  0  0  0  0  0  0  0  0  0
   44.4270   59.9800   56.4470 C   0  0  0  0  0  0  0  0  0  0  0  0
   44.2190   58.7830   57.1430 C   0  0  0  0  0  0  0  0  0  0  0  0
   44.0100   58.7730   58.5020 C   0  0  0  0  0  0  0  0  0  0  0  0
   44.0080   59.9450   59.1790 N   0  0  0  0  0  0  0  0  0  0  0  0
   40.2328   67.9477   61.6980 H   0  0  0  0  0  0  0  0  0  0  0  0
   40.8475   67.5574   59.2927 H   0  0  0  0  0  0  0  0  0  0  0  0
   45.6121   64.7399   60.1852 H   0  0  0  0  0  0  0  0  0  0  0  0
   45.1892   63.7936   61.6517 H   0  0  0  0  0  0  0  0  0  0  0  0
   42.2256   63.1444   59.2764 H   0  0  0  0  0  0  0  0  0  0  0  0
   42.0284   68.6156   64.2337 H   0  0  0  0  0  0  0  0  0  0  0  0
   41.0164   68.1834   66.5809 H   0  0  0  0  0  0  0  0  0  0  0  0
   39.5536   66.0829   67.8307 H   0  0  0  0  0  0  0  0  0  0  0  0
   38.5876   63.8150   67.4112 H   0  0  0  0  0  0  0  0  0  0  0  0
   38.8514   62.7898   65.1748 H   0  0  0  0  0  0  0  0  0  0  0  0
   40.0500   63.9697   63.3617 H   0  0  0  0  0  0  0  0  0  0  0  0
   44.5794   62.1274   56.6620 H   0  0  0  0  0  0  0  0  0  0  0  0
   44.5919   59.9813   55.3594 H   0  0  0  0  0  0  0  0  0  0  0  0
   44.2229   57.8313   56.5914 H   0  0  0  0  0  0  0  0  0  0  0  0
   43.8463   57.8235   59.0328 H   0  0  0  0  0  0  0  0  0  0  0  0
  1 12  1  0
  2  1  2  0
  3  2  1  0
  4  3  2  0
  4  5  1  0
  5  6  2  0
  6  1  1  0
  7  8  1  0
  7  5  1  0
  9  8  1  0
 10 11  1  0
 10  9  2  0
 11  7  1  0
 12 13  2  0
 12 20  1  0
 13 14  1  0
 14 15  1  0
 15 16  2  0
 17 16  1  0
 18 17  2  0
 19 20  2  0
 19 18  1  0
 20 15  1  0
 21 26  1  0
 21 10  1  0
 22 21  2  0
 23 24  2  0
 23 22  1  0
 24 25  1  0
 25 26  2  0
  2 27  1  0
  3 28  1  0
  8 29  1  0
  8 30  1  0
 11 31  1  0
 13 32  1  0
 14 33  1  0
 16 34  1  0
 17 35  1  0
 18 36  1  0
 19 37  1  0
 22 38  1  0
 23 39  1  0
 24 40  1  0
 25 41  1  0
M  END
>  <Score>  (1) 
-7.60693

$$$$
