
     RDKit          3D

 53 58  0  0  0  0  0  0  0  0999 V2000
   41.3850   68.1810   58.5060 C   0  0  0  0  0  0  0  0  0  0  0  0
   41.6960   67.6780   59.7900 C   0  0  0  0  0  0  0  0  0  0  0  0
   41.8840   68.5240   60.8970 C   0  0  0  0  0  0  0  0  0  0  0  0
   41.7320   69.8620   60.5950 N   0  0  0  0  0  0  0  0  0  0  0  0
   41.4310   70.3200   59.3480 C   0  0  0  0  0  0  0  0  0  0  0  0
   41.2660   69.4860   58.3430 N   0  0  0  0  0  0  0  0  0  0  0  0
   42.2120   68.2330   62.2320 C   0  0  0  0  0  0  0  0  0  0  0  0
   43.5680   68.4770   62.5590 C   0  0  0  0  0  0  0  0  0  0  0  0
   44.0840   68.2480   63.8350 C   0  0  0  0  0  0  0  0  0  0  0  0
   43.2610   67.7710   64.8150 C   0  0  0  0  0  0  0  0  0  0  0  0
   41.9340   67.5170   64.5490 C   0  0  0  0  0  0  0  0  0  0  0  0
   41.0700   67.0350   65.5060 C   0  0  0  0  0  0  0  0  0  0  0  0
   39.7460   66.7690   65.2810 C   0  0  0  0  0  0  0  0  0  0  0  0
   39.3220   67.0250   63.9920 C   0  0  0  0  0  0  0  0  0  0  0  0
   40.1860   67.5090   63.0280 C   0  0  0  0  0  0  0  0  0  0  0  0
   41.4970   67.7610   63.2880 C   0  0  0  0  0  0  0  0  0  0  0  0
   41.2910   71.7670   59.1120 C   0  0  0  0  0  0  0  0  0  0  0  0
   39.8820   72.2100   58.9410 C   0  0  0  0  0  0  0  0  0  0  0  0
   39.7230   73.5180   59.6360 C   0  0  0  0  0  0  0  0  0  0  0  0
   39.2810   73.7670   60.9390 C   0  0  0  0  0  0  0  0  0  0  0  0
   39.3150   75.1500   61.1000 C   0  0  0  0  0  0  0  0  0  0  0  0
   39.7750   75.6630   59.8860 C   0  0  0  0  0  0  0  0  0  0  0  0
   39.9970   74.6750   59.0700 O   0  0  0  0  0  0  0  0  0  0  0  0
   39.9480   77.1050   59.6630 C   0  0  0  0  0  0  0  0  0  0  0  0
   40.6130   78.0280   60.4370 C   0  0  0  0  0  0  0  0  0  0  0  0
   40.5330   79.2260   59.8810 N   0  0  0  0  0  0  0  0  0  0  0  0
   39.8260   79.1290   58.7430 C   0  0  0  0  0  0  0  0  0  0  0  0
   39.5140   80.1440   57.8670 C   0  0  0  0  0  0  0  0  0  0  0  0
   38.7620   79.8030   56.7400 C   0  0  0  0  0  0  0  0  0  0  0  0
   38.3620   78.4800   56.5460 C   0  0  0  0  0  0  0  0  0  0  0  0
   38.7020   77.4910   57.4590 C   0  0  0  0  0  0  0  0  0  0  0  0
   39.4400   77.7950   58.5750 C   0  0  0  0  0  0  0  0  0  0  0  0
   41.2444   67.4965   57.6565 H   0  0  0  0  0  0  0  0  0  0  0  0
   41.7939   66.5910   59.9272 H   0  0  0  0  0  0  0  0  0  0  0  0
   44.2399   68.8616   61.7776 H   0  0  0  0  0  0  0  0  0  0  0  0
   45.1438   68.4498   64.0496 H   0  0  0  0  0  0  0  0  0  0  0  0
   43.6608   67.5885   65.8234 H   0  0  0  0  0  0  0  0  0  0  0  0
   41.4683   66.8520   66.5149 H   0  0  0  0  0  0  0  0  0  0  0  0
   39.0752   66.3831   66.0627 H   0  0  0  0  0  0  0  0  0  0  0  0
   38.2710   66.8392   63.7260 H   0  0  0  0  0  0  0  0  0  0  0  0
   39.8000   67.6969   62.0153 H   0  0  0  0  0  0  0  0  0  0  0  0
   41.7218   72.3025   59.9709 H   0  0  0  0  0  0  0  0  0  0  0  0
   41.8157   71.9921   58.1718 H   0  0  0  0  0  0  0  0  0  0  0  0
   39.6543   72.3257   57.8711 H   0  0  0  0  0  0  0  0  0  0  0  0
   39.1931   71.4652   59.3661 H   0  0  0  0  0  0  0  0  0  0  0  0
   38.9695   73.0216   61.6856 H   0  0  0  0  0  0  0  0  0  0  0  0
   39.0368   75.7204   61.9985 H   0  0  0  0  0  0  0  0  0  0  0  0
   41.1343   77.8031   61.3792 H   0  0  0  0  0  0  0  0  0  0  0  0
   40.9452   80.0910   60.2588 H   0  0  0  0  0  0  0  0  0  0  0  0
   39.8424   81.1784   58.0465 H   0  0  0  0  0  0  0  0  0  0  0  0
   38.4858   80.5755   56.0072 H   0  0  0  0  0  0  0  0  0  0  0  0
   37.7692   78.2173   55.6574 H   0  0  0  0  0  0  0  0  0  0  0  0
   38.3769   76.4545   57.2862 H   0  0  0  0  0  0  0  0  0  0  0  0
  1  2  2  0
  2  3  1  0
  3  7  1  0
  4  3  2  0
  5  4  1  0
  6  1  1  0
  6  5  2  0
  7  8  2  0
  7 16  1  0
  8  9  1  0
  9 10  2  0
 11 10  1  0
 11 12  2  0
 13 12  1  0
 14 13  2  0
 15 16  2  0
 15 14  1  0
 16 11  1  0
 17  5  1  0
 18 17  1  0
 18 19  1  0
 19 20  2  0
 20 21  1  0
 22 21  2  0
 23 19  1  0
 23 22  1  0
 24 22  1  0
 24 25  2  0
 26 25  1  0
 27 26  1  0
 28 27  2  0
 29 28  1  0
 30 29  2  0
 30 31  1  0
 31 32  2  0
 32 27  1  0
 32 24  1  0
  1 33  1  0
  2 34  1  0
  8 35  1  0
  9 36  1  0
 10 37  1  0
 12 38  1  0
 13 39  1  0
 14 40  1  0
 15 41  1  0
 17 42  1  0
 17 43  1  0
 18 44  1  0
 18 45  1  0
 20 46  1  0
 21 47  1  0
 25 48  1  0
 26 49  1  0
 28 50  1  0
 29 51  1  0
 30 52  1  0
 31 53  1  0
M  END
>  <Score>  (1) 
-9.0358

$$$$
