
     RDKit          3D

 42 45  0  0  0  0  0  0  0  0999 V2000
   42.2290   68.9180   61.5170 N   0  0  0  0  0  0  0  0  0  0  0  0
   42.0240   70.1340   61.9520 C   0  0  0  0  0  0  0  0  0  0  0  0
   42.7060   71.2010   61.3880 C   0  0  0  0  0  0  0  0  0  0  0  0
   43.5710   70.9300   60.3930 C   0  0  0  0  0  0  0  0  0  0  0  0
   44.1970   71.8830   59.8700 O   0  0  0  0  0  0  0  0  0  0  0  0
   43.7430   69.6450   59.9820 N   0  0  0  0  0  0  0  0  0  0  0  0
   43.0690   68.6100   60.5430 C   0  0  0  0  0  0  0  0  0  0  0  0
   43.3080   67.4600   60.0830 O   0  0  0  0  0  0  0  0  0  0  0  0
   40.4590   66.0440   63.7180 C   0  0  0  0  0  0  0  0  0  0  0  0
   40.1390   65.9690   62.4000 C   0  0  0  0  0  0  0  0  0  0  0  0
   40.6840   66.8920   61.5760 C   0  0  0  0  0  0  0  0  0  0  0  0
   41.5090   67.8270   62.1160 C   0  0  0  0  0  0  0  0  0  0  0  0
   41.5480   67.4170   63.8900 S   0  0  0  0  0  0  0  0  0  0  0  0
   40.0060   65.1770   64.8110 C   0  0  0  0  0  0  0  0  0  0  0  0
   40.0320   65.5660   66.1480 C   0  0  0  0  0  0  0  0  0  0  0  0
   39.5710   64.6500   67.0860 C   0  0  0  0  0  0  0  0  0  0  0  0
   39.1260   63.4400   66.6700 N   0  0  0  0  0  0  0  0  0  0  0  0
   39.1110   63.0870   65.3660 C   0  0  0  0  0  0  0  0  0  0  0  0
   39.5560   63.9820   64.4880 N   0  0  0  0  0  0  0  0  0  0  0  0
   38.6460   61.8190   64.9330 N   0  0  0  0  0  0  0  0  0  0  0  0
   42.4040   72.5430   61.9530 C   0  0  0  0  0  0  0  0  0  0  0  0
   41.3340   73.2570   61.2380 C   0  0  0  0  0  0  0  0  0  0  0  0
   41.5600   74.1130   60.1950 C   0  0  0  0  0  0  0  0  0  0  0  0
   40.5210   74.7670   59.5510 C   0  0  0  0  0  0  0  0  0  0  0  0
   39.2560   74.5020   60.0280 C   0  0  0  0  0  0  0  0  0  0  0  0
   38.9460   73.6500   61.0780 C   0  0  0  0  0  0  0  0  0  0  0  0
   40.0300   73.0200   61.6850 C   0  0  0  0  0  0  0  0  0  0  0  0
   41.3080   70.3108   62.7682 H   0  0  0  0  0  0  0  0  0  0  0  0
   44.4074   69.4512   59.2191 H   0  0  0  0  0  0  0  0  0  0  0  0
   39.4638   65.1889   62.0185 H   0  0  0  0  0  0  0  0  0  0  0  0
   40.4655   66.8862   60.4979 H   0  0  0  0  0  0  0  0  0  0  0  0
   40.4021   66.5572   66.4491 H   0  0  0  0  0  0  0  0  0  0  0  0
   39.5675   64.9051   68.1560 H   0  0  0  0  0  0  0  0  0  0  0  0
   38.6492   61.5843   63.9301 H   0  0  0  0  0  0  0  0  0  0  0  0
   38.3051   61.1329   65.6214 H   0  0  0  0  0  0  0  0  0  0  0  0
   42.0975   72.4176   63.0020 H   0  0  0  0  0  0  0  0  0  0  0  0
   43.3174   73.1477   61.8531 H   0  0  0  0  0  0  0  0  0  0  0  0
   42.5928   74.2868   59.8587 H   0  0  0  0  0  0  0  0  0  0  0  0
   40.6959   75.4552   58.7109 H   0  0  0  0  0  0  0  0  0  0  0  0
   38.4168   75.0115   59.5320 H   0  0  0  0  0  0  0  0  0  0  0  0
   37.9107   73.4827   61.4099 H   0  0  0  0  0  0  0  0  0  0  0  0
   39.8588   72.3295   62.5240 H   0  0  0  0  0  0  0  0  0  0  0  0
  1  2  1  0
  1 12  1  0
  3  2  2  0
  3 21  1  0
  4  3  1  0
  5  4  2  0
  6  4  1  0
  6  7  1  0
  7  1  1  0
  8  7  2  0
  9 13  1  0
  9 14  1  0
 10  9  2  0
 11 12  2  0
 11 10  1  0
 12 13  1  0
 14 15  2  0
 15 16  1  0
 17 16  2  0
 18 17  1  0
 19 14  1  0
 19 18  2  0
 20 18  1  0
 22 27  1  0
 22 21  1  0
 23 22  2  0
 24 25  2  0
 24 23  1  0
 25 26  1  0
 26 27  2  0
  2 28  1  0
  6 29  1  0
 10 30  1  0
 11 31  1  0
 15 32  1  0
 16 33  1  0
 20 34  1  0
 20 35  1  0
 21 36  1  0
 21 37  1  0
 23 38  1  0
 24 39  1  0
 25 40  1  0
 26 41  1  0
 27 42  1  0
M  END
>  <Score>  (1) 
-7.71821

$$$$
