
     RDKit          3D

 48 53  0  0  0  0  0  0  0  0999 V2000
   41.5720   66.2670   62.4140 C   0  0  0  0  0  0  0  0  0  0  0  0
   40.8870   66.9480   61.3970 C   0  0  0  0  0  0  0  0  0  0  0  0
   41.2660   66.6790   60.0850 C   0  0  0  0  0  0  0  0  0  0  0  0
   42.2540   65.7950   59.8390 N   0  0  0  0  0  0  0  0  0  0  0  0
   42.9080   65.1410   60.8650 C   0  0  0  0  0  0  0  0  0  0  0  0
   42.5470   65.3990   62.1130 N   0  0  0  0  0  0  0  0  0  0  0  0
   43.9460   64.2120   60.5400 N   0  0  0  0  0  0  0  0  0  0  0  0
   45.2560   64.0680   60.7460 C   0  0  0  0  0  0  0  0  0  0  0  0
   45.6680   62.9410   60.1670 N   0  0  0  0  0  0  0  0  0  0  0  0
   44.6290   62.3510   59.5840 C   0  0  0  0  0  0  0  0  0  0  0  0
   43.5820   63.1570   59.8320 N   0  0  0  0  0  0  0  0  0  0  0  0
   41.1840   66.5420   63.7920 C   0  0  0  0  0  0  0  0  0  0  0  0
   41.4380   67.6920   64.5380 C   0  0  0  0  0  0  0  0  0  0  0  0
   40.9000   67.5250   65.7670 N   0  0  0  0  0  0  0  0  0  0  0  0
   40.2970   66.2870   65.8440 C   0  0  0  0  0  0  0  0  0  0  0  0
   39.6190   65.6520   66.8640 C   0  0  0  0  0  0  0  0  0  0  0  0
   39.1020   64.3740   66.6640 C   0  0  0  0  0  0  0  0  0  0  0  0
   39.2760   63.7610   65.4410 C   0  0  0  0  0  0  0  0  0  0  0  0
   39.9570   64.4030   64.4170 C   0  0  0  0  0  0  0  0  0  0  0  0
   40.4820   65.6870   64.6070 C   0  0  0  0  0  0  0  0  0  0  0  0
   44.3970   61.1230   58.8030 C   0  0  0  0  0  0  0  0  0  0  0  0
   43.8130   60.0280   59.3950 C   0  0  0  0  0  0  0  0  0  0  0  0
   43.5780   58.8530   58.6890 C   0  0  0  0  0  0  0  0  0  0  0  0
   43.9230   58.7380   57.3640 C   0  0  0  0  0  0  0  0  0  0  0  0
   44.5090   59.8290   56.7600 C   0  0  0  0  0  0  0  0  0  0  0  0
   44.8610   59.7270   55.4310 C   0  0  0  0  0  0  0  0  0  0  0  0
   45.4520   60.7750   54.7550 C   0  0  0  0  0  0  0  0  0  0  0  0
   45.6810   61.9510   55.4800 C   0  0  0  0  0  0  0  0  0  0  0  0
   45.3090   61.9920   56.8040 C   0  0  0  0  0  0  0  0  0  0  0  0
   44.7240   60.9690   57.4890 C   0  0  0  0  0  0  0  0  0  0  0  0
   40.0843   67.6643   61.6265 H   0  0  0  0  0  0  0  0  0  0  0  0
   40.7604   67.1867   59.2503 H   0  0  0  0  0  0  0  0  0  0  0  0
   45.7934   64.9234   60.3106 H   0  0  0  0  0  0  0  0  0  0  0  0
   45.4582   64.0245   61.8264 H   0  0  0  0  0  0  0  0  0  0  0  0
   42.6201   62.9757   59.5115 H   0  0  0  0  0  0  0  0  0  0  0  0
   41.9820   68.5814   64.1873 H   0  0  0  0  0  0  0  0  0  0  0  0
   40.9351   68.2167   66.5294 H   0  0  0  0  0  0  0  0  0  0  0  0
   39.4869   66.1541   67.8338 H   0  0  0  0  0  0  0  0  0  0  0  0
   38.5613   63.8598   67.4722 H   0  0  0  0  0  0  0  0  0  0  0  0
   38.8704   62.7520   65.2756 H   0  0  0  0  0  0  0  0  0  0  0  0
   40.0856   63.8991   63.4477 H   0  0  0  0  0  0  0  0  0  0  0  0
   43.5240   60.0828   60.4550 H   0  0  0  0  0  0  0  0  0  0  0  0
   43.1075   58.0004   59.2006 H   0  0  0  0  0  0  0  0  0  0  0  0
   43.7381   57.8085   56.8056 H   0  0  0  0  0  0  0  0  0  0  0  0
   44.6658   58.7861   54.8956 H   0  0  0  0  0  0  0  0  0  0  0  0
   45.7307   60.6904   53.6943 H   0  0  0  0  0  0  0  0  0  0  0  0
   46.1486   62.8238   55.0009 H   0  0  0  0  0  0  0  0  0  0  0  0
   45.4990   62.9255   57.3540 H   0  0  0  0  0  0  0  0  0  0  0  0
  1 12  1  0
  2  1  2  0
  3  2  1  0
  4  3  2  0
  4  5  1  0
  5  6  2  0
  6  1  1  0
  7  8  1  0
  7  5  1  0
  9  8  1  0
 10 11  1  0
 10  9  2  0
 11  7  1  0
 12 13  2  0
 12 20  1  0
 13 14  1  0
 14 15  1  0
 15 16  2  0
 17 16  1  0
 18 17  2  0
 19 20  2  0
 19 18  1  0
 20 15  1  0
 21 22  2  0
 21 10  1  0
 23 22  1  0
 24 23  2  0
 25 24  1  0
 25 30  2  0
 26 25  1  0
 27 26  2  0
 27 28  1  0
 28 29  2  0
 29 30  1  0
 30 21  1  0
  2 31  1  0
  3 32  1  0
  8 33  1  0
  8 34  1  0
 11 35  1  0
 13 36  1  0
 14 37  1  0
 16 38  1  0
 17 39  1  0
 18 40  1  0
 19 41  1  0
 22 42  1  0
 23 43  1  0
 24 44  1  0
 26 45  1  0
 27 46  1  0
 28 47  1  0
 29 48  1  0
M  END
>  <Score>  (1) 
-8.34149

$$$$
