
     RDKit          3D

 37 40  0  0  1  0  0  0  0  0999 V2000
   40.2860   66.0770   64.5820 C   0  0  0  0  0  0  0  0  0  0  0  0
   40.1550   65.1770   63.5790 C   0  0  0  0  0  0  0  0  0  0  0  0
   40.4020   65.5820   62.2880 C   0  0  0  0  0  0  0  0  0  0  0  0
   40.7810   66.8680   62.0780 N   0  0  0  0  0  0  0  0  0  0  0  0
   40.9230   67.7600   63.0860 C   0  0  0  0  0  0  0  0  0  0  0  0
   40.6610   67.3360   64.3320 N   0  0  0  0  0  0  0  0  0  0  0  0
   41.5170   69.0160   62.7950 N   0  0  0  0  0  0  0  0  0  0  0  0
   41.8960   69.9830   63.6830 C   0  0  0  0  0  0  0  0  0  0  0  0
   42.5330   70.9820   63.0410 N   0  0  0  0  0  0  0  0  0  0  0  0
   42.5540   70.6490   61.7590 C   0  0  0  0  0  0  0  0  0  0  0  0
   43.0790   71.1900   60.6090 C   0  0  1  0  0  0  0  0  0  0  0  0
   42.8340   70.6510   59.3990 N   0  0  0  0  0  0  0  0  0  0  0  0
   42.1970   69.4660   59.2800 C   0  0  0  0  0  0  0  0  0  0  0  0
   41.7590   68.8760   60.3860 N   0  0  0  0  0  0  0  0  0  0  0  0
   41.9240   69.4320   61.5790 C   0  0  0  0  0  0  0  0  0  0  0  0
   39.9680   65.5710   65.8510 N   0  0  0  0  0  0  0  0  0  0  0  0
   40.2240   66.4640   66.8600 C   0  0  0  0  0  0  0  0  0  0  0  0
   39.8400   65.7860   68.0370 C   0  0  0  0  0  0  0  0  0  0  0  0
   39.3860   64.5540   67.6880 N   0  0  0  0  0  0  0  0  0  0  0  0
   39.4670   64.4290   66.3460 C   0  0  0  0  0  0  0  0  0  0  0  0
   39.0670   63.2490   65.5710 C   0  0  0  0  0  0  0  0  0  0  0  0
   37.6370   63.2840   65.5550 F   0  0  0  0  0  0  0  0  0  0  0  0
   39.3190   62.0520   66.1580 F   0  0  0  0  0  0  0  0  0  0  0  0
   39.1360   63.3660   64.2140 F   0  0  0  0  0  0  0  0  0  0  0  0
   43.1870   72.6390   60.5520 N   0  0  0  0  0  0  0  0  0  0  0  0
   44.1220   73.3670   59.8120 C   0  0  0  0  0  0  0  0  0  0  0  0
   44.9500   74.1680   60.3630 O   0  0  0  0  0  0  0  0  0  0  0  0
   39.8563   64.1402   63.7929 H   0  0  0  0  0  0  0  0  0  0  0  0
   40.2950   64.8812   61.4469 H   0  0  0  0  0  0  0  0  0  0  0  0
   41.7081   69.9506   64.7663 H   0  0  0  0  0  0  0  0  0  0  0  0
   44.0771   70.7762   60.8152 H   0  0  0  0  0  0  0  0  0  0  0  0
   42.0452   69.0024   58.2941 H   0  0  0  0  0  0  0  0  0  0  0  0
   41.2806   67.9665   60.3160 H   0  0  0  0  0  0  0  0  0  0  0  0
   40.6360   67.4801   66.7718 H   0  0  0  0  0  0  0  0  0  0  0  0
   39.8983   66.1860   69.0600 H   0  0  0  0  0  0  0  0  0  0  0  0
   42.5105   73.1795   61.1097 H   0  0  0  0  0  0  0  0  0  0  0  0
   44.1457   73.2463   58.7189 H   0  0  0  0  0  0  0  0  0  0  0  0
  1 16  1  0
  2  1  2  0
  3  2  1  0
  4  3  2  0
  4  5  1  0
  5  6  2  0
  6  1  1  0
  7  5  1  0
  7  8  1  0
  9  8  2  0
 10  9  1  0
 11 10  1  0
 12 11  1  0
 13 12  2  0
 13 14  1  0
 14 15  1  0
 15 10  2  0
 15  7  1  0
 16 20  1  0
 16 17  1  0
 17 18  2  0
 19 18  1  0
 20 19  2  0
 21 23  1  0
 21 20  1  0
 22 21  1  0
 24 21  1  0
 25 11  1  0
 26 27  2  0
 26 25  1  0
  2 28  1  0
  3 29  1  0
  8 30  1  0
 11 31  1  1
 13 32  1  0
 14 33  1  0
 17 34  1  0
 18 35  1  0
 25 36  1  0
 26 37  1  0
M  END
>  <Score>  (1) 
-7.17072

$$$$
