
     RDKit          3D

 39 42  0  0  0  0  0  0  0  0999 V2000
   41.2100   68.9050   58.6790 C   0  0  0  0  0  0  0  0  0  0  0  0
   41.4680   68.2540   59.8930 C   0  0  0  0  0  0  0  0  0  0  0  0
   41.8740   68.9300   61.0360 C   0  0  0  0  0  0  0  0  0  0  0  0
   41.9870   70.2780   60.8370 N   0  0  0  0  0  0  0  0  0  0  0  0
   41.7450   70.9210   59.6870 C   0  0  0  0  0  0  0  0  0  0  0  0
   41.3600   70.2250   58.6270 N   0  0  0  0  0  0  0  0  0  0  0  0
   41.8860   72.3160   59.5670 N   0  0  0  0  0  0  0  0  0  0  0  0
   42.9250   72.8420   58.9220 C   0  0  0  0  0  0  0  0  0  0  0  0
   43.0320   74.2280   58.8230 C   0  0  0  0  0  0  0  0  0  0  0  0
   44.1680   74.8450   58.1150 C   0  0  0  0  0  0  0  0  0  0  0  0
   42.0920   75.0910   59.3780 C   0  0  0  0  0  0  0  0  0  0  0  0
   42.2140   76.3450   59.2730 O   0  0  0  0  0  0  0  0  0  0  0  0
   41.0450   74.5130   60.0300 N   0  0  0  0  0  0  0  0  0  0  0  0
   40.9710   73.1720   60.1070 C   0  0  0  0  0  0  0  0  0  0  0  0
   40.0110   72.6160   60.7050 O   0  0  0  0  0  0  0  0  0  0  0  0
   42.2150   68.4720   62.3330 C   0  0  0  0  0  0  0  0  0  0  0  0
   43.5810   68.5970   62.6730 C   0  0  0  0  0  0  0  0  0  0  0  0
   44.1180   68.2010   63.8870 C   0  0  0  0  0  0  0  0  0  0  0  0
   43.2850   67.6500   64.8320 C   0  0  0  0  0  0  0  0  0  0  0  0
   41.9420   67.4990   64.5670 C   0  0  0  0  0  0  0  0  0  0  0  0
   41.0930   66.9520   65.4980 C   0  0  0  0  0  0  0  0  0  0  0  0
   39.7260   66.7850   65.2630 C   0  0  0  0  0  0  0  0  0  0  0  0
   39.2760   67.2130   64.0120 C   0  0  0  0  0  0  0  0  0  0  0  0
   40.1640   67.7550   63.1100 C   0  0  0  0  0  0  0  0  0  0  0  0
   41.4950   67.9170   63.3420 C   0  0  0  0  0  0  0  0  0  0  0  0
   40.8915   68.3382   57.7917 H   0  0  0  0  0  0  0  0  0  0  0  0
   41.3437   67.1622   59.9425 H   0  0  0  0  0  0  0  0  0  0  0  0
   43.6894   72.1909   58.4729 H   0  0  0  0  0  0  0  0  0  0  0  0
   44.8884   75.2363   58.8485 H   0  0  0  0  0  0  0  0  0  0  0  0
   44.6604   74.0904   57.4841 H   0  0  0  0  0  0  0  0  0  0  0  0
   43.8031   75.6689   57.4841 H   0  0  0  0  0  0  0  0  0  0  0  0
   40.3153   75.0984   60.4609 H   0  0  0  0  0  0  0  0  0  0  0  0
   44.2601   69.0360   61.9273 H   0  0  0  0  0  0  0  0  0  0  0  0
   45.1917   68.3251   64.0913 H   0  0  0  0  0  0  0  0  0  0  0  0
   43.6923   67.3290   65.8021 H   0  0  0  0  0  0  0  0  0  0  0  0
   41.5056   66.6330   66.4665 H   0  0  0  0  0  0  0  0  0  0  0  0
   39.0503   66.3464   66.0120 H   0  0  0  0  0  0  0  0  0  0  0  0
   38.2126   67.1171   63.7474 H   0  0  0  0  0  0  0  0  0  0  0  0
   39.7706   68.0792   62.1353 H   0  0  0  0  0  0  0  0  0  0  0  0
  1  2  2  0
  2  3  1  0
  3 16  1  0
  4  3  2  0
  5  4  1  0
  6  1  1  0
  6  5  2  0
  7  5  1  0
  7 14  1  0
  8  7  1  0
  9  8  2  0
  9 11  1  0
 10  9  1  0
 11 13  1  0
 12 11  2  0
 13 14  1  0
 14 15  2  0
 16 17  2  0
 16 25  1  0
 17 18  1  0
 18 19  2  0
 20 19  1  0
 20 21  2  0
 22 21  1  0
 23 22  2  0
 24 25  2  0
 24 23  1  0
 25 20  1  0
  1 26  1  0
  2 27  1  0
  8 28  1  0
 10 29  1  0
 10 30  1  0
 10 31  1  0
 13 32  1  0
 17 33  1  0
 18 34  1  0
 19 35  1  0
 21 36  1  0
 22 37  1  0
 23 38  1  0
 24 39  1  0
M  END
>  <Score>  (1) 
-7.40578

$$$$
