
     RDKit          3D

 54 59  0  0  1  0  0  0  0  0999 V2000
   41.5780   67.9290   60.9530 C   0  0  0  0  0  0  0  0  0  0  0  0
   41.5170   66.8380   60.1040 C   0  0  0  0  0  0  0  0  0  0  0  0
   41.4520   67.4060   58.8540 C   0  0  0  0  0  0  0  0  0  0  0  0
   41.4700   68.7510   58.9080 N   0  0  0  0  0  0  0  0  0  0  0  0
   41.5460   69.0350   60.1940 N   0  0  0  0  0  0  0  0  0  0  0  0
   41.2840   69.4990   54.3060 N   0  0  0  0  0  0  0  0  0  0  0  0
   41.3030   68.1910   54.5870 C   0  0  0  0  0  0  0  0  0  0  0  0
   41.3560   68.0630   55.9250 N   0  0  0  0  0  0  0  0  0  0  0  0
   41.3720   69.2420   56.5270 C   0  0  0  0  0  0  0  0  0  0  0  0
   41.4210   69.6580   57.8470 C   0  0  1  0  0  0  0  0  0  0  0  0
   41.4210   70.9720   58.0800 N   0  0  0  0  0  0  0  0  0  0  0  0
   41.3760   71.8770   57.0650 C   0  0  0  0  0  0  0  0  0  0  0  0
   41.3280   71.4690   55.7760 N   0  0  0  0  0  0  0  0  0  0  0  0
   41.3260   70.1310   55.4830 C   0  0  0  0  0  0  0  0  0  0  0  0
   41.3780   73.2630   57.3570 N   0  0  0  0  0  0  0  0  0  0  0  0
   41.6530   74.2450   56.3270 C   0  0  0  0  0  0  0  0  0  0  0  0
   40.9110   75.5170   56.6690 C   0  0  0  0  0  0  0  0  0  0  0  0
   41.3990   76.0650   57.8940 N   0  0  0  0  0  0  0  0  0  0  0  0
   41.6570   75.1160   58.9360 C   0  0  0  0  0  0  0  0  0  0  0  0
   41.1060   73.7440   58.6910 C   0  0  0  0  0  0  0  0  0  0  0  0
   41.1070   66.8830   64.4160 C   0  0  0  0  0  0  0  0  0  0  0  0
   41.8490   67.8540   65.0740 C   0  0  0  0  0  0  0  0  0  0  0  0
   42.5070   68.8580   64.4050 C   0  0  0  0  0  0  0  0  0  0  0  0
   42.3890   68.8440   63.0490 N   0  0  0  0  0  0  0  0  0  0  0  0
   41.6640   67.8940   62.4190 C   0  0  0  0  0  0  0  0  0  0  0  0
   41.0120   66.9030   63.0630 N   0  0  0  0  0  0  0  0  0  0  0  0
   40.4190   65.8230   65.1050 C   0  0  0  0  0  0  0  0  0  0  0  0
   40.2460   65.9660   66.4730 C   0  0  0  0  0  0  0  0  0  0  0  0
   39.6040   65.0040   67.2510 C   0  0  0  0  0  0  0  0  0  0  0  0
   39.1350   63.8750   66.6000 C   0  0  0  0  0  0  0  0  0  0  0  0
   39.2890   63.6920   65.2200 C   0  0  0  0  0  0  0  0  0  0  0  0
   39.9240   64.6660   64.5090 C   0  0  0  0  0  0  0  0  0  0  0  0
   41.5198   65.7699   60.3670 H   0  0  0  0  0  0  0  0  0  0  0  0
   41.3923   66.8292   57.9192 H   0  0  0  0  0  0  0  0  0  0  0  0
   41.2449   69.9313   53.3719 H   0  0  0  0  0  0  0  0  0  0  0  0
   41.2795   67.3692   53.8562 H   0  0  0  0  0  0  0  0  0  0  0  0
   42.5201   69.6657   57.8038 H   0  0  0  0  0  0  0  0  0  0  0  0
   41.2930   72.1635   55.0161 H   0  0  0  0  0  0  0  0  0  0  0  0
   41.3114   73.8664   55.3523 H   0  0  0  0  0  0  0  0  0  0  0  0
   42.7339   74.4416   56.2716 H   0  0  0  0  0  0  0  0  0  0  0  0
   41.0562   76.2494   55.8612 H   0  0  0  0  0  0  0  0  0  0  0  0
   39.8415   75.2861   56.7829 H   0  0  0  0  0  0  0  0  0  0  0  0
   42.2789   76.5606   57.6914 H   0  0  0  0  0  0  0  0  0  0  0  0
   42.7469   75.0298   59.0574 H   0  0  0  0  0  0  0  0  0  0  0  0
   41.1475   75.4972   59.8333 H   0  0  0  0  0  0  0  0  0  0  0  0
   40.0164   73.7709   58.8398 H   0  0  0  0  0  0  0  0  0  0  0  0
   41.5969   73.0584   59.3973 H   0  0  0  0  0  0  0  0  0  0  0  0
   41.9127   67.8186   66.1716 H   0  0  0  0  0  0  0  0  0  0  0  0
   43.0927   69.6253   64.9325 H   0  0  0  0  0  0  0  0  0  0  0  0
   40.6299   66.8729   66.9630 H   0  0  0  0  0  0  0  0  0  0  0  0
   39.4753   65.1358   68.3355 H   0  0  0  0  0  0  0  0  0  0  0  0
   38.6248   63.0965   67.1861 H   0  0  0  0  0  0  0  0  0  0  0  0
   38.9080   62.7872   64.7238 H   0  0  0  0  0  0  0  0  0  0  0  0
   40.0501   64.5332   63.4244 H   0  0  0  0  0  0  0  0  0  0  0  0
  1 25  1  0
  2  1  1  0
  3  4  1  0
  3  2  2  0
  4  5  1  0
  5  1  2  0
  6  7  1  0
  6 14  1  0
  7  8  2  0
  8  9  1  0
  9 10  1  0
 10 11  1  0
 10  4  1  0
 12 15  1  0
 12 11  2  0
 13 12  1  0
 14 13  1  0
 14  9  2  0
 15 20  1  0
 16 17  1  0
 16 15  1  0
 17 18  1  0
 18 19  1  0
 20 19  1  0
 21 22  2  0
 21 27  1  0
 23 22  1  0
 24 23  2  0
 25 24  1  0
 25 26  2  0
 26 21  1  0
 27 28  2  0
 28 29  1  0
 30 29  2  0
 31 30  1  0
 32 27  1  0
 32 31  2  0
  2 33  1  0
  3 34  1  0
  6 35  1  0
  7 36  1  0
 10 37  1  6
 13 38  1  0
 16 39  1  0
 16 40  1  0
 17 41  1  0
 17 42  1  0
 18 43  1  0
 19 44  1  0
 19 45  1  0
 20 46  1  0
 20 47  1  0
 22 48  1  0
 23 49  1  0
 28 50  1  0
 29 51  1  0
 30 52  1  0
 31 53  1  0
 32 54  1  0
M  END
>  <Score>  (1) 
-8.13721

$$$$
