
     RDKit          3D

 33 36  0  0  0  0  0  0  0  0999 V2000
   41.5220   66.2660   62.4560 C   0  0  0  0  0  0  0  0  0  0  0  0
   40.8500   67.0080   61.4630 C   0  0  0  0  0  0  0  0  0  0  0  0
   41.2240   66.7710   60.1330 C   0  0  0  0  0  0  0  0  0  0  0  0
   42.1810   65.8720   59.8550 N   0  0  0  0  0  0  0  0  0  0  0  0
   42.8180   65.1650   60.8380 C   0  0  0  0  0  0  0  0  0  0  0  0
   42.4690   65.3830   62.1160 N   0  0  0  0  0  0  0  0  0  0  0  0
   43.8250   64.2270   60.4820 N   0  0  0  0  0  0  0  0  0  0  0  0
   45.1370   64.0480   60.6790 C   0  0  0  0  0  0  0  0  0  0  0  0
   45.5430   62.9200   60.0620 N   0  0  0  0  0  0  0  0  0  0  0  0
   44.4630   62.3890   59.4700 C   0  0  0  0  0  0  0  0  0  0  0  0
   43.4110   63.1930   59.7300 N   0  0  0  0  0  0  0  0  0  0  0  0
   41.1500   66.4970   63.8340 C   0  0  0  0  0  0  0  0  0  0  0  0
   41.4290   67.6300   64.6110 C   0  0  0  0  0  0  0  0  0  0  0  0
   40.9030   67.4380   65.8410 N   0  0  0  0  0  0  0  0  0  0  0  0
   40.2900   66.2210   65.8970 C   0  0  0  0  0  0  0  0  0  0  0  0
   39.6080   65.5380   66.8930 C   0  0  0  0  0  0  0  0  0  0  0  0
   39.0720   64.2660   66.6560 C   0  0  0  0  0  0  0  0  0  0  0  0
   39.2320   63.6980   65.4130 C   0  0  0  0  0  0  0  0  0  0  0  0
   39.9050   64.3560   64.4100 C   0  0  0  0  0  0  0  0  0  0  0  0
   40.4500   65.6350   64.6310 C   0  0  0  0  0  0  0  0  0  0  0  0
   44.4520   60.8820   58.5140 S   0  0  0  0  0  0  0  0  0  0  0  0
   40.0689   67.7386   61.7200 H   0  0  0  0  0  0  0  0  0  0  0  0
   40.7331   67.3218   59.3171 H   0  0  0  0  0  0  0  0  0  0  0  0
   45.6882   64.9070   60.2687 H   0  0  0  0  0  0  0  0  0  0  0  0
   45.3333   63.9619   61.7579 H   0  0  0  0  0  0  0  0  0  0  0  0
   42.4460   63.0390   59.4045 H   0  0  0  0  0  0  0  0  0  0  0  0
   41.9807   68.5212   64.2772 H   0  0  0  0  0  0  0  0  0  0  0  0
   40.9570   68.1102   66.6196 H   0  0  0  0  0  0  0  0  0  0  0  0
   39.4864   66.0019   67.8830 H   0  0  0  0  0  0  0  0  0  0  0  0
   38.5321   63.7299   67.4504 H   0  0  0  0  0  0  0  0  0  0  0  0
   38.8140   62.6994   65.2178 H   0  0  0  0  0  0  0  0  0  0  0  0
   40.0184   63.8782   63.4257 H   0  0  0  0  0  0  0  0  0  0  0  0
   44.4441   59.8045   59.3601 H   0  0  0  0  0  0  0  0  0  0  0  0
  1 12  1  0
  2  1  2  0
  3  2  1  0
  4  3  2  0
  4  5  1  0
  5  6  2  0
  6  1  1  0
  7  8  1  0
  7  5  1  0
  9  8  1  0
 10 11  1  0
 10  9  2  0
 11  7  1  0
 12 13  2  0
 12 20  1  0
 13 14  1  0
 14 15  1  0
 15 16  2  0
 17 16  1  0
 18 17  2  0
 19 20  2  0
 19 18  1  0
 20 15  1  0
 21 10  1  0
  2 22  1  0
  3 23  1  0
  8 24  1  0
  8 25  1  0
 11 26  1  0
 13 27  1  0
 14 28  1  0
 16 29  1  0
 17 30  1  0
 18 31  1  0
 19 32  1  0
 21 33  1  0
M  END
>  <Score>  (1) 
-7.019

$$$$
