
     RDKit          3D

 51 56  0  0  1  0  0  0  0  0999 V2000
   41.5740   67.9210   61.0370 C   0  0  0  0  0  0  0  0  0  0  0  0
   41.4910   66.8570   60.1780 C   0  0  0  0  0  0  0  0  0  0  0  0
   41.4800   67.4230   58.9280 C   0  0  0  0  0  0  0  0  0  0  0  0
   41.5520   68.7420   58.9950 N   0  0  0  0  0  0  0  0  0  0  0  0
   41.6080   69.0170   60.2810 N   0  0  0  0  0  0  0  0  0  0  0  0
   41.3820   69.5770   54.4120 N   0  0  0  0  0  0  0  0  0  0  0  0
   41.2640   68.2630   54.6800 C   0  0  0  0  0  0  0  0  0  0  0  0
   41.3190   68.1090   56.0160 N   0  0  0  0  0  0  0  0  0  0  0  0
   41.4680   69.2800   56.6190 C   0  0  0  0  0  0  0  0  0  0  0  0
   41.5790   69.6940   57.9540 C   0  0  1  0  0  0  0  0  0  0  0  0
   41.7220   70.9930   58.1840 N   0  0  0  0  0  0  0  0  0  0  0  0
   41.7600   71.9020   57.1950 C   0  0  0  0  0  0  0  0  0  0  0  0
   41.6530   71.5110   55.8950 N   0  0  0  0  0  0  0  0  0  0  0  0
   41.5050   70.1940   55.5880 C   0  0  0  0  0  0  0  0  0  0  0  0
   41.9170   73.2580   57.5860 N   0  0  0  0  0  0  0  0  0  0  0  0
   43.1870   73.6840   57.6550 C   0  0  0  0  0  0  0  0  0  0  0  0
   43.4160   74.9930   58.0280 C   0  0  0  0  0  0  0  0  0  0  0  0
   42.3150   75.7790   58.3070 C   0  0  0  0  0  0  0  0  0  0  0  0
   42.3680   77.1400   58.7020 N   0  0  0  0  0  0  0  0  0  0  0  0
   41.0490   75.3010   58.2210 N   0  0  0  0  0  0  0  0  0  0  0  0
   40.8290   74.0180   57.8550 C   0  0  0  0  0  0  0  0  0  0  0  0
   39.6770   73.5040   57.7540 O   0  0  0  0  0  0  0  0  0  0  0  0
   41.0550   66.8000   64.4700 C   0  0  0  0  0  0  0  0  0  0  0  0
   41.7690   67.7660   65.1630 C   0  0  0  0  0  0  0  0  0  0  0  0
   42.4250   68.7980   64.5130 C   0  0  0  0  0  0  0  0  0  0  0  0
   42.3290   68.8100   63.1600 N   0  0  0  0  0  0  0  0  0  0  0  0
   41.6240   67.8530   62.4860 C   0  0  0  0  0  0  0  0  0  0  0  0
   40.9870   66.8520   63.1180 N   0  0  0  0  0  0  0  0  0  0  0  0
   40.3700   65.7260   65.1290 C   0  0  0  0  0  0  0  0  0  0  0  0
   40.1920   65.8260   66.4980 C   0  0  0  0  0  0  0  0  0  0  0  0
   39.5360   64.8290   67.2340 C   0  0  0  0  0  0  0  0  0  0  0  0
   39.0610   63.7160   66.5350 C   0  0  0  0  0  0  0  0  0  0  0  0
   39.2300   63.5970   65.1600 C   0  0  0  0  0  0  0  0  0  0  0  0
   39.8730   64.5910   64.4940 C   0  0  0  0  0  0  0  0  0  0  0  0
   41.4437   65.7881   60.4332 H   0  0  0  0  0  0  0  0  0  0  0  0
   41.4191   66.8523   57.9896 H   0  0  0  0  0  0  0  0  0  0  0  0
   41.3781   70.0190   53.4816 H   0  0  0  0  0  0  0  0  0  0  0  0
   41.1440   67.4587   53.9393 H   0  0  0  0  0  0  0  0  0  0  0  0
   42.6720   69.5837   57.8973 H   0  0  0  0  0  0  0  0  0  0  0  0
   41.6842   72.2138   55.1427 H   0  0  0  0  0  0  0  0  0  0  0  0
   44.0231   73.0087   57.4207 H   0  0  0  0  0  0  0  0  0  0  0  0
   44.4372   75.3953   58.1004 H   0  0  0  0  0  0  0  0  0  0  0  0
   41.4967   77.6555   58.8917 H   0  0  0  0  0  0  0  0  0  0  0  0
   43.2778   77.6130   58.7992 H   0  0  0  0  0  0  0  0  0  0  0  0
   41.8156   67.7109   66.2606 H   0  0  0  0  0  0  0  0  0  0  0  0
   42.9915   69.5642   65.0625 H   0  0  0  0  0  0  0  0  0  0  0  0
   40.5761   66.7128   67.0235 H   0  0  0  0  0  0  0  0  0  0  0  0
   39.4002   64.9196   68.3218 H   0  0  0  0  0  0  0  0  0  0  0  0
   38.5422   62.9167   67.0845 H   0  0  0  0  0  0  0  0  0  0  0  0
   38.8506   62.7155   64.6223 H   0  0  0  0  0  0  0  0  0  0  0  0
   40.0068   64.4951   63.4064 H   0  0  0  0  0  0  0  0  0  0  0  0
  1 27  1  0
  2  1  1  0
  3  4  1  0
  3  2  2  0
  4  5  1  0
  5  1  2  0
  6  7  1  0
  6 14  1  0
  7  8  2  0
  8  9  1  0
  9 10  1  0
 10 11  1  0
 10  4  1  0
 12 15  1  0
 12 11  2  0
 13 12  1  0
 14 13  1  0
 14  9  2  0
 15 16  1  0
 15 21  1  0
 16 17  2  0
 17 18  1  0
 18 19  1  0
 20 18  2  0
 21 20  1  0
 22 21  2  0
 23 29  1  0
 23 24  2  0
 25 24  1  0
 26 25  2  0
 27 28  2  0
 27 26  1  0
 28 23  1  0
 29 30  2  0
 30 31  1  0
 32 31  2  0
 33 32  1  0
 34 29  1  0
 34 33  2  0
  2 35  1  0
  3 36  1  0
  6 37  1  0
  7 38  1  0
 10 39  1  6
 13 40  1  0
 16 41  1  0
 17 42  1  0
 19 43  1  0
 19 44  1  0
 24 45  1  0
 25 46  1  0
 30 47  1  0
 31 48  1  0
 32 49  1  0
 33 50  1  0
 34 51  1  0
M  END
>  <Score>  (1) 
-8.76144

$$$$
