
     RDKit          3D

 40 44  0  0  0  0  0  0  0  0999 V2000
   41.6370   66.3780   62.4140 C   0  0  0  0  0  0  0  0  0  0  0  0
   40.8530   66.9170   61.3880 C   0  0  0  0  0  0  0  0  0  0  0  0
   41.3110   66.6720   60.0750 C   0  0  0  0  0  0  0  0  0  0  0  0
   42.4340   65.9610   59.8800 N   0  0  0  0  0  0  0  0  0  0  0  0
   43.1720   65.4520   60.8790 C   0  0  0  0  0  0  0  0  0  0  0  0
   42.7160   65.6990   62.1020 N   0  0  0  0  0  0  0  0  0  0  0  0
   41.2140   66.6020   63.7990 C   0  0  0  0  0  0  0  0  0  0  0  0
   41.4560   67.7340   64.5830 C   0  0  0  0  0  0  0  0  0  0  0  0
   40.8990   67.5420   65.7880 N   0  0  0  0  0  0  0  0  0  0  0  0
   40.2980   66.3090   65.8120 C   0  0  0  0  0  0  0  0  0  0  0  0
   39.5890   65.6210   66.7980 C   0  0  0  0  0  0  0  0  0  0  0  0
   39.0800   64.3700   66.5570 C   0  0  0  0  0  0  0  0  0  0  0  0
   39.2790   63.7790   65.3090 C   0  0  0  0  0  0  0  0  0  0  0  0
   39.9800   64.4540   64.3300 C   0  0  0  0  0  0  0  0  0  0  0  0
   40.4950   65.7160   64.5630 C   0  0  0  0  0  0  0  0  0  0  0  0
   44.3950   64.6690   60.8690 C   0  0  0  0  0  0  0  0  0  0  0  0
   45.5380   65.0210   61.5960 C   0  0  0  0  0  0  0  0  0  0  0  0
   46.6980   64.2960   61.5980 C   0  0  0  0  0  0  0  0  0  0  0  0
   46.8010   63.1420   60.8580 C   0  0  0  0  0  0  0  0  0  0  0  0
   45.7110   62.7390   60.1200 C   0  0  0  0  0  0  0  0  0  0  0  0
   45.8570   61.5810   59.3980 C   0  0  0  0  0  0  0  0  0  0  0  0
   44.8050   61.1180   58.6360 C   0  0  0  0  0  0  0  0  0  0  0  0
   43.6350   61.8640   58.6430 C   0  0  0  0  0  0  0  0  0  0  0  0
   43.5580   63.0140   59.3900 C   0  0  0  0  0  0  0  0  0  0  0  0
   44.5780   63.5140   60.1630 C   0  0  0  0  0  0  0  0  0  0  0  0
   39.9390   67.4943   61.5912 H   0  0  0  0  0  0  0  0  0  0  0  0
   40.7494   67.0625   59.2136 H   0  0  0  0  0  0  0  0  0  0  0  0
   42.0093   68.6301   64.2655 H   0  0  0  0  0  0  0  0  0  0  0  0
   40.9192   68.2125   66.5696 H   0  0  0  0  0  0  0  0  0  0  0  0
   39.4362   66.0884   67.7820 H   0  0  0  0  0  0  0  0  0  0  0  0
   38.5203   63.8380   67.3404 H   0  0  0  0  0  0  0  0  0  0  0  0
   38.8774   62.7754   65.1052 H   0  0  0  0  0  0  0  0  0  0  0  0
   40.1314   63.9804   63.3488 H   0  0  0  0  0  0  0  0  0  0  0  0
   45.5013   65.9374   62.2034 H   0  0  0  0  0  0  0  0  0  0  0  0
   47.5550   64.6390   62.1963 H   0  0  0  0  0  0  0  0  0  0  0  0
   47.7314   62.5551   60.8556 H   0  0  0  0  0  0  0  0  0  0  0  0
   46.8064   61.0262   59.4269 H   0  0  0  0  0  0  0  0  0  0  0  0
   44.8900   60.1936   58.0458 H   0  0  0  0  0  0  0  0  0  0  0  0
   42.7690   61.5343   58.0502 H   0  0  0  0  0  0  0  0  0  0  0  0
   42.6120   63.5749   59.3678 H   0  0  0  0  0  0  0  0  0  0  0  0
  1  7  1  0
  2  1  2  0
  3  2  1  0
  4  3  2  0
  4  5  1  0
  5  6  2  0
  6  1  1  0
  7 15  1  0
  7  8  2  0
  8  9  1  0
  9 10  1  0
 10 11  2  0
 12 11  1  0
 13 12  2  0
 14 15  2  0
 14 13  1  0
 15 10  1  0
 16  5  1  0
 16 17  2  0
 17 18  1  0
 19 18  2  0
 20 25  2  0
 20 19  1  0
 21 20  1  0
 22 23  1  0
 22 21  2  0
 23 24  2  0
 24 25  1  0
 25 16  1  0
  2 26  1  0
  3 27  1  0
  8 28  1  0
  9 29  1  0
 11 30  1  0
 12 31  1  0
 13 32  1  0
 14 33  1  0
 17 34  1  0
 18 35  1  0
 19 36  1  0
 21 37  1  0
 22 38  1  0
 23 39  1  0
 24 40  1  0
M  END
>  <Score>  (1) 
-7.37143

$$$$
