
     RDKit          3D

 46 49  0  0  0  0  0  0  0  0999 V2000
   41.3630   69.3500   58.8000 C   0  0  0  0  0  0  0  0  0  0  0  0
   41.6010   68.5910   59.9650 C   0  0  0  0  0  0  0  0  0  0  0  0
   41.9620   69.1790   61.1870 C   0  0  0  0  0  0  0  0  0  0  0  0
   42.0550   70.5540   61.1220 N   0  0  0  0  0  0  0  0  0  0  0  0
   41.8220   71.2740   59.9910 C   0  0  0  0  0  0  0  0  0  0  0  0
   41.4850   70.6700   58.8650 N   0  0  0  0  0  0  0  0  0  0  0  0
   42.2620   68.6080   62.4360 C   0  0  0  0  0  0  0  0  0  0  0  0
   43.6330   68.6510   62.7790 C   0  0  0  0  0  0  0  0  0  0  0  0
   44.1380   68.1410   63.9710 C   0  0  0  0  0  0  0  0  0  0  0  0
   43.2700   67.5640   64.8680 C   0  0  0  0  0  0  0  0  0  0  0  0
   41.9310   67.4990   64.5830 C   0  0  0  0  0  0  0  0  0  0  0  0
   41.0240   66.9280   65.4590 C   0  0  0  0  0  0  0  0  0  0  0  0
   39.6790   66.8450   65.2100 C   0  0  0  0  0  0  0  0  0  0  0  0
   39.2710   67.3800   63.9970 C   0  0  0  0  0  0  0  0  0  0  0  0
   40.1850   67.9500   63.1260 C   0  0  0  0  0  0  0  0  0  0  0  0
   41.5170   68.0170   63.4010 C   0  0  0  0  0  0  0  0  0  0  0  0
   41.9480   72.7410   60.0050 C   0  0  0  0  0  0  0  0  0  0  0  0
   40.9270   73.4210   59.1440 C   0  0  0  0  0  0  0  0  0  0  0  0
   40.3420   74.5320   59.9560 C   0  0  0  0  0  0  0  0  0  0  0  0
   39.3470   74.4730   60.9350 C   0  0  0  0  0  0  0  0  0  0  0  0
   39.1690   75.7800   61.3810 C   0  0  0  0  0  0  0  0  0  0  0  0
   40.0520   76.5550   60.6630 C   0  0  0  0  0  0  0  0  0  0  0  0
   40.7120   75.7900   59.8490 O   0  0  0  0  0  0  0  0  0  0  0  0
   40.2850   77.9560   60.7200 N   0  0  0  0  0  0  0  0  0  0  0  0
   41.2630   78.5730   59.9110 C   0  0  0  0  0  0  0  0  0  0  0  0
   42.4140   78.0440   59.8480 N   0  0  0  0  0  0  0  0  0  0  0  0
   40.9690   79.7820   59.1830 N   0  0  0  0  0  0  0  0  0  0  0  0
   42.7450   77.2010   60.3190 H   0  0  0  0  0  0  0  0  0  0  0  0
   41.0821   68.8580   57.8571 H   0  0  0  0  0  0  0  0  0  0  0  0
   41.4998   67.4969   59.9136 H   0  0  0  0  0  0  0  0  0  0  0  0
   44.3354   69.1106   62.0680 H   0  0  0  0  0  0  0  0  0  0  0  0
   45.2140   68.1984   64.1922 H   0  0  0  0  0  0  0  0  0  0  0  0
   43.6507   67.1542   65.8152 H   0  0  0  0  0  0  0  0  0  0  0  0
   41.4036   66.5185   66.4067 H   0  0  0  0  0  0  0  0  0  0  0  0
   38.9744   66.3876   65.9201 H   0  0  0  0  0  0  0  0  0  0  0  0
   38.2061   67.3512   63.7227 H   0  0  0  0  0  0  0  0  0  0  0  0
   39.8204   68.3649   62.1747 H   0  0  0  0  0  0  0  0  0  0  0  0
   41.8263   73.0941   61.0396 H   0  0  0  0  0  0  0  0  0  0  0  0
   42.9403   72.9915   59.6018 H   0  0  0  0  0  0  0  0  0  0  0  0
   40.1401   72.7082   58.8563 H   0  0  0  0  0  0  0  0  0  0  0  0
   41.3853   73.8075   58.2217 H   0  0  0  0  0  0  0  0  0  0  0  0
   38.8129   73.5764   61.2827 H   0  0  0  0  0  0  0  0  0  0  0  0
   38.4643   76.1243   62.1523 H   0  0  0  0  0  0  0  0  0  0  0  0
   39.7279   78.5335   61.3658 H   0  0  0  0  0  0  0  0  0  0  0  0
   41.6943   80.2196   58.5970 H   0  0  0  0  0  0  0  0  0  0  0  0
   40.0337   80.2083   59.2489 H   0  0  0  0  0  0  0  0  0  0  0  0
  1  6  2  0
  1  2  1  0
  2  3  2  0
  3  7  1  0
  4  3  1  0
  5 17  1  0
  5  4  2  0
  6  5  1  0
  7  8  2  0
  7 16  1  0
  8  9  1  0
  9 10  2  0
 11 10  1  0
 11 12  2  0
 13 12  1  0
 14 13  2  0
 15 16  2  0
 15 14  1  0
 16 11  1  0
 18 19  1  0
 18 17  1  0
 19 20  2  0
 20 21  1  0
 22 24  1  0
 22 21  2  0
 23 19  1  0
 23 22  1  0
 25 24  1  0
 26 25  2  0
 26 28  1  0
 27 25  1  0
  1 29  1  0
  2 30  1  0
  8 31  1  0
  9 32  1  0
 10 33  1  0
 12 34  1  0
 13 35  1  0
 14 36  1  0
 15 37  1  0
 17 38  1  0
 17 39  1  0
 18 40  1  0
 18 41  1  0
 20 42  1  0
 21 43  1  0
 24 44  1  0
 27 45  1  0
 27 46  1  0
M  END
>  <Score>  (1) 
-7.85505

$$$$
