
     RDKit          3D

 43 47  0  0  0  0  0  0  0  0999 V2000
   41.4840   68.2220   58.4040 C   0  0  0  0  0  0  0  0  0  0  0  0
   41.8100   67.7450   59.6900 C   0  0  0  0  0  0  0  0  0  0  0  0
   41.8960   68.5720   60.8120 C   0  0  0  0  0  0  0  0  0  0  0  0
   41.6240   69.9070   60.5150 N   0  0  0  0  0  0  0  0  0  0  0  0
   41.3110   70.3510   59.2690 C   0  0  0  0  0  0  0  0  0  0  0  0
   41.2480   69.5160   58.2500 N   0  0  0  0  0  0  0  0  0  0  0  0
   42.2140   68.2990   62.1500 C   0  0  0  0  0  0  0  0  0  0  0  0
   43.5690   68.5240   62.4760 C   0  0  0  0  0  0  0  0  0  0  0  0
   44.0820   68.3150   63.7590 C   0  0  0  0  0  0  0  0  0  0  0  0
   43.2480   67.8760   64.7450 C   0  0  0  0  0  0  0  0  0  0  0  0
   41.8990   67.6340   64.4860 C   0  0  0  0  0  0  0  0  0  0  0  0
   41.0450   67.1980   65.4440 C   0  0  0  0  0  0  0  0  0  0  0  0
   39.7270   66.9550   65.2230 C   0  0  0  0  0  0  0  0  0  0  0  0
   39.3090   67.1870   63.9290 C   0  0  0  0  0  0  0  0  0  0  0  0
   40.1730   67.6320   62.9500 C   0  0  0  0  0  0  0  0  0  0  0  0
   41.4830   67.8650   63.2030 C   0  0  0  0  0  0  0  0  0  0  0  0
   41.0370   71.7710   59.1030 C   0  0  0  0  0  0  0  0  0  0  0  0
   40.0390   72.2690   58.2830 C   0  0  0  0  0  0  0  0  0  0  0  0
   40.1400   73.6640   58.4390 C   0  0  0  0  0  0  0  0  0  0  0  0
   41.1720   73.9060   59.3220 C   0  0  0  0  0  0  0  0  0  0  0  0
   41.6680   72.7420   59.6830 O   0  0  0  0  0  0  0  0  0  0  0  0
   39.2330   74.5500   57.7450 C   0  0  0  0  0  0  0  0  0  0  0  0
   38.0830   74.9810   58.2750 N   0  0  0  0  0  0  0  0  0  0  0  0
   37.4400   75.7770   57.4880 O   0  0  0  0  0  0  0  0  0  0  0  0
   38.1200   75.9240   56.3890 C   0  0  0  0  0  0  0  0  0  0  0  0
   39.1840   75.1720   56.5840 N   0  0  0  0  0  0  0  0  0  0  0  0
   41.7010   75.0530   59.8240 O   0  0  0  0  0  0  0  0  0  0  0  0
   41.5840   76.3340   59.3600 C   0  0  0  0  0  0  0  0  0  0  0  0
   42.3240   76.8290   58.2520 N   0  0  0  0  0  0  0  0  0  0  0  0
   40.7260   76.6670   60.2230 O   0  0  0  0  0  0  0  0  0  0  0  0
   41.4269   67.5344   57.5473 H   0  0  0  0  0  0  0  0  0  0  0  0
   42.0060   66.6699   59.8156 H   0  0  0  0  0  0  0  0  0  0  0  0
   44.2492   68.8785   61.6875 H   0  0  0  0  0  0  0  0  0  0  0  0
   45.1450   68.5022   63.9711 H   0  0  0  0  0  0  0  0  0  0  0  0
   43.6445   67.7107   65.7577 H   0  0  0  0  0  0  0  0  0  0  0  0
   41.4413   67.0317   66.4566 H   0  0  0  0  0  0  0  0  0  0  0  0
   39.0475   66.6016   66.0125 H   0  0  0  0  0  0  0  0  0  0  0  0
   38.2544   67.0118   63.6699 H   0  0  0  0  0  0  0  0  0  0  0  0
   39.7868   67.8026   61.9343 H   0  0  0  0  0  0  0  0  0  0  0  0
   39.3321   71.7059   57.6559 H   0  0  0  0  0  0  0  0  0  0  0  0
   37.8671   76.5312   55.5073 H   0  0  0  0  0  0  0  0  0  0  0  0
   42.1982   77.8033   57.9426 H   0  0  0  0  0  0  0  0  0  0  0  0
   42.9860   76.2134   57.7585 H   0  0  0  0  0  0  0  0  0  0  0  0
  1  2  2  0
  2  3  1  0
  3  7  1  0
  4  3  2  0
  5  4  1  0
  6  1  1  0
  6  5  2  0
  7  8  2  0
  7 16  1  0
  8  9  1  0
  9 10  2  0
 11 10  1  0
 11 12  2  0
 13 12  1  0
 14 13  2  0
 15 16  2  0
 15 14  1  0
 16 11  1  0
 17  5  1  0
 17 21  1  0
 18 19  1  0
 18 17  2  0
 19 20  2  0
 20 21  1  0
 20 27  1  0
 22 23  2  0
 22 19  1  0
 24 23  1  0
 25 26  2  0
 25 24  1  0
 26 22  1  0
 28 27  1  0
 28 30  2  0
 29 28  1  0
  1 31  1  0
  2 32  1  0
  8 33  1  0
  9 34  1  0
 10 35  1  0
 12 36  1  0
 13 37  1  0
 14 38  1  0
 15 39  1  0
 18 40  1  0
 25 41  1  0
 29 42  1  0
 29 43  1  0
M  END
>  <Score>  (1) 
-7.33946

$$$$
