
     RDKit          3D

 54 60  0  0  1  0  0  0  0  0999 V2000
   41.6380   67.8790   60.9230 C   0  0  0  0  0  0  0  0  0  0  0  0
   41.6120   66.8350   60.0150 C   0  0  0  0  0  0  0  0  0  0  0  0
   41.4120   67.4550   58.8040 C   0  0  0  0  0  0  0  0  0  0  0  0
   41.3180   68.7930   58.9370 N   0  0  0  0  0  0  0  0  0  0  0  0
   41.4590   69.0100   60.2280 N   0  0  0  0  0  0  0  0  0  0  0  0
   41.0780   69.8350   54.3890 N   0  0  0  0  0  0  0  0  0  0  0  0
   41.3110   68.5170   54.5950 C   0  0  0  0  0  0  0  0  0  0  0  0
   41.3620   68.2970   55.9130 N   0  0  0  0  0  0  0  0  0  0  0  0
   41.1710   69.4280   56.5960 C   0  0  0  0  0  0  0  0  0  0  0  0
   41.1250   69.7490   57.9410 C   0  0  1  0  0  0  0  0  0  0  0  0
   40.9050   71.0120   58.2390 N   0  0  0  0  0  0  0  0  0  0  0  0
   40.7250   71.9870   57.3290 C   0  0  0  0  0  0  0  0  0  0  0  0
   40.7720   71.6600   55.9950 N   0  0  0  0  0  0  0  0  0  0  0  0
   40.9960   70.3730   55.6100 C   0  0  0  0  0  0  0  0  0  0  0  0
   40.4790   73.3980   57.5460 C   0  0  0  0  0  0  0  0  0  0  0  0
   40.7440   74.3220   56.6080 N   0  0  0  0  0  0  0  0  0  0  0  0
   40.5440   75.6370   56.7360 C   0  0  0  0  0  0  0  0  0  0  0  0
   40.0300   76.1660   57.8840 N   0  0  0  0  0  0  0  0  0  0  0  0
   39.7300   75.3060   58.8900 C   0  0  0  0  0  0  0  0  0  0  0  0
   39.2110   75.8130   60.0600 C   0  0  0  0  0  0  0  0  0  0  0  0
   38.8900   74.9810   61.1140 C   0  0  0  0  0  0  0  0  0  0  0  0
   39.1190   73.6180   60.9250 C   0  0  0  0  0  0  0  0  0  0  0  0
   39.6370   73.1750   59.7410 C   0  0  0  0  0  0  0  0  0  0  0  0
   39.9670   73.9750   58.6770 C   0  0  0  0  0  0  0  0  0  0  0  0
   41.2990   66.7500   64.3770 C   0  0  0  0  0  0  0  0  0  0  0  0
   42.2200   67.5940   65.0020 C   0  0  0  0  0  0  0  0  0  0  0  0
   42.9490   68.5300   64.3070 C   0  0  0  0  0  0  0  0  0  0  0  0
   42.7270   68.5930   62.9690 N   0  0  0  0  0  0  0  0  0  0  0  0
   41.8280   67.7670   62.3680 C   0  0  0  0  0  0  0  0  0  0  0  0
   41.1050   66.8440   63.0350 N   0  0  0  0  0  0  0  0  0  0  0  0
   40.5340   65.7660   65.0920 C   0  0  0  0  0  0  0  0  0  0  0  0
   40.3630   65.9630   66.4460 C   0  0  0  0  0  0  0  0  0  0  0  0
   39.6360   65.0560   67.2420 C   0  0  0  0  0  0  0  0  0  0  0  0
   39.0880   63.9420   66.6060 C   0  0  0  0  0  0  0  0  0  0  0  0
   39.2510   63.7240   65.2320 C   0  0  0  0  0  0  0  0  0  0  0  0
   39.9640   64.6330   64.5070 C   0  0  0  0  0  0  0  0  0  0  0  0
   41.7250   65.7593   60.2154 H   0  0  0  0  0  0  0  0  0  0  0  0
   41.3378   66.9237   57.8437 H   0  0  0  0  0  0  0  0  0  0  0  0
   40.9841   70.3194   53.4849 H   0  0  0  0  0  0  0  0  0  0  0  0
   41.4370   67.7560   53.8107 H   0  0  0  0  0  0  0  0  0  0  0  0
   42.2083   69.9397   57.9325 H   0  0  0  0  0  0  0  0  0  0  0  0
   40.6372   72.3919   55.2829 H   0  0  0  0  0  0  0  0  0  0  0  0
   40.7985   76.3055   55.9003 H   0  0  0  0  0  0  0  0  0  0  0  0
   39.0497   76.8968   60.1565 H   0  0  0  0  0  0  0  0  0  0  0  0
   38.4750   75.3728   62.0544 H   0  0  0  0  0  0  0  0  0  0  0  0
   38.8833   72.9024   61.7265 H   0  0  0  0  0  0  0  0  0  0  0  0
   39.8022   72.0929   59.6327 H   0  0  0  0  0  0  0  0  0  0  0  0
   42.3673   67.5067   66.0886 H   0  0  0  0  0  0  0  0  0  0  0  0
   43.6720   69.1911   64.8072 H   0  0  0  0  0  0  0  0  0  0  0  0
   40.8063   66.8525   66.9174 H   0  0  0  0  0  0  0  0  0  0  0  0
   39.5057   65.2198   68.3219 H   0  0  0  0  0  0  0  0  0  0  0  0
   38.5128   63.2157   67.1990 H   0  0  0  0  0  0  0  0  0  0  0  0
   38.8133   62.8385   64.7480 H   0  0  0  0  0  0  0  0  0  0  0  0
   40.0943   64.4686   63.4272 H   0  0  0  0  0  0  0  0  0  0  0  0
  1 29  1  0
  2  1  1  0
  3  4  1  0
  3  2  2  0
  4  5  1  0
  5  1  2  0
  6  7  1  0
  6 14  1  0
  7  8  2  0
  8  9  1  0
  9 10  1  0
 10 11  1  0
 10  4  1  0
 12 15  1  0
 12 11  2  0
 13 12  1  0
 14 13  1  0
 14  9  2  0
 15 24  2  0
 16 17  2  0
 16 15  1  0
 17 18  1  0
 18 19  2  0
 19 20  1  0
 20 21  2  0
 22 21  1  0
 23 22  2  0
 24 19  1  0
 24 23  1  0
 25 26  2  0
 25 31  1  0
 27 26  1  0
 28 27  2  0
 29 28  1  0
 29 30  2  0
 30 25  1  0
 31 32  2  0
 32 33  1  0
 34 33  2  0
 35 34  1  0
 36 31  1  0
 36 35  2  0
  2 37  1  0
  3 38  1  0
  6 39  1  0
  7 40  1  0
 10 41  1  6
 13 42  1  0
 17 43  1  0
 20 44  1  0
 21 45  1  0
 22 46  1  0
 23 47  1  0
 26 48  1  0
 27 49  1  0
 32 50  1  0
 33 51  1  0
 34 52  1  0
 35 53  1  0
 36 54  1  0
M  END
>  <Score>  (1) 
-8.98399

$$$$
