
     RDKit          3D

 41 44  0  0  1  0  0  0  0  0999 V2000
   40.5160   66.1690   64.5720 C   0  0  0  0  0  0  0  0  0  0  0  0
   40.5610   65.2250   63.5990 C   0  0  0  0  0  0  0  0  0  0  0  0
   40.8410   65.6210   62.3120 C   0  0  0  0  0  0  0  0  0  0  0  0
   41.0740   66.9350   62.0770 N   0  0  0  0  0  0  0  0  0  0  0  0
   41.0430   67.8690   63.0540 C   0  0  0  0  0  0  0  0  0  0  0  0
   40.7540   67.4590   64.3000 N   0  0  0  0  0  0  0  0  0  0  0  0
   41.5020   69.1780   62.7510 N   0  0  0  0  0  0  0  0  0  0  0  0
   41.7210   70.2070   63.6220 C   0  0  0  0  0  0  0  0  0  0  0  0
   42.2760   71.2480   62.9850 N   0  0  0  0  0  0  0  0  0  0  0  0
   42.4080   70.8870   61.7170 C   0  0  0  0  0  0  0  0  0  0  0  0
   42.9350   71.4480   60.5790 C   0  0  1  0  0  0  0  0  0  0  0  0
   42.8150   70.8640   59.3740 N   0  0  0  0  0  0  0  0  0  0  0  0
   42.3190   69.6120   59.2670 C   0  0  0  0  0  0  0  0  0  0  0  0
   41.8890   69.0000   60.3630 N   0  0  0  0  0  0  0  0  0  0  0  0
   41.9280   69.6010   61.5440 C   0  0  0  0  0  0  0  0  0  0  0  0
   40.1660   65.6730   65.8390 N   0  0  0  0  0  0  0  0  0  0  0  0
   40.4350   66.5560   66.8510 C   0  0  0  0  0  0  0  0  0  0  0  0
   39.9990   65.8920   68.0180 C   0  0  0  0  0  0  0  0  0  0  0  0
   39.5060   64.6810   67.6620 N   0  0  0  0  0  0  0  0  0  0  0  0
   39.6110   64.5540   66.3230 C   0  0  0  0  0  0  0  0  0  0  0  0
   39.1760   63.3900   65.5420 C   0  0  0  0  0  0  0  0  0  0  0  0
   37.7450   63.4130   65.6100 F   0  0  0  0  0  0  0  0  0  0  0  0
   39.4620   62.1810   66.0860 F   0  0  0  0  0  0  0  0  0  0  0  0
   39.1620   63.5430   64.1870 F   0  0  0  0  0  0  0  0  0  0  0  0
   42.9030   72.9010   60.4860 N   0  0  0  0  0  0  0  0  0  0  0  0
   44.3140   73.5210   59.7290 S   0  0  0  0  0  0  0  0  0  0  0  0
   43.8680   74.7880   58.5780 C   0  0  0  0  0  0  0  0  0  0  0  0
   45.0980   72.4340   59.0940 O   0  0  0  0  0  0  0  0  0  0  0  0
   45.1580   74.1430   60.7980 O   0  0  0  0  0  0  0  0  0  0  0  0
   40.3776   64.1662   63.8341 H   0  0  0  0  0  0  0  0  0  0  0  0
   40.8750   64.8881   61.4925 H   0  0  0  0  0  0  0  0  0  0  0  0
   41.4766   70.1848   64.6943 H   0  0  0  0  0  0  0  0  0  0  0  0
   43.9523   71.1293   60.8500 H   0  0  0  0  0  0  0  0  0  0  0  0
   42.2725   69.1093   58.2897 H   0  0  0  0  0  0  0  0  0  0  0  0
   41.5185   68.0414   60.2950 H   0  0  0  0  0  0  0  0  0  0  0  0
   40.8878   67.5554   66.7723 H   0  0  0  0  0  0  0  0  0  0  0  0
   40.0507   66.2900   69.0422 H   0  0  0  0  0  0  0  0  0  0  0  0
   42.0785   73.1821   59.9363 H   0  0  0  0  0  0  0  0  0  0  0  0
   43.5515   75.6872   59.1269 H   0  0  0  0  0  0  0  0  0  0  0  0
   44.7348   75.0306   57.9457 H   0  0  0  0  0  0  0  0  0  0  0  0
   43.0404   74.4341   57.9457 H   0  0  0  0  0  0  0  0  0  0  0  0
  1 16  1  0
  2  1  2  0
  3  2  1  0
  4  3  2  0
  4  5  1  0
  5  6  2  0
  6  1  1  0
  7  5  1  0
  7  8  1  0
  9  8  2  0
 10  9  1  0
 11 10  1  0
 12 11  1  0
 13 12  2  0
 13 14  1  0
 14 15  1  0
 15 10  2  0
 15  7  1  0
 16 20  1  0
 16 17  1  0
 17 18  2  0
 19 18  1  0
 20 19  2  0
 21 22  1  0
 21 23  1  0
 21 20  1  0
 24 21  1  0
 25 11  1  0
 26 25  1  0
 26 29  2  0
 27 26  1  0
 28 26  2  0
  2 30  1  0
  3 31  1  0
  8 32  1  0
 11 33  1  1
 13 34  1  0
 14 35  1  0
 17 36  1  0
 18 37  1  0
 25 38  1  0
 27 39  1  0
 27 40  1  0
 27 41  1  0
M  END
>  <Score>  (1) 
-7.03289

$$$$
