
     RDKit          3D

 49 52  0  0  1  0  0  0  0  0999 V2000
   42.5220   70.6810   62.0450 C   0  0  2  0  0  0  0  0  0  0  0  0
   39.7870   64.5100   64.4790 C   0  0  0  0  0  0  0  0  0  0  0  0
   39.4270   65.1730   65.6610 C   0  0  0  0  0  0  0  0  0  0  0  0
   39.8810   66.4610   65.8200 C   0  0  0  0  0  0  0  0  0  0  0  0
   40.6390   66.9880   64.8230 N   0  0  0  0  0  0  0  0  0  0  0  0
   40.9750   66.3180   63.6820 C   0  0  0  0  0  0  0  0  0  0  0  0
   40.5460   65.0610   63.4980 N   0  0  0  0  0  0  0  0  0  0  0  0
   41.7890   67.1020   62.8510 N   0  0  0  0  0  0  0  0  0  0  0  0
   41.6620   68.4510   62.7940 C   0  0  0  0  0  0  0  0  0  0  0  0
   42.5560   69.1700   61.9790 C   0  0  0  0  0  0  0  0  0  0  0  0
   43.5020   68.4670   61.2860 C   0  0  0  0  0  0  0  0  0  0  0  0
   44.3730   69.2140   60.4480 N   0  0  0  0  0  0  0  0  0  0  0  0
   43.5920   67.1170   61.3710 N   0  0  0  0  0  0  0  0  0  0  0  0
   42.7310   66.4000   62.1600 C   0  0  0  0  0  0  0  0  0  0  0  0
   42.8370   65.1640   62.2200 O   0  0  0  0  0  0  0  0  0  0  0  0
   41.6300   71.2090   63.0560 C   0  0  0  0  0  0  0  0  0  0  0  0
   41.9220   71.0580   60.5880 C   0  0  0  0  0  0  0  0  0  0  0  0
   42.5920   72.2780   60.2220 N   0  0  0  0  0  0  0  0  0  0  0  0
   43.9250   72.3810   60.0760 N   0  0  0  0  0  0  0  0  0  0  0  0
   44.2850   73.6210   59.7540 C   0  0  0  0  0  0  0  0  0  0  0  0
   43.1350   74.3950   59.6800 C   0  0  0  0  0  0  0  0  0  0  0  0
   42.1390   73.5040   59.9790 C   0  0  0  0  0  0  0  0  0  0  0  0
   40.7860   73.9160   59.9610 N   0  0  0  0  0  0  0  0  0  0  0  0
   40.2140   75.2650   59.9960 C   0  0  0  0  0  0  0  0  0  0  0  0
   39.1710   75.2160   61.0950 C   0  0  0  0  0  0  0  0  0  0  0  0
   38.8220   73.7390   61.1970 C   0  0  0  0  0  0  0  0  0  0  0  0
   39.4760   73.2540   59.8950 C   0  0  0  0  0  0  0  0  0  0  0  0
   43.5107   71.0928   62.2960 H   0  0  0  0  0  0  0  0  0  0  0  0
   39.4319   63.4785   64.3380 H   0  0  0  0  0  0  0  0  0  0  0  0
   38.8082   64.6839   66.4277 H   0  0  0  0  0  0  0  0  0  0  0  0
   39.6394   67.0435   66.7213 H   0  0  0  0  0  0  0  0  0  0  0  0
   40.8810   68.9694   63.3695 H   0  0  0  0  0  0  0  0  0  0  0  0
   44.2867   70.2392   60.3989 H   0  0  0  0  0  0  0  0  0  0  0  0
   45.0907   68.7303   59.8896 H   0  0  0  0  0  0  0  0  0  0  0  0
   42.0273   70.9739   64.0544 H   0  0  0  0  0  0  0  0  0  0  0  0
   41.5500   72.3000   62.9408 H   0  0  0  0  0  0  0  0  0  0  0  0
   40.6351   70.7542   62.9408 H   0  0  0  0  0  0  0  0  0  0  0  0
   42.1404   70.2622   59.8607 H   0  0  0  0  0  0  0  0  0  0  0  0
   40.8281   71.1727   60.6051 H   0  0  0  0  0  0  0  0  0  0  0  0
   45.3128   73.9710   59.5776 H   0  0  0  0  0  0  0  0  0  0  0  0
   43.0455   75.4646   59.4395 H   0  0  0  0  0  0  0  0  0  0  0  0
   40.9897   76.0086   60.2311 H   0  0  0  0  0  0  0  0  0  0  0  0
   39.7826   75.5579   59.0274 H   0  0  0  0  0  0  0  0  0  0  0  0
   39.5840   75.5877   62.0443 H   0  0  0  0  0  0  0  0  0  0  0  0
   38.2957   75.8465   60.8797 H   0  0  0  0  0  0  0  0  0  0  0  0
   39.2698   73.2686   62.0848 H   0  0  0  0  0  0  0  0  0  0  0  0
   37.7517   73.5097   61.3056 H   0  0  0  0  0  0  0  0  0  0  0  0
   38.9051   73.5798   59.0130 H   0  0  0  0  0  0  0  0  0  0  0  0
   39.5309   72.1594   59.8013 H   0  0  0  0  0  0  0  0  0  0  0  0
  1 16  1  0
  2  3  2  0
  3  4  1  0
  5  4  2  0
  6  5  1  0
  7  6  2  0
  7  2  1  0
  8  6  1  0
  9  8  1  0
 10  1  1  0
 10  9  2  0
 11 13  2  0
 11 10  1  0
 12 11  1  0
 13 14  1  0
 14 15  2  0
 14  8  1  0
 17  1  1  0
 18 17  1  0
 19 18  1  0
 20 19  2  0
 21 20  1  0
 21 22  2  0
 22 18  1  0
 23 22  1  0
 23 24  1  0
 24 25  1  0
 25 26  1  0
 27 23  1  0
 27 26  1  0
  1 28  1  1
  2 29  1  0
  3 30  1  0
  4 31  1  0
  9 32  1  0
 12 33  1  0
 12 34  1  0
 16 35  1  0
 16 36  1  0
 16 37  1  0
 17 38  1  0
 17 39  1  0
 20 40  1  0
 21 41  1  0
 24 42  1  0
 24 43  1  0
 25 44  1  0
 25 45  1  0
 26 46  1  0
 26 47  1  0
 27 48  1  0
 27 49  1  0
M  END
>  <Score>  (1) 
-7.50538

$$$$
