
     RDKit          3D

 40 43  0  0  0  0  0  0  0  0999 V2000
   40.9450   66.0990   63.5560 C   0  0  0  0  0  0  0  0  0  0  0  0
   41.1290   67.4640   63.4420 C   0  0  0  0  0  0  0  0  0  0  0  0
   41.7030   68.0680   62.3520 C   0  0  0  0  0  0  0  0  0  0  0  0
   42.0980   67.2390   61.3510 N   0  0  0  0  0  0  0  0  0  0  0  0
   41.9300   65.9080   61.4400 C   0  0  0  0  0  0  0  0  0  0  0  0
   41.3580   65.3410   62.5290 N   0  0  0  0  0  0  0  0  0  0  0  0
   40.3480   65.4660   64.6880 C   0  0  0  0  0  0  0  0  0  0  0  0
   40.3860   66.1080   65.8930 C   0  0  0  0  0  0  0  0  0  0  0  0
   39.8180   65.5340   67.0300 C   0  0  0  0  0  0  0  0  0  0  0  0
   39.1970   64.2920   66.9740 C   0  0  0  0  0  0  0  0  0  0  0  0
   39.1500   63.6350   65.7720 C   0  0  0  0  0  0  0  0  0  0  0  0
   39.7120   64.2130   64.6660 C   0  0  0  0  0  0  0  0  0  0  0  0
   41.8740   69.4980   62.2800 C   0  0  0  0  0  0  0  0  0  0  0  0
   41.7460   70.3860   63.3040 C   0  0  0  0  0  0  0  0  0  0  0  0
   41.9960   71.6460   62.7850 C   0  0  0  0  0  0  0  0  0  0  0  0
   42.2640   71.4360   61.4530 C   0  0  0  0  0  0  0  0  0  0  0  0
   42.1780   70.1690   61.2180 O   0  0  0  0  0  0  0  0  0  0  0  0
   42.5880   72.4720   60.4850 C   0  0  0  0  0  0  0  0  0  0  0  0
   41.7340   72.8340   59.6430 O   0  0  0  0  0  0  0  0  0  0  0  0
   43.8230   73.0710   60.4690 O   0  0  0  0  0  0  0  0  0  0  0  0
   44.4880   73.2910   59.2660 C   0  0  0  0  0  0  0  0  0  0  0  0
   44.4550   74.4420   58.5050 C   0  0  0  0  0  0  0  0  0  0  0  0
   45.1970   74.4370   57.3410 C   0  0  0  0  0  0  0  0  0  0  0  0
   45.9180   73.3890   56.9450 N   0  0  0  0  0  0  0  0  0  0  0  0
   45.9450   72.2740   57.6870 C   0  0  0  0  0  0  0  0  0  0  0  0
   45.2240   72.2420   58.8450 N   0  0  0  0  0  0  0  0  0  0  0  0
   40.7960   68.1030   64.2731 H   0  0  0  0  0  0  0  0  0  0  0  0
   42.2640   65.2663   60.6113 H   0  0  0  0  0  0  0  0  0  0  0  0
   40.8717   67.0921   65.9677 H   0  0  0  0  0  0  0  0  0  0  0  0
   39.8623   66.0736   67.9876 H   0  0  0  0  0  0  0  0  0  0  0  0
   38.7524   63.8455   67.8756 H   0  0  0  0  0  0  0  0  0  0  0  0
   38.6644   62.6509   65.6968 H   0  0  0  0  0  0  0  0  0  0  0  0
   39.6634   63.6690   63.7111 H   0  0  0  0  0  0  0  0  0  0  0  0
   41.4918   70.1478   64.3474 H   0  0  0  0  0  0  0  0  0  0  0  0
   41.9829   72.6059   63.3220 H   0  0  0  0  0  0  0  0  0  0  0  0
   43.4065   74.6305   58.2311 H   0  0  0  0  0  0  0  0  0  0  0  0
   44.9119   75.2188   59.1357 H   0  0  0  0  0  0  0  0  0  0  0  0
   45.1928   75.3393   56.7118 H   0  0  0  0  0  0  0  0  0  0  0  0
   45.5768   71.4538   57.0531 H   0  0  0  0  0  0  0  0  0  0  0  0
   46.9906   72.1991   58.0202 H   0  0  0  0  0  0  0  0  0  0  0  0
  1  7  1  0
  2  1  2  0
  3  2  1  0
  4  5  1  0
  4  3  2  0
  5  6  2  0
  6  1  1  0
  7  8  2  0
  8  9  1  0
 10  9  2  0
 11 10  1  0
 12  7  1  0
 12 11  2  0
 13  3  1  0
 13 14  2  0
 15 14  1  0
 16 15  2  0
 17 16  1  0
 17 13  1  0
 18 16  1  0
 19 18  2  0
 20 18  1  0
 21 20  1  0
 22 21  1  0
 23 22  1  0
 24 23  2  0
 24 25  1  0
 25 26  1  0
 26 21  2  0
  2 27  1  0
  5 28  1  0
  8 29  1  0
  9 30  1  0
 10 31  1  0
 11 32  1  0
 12 33  1  0
 14 34  1  0
 15 35  1  0
 22 36  1  0
 22 37  1  0
 23 38  1  0
 25 39  1  0
 25 40  1  0
M  END
>  <Score>  (1) 
-7.0035

$$$$
