
     RDKit          3D

 39 42  0  0  0  0  0  0  0  0999 V2000
   40.4590   66.2630   64.0000 C   0  0  0  0  0  0  0  0  0  0  0  0
   40.2590   66.1590   62.6480 C   0  0  0  0  0  0  0  0  0  0  0  0
   40.7710   67.1400   61.8600 C   0  0  0  0  0  0  0  0  0  0  0  0
   41.4520   68.1620   62.4870 C   0  0  0  0  0  0  0  0  0  0  0  0
   41.3830   67.7500   64.2540 S   0  0  0  0  0  0  0  0  0  0  0  0
   40.0080   65.3450   65.0370 C   0  0  0  0  0  0  0  0  0  0  0  0
   40.0030   65.6880   66.3930 C   0  0  0  0  0  0  0  0  0  0  0  0
   39.5470   64.7330   67.2940 C   0  0  0  0  0  0  0  0  0  0  0  0
   39.1330   63.5300   66.8230 N   0  0  0  0  0  0  0  0  0  0  0  0
   39.1480   63.2230   65.5060 C   0  0  0  0  0  0  0  0  0  0  0  0
   39.5890   64.1480   64.6450 N   0  0  0  0  0  0  0  0  0  0  0  0
   38.7110   61.9660   65.0300 N   0  0  0  0  0  0  0  0  0  0  0  0
   42.0960   69.3170   61.9320 N   0  0  0  0  0  0  0  0  0  0  0  0
   41.6180   70.5080   62.2460 C   0  0  0  0  0  0  0  0  0  0  0  0
   42.2080   71.6550   61.7230 C   0  0  0  0  0  0  0  0  0  0  0  0
   43.2780   71.4730   60.8940 C   0  0  0  0  0  0  0  0  0  0  0  0
   43.8190   72.5010   60.4230 O   0  0  0  0  0  0  0  0  0  0  0  0
   43.7020   70.2300   60.6250 N   0  0  0  0  0  0  0  0  0  0  0  0
   43.1170   69.1170   61.1400 C   0  0  0  0  0  0  0  0  0  0  0  0
   43.6060   68.0070   60.8130 O   0  0  0  0  0  0  0  0  0  0  0  0
   41.5610   72.9380   62.0910 C   0  0  0  0  0  0  0  0  0  0  0  0
   40.5920   73.3530   61.0560 C   0  0  0  0  0  0  0  0  0  0  0  0
   39.9540   74.6990   61.0120 C   0  0  0  0  0  0  0  0  0  0  0  0
   39.1350   73.4630   61.2440 C   0  0  0  0  0  0  0  0  0  0  0  0
   39.7044   65.3125   62.2170 H   0  0  0  0  0  0  0  0  0  0  0  0
   40.6475   67.1199   60.7671 H   0  0  0  0  0  0  0  0  0  0  0  0
   40.3468   66.6759   66.7333 H   0  0  0  0  0  0  0  0  0  0  0  0
   39.5222   64.9493   68.3722 H   0  0  0  0  0  0  0  0  0  0  0  0
   38.7342   61.7610   64.0209 H   0  0  0  0  0  0  0  0  0  0  0  0
   38.3694   61.2549   65.6922 H   0  0  0  0  0  0  0  0  0  0  0  0
   40.7536   70.5931   62.9209 H   0  0  0  0  0  0  0  0  0  0  0  0
   44.5104   70.1130   59.9975 H   0  0  0  0  0  0  0  0  0  0  0  0
   41.0347   72.8147   63.0490 H   0  0  0  0  0  0  0  0  0  0  0  0
   42.3375   73.7123   62.1775 H   0  0  0  0  0  0  0  0  0  0  0  0
   41.2336   72.7655   60.3828 H   0  0  0  0  0  0  0  0  0  0  0  0
   40.1177   75.4153   61.8306 H   0  0  0  0  0  0  0  0  0  0  0  0
   39.9298   75.5316   60.2935 H   0  0  0  0  0  0  0  0  0  0  0  0
   38.4511   73.1020   60.4617 H   0  0  0  0  0  0  0  0  0  0  0  0
   38.4244   73.1355   62.0172 H   0  0  0  0  0  0  0  0  0  0  0  0
  1  5  1  0
  1  6  1  0
  2  1  2  0
  3  4  2  0
  3  2  1  0
  4  5  1  0
  6  7  2  0
  7  8  1  0
  9  8  2  0
 10  9  1  0
 11  6  1  0
 11 10  2  0
 12 10  1  0
 13 14  1  0
 13  4  1  0
 15 21  1  0
 15 14  2  0
 16 15  1  0
 17 16  2  0
 18 16  1  0
 18 19  1  0
 19 13  1  0
 20 19  2  0
 22 24  1  0
 22 21  1  0
 23 22  1  0
 23 24  1  0
  2 25  1  0
  3 26  1  0
  7 27  1  0
  8 28  1  0
 12 29  1  0
 12 30  1  0
 14 31  1  0
 18 32  1  0
 21 33  1  0
 21 34  1  0
 22 35  1  0
 23 36  1  0
 23 37  1  0
 24 38  1  0
 24 39  1  0
M  END
>  <Score>  (1) 
-7.09169

$$$$
