
     RDKit          3D

 48 53  0  0  1  0  0  0  0  0999 V2000
   42.6810   69.6710   59.2660 C   0  0  1  0  0  0  0  0  0  0  0  0
   42.2780   70.8750   60.0200 C   0  0  0  0  0  0  0  0  0  0  0  0
   41.7540   69.5100   60.4350 C   0  0  2  0  0  0  0  0  0  0  0  0
   41.6560   68.1880   57.5500 C   0  0  0  0  0  0  0  0  0  0  0  0
   42.2450   69.4200   57.8850 C   0  0  0  0  0  0  0  0  0  0  0  0
   42.3920   70.3890   56.8530 C   0  0  0  0  0  0  0  0  0  0  0  0
   41.9580   70.0670   55.6120 N   0  0  0  0  0  0  0  0  0  0  0  0
   41.3890   68.8490   55.3280 C   0  0  0  0  0  0  0  0  0  0  0  0
   41.2430   67.9210   56.2970 N   0  0  0  0  0  0  0  0  0  0  0  0
   40.9960   68.7020   53.9580 N   0  0  0  0  0  0  0  0  0  0  0  0
   41.1050   67.6440   53.1320 C   0  0  0  0  0  0  0  0  0  0  0  0
   40.5820   68.0160   51.9290 N   0  0  0  0  0  0  0  0  0  0  0  0
   40.1600   69.3060   52.0460 C   0  0  0  0  0  0  0  0  0  0  0  0
   39.5630   70.1290   51.1140 C   0  0  0  0  0  0  0  0  0  0  0  0
   39.2980   69.7970   49.9330 O   0  0  0  0  0  0  0  0  0  0  0  0
   39.2410   71.3790   51.4930 N   0  0  0  0  0  0  0  0  0  0  0  0
   39.4940   71.8070   52.7440 C   0  0  0  0  0  0  0  0  0  0  0  0
   39.1900   73.1120   53.2410 N   0  0  0  0  0  0  0  0  0  0  0  0
   40.0770   71.0110   53.6650 N   0  0  0  0  0  0  0  0  0  0  0  0
   40.4200   69.7520   53.3380 C   0  0  0  0  0  0  0  0  0  0  0  0
   42.1420   68.9790   61.6960 N   0  0  0  0  0  0  0  0  0  0  0  0
   43.2360   69.4390   62.3480 C   0  0  0  0  0  0  0  0  0  0  0  0
   43.6390   68.9620   63.5550 C   0  0  0  0  0  0  0  0  0  0  0  0
   42.9530   67.9780   64.1870 C   0  0  0  0  0  0  0  0  0  0  0  0
   43.3260   67.5480   65.2880 O   0  0  0  0  0  0  0  0  0  0  0  0
   41.8680   67.5280   63.5290 N   0  0  0  0  0  0  0  0  0  0  0  0
   41.5020   68.0200   62.3460 C   0  0  0  0  0  0  0  0  0  0  0  0
   40.4660   67.5050   61.8500 O   0  0  0  0  0  0  0  0  0  0  0  0
   41.1050   66.4790   64.1720 C   0  0  0  0  0  0  0  0  0  0  0  0
   40.5960   65.3530   63.5640 C   0  0  0  0  0  0  0  0  0  0  0  0
   39.9360   64.6070   64.5010 C   0  0  0  0  0  0  0  0  0  0  0  0
   40.0500   65.2870   65.6740 N   0  0  0  0  0  0  0  0  0  0  0  0
   40.7380   66.3900   65.4820 N   0  0  0  0  0  0  0  0  0  0  0  0
   43.6489   69.2330   58.9807 H   0  0  0  0  0  0  0  0  0  0  0  0
   43.0102   71.3983   60.6524 H   0  0  0  0  0  0  0  0  0  0  0  0
   41.8159   71.8381   59.7575 H   0  0  0  0  0  0  0  0  0  0  0  0
   40.7816   69.0125   60.5652 H   0  0  0  0  0  0  0  0  0  0  0  0
   41.5296   67.4237   58.3309 H   0  0  0  0  0  0  0  0  0  0  0  0
   42.8448   71.3703   57.0578 H   0  0  0  0  0  0  0  0  0  0  0  0
   41.5355   66.6629   53.3813 H   0  0  0  0  0  0  0  0  0  0  0  0
   38.7954   72.0164   50.8177 H   0  0  0  0  0  0  0  0  0  0  0  0
   39.4179   73.3582   54.2148 H   0  0  0  0  0  0  0  0  0  0  0  0
   38.7430   73.8063   52.6254 H   0  0  0  0  0  0  0  0  0  0  0  0
   43.8276   70.2381   61.8775 H   0  0  0  0  0  0  0  0  0  0  0  0
   44.5388   69.3822   64.0282 H   0  0  0  0  0  0  0  0  0  0  0  0
   40.7028   65.0960   62.4998 H   0  0  0  0  0  0  0  0  0  0  0  0
   39.4176   63.6504   64.3391 H   0  0  0  0  0  0  0  0  0  0  0  0
   39.6565   64.9831   66.5761 H   0  0  0  0  0  0  0  0  0  0  0  0
  1  2  1  0
  1  3  1  0
  2  3  1  0
  3 21  1  0
  4  5  2  0
  5  1  1  0
  6  5  1  0
  7  6  2  0
  8  7  1  0
  8  9  2  0
  9  4  1  0
 10  8  1  0
 11 10  1  0
 12 13  1  0
 12 11  2  0
 13 20  2  0
 14 16  1  0
 14 13  1  0
 15 14  2  0
 16 17  1  0
 17 18  1  0
 17 19  2  0
 20 19  1  0
 20 10  1  0
 21 27  1  0
 21 22  1  0
 22 23  2  0
 23 24  1  0
 24 25  2  0
 26 29  1  0
 26 24  1  0
 27 26  1  0
 28 27  2  0
 29 33  2  0
 30 29  1  0
 30 31  2  0
 31 32  1  0
 33 32  1  0
  1 34  1  1
  2 35  1  0
  2 36  1  0
  3 37  1  6
  4 38  1  0
  6 39  1  0
 11 40  1  0
 16 41  1  0
 18 42  1  0
 18 43  1  0
 22 44  1  0
 23 45  1  0
 30 46  1  0
 31 47  1  0
 32 48  1  0
M  END
>  <Score>  (1) 
-7.55198

$$$$
