
     RDKit          3D

 49 54  0  0  0  0  0  0  0  0999 V2000
   41.5160   66.3060   62.4580 C   0  0  0  0  0  0  0  0  0  0  0  0
   40.8720   67.0880   61.5090 C   0  0  0  0  0  0  0  0  0  0  0  0
   41.2270   66.9030   60.1590 C   0  0  0  0  0  0  0  0  0  0  0  0
   42.1600   65.9890   59.8480 N   0  0  0  0  0  0  0  0  0  0  0  0
   42.7790   65.2300   60.8150 C   0  0  0  0  0  0  0  0  0  0  0  0
   42.4500   65.3970   62.0980 N   0  0  0  0  0  0  0  0  0  0  0  0
   43.7510   64.2700   60.4060 N   0  0  0  0  0  0  0  0  0  0  0  0
   45.0740   64.0170   60.6500 C   0  0  0  0  0  0  0  0  0  0  0  0
   45.4010   62.8620   59.9530 N   0  0  0  0  0  0  0  0  0  0  0  0
   44.3270   62.5170   59.2860 C   0  0  0  0  0  0  0  0  0  0  0  0
   43.2870   63.3500   59.5330 N   0  0  0  0  0  0  0  0  0  0  0  0
   41.1550   66.4880   63.8650 C   0  0  0  0  0  0  0  0  0  0  0  0
   41.4670   67.5700   64.6840 C   0  0  0  0  0  0  0  0  0  0  0  0
   40.9480   67.3330   65.8920 N   0  0  0  0  0  0  0  0  0  0  0  0
   40.3010   66.1300   65.9050 C   0  0  0  0  0  0  0  0  0  0  0  0
   39.6110   65.4340   66.8880 C   0  0  0  0  0  0  0  0  0  0  0  0
   39.0460   64.1900   66.5830 C   0  0  0  0  0  0  0  0  0  0  0  0
   39.1670   63.6540   65.3290 C   0  0  0  0  0  0  0  0  0  0  0  0
   39.8530   64.3440   64.3510 C   0  0  0  0  0  0  0  0  0  0  0  0
   40.4300   65.5960   64.6300 C   0  0  0  0  0  0  0  0  0  0  0  0
   44.4440   61.4120   58.4450 C   0  0  0  0  0  0  0  0  0  0  0  0
   43.8840   61.3490   57.3200 O   0  0  0  0  0  0  0  0  0  0  0  0
   45.0650   60.1790   58.4200 O   0  0  0  0  0  0  0  0  0  0  0  0
   44.5410   59.0110   58.8830 C   0  0  0  0  0  0  0  0  0  0  0  0
   44.2570   58.5760   60.1590 C   0  0  0  0  0  0  0  0  0  0  0  0
   43.7510   57.3370   60.0160 N   0  0  0  0  0  0  0  0  0  0  0  0
   43.6940   56.9530   58.7320 C   0  0  0  0  0  0  0  0  0  0  0  0
   43.2600   55.7960   58.1240 C   0  0  0  0  0  0  0  0  0  0  0  0
   43.3160   55.6670   56.7530 C   0  0  0  0  0  0  0  0  0  0  0  0
   43.8110   56.7070   55.9820 C   0  0  0  0  0  0  0  0  0  0  0  0
   44.2420   57.8580   56.6040 C   0  0  0  0  0  0  0  0  0  0  0  0
   44.1990   58.0190   57.9820 C   0  0  0  0  0  0  0  0  0  0  0  0
   40.1109   67.8264   61.8014 H   0  0  0  0  0  0  0  0  0  0  0  0
   40.7463   67.4994   59.3696 H   0  0  0  0  0  0  0  0  0  0  0  0
   45.6905   64.8576   60.2988 H   0  0  0  0  0  0  0  0  0  0  0  0
   45.2577   63.8910   61.7272 H   0  0  0  0  0  0  0  0  0  0  0  0
   42.3381   63.2932   59.1365 H   0  0  0  0  0  0  0  0  0  0  0  0
   42.0393   68.4618   64.3887 H   0  0  0  0  0  0  0  0  0  0  0  0
   41.0249   67.9677   66.6995 H   0  0  0  0  0  0  0  0  0  0  0  0
   39.5090   65.8565   67.8985 H   0  0  0  0  0  0  0  0  0  0  0  0
   38.4983   63.6366   67.3601 H   0  0  0  0  0  0  0  0  0  0  0  0
   38.7184   62.6757   65.1019 H   0  0  0  0  0  0  0  0  0  0  0  0
   39.9496   63.9113   63.3443 H   0  0  0  0  0  0  0  0  0  0  0  0
   44.4116   59.1265   61.0987 H   0  0  0  0  0  0  0  0  0  0  0  0
   43.4423   56.7498   60.8039 H   0  0  0  0  0  0  0  0  0  0  0  0
   42.8667   54.9707   58.7357 H   0  0  0  0  0  0  0  0  0  0  0  0
   42.9687   54.7408   56.2718 H   0  0  0  0  0  0  0  0  0  0  0  0
   43.8591   56.6144   54.8870 H   0  0  0  0  0  0  0  0  0  0  0  0
   44.6344   58.6793   55.9863 H   0  0  0  0  0  0  0  0  0  0  0  0
  1 12  1  0
  2  1  2  0
  3  2  1  0
  4  3  2  0
  4  5  1  0
  5  6  2  0
  6  1  1  0
  7  8  1  0
  7  5  1  0
  9  8  1  0
 10 11  1  0
 10  9  2  0
 11  7  1  0
 12 20  1  0
 12 13  2  0
 13 14  1  0
 14 15  1  0
 15 16  2  0
 17 16  1  0
 18 17  2  0
 19 20  2  0
 19 18  1  0
 20 15  1  0
 21 10  1  0
 22 21  2  0
 23 21  1  0
 23 24  1  0
 24 25  2  0
 26 25  1  0
 27 26  1  0
 28 27  2  0
 29 28  1  0
 30 31  1  0
 30 29  2  0
 31 32  2  0
 32 27  1  0
 32 24  1  0
  2 33  1  0
  3 34  1  0
  8 35  1  0
  8 36  1  0
 11 37  1  0
 13 38  1  0
 14 39  1  0
 16 40  1  0
 17 41  1  0
 18 42  1  0
 19 43  1  0
 25 44  1  0
 26 45  1  0
 28 46  1  0
 29 47  1  0
 30 48  1  0
 31 49  1  0
M  END
>  <Score>  (1) 
-7.24793

$$$$
