
     RDKit          3D

 48 52  0  0  1  0  0  0  0  0999 V2000
   40.2800   66.1860   64.5810 C   0  0  0  0  0  0  0  0  0  0  0  0
   40.1050   65.3210   63.5420 C   0  0  0  0  0  0  0  0  0  0  0  0
   40.4230   65.7540   62.2660 C   0  0  0  0  0  0  0  0  0  0  0  0
   40.8780   67.0140   62.1070 N   0  0  0  0  0  0  0  0  0  0  0  0
   41.0350   67.8740   63.1510 C   0  0  0  0  0  0  0  0  0  0  0  0
   40.7310   67.4220   64.3680 N   0  0  0  0  0  0  0  0  0  0  0  0
   41.3440   69.2180   62.8530 N   0  0  0  0  0  0  0  0  0  0  0  0
   41.2190   70.2860   63.6940 C   0  0  0  0  0  0  0  0  0  0  0  0
   41.5410   71.4240   63.0400 N   0  0  0  0  0  0  0  0  0  0  0  0
   41.8660   71.0670   61.8060 C   0  0  0  0  0  0  0  0  0  0  0  0
   42.3040   71.7270   60.6770 C   0  0  1  0  0  0  0  0  0  0  0  0
   42.4550   71.0650   59.5080 N   0  0  0  0  0  0  0  0  0  0  0  0
   42.3190   69.7260   59.4210 C   0  0  0  0  0  0  0  0  0  0  0  0
   41.9700   69.0760   60.5200 N   0  0  0  0  0  0  0  0  0  0  0  0
   41.7490   69.7060   61.6690 C   0  0  0  0  0  0  0  0  0  0  0  0
   40.0020   65.6440   65.8460 N   0  0  0  0  0  0  0  0  0  0  0  0
   40.3740   66.4620   66.8820 C   0  0  0  0  0  0  0  0  0  0  0  0
   40.0260   65.7390   68.0430 C   0  0  0  0  0  0  0  0  0  0  0  0
   39.4790   64.5630   67.6690 N   0  0  0  0  0  0  0  0  0  0  0  0
   39.4660   64.5050   66.3190 C   0  0  0  0  0  0  0  0  0  0  0  0
   38.9690   63.3830   65.5130 C   0  0  0  0  0  0  0  0  0  0  0  0
   37.5720   63.4600   65.5870 F   0  0  0  0  0  0  0  0  0  0  0  0
   39.1960   62.1260   66.0330 F   0  0  0  0  0  0  0  0  0  0  0  0
   39.3270   63.4330   64.1850 F   0  0  0  0  0  0  0  0  0  0  0  0
   41.8560   73.0950   60.4810 N   0  0  0  0  0  0  0  0  0  0  0  0
   42.7620   73.9450   59.3050 S   0  0  0  0  0  0  0  0  0  0  0  0
   43.2020   72.9630   58.2670 O   0  0  0  0  0  0  0  0  0  0  0  0
   44.0050   74.4490   59.9810 O   0  0  0  0  0  0  0  0  0  0  0  0
   41.8930   75.2310   58.5590 C   0  0  0  0  0  0  0  0  0  0  0  0
   41.2390   76.0900   59.4510 C   0  0  0  0  0  0  0  0  0  0  0  0
   40.4960   77.1780   59.0380 C   0  0  0  0  0  0  0  0  0  0  0  0
   40.3790   77.4490   57.6740 C   0  0  0  0  0  0  0  0  0  0  0  0
   41.0220   76.6080   56.7810 C   0  0  0  0  0  0  0  0  0  0  0  0
   41.7550   75.5330   57.2200 C   0  0  0  0  0  0  0  0  0  0  0  0
   39.7208   64.3046   63.7131 H   0  0  0  0  0  0  0  0  0  0  0  0
   40.3072   65.0851   61.4005 H   0  0  0  0  0  0  0  0  0  0  0  0
   40.9035   70.2289   64.7462 H   0  0  0  0  0  0  0  0  0  0  0  0
   43.3404   71.7806   61.0418 H   0  0  0  0  0  0  0  0  0  0  0  0
   42.4914   69.1946   58.4734 H   0  0  0  0  0  0  0  0  0  0  0  0
   41.8667   68.0518   60.4835 H   0  0  0  0  0  0  0  0  0  0  0  0
   40.8388   67.4572   66.8217 H   0  0  0  0  0  0  0  0  0  0  0  0
   40.1755   66.0771   69.0790 H   0  0  0  0  0  0  0  0  0  0  0  0
   40.8703   73.0761   60.1828 H   0  0  0  0  0  0  0  0  0  0  0  0
   41.3209   75.8888   60.5293 H   0  0  0  0  0  0  0  0  0  0  0  0
   40.0010   77.8251   59.7771 H   0  0  0  0  0  0  0  0  0  0  0  0
   39.7915   78.3080   57.3175 H   0  0  0  0  0  0  0  0  0  0  0  0
   40.9442   76.8046   55.7015 H   0  0  0  0  0  0  0  0  0  0  0  0
   42.2498   74.8897   56.4775 H   0  0  0  0  0  0  0  0  0  0  0  0
  1 16  1  0
  2  1  2  0
  3  2  1  0
  4  3  2  0
  4  5  1  0
  5  6  2  0
  6  1  1  0
  7  5  1  0
  7  8  1  0
  9  8  2  0
 10  9  1  0
 11 10  1  0
 12 11  1  0
 13 12  2  0
 13 14  1  0
 14 15  1  0
 15 10  2  0
 15  7  1  0
 16 20  1  0
 16 17  1  0
 17 18  2  0
 19 18  1  0
 20 19  2  0
 21 22  1  0
 21 23  1  0
 21 20  1  0
 24 21  1  0
 25 11  1  0
 26 28  2  0
 26 25  1  0
 27 26  2  0
 29 26  1  0
 29 30  2  0
 31 30  1  0
 32 31  2  0
 33 34  2  0
 33 32  1  0
 34 29  1  0
  2 35  1  0
  3 36  1  0
  8 37  1  0
 11 38  1  1
 13 39  1  0
 14 40  1  0
 17 41  1  0
 18 42  1  0
 25 43  1  0
 30 44  1  0
 31 45  1  0
 32 46  1  0
 33 47  1  0
 34 48  1  0
M  END
>  <Score>  (1) 
-7.27271

$$$$
