
     RDKit          3D

 42 46  0  0  0  0  0  0  0  0999 V2000
   41.0480   68.7220   64.6910 N   0  0  0  0  0  0  0  0  0  0  0  0
   41.5190   69.7060   63.9750 N   0  0  0  0  0  0  0  0  0  0  0  0
   41.7350   69.3250   62.7040 C   0  0  0  0  0  0  0  0  0  0  0  0
   41.3530   67.9770   62.6650 C   0  0  0  0  0  0  0  0  0  0  0  0
   40.9260   67.6410   63.9430 C   0  0  0  0  0  0  0  0  0  0  0  0
   40.4470   66.3460   64.3350 N   0  0  0  0  0  0  0  0  0  0  0  0
   40.2460   65.3760   63.3940 C   0  0  0  0  0  0  0  0  0  0  0  0
   39.7960   64.2500   63.9990 N   0  0  0  0  0  0  0  0  0  0  0  0
   39.7160   64.5130   65.3080 C   0  0  0  0  0  0  0  0  0  0  0  0
   39.3400   63.8110   66.4360 C   0  0  0  0  0  0  0  0  0  0  0  0
   38.9590   62.6020   66.2850 O   0  0  0  0  0  0  0  0  0  0  0  0
   39.3790   64.3970   67.6520 N   0  0  0  0  0  0  0  0  0  0  0  0
   39.7810   65.6770   67.8190 C   0  0  0  0  0  0  0  0  0  0  0  0
   39.7520   66.1080   69.1720 N   0  0  0  0  0  0  0  0  0  0  0  0
   40.1640   66.4160   66.7360 N   0  0  0  0  0  0  0  0  0  0  0  0
   40.1230   65.8280   65.5350 C   0  0  0  0  0  0  0  0  0  0  0  0
   42.1990   69.8990   61.5550 O   0  0  0  0  0  0  0  0  0  0  0  0
   44.1400   68.4940   61.1890 C   0  0  0  0  0  0  0  0  0  0  0  0
   43.3690   69.6330   60.8940 C   0  0  0  0  0  0  0  0  0  0  0  0
   43.8220   70.4990   59.9050 C   0  0  0  0  0  0  0  0  0  0  0  0
   44.9960   70.1800   59.2820 N   0  0  0  0  0  0  0  0  0  0  0  0
   45.7110   69.1050   59.5690 C   0  0  0  0  0  0  0  0  0  0  0  0
   45.2930   68.2430   60.5300 N   0  0  0  0  0  0  0  0  0  0  0  0
   43.0090   71.6650   59.6200 C   0  0  0  0  0  0  0  0  0  0  0  0
   41.9600   71.7030   58.7210 C   0  0  0  0  0  0  0  0  0  0  0  0
   41.2730   72.9140   58.5610 C   0  0  0  0  0  0  0  0  0  0  0  0
   41.6660   74.0160   59.2990 C   0  0  0  0  0  0  0  0  0  0  0  0
   42.7000   73.9730   60.1830 C   0  0  0  0  0  0  0  0  0  0  0  0
   43.4080   72.7710   60.3650 C   0  0  0  0  0  0  0  0  0  0  0  0
   40.8073   68.7800   65.6908 H   0  0  0  0  0  0  0  0  0  0  0  0
   41.3853   67.3121   61.7893 H   0  0  0  0  0  0  0  0  0  0  0  0
   40.4219   65.4911   62.3143 H   0  0  0  0  0  0  0  0  0  0  0  0
   39.0936   63.8518   68.4780 H   0  0  0  0  0  0  0  0  0  0  0  0
   40.0386   67.0675   69.4131 H   0  0  0  0  0  0  0  0  0  0  0  0
   39.4443   65.4611   69.9121 H   0  0  0  0  0  0  0  0  0  0  0  0
   43.7991   67.7966   61.9684 H   0  0  0  0  0  0  0  0  0  0  0  0
   46.6478   68.9090   59.0268 H   0  0  0  0  0  0  0  0  0  0  0  0
   41.6728   70.8091   58.1479 H   0  0  0  0  0  0  0  0  0  0  0  0
   40.4311   72.9873   57.8568 H   0  0  0  0  0  0  0  0  0  0  0  0
   41.1222   74.9630   59.1664 H   0  0  0  0  0  0  0  0  0  0  0  0
   42.9802   74.8721   60.7514 H   0  0  0  0  0  0  0  0  0  0  0  0
   44.2483   72.7074   61.0720 H   0  0  0  0  0  0  0  0  0  0  0  0
  2  1  1  0
  3  2  2  0
  4  3  1  0
  4  5  2  0
  5  6  1  0
  5  1  1  0
  6 16  1  0
  7  8  2  0
  7  6  1  0
  8  9  1  0
  9 16  2  0
  9 10  1  0
 10 12  1  0
 11 10  2  0
 12 13  1  0
 13 14  1  0
 15 13  2  0
 16 15  1  0
 17  3  1  0
 19 18  2  0
 19 17  1  0
 20 19  1  0
 21 22  1  0
 21 20  2  0
 22 23  2  0
 23 18  1  0
 24 20  1  0
 24 29  1  0
 25 24  2  0
 26 25  1  0
 26 27  2  0
 27 28  1  0
 28 29  2  0
  1 30  1  0
  4 31  1  0
  7 32  1  0
 12 33  1  0
 14 34  1  0
 14 35  1  0
 18 36  1  0
 22 37  1  0
 25 38  1  0
 26 39  1  0
 27 40  1  0
 28 41  1  0
 29 42  1  0
M  END
>  <Score>  (1) 
-7.55382

$$$$
