
     RDKit          3D

 33 36  0  0  0  0  0  0  0  0999 V2000
   40.8080   66.1820   63.5250 C   0  0  0  0  0  0  0  0  0  0  0  0
   41.1180   67.5390   63.4660 C   0  0  0  0  0  0  0  0  0  0  0  0
   41.6250   68.1010   62.3110 C   0  0  0  0  0  0  0  0  0  0  0  0
   41.8040   67.2840   61.2540 N   0  0  0  0  0  0  0  0  0  0  0  0
   41.5040   65.9790   61.3180 C   0  0  0  0  0  0  0  0  0  0  0  0
   41.0090   65.4280   62.4450 N   0  0  0  0  0  0  0  0  0  0  0  0
   40.2830   65.5520   64.7090 C   0  0  0  0  0  0  0  0  0  0  0  0
   40.2980   66.2760   65.8870 C   0  0  0  0  0  0  0  0  0  0  0  0
   39.7990   65.7080   67.0700 C   0  0  0  0  0  0  0  0  0  0  0  0
   39.2880   64.4350   67.0860 C   0  0  0  0  0  0  0  0  0  0  0  0
   39.2670   63.7050   65.9210 C   0  0  0  0  0  0  0  0  0  0  0  0
   39.7540   64.2580   64.7620 C   0  0  0  0  0  0  0  0  0  0  0  0
   41.9500   69.5110   62.2550 C   0  0  0  0  0  0  0  0  0  0  0  0
   41.6660   70.4380   63.2220 C   0  0  0  0  0  0  0  0  0  0  0  0
   42.1720   71.6480   62.7190 C   0  0  0  0  0  0  0  0  0  0  0  0
   42.7270   71.3660   61.4810 C   0  0  0  0  0  0  0  0  0  0  0  0
   42.5610   70.0940   61.2760 O   0  0  0  0  0  0  0  0  0  0  0  0
   43.3650   72.2580   60.5760 N   0  0  0  0  0  0  0  0  0  0  0  0
   43.4660   72.0900   59.2480 C   0  0  0  0  0  0  0  0  0  0  0  0
   44.1400   73.1410   58.7130 N   0  0  0  0  0  0  0  0  0  0  0  0
   44.4540   73.9680   59.7490 C   0  0  0  0  0  0  0  0  0  0  0  0
   43.9630   73.3870   60.8580 N   0  0  0  0  0  0  0  0  0  0  0  0
   40.9567   68.1713   64.3515 H   0  0  0  0  0  0  0  0  0  0  0  0
   41.6648   65.3450   60.4336 H   0  0  0  0  0  0  0  0  0  0  0  0
   40.7018   67.2992   65.8972 H   0  0  0  0  0  0  0  0  0  0  0  0
   39.8181   66.2942   68.0006 H   0  0  0  0  0  0  0  0  0  0  0  0
   38.8995   64.0032   68.0201 H   0  0  0  0  0  0  0  0  0  0  0  0
   38.8618   62.6823   65.9173 H   0  0  0  0  0  0  0  0  0  0  0  0
   39.7270   63.6600   63.8392 H   0  0  0  0  0  0  0  0  0  0  0  0
   41.1543   70.2717   64.1814 H   0  0  0  0  0  0  0  0  0  0  0  0
   42.1348   72.6302   63.2128 H   0  0  0  0  0  0  0  0  0  0  0  0
   43.0659   71.2357   58.6821 H   0  0  0  0  0  0  0  0  0  0  0  0
   45.0002   74.9210   59.6902 H   0  0  0  0  0  0  0  0  0  0  0  0
  1  7  1  0
  2  1  2  0
  3  2  1  0
  4  5  1  0
  4  3  2  0
  5  6  2  0
  6  1  1  0
  7 12  1  0
  7  8  2  0
  8  9  1  0
  9 10  2  0
 11 10  1  0
 12 11  2  0
 13  3  1  0
 13 14  2  0
 15 14  1  0
 16 15  2  0
 17 16  1  0
 17 13  1  0
 18 22  1  0
 18 16  1  0
 19 18  1  0
 20 19  2  0
 20 21  1  0
 21 22  2  0
  2 23  1  0
  5 24  1  0
  8 25  1  0
  9 26  1  0
 10 27  1  0
 11 28  1  0
 12 29  1  0
 14 30  1  0
 15 31  1  0
 19 32  1  0
 21 33  1  0
M  END
>  <Score>  (1) 
-7.20013

$$$$
