
     RDKit          3D

 46 50  0  0  0  0  0  0  0  0999 V2000
   41.3750   67.9890   58.4590 C   0  0  0  0  0  0  0  0  0  0  0  0
   41.6810   67.5500   59.7600 C   0  0  0  0  0  0  0  0  0  0  0  0
   41.8660   68.4100   60.8380 C   0  0  0  0  0  0  0  0  0  0  0  0
   41.7130   69.7370   60.4800 N   0  0  0  0  0  0  0  0  0  0  0  0
   41.4200   70.1640   59.2370 C   0  0  0  0  0  0  0  0  0  0  0  0
   41.2580   69.2940   58.2550 N   0  0  0  0  0  0  0  0  0  0  0  0
   42.1940   68.1620   62.1800 C   0  0  0  0  0  0  0  0  0  0  0  0
   43.5490   68.4220   62.5010 C   0  0  0  0  0  0  0  0  0  0  0  0
   44.0680   68.2390   63.7850 C   0  0  0  0  0  0  0  0  0  0  0  0
   43.2410   67.7910   64.7780 C   0  0  0  0  0  0  0  0  0  0  0  0
   41.9090   67.5230   64.5120 C   0  0  0  0  0  0  0  0  0  0  0  0
   41.0780   67.0760   65.4980 C   0  0  0  0  0  0  0  0  0  0  0  0
   39.7510   66.7960   65.2870 C   0  0  0  0  0  0  0  0  0  0  0  0
   39.3050   67.0030   63.9760 C   0  0  0  0  0  0  0  0  0  0  0  0
   40.1790   67.4580   63.0040 C   0  0  0  0  0  0  0  0  0  0  0  0
   41.4900   67.7260   63.2470 C   0  0  0  0  0  0  0  0  0  0  0  0
   41.2820   71.5970   58.9480 C   0  0  0  0  0  0  0  0  0  0  0  0
   39.8710   72.0400   58.8000 C   0  0  0  0  0  0  0  0  0  0  0  0
   39.7190   73.3290   59.5330 C   0  0  0  0  0  0  0  0  0  0  0  0
   39.2320   73.5400   60.8270 C   0  0  0  0  0  0  0  0  0  0  0  0
   39.2920   74.9130   61.0440 C   0  0  0  0  0  0  0  0  0  0  0  0
   39.8070   75.4620   59.8830 C   0  0  0  0  0  0  0  0  0  0  0  0
   40.0350   74.5160   59.0480 O   0  0  0  0  0  0  0  0  0  0  0  0
   39.9940   76.8910   59.7960 C   0  0  0  0  0  0  0  0  0  0  0  0
   40.5270   77.7430   60.6880 C   0  0  0  0  0  0  0  0  0  0  0  0
   40.6350   79.0790   60.4680 C   0  0  0  0  0  0  0  0  0  0  0  0
   40.1170   79.4960   59.1710 C   0  0  0  0  0  0  0  0  0  0  0  0
   39.5190   77.8770   58.3960 S   0  0  0  0  0  0  0  0  0  0  0  0
   41.2371   67.2719   57.6364 H   0  0  0  0  0  0  0  0  0  0  0  0
   41.7793   66.4684   59.9345 H   0  0  0  0  0  0  0  0  0  0  0  0
   44.2196   68.7826   61.7071 H   0  0  0  0  0  0  0  0  0  0  0  0
   45.1266   68.4522   63.9944 H   0  0  0  0  0  0  0  0  0  0  0  0
   43.6364   67.6428   65.7937 H   0  0  0  0  0  0  0  0  0  0  0  0
   41.4905   66.9336   66.5078 H   0  0  0  0  0  0  0  0  0  0  0  0
   39.0879   66.4361   66.0875 H   0  0  0  0  0  0  0  0  0  0  0  0
   38.2547   66.8030   63.7173 H   0  0  0  0  0  0  0  0  0  0  0  0
   39.7943   67.6103   61.9848 H   0  0  0  0  0  0  0  0  0  0  0  0
   41.7400   72.1638   59.7720 H   0  0  0  0  0  0  0  0  0  0  0  0
   41.7813   71.7819   57.9854 H   0  0  0  0  0  0  0  0  0  0  0  0
   39.6338   72.1845   57.7356 H   0  0  0  0  0  0  0  0  0  0  0  0
   39.1856   71.2826   59.2082 H   0  0  0  0  0  0  0  0  0  0  0  0
   38.8737   72.7747   61.5312 H   0  0  0  0  0  0  0  0  0  0  0  0
   38.9910   75.4527   61.9541 H   0  0  0  0  0  0  0  0  0  0  0  0
   40.8938   77.3388   61.6430 H   0  0  0  0  0  0  0  0  0  0  0  0
   41.0707   79.7778   61.1973 H   0  0  0  0  0  0  0  0  0  0  0  0
   40.0821   80.5095   58.7448 H   0  0  0  0  0  0  0  0  0  0  0  0
  1  2  2  0
  2  3  1  0
  3  7  1  0
  4  3  2  0
  5  4  1  0
  6  1  1  0
  6  5  2  0
  7  8  2  0
  7 16  1  0
  8  9  1  0
  9 10  2  0
 11 10  1  0
 11 12  2  0
 13 12  1  0
 14 13  2  0
 15 16  2  0
 15 14  1  0
 16 11  1  0
 17  5  1  0
 18 17  1  0
 18 19  1  0
 19 20  2  0
 20 21  1  0
 22 21  2  0
 23 19  1  0
 23 22  1  0
 24 22  1  0
 24 25  2  0
 26 25  1  0
 27 26  2  0
 28 27  1  0
 28 24  1  0
  1 29  1  0
  2 30  1  0
  8 31  1  0
  9 32  1  0
 10 33  1  0
 12 34  1  0
 13 35  1  0
 14 36  1  0
 15 37  1  0
 17 38  1  0
 17 39  1  0
 18 40  1  0
 18 41  1  0
 20 42  1  0
 21 43  1  0
 25 44  1  0
 26 45  1  0
 27 46  1  0
M  END
>  <Score>  (1) 
-7.84457

$$$$
