
     RDKit          3D

 43 47  0  0  1  0  0  0  0  0999 V2000
   42.1310   68.4970   61.7700 C   0  0  2  0  0  0  0  0  0  0  0  0
   43.0590   67.3660   61.6100 C   0  0  0  0  0  0  0  0  0  0  0  0
   41.6780   67.3170   61.0450 C   0  0  2  0  0  0  0  0  0  0  0  0
   41.9690   71.9180   60.4540 C   0  0  0  0  0  0  0  0  0  0  0  0
   43.1410   71.8970   59.7460 C   0  0  0  0  0  0  0  0  0  0  0  0
   43.7830   70.2980   60.0190 S   0  0  0  0  0  0  0  0  0  0  0  0
   42.3600   69.7840   61.1020 C   0  0  0  0  0  0  0  0  0  0  0  0
   41.6210   70.8790   61.0990 N   0  0  0  0  0  0  0  0  0  0  0  0
   41.0730   73.1100   60.5010 C   0  0  0  0  0  0  0  0  0  0  0  0
   39.8200   72.9690   61.1560 C   0  0  0  0  0  0  0  0  0  0  0  0
   38.9330   74.0710   61.2250 C   0  0  0  0  0  0  0  0  0  0  0  0
   39.3680   75.1940   60.6440 N   0  0  0  0  0  0  0  0  0  0  0  0
   40.5510   75.2990   60.0370 C   0  0  0  0  0  0  0  0  0  0  0  0
   41.3640   74.2760   59.9770 N   0  0  0  0  0  0  0  0  0  0  0  0
   41.6270   67.1000   59.6040 C   0  0  0  0  0  0  0  0  0  0  0  0
   42.7920   67.2730   58.9250 F   0  0  0  0  0  0  0  0  0  0  0  0
   40.7100   67.9730   59.0030 F   0  0  0  0  0  0  0  0  0  0  0  0
   41.1540   65.8410   59.2320 F   0  0  0  0  0  0  0  0  0  0  0  0
   40.4200   66.3150   61.9260 S   0  0  0  0  0  0  0  0  0  0  0  0
   40.4280   66.7770   63.6460 C   0  0  0  0  0  0  0  0  0  0  0  0
   40.7850   68.0310   64.1040 C   0  0  0  0  0  0  0  0  0  0  0  0
   40.7710   68.3390   65.4660 C   0  0  0  0  0  0  0  0  0  0  0  0
   40.3910   67.3750   66.3890 C   0  0  0  0  0  0  0  0  0  0  0  0
   40.0290   66.1160   65.9500 C   0  0  0  0  0  0  0  0  0  0  0  0
   39.6580   65.1880   66.9000 C   0  0  0  0  0  0  0  0  0  0  0  0
   39.2930   63.9200   66.4640 C   0  0  0  0  0  0  0  0  0  0  0  0
   39.2900   63.5560   65.1130 C   0  0  0  0  0  0  0  0  0  0  0  0
   39.6760   64.5600   64.2610 C   0  0  0  0  0  0  0  0  0  0  0  0
   40.0550   65.8430   64.5880 C   0  0  0  0  0  0  0  0  0  0  0  0
   41.7458   69.0652   62.6295 H   0  0  0  0  0  0  0  0  0  0  0  0
   43.9276   67.4537   60.9408 H   0  0  0  0  0  0  0  0  0  0  0  0
   43.6514   66.7354   62.2892 H   0  0  0  0  0  0  0  0  0  0  0  0
   43.5786   72.7054   59.1419 H   0  0  0  0  0  0  0  0  0  0  0  0
   39.5396   72.0063   61.6084 H   0  0  0  0  0  0  0  0  0  0  0  0
   37.9539   74.0074   61.7222 H   0  0  0  0  0  0  0  0  0  0  0  0
   40.8461   76.2560   59.5820 H   0  0  0  0  0  0  0  0  0  0  0  0
   41.0865   68.8028   63.3805 H   0  0  0  0  0  0  0  0  0  0  0  0
   41.0607   69.3440   65.8066 H   0  0  0  0  0  0  0  0  0  0  0  0
   40.3781   67.6117   67.4632 H   0  0  0  0  0  0  0  0  0  0  0  0
   39.6512   65.4435   67.9699 H   0  0  0  0  0  0  0  0  0  0  0  0
   38.9940   63.1712   67.2122 H   0  0  0  0  0  0  0  0  0  0  0  0
   39.0033   62.5529   64.7644 H   0  0  0  0  0  0  0  0  0  0  0  0
   39.6836   64.3105   63.1897 H   0  0  0  0  0  0  0  0  0  0  0  0
  2  1  1  0
  3  2  1  0
  3  1  1  0
  3 19  1  1
  4  9  1  0
  4  8  1  0
  5  6  1  0
  5  4  2  0
  6  7  1  0
  7  1  1  0
  8  7  2  0
  9 10  2  0
 10 11  1  0
 12 11  2  0
 13 12  1  0
 14 13  2  0
 14  9  1  0
 15  3  1  0
 16 15  1  0
 17 15  1  0
 18 15  1  0
 19 20  1  0
 20 21  2  0
 20 29  1  0
 21 22  1  0
 22 23  2  0
 24 23  1  0
 24 25  2  0
 26 25  1  0
 27 26  2  0
 28 29  2  0
 28 27  1  0
 29 24  1  0
  1 30  1  1
  2 31  1  0
  2 32  1  0
  5 33  1  0
 10 34  1  0
 11 35  1  0
 13 36  1  0
 21 37  1  0
 22 38  1  0
 23 39  1  0
 25 40  1  0
 26 41  1  0
 27 42  1  0
 28 43  1  0
M  END
>  <Score>  (1) 
-7.13203

$$$$
