
     RDKit          3D

 49 53  0  0  0  0  0  0  0  0999 V2000
   41.4200   67.5800   58.4160 C   0  0  0  0  0  0  0  0  0  0  0  0
   41.7350   67.2420   59.7490 C   0  0  0  0  0  0  0  0  0  0  0  0
   41.8360   68.1880   60.7640 C   0  0  0  0  0  0  0  0  0  0  0  0
   41.5960   69.4830   60.3270 N   0  0  0  0  0  0  0  0  0  0  0  0
   41.2930   69.7950   59.0370 C   0  0  0  0  0  0  0  0  0  0  0  0
   41.2120   68.8530   58.1210 N   0  0  0  0  0  0  0  0  0  0  0  0
   42.1520   68.0730   62.1300 C   0  0  0  0  0  0  0  0  0  0  0  0
   43.4800   68.4250   62.4550 C   0  0  0  0  0  0  0  0  0  0  0  0
   43.9800   68.3770   63.7570 C   0  0  0  0  0  0  0  0  0  0  0  0
   43.1550   67.9710   64.7760 C   0  0  0  0  0  0  0  0  0  0  0  0
   41.8420   67.6140   64.5190 C   0  0  0  0  0  0  0  0  0  0  0  0
   40.9990   67.2080   65.5110 C   0  0  0  0  0  0  0  0  0  0  0  0
   39.6980   66.8500   65.2920 C   0  0  0  0  0  0  0  0  0  0  0  0
   39.2870   66.9270   63.9740 C   0  0  0  0  0  0  0  0  0  0  0  0
   40.1430   67.3370   62.9750 C   0  0  0  0  0  0  0  0  0  0  0  0
   41.4260   67.6870   63.2190 C   0  0  0  0  0  0  0  0  0  0  0  0
   41.0610   71.1970   58.6860 C   0  0  0  0  0  0  0  0  0  0  0  0
   40.0250   71.6330   57.8980 C   0  0  0  0  0  0  0  0  0  0  0  0
   40.1990   73.0130   57.8360 C   0  0  0  0  0  0  0  0  0  0  0  0
   41.3330   73.3330   58.5930 C   0  0  0  0  0  0  0  0  0  0  0  0
   41.7970   72.1940   59.0720 O   0  0  0  0  0  0  0  0  0  0  0  0
   41.9910   74.4970   58.9020 O   0  0  0  0  0  0  0  0  0  0  0  0
   40.0860   77.8720   59.8850 N   0  0  0  0  0  0  0  0  0  0  0  0
   41.4690   78.0910   59.5410 C   0  0  0  0  0  0  0  0  0  0  0  0
   42.2570   76.8020   59.4900 C   0  0  0  0  0  0  0  0  0  0  0  0
   41.2740   75.6850   59.1990 C   0  0  0  0  0  0  0  0  0  0  0  0
   40.3840   75.4740   60.3800 C   0  0  0  0  0  0  0  0  0  0  0  0
   39.8920   76.8200   60.8610 C   0  0  0  0  0  0  0  0  0  0  0  0
   41.3490   66.8035   57.6401 H   0  0  0  0  0  0  0  0  0  0  0  0
   41.9083   66.1843   59.9966 H   0  0  0  0  0  0  0  0  0  0  0  0
   44.1502   68.7515   61.6462 H   0  0  0  0  0  0  0  0  0  0  0  0
   45.0223   68.6610   63.9640 H   0  0  0  0  0  0  0  0  0  0  0  0
   43.5401   67.9289   65.8055 H   0  0  0  0  0  0  0  0  0  0  0  0
   41.3856   67.1664   66.5400 H   0  0  0  0  0  0  0  0  0  0  0  0
   39.0290   66.5254   66.1026 H   0  0  0  0  0  0  0  0  0  0  0  0
   38.2527   66.6546   63.7170 H   0  0  0  0  0  0  0  0  0  0  0  0
   39.7689   67.3811   61.9415 H   0  0  0  0  0  0  0  0  0  0  0  0
   39.2370   71.0296   57.4237 H   0  0  0  0  0  0  0  0  0  0  0  0
   39.5608   73.7239   57.2907 H   0  0  0  0  0  0  0  0  0  0  0  0
   39.5731   77.6200   59.0281 H   0  0  0  0  0  0  0  0  0  0  0  0
   41.5161   78.5740   58.5538 H   0  0  0  0  0  0  0  0  0  0  0  0
   41.9136   78.7274   60.3203 H   0  0  0  0  0  0  0  0  0  0  0  0
   43.0139   76.8546   58.6935 H   0  0  0  0  0  0  0  0  0  0  0  0
   42.7772   76.6251   60.4430 H   0  0  0  0  0  0  0  0  0  0  0  0
   40.6502   75.9553   58.3343 H   0  0  0  0  0  0  0  0  0  0  0  0
   39.5269   74.8481   60.0908 H   0  0  0  0  0  0  0  0  0  0  0  0
   40.9399   74.9685   61.1834 H   0  0  0  0  0  0  0  0  0  0  0  0
   40.4385   77.0865   61.7777 H   0  0  0  0  0  0  0  0  0  0  0  0
   38.8104   76.7314   61.0406 H   0  0  0  0  0  0  0  0  0  0  0  0
  1  2  2  0
  2  3  1  0
  3  7  1  0
  4  3  2  0
  5  4  1  0
  6  1  1  0
  6  5  2  0
  7  8  2  0
  7 16  1  0
  8  9  1  0
  9 10  2  0
 11 10  1  0
 11 12  2  0
 13 12  1  0
 14 13  2  0
 15 16  2  0
 15 14  1  0
 16 11  1  0
 17  5  1  0
 17 21  1  0
 18 17  2  0
 19 18  1  0
 19 20  2  0
 20 22  1  0
 20 21  1  0
 22 26  1  0
 23 28  1  0
 24 23  1  0
 25 24  1  0
 26 25  1  0
 26 27  1  0
 27 28  1  0
  1 29  1  0
  2 30  1  0
  8 31  1  0
  9 32  1  0
 10 33  1  0
 12 34  1  0
 13 35  1  0
 14 36  1  0
 15 37  1  0
 18 38  1  0
 19 39  1  0
 23 40  1  0
 24 41  1  0
 24 42  1  0
 25 43  1  0
 25 44  1  0
 26 45  1  0
 27 46  1  0
 27 47  1  0
 28 48  1  0
 28 49  1  0
M  END
>  <Score>  (1) 
-7.3178

$$$$
