
     RDKit          3D

 47 52  0  0  0  0  0  0  0  0999 V2000
   42.1090   67.5660   58.3360 C   0  0  0  0  0  0  0  0  0  0  0  0
   42.3650   67.2540   59.6830 C   0  0  0  0  0  0  0  0  0  0  0  0
   42.1410   68.1470   60.7230 C   0  0  0  0  0  0  0  0  0  0  0  0
   41.6460   69.3550   60.2900 N   0  0  0  0  0  0  0  0  0  0  0  0
   41.3970   69.6630   58.9980 C   0  0  0  0  0  0  0  0  0  0  0  0
   41.6310   68.7740   58.0540 N   0  0  0  0  0  0  0  0  0  0  0  0
   42.3520   68.0370   62.1160 C   0  0  0  0  0  0  0  0  0  0  0  0
   43.6500   68.3820   62.5450 C   0  0  0  0  0  0  0  0  0  0  0  0
   44.0610   68.3470   63.8700 C   0  0  0  0  0  0  0  0  0  0  0  0
   43.1490   67.9530   64.8320 C   0  0  0  0  0  0  0  0  0  0  0  0
   41.8530   67.6010   64.4720 C   0  0  0  0  0  0  0  0  0  0  0  0
   40.9430   67.2180   65.4180 C   0  0  0  0  0  0  0  0  0  0  0  0
   39.6470   66.8700   65.0920 C   0  0  0  0  0  0  0  0  0  0  0  0
   39.3330   66.9360   63.7480 C   0  0  0  0  0  0  0  0  0  0  0  0
   40.2710   67.3260   62.8220 C   0  0  0  0  0  0  0  0  0  0  0  0
   41.5380   67.6650   63.1510 C   0  0  0  0  0  0  0  0  0  0  0  0
   40.8670   70.9850   58.6630 C   0  0  0  0  0  0  0  0  0  0  0  0
   39.6350   71.2020   58.0740 C   0  0  0  0  0  0  0  0  0  0  0  0
   39.5920   72.5950   57.9650 C   0  0  0  0  0  0  0  0  0  0  0  0
   40.7520   73.1430   58.4710 C   0  0  0  0  0  0  0  0  0  0  0  0
   41.4410   72.1090   58.8590 O   0  0  0  0  0  0  0  0  0  0  0  0
   41.3040   74.4670   58.6520 C   0  0  0  0  0  0  0  0  0  0  0  0
   42.5850   74.5850   59.0880 N   0  0  0  0  0  0  0  0  0  0  0  0
   43.1820   75.7360   59.3980 C   0  0  0  0  0  0  0  0  0  0  0  0
   42.5210   76.9230   59.2930 N   0  0  0  0  0  0  0  0  0  0  0  0
   41.2240   76.9240   58.8600 C   0  0  0  0  0  0  0  0  0  0  0  0
   40.5110   78.0880   58.7070 C   0  0  0  0  0  0  0  0  0  0  0  0
   39.2130   78.0950   58.2400 C   0  0  0  0  0  0  0  0  0  0  0  0
   38.6680   76.8420   57.9330 C   0  0  0  0  0  0  0  0  0  0  0  0
   39.4180   75.7060   58.1040 C   0  0  0  0  0  0  0  0  0  0  0  0
   40.7020   75.6870   58.5670 C   0  0  0  0  0  0  0  0  0  0  0  0
   42.2987   66.8320   57.5390 H   0  0  0  0  0  0  0  0  0  0  0  0
   42.7610   66.2565   59.9243 H   0  0  0  0  0  0  0  0  0  0  0  0
   44.3798   68.6974   61.7848 H   0  0  0  0  0  0  0  0  0  0  0  0
   45.0879   68.6261   64.1485 H   0  0  0  0  0  0  0  0  0  0  0  0
   43.4510   67.9179   65.8892 H   0  0  0  0  0  0  0  0  0  0  0  0
   41.2533   67.1861   66.4728 H   0  0  0  0  0  0  0  0  0  0  0  0
   38.9137   66.5609   65.8514 H   0  0  0  0  0  0  0  0  0  0  0  0
   38.3184   66.6728   63.4145 H   0  0  0  0  0  0  0  0  0  0  0  0
   39.9769   67.3641   61.7627 H   0  0  0  0  0  0  0  0  0  0  0  0
   38.8788   70.4640   57.7681 H   0  0  0  0  0  0  0  0  0  0  0  0
   38.7563   73.1693   57.5386 H   0  0  0  0  0  0  0  0  0  0  0  0
   44.2260   75.7274   59.7445 H   0  0  0  0  0  0  0  0  0  0  0  0
   40.9898   79.0442   58.9648 H   0  0  0  0  0  0  0  0  0  0  0  0
   38.6416   79.0268   58.1164 H   0  0  0  0  0  0  0  0  0  0  0  0
   37.6378   76.7686   57.5545 H   0  0  0  0  0  0  0  0  0  0  0  0
   38.9518   74.7426   57.8501 H   0  0  0  0  0  0  0  0  0  0  0  0
  1  2  2  0
  2  3  1  0
  3  7  1  0
  4  3  2  0
  5  4  1  0
  6  1  1  0
  6  5  2  0
  7  8  2  0
  7 16  1  0
  8  9  1  0
  9 10  2  0
 11 10  1  0
 11 12  2  0
 13 12  1  0
 14 13  2  0
 15 16  2  0
 15 14  1  0
 16 11  1  0
 17 21  1  0
 17  5  1  0
 18 17  2  0
 19 18  1  0
 19 20  2  0
 20 22  1  0
 20 21  1  0
 22 23  2  0
 23 24  1  0
 25 24  2  0
 26 25  1  0
 27 26  2  0
 28 27  1  0
 29 30  1  0
 29 28  2  0
 30 31  2  0
 31 22  1  0
 31 26  1  0
  1 32  1  0
  2 33  1  0
  8 34  1  0
  9 35  1  0
 10 36  1  0
 12 37  1  0
 13 38  1  0
 14 39  1  0
 15 40  1  0
 18 41  1  0
 19 42  1  0
 24 43  1  0
 27 44  1  0
 28 45  1  0
 29 46  1  0
 30 47  1  0
M  END
>  <Score>  (1) 
-8.10223

$$$$
