
     RDKit          3D

 40 44  0  0  0  0  0  0  0  0999 V2000
   39.8820   64.3930   64.7890 C   0  0  0  0  0  0  0  0  0  0  0  0
   40.1600   65.1520   65.9600 C   0  0  0  0  0  0  0  0  0  0  0  0
   40.7530   66.3940   65.7920 C   0  0  0  0  0  0  0  0  0  0  0  0
   41.0420   66.8310   64.5230 N   0  0  0  0  0  0  0  0  0  0  0  0
   40.7540   66.0610   63.4440 C   0  0  0  0  0  0  0  0  0  0  0  0
   40.1810   64.8560   63.5570 N   0  0  0  0  0  0  0  0  0  0  0  0
   41.0880   66.5920   62.1660 N   0  0  0  0  0  0  0  0  0  0  0  0
   41.2500   66.0850   60.9220 C   0  0  0  0  0  0  0  0  0  0  0  0
   41.5750   67.0490   60.0600 N   0  0  0  0  0  0  0  0  0  0  0  0
   41.6240   68.1980   60.7610 C   0  0  0  0  0  0  0  0  0  0  0  0
   41.9080   69.4930   60.3820 C   0  0  0  0  0  0  0  0  0  0  0  0
   42.1820   69.6960   59.1610 O   0  0  0  0  0  0  0  0  0  0  0  0
   41.9030   70.5200   61.2530 N   0  0  0  0  0  0  0  0  0  0  0  0
   41.6070   70.2180   62.5160 C   0  0  0  0  0  0  0  0  0  0  0  0
   41.5850   71.2670   63.4890 N   0  0  0  0  0  0  0  0  0  0  0  0
   41.3290   68.9910   62.9200 N   0  0  0  0  0  0  0  0  0  0  0  0
   41.3180   67.9250   62.0970 C   0  0  0  0  0  0  0  0  0  0  0  0
   42.2060   71.8280   60.7920 C   0  0  0  0  0  0  0  0  0  0  0  0
   43.5470   72.0390   60.5130 C   0  0  0  0  0  0  0  0  0  0  0  0
   43.9230   73.3040   60.0550 C   0  0  0  0  0  0  0  0  0  0  0  0
   43.0210   74.3320   59.8720 C   0  0  0  0  0  0  0  0  0  0  0  0
   41.6840   74.0990   60.1580 C   0  0  0  0  0  0  0  0  0  0  0  0
   40.7340   75.0780   60.0000 C   0  0  0  0  0  0  0  0  0  0  0  0
   39.4100   74.8410   60.2850 C   0  0  0  0  0  0  0  0  0  0  0  0
   39.0420   73.5820   60.7410 C   0  0  0  0  0  0  0  0  0  0  0  0
   39.9850   72.5790   60.9070 C   0  0  0  0  0  0  0  0  0  0  0  0
   41.3050   72.8530   60.6120 C   0  0  0  0  0  0  0  0  0  0  0  0
   39.4115   63.4039   64.8904 H   0  0  0  0  0  0  0  0  0  0  0  0
   39.9137   64.7679   66.9609 H   0  0  0  0  0  0  0  0  0  0  0  0
   40.9889   67.0212   66.6643 H   0  0  0  0  0  0  0  0  0  0  0  0
   41.1301   65.0239   60.6582 H   0  0  0  0  0  0  0  0  0  0  0  0
   41.3584   71.0540   64.4709 H   0  0  0  0  0  0  0  0  0  0  0  0
   41.7958   72.2351   63.2074 H   0  0  0  0  0  0  0  0  0  0  0  0
   44.2893   71.2384   60.6475 H   0  0  0  0  0  0  0  0  0  0  0  0
   44.9839   73.4886   59.8306 H   0  0  0  0  0  0  0  0  0  0  0  0
   43.3549   75.3146   59.5073 H   0  0  0  0  0  0  0  0  0  0  0  0
   41.0383   76.0713   59.6383 H   0  0  0  0  0  0  0  0  0  0  0  0
   38.6575   75.6326   60.1545 H   0  0  0  0  0  0  0  0  0  0  0  0
   37.9866   73.3773   60.9740 H   0  0  0  0  0  0  0  0  0  0  0  0
   39.6865   71.5834   61.2671 H   0  0  0  0  0  0  0  0  0  0  0  0
  1  2  2  0
  3  2  1  0
  4  3  2  0
  5  6  2  0
  5  4  1  0
  6  1  1  0
  7  5  1  0
  8  7  1  0
  9 10  1  0
  9  8  2  0
 10 17  2  0
 11 10  1  0
 11 13  1  0
 12 11  2  0
 13 14  1  0
 14 16  2  0
 14 15  1  0
 17  7  1  0
 17 16  1  0
 18 13  1  0
 19 18  2  0
 20 19  1  0
 21 20  2  0
 21 22  1  0
 22 27  2  0
 23 22  1  0
 23 24  2  0
 24 25  1  0
 25 26  2  0
 27 18  1  0
 27 26  1  0
  1 28  1  0
  2 29  1  0
  3 30  1  0
  8 31  1  0
 15 32  1  0
 15 33  1  0
 19 34  1  0
 20 35  1  0
 21 36  1  0
 23 37  1  0
 24 38  1  0
 25 39  1  0
 26 40  1  0
M  END
>  <Score>  (1) 
-7.69797

$$$$
