
     RDKit          3D

 46 49  0  0  0  0  0  0  0  0999 V2000
   40.6900   67.2670   61.9970 C   0  0  0  0  0  0  0  0  0  0  0  0
   40.9080   67.3270   63.3690 C   0  0  0  0  0  0  0  0  0  0  0  0
   42.2080   67.1940   63.8490 C   0  0  0  0  0  0  0  0  0  0  0  0
   43.1630   67.0140   62.9370 N   0  0  0  0  0  0  0  0  0  0  0  0
   42.9860   66.9540   61.6290 C   0  0  0  0  0  0  0  0  0  0  0  0
   41.7320   67.0830   61.1640 N   0  0  0  0  0  0  0  0  0  0  0  0
   43.9300   66.7630   60.5390 C   0  0  0  0  0  0  0  0  0  0  0  0
   44.6560   67.7970   59.9460 C   0  0  0  0  0  0  0  0  0  0  0  0
   45.5490   67.6370   58.9160 C   0  0  0  0  0  0  0  0  0  0  0  0
   45.7740   66.3900   58.4050 C   0  0  0  0  0  0  0  0  0  0  0  0
   45.1020   65.3240   58.9320 C   0  0  0  0  0  0  0  0  0  0  0  0
   45.3680   64.1070   58.3800 C   0  0  0  0  0  0  0  0  0  0  0  0
   44.7310   62.9850   58.8560 C   0  0  0  0  0  0  0  0  0  0  0  0
   43.8160   63.1340   59.9060 C   0  0  0  0  0  0  0  0  0  0  0  0
   43.6080   64.4000   60.4020 C   0  0  0  0  0  0  0  0  0  0  0  0
   44.2180   65.5380   59.9610 C   0  0  0  0  0  0  0  0  0  0  0  0
   39.8540   67.5190   64.3730 C   0  0  0  0  0  0  0  0  0  0  0  0
   39.6570   66.2550   65.1170 C   0  0  0  0  0  0  0  0  0  0  0  0
   39.4160   65.0550   64.5150 C   0  0  0  0  0  0  0  0  0  0  0  0
   39.2390   63.8990   65.2790 C   0  0  0  0  0  0  0  0  0  0  0  0
   39.3210   64.0580   66.5940 N   0  0  0  0  0  0  0  0  0  0  0  0
   39.5510   65.1990   67.2340 C   0  0  0  0  0  0  0  0  0  0  0  0
   39.7200   66.3080   66.4660 N   0  0  0  0  0  0  0  0  0  0  0  0
   39.6160   65.2430   68.6520 N   0  0  0  0  0  0  0  0  0  0  0  0
   38.9910   62.6920   64.6080 N   0  0  0  0  0  0  0  0  0  0  0  0
   38.8180   61.5080   65.3370 C   0  0  0  0  0  0  0  0  0  0  0  0
   39.5130   61.2390   66.3780 N   0  0  0  0  0  0  0  0  0  0  0  0
   37.8380   60.5250   64.9410 N   0  0  0  0  0  0  0  0  0  0  0  0
   40.2360   61.8980   66.7180 H   0  0  0  0  0  0  0  0  0  0  0  0
   39.6716   67.3693   61.5941 H   0  0  0  0  0  0  0  0  0  0  0  0
   42.4350   67.2353   64.9245 H   0  0  0  0  0  0  0  0  0  0  0  0
   44.5011   68.8151   60.3325 H   0  0  0  0  0  0  0  0  0  0  0  0
   46.0804   68.5077   58.5043 H   0  0  0  0  0  0  0  0  0  0  0  0
   46.4871   66.2464   57.5799 H   0  0  0  0  0  0  0  0  0  0  0  0
   46.0909   64.0221   57.5552 H   0  0  0  0  0  0  0  0  0  0  0  0
   44.9351   61.9947   58.4227 H   0  0  0  0  0  0  0  0  0  0  0  0
   43.2811   62.2668   60.3205 H   0  0  0  0  0  0  0  0  0  0  0  0
   42.8869   64.5040   61.2261 H   0  0  0  0  0  0  0  0  0  0  0  0
   40.1515   68.3149   65.0716 H   0  0  0  0  0  0  0  0  0  0  0  0
   38.9160   67.8056   63.8750 H   0  0  0  0  0  0  0  0  0  0  0  0
   39.3605   64.9970   63.4179 H   0  0  0  0  0  0  0  0  0  0  0  0
   39.7953   66.1366   69.1318 H   0  0  0  0  0  0  0  0  0  0  0  0
   39.4839   64.3813   69.2006 H   0  0  0  0  0  0  0  0  0  0  0  0
   38.9361   62.6763   63.5796 H   0  0  0  0  0  0  0  0  0  0  0  0
   37.7251   59.6604   65.4894 H   0  0  0  0  0  0  0  0  0  0  0  0
   37.2516   60.6881   64.1101 H   0  0  0  0  0  0  0  0  0  0  0  0
  1  2  2  0
  2  3  1  0
  2 17  1  0
  4  3  2  0
  5  4  1  0
  6  5  2  0
  6  1  1  0
  7  5  1  0
  8  7  2  0
  9  8  1  0
 10  9  2  0
 10 11  1  0
 11 16  2  0
 12 13  2  0
 12 11  1  0
 13 14  1  0
 14 15  2  0
 16 15  1  0
 16  7  1  0
 17 18  1  0
 18 23  1  0
 19 18  2  0
 19 20  1  0
 20 21  2  0
 21 22  1  0
 22 24  1  0
 23 22  2  0
 25 20  1  0
 25 26  1  0
 26 27  2  0
 27 29  1  0
 28 26  1  0
  1 30  1  0
  3 31  1  0
  8 32  1  0
  9 33  1  0
 10 34  1  0
 12 35  1  0
 13 36  1  0
 14 37  1  0
 15 38  1  0
 17 39  1  0
 17 40  1  0
 19 41  1  0
 24 42  1  0
 24 43  1  0
 25 44  1  0
 28 45  1  0
 28 46  1  0
M  END
>  <Score>  (1) 
-7.14432

$$$$
