
     RDKit          3D

 41 45  0  0  0  0  0  0  0  0999 V2000
   40.8010   66.1620   63.4970 C   0  0  0  0  0  0  0  0  0  0  0  0
   41.0560   67.5310   63.4660 C   0  0  0  0  0  0  0  0  0  0  0  0
   41.5730   68.1290   62.3300 C   0  0  0  0  0  0  0  0  0  0  0  0
   41.8210   67.3480   61.2620 N   0  0  0  0  0  0  0  0  0  0  0  0
   41.5720   66.0220   61.2980 C   0  0  0  0  0  0  0  0  0  0  0  0
   41.0660   65.4350   62.4080 N   0  0  0  0  0  0  0  0  0  0  0  0
   40.2660   65.4970   64.6580 C   0  0  0  0  0  0  0  0  0  0  0  0
   40.2940   66.1430   65.8590 C   0  0  0  0  0  0  0  0  0  0  0  0
   39.7850   65.5370   67.0170 C   0  0  0  0  0  0  0  0  0  0  0  0
   39.2480   64.2860   66.9800 C   0  0  0  0  0  0  0  0  0  0  0  0
   39.2120   63.6170   65.7720 C   0  0  0  0  0  0  0  0  0  0  0  0
   39.7120   64.2150   64.6370 C   0  0  0  0  0  0  0  0  0  0  0  0
   41.8390   69.5550   62.3190 C   0  0  0  0  0  0  0  0  0  0  0  0
   41.7460   70.4140   63.3910 C   0  0  0  0  0  0  0  0  0  0  0  0
   42.0940   71.6580   62.8970 C   0  0  0  0  0  0  0  0  0  0  0  0
   42.3720   71.4920   61.5760 C   0  0  0  0  0  0  0  0  0  0  0  0
   42.2090   70.2420   61.2900 O   0  0  0  0  0  0  0  0  0  0  0  0
   42.7960   72.3710   60.4990 C   0  0  0  0  0  0  0  0  0  0  0  0
   43.9600   72.1370   59.8400 N   0  0  0  0  0  0  0  0  0  0  0  0
   44.5050   72.9160   58.9250 C   0  0  0  0  0  0  0  0  0  0  0  0
   43.9050   74.0790   58.5510 N   0  0  0  0  0  0  0  0  0  0  0  0
   42.7230   74.4240   59.1430 C   0  0  0  0  0  0  0  0  0  0  0  0
   42.0720   75.5730   58.7720 C   0  0  0  0  0  0  0  0  0  0  0  0
   40.8700   75.9250   59.3210 C   0  0  0  0  0  0  0  0  0  0  0  0
   40.3360   75.0640   60.2780 C   0  0  0  0  0  0  0  0  0  0  0  0
   41.0360   73.9300   60.6080 C   0  0  0  0  0  0  0  0  0  0  0  0
   42.2430   73.5450   60.0820 C   0  0  0  0  0  0  0  0  0  0  0  0
   40.8440   68.1438   64.3546 H   0  0  0  0  0  0  0  0  0  0  0  0
   41.7838   65.4078   60.4104 H   0  0  0  0  0  0  0  0  0  0  0  0
   40.7222   67.1544   65.9203 H   0  0  0  0  0  0  0  0  0  0  0  0
   39.8202   66.0818   67.9720 H   0  0  0  0  0  0  0  0  0  0  0  0
   38.8512   63.8181   67.8930 H   0  0  0  0  0  0  0  0  0  0  0  0
   38.7834   62.6054   65.7167 H   0  0  0  0  0  0  0  0  0  0  0  0
   39.6740   63.6662   63.6844 H   0  0  0  0  0  0  0  0  0  0  0  0
   41.4562   70.1638   64.4222 H   0  0  0  0  0  0  0  0  0  0  0  0
   42.1376   72.6000   63.4633 H   0  0  0  0  0  0  0  0  0  0  0  0
   45.4567   72.6216   58.4584 H   0  0  0  0  0  0  0  0  0  0  0  0
   42.5280   76.2273   58.0144 H   0  0  0  0  0  0  0  0  0  0  0  0
   40.3484   76.8458   59.0209 H   0  0  0  0  0  0  0  0  0  0  0  0
   39.3728   75.2886   60.7594 H   0  0  0  0  0  0  0  0  0  0  0  0
   40.5875   73.2689   61.3642 H   0  0  0  0  0  0  0  0  0  0  0  0
  1  7  1  0
  2  1  2  0
  3  2  1  0
  4  5  1  0
  4  3  2  0
  5  6  2  0
  6  1  1  0
  7  8  2  0
  8  9  1  0
 10  9  2  0
 11 10  1  0
 12  7  1  0
 12 11  2  0
 13  3  1  0
 13 14  2  0
 15 14  1  0
 16 15  2  0
 17 16  1  0
 17 13  1  0
 18 16  1  0
 19 18  2  0
 20 19  1  0
 21 20  2  0
 21 22  1  0
 22 27  2  0
 23 22  1  0
 23 24  2  0
 24 25  1  0
 25 26  2  0
 27 18  1  0
 27 26  1  0
  2 28  1  0
  5 29  1  0
  8 30  1  0
  9 31  1  0
 10 32  1  0
 11 33  1  0
 12 34  1  0
 14 35  1  0
 15 36  1  0
 20 37  1  0
 23 38  1  0
 24 39  1  0
 25 40  1  0
 26 41  1  0
M  END
>  <Score>  (1) 
-8.20008

$$$$
