
     RDKit          3D

 36 39  0  0  0  0  0  0  0  0999 V2000
   40.9330   66.1760   63.4600 C   0  0  0  0  0  0  0  0  0  0  0  0
   41.1160   67.5560   63.4030 C   0  0  0  0  0  0  0  0  0  0  0  0
   41.6950   68.1610   62.3050 C   0  0  0  0  0  0  0  0  0  0  0  0
   42.0800   67.3640   61.2850 N   0  0  0  0  0  0  0  0  0  0  0  0
   41.9000   66.0250   61.3470 C   0  0  0  0  0  0  0  0  0  0  0  0
   41.3300   65.4410   62.4270 N   0  0  0  0  0  0  0  0  0  0  0  0
   40.3340   65.5180   64.5960 C   0  0  0  0  0  0  0  0  0  0  0  0
   40.3480   66.1590   65.7980 C   0  0  0  0  0  0  0  0  0  0  0  0
   39.7790   65.5640   66.9380 C   0  0  0  0  0  0  0  0  0  0  0  0
   39.1930   64.3160   66.8660 C   0  0  0  0  0  0  0  0  0  0  0  0
   39.1770   63.6620   65.6510 C   0  0  0  0  0  0  0  0  0  0  0  0
   39.7340   64.2540   64.5550 C   0  0  0  0  0  0  0  0  0  0  0  0
   41.8870   69.5790   62.2510 C   0  0  0  0  0  0  0  0  0  0  0  0
   41.6710   70.4660   63.2980 C   0  0  0  0  0  0  0  0  0  0  0  0
   41.9770   71.7370   62.8180 C   0  0  0  0  0  0  0  0  0  0  0  0
   42.3580   71.5350   61.5100 C   0  0  0  0  0  0  0  0  0  0  0  0
   42.2950   70.2540   61.2080 O   0  0  0  0  0  0  0  0  0  0  0  0
   42.7750   72.5940   60.5910 C   0  0  0  0  0  0  0  0  0  0  0  0
   41.9630   73.0340   59.5850 C   0  0  0  0  0  0  0  0  0  0  0  0
   42.4160   74.0360   58.7500 C   0  0  0  0  0  0  0  0  0  0  0  0
   43.6580   74.6130   58.8940 C   0  0  0  0  0  0  0  0  0  0  0  0
   44.4520   74.1430   59.9220 C   0  0  0  0  0  0  0  0  0  0  0  0
   43.9860   73.1700   60.7140 N   0  0  0  0  0  0  0  0  0  0  0  0
   40.7922   68.1771   64.2511 H   0  0  0  0  0  0  0  0  0  0  0  0
   42.2232   65.3980   60.5030 H   0  0  0  0  0  0  0  0  0  0  0  0
   40.8100   67.1541   65.8778 H   0  0  0  0  0  0  0  0  0  0  0  0
   39.8011   66.0993   67.8987 H   0  0  0  0  0  0  0  0  0  0  0  0
   38.7480   63.8525   67.7588 H   0  0  0  0  0  0  0  0  0  0  0  0
   38.7167   62.6666   65.5663 H   0  0  0  0  0  0  0  0  0  0  0  0
   39.7105   63.7141   63.5969 H   0  0  0  0  0  0  0  0  0  0  0  0
   41.3249   70.2132   64.3111 H   0  0  0  0  0  0  0  0  0  0  0  0
   41.9257   72.6911   63.3630 H   0  0  0  0  0  0  0  0  0  0  0  0
   40.9637   72.5970   59.4421 H   0  0  0  0  0  0  0  0  0  0  0  0
   41.7602   74.3865   57.9394 H   0  0  0  0  0  0  0  0  0  0  0  0
   44.0023   75.4120   58.2209 H   0  0  0  0  0  0  0  0  0  0  0  0
   45.4550   74.5633   60.0876 H   0  0  0  0  0  0  0  0  0  0  0  0
  1  7  1  0
  2  1  2  0
  3  2  1  0
  4  5  1  0
  4  3  2  0
  5  6  2  0
  6  1  1  0
  7  8  2  0
  8  9  1  0
 10  9  2  0
 11 10  1  0
 12  7  1  0
 12 11  2  0
 13  3  1  0
 13 14  2  0
 15 14  1  0
 16 15  2  0
 17 16  1  0
 17 13  1  0
 18 23  1  0
 18 16  1  0
 19 18  2  0
 20 21  2  0
 20 19  1  0
 21 22  1  0
 22 23  2  0
  2 24  1  0
  5 25  1  0
  8 26  1  0
  9 27  1  0
 10 28  1  0
 11 29  1  0
 12 30  1  0
 14 31  1  0
 15 32  1  0
 19 33  1  0
 20 34  1  0
 21 35  1  0
 22 36  1  0
M  END
>  <Score>  (1) 
-7.48767

$$$$
