
     RDKit          3D

 43 47  0  0  1  0  0  0  0  0999 V2000
   41.5900   67.9750   60.8830 C   0  0  0  0  0  0  0  0  0  0  0  0
   41.4470   66.8740   60.0610 C   0  0  0  0  0  0  0  0  0  0  0  0
   41.4820   67.4100   58.7930 C   0  0  0  0  0  0  0  0  0  0  0  0
   41.6350   68.7440   58.8160 N   0  0  0  0  0  0  0  0  0  0  0  0
   41.6960   69.0440   60.0940 N   0  0  0  0  0  0  0  0  0  0  0  0
   41.4270   69.4350   54.2050 N   0  0  0  0  0  0  0  0  0  0  0  0
   41.2180   68.1330   54.5250 C   0  0  0  0  0  0  0  0  0  0  0  0
   41.2910   68.0120   55.8640 N   0  0  0  0  0  0  0  0  0  0  0  0
   41.5440   69.1950   56.4300 C   0  0  0  0  0  0  0  0  0  0  0  0
   41.7150   69.6290   57.7360 C   0  0  1  0  0  0  0  0  0  0  0  0
   41.9620   70.9310   57.9300 N   0  0  0  0  0  0  0  0  0  0  0  0
   42.0430   71.7990   56.8990 C   0  0  0  0  0  0  0  0  0  0  0  0
   41.8740   71.3690   55.6180 N   0  0  0  0  0  0  0  0  0  0  0  0
   41.6210   70.0590   55.3620 C   0  0  0  0  0  0  0  0  0  0  0  0
   42.3150   73.2490   57.0700 C   0  0  0  0  0  0  0  0  0  0  0  0
   41.0430   66.9460   64.3500 C   0  0  0  0  0  0  0  0  0  0  0  0
   41.7140   67.9730   65.0110 C   0  0  0  0  0  0  0  0  0  0  0  0
   42.3430   68.9990   64.3410 C   0  0  0  0  0  0  0  0  0  0  0  0
   42.2780   68.9630   62.9920 N   0  0  0  0  0  0  0  0  0  0  0  0
   41.6210   67.9590   62.3500 C   0  0  0  0  0  0  0  0  0  0  0  0
   40.9990   66.9460   62.9900 N   0  0  0  0  0  0  0  0  0  0  0  0
   40.3850   65.8680   65.0350 C   0  0  0  0  0  0  0  0  0  0  0  0
   40.2260   66.0000   66.4100 C   0  0  0  0  0  0  0  0  0  0  0  0
   39.6020   65.0020   67.1720 C   0  0  0  0  0  0  0  0  0  0  0  0
   39.1440   63.8690   66.5010 C   0  0  0  0  0  0  0  0  0  0  0  0
   39.2950   63.7170   65.1130 C   0  0  0  0  0  0  0  0  0  0  0  0
   39.9080   64.7120   64.4100 C   0  0  0  0  0  0  0  0  0  0  0  0
   41.3323   65.8190   60.3507 H   0  0  0  0  0  0  0  0  0  0  0  0
   41.3950   66.8162   57.8711 H   0  0  0  0  0  0  0  0  0  0  0  0
   41.4338   69.8520   53.2632 H   0  0  0  0  0  0  0  0  0  0  0  0
   41.0227   67.3173   53.8134 H   0  0  0  0  0  0  0  0  0  0  0  0
   42.7951   69.4356   57.6588 H   0  0  0  0  0  0  0  0  0  0  0  0
   41.9383   72.0402   54.8394 H   0  0  0  0  0  0  0  0  0  0  0  0
   42.3601   73.4896   58.1424 H   0  0  0  0  0  0  0  0  0  0  0  0
   43.2759   73.5001   56.5971 H   0  0  0  0  0  0  0  0  0  0  0  0
   41.5104   73.8313   56.5971 H   0  0  0  0  0  0  0  0  0  0  0  0
   41.7424   67.9640   66.1106 H   0  0  0  0  0  0  0  0  0  0  0  0
   42.8695   69.8037   64.8751 H   0  0  0  0  0  0  0  0  0  0  0  0
   40.5975   66.9064   66.9105 H   0  0  0  0  0  0  0  0  0  0  0  0
   39.4783   65.1091   68.2598 H   0  0  0  0  0  0  0  0  0  0  0  0
   38.6502   63.0712   67.0752 H   0  0  0  0  0  0  0  0  0  0  0  0
   38.9266   62.8144   64.6036 H   0  0  0  0  0  0  0  0  0  0  0  0
   40.0304   64.6020   63.3224 H   0  0  0  0  0  0  0  0  0  0  0  0
  1 20  1  0
  2  1  1  0
  3  4  1  0
  3  2  2  0
  4  5  1  0
  5  1  2  0
  6  7  1  0
  6 14  1  0
  7  8  2  0
  8  9  1  0
  9 10  1  0
 10 11  1  0
 10  4  1  0
 12 15  1  0
 12 11  2  0
 13 12  1  0
 14 13  1  0
 14  9  2  0
 16 17  2  0
 16 22  1  0
 18 17  1  0
 19 18  2  0
 20 21  2  0
 20 19  1  0
 21 16  1  0
 22 23  2  0
 23 24  1  0
 25 24  2  0
 26 25  1  0
 27 22  1  0
 27 26  2  0
  2 28  1  0
  3 29  1  0
  6 30  1  0
  7 31  1  0
 10 32  1  6
 13 33  1  0
 15 34  1  0
 15 35  1  0
 15 36  1  0
 17 37  1  0
 18 38  1  0
 23 39  1  0
 24 40  1  0
 25 41  1  0
 26 42  1  0
 27 43  1  0
M  END
>  <Score>  (1) 
-7.26335

$$$$
