
     RDKit          3D

 51 55  0  0  1  0  0  0  0  0999 V2000
   42.5260   70.6330   62.0930 C   0  0  2  0  0  0  0  0  0  0  0  0
   39.7610   64.4590   64.4960 C   0  0  0  0  0  0  0  0  0  0  0  0
   39.3930   65.1160   65.6710 C   0  0  0  0  0  0  0  0  0  0  0  0
   39.8520   66.3990   65.8250 C   0  0  0  0  0  0  0  0  0  0  0  0
   40.6180   66.9250   64.8380 N   0  0  0  0  0  0  0  0  0  0  0  0
   40.9630   66.2590   63.6980 C   0  0  0  0  0  0  0  0  0  0  0  0
   40.5300   65.0140   63.5260 N   0  0  0  0  0  0  0  0  0  0  0  0
   41.7720   67.0560   62.8830 N   0  0  0  0  0  0  0  0  0  0  0  0
   41.6540   68.4020   62.8350 C   0  0  0  0  0  0  0  0  0  0  0  0
   42.5530   69.1220   62.0230 C   0  0  0  0  0  0  0  0  0  0  0  0
   43.4920   68.4110   61.3260 C   0  0  0  0  0  0  0  0  0  0  0  0
   44.3560   69.1650   60.4800 N   0  0  0  0  0  0  0  0  0  0  0  0
   43.5730   67.0700   61.4020 N   0  0  0  0  0  0  0  0  0  0  0  0
   42.7030   66.3550   62.1920 C   0  0  0  0  0  0  0  0  0  0  0  0
   42.8130   65.1170   62.2350 O   0  0  0  0  0  0  0  0  0  0  0  0
   41.6190   71.1580   63.0900 C   0  0  0  0  0  0  0  0  0  0  0  0
   41.9490   71.0140   60.6260 C   0  0  0  0  0  0  0  0  0  0  0  0
   42.5680   72.2640   60.3000 N   0  0  0  0  0  0  0  0  0  0  0  0
   43.9000   72.4270   60.2680 N   0  0  0  0  0  0  0  0  0  0  0  0
   44.2270   73.6820   59.9470 C   0  0  0  0  0  0  0  0  0  0  0  0
   43.0760   74.3870   59.7580 C   0  0  0  0  0  0  0  0  0  0  0  0
   42.0810   73.4690   59.9870 C   0  0  0  0  0  0  0  0  0  0  0  0
   40.6500   73.7440   59.8950 C   0  0  0  0  0  0  0  0  0  0  0  0
   40.0660   74.1030   61.0750 N   0  0  0  0  0  0  0  0  0  0  0  0
   38.7560   74.3900   61.1740 C   0  0  0  0  0  0  0  0  0  0  0  0
   37.9190   74.3420   60.1060 N   0  0  0  0  0  0  0  0  0  0  0  0
   38.4620   73.9890   58.9280 C   0  0  0  0  0  0  0  0  0  0  0  0
   37.7400   73.8880   57.7540 C   0  0  0  0  0  0  0  0  0  0  0  0
   38.3020   73.5200   56.5490 C   0  0  0  0  0  0  0  0  0  0  0  0
   39.6680   73.2280   56.4830 C   0  0  0  0  0  0  0  0  0  0  0  0
   40.4120   73.3210   57.6390 C   0  0  0  0  0  0  0  0  0  0  0  0
   39.7960   73.6950   58.8130 C   0  0  0  0  0  0  0  0  0  0  0  0
   43.5114   71.0424   62.3601 H   0  0  0  0  0  0  0  0  0  0  0  0
   39.4059   63.4285   64.3474 H   0  0  0  0  0  0  0  0  0  0  0  0
   38.7672   64.6299   66.4340 H   0  0  0  0  0  0  0  0  0  0  0  0
   39.6058   66.9843   66.7232 H   0  0  0  0  0  0  0  0  0  0  0  0
   40.8767   68.9215   63.4146 H   0  0  0  0  0  0  0  0  0  0  0  0
   44.2722   70.1908   60.4412 H   0  0  0  0  0  0  0  0  0  0  0  0
   45.0643   68.6841   59.9073 H   0  0  0  0  0  0  0  0  0  0  0  0
   42.0077   70.9330   64.0941 H   0  0  0  0  0  0  0  0  0  0  0  0
   41.5297   72.2475   62.9670 H   0  0  0  0  0  0  0  0  0  0  0  0
   40.6298   70.6928   62.9670 H   0  0  0  0  0  0  0  0  0  0  0  0
   42.2224   70.2432   59.8904 H   0  0  0  0  0  0  0  0  0  0  0  0
   40.8511   71.0808   60.6173 H   0  0  0  0  0  0  0  0  0  0  0  0
   45.2488   74.0779   59.8517 H   0  0  0  0  0  0  0  0  0  0  0  0
   42.9689   75.4472   59.4849 H   0  0  0  0  0  0  0  0  0  0  0  0
   38.3479   74.6738   62.1553 H   0  0  0  0  0  0  0  0  0  0  0  0
   36.6635   74.1122   57.7817 H   0  0  0  0  0  0  0  0  0  0  0  0
   37.6788   73.4566   55.6448 H   0  0  0  0  0  0  0  0  0  0  0  0
   40.1364   72.9317   55.5328 H   0  0  0  0  0  0  0  0  0  0  0  0
   41.4891   73.0984   57.6245 H   0  0  0  0  0  0  0  0  0  0  0  0
  1 16  1  0
  2  3  2  0
  3  4  1  0
  5  4  2  0
  6  5  1  0
  7  6  2  0
  7  2  1  0
  8  6  1  0
  9  8  1  0
 10  1  1  0
 10  9  2  0
 11 13  2  0
 11 10  1  0
 12 11  1  0
 13 14  1  0
 14 15  2  0
 14  8  1  0
 17  1  1  0
 18 17  1  0
 19 18  1  0
 20 19  2  0
 21 20  1  0
 21 22  2  0
 22 18  1  0
 23 22  1  0
 23 24  2  0
 24 25  1  0
 26 25  2  0
 27 26  1  0
 28 27  2  0
 29 28  1  0
 30 29  2  0
 30 31  1  0
 31 32  2  0
 32 27  1  0
 32 23  1  0
  1 33  1  1
  2 34  1  0
  3 35  1  0
  4 36  1  0
  9 37  1  0
 12 38  1  0
 12 39  1  0
 16 40  1  0
 16 41  1  0
 16 42  1  0
 17 43  1  0
 17 44  1  0
 20 45  1  0
 21 46  1  0
 25 47  1  0
 28 48  1  0
 29 49  1  0
 30 50  1  0
 31 51  1  0
M  END
>  <Score>  (1) 
-8.20377

$$$$
