
     RDKit          3D

 46 50  0  0  0  0  0  0  0  0999 V2000
   39.9770   65.5070   63.7270 C   0  0  0  0  0  0  0  0  0  0  0  0
   39.5970   65.8550   65.0610 C   0  0  0  0  0  0  0  0  0  0  0  0
   40.0340   67.1030   65.5450 C   0  0  0  0  0  0  0  0  0  0  0  0
   40.7810   67.8930   64.7250 N   0  0  0  0  0  0  0  0  0  0  0  0
   41.1190   67.5290   63.4720 C   0  0  0  0  0  0  0  0  0  0  0  0
   40.7240   66.3450   62.9670 N   0  0  0  0  0  0  0  0  0  0  0  0
   41.8990   68.3470   62.6100 N   0  0  0  0  0  0  0  0  0  0  0  0
   41.8240   69.6830   62.5250 C   0  0  0  0  0  0  0  0  0  0  0  0
   42.6420   70.3890   61.6460 C   0  0  0  0  0  0  0  0  0  0  0  0
   43.5440   69.6960   60.8470 C   0  0  0  0  0  0  0  0  0  0  0  0
   44.3160   70.2610   60.0280 O   0  0  0  0  0  0  0  0  0  0  0  0
   43.6000   68.3350   60.9520 N   0  0  0  0  0  0  0  0  0  0  0  0
   42.7840   67.7120   61.8220 C   0  0  0  0  0  0  0  0  0  0  0  0
   42.9110   66.4600   61.8490 O   0  0  0  0  0  0  0  0  0  0  0  0
   44.5340   67.6330   60.1260 C   0  0  0  0  0  0  0  0  0  0  0  0
   44.2690   67.1460   58.8610 C   0  0  0  0  0  0  0  0  0  0  0  0
   45.2680   66.4820   58.1660 C   0  0  0  0  0  0  0  0  0  0  0  0
   46.5260   66.2940   58.7090 C   0  0  0  0  0  0  0  0  0  0  0  0
   46.7900   66.7810   59.9700 C   0  0  0  0  0  0  0  0  0  0  0  0
   45.7990   67.4500   60.6840 C   0  0  0  0  0  0  0  0  0  0  0  0
   42.5670   71.8430   61.5660 C   0  0  0  0  0  0  0  0  0  0  0  0
   41.3260   72.3840   61.0840 N   0  0  0  0  0  0  0  0  0  0  0  0
   40.3620   72.9080   61.8920 C   0  0  0  0  0  0  0  0  0  0  0  0
   39.3040   73.3350   61.1470 N   0  0  0  0  0  0  0  0  0  0  0  0
   39.6280   73.0690   59.8800 C   0  0  0  0  0  0  0  0  0  0  0  0
   39.0360   73.2340   58.6430 C   0  0  0  0  0  0  0  0  0  0  0  0
   39.6290   72.8520   57.4840 N   0  0  0  0  0  0  0  0  0  0  0  0
   40.8600   72.2790   57.5070 C   0  0  0  0  0  0  0  0  0  0  0  0
   41.5000   72.0850   58.6740 N   0  0  0  0  0  0  0  0  0  0  0  0
   40.8760   72.4770   59.7970 C   0  0  0  0  0  0  0  0  0  0  0  0
   37.7440   73.8300   58.5670 N   0  0  0  0  0  0  0  0  0  0  0  0
   39.6571   64.5409   63.3096 H   0  0  0  0  0  0  0  0  0  0  0  0
   38.9907   65.1783   65.6810 H   0  0  0  0  0  0  0  0  0  0  0  0
   39.7777   67.4325   66.5627 H   0  0  0  0  0  0  0  0  0  0  0  0
   41.1077   70.2282   63.1572 H   0  0  0  0  0  0  0  0  0  0  0  0
   43.2754   67.2836   58.4096 H   0  0  0  0  0  0  0  0  0  0  0  0
   45.0550   66.0954   57.1585 H   0  0  0  0  0  0  0  0  0  0  0  0
   47.3047   65.7630   58.1418 H   0  0  0  0  0  0  0  0  0  0  0  0
   47.7865   66.6411   60.4144 H   0  0  0  0  0  0  0  0  0  0  0  0
   46.0147   67.8354   61.6915 H   0  0  0  0  0  0  0  0  0  0  0  0
   42.7400   72.2450   62.5752 H   0  0  0  0  0  0  0  0  0  0  0  0
   43.3265   72.1390   60.8274 H   0  0  0  0  0  0  0  0  0  0  0  0
   40.4283   72.9764   62.9879 H   0  0  0  0  0  0  0  0  0  0  0  0
   41.3370   71.9714   56.5647 H   0  0  0  0  0  0  0  0  0  0  0  0
   37.2897   73.9597   57.6517 H   0  0  0  0  0  0  0  0  0  0  0  0
   37.2644   74.1312   59.4273 H   0  0  0  0  0  0  0  0  0  0  0  0
  1  2  2  0
  2  3  1  0
  4  3  2  0
  5  4  1  0
  6  5  2  0
  6  1  1  0
  7  5  1  0
  8  7  1  0
  9  8  2  0
 10 12  1  0
 10  9  1  0
 11 10  2  0
 12 13  1  0
 13 14  2  0
 13  7  1  0
 15 20  1  0
 15 12  1  0
 16 15  2  0
 17 18  2  0
 17 16  1  0
 18 19  1  0
 19 20  2  0
 21  9  1  0
 22 21  1  0
 22 23  1  0
 24 23  2  0
 25 24  1  0
 26 25  2  0
 27 28  2  0
 27 26  1  0
 28 29  1  0
 29 30  2  0
 30 25  1  0
 30 22  1  0
 31 26  1  0
  1 32  1  0
  2 33  1  0
  3 34  1  0
  8 35  1  0
 16 36  1  0
 17 37  1  0
 18 38  1  0
 19 39  1  0
 20 40  1  0
 21 41  1  0
 21 42  1  0
 23 43  1  0
 28 44  1  0
 31 45  1  0
 31 46  1  0
M  END
>  <Score>  (1) 
-7.15152

$$$$
