
     RDKit          3D

 45 50  0  0  1  0  0  0  0  0999 V2000
   42.5950   69.1370   58.7650 C   0  0  1  0  0  0  0  0  0  0  0  0
   41.4530   69.9190   59.2840 C   0  0  0  0  0  0  0  0  0  0  0  0
   41.7220   68.5210   59.8160 C   0  0  2  0  0  0  0  0  0  0  0  0
   42.0980   68.3610   61.1750 N   0  0  0  0  0  0  0  0  0  0  0  0
   43.2050   68.9730   61.6730 C   0  0  0  0  0  0  0  0  0  0  0  0
   43.6060   68.8520   62.9670 C   0  0  0  0  0  0  0  0  0  0  0  0
   42.9030   68.0940   63.8500 C   0  0  0  0  0  0  0  0  0  0  0  0
   43.2700   67.9850   65.0270 O   0  0  0  0  0  0  0  0  0  0  0  0
   41.8090   67.4930   63.3450 N   0  0  0  0  0  0  0  0  0  0  0  0
   41.4450   67.6340   62.0680 C   0  0  0  0  0  0  0  0  0  0  0  0
   40.3990   67.0140   61.7380 O   0  0  0  0  0  0  0  0  0  0  0  0
   41.0370   66.6810   64.2560 C   0  0  0  0  0  0  0  0  0  0  0  0
   40.5080   65.4330   63.9880 C   0  0  0  0  0  0  0  0  0  0  0  0
   39.8450   64.9920   65.0990 C   0  0  0  0  0  0  0  0  0  0  0  0
   39.9750   65.9710   66.0340 N   0  0  0  0  0  0  0  0  0  0  0  0
   40.6760   66.9670   65.5410 N   0  0  0  0  0  0  0  0  0  0  0  0
   41.4850   68.7090   56.5730 C   0  0  0  0  0  0  0  0  0  0  0  0
   42.6310   68.6220   57.3850 C   0  0  0  0  0  0  0  0  0  0  0  0
   43.8030   68.0350   56.8260 C   0  0  0  0  0  0  0  0  0  0  0  0
   43.7430   67.5970   55.5460 N   0  0  0  0  0  0  0  0  0  0  0  0
   42.6080   67.6990   54.7890 C   0  0  0  0  0  0  0  0  0  0  0  0
   41.4760   68.2570   55.3060 N   0  0  0  0  0  0  0  0  0  0  0  0
   42.5850   67.2230   53.4380 N   0  0  0  0  0  0  0  0  0  0  0  0
   43.5790   66.6900   52.7050 C   0  0  0  0  0  0  0  0  0  0  0  0
   43.0730   66.3960   51.4960 N   0  0  0  0  0  0  0  0  0  0  0  0
   41.7570   66.7320   51.4290 C   0  0  0  0  0  0  0  0  0  0  0  0
   40.8460   66.6110   50.3930 C   0  0  0  0  0  0  0  0  0  0  0  0
   39.5840   67.0540   50.6670 N   0  0  0  0  0  0  0  0  0  0  0  0
   39.2640   67.5700   51.8670 C   0  0  0  0  0  0  0  0  0  0  0  0
   40.1910   67.6590   52.8260 N   0  0  0  0  0  0  0  0  0  0  0  0
   41.4680   67.2550   52.6710 C   0  0  0  0  0  0  0  0  0  0  0  0
   43.6748   69.3249   58.6711 H   0  0  0  0  0  0  0  0  0  0  0  0
   41.6320   70.7952   59.9245 H   0  0  0  0  0  0  0  0  0  0  0  0
   40.5879   70.4263   58.8320 H   0  0  0  0  0  0  0  0  0  0  0  0
   41.1928   67.5595   59.8899 H   0  0  0  0  0  0  0  0  0  0  0  0
   43.8064   69.5972   60.9957 H   0  0  0  0  0  0  0  0  0  0  0  0
   44.5128   69.3754   63.3042 H   0  0  0  0  0  0  0  0  0  0  0  0
   40.6044   64.8856   63.0388 H   0  0  0  0  0  0  0  0  0  0  0  0
   39.3127   64.0363   65.2139 H   0  0  0  0  0  0  0  0  0  0  0  0
   39.5828   65.9368   66.9858 H   0  0  0  0  0  0  0  0  0  0  0  0
   40.5704   69.1595   56.9861 H   0  0  0  0  0  0  0  0  0  0  0  0
   44.7270   67.9407   57.4154 H   0  0  0  0  0  0  0  0  0  0  0  0
   44.6153   66.5253   53.0349 H   0  0  0  0  0  0  0  0  0  0  0  0
   41.1205   66.1868   49.4159 H   0  0  0  0  0  0  0  0  0  0  0  0
   38.2388   67.9190   52.0595 H   0  0  0  0  0  0  0  0  0  0  0  0
  1  2  1  0
  1  3  1  0
  2  3  1  0
  3  4  1  0
  4  5  1  0
  4 10  1  0
  5  6  2  0
  6  7  1  0
  7  8  2  0
  9  7  1  0
  9 12  1  0
 10  9  1  0
 11 10  2  0
 12 16  2  0
 13 12  1  0
 13 14  2  0
 14 15  1  0
 16 15  1  0
 17 18  2  0
 18  1  1  0
 19 18  1  0
 20 19  2  0
 21 22  2  0
 21 20  1  0
 22 17  1  0
 23 21  1  0
 24 23  1  0
 25 24  2  0
 26 25  1  0
 26 31  2  0
 27 28  2  0
 27 26  1  0
 28 29  1  0
 29 30  2  0
 31 30  1  0
 31 23  1  0
  1 32  1  1
  2 33  1  0
  2 34  1  0
  3 35  1  6
  5 36  1  0
  6 37  1  0
 13 38  1  0
 14 39  1  0
 15 40  1  0
 17 41  1  0
 19 42  1  0
 24 43  1  0
 27 44  1  0
 29 45  1  0
M  END
>  <Score>  (1) 
-7.10121

$$$$
