
     RDKit          3D

 50 53  0  0  1  0  0  0  0  0999 V2000
   39.8610   65.8290   64.2270 C   0  0  1  0  0  0  0  0  0  0  0  0
   39.6960   64.4350   64.7670 C   0  0  0  0  0  0  0  0  0  0  0  0
   39.2280   64.7160   66.1810 C   0  0  0  0  0  0  0  0  0  0  0  0
   40.3290   65.6910   66.5870 C   0  0  0  0  0  0  0  0  0  0  0  0
   40.5250   66.5530   65.3810 C   0  0  1  0  0  0  0  0  0  0  0  0
   41.8990   66.9210   65.1670 N   0  0  0  0  0  0  0  0  0  0  0  0
   42.1540   68.2730   64.7570 C   0  0  0  0  0  0  0  0  0  0  0  0
   41.2720   69.1740   65.0890 N   0  0  0  0  0  0  0  0  0  0  0  0
   43.3390   68.6170   64.0090 N   0  0  0  0  0  0  0  0  0  0  0  0
   41.4670   70.1470   64.7650 H   0  0  0  0  0  0  0  0  0  0  0  0
   42.2630   65.4380   61.6020 C   0  0  0  0  0  0  0  0  0  0  0  0
   41.3850   66.3650   61.0130 C   0  0  0  0  0  0  0  0  0  0  0  0
   40.3860   66.6050   61.9520 C   0  0  0  0  0  0  0  0  0  0  0  0
   40.6710   65.8580   63.0240 N   0  0  0  0  0  0  0  0  0  0  0  0
   41.7750   65.1640   62.8340 N   0  0  0  0  0  0  0  0  0  0  0  0
   45.6950   65.1160   60.3560 C   0  0  0  0  0  0  0  0  0  0  0  0
   45.5320   64.0330   59.4690 C   0  0  0  0  0  0  0  0  0  0  0  0
   44.3110   63.4170   59.2820 C   0  0  0  0  0  0  0  0  0  0  0  0
   43.2930   63.9170   60.0020 N   0  0  0  0  0  0  0  0  0  0  0  0
   43.4410   64.9670   60.8650 C   0  0  0  0  0  0  0  0  0  0  0  0
   44.6280   65.5480   61.0310 N   0  0  0  0  0  0  0  0  0  0  0  0
   44.1440   62.2760   58.3460 C   0  0  0  0  0  0  0  0  0  0  0  0
   43.0420   61.3410   58.6820 C   0  0  0  0  0  0  0  0  0  0  0  0
   43.6080   60.2030   59.4530 C   0  0  0  0  0  0  0  0  0  0  0  0
   45.1070   60.2590   59.2520 C   0  0  0  0  0  0  0  0  0  0  0  0
   45.3600   61.3780   58.2810 C   0  0  0  0  0  0  0  0  0  0  0  0
   38.9114   66.2885   63.9152 H   0  0  0  0  0  0  0  0  0  0  0  0
   38.9427   63.8698   64.1986 H   0  0  0  0  0  0  0  0  0  0  0  0
   40.6056   63.8192   64.7082 H   0  0  0  0  0  0  0  0  0  0  0  0
   38.2316   65.1814   66.2041 H   0  0  0  0  0  0  0  0  0  0  0  0
   39.1030   63.8361   66.8291 H   0  0  0  0  0  0  0  0  0  0  0  0
   40.0148   66.2954   67.4507 H   0  0  0  0  0  0  0  0  0  0  0  0
   41.2533   65.1774   66.8902 H   0  0  0  0  0  0  0  0  0  0  0  0
   40.0494   67.5366   65.5088 H   0  0  0  0  0  0  0  0  0  0  0  0
   42.6648   66.2455   65.3017 H   0  0  0  0  0  0  0  0  0  0  0  0
   44.0205   67.8862   63.7592 H   0  0  0  0  0  0  0  0  0  0  0  0
   43.5033   69.5933   63.7249 H   0  0  0  0  0  0  0  0  0  0  0  0
   41.4705   66.8110   60.0111 H   0  0  0  0  0  0  0  0  0  0  0  0
   39.5258   67.2805   61.8347 H   0  0  0  0  0  0  0  0  0  0  0  0
   46.6772   65.5932   60.4886 H   0  0  0  0  0  0  0  0  0  0  0  0
   46.4049   63.6673   58.9083 H   0  0  0  0  0  0  0  0  0  0  0  0
   43.9429   62.8042   57.4023 H   0  0  0  0  0  0  0  0  0  0  0  0
   42.2862   61.8610   59.2889 H   0  0  0  0  0  0  0  0  0  0  0  0
   42.5659   60.9729   57.7612 H   0  0  0  0  0  0  0  0  0  0  0  0
   43.3625   60.3062   60.5203 H   0  0  0  0  0  0  0  0  0  0  0  0
   43.1939   59.2428   59.1115 H   0  0  0  0  0  0  0  0  0  0  0  0
   45.6123   60.4623   60.2077 H   0  0  0  0  0  0  0  0  0  0  0  0
   45.4957   59.3031   58.8710 H   0  0  0  0  0  0  0  0  0  0  0  0
   45.4855   60.9790   57.2636 H   0  0  0  0  0  0  0  0  0  0  0  0
   46.2785   61.9280   58.5336 H   0  0  0  0  0  0  0  0  0  0  0  0
  1  2  1  0
  1  5  1  0
  2  3  1  0
  3  4  1  0
  5  4  1  0
  6  5  1  0
  7  8  2  0
  7  6  1  0
  9  7  1  0
 10  8  1  0
 11 15  2  0
 12 11  1  0
 12 13  2  0
 13 14  1  0
 14  1  1  0
 15 14  1  0
 16 21  2  0
 17 16  1  0
 18 17  2  0
 18 19  1  0
 19 20  2  0
 20 21  1  0
 20 11  1  0
 22 23  1  0
 22 18  1  0
 23 24  1  0
 25 24  1  0
 26 22  1  0
 26 25  1  0
  1 27  1  6
  2 28  1  0
  2 29  1  0
  3 30  1  0
  3 31  1  0
  4 32  1  0
  4 33  1  0
  5 34  1  1
  6 35  1  0
  9 36  1  0
  9 37  1  0
 12 38  1  0
 13 39  1  0
 16 40  1  0
 17 41  1  0
 22 42  1  0
 23 43  1  0
 23 44  1  0
 24 45  1  0
 24 46  1  0
 25 47  1  0
 25 48  1  0
 26 49  1  0
 26 50  1  0
M  END
>  <Score>  (1) 
-7.35983

$$$$
