
     RDKit          3D

 46 50  0  0  1  0  0  0  0  0999 V2000
   39.8090   64.2550   65.0580 C   0  0  0  0  0  0  0  0  0  0  0  0
   39.9410   65.1120   66.1990 C   0  0  0  0  0  0  0  0  0  0  0  0
   40.4790   66.3830   65.9980 C   0  0  0  0  0  0  0  0  0  0  0  0
   40.8450   66.7320   64.7340 N   0  0  0  0  0  0  0  0  0  0  0  0
   40.7020   65.8920   63.6940 C   0  0  0  0  0  0  0  0  0  0  0  0
   40.1960   64.6790   63.8460 N   0  0  0  0  0  0  0  0  0  0  0  0
   41.1000   66.3480   62.4060 N   0  0  0  0  0  0  0  0  0  0  0  0
   41.3250   65.7880   61.2070 C   0  0  0  0  0  0  0  0  0  0  0  0
   41.6710   66.7000   60.3120 N   0  0  0  0  0  0  0  0  0  0  0  0
   41.6710   67.8960   60.9520 C   0  0  0  0  0  0  0  0  0  0  0  0
   41.9490   69.1660   60.5210 C   0  0  0  0  0  0  0  0  0  0  0  0
   42.2710   69.3070   59.3090 O   0  0  0  0  0  0  0  0  0  0  0  0
   41.8950   70.2540   61.3240 N   0  0  0  0  0  0  0  0  0  0  0  0
   41.5570   70.0040   62.5640 C   0  0  0  0  0  0  0  0  0  0  0  0
   41.5420   71.0760   63.5210 N   0  0  0  0  0  0  0  0  0  0  0  0
   41.2750   68.8030   63.0450 N   0  0  0  0  0  0  0  0  0  0  0  0
   41.3120   67.6920   62.2820 C   0  0  0  0  0  0  0  0  0  0  0  0
   42.1360   73.1180   58.4040 N   0  0  0  0  0  0  0  0  0  0  0  0
   40.9340   73.0760   59.1520 C   0  0  0  0  0  0  0  0  0  0  0  0
   40.8910   72.2590   60.3460 C   0  0  0  0  0  0  0  0  0  0  0  0
   42.1640   71.6170   60.8620 C   0  0  2  0  0  0  0  0  0  0  0  0
   43.3050   71.6760   59.9030 C   0  0  0  0  0  0  0  0  0  0  0  0
   43.2940   73.0560   59.2340 C   0  0  1  0  0  0  0  0  0  0  0  0
   44.4820   73.1770   58.4480 C   0  0  0  0  0  0  0  0  0  0  0  0
   45.0290   74.2650   57.8400 C   0  0  0  0  0  0  0  0  0  0  0  0
   46.1890   74.1900   57.1200 C   0  0  0  0  0  0  0  0  0  0  0  0
   46.7860   72.8280   57.0660 C   0  0  0  0  0  0  0  0  0  0  0  0
   45.6110   71.8090   58.0580 S   0  0  0  0  0  0  0  0  0  0  0  0
   39.3886   63.2455   65.1768 H   0  0  0  0  0  0  0  0  0  0  0  0
   39.6285   64.7786   67.1996 H   0  0  0  0  0  0  0  0  0  0  0  0
   40.6040   67.0835   66.8369 H   0  0  0  0  0  0  0  0  0  0  0  0
   41.2338   64.7123   60.9958 H   0  0  0  0  0  0  0  0  0  0  0  0
   41.2776   70.8897   64.4989 H   0  0  0  0  0  0  0  0  0  0  0  0
   41.7957   72.0306   63.2290 H   0  0  0  0  0  0  0  0  0  0  0  0
   42.1504   72.3179   57.7555 H   0  0  0  0  0  0  0  0  0  0  0  0
   40.7049   74.1079   59.4564 H   0  0  0  0  0  0  0  0  0  0  0  0
   40.2115   72.5989   58.4735 H   0  0  0  0  0  0  0  0  0  0  0  0
   40.5042   72.8962   61.1550 H   0  0  0  0  0  0  0  0  0  0  0  0
   40.2732   71.3995   60.0467 H   0  0  0  0  0  0  0  0  0  0  0  0
   42.4963   72.2189   61.7207 H   0  0  0  0  0  0  0  0  0  0  0  0
   44.2529   71.5304   60.4418 H   0  0  0  0  0  0  0  0  0  0  0  0
   43.2075   70.8844   59.1455 H   0  0  0  0  0  0  0  0  0  0  0  0
   43.2663   73.8728   59.9703 H   0  0  0  0  0  0  0  0  0  0  0  0
   44.5212   75.2365   57.9308 H   0  0  0  0  0  0  0  0  0  0  0  0
   46.6417   75.0610   56.6237 H   0  0  0  0  0  0  0  0  0  0  0  0
   47.7065   72.5062   56.5570 H   0  0  0  0  0  0  0  0  0  0  0  0
  1  2  2  0
  3  2  1  0
  4  3  2  0
  5  6  2  0
  5  4  1  0
  6  1  1  0
  7  5  1  0
  8  7  1  0
  9 10  1  0
  9  8  2  0
 10 17  2  0
 11 10  1  0
 11 13  1  0
 12 11  2  0
 13 14  1  0
 14 16  2  0
 14 15  1  0
 17  7  1  0
 17 16  1  0
 18 19  1  0
 18 23  1  0
 19 20  1  0
 20 21  1  0
 21 13  1  0
 22 21  1  0
 23 22  1  0
 24 23  1  0
 25 24  2  0
 26 25  1  0
 27 26  2  0
 27 28  1  0
 28 24  1  0
  1 29  1  0
  2 30  1  0
  3 31  1  0
  8 32  1  0
 15 33  1  0
 15 34  1  0
 18 35  1  0
 19 36  1  0
 19 37  1  0
 20 38  1  0
 20 39  1  0
 21 40  1  1
 22 41  1  0
 22 42  1  0
 23 43  1  1
 25 44  1  0
 26 45  1  0
 27 46  1  0
M  END
>  <Score>  (1) 
-7.0712

$$$$
