
     RDKit          3D

 39 42  0  0  0  0  0  0  0  0999 V2000
   41.3860   69.0560   58.6260 C   0  0  0  0  0  0  0  0  0  0  0  0
   41.6640   68.3980   59.8290 C   0  0  0  0  0  0  0  0  0  0  0  0
   41.8860   69.0700   61.0200 C   0  0  0  0  0  0  0  0  0  0  0  0
   41.8000   70.4280   60.8780 N   0  0  0  0  0  0  0  0  0  0  0  0
   41.5360   71.0850   59.7400 C   0  0  0  0  0  0  0  0  0  0  0  0
   41.3350   70.3880   58.6340 N   0  0  0  0  0  0  0  0  0  0  0  0
   42.2160   68.6140   62.3230 C   0  0  0  0  0  0  0  0  0  0  0  0
   43.5780   68.7440   62.6780 C   0  0  0  0  0  0  0  0  0  0  0  0
   44.1020   68.3530   63.8970 C   0  0  0  0  0  0  0  0  0  0  0  0
   43.2460   67.7970   64.8330 C   0  0  0  0  0  0  0  0  0  0  0  0
   41.8990   67.6400   64.5540 C   0  0  0  0  0  0  0  0  0  0  0  0
   41.0540   67.1010   65.4700 C   0  0  0  0  0  0  0  0  0  0  0  0
   39.6970   66.9330   65.2280 C   0  0  0  0  0  0  0  0  0  0  0  0
   39.2610   67.3570   63.9730 C   0  0  0  0  0  0  0  0  0  0  0  0
   40.1500   67.8950   63.0750 C   0  0  0  0  0  0  0  0  0  0  0  0
   41.4780   68.0570   63.3210 C   0  0  0  0  0  0  0  0  0  0  0  0
   41.3330   75.3380   59.6880 C   0  0  0  0  0  0  0  0  0  0  0  0
   42.5190   74.6560   59.5010 C   0  0  0  0  0  0  0  0  0  0  0  0
   42.6160   73.2780   59.5120 C   0  0  0  0  0  0  0  0  0  0  0  0
   41.4730   72.5430   59.7210 C   0  0  0  0  0  0  0  0  0  0  0  0
   40.2710   73.2080   59.9130 C   0  0  0  0  0  0  0  0  0  0  0  0
   40.1610   74.6040   59.9020 C   0  0  0  0  0  0  0  0  0  0  0  0
   41.2160   77.0640   59.6740 S   0  0  0  0  0  0  0  0  0  0  0  0
   40.3660   77.5530   60.8170 O   0  0  0  0  0  0  0  0  0  0  0  0
   42.5660   77.7340   59.8010 O   0  0  0  0  0  0  0  0  0  0  0  0
   41.2142   68.4896   57.6988 H   0  0  0  0  0  0  0  0  0  0  0  0
   41.7082   67.2989   59.8292 H   0  0  0  0  0  0  0  0  0  0  0  0
   44.2640   69.1835   61.9389 H   0  0  0  0  0  0  0  0  0  0  0  0
   45.1721   68.4805   64.1175 H   0  0  0  0  0  0  0  0  0  0  0  0
   43.6405   67.4767   65.8086 H   0  0  0  0  0  0  0  0  0  0  0  0
   41.4604   66.7850   66.4421 H   0  0  0  0  0  0  0  0  0  0  0  0
   39.0149   66.4968   65.9727 H   0  0  0  0  0  0  0  0  0  0  0  0
   38.1996   67.2600   63.7010 H   0  0  0  0  0  0  0  0  0  0  0  0
   39.7641   68.2148   62.0958 H   0  0  0  0  0  0  0  0  0  0  0  0
   43.4354   75.2412   59.3344 H   0  0  0  0  0  0  0  0  0  0  0  0
   43.5848   72.7805   59.3572 H   0  0  0  0  0  0  0  0  0  0  0  0
   39.3624   72.6114   60.0817 H   0  0  0  0  0  0  0  0  0  0  0  0
   39.1929   75.1032   60.0553 H   0  0  0  0  0  0  0  0  0  0  0  0
   40.6548   77.3901   58.4675 H   0  0  0  0  0  0  0  0  0  0  0  0
  1  6  2  0
  1  2  1  0
  2  3  2  0
  3  7  1  0
  4  3  1  0
  5  4  2  0
  6  5  1  0
  7  8  2  0
  7 16  1  0
  8  9  1  0
  9 10  2  0
 11 10  1  0
 11 12  2  0
 13 12  1  0
 14 13  2  0
 15 16  2  0
 15 14  1  0
 16 11  1  0
 17 22  2  0
 18 19  2  0
 18 17  1  0
 19 20  1  0
 20  5  1  0
 20 21  2  0
 22 21  1  0
 23 17  1  0
 23 25  2  0
 23 24  2  0
  1 26  1  0
  2 27  1  0
  8 28  1  0
  9 29  1  0
 10 30  1  0
 12 31  1  0
 13 32  1  0
 14 33  1  0
 15 34  1  0
 18 35  1  0
 19 36  1  0
 21 37  1  0
 22 38  1  0
 23 39  1  0
M  END
>  <Score>  (1) 
-7.17573

$$$$
