
     RDKit          3D

 40 44  0  0  0  0  0  0  0  0999 V2000
   41.5250   66.2880   62.4550 C   0  0  0  0  0  0  0  0  0  0  0  0
   40.8630   67.0510   61.4650 C   0  0  0  0  0  0  0  0  0  0  0  0
   41.2300   66.8250   60.1390 C   0  0  0  0  0  0  0  0  0  0  0  0
   42.1840   65.9050   59.8500 N   0  0  0  0  0  0  0  0  0  0  0  0
   42.8000   65.1890   60.8300 C   0  0  0  0  0  0  0  0  0  0  0  0
   42.4510   65.4040   62.0940 N   0  0  0  0  0  0  0  0  0  0  0  0
   43.7960   64.2370   60.4710 N   0  0  0  0  0  0  0  0  0  0  0  0
   45.1170   64.0340   60.6690 C   0  0  0  0  0  0  0  0  0  0  0  0
   45.4960   62.9080   60.0470 N   0  0  0  0  0  0  0  0  0  0  0  0
   44.4070   62.3950   59.4490 C   0  0  0  0  0  0  0  0  0  0  0  0
   43.3570   63.2160   59.7120 N   0  0  0  0  0  0  0  0  0  0  0  0
   41.1470   66.5190   63.8370 C   0  0  0  0  0  0  0  0  0  0  0  0
   41.4190   67.6620   64.6130 C   0  0  0  0  0  0  0  0  0  0  0  0
   40.8850   67.4520   65.8410 N   0  0  0  0  0  0  0  0  0  0  0  0
   40.2830   66.2270   65.8880 C   0  0  0  0  0  0  0  0  0  0  0  0
   39.6070   65.5480   66.8850 C   0  0  0  0  0  0  0  0  0  0  0  0
   39.0840   64.2870   66.6610 C   0  0  0  0  0  0  0  0  0  0  0  0
   39.2480   63.7030   65.4070 C   0  0  0  0  0  0  0  0  0  0  0  0
   39.9180   64.3660   64.4070 C   0  0  0  0  0  0  0  0  0  0  0  0
   40.4500   65.6510   64.6360 C   0  0  0  0  0  0  0  0  0  0  0  0
   44.2990   61.1680   58.6410 C   0  0  0  0  0  0  0  0  0  0  0  0
   44.5140   61.2000   57.2810 C   0  0  0  0  0  0  0  0  0  0  0  0
   44.3920   60.0000   56.6000 C   0  0  0  0  0  0  0  0  0  0  0  0
   44.0760   58.8680   57.2580 N   0  0  0  0  0  0  0  0  0  0  0  0
   43.8690   58.8470   58.5780 C   0  0  0  0  0  0  0  0  0  0  0  0
   43.9850   60.0070   59.2530 N   0  0  0  0  0  0  0  0  0  0  0  0
   40.0925   67.7902   61.7295 H   0  0  0  0  0  0  0  0  0  0  0  0
   40.7470   67.3914   59.3291 H   0  0  0  0  0  0  0  0  0  0  0  0
   45.6833   64.8852   60.2631 H   0  0  0  0  0  0  0  0  0  0  0  0
   45.3154   63.9411   61.7470 H   0  0  0  0  0  0  0  0  0  0  0  0
   42.3895   63.0801   59.3859 H   0  0  0  0  0  0  0  0  0  0  0  0
   41.9638   68.5591   64.2837 H   0  0  0  0  0  0  0  0  0  0  0  0
   40.9271   68.1191   66.6246 H   0  0  0  0  0  0  0  0  0  0  0  0
   39.4831   66.0179   67.8718 H   0  0  0  0  0  0  0  0  0  0  0  0
   38.5475   63.7543   67.4600 H   0  0  0  0  0  0  0  0  0  0  0  0
   38.8370   62.7009   65.2153 H   0  0  0  0  0  0  0  0  0  0  0  0
   40.0398   63.8912   63.4223 H   0  0  0  0  0  0  0  0  0  0  0  0
   44.7705   62.1343   56.7602 H   0  0  0  0  0  0  0  0  0  0  0  0
   44.5546   59.9713   55.5125 H   0  0  0  0  0  0  0  0  0  0  0  0
   43.6120   57.9119   59.0971 H   0  0  0  0  0  0  0  0  0  0  0  0
  1 12  1  0
  2  1  2  0
  3  2  1  0
  4  3  2  0
  4  5  1  0
  5  6  2  0
  6  1  1  0
  7  8  1  0
  7  5  1  0
  9  8  1  0
 10 11  1  0
 10  9  2  0
 11  7  1  0
 12 13  2  0
 12 20  1  0
 13 14  1  0
 14 15  1  0
 15 16  2  0
 17 16  1  0
 18 17  2  0
 19 20  2  0
 19 18  1  0
 20 15  1  0
 21 26  1  0
 21 10  1  0
 22 21  2  0
 23 24  2  0
 23 22  1  0
 24 25  1  0
 25 26  2  0
  2 27  1  0
  3 28  1  0
  8 29  1  0
  8 30  1  0
 11 31  1  0
 13 32  1  0
 14 33  1  0
 16 34  1  0
 17 35  1  0
 18 36  1  0
 19 37  1  0
 22 38  1  0
 23 39  1  0
 25 40  1  0
M  END
>  <Score>  (1) 
-7.55507

$$$$
