
     RDKit          3D

 46 49  0  0  1  0  0  0  0  0999 V2000
   41.5770   68.1470   63.1840 C   0  0  2  0  0  0  0  0  0  0  0  0
   42.4010   68.7660   64.2730 C   0  0  0  0  0  0  0  0  0  0  0  0
   43.7940   68.6560   63.6310 C   0  0  0  0  0  0  0  0  0  0  0  0
   43.5460   68.6790   62.1300 C   0  0  0  0  0  0  0  0  0  0  0  0
   42.0340   68.9200   61.9910 C   0  0  2  0  0  0  0  0  0  0  0  0
   41.7530   70.3240   62.0130 N   0  0  0  0  0  0  0  0  0  0  0  0
   41.5740   71.1760   63.0380 C   0  0  0  0  0  0  0  0  0  0  0  0
   41.3290   72.4310   62.5730 N   0  0  0  0  0  0  0  0  0  0  0  0
   41.3500   72.3860   61.2080 C   0  0  0  0  0  0  0  0  0  0  0  0
   41.1540   73.4230   60.3220 C   0  0  0  0  0  0  0  0  0  0  0  0
   40.9190   74.5880   60.7550 O   0  0  0  0  0  0  0  0  0  0  0  0
   41.2250   73.1360   59.0100 N   0  0  0  0  0  0  0  0  0  0  0  0
   41.4810   71.8660   58.6560 C   0  0  0  0  0  0  0  0  0  0  0  0
   41.5600   71.5410   57.2560 N   0  0  0  0  0  0  0  0  0  0  0  0
   41.6660   70.8840   59.5540 N   0  0  0  0  0  0  0  0  0  0  0  0
   41.6150   71.0700   60.8850 C   0  0  0  0  0  0  0  0  0  0  0  0
   40.1590   67.9870   63.4300 C   0  0  0  0  0  0  0  0  0  0  0  0
   39.5450   66.6080   63.4040 C   0  0  2  0  0  0  0  0  0  0  0  0
   40.0340   64.0390   66.0010 C   0  0  0  0  0  0  0  0  0  0  0  0
   39.8920   64.8050   67.2180 C   0  0  0  0  0  0  0  0  0  0  0  0
   39.6370   66.1940   67.0840 C   0  0  0  0  0  0  0  0  0  0  0  0
   39.5340   66.7560   65.8320 N   0  0  0  0  0  0  0  0  0  0  0  0
   39.6780   65.9810   64.7450 C   0  0  0  0  0  0  0  0  0  0  0  0
   39.9240   64.6450   64.8090 N   0  0  0  0  0  0  0  0  0  0  0  0
   40.1600   65.7460   62.3420 C   0  0  0  0  0  0  0  0  0  0  0  0
   41.7399   67.0667   63.0559 H   0  0  0  0  0  0  0  0  0  0  0  0
   42.1163   69.8121   64.4588 H   0  0  0  0  0  0  0  0  0  0  0  0
   42.3022   68.2930   65.2612 H   0  0  0  0  0  0  0  0  0  0  0  0
   44.4247   69.5060   63.9306 H   0  0  0  0  0  0  0  0  0  0  0  0
   44.3204   67.7430   63.9462 H   0  0  0  0  0  0  0  0  0  0  0  0
   44.1142   69.4922   61.6548 H   0  0  0  0  0  0  0  0  0  0  0  0
   43.8671   67.7482   61.6396 H   0  0  0  0  0  0  0  0  0  0  0  0
   41.5391   68.6053   61.0604 H   0  0  0  0  0  0  0  0  0  0  0  0
   41.6192   70.8978   64.1013 H   0  0  0  0  0  0  0  0  0  0  0  0
   41.0873   73.8678   58.2984 H   0  0  0  0  0  0  0  0  0  0  0  0
   41.7553   70.5733   56.9622 H   0  0  0  0  0  0  0  0  0  0  0  0
   41.4212   72.2761   56.5480 H   0  0  0  0  0  0  0  0  0  0  0  0
   39.9592   68.4061   64.4272 H   0  0  0  0  0  0  0  0  0  0  0  0
   39.6921   68.4908   62.5708 H   0  0  0  0  0  0  0  0  0  0  0  0
   38.4780   66.7060   63.1552 H   0  0  0  0  0  0  0  0  0  0  0  0
   40.2324   62.9582   66.0519 H   0  0  0  0  0  0  0  0  0  0  0  0
   39.9780   64.3309   68.2069 H   0  0  0  0  0  0  0  0  0  0  0  0
   39.5217   66.8214   67.9801 H   0  0  0  0  0  0  0  0  0  0  0  0
   40.7369   64.9374   62.8146 H   0  0  0  0  0  0  0  0  0  0  0  0
   39.3660   65.3125   61.7162 H   0  0  0  0  0  0  0  0  0  0  0  0
   40.8282   66.3558   61.7162 H   0  0  0  0  0  0  0  0  0  0  0  0
  1 17  1  0
  1  2  1  0
  3  2  1  0
  4  3  1  0
  5  6  1  0
  5  4  1  0
  5  1  1  0
  6  7  1  0
  8  7  2  0
  9  8  1  0
 10 11  2  0
 10  9  1  0
 12 10  1  0
 13 12  1  0
 13 15  2  0
 14 13  1  0
 15 16  1  0
 16  9  2  0
 16  6  1  0
 18 17  1  0
 18 23  1  0
 19 20  2  0
 21 20  1  0
 22 21  2  0
 23 24  2  0
 23 22  1  0
 24 19  1  0
 25 18  1  0
  1 26  1  6
  2 27  1  0
  2 28  1  0
  3 29  1  0
  3 30  1  0
  4 31  1  0
  4 32  1  0
  5 33  1  6
  7 34  1  0
 12 35  1  0
 14 36  1  0
 14 37  1  0
 17 38  1  0
 17 39  1  0
 18 40  1  6
 19 41  1  0
 20 42  1  0
 21 43  1  0
 25 44  1  0
 25 45  1  0
 25 46  1  0
M  END
>  <Score>  (1) 
-7.05114

$$$$
