
     RDKit          3D

 44 48  0  0  0  0  0  0  0  0999 V2000
   41.3470   67.7660   58.4410 C   0  0  0  0  0  0  0  0  0  0  0  0
   41.6640   67.3570   59.7600 C   0  0  0  0  0  0  0  0  0  0  0  0
   41.8660   68.2670   60.7990 C   0  0  0  0  0  0  0  0  0  0  0  0
   41.7250   69.5960   60.4020 N   0  0  0  0  0  0  0  0  0  0  0  0
   41.4210   69.9660   59.1290 C   0  0  0  0  0  0  0  0  0  0  0  0
   41.2390   69.0560   58.1790 N   0  0  0  0  0  0  0  0  0  0  0  0
   42.1990   68.0880   62.1470 C   0  0  0  0  0  0  0  0  0  0  0  0
   43.5520   68.3500   62.4460 C   0  0  0  0  0  0  0  0  0  0  0  0
   44.0840   68.2290   63.7330 C   0  0  0  0  0  0  0  0  0  0  0  0
   43.2560   67.8360   64.7600 C   0  0  0  0  0  0  0  0  0  0  0  0
   41.9130   67.5650   64.5210 C   0  0  0  0  0  0  0  0  0  0  0  0
   41.0630   67.1740   65.5080 C   0  0  0  0  0  0  0  0  0  0  0  0
   39.7460   66.9010   65.3130 C   0  0  0  0  0  0  0  0  0  0  0  0
   39.3200   67.0490   64.0120 C   0  0  0  0  0  0  0  0  0  0  0  0
   40.1720   67.4450   63.0020 C   0  0  0  0  0  0  0  0  0  0  0  0
   41.4740   67.7090   63.2270 C   0  0  0  0  0  0  0  0  0  0  0  0
   41.2990   71.3850   58.8080 C   0  0  0  0  0  0  0  0  0  0  0  0
   40.1120   72.0730   58.7390 C   0  0  0  0  0  0  0  0  0  0  0  0
   40.5010   73.3760   58.4070 C   0  0  0  0  0  0  0  0  0  0  0  0
   41.8930   73.3920   58.2980 C   0  0  0  0  0  0  0  0  0  0  0  0
   42.3050   72.1740   58.5490 O   0  0  0  0  0  0  0  0  0  0  0  0
   39.7220   74.5340   58.1970 N   0  0  0  0  0  0  0  0  0  0  0  0
   38.9390   75.3530   58.9120 C   0  0  0  0  0  0  0  0  0  0  0  0
   38.4480   76.3270   58.1240 N   0  0  0  0  0  0  0  0  0  0  0  0
   38.9400   76.1060   56.8790 C   0  0  0  0  0  0  0  0  0  0  0  0
   39.7170   75.0070   56.9430 N   0  0  0  0  0  0  0  0  0  0  0  0
   42.8040   74.3690   58.0010 O   0  0  0  0  0  0  0  0  0  0  0  0
   42.9410   75.5880   58.6350 C   0  0  0  0  0  0  0  0  0  0  0  0
   42.3070   76.7800   58.1340 N   0  0  0  0  0  0  0  0  0  0  0  0
   43.6850   75.1390   59.5600 O   0  0  0  0  0  0  0  0  0  0  0  0
   41.1931   67.0203   57.6471 H   0  0  0  0  0  0  0  0  0  0  0  0
   41.7543   66.2817   59.9733 H   0  0  0  0  0  0  0  0  0  0  0  0
   44.2190   68.6638   61.6295 H   0  0  0  0  0  0  0  0  0  0  0  0
   45.1461   68.4442   63.9218 H   0  0  0  0  0  0  0  0  0  0  0  0
   43.6599   67.7355   65.7782 H   0  0  0  0  0  0  0  0  0  0  0  0
   41.4661   67.0725   66.5264 H   0  0  0  0  0  0  0  0  0  0  0  0
   39.0758   66.5877   66.1271 H   0  0  0  0  0  0  0  0  0  0  0  0
   38.2665   66.8449   63.7703 H   0  0  0  0  0  0  0  0  0  0  0  0
   39.7761   67.5485   61.9809 H   0  0  0  0  0  0  0  0  0  0  0  0
   39.0944   71.6898   58.9056 H   0  0  0  0  0  0  0  0  0  0  0  0
   38.7283   75.2450   59.9862 H   0  0  0  0  0  0  0  0  0  0  0  0
   38.7413   76.7121   55.9828 H   0  0  0  0  0  0  0  0  0  0  0  0
   42.4281   77.6749   58.6294 H   0  0  0  0  0  0  0  0  0  0  0  0
   41.7324   76.7377   57.2802 H   0  0  0  0  0  0  0  0  0  0  0  0
  1  2  2  0
  2  3  1  0
  3  7  1  0
  4  3  2  0
  5  4  1  0
  6  1  1  0
  6  5  2  0
  7  8  2  0
  7 16  1  0
  8  9  1  0
  9 10  2  0
 11 10  1  0
 11 12  2  0
 13 12  1  0
 14 13  2  0
 15 16  2  0
 15 14  1  0
 16 11  1  0
 17  5  1  0
 18 17  2  0
 19 18  1  0
 20 19  2  0
 20 21  1  0
 21 17  1  0
 22 19  1  0
 22 23  1  0
 24 23  2  0
 25 26  2  0
 25 24  1  0
 26 22  1  0
 27 20  1  0
 27 28  1  0
 28 30  2  0
 29 28  1  0
  1 31  1  0
  2 32  1  0
  8 33  1  0
  9 34  1  0
 10 35  1  0
 12 36  1  0
 13 37  1  0
 14 38  1  0
 15 39  1  0
 18 40  1  0
 23 41  1  0
 25 42  1  0
 29 43  1  0
 29 44  1  0
M  END
>  <Score>  (1) 
-7.36232

$$$$
