
     RDKit          3D

 30 32  0  0  0  0  0  0  0  0999 V2000
   41.0800   66.0540   63.4430 C   0  0  0  0  0  0  0  0  0  0  0  0
   41.1320   67.4510   63.2680 C   0  0  0  0  0  0  0  0  0  0  0  0
   41.7550   67.9530   62.1230 C   0  0  0  0  0  0  0  0  0  0  0  0
   42.2810   67.0590   61.2350 N   0  0  0  0  0  0  0  0  0  0  0  0
   42.2070   65.7390   61.4460 C   0  0  0  0  0  0  0  0  0  0  0  0
   41.6080   65.2060   62.5500 N   0  0  0  0  0  0  0  0  0  0  0  0
   41.7880   69.3670   61.9810 N   0  0  0  0  0  0  0  0  0  0  0  0
   41.9330   69.8620   60.7260 C   0  0  0  0  0  0  0  0  0  0  0  0
   41.9670   71.2290   60.5630 C   0  0  0  0  0  0  0  0  0  0  0  0
   41.8540   72.0850   61.6580 C   0  0  0  0  0  0  0  0  0  0  0  0
   41.8900   73.3300   61.4630 O   0  0  0  0  0  0  0  0  0  0  0  0
   41.7130   71.5250   62.8710 N   0  0  0  0  0  0  0  0  0  0  0  0
   41.6780   70.1860   63.0460 C   0  0  0  0  0  0  0  0  0  0  0  0
   41.5450   69.6500   64.1800 O   0  0  0  0  0  0  0  0  0  0  0  0
   40.4420   65.4750   64.6170 C   0  0  0  0  0  0  0  0  0  0  0  0
   40.5100   66.1650   65.8130 C   0  0  0  0  0  0  0  0  0  0  0  0
   39.9300   65.6830   66.9780 C   0  0  0  0  0  0  0  0  0  0  0  0
   39.2590   64.4910   66.9940 C   0  0  0  0  0  0  0  0  0  0  0  0
   39.1860   63.7940   65.8070 C   0  0  0  0  0  0  0  0  0  0  0  0
   39.7610   64.2700   64.6520 C   0  0  0  0  0  0  0  0  0  0  0  0
   40.6930   68.1294   64.0143 H   0  0  0  0  0  0  0  0  0  0  0  0
   42.6456   65.0585   60.7013 H   0  0  0  0  0  0  0  0  0  0  0  0
   42.0212   69.1885   59.8608 H   0  0  0  0  0  0  0  0  0  0  0  0
   42.0850   71.6518   59.5544 H   0  0  0  0  0  0  0  0  0  0  0  0
   41.6288   72.1371   63.6951 H   0  0  0  0  0  0  0  0  0  0  0  0
   41.0413   67.1277   65.8422 H   0  0  0  0  0  0  0  0  0  0  0  0
   40.0113   66.2698   67.9049 H   0  0  0  0  0  0  0  0  0  0  0  0
   38.7974   64.1051   67.9149 H   0  0  0  0  0  0  0  0  0  0  0  0
   38.6538   62.8316   65.7830 H   0  0  0  0  0  0  0  0  0  0  0  0
   39.6775   63.6765   63.7296 H   0  0  0  0  0  0  0  0  0  0  0  0
  1 15  1  0
  2  1  2  0
  3  2  1  0
  4  5  1  0
  4  3  2  0
  5  6  2  0
  6  1  1  0
  7  3  1  0
  7 13  1  0
  8  7  1  0
  9  8  2  0
  9 10  1  0
 10 12  1  0
 11 10  2  0
 12 13  1  0
 13 14  2  0
 15 20  1  0
 15 16  2  0
 16 17  1  0
 17 18  2  0
 19 18  1  0
 20 19  2  0
  2 21  1  0
  5 22  1  0
  8 23  1  0
  9 24  1  0
 12 25  1  0
 16 26  1  0
 17 27  1  0
 18 28  1  0
 19 29  1  0
 20 30  1  0
M  END
>  <Score>  (1) 
-7.13403

$$$$
