
     RDKit          3D

 46 50  0  0  0  0  0  0  0  0999 V2000
   41.2310   67.8550   58.4350 C   0  0  0  0  0  0  0  0  0  0  0  0
   41.5440   67.4540   59.7470 C   0  0  0  0  0  0  0  0  0  0  0  0
   41.8160   68.3490   60.7680 C   0  0  0  0  0  0  0  0  0  0  0  0
   41.7460   69.6580   60.3590 N   0  0  0  0  0  0  0  0  0  0  0  0
   41.4460   70.0550   59.1030 C   0  0  0  0  0  0  0  0  0  0  0  0
   41.1970   69.1500   58.1710 N   0  0  0  0  0  0  0  0  0  0  0  0
   42.1700   68.1440   62.1200 C   0  0  0  0  0  0  0  0  0  0  0  0
   43.5350   68.3800   62.4090 C   0  0  0  0  0  0  0  0  0  0  0  0
   44.0820   68.2340   63.6790 C   0  0  0  0  0  0  0  0  0  0  0  0
   43.2680   67.8420   64.7120 C   0  0  0  0  0  0  0  0  0  0  0  0
   41.9290   67.5980   64.4900 C   0  0  0  0  0  0  0  0  0  0  0  0
   41.0940   67.2040   65.5070 C   0  0  0  0  0  0  0  0  0  0  0  0
   39.7510   66.9500   65.3240 C   0  0  0  0  0  0  0  0  0  0  0  0
   39.3000   67.1210   64.0350 C   0  0  0  0  0  0  0  0  0  0  0  0
   40.1480   67.5180   63.0190 C   0  0  0  0  0  0  0  0  0  0  0  0
   41.4680   67.7630   63.2180 C   0  0  0  0  0  0  0  0  0  0  0  0
   41.3930   71.4920   58.7600 C   0  0  0  0  0  0  0  0  0  0  0  0
   41.8130   72.3770   59.8820 C   0  0  0  0  0  0  0  0  0  0  0  0
   40.8690   73.4520   60.2260 C   0  0  0  0  0  0  0  0  0  0  0  0
   39.6850   73.1320   60.8090 N   0  0  0  0  0  0  0  0  0  0  0  0
   38.7640   74.0310   61.1810 C   0  0  0  0  0  0  0  0  0  0  0  0
   39.0110   75.3350   60.9710 N   0  0  0  0  0  0  0  0  0  0  0  0
   40.1470   75.7660   60.4030 C   0  0  0  0  0  0  0  0  0  0  0  0
   40.3780   77.1060   60.1940 C   0  0  0  0  0  0  0  0  0  0  0  0
   41.5460   77.4930   59.6060 C   0  0  0  0  0  0  0  0  0  0  0  0
   42.4760   76.5400   59.2310 C   0  0  0  0  0  0  0  0  0  0  0  0
   42.2410   75.1920   59.4440 C   0  0  0  0  0  0  0  0  0  0  0  0
   41.0650   74.8020   60.0370 C   0  0  0  0  0  0  0  0  0  0  0  0
   41.0206   67.1122   57.6514 H   0  0  0  0  0  0  0  0  0  0  0  0
   41.5741   66.3778   59.9724 H   0  0  0  0  0  0  0  0  0  0  0  0
   44.1962   68.6946   61.5881 H   0  0  0  0  0  0  0  0  0  0  0  0
   45.1504   68.4296   63.8530 H   0  0  0  0  0  0  0  0  0  0  0  0
   43.6858   67.7218   65.7224 H   0  0  0  0  0  0  0  0  0  0  0  0
   41.5168   67.0854   66.5156 H   0  0  0  0  0  0  0  0  0  0  0  0
   39.0907   66.6348   66.1454 H   0  0  0  0  0  0  0  0  0  0  0  0
   38.2394   66.9373   63.8083 H   0  0  0  0  0  0  0  0  0  0  0  0
   39.7361   67.6406   62.0064 H   0  0  0  0  0  0  0  0  0  0  0  0
   42.0596   71.6722   57.9037 H   0  0  0  0  0  0  0  0  0  0  0  0
   40.3460   71.7346   58.5255 H   0  0  0  0  0  0  0  0  0  0  0  0
   41.9528   71.7498   60.7748 H   0  0  0  0  0  0  0  0  0  0  0  0
   42.7325   72.8778   59.5448 H   0  0  0  0  0  0  0  0  0  0  0  0
   37.8229   73.7076   61.6497 H   0  0  0  0  0  0  0  0  0  0  0  0
   39.6312   77.8547   60.4969 H   0  0  0  0  0  0  0  0  0  0  0  0
   41.7481   78.5599   59.4304 H   0  0  0  0  0  0  0  0  0  0  0  0
   43.4162   76.8577   58.7565 H   0  0  0  0  0  0  0  0  0  0  0  0
   42.9873   74.4424   59.1419 H   0  0  0  0  0  0  0  0  0  0  0  0
  1  2  2  0
  2  3  1  0
  3  7  1  0
  4  3  2  0
  5  4  1  0
  6  1  1  0
  6  5  2  0
  7  8  2  0
  7 16  1  0
  8  9  1  0
  9 10  2  0
 11 10  1  0
 11 12  2  0
 13 12  1  0
 14 13  2  0
 15 16  2  0
 15 14  1  0
 16 11  1  0
 17  5  1  0
 17 18  1  0
 18 19  1  0
 19 20  2  0
 20 21  1  0
 22 21  2  0
 23 22  1  0
 24 23  2  0
 25 24  1  0
 26 27  1  0
 26 25  2  0
 27 28  2  0
 28 19  1  0
 28 23  1  0
  1 29  1  0
  2 30  1  0
  8 31  1  0
  9 32  1  0
 10 33  1  0
 12 34  1  0
 13 35  1  0
 14 36  1  0
 15 37  1  0
 17 38  1  0
 17 39  1  0
 18 40  1  0
 18 41  1  0
 21 42  1  0
 24 43  1  0
 25 44  1  0
 26 45  1  0
 27 46  1  0
M  END
>  <Score>  (1) 
-8.06226

$$$$
