
     RDKit          3D

 49 53  0  0  1  0  0  0  0  0999 V2000
   41.5900   67.9730   60.8830 C   0  0  0  0  0  0  0  0  0  0  0  0
   41.4650   66.8710   60.0550 C   0  0  0  0  0  0  0  0  0  0  0  0
   41.4670   67.4140   58.7930 C   0  0  0  0  0  0  0  0  0  0  0  0
   41.5830   68.7490   58.8220 N   0  0  0  0  0  0  0  0  0  0  0  0
   41.6550   69.0560   60.1040 N   0  0  0  0  0  0  0  0  0  0  0  0
   41.3650   69.4540   54.2100 N   0  0  0  0  0  0  0  0  0  0  0  0
   41.2230   68.1420   54.5240 C   0  0  0  0  0  0  0  0  0  0  0  0
   41.2960   68.0250   55.8630 N   0  0  0  0  0  0  0  0  0  0  0  0
   41.4820   69.2140   56.4400 C   0  0  0  0  0  0  0  0  0  0  0  0
   41.6240   69.6540   57.7560 C   0  0  1  0  0  0  0  0  0  0  0  0
   41.7980   70.9540   57.9460 N   0  0  0  0  0  0  0  0  0  0  0  0
   41.8400   71.8380   56.9180 C   0  0  0  0  0  0  0  0  0  0  0  0
   41.7020   71.4030   55.6330 N   0  0  0  0  0  0  0  0  0  0  0  0
   41.5200   70.0860   55.3730 C   0  0  0  0  0  0  0  0  0  0  0  0
   42.0430   73.2500   57.3080 C   0  0  0  0  0  0  0  0  0  0  0  0
   41.8490   73.4260   58.8170 C   0  0  0  0  0  0  0  0  0  0  0  0
   41.1770   74.1740   56.5150 C   0  0  0  0  0  0  0  0  0  0  0  0
   41.0740   66.9380   64.3540 C   0  0  0  0  0  0  0  0  0  0  0  0
   41.7710   67.9450   65.0100 C   0  0  0  0  0  0  0  0  0  0  0  0
   42.4120   68.9650   64.3420 C   0  0  0  0  0  0  0  0  0  0  0  0
   42.3250   68.9350   62.9860 N   0  0  0  0  0  0  0  0  0  0  0  0
   41.6430   67.9510   62.3540 C   0  0  0  0  0  0  0  0  0  0  0  0
   41.0120   66.9490   62.9990 N   0  0  0  0  0  0  0  0  0  0  0  0
   40.4040   65.8680   65.0420 C   0  0  0  0  0  0  0  0  0  0  0  0
   40.2380   66.0060   66.4130 C   0  0  0  0  0  0  0  0  0  0  0  0
   39.6060   65.0250   67.1850 C   0  0  0  0  0  0  0  0  0  0  0  0
   39.1410   63.8870   66.5160 C   0  0  0  0  0  0  0  0  0  0  0  0
   39.2980   63.7280   65.1370 C   0  0  0  0  0  0  0  0  0  0  0  0
   39.9210   64.7110   64.4230 C   0  0  0  0  0  0  0  0  0  0  0  0
   41.3834   65.8117   60.3398 H   0  0  0  0  0  0  0  0  0  0  0  0
   41.3834   66.8234   57.8688 H   0  0  0  0  0  0  0  0  0  0  0  0
   41.3551   69.8739   53.2695 H   0  0  0  0  0  0  0  0  0  0  0  0
   41.0743   67.3185   53.8100 H   0  0  0  0  0  0  0  0  0  0  0  0
   42.7133   69.5188   57.6837 H   0  0  0  0  0  0  0  0  0  0  0  0
   41.7363   72.0789   54.8565 H   0  0  0  0  0  0  0  0  0  0  0  0
   43.0823   73.5229   57.0729 H   0  0  0  0  0  0  0  0  0  0  0  0
   42.5593   72.7816   59.3556 H   0  0  0  0  0  0  0  0  0  0  0  0
   42.0276   74.4766   59.0896 H   0  0  0  0  0  0  0  0  0  0  0  0
   40.8207   73.1462   59.0896 H   0  0  0  0  0  0  0  0  0  0  0  0
   40.5881   74.8023   57.1994 H   0  0  0  0  0  0  0  0  0  0  0  0
   41.8080   74.8141   55.8809 H   0  0  0  0  0  0  0  0  0  0  0  0
   40.4974   73.5858   55.8809 H   0  0  0  0  0  0  0  0  0  0  0  0
   41.8127   67.9270   66.1091 H   0  0  0  0  0  0  0  0  0  0  0  0
   42.9611   69.7560   64.8739 H   0  0  0  0  0  0  0  0  0  0  0  0
   40.6145   66.9136   66.9074 H   0  0  0  0  0  0  0  0  0  0  0  0
   39.4800   65.1431   68.2714 H   0  0  0  0  0  0  0  0  0  0  0  0
   38.6381   63.0961   67.0918 H   0  0  0  0  0  0  0  0  0  0  0  0
   38.9251   62.8238   64.6336 H   0  0  0  0  0  0  0  0  0  0  0  0
   40.0457   64.5901   63.3368 H   0  0  0  0  0  0  0  0  0  0  0  0
  1 22  1  0
  2  1  1  0
  3  4  1  0
  3  2  2  0
  4  5  1  0
  5  1  2  0
  6  7  1  0
  6 14  1  0
  7  8  2  0
  8  9  1  0
  9 10  1  0
 10 11  1  0
 10  4  1  0
 12 15  1  0
 12 11  2  0
 13 12  1  0
 14 13  1  0
 14  9  2  0
 15 16  1  0
 17 15  1  0
 18 19  2  0
 18 24  1  0
 20 19  1  0
 21 20  2  0
 22 21  1  0
 22 23  2  0
 23 18  1  0
 24 25  2  0
 25 26  1  0
 27 26  2  0
 28 27  1  0
 29 24  1  0
 29 28  2  0
  2 30  1  0
  3 31  1  0
  6 32  1  0
  7 33  1  0
 10 34  1  6
 13 35  1  0
 15 36  1  0
 16 37  1  0
 16 38  1  0
 16 39  1  0
 17 40  1  0
 17 41  1  0
 17 42  1  0
 19 43  1  0
 20 44  1  0
 25 45  1  0
 26 46  1  0
 27 47  1  0
 28 48  1  0
 29 49  1  0
M  END
>  <Score>  (1) 
-7.27743

$$$$
