
     RDKit          3D

 47 52  0  0  0  0  0  0  0  0999 V2000
   42.1790   67.4440   58.3730 C   0  0  0  0  0  0  0  0  0  0  0  0
   42.3860   67.1460   59.7350 C   0  0  0  0  0  0  0  0  0  0  0  0
   42.2100   68.0890   60.7430 C   0  0  0  0  0  0  0  0  0  0  0  0
   41.8170   69.3220   60.2680 N   0  0  0  0  0  0  0  0  0  0  0  0
   41.6190   69.6110   58.9630 C   0  0  0  0  0  0  0  0  0  0  0  0
   41.8020   68.6760   58.0470 N   0  0  0  0  0  0  0  0  0  0  0  0
   42.3820   68.0090   62.1410 C   0  0  0  0  0  0  0  0  0  0  0  0
   43.6760   68.3600   62.5980 C   0  0  0  0  0  0  0  0  0  0  0  0
   44.0510   68.3480   63.9330 C   0  0  0  0  0  0  0  0  0  0  0  0
   43.1130   67.9750   64.8790 C   0  0  0  0  0  0  0  0  0  0  0  0
   41.8290   67.6210   64.4970 C   0  0  0  0  0  0  0  0  0  0  0  0
   40.8870   67.2500   65.4070 C   0  0  0  0  0  0  0  0  0  0  0  0
   39.6000   66.8920   65.0710 C   0  0  0  0  0  0  0  0  0  0  0  0
   39.3220   66.9350   63.7100 C   0  0  0  0  0  0  0  0  0  0  0  0
   40.2850   67.3120   62.8010 C   0  0  0  0  0  0  0  0  0  0  0  0
   41.5480   67.6610   63.1690 C   0  0  0  0  0  0  0  0  0  0  0  0
   41.2050   70.9540   58.5730 C   0  0  0  0  0  0  0  0  0  0  0  0
   40.1560   71.2200   57.7100 C   0  0  0  0  0  0  0  0  0  0  0  0
   40.1340   72.6100   57.6360 C   0  0  0  0  0  0  0  0  0  0  0  0
   41.1520   73.1010   58.4450 C   0  0  0  0  0  0  0  0  0  0  0  0
   41.7430   72.0580   58.9680 O   0  0  0  0  0  0  0  0  0  0  0  0
   41.4690   74.4720   58.6490 N   0  0  0  0  0  0  0  0  0  0  0  0
   42.4230   75.1590   57.9970 C   0  0  0  0  0  0  0  0  0  0  0  0
   42.4470   76.4300   58.4420 N   0  0  0  0  0  0  0  0  0  0  0  0
   41.4920   76.5290   59.3850 C   0  0  0  0  0  0  0  0  0  0  0  0
   41.1480   77.6590   60.1290 C   0  0  0  0  0  0  0  0  0  0  0  0
   41.7560   78.7460   59.9520 O   0  0  0  0  0  0  0  0  0  0  0  0
   40.1480   77.4720   61.0110 N   0  0  0  0  0  0  0  0  0  0  0  0
   39.5430   76.2790   61.1460 C   0  0  0  0  0  0  0  0  0  0  0  0
   38.4980   76.2530   62.1290 N   0  0  0  0  0  0  0  0  0  0  0  0
   39.8810   75.1900   60.4230 N   0  0  0  0  0  0  0  0  0  0  0  0
   40.8630   75.2900   59.5260 C   0  0  0  0  0  0  0  0  0  0  0  0
   42.3258   66.6760   57.5992 H   0  0  0  0  0  0  0  0  0  0  0  0
   42.6988   66.1284   60.0119 H   0  0  0  0  0  0  0  0  0  0  0  0
   44.4263   68.6592   61.8513 H   0  0  0  0  0  0  0  0  0  0  0  0
   45.0714   68.6288   64.2330 H   0  0  0  0  0  0  0  0  0  0  0  0
   43.3889   67.9593   65.9437 H   0  0  0  0  0  0  0  0  0  0  0  0
   41.1693   67.2353   66.4700 H   0  0  0  0  0  0  0  0  0  0  0  0
   38.8515   66.5955   65.8206 H   0  0  0  0  0  0  0  0  0  0  0  0
   38.3173   66.6637   63.3536 H   0  0  0  0  0  0  0  0  0  0  0  0
   40.0227   67.3320   61.7329 H   0  0  0  0  0  0  0  0  0  0  0  0
   39.4952   70.5020   57.2022 H   0  0  0  0  0  0  0  0  0  0  0  0
   39.4333   73.2142   57.0411 H   0  0  0  0  0  0  0  0  0  0  0  0
   43.0827   74.7465   57.2195 H   0  0  0  0  0  0  0  0  0  0  0  0
   39.8393   78.2615   61.5960 H   0  0  0  0  0  0  0  0  0  0  0  0
   37.9765   75.3820   62.3034 H   0  0  0  0  0  0  0  0  0  0  0  0
   38.2694   77.1053   62.6603 H   0  0  0  0  0  0  0  0  0  0  0  0
  1  2  2  0
  2  3  1  0
  3  7  1  0
  4  3  2  0
  5  4  1  0
  6  1  1  0
  6  5  2  0
  7  8  2  0
  7 16  1  0
  8  9  1  0
  9 10  2  0
 11 10  1  0
 11 12  2  0
 13 12  1  0
 14 13  2  0
 15 16  2  0
 15 14  1  0
 16 11  1  0
 17  5  1  0
 17 21  1  0
 18 17  2  0
 19 18  1  0
 19 20  2  0
 20 22  1  0
 20 21  1  0
 22 32  1  0
 23 24  2  0
 23 22  1  0
 24 25  1  0
 25 32  2  0
 25 26  1  0
 26 28  1  0
 27 26  2  0
 28 29  1  0
 29 30  1  0
 31 29  2  0
 32 31  1  0
  1 33  1  0
  2 34  1  0
  8 35  1  0
  9 36  1  0
 10 37  1  0
 12 38  1  0
 13 39  1  0
 14 40  1  0
 15 41  1  0
 18 42  1  0
 19 43  1  0
 23 44  1  0
 28 45  1  0
 30 46  1  0
 30 47  1  0
M  END
>  <Score>  (1) 
-8.57435

$$$$
