
     RDKit          3D

 41 45  0  0  0  0  0  0  0  0999 V2000
   41.3970   67.6980   58.4600 C   0  0  0  0  0  0  0  0  0  0  0  0
   41.7030   67.2980   59.7740 C   0  0  0  0  0  0  0  0  0  0  0  0
   41.8750   68.2100   60.8130 C   0  0  0  0  0  0  0  0  0  0  0  0
   41.7140   69.5200   60.4110 N   0  0  0  0  0  0  0  0  0  0  0  0
   41.4200   69.9010   59.1490 C   0  0  0  0  0  0  0  0  0  0  0  0
   41.2690   68.9930   58.2050 N   0  0  0  0  0  0  0  0  0  0  0  0
   42.2010   68.0340   62.1740 C   0  0  0  0  0  0  0  0  0  0  0  0
   43.5500   68.3120   62.4980 C   0  0  0  0  0  0  0  0  0  0  0  0
   44.0730   68.2020   63.7800 C   0  0  0  0  0  0  0  0  0  0  0  0
   43.2380   67.7970   64.8030 C   0  0  0  0  0  0  0  0  0  0  0  0
   41.9120   67.5100   64.5510 C   0  0  0  0  0  0  0  0  0  0  0  0
   41.0570   67.1080   65.5380 C   0  0  0  0  0  0  0  0  0  0  0  0
   39.7280   66.8130   65.3300 C   0  0  0  0  0  0  0  0  0  0  0  0
   39.3010   66.9540   64.0180 C   0  0  0  0  0  0  0  0  0  0  0  0
   40.1680   67.3600   63.0280 C   0  0  0  0  0  0  0  0  0  0  0  0
   41.4760   67.6460   63.2550 C   0  0  0  0  0  0  0  0  0  0  0  0
   41.2720   71.3220   58.8400 C   0  0  0  0  0  0  0  0  0  0  0  0
   41.4420   71.8570   57.5740 C   0  0  0  0  0  0  0  0  0  0  0  0
   41.2050   73.2180   57.7540 C   0  0  0  0  0  0  0  0  0  0  0  0
   40.9100   73.4280   59.0960 C   0  0  0  0  0  0  0  0  0  0  0  0
   40.9670   72.2520   59.6880 O   0  0  0  0  0  0  0  0  0  0  0  0
   40.5990   74.7140   59.7100 C   0  0  0  0  0  0  0  0  0  0  0  0
   39.6070   74.7750   60.6670 C   0  0  0  0  0  0  0  0  0  0  0  0
   39.3620   76.0320   61.2120 C   0  0  0  0  0  0  0  0  0  0  0  0
   40.0460   77.1300   60.8360 N   0  0  0  0  0  0  0  0  0  0  0  0
   41.0170   77.0310   59.8890 C   0  0  0  0  0  0  0  0  0  0  0  0
   41.2600   75.8060   59.3540 N   0  0  0  0  0  0  0  0  0  0  0  0
   41.2668   66.9526   57.6616 H   0  0  0  0  0  0  0  0  0  0  0  0
   41.8105   66.2246   59.9889 H   0  0  0  0  0  0  0  0  0  0  0  0
   44.2224   68.6334   61.6890 H   0  0  0  0  0  0  0  0  0  0  0  0
   45.1304   68.4327   63.9765 H   0  0  0  0  0  0  0  0  0  0  0  0
   43.6327   67.7026   65.8254 H   0  0  0  0  0  0  0  0  0  0  0  0
   41.4538   67.0144   66.5596 H   0  0  0  0  0  0  0  0  0  0  0  0
   39.0579   66.4909   66.1406 H   0  0  0  0  0  0  0  0  0  0  0  0
   38.2527   66.7380   63.7640 H   0  0  0  0  0  0  0  0  0  0  0  0
   39.7819   67.4574   62.0026 H   0  0  0  0  0  0  0  0  0  0  0  0
   41.7030   71.3306   56.6441 H   0  0  0  0  0  0  0  0  0  0  0  0
   41.2444   73.9904   56.9718 H   0  0  0  0  0  0  0  0  0  0  0  0
   39.0436   73.8837   60.9804 H   0  0  0  0  0  0  0  0  0  0  0  0
   38.5800   76.1328   61.9790 H   0  0  0  0  0  0  0  0  0  0  0  0
   41.5874   77.9145   59.5665 H   0  0  0  0  0  0  0  0  0  0  0  0
  1  2  2  0
  2  3  1  0
  3  7  1  0
  4  3  2  0
  5  4  1  0
  6  1  1  0
  6  5  2  0
  7  8  2  0
  7 16  1  0
  8  9  1  0
  9 10  2  0
 11 10  1  0
 11 12  2  0
 13 12  1  0
 14 13  2  0
 15 16  2  0
 15 14  1  0
 16 11  1  0
 17  5  1  0
 17 21  1  0
 18 19  1  0
 18 17  2  0
 19 20  2  0
 20 21  1  0
 20 22  1  0
 22 23  2  0
 23 24  1  0
 25 24  2  0
 26 25  1  0
 27 22  1  0
 27 26  2  0
  1 28  1  0
  2 29  1  0
  8 30  1  0
  9 31  1  0
 10 32  1  0
 12 33  1  0
 13 34  1  0
 14 35  1  0
 15 36  1  0
 18 37  1  0
 19 38  1  0
 23 39  1  0
 24 40  1  0
 26 41  1  0
M  END
>  <Score>  (1) 
-7.61242

$$$$
