
     RDKit          3D

 46 50  0  0  0  0  0  0  0  0999 V2000
   41.3240   68.2820   58.5080 C   0  0  0  0  0  0  0  0  0  0  0  0
   41.6360   67.7740   59.7860 C   0  0  0  0  0  0  0  0  0  0  0  0
   41.8520   68.6060   60.8970 C   0  0  0  0  0  0  0  0  0  0  0  0
   41.7250   69.9490   60.6030 N   0  0  0  0  0  0  0  0  0  0  0  0
   41.4220   70.4220   59.3630 C   0  0  0  0  0  0  0  0  0  0  0  0
   41.2300   69.5940   58.3520 N   0  0  0  0  0  0  0  0  0  0  0  0
   42.1880   68.3030   62.2260 C   0  0  0  0  0  0  0  0  0  0  0  0
   43.5590   68.5080   62.5320 C   0  0  0  0  0  0  0  0  0  0  0  0
   44.0930   68.2640   63.7980 C   0  0  0  0  0  0  0  0  0  0  0  0
   43.2700   67.8060   64.7970 C   0  0  0  0  0  0  0  0  0  0  0  0
   41.9330   67.5910   64.5510 C   0  0  0  0  0  0  0  0  0  0  0  0
   41.0710   67.1330   65.5180 C   0  0  0  0  0  0  0  0  0  0  0  0
   39.7360   66.9070   65.3120 C   0  0  0  0  0  0  0  0  0  0  0  0
   39.2920   67.1750   64.0250 C   0  0  0  0  0  0  0  0  0  0  0  0
   40.1610   67.6350   63.0530 C   0  0  0  0  0  0  0  0  0  0  0  0
   41.4740   67.8480   63.2920 C   0  0  0  0  0  0  0  0  0  0  0  0
   41.3070   71.8680   59.1290 C   0  0  0  0  0  0  0  0  0  0  0  0
   39.9120   72.3260   58.8990 C   0  0  0  0  0  0  0  0  0  0  0  0
   39.7180   73.6010   59.6410 C   0  0  0  0  0  0  0  0  0  0  0  0
   39.2060   73.7990   60.9300 C   0  0  0  0  0  0  0  0  0  0  0  0
   39.2320   75.1670   61.1560 C   0  0  0  0  0  0  0  0  0  0  0  0
   39.7550   75.7310   60.0020 C   0  0  0  0  0  0  0  0  0  0  0  0
   40.0200   74.7820   59.1590 O   0  0  0  0  0  0  0  0  0  0  0  0
   39.9500   77.1290   59.8250 N   0  0  0  0  0  0  0  0  0  0  0  0
   39.5860   77.8840   58.7690 C   0  0  0  0  0  0  0  0  0  0  0  0
   39.9330   79.2100   58.9300 C   0  0  0  0  0  0  0  0  0  0  0  0
   40.5280   79.2320   60.1370 N   0  0  0  0  0  0  0  0  0  0  0  0
   40.5390   77.9960   60.6680 C   0  0  0  0  0  0  0  0  0  0  0  0
   41.1620   67.6027   57.6581 H   0  0  0  0  0  0  0  0  0  0  0  0
   41.7132   66.6847   59.9179 H   0  0  0  0  0  0  0  0  0  0  0  0
   44.2276   68.8741   61.7389 H   0  0  0  0  0  0  0  0  0  0  0  0
   45.1616   68.4367   63.9934 H   0  0  0  0  0  0  0  0  0  0  0  0
   43.6810   67.6100   65.7983 H   0  0  0  0  0  0  0  0  0  0  0  0
   41.4787   66.9355   66.5204 H   0  0  0  0  0  0  0  0  0  0  0  0
   39.0675   66.5413   66.1054 H   0  0  0  0  0  0  0  0  0  0  0  0
   38.2324   67.0191   63.7742 H   0  0  0  0  0  0  0  0  0  0  0  0
   39.7682   67.8355   62.0453 H   0  0  0  0  0  0  0  0  0  0  0  0
   41.7052   72.3951   60.0086 H   0  0  0  0  0  0  0  0  0  0  0  0
   41.8744   72.0920   58.2136 H   0  0  0  0  0  0  0  0  0  0  0  0
   39.7457   72.4906   57.8242 H   0  0  0  0  0  0  0  0  0  0  0  0
   39.1979   71.5669   59.2508 H   0  0  0  0  0  0  0  0  0  0  0  0
   38.8532   73.0230   61.6252 H   0  0  0  0  0  0  0  0  0  0  0  0
   38.9052   75.6958   62.0635 H   0  0  0  0  0  0  0  0  0  0  0  0
   39.0714   77.4884   57.8809 H   0  0  0  0  0  0  0  0  0  0  0  0
   39.7638   80.0480   58.2378 H   0  0  0  0  0  0  0  0  0  0  0  0
   40.9665   77.7332   61.6469 H   0  0  0  0  0  0  0  0  0  0  0  0
  1  2  2  0
  2  3  1  0
  3  7  1  0
  4  3  2  0
  5  4  1  0
  6  1  1  0
  6  5  2  0
  7  8  2  0
  7 16  1  0
  8  9  1  0
  9 10  2  0
 11 10  1  0
 11 12  2  0
 13 12  1  0
 14 13  2  0
 15 16  2  0
 15 14  1  0
 16 11  1  0
 17  5  1  0
 18 17  1  0
 18 19  1  0
 19 20  2  0
 20 21  1  0
 22 21  2  0
 23 19  1  0
 23 22  1  0
 24 22  1  0
 24 28  1  0
 25 26  2  0
 25 24  1  0
 26 27  1  0
 27 28  2  0
  1 29  1  0
  2 30  1  0
  8 31  1  0
  9 32  1  0
 10 33  1  0
 12 34  1  0
 13 35  1  0
 14 36  1  0
 15 37  1  0
 17 38  1  0
 17 39  1  0
 18 40  1  0
 18 41  1  0
 20 42  1  0
 21 43  1  0
 25 44  1  0
 26 45  1  0
 28 46  1  0
M  END
>  <Score>  (1) 
-7.71107

$$$$
