
     RDKit          3D

 52 56  0  0  1  0  0  0  0  0999 V2000
   41.2570   73.7370   60.8130 N   0  0  0  0  0  0  0  0  0  0  0  0
   41.7780   73.4430   62.0860 C   0  0  0  0  0  0  0  0  0  0  0  0
   42.4360   72.1550   62.2120 C   0  0  0  0  0  0  0  0  0  0  0  0
   42.3000   71.1180   61.1140 C   0  0  2  0  0  0  0  0  0  0  0  0
   41.3630   71.4690   60.0350 C   0  0  0  0  0  0  0  0  0  0  0  0
   41.5020   72.9470   59.7080 C   0  0  2  0  0  0  0  0  0  0  0  0
   39.5400   64.0480   65.5410 C   0  0  0  0  0  0  0  0  0  0  0  0
   39.2960   65.0150   66.5440 C   0  0  0  0  0  0  0  0  0  0  0  0
   39.7800   66.3230   66.3420 C   0  0  0  0  0  0  0  0  0  0  0  0
   40.4580   66.5650   65.1740 N   0  0  0  0  0  0  0  0  0  0  0  0
   40.6630   65.6000   64.2450 C   0  0  0  0  0  0  0  0  0  0  0  0
   40.2140   64.3580   64.4180 N   0  0  0  0  0  0  0  0  0  0  0  0
   41.3650   65.9640   63.0660 N   0  0  0  0  0  0  0  0  0  0  0  0
   41.9720   65.3080   62.0660 C   0  0  0  0  0  0  0  0  0  0  0  0
   42.4680   66.1590   61.1780 N   0  0  0  0  0  0  0  0  0  0  0  0
   42.1730   67.4060   61.6140 C   0  0  0  0  0  0  0  0  0  0  0  0
   42.4350   68.6440   61.0970 C   0  0  0  0  0  0  0  0  0  0  0  0
   43.0780   68.6800   59.9970 O   0  0  0  0  0  0  0  0  0  0  0  0
   42.0550   69.7920   61.6830 N   0  0  0  0  0  0  0  0  0  0  0  0
   41.4080   69.6370   62.8080 C   0  0  0  0  0  0  0  0  0  0  0  0
   41.0470   70.8010   63.5530 N   0  0  0  0  0  0  0  0  0  0  0  0
   41.1090   68.4800   63.3790 N   0  0  0  0  0  0  0  0  0  0  0  0
   41.4780   67.2990   62.8070 C   0  0  0  0  0  0  0  0  0  0  0  0
   44.8900   73.8350   57.1810 C   0  0  0  0  0  0  0  0  0  0  0  0
   44.2830   72.5880   57.1360 C   0  0  0  0  0  0  0  0  0  0  0  0
   43.1960   72.3400   57.9640 C   0  0  0  0  0  0  0  0  0  0  0  0
   42.6630   73.2590   58.8480 C   0  0  0  0  0  0  0  0  0  0  0  0
   43.2980   74.5100   58.8720 C   0  0  0  0  0  0  0  0  0  0  0  0
   44.3920   74.7800   58.0450 C   0  0  0  0  0  0  0  0  0  0  0  0
   46.2570   74.1340   56.1350 S   0  0  0  0  0  0  0  0  0  0  0  0
   47.4440   74.5960   56.9260 O   0  0  0  0  0  0  0  0  0  0  0  0
   46.6660   72.8310   55.4610 O   0  0  0  0  0  0  0  0  0  0  0  0
   40.2333   73.7645   60.9229 H   0  0  0  0  0  0  0  0  0  0  0  0
   42.5101   74.2235   62.3406 H   0  0  0  0  0  0  0  0  0  0  0  0
   40.9128   73.4067   62.7644 H   0  0  0  0  0  0  0  0  0  0  0  0
   43.5112   72.3585   62.3238 H   0  0  0  0  0  0  0  0  0  0  0  0
   41.9152   71.6897   63.0619 H   0  0  0  0  0  0  0  0  0  0  0  0
   43.2712   71.0957   60.5980 H   0  0  0  0  0  0  0  0  0  0  0  0
   41.5929   70.8718   59.1403 H   0  0  0  0  0  0  0  0  0  0  0  0
   40.3331   71.2593   60.3594 H   0  0  0  0  0  0  0  0  0  0  0  0
   40.6909   73.2436   59.0267 H   0  0  0  0  0  0  0  0  0  0  0  0
   39.1712   63.0213   65.6817 H   0  0  0  0  0  0  0  0  0  0  0  0
   38.7428   64.7529   67.4579 H   0  0  0  0  0  0  0  0  0  0  0  0
   39.6211   67.1154   67.0882 H   0  0  0  0  0  0  0  0  0  0  0  0
   42.0481   64.2131   61.9924 H   0  0  0  0  0  0  0  0  0  0  0  0
   40.5368   70.7053   64.4426 H   0  0  0  0  0  0  0  0  0  0  0  0
   41.2969   71.7360   63.2006 H   0  0  0  0  0  0  0  0  0  0  0  0
   44.6567   71.8086   56.4556 H   0  0  0  0  0  0  0  0  0  0  0  0
   42.7280   71.3458   57.9128 H   0  0  0  0  0  0  0  0  0  0  0  0
   42.9288   75.2911   59.5529 H   0  0  0  0  0  0  0  0  0  0  0  0
   44.8652   75.7721   58.0869 H   0  0  0  0  0  0  0  0  0  0  0  0
   45.8876   75.0898   55.2256 H   0  0  0  0  0  0  0  0  0  0  0  0
  1  2  1  0
  2  3  1  0
  4 19  1  0
  4  3  1  0
  5  4  1  0
  6  5  1  0
  6  1  1  0
  7  8  2  0
  9  8  1  0
 10  9  2  0
 11 12  2  0
 11 10  1  0
 12  7  1  0
 13 11  1  0
 14 13  1  0
 15 16  1  0
 15 14  2  0
 16 23  2  0
 17 16  1  0
 17 19  1  0
 18 17  2  0
 19 20  1  0
 20 22  2  0
 20 21  1  0
 23 13  1  0
 23 22  1  0
 24 29  2  0
 25 24  1  0
 25 26  2  0
 26 27  1  0
 27 28  2  0
 27  6  1  0
 29 28  1  0
 30 31  2  0
 30 24  1  0
 32 30  2  0
  1 33  1  0
  2 34  1  0
  2 35  1  0
  3 36  1  0
  3 37  1  0
  4 38  1  6
  5 39  1  0
  5 40  1  0
  6 41  1  6
  7 42  1  0
  8 43  1  0
  9 44  1  0
 14 45  1  0
 21 46  1  0
 21 47  1  0
 25 48  1  0
 26 49  1  0
 28 50  1  0
 29 51  1  0
 30 52  1  0
M  END
>  <Score>  (1) 
-7.27136

$$$$
