
     RDKit          3D

 48 51  0  0  0  0  0  0  0  0999 V2000
   41.2850   67.8090   58.4710 C   0  0  0  0  0  0  0  0  0  0  0  0
   41.5920   67.3990   59.7810 C   0  0  0  0  0  0  0  0  0  0  0  0
   41.8420   68.3010   60.8230 C   0  0  0  0  0  0  0  0  0  0  0  0
   41.7550   69.6200   60.4260 N   0  0  0  0  0  0  0  0  0  0  0  0
   41.4570   70.0050   59.1550 C   0  0  0  0  0  0  0  0  0  0  0  0
   41.2300   69.1010   58.2120 N   0  0  0  0  0  0  0  0  0  0  0  0
   42.1780   68.0900   62.1720 C   0  0  0  0  0  0  0  0  0  0  0  0
   43.5320   68.3630   62.4720 C   0  0  0  0  0  0  0  0  0  0  0  0
   44.0590   68.2120   63.7610 C   0  0  0  0  0  0  0  0  0  0  0  0
   43.2450   67.7860   64.7720 C   0  0  0  0  0  0  0  0  0  0  0  0
   41.9160   67.5070   64.5250 C   0  0  0  0  0  0  0  0  0  0  0  0
   41.0640   67.0760   65.5150 C   0  0  0  0  0  0  0  0  0  0  0  0
   39.7390   66.7880   65.3120 C   0  0  0  0  0  0  0  0  0  0  0  0
   39.3050   66.9660   64.0110 C   0  0  0  0  0  0  0  0  0  0  0  0
   40.1650   67.3990   63.0200 C   0  0  0  0  0  0  0  0  0  0  0  0
   41.4760   67.6750   63.2620 C   0  0  0  0  0  0  0  0  0  0  0  0
   41.3870   71.4340   58.8120 C   0  0  0  0  0  0  0  0  0  0  0  0
   40.0050   71.9790   58.8310 C   0  0  0  0  0  0  0  0  0  0  0  0
   40.0490   73.2990   59.5230 C   0  0  0  0  0  0  0  0  0  0  0  0
   39.6400   73.6240   60.8220 C   0  0  0  0  0  0  0  0  0  0  0  0
   39.8910   74.9840   60.9860 C   0  0  0  0  0  0  0  0  0  0  0  0
   40.4410   75.4160   59.7780 C   0  0  0  0  0  0  0  0  0  0  0  0
   40.5080   74.3960   58.9680 O   0  0  0  0  0  0  0  0  0  0  0  0
   40.8340   76.8380   59.5950 C   0  0  0  0  0  0  0  0  0  0  0  0
   40.4090   77.6800   60.8000 C   0  0  0  0  0  0  0  0  0  0  0  0
   42.3030   77.0320   59.4000 C   0  0  0  0  0  0  0  0  0  0  0  0
   41.0950   67.0685   57.6801 H   0  0  0  0  0  0  0  0  0  0  0  0
   41.6378   66.3214   59.9969 H   0  0  0  0  0  0  0  0  0  0  0  0
   44.1955   68.7062   61.6645 H   0  0  0  0  0  0  0  0  0  0  0  0
   45.1183   68.4343   63.9573 H   0  0  0  0  0  0  0  0  0  0  0  0
   43.6505   67.6648   65.7873 H   0  0  0  0  0  0  0  0  0  0  0  0
   41.4699   66.9552   66.5302 H   0  0  0  0  0  0  0  0  0  0  0  0
   39.0750   66.4433   66.1185 H   0  0  0  0  0  0  0  0  0  0  0  0
   38.2542   66.7587   63.7602 H   0  0  0  0  0  0  0  0  0  0  0  0
   39.7764   67.5253   61.9987 H   0  0  0  0  0  0  0  0  0  0  0  0
   41.8018   71.5709   57.8024 H   0  0  0  0  0  0  0  0  0  0  0  0
   41.9614   71.9794   59.5753 H   0  0  0  0  0  0  0  0  0  0  0  0
   39.6385   72.1073   57.8018 H   0  0  0  0  0  0  0  0  0  0  0  0
   39.3261   71.2908   59.3558 H   0  0  0  0  0  0  0  0  0  0  0  0
   39.2060   72.9400   61.5662 H   0  0  0  0  0  0  0  0  0  0  0  0
   39.6962   75.5918   61.8819 H   0  0  0  0  0  0  0  0  0  0  0  0
   40.3169   77.1623   58.6799 H   0  0  0  0  0  0  0  0  0  0  0  0
   40.6752   77.1527   61.7280 H   0  0  0  0  0  0  0  0  0  0  0  0
   40.9250   78.6510   60.7691 H   0  0  0  0  0  0  0  0  0  0  0  0
   39.3214   77.8416   60.7691 H   0  0  0  0  0  0  0  0  0  0  0  0
   42.7975   77.0973   60.3804 H   0  0  0  0  0  0  0  0  0  0  0  0
   42.7139   76.1803   58.8380 H   0  0  0  0  0  0  0  0  0  0  0  0
   42.4787   77.9612   58.8380 H   0  0  0  0  0  0  0  0  0  0  0  0
  1  2  2  0
  2  3  1  0
  3  7  1  0
  4  3  2  0
  5  4  1  0
  6  1  1  0
  6  5  2  0
  7  8  2  0
  7 16  1  0
  8  9  1  0
  9 10  2  0
 11 10  1  0
 11 12  2  0
 13 12  1  0
 14 13  2  0
 15 16  2  0
 15 14  1  0
 16 11  1  0
 17 18  1  0
 17  5  1  0
 18 19  1  0
 19 20  2  0
 20 21  1  0
 22 21  2  0
 23 19  1  0
 23 22  1  0
 24 22  1  0
 24 25  1  0
 26 24  1  0
  1 27  1  0
  2 28  1  0
  8 29  1  0
  9 30  1  0
 10 31  1  0
 12 32  1  0
 13 33  1  0
 14 34  1  0
 15 35  1  0
 17 36  1  0
 17 37  1  0
 18 38  1  0
 18 39  1  0
 20 40  1  0
 21 41  1  0
 24 42  1  0
 25 43  1  0
 25 44  1  0
 25 45  1  0
 26 46  1  0
 26 47  1  0
 26 48  1  0
M  END
>  <Score>  (1) 
-7.16351

$$$$
