
     RDKit          3D

 44 48  0  0  0  0  0  0  0  0999 V2000
   41.5230   68.0480   58.4100 C   0  0  0  0  0  0  0  0  0  0  0  0
   41.8400   67.5910   59.7080 C   0  0  0  0  0  0  0  0  0  0  0  0
   41.9250   68.4270   60.8140 C   0  0  0  0  0  0  0  0  0  0  0  0
   41.6650   69.7630   60.5090 N   0  0  0  0  0  0  0  0  0  0  0  0
   41.3620   70.1880   59.2540 C   0  0  0  0  0  0  0  0  0  0  0  0
   41.2950   69.3400   58.2330 N   0  0  0  0  0  0  0  0  0  0  0  0
   42.2360   68.1790   62.1550 C   0  0  0  0  0  0  0  0  0  0  0  0
   43.5860   68.4220   62.4930 C   0  0  0  0  0  0  0  0  0  0  0  0
   44.0880   68.2360   63.7830 C   0  0  0  0  0  0  0  0  0  0  0  0
   43.2560   67.8020   64.7670 C   0  0  0  0  0  0  0  0  0  0  0  0
   41.9260   67.5480   64.4950 C   0  0  0  0  0  0  0  0  0  0  0  0
   41.0500   67.1070   65.4550 C   0  0  0  0  0  0  0  0  0  0  0  0
   39.7360   66.8460   65.2220 C   0  0  0  0  0  0  0  0  0  0  0  0
   39.3280   67.0570   63.9220 C   0  0  0  0  0  0  0  0  0  0  0  0
   40.1970   67.4980   62.9490 C   0  0  0  0  0  0  0  0  0  0  0  0
   41.4940   67.7510   63.2080 C   0  0  0  0  0  0  0  0  0  0  0  0
   41.1200   71.6160   59.0370 C   0  0  0  0  0  0  0  0  0  0  0  0
   40.1950   72.1160   58.1560 C   0  0  0  0  0  0  0  0  0  0  0  0
   40.3250   73.5000   58.2870 C   0  0  0  0  0  0  0  0  0  0  0  0
   41.3070   73.7450   59.2310 C   0  0  0  0  0  0  0  0  0  0  0  0
   41.7410   72.5740   59.6390 O   0  0  0  0  0  0  0  0  0  0  0  0
   39.4340   74.3240   57.4910 C   0  0  0  0  0  0  0  0  0  0  0  0
   38.1290   74.7780   58.0220 C   0  0  0  0  0  0  0  0  0  0  0  0
   37.4820   75.8820   56.6410 S   0  0  0  0  0  0  0  0  0  0  0  0
   39.0490   75.5380   55.6370 C   0  0  0  0  0  0  0  0  0  0  0  0
   39.7080   74.8140   56.2920 N   0  0  0  0  0  0  0  0  0  0  0  0
   41.8350   74.8850   59.7540 O   0  0  0  0  0  0  0  0  0  0  0  0
   41.6090   76.1910   59.3300 C   0  0  0  0  0  0  0  0  0  0  0  0
   42.3400   76.7470   58.2560 N   0  0  0  0  0  0  0  0  0  0  0  0
   40.7050   76.4700   60.1650 O   0  0  0  0  0  0  0  0  0  0  0  0
   41.4668   67.3461   57.5649 H   0  0  0  0  0  0  0  0  0  0  0  0
   42.0295   66.5169   59.8507 H   0  0  0  0  0  0  0  0  0  0  0  0
   44.2709   68.7726   61.7068 H   0  0  0  0  0  0  0  0  0  0  0  0
   45.1469   68.4388   64.0010 H   0  0  0  0  0  0  0  0  0  0  0  0
   43.6443   67.6524   65.7852 H   0  0  0  0  0  0  0  0  0  0  0  0
   41.4341   66.9555   66.4746 H   0  0  0  0  0  0  0  0  0  0  0  0
   39.0524   66.4942   66.0087 H   0  0  0  0  0  0  0  0  0  0  0  0
   38.2780   66.8676   63.6543 H   0  0  0  0  0  0  0  0  0  0  0  0
   39.8193   67.6485   61.9269 H   0  0  0  0  0  0  0  0  0  0  0  0
   39.5111   71.5575   57.5000 H   0  0  0  0  0  0  0  0  0  0  0  0
   37.6553   74.5317   58.9838 H   0  0  0  0  0  0  0  0  0  0  0  0
   39.2951   75.9348   54.6410 H   0  0  0  0  0  0  0  0  0  0  0  0
   42.1586   77.7156   57.9564 H   0  0  0  0  0  0  0  0  0  0  0  0
   43.0542   76.1836   57.7728 H   0  0  0  0  0  0  0  0  0  0  0  0
  1  2  2  0
  2  3  1  0
  3  7  1  0
  4  3  2  0
  5  4  1  0
  6  1  1  0
  6  5  2  0
  7  8  2  0
  7 16  1  0
  8  9  1  0
  9 10  2  0
 11 10  1  0
 11 12  2  0
 13 12  1  0
 14 13  2  0
 15 16  2  0
 15 14  1  0
 16 11  1  0
 17  5  1  0
 17 21  1  0
 18 19  1  0
 18 17  2  0
 19 20  2  0
 20 21  1  0
 20 27  1  0
 22 23  2  0
 22 19  1  0
 24 23  1  0
 25 26  2  0
 25 24  1  0
 26 22  1  0
 28 27  1  0
 28 30  2  0
 29 28  1  0
  1 31  1  0
  2 32  1  0
  8 33  1  0
  9 34  1  0
 10 35  1  0
 12 36  1  0
 13 37  1  0
 14 38  1  0
 15 39  1  0
 18 40  1  0
 23 41  1  0
 25 42  1  0
 29 43  1  0
 29 44  1  0
M  END
>  <Score>  (1) 
-7.24202

$$$$
