
     RDKit          3D

 50 53  0  0  1  0  0  0  0  0999 V2000
   42.4840   70.6460   62.1100 C   0  0  2  0  0  0  0  0  0  0  0  0
   39.7710   64.4390   64.4870 C   0  0  0  0  0  0  0  0  0  0  0  0
   39.3960   65.0890   65.6670 C   0  0  0  0  0  0  0  0  0  0  0  0
   39.8440   66.3750   65.8260 C   0  0  0  0  0  0  0  0  0  0  0  0
   40.6070   66.9130   64.8420 N   0  0  0  0  0  0  0  0  0  0  0  0
   40.9580   66.2530   63.7000 C   0  0  0  0  0  0  0  0  0  0  0  0
   40.5370   65.0070   63.5220 N   0  0  0  0  0  0  0  0  0  0  0  0
   41.7630   67.0610   62.8860 N   0  0  0  0  0  0  0  0  0  0  0  0
   41.6280   68.4050   62.8390 C   0  0  0  0  0  0  0  0  0  0  0  0
   42.5250   69.1370   62.0350 C   0  0  0  0  0  0  0  0  0  0  0  0
   43.4770   68.4360   61.3470 C   0  0  0  0  0  0  0  0  0  0  0  0
   44.3420   69.2050   60.5060 N   0  0  0  0  0  0  0  0  0  0  0  0
   43.5780   67.0940   61.4190 N   0  0  0  0  0  0  0  0  0  0  0  0
   42.7080   66.3710   62.2040 C   0  0  0  0  0  0  0  0  0  0  0  0
   42.8320   65.1340   62.2460 O   0  0  0  0  0  0  0  0  0  0  0  0
   41.5800   71.1590   63.1170 C   0  0  0  0  0  0  0  0  0  0  0  0
   41.8810   71.0230   60.6520 C   0  0  0  0  0  0  0  0  0  0  0  0
   42.5360   72.2410   60.2850 N   0  0  0  0  0  0  0  0  0  0  0  0
   43.7120   72.6130   60.7960 N   0  0  0  0  0  0  0  0  0  0  0  0
   44.1100   73.7900   60.2830 C   0  0  0  0  0  0  0  0  0  0  0  0
   43.1630   74.2170   59.3970 C   0  0  0  0  0  0  0  0  0  0  0  0
   42.2170   73.2220   59.4390 C   0  0  0  0  0  0  0  0  0  0  0  0
   40.9750   73.1140   58.7130 N   0  0  0  0  0  0  0  0  0  0  0  0
   40.7600   72.4890   57.5390 C   0  0  0  0  0  0  0  0  0  0  0  0
   39.4870   72.5090   57.0220 C   0  0  0  0  0  0  0  0  0  0  0  0
   39.2950   71.8050   55.7230 C   0  0  0  0  0  0  0  0  0  0  0  0
   38.4510   73.1460   57.6750 C   0  0  0  0  0  0  0  0  0  0  0  0
   37.2960   73.1520   57.1830 O   0  0  0  0  0  0  0  0  0  0  0  0
   38.7150   73.7560   58.8420 N   0  0  0  0  0  0  0  0  0  0  0  0
   39.9560   73.7410   59.3560 C   0  0  0  0  0  0  0  0  0  0  0  0
   40.0730   74.3540   60.4640 O   0  0  0  0  0  0  0  0  0  0  0  0
   43.4686   71.0640   62.3666 H   0  0  0  0  0  0  0  0  0  0  0  0
   39.4246   63.4065   64.3321 H   0  0  0  0  0  0  0  0  0  0  0  0
   38.7742   64.5945   66.4278 H   0  0  0  0  0  0  0  0  0  0  0  0
   39.5917   66.9543   66.7264 H   0  0  0  0  0  0  0  0  0  0  0  0
   40.8394   68.9139   63.4127 H   0  0  0  0  0  0  0  0  0  0  0  0
   44.2456   70.2298   60.4677 H   0  0  0  0  0  0  0  0  0  0  0  0
   45.0612   68.7339   59.9388 H   0  0  0  0  0  0  0  0  0  0  0  0
   41.9786   70.9328   64.1170 H   0  0  0  0  0  0  0  0  0  0  0  0
   41.4804   72.2482   62.9997 H   0  0  0  0  0  0  0  0  0  0  0  0
   40.5939   70.6859   62.9997 H   0  0  0  0  0  0  0  0  0  0  0  0
   42.1044   70.2292   59.9240 H   0  0  0  0  0  0  0  0  0  0  0  0
   40.7866   71.1320   60.6727 H   0  0  0  0  0  0  0  0  0  0  0  0
   45.0409   74.3194   60.5344 H   0  0  0  0  0  0  0  0  0  0  0  0
   43.1587   75.1371   58.7942 H   0  0  0  0  0  0  0  0  0  0  0  0
   41.5785   71.9783   57.0105 H   0  0  0  0  0  0  0  0  0  0  0  0
   39.0098   70.7594   55.9113 H   0  0  0  0  0  0  0  0  0  0  0  0
   38.5002   72.3042   55.1494 H   0  0  0  0  0  0  0  0  0  0  0  0
   40.2332   71.8316   55.1494 H   0  0  0  0  0  0  0  0  0  0  0  0
   37.9591   74.2397   59.3475 H   0  0  0  0  0  0  0  0  0  0  0  0
  1 16  1  0
  2  3  2  0
  3  4  1  0
  5  4  2  0
  6  5  1  0
  7  6  2  0
  7  2  1  0
  8  6  1  0
  9  8  1  0
 10  1  1  0
 10  9  2  0
 11 13  2  0
 11 10  1  0
 12 11  1  0
 13 14  1  0
 14 15  2  0
 14  8  1  0
 17  1  1  0
 18 17  1  0
 18 19  1  0
 20 19  2  0
 21 22  2  0
 21 20  1  0
 22 18  1  0
 23 30  1  0
 23 22  1  0
 24 23  1  0
 25 24  2  0
 25 27  1  0
 26 25  1  0
 27 29  1  0
 28 27  2  0
 29 30  1  0
 30 31  2  0
  1 32  1  1
  2 33  1  0
  3 34  1  0
  4 35  1  0
  9 36  1  0
 12 37  1  0
 12 38  1  0
 16 39  1  0
 16 40  1  0
 16 41  1  0
 17 42  1  0
 17 43  1  0
 20 44  1  0
 21 45  1  0
 24 46  1  0
 26 47  1  0
 26 48  1  0
 26 49  1  0
 29 50  1  0
M  END
>  <Score>  (1) 
-7.78081

$$$$
