
     RDKit          3D

 47 52  0  0  1  0  0  0  0  0999 V2000
   39.3260   27.9550   43.3000 C   0  0  0  0  0  0  0  0  0  0  0  0
   38.1530   27.2710   43.6720 C   0  0  0  0  0  0  0  0  0  0  0  0
   36.9530   27.7570   43.1960 C   0  0  0  0  0  0  0  0  0  0  0  0
   36.9790   28.8580   42.4030 N   0  0  0  0  0  0  0  0  0  0  0  0
   38.1130   29.4960   42.0610 C   0  0  0  0  0  0  0  0  0  0  0  0
   39.3060   29.0540   42.5030 N   0  0  0  0  0  0  0  0  0  0  0  0
   37.9750   30.6400   41.2180 N   0  0  0  0  0  0  0  0  0  0  0  0
   36.8190   30.8040   40.5400 C   0  0  0  0  0  0  0  0  0  0  0  0
   36.9330   31.9340   39.8310 N   0  0  0  0  0  0  0  0  0  0  0  0
   38.1260   32.4980   40.0340 C   0  0  0  0  0  0  0  0  0  0  0  0
   38.8350   33.6140   39.6210 C   0  0  0  0  0  0  0  0  0  0  0  0
   40.0880   33.8660   40.0610 N   0  0  0  0  0  0  0  0  0  0  0  0
   40.6710   33.0130   40.9250 C   0  0  0  0  0  0  0  0  0  0  0  0
   40.0050   31.9170   41.3440 N   0  0  0  0  0  0  0  0  0  0  0  0
   38.7710   31.6700   40.9090 C   0  0  0  0  0  0  0  0  0  0  0  0
   41.9830   33.1970   41.4170 N   0  0  0  0  0  0  0  0  0  0  0  0
   42.9860   34.0660   41.2090 C   0  0  0  0  0  0  0  0  0  0  0  0
   44.0500   33.7380   41.9590 N   0  0  0  0  0  0  0  0  0  0  0  0
   43.7100   32.6590   42.6380 C   0  0  0  0  0  0  0  0  0  0  0  0
   42.4340   32.3030   42.3220 N   0  0  0  0  0  0  0  0  0  0  0  0
   44.5700   31.9000   43.5810 C   0  0  1  0  0  0  0  0  0  0  0  0
   46.0520   32.1800   43.5910 C   0  0  0  0  0  0  0  0  0  0  0  0
   45.1280   32.6010   44.7880 C   0  0  2  0  0  0  0  0  0  0  0  0
   45.2080   31.7670   45.9690 N   0  0  0  0  0  0  0  0  0  0  0  0
   44.4120   30.6850   46.0390 C   0  0  0  0  0  0  0  0  0  0  0  0
   44.4200   29.8360   47.1250 C   0  0  0  0  0  0  0  0  0  0  0  0
   43.5140   28.6460   47.1510 C   0  0  0  0  0  0  0  0  0  0  0  0
   45.2810   30.1220   48.1650 C   0  0  0  0  0  0  0  0  0  0  0  0
   45.3210   29.3700   49.1790 O   0  0  0  0  0  0  0  0  0  0  0  0
   46.0830   31.2230   48.0820 N   0  0  0  0  0  0  0  0  0  0  0  0
   46.0470   32.0300   47.0040 C   0  0  0  0  0  0  0  0  0  0  0  0
   46.7760   33.0610   46.8910 O   0  0  0  0  0  0  0  0  0  0  0  0
   40.2943   27.5854   43.6686 H   0  0  0  0  0  0  0  0  0  0  0  0
   38.1920   26.3818   44.3184 H   0  0  0  0  0  0  0  0  0  0  0  0
   36.0024   27.2663   43.4518 H   0  0  0  0  0  0  0  0  0  0  0  0
   35.9466   30.1344   40.5654 H   0  0  0  0  0  0  0  0  0  0  0  0
   38.3652   34.3148   38.9152 H   0  0  0  0  0  0  0  0  0  0  0  0
   42.9418   34.9240   40.5221 H   0  0  0  0  0  0  0  0  0  0  0  0
   43.9650   30.9915   43.4447 H   0  0  0  0  0  0  0  0  0  0  0  0
   46.7710   31.3559   43.7090 H   0  0  0  0  0  0  0  0  0  0  0  0
   46.7602   32.6944   42.9248 H   0  0  0  0  0  0  0  0  0  0  0  0
   44.9325   33.5405   45.3256 H   0  0  0  0  0  0  0  0  0  0  0  0
   43.7318   30.4704   45.2016 H   0  0  0  0  0  0  0  0  0  0  0  0
   43.3028   28.3687   48.1943 H   0  0  0  0  0  0  0  0  0  0  0  0
   42.5719   28.8912   46.6389 H   0  0  0  0  0  0  0  0  0  0  0  0
   44.0011   27.8031   46.6389 H   0  0  0  0  0  0  0  0  0  0  0  0
   46.7264   31.4405   48.8563 H   0  0  0  0  0  0  0  0  0  0  0  0
  1  2  2  0
  3  2  1  0
  4  3  2  0
  5  4  1  0
  5  6  2  0
  6  1  1  0
  7  5  1  0
  8  7  1  0
  9 10  1  0
  9  8  2  0
 10 15  2  0
 11 10  1  0
 11 12  2  0
 12 13  1  0
 13 14  2  0
 13 16  1  0
 15  7  1  0
 15 14  1  0
 16 20  1  0
 17 16  1  0
 17 18  2  0
 18 19  1  0
 19 21  1  0
 20 19  2  0
 21 22  1  0
 21 23  1  0
 22 23  1  0
 23 24  1  0
 24 25  1  0
 24 31  1  0
 25 26  2  0
 26 27  1  0
 26 28  1  0
 28 29  2  0
 30 28  1  0
 31 30  1  0
 32 31  2  0
  1 33  1  0
  2 34  1  0
  3 35  1  0
  8 36  1  0
 11 37  1  0
 17 38  1  0
 21 39  1  1
 22 40  1  0
 22 41  1  0
 23 42  1  1
 25 43  1  0
 27 44  1  0
 27 45  1  0
 27 46  1  0
 30 47  1  0
M  END
>  <Score>  (1) 
-8.25288

$$$$
