
     RDKit          3D

 36 39  0  0  0  0  0  0  0  0999 V2000
   37.2400   28.5190   41.0250 C   0  0  0  0  0  0  0  0  0  0  0  0
   37.4080   29.2090   42.2460 C   0  0  0  0  0  0  0  0  0  0  0  0
   37.4220   28.6000   43.4890 C   0  0  0  0  0  0  0  0  0  0  0  0
   37.2640   27.2350   43.5570 C   0  0  0  0  0  0  0  0  0  0  0  0
   37.0950   26.5000   42.3990 C   0  0  0  0  0  0  0  0  0  0  0  0
   36.9450   25.1370   42.4540 C   0  0  0  0  0  0  0  0  0  0  0  0
   36.7820   24.3560   41.3180 C   0  0  0  0  0  0  0  0  0  0  0  0
   36.7820   25.0560   40.1270 C   0  0  0  0  0  0  0  0  0  0  0  0
   36.9330   26.4130   40.0970 C   0  0  0  0  0  0  0  0  0  0  0  0
   37.0930   27.1810   41.2070 C   0  0  0  0  0  0  0  0  0  0  0  0
   37.2560   29.3250   39.8500 C   0  0  0  0  0  0  0  0  0  0  0  0
   36.3810   29.3440   38.7530 C   0  0  0  0  0  0  0  0  0  0  0  0
   36.5220   30.2390   37.6920 C   0  0  0  0  0  0  0  0  0  0  0  0
   37.5700   31.0990   37.7860 N   0  0  0  0  0  0  0  0  0  0  0  0
   38.4150   31.1010   38.8110 C   0  0  0  0  0  0  0  0  0  0  0  0
   38.2460   30.2340   39.8020 N   0  0  0  0  0  0  0  0  0  0  0  0
   39.4540   32.0740   38.7340 N   0  0  0  0  0  0  0  0  0  0  0  0
   40.2000   31.9500   37.6170 C   0  0  0  0  0  0  0  0  0  0  0  0
   41.2480   32.8510   37.4350 C   0  0  0  0  0  0  0  0  0  0  0  0
   41.5530   33.8630   38.3510 C   0  0  0  0  0  0  0  0  0  0  0  0
   42.4850   34.6620   38.1870 O   0  0  0  0  0  0  0  0  0  0  0  0
   40.7410   33.8950   39.4340 N   0  0  0  0  0  0  0  0  0  0  0  0
   39.7220   33.0380   39.6330 C   0  0  0  0  0  0  0  0  0  0  0  0
   38.9750   33.0740   40.6380 O   0  0  0  0  0  0  0  0  0  0  0  0
   37.5360   30.3008   42.2066 H   0  0  0  0  0  0  0  0  0  0  0  0
   37.5567   29.1955   44.4040 H   0  0  0  0  0  0  0  0  0  0  0  0
   37.2722   26.7285   44.5334 H   0  0  0  0  0  0  0  0  0  0  0  0
   36.9543   24.6438   43.4372 H   0  0  0  0  0  0  0  0  0  0  0  0
   36.6620   23.2635   41.3627 H   0  0  0  0  0  0  0  0  0  0  0  0
   36.6576   24.5080   39.1814 H   0  0  0  0  0  0  0  0  0  0  0  0
   36.9247   26.9136   39.1175 H   0  0  0  0  0  0  0  0  0  0  0  0
   35.5499   28.6238   38.7286 H   0  0  0  0  0  0  0  0  0  0  0  0
   35.8308   30.2479   36.8363 H   0  0  0  0  0  0  0  0  0  0  0  0
   39.9887   31.1653   36.8756 H   0  0  0  0  0  0  0  0  0  0  0  0
   41.8642   32.7619   36.5282 H   0  0  0  0  0  0  0  0  0  0  0  0
   40.9130   34.6175   40.1476 H   0  0  0  0  0  0  0  0  0  0  0  0
  1 10  1  0
  1  2  2  0
  2  3  1  0
  3  4  2  0
  5  6  2  0
  5  4  1  0
  7  6  1  0
  8  7  2  0
  9  8  1  0
  9 10  2  0
 10  5  1  0
 11  1  1  0
 12 11  2  0
 13 14  2  0
 13 12  1  0
 14 15  1  0
 15 16  2  0
 16 11  1  0
 17 15  1  0
 17 23  1  0
 18 17  1  0
 19 18  2  0
 19 20  1  0
 20 22  1  0
 21 20  2  0
 22 23  1  0
 23 24  2  0
  2 25  1  0
  3 26  1  0
  4 27  1  0
  6 28  1  0
  7 29  1  0
  8 30  1  0
  9 31  1  0
 12 32  1  0
 13 33  1  0
 18 34  1  0
 19 35  1  0
 22 36  1  0
M  END
>  <Score>  (1) 
-7.2206

$$$$
