
     RDKit          3D

 41 46  0  0  1  0  0  0  0  0999 V2000
   40.3620   27.9690   43.0240 C   0  0  0  0  0  0  0  0  0  0  0  0
   39.4950   27.1320   43.7520 C   0  0  0  0  0  0  0  0  0  0  0  0
   38.1250   27.4180   43.7350 C   0  0  0  0  0  0  0  0  0  0  0  0
   37.7350   28.4980   43.0060 N   0  0  0  0  0  0  0  0  0  0  0  0
   38.5660   29.2820   42.3220 C   0  0  0  0  0  0  0  0  0  0  0  0
   39.9070   29.0330   42.3170 N   0  0  0  0  0  0  0  0  0  0  0  0
   37.9920   30.3790   41.6050 N   0  0  0  0  0  0  0  0  0  0  0  0
   36.6720   30.3650   41.3820 C   0  0  0  0  0  0  0  0  0  0  0  0
   36.3760   31.4770   40.6980 N   0  0  0  0  0  0  0  0  0  0  0  0
   37.4680   32.2020   40.4750 C   0  0  0  0  0  0  0  0  0  0  0  0
   37.8240   33.3870   39.8610 C   0  0  0  0  0  0  0  0  0  0  0  0
   39.0930   33.8150   39.8380 N   0  0  0  0  0  0  0  0  0  0  0  0
   40.0550   33.0860   40.4210 C   0  0  0  0  0  0  0  0  0  0  0  0
   39.7460   31.9180   41.0340 N   0  0  0  0  0  0  0  0  0  0  0  0
   38.4840   31.4940   41.0550 C   0  0  0  0  0  0  0  0  0  0  0  0
   41.4260   33.4620   40.4450 N   0  0  0  0  0  0  0  0  0  0  0  0
   42.1680   34.4490   39.9080 C   0  0  0  0  0  0  0  0  0  0  0  0
   43.4470   34.3090   40.2560 N   0  0  0  0  0  0  0  0  0  0  0  0
   43.5190   33.2320   41.0160 C   0  0  0  0  0  0  0  0  0  0  0  0
   42.2730   32.6960   41.1420 N   0  0  0  0  0  0  0  0  0  0  0  0
   44.7340   32.6400   41.6350 C   0  0  1  0  0  0  0  0  0  0  0  0
   46.0770   33.2440   41.3300 C   0  0  0  0  0  0  0  0  0  0  0  0
   45.4240   33.3920   42.7440 C   0  0  1  0  0  0  0  0  0  0  0  0
   45.0550   34.7380   43.0490 N   0  0  0  0  0  0  0  0  0  0  0  0
   43.8670   35.2450   43.3880 N   0  0  0  0  0  0  0  0  0  0  0  0
   43.9480   36.5690   43.5920 C   0  0  0  0  0  0  0  0  0  0  0  0
   45.2700   36.9740   43.3770 C   0  0  0  0  0  0  0  0  0  0  0  0
   45.9160   35.7970   43.0410 C   0  0  0  0  0  0  0  0  0  0  0  0
   41.4407   27.7534   43.0289 H   0  0  0  0  0  0  0  0  0  0  0  0
   39.8847   26.2745   44.3201 H   0  0  0  0  0  0  0  0  0  0  0  0
   37.3995   26.7998   44.2841 H   0  0  0  0  0  0  0  0  0  0  0  0
   35.9637   29.5861   41.7009 H   0  0  0  0  0  0  0  0  0  0  0  0
   37.0449   33.9952   39.3782 H   0  0  0  0  0  0  0  0  0  0  0  0
   41.7746   35.2561   39.2725 H   0  0  0  0  0  0  0  0  0  0  0  0
   44.3175   31.6260   41.5440 H   0  0  0  0  0  0  0  0  0  0  0  0
   46.9559   32.5973   41.1914 H   0  0  0  0  0  0  0  0  0  0  0  0
   46.4724   33.9360   40.5718 H   0  0  0  0  0  0  0  0  0  0  0  0
   45.6433   33.1360   43.7911 H   0  0  0  0  0  0  0  0  0  0  0  0
   43.1143   37.2261   43.8801 H   0  0  0  0  0  0  0  0  0  0  0  0
   45.6943   37.9858   43.4561 H   0  0  0  0  0  0  0  0  0  0  0  0
   46.9865   35.7243   42.7985 H   0  0  0  0  0  0  0  0  0  0  0  0
  1  2  2  0
  3  2  1  0
  4  3  2  0
  5  4  1  0
  6  5  2  0
  6  1  1  0
  7  5  1  0
  8  7  1  0
  9  8  2  0
 10  9  1  0
 10 15  2  0
 11 10  1  0
 12 11  2  0
 12 13  1  0
 13 16  1  0
 13 14  2  0
 14 15  1  0
 15  7  1  0
 16 20  1  0
 17 18  2  0
 17 16  1  0
 18 19  1  0
 19 20  2  0
 19 21  1  0
 21 23  1  0
 22 21  1  0
 22 23  1  0
 23 24  1  0
 24 25  1  0
 25 26  2  0
 27 26  1  0
 28 24  1  0
 28 27  2  0
  1 29  1  0
  2 30  1  0
  3 31  1  0
  8 32  1  0
 11 33  1  0
 17 34  1  0
 21 35  1  1
 22 36  1  0
 22 37  1  0
 23 38  1  1
 26 39  1  0
 27 40  1  0
 28 41  1  0
M  END
>  <Score>  (1) 
-7.01853

$$$$
