
     RDKit          3D

 52 57  0  0  0  0  0  0  0  0999 V2000
   42.8220   34.1670   37.8720 C   0  0  0  0  0  0  0  0  0  0  0  0
   43.8780   33.9630   38.7870 C   0  0  0  0  0  0  0  0  0  0  0  0
   43.6700   34.2060   40.1040 C   0  0  0  0  0  0  0  0  0  0  0  0
   42.4380   34.6390   40.4790 N   0  0  0  0  0  0  0  0  0  0  0  0
   41.4380   34.8330   39.6070 C   0  0  0  0  0  0  0  0  0  0  0  0
   41.6350   34.5990   38.3300 N   0  0  0  0  0  0  0  0  0  0  0  0
   44.8050   33.9740   41.0100 C   0  0  0  0  0  0  0  0  0  0  0  0
   45.3700   35.1440   41.6770 C   0  0  0  0  0  0  0  0  0  0  0  0
   44.9480   35.5220   43.0160 C   0  0  0  0  0  0  0  0  0  0  0  0
   44.0830   36.5760   42.9530 N   0  0  0  0  0  0  0  0  0  0  0  0
   43.5670   37.1480   44.0640 C   0  0  0  0  0  0  0  0  0  0  0  0
   43.9060   36.6730   45.2830 N   0  0  0  0  0  0  0  0  0  0  0  0
   44.7490   35.6390   45.4370 C   0  0  0  0  0  0  0  0  0  0  0  0
   45.1210   35.0880   46.6710 C   0  0  0  0  0  0  0  0  0  0  0  0
   45.9830   34.0130   46.5960 C   0  0  0  0  0  0  0  0  0  0  0  0
   46.5120   33.4270   45.4670 C   0  0  0  0  0  0  0  0  0  0  0  0
   46.1080   34.0120   44.2920 C   0  0  0  0  0  0  0  0  0  0  0  0
   45.2520   35.0870   44.2880 C   0  0  0  0  0  0  0  0  0  0  0  0
   39.8320   35.4210   40.1520 S   0  0  0  0  0  0  0  0  0  0  0  0
   36.9800   32.6930   40.0960 N   0  0  0  0  0  0  0  0  0  0  0  0
   37.3650   33.9090   39.8090 N   0  0  0  0  0  0  0  0  0  0  0  0
   38.6690   34.0470   40.1760 C   0  0  0  0  0  0  0  0  0  0  0  0
   39.0110   32.8040   40.6970 C   0  0  0  0  0  0  0  0  0  0  0  0
   37.8890   31.9470   40.6310 C   0  0  0  0  0  0  0  0  0  0  0  0
   37.9930   30.6380   41.1560 C   0  0  0  0  0  0  0  0  0  0  0  0
   38.6720   30.4290   42.3210 N   0  0  0  0  0  0  0  0  0  0  0  0
   38.8150   29.2770   42.9410 C   0  0  0  0  0  0  0  0  0  0  0  0
   38.2850   28.1420   42.4750 N   0  0  0  0  0  0  0  0  0  0  0  0
   37.5860   28.2160   41.3230 C   0  0  0  0  0  0  0  0  0  0  0  0
   37.0200   27.0910   40.7960 C   0  0  0  0  0  0  0  0  0  0  0  0
   36.2940   27.1340   39.6030 C   0  0  0  0  0  0  0  0  0  0  0  0
   36.1810   28.3830   38.9850 C   0  0  0  0  0  0  0  0  0  0  0  0
   36.7820   29.4530   39.5900 C   0  0  0  0  0  0  0  0  0  0  0  0
   37.4850   29.4490   40.7380 C   0  0  0  0  0  0  0  0  0  0  0  0
   42.9691   33.9749   36.7989 H   0  0  0  0  0  0  0  0  0  0  0  0
   44.8587   33.6107   38.4347 H   0  0  0  0  0  0  0  0  0  0  0  0
   44.4689   33.2765   41.7913 H   0  0  0  0  0  0  0  0  0  0  0  0
   45.6120   33.5944   40.3660 H   0  0  0  0  0  0  0  0  0  0  0  0
   46.4567   34.9807   41.7265 H   0  0  0  0  0  0  0  0  0  0  0  0
   44.9951   35.9758   41.0626 H   0  0  0  0  0  0  0  0  0  0  0  0
   42.8735   37.9973   43.9761 H   0  0  0  0  0  0  0  0  0  0  0  0
   44.7528   35.4836   47.6291 H   0  0  0  0  0  0  0  0  0  0  0  0
   46.2850   33.5692   47.5561 H   0  0  0  0  0  0  0  0  0  0  0  0
   47.1970   32.5671   45.5034 H   0  0  0  0  0  0  0  0  0  0  0  0
   46.4767   33.6124   43.3358 H   0  0  0  0  0  0  0  0  0  0  0  0
   36.0248   32.3555   39.9098 H   0  0  0  0  0  0  0  0  0  0  0  0
   39.9985   32.5309   41.0972 H   0  0  0  0  0  0  0  0  0  0  0  0
   39.3919   29.2472   43.8771 H   0  0  0  0  0  0  0  0  0  0  0  0
   37.1379   26.1316   41.3210 H   0  0  0  0  0  0  0  0  0  0  0  0
   35.8351   26.2318   39.1723 H   0  0  0  0  0  0  0  0  0  0  0  0
   35.6266   28.5017   38.0424 H   0  0  0  0  0  0  0  0  0  0  0  0
   36.6794   30.4234   39.0824 H   0  0  0  0  0  0  0  0  0  0  0  0
  1  6  2  0
  1  2  1  0
  2  3  2  0
  3  4  1  0
  3  7  1  0
  5 19  1  0
  5  4  2  0
  6  5  1  0
  7  8  1  0
  8  9  1  0
  9 18  1  0
 10  9  2  0
 10 11  1  0
 11 12  2  0
 12 13  1  0
 13 14  2  0
 15 14  1  0
 16 15  2  0
 17 16  1  0
 18 17  2  0
 18 13  1  0
 19 22  1  0
 20 24  1  0
 21 20  1  0
 21 22  2  0
 22 23  1  0
 24 23  2  0
 24 25  1  0
 25 26  2  0
 26 27  1  0
 28 27  2  0
 29 28  1  0
 30 29  2  0
 31 30  1  0
 32 33  1  0
 32 31  2  0
 33 34  2  0
 34 25  1  0
 34 29  1  0
  1 35  1  0
  2 36  1  0
  7 37  1  0
  7 38  1  0
  8 39  1  0
  8 40  1  0
 11 41  1  0
 14 42  1  0
 15 43  1  0
 16 44  1  0
 17 45  1  0
 20 46  1  0
 23 47  1  0
 27 48  1  0
 30 49  1  0
 31 50  1  0
 32 51  1  0
 33 52  1  0
M  END
>  <Score>  (1) 
-8.23768

$$$$
