
     RDKit          3D

 50 54  0  0  0  0  0  0  0  0999 V2000
   37.4590   28.5680   43.8700 C   0  0  0  0  0  0  0  0  0  0  0  0
   37.1340   27.2090   43.8100 C   0  0  0  0  0  0  0  0  0  0  0  0
   36.9920   26.6320   42.5560 C   0  0  0  0  0  0  0  0  0  0  0  0
   37.1780   27.4170   41.4560 N   0  0  0  0  0  0  0  0  0  0  0  0
   37.4880   28.7200   41.5460 C   0  0  0  0  0  0  0  0  0  0  0  0
   37.6300   29.3000   42.7470 N   0  0  0  0  0  0  0  0  0  0  0  0
   37.6550   29.4350   40.3340 N   0  0  0  0  0  0  0  0  0  0  0  0
   37.5220   28.8580   39.1300 C   0  0  0  0  0  0  0  0  0  0  0  0
   37.7140   29.6930   38.0520 C   0  0  0  0  0  0  0  0  0  0  0  0
   38.0220   31.0270   38.1510 C   0  0  0  0  0  0  0  0  0  0  0  0
   38.1980   31.7760   37.1630 O   0  0  0  0  0  0  0  0  0  0  0  0
   38.1450   31.5610   39.3810 N   0  0  0  0  0  0  0  0  0  0  0  0
   37.9610   30.7620   40.4760 C   0  0  0  0  0  0  0  0  0  0  0  0
   38.0870   31.3060   41.6100 O   0  0  0  0  0  0  0  0  0  0  0  0
   38.4660   32.9510   39.5860 C   0  0  0  0  0  0  0  0  0  0  0  0
   37.7240   34.1050   39.6960 C   0  0  0  0  0  0  0  0  0  0  0  0
   38.5830   35.1400   39.8840 N   0  0  0  0  0  0  0  0  0  0  0  0
   39.8530   34.6610   39.8950 C   0  0  0  0  0  0  0  0  0  0  0  0
   41.0520   35.3200   40.0510 C   0  0  0  0  0  0  0  0  0  0  0  0
   42.2620   34.6380   40.0300 C   0  0  0  0  0  0  0  0  0  0  0  0
   42.2160   33.2860   39.8470 C   0  0  0  0  0  0  0  0  0  0  0  0
   41.0130   32.6450   39.6920 C   0  0  0  0  0  0  0  0  0  0  0  0
   39.7960   33.2960   39.7090 C   0  0  0  0  0  0  0  0  0  0  0  0
   37.5730   29.1690   36.6850 C   0  0  0  0  0  0  0  0  0  0  0  0
   36.1820   29.1730   36.3170 N   0  0  0  0  0  0  0  0  0  0  0  0
   35.0860   29.1190   37.0630 C   0  0  0  0  0  0  0  0  0  0  0  0
   33.7990   29.1480   36.6030 C   0  0  0  0  0  0  0  0  0  0  0  0
   32.6510   29.0800   37.5370 C   0  0  0  0  0  0  0  0  0  0  0  0
   33.5700   29.2430   35.2470 C   0  0  0  0  0  0  0  0  0  0  0  0
   32.3940   29.2710   34.8060 O   0  0  0  0  0  0  0  0  0  0  0  0
   34.6650   29.3010   34.4480 N   0  0  0  0  0  0  0  0  0  0  0  0
   35.8900   29.2650   34.9960 C   0  0  0  0  0  0  0  0  0  0  0  0
   36.7740   29.3310   34.1000 O   0  0  0  0  0  0  0  0  0  0  0  0
   37.5778   29.0508   44.8512 H   0  0  0  0  0  0  0  0  0  0  0  0
   36.9955   26.6170   44.7267 H   0  0  0  0  0  0  0  0  0  0  0  0
   36.7357   25.5674   42.4515 H   0  0  0  0  0  0  0  0  0  0  0  0
   37.2767   27.7922   39.0123 H   0  0  0  0  0  0  0  0  0  0  0  0
   36.6277   34.1764   39.6413 H   0  0  0  0  0  0  0  0  0  0  0  0
   38.3145   36.1277   39.9994 H   0  0  0  0  0  0  0  0  0  0  0  0
   41.0516   36.4105   40.1954 H   0  0  0  0  0  0  0  0  0  0  0  0
   43.2187   35.1661   40.1558 H   0  0  0  0  0  0  0  0  0  0  0  0
   43.1505   32.7062   39.8236 H   0  0  0  0  0  0  0  0  0  0  0  0
   41.0186   31.5547   39.5465 H   0  0  0  0  0  0  0  0  0  0  0  0
   38.1397   29.8035   35.9877 H   0  0  0  0  0  0  0  0  0  0  0  0
   37.9635   28.1416   36.6414 H   0  0  0  0  0  0  0  0  0  0  0  0
   35.2258   29.0440   38.1515 H   0  0  0  0  0  0  0  0  0  0  0  0
   33.0196   29.1018   38.5732 H   0  0  0  0  0  0  0  0  0  0  0  0
   31.9874   29.9404   37.3656 H   0  0  0  0  0  0  0  0  0  0  0  0
   32.0936   28.1473   37.3656 H   0  0  0  0  0  0  0  0  0  0  0  0
   34.5570   29.3723   33.4262 H   0  0  0  0  0  0  0  0  0  0  0  0
  2  1  2  0
  3  2  1  0
  4  5  1  0
  4  3  2  0
  5  6  2  0
  6  1  1  0
  7 13  1  0
  7  5  1  0
  8  7  1  0
  9 10  1  0
  9  8  2  0
 10 12  1  0
 11 10  2  0
 12 15  1  0
 12 13  1  0
 13 14  2  0
 15 16  2  0
 15 23  1  0
 16 17  1  0
 17 18  1  0
 18 19  2  0
 20 19  1  0
 21 20  2  0
 22 23  2  0
 22 21  1  0
 23 18  1  0
 24  9  1  0
 25 24  1  0
 25 26  1  0
 27 26  2  0
 27 28  1  0
 29 27  1  0
 30 29  2  0
 31 32  1  0
 31 29  1  0
 32 25  1  0
 33 32  2  0
  1 34  1  0
  2 35  1  0
  3 36  1  0
  8 37  1  0
 16 38  1  0
 17 39  1  0
 19 40  1  0
 20 41  1  0
 21 42  1  0
 22 43  1  0
 24 44  1  0
 24 45  1  0
 26 46  1  0
 28 47  1  0
 28 48  1  0
 28 49  1  0
 31 50  1  0
M  END
>  <Score>  (1) 
-7.20474

$$$$
