
     RDKit          3D

 54 59  0  0  0  0  0  0  0  0999 V2000
   42.9370   34.7170   40.6920 C   0  0  0  0  0  0  0  0  0  0  0  0
   43.4020   35.5120   41.7620 C   0  0  0  0  0  0  0  0  0  0  0  0
   42.5860   36.4600   42.2940 C   0  0  0  0  0  0  0  0  0  0  0  0
   41.3460   36.5960   41.7530 N   0  0  0  0  0  0  0  0  0  0  0  0
   40.9150   35.8360   40.7330 C   0  0  0  0  0  0  0  0  0  0  0  0
   41.7010   34.9170   40.2190 N   0  0  0  0  0  0  0  0  0  0  0  0
   43.1040   37.2280   43.4400 C   0  0  0  0  0  0  0  0  0  0  0  0
   44.4880   36.9840   43.8220 C   0  0  0  0  0  0  0  0  0  0  0  0
   44.9090   35.9780   44.7470 C   0  0  0  0  0  0  0  0  0  0  0  0
   44.4280   36.0330   46.0590 C   0  0  0  0  0  0  0  0  0  0  0  0
   44.7070   35.0530   47.0190 C   0  0  0  0  0  0  0  0  0  0  0  0
   45.4950   33.9530   46.7090 C   0  0  0  0  0  0  0  0  0  0  0  0
   46.0030   33.8380   45.4340 C   0  0  0  0  0  0  0  0  0  0  0  0
   46.8320   32.8040   45.0470 C   0  0  0  0  0  0  0  0  0  0  0  0
   47.3890   32.6990   43.7810 C   0  0  0  0  0  0  0  0  0  0  0  0
   47.0870   33.7010   42.8500 C   0  0  0  0  0  0  0  0  0  0  0  0
   46.2580   34.7110   43.2800 C   0  0  0  0  0  0  0  0  0  0  0  0
   45.6900   34.8340   44.5420 C   0  0  0  0  0  0  0  0  0  0  0  0
   39.2730   36.0760   40.0340 S   0  0  0  0  0  0  0  0  0  0  0  0
   36.9780   32.8670   39.9590 N   0  0  0  0  0  0  0  0  0  0  0  0
   37.1750   34.1050   39.5890 N   0  0  0  0  0  0  0  0  0  0  0  0
   38.3780   34.5150   40.0790 C   0  0  0  0  0  0  0  0  0  0  0  0
   38.8630   33.4090   40.7620 C   0  0  0  0  0  0  0  0  0  0  0  0
   37.9300   32.3510   40.6680 C   0  0  0  0  0  0  0  0  0  0  0  0
   38.1960   31.1350   41.3370 C   0  0  0  0  0  0  0  0  0  0  0  0
   39.3380   31.0010   42.0690 N   0  0  0  0  0  0  0  0  0  0  0  0
   39.6940   29.9490   42.7730 C   0  0  0  0  0  0  0  0  0  0  0  0
   38.9310   28.8480   42.8450 N   0  0  0  0  0  0  0  0  0  0  0  0
   37.7750   28.8520   42.1630 C   0  0  0  0  0  0  0  0  0  0  0  0
   36.9550   27.7670   42.1940 C   0  0  0  0  0  0  0  0  0  0  0  0
   35.7480   27.7370   41.4970 C   0  0  0  0  0  0  0  0  0  0  0  0
   35.4280   28.8810   40.7630 C   0  0  0  0  0  0  0  0  0  0  0  0
   36.3060   29.9290   40.7850 C   0  0  0  0  0  0  0  0  0  0  0  0
   37.4760   29.9890   41.4500 C   0  0  0  0  0  0  0  0  0  0  0  0
   43.5827   33.9426   40.2523 H   0  0  0  0  0  0  0  0  0  0  0  0
   44.4162   35.3655   42.1618 H   0  0  0  0  0  0  0  0  0  0  0  0
   43.0098   38.2962   43.1947 H   0  0  0  0  0  0  0  0  0  0  0  0
   42.5051   36.8985   44.3018 H   0  0  0  0  0  0  0  0  0  0  0  0
   45.0189   36.7637   42.8841 H   0  0  0  0  0  0  0  0  0  0  0  0
   44.7023   37.8945   44.4009 H   0  0  0  0  0  0  0  0  0  0  0  0
   43.8000   36.8877   46.3508 H   0  0  0  0  0  0  0  0  0  0  0  0
   44.2957   35.1561   48.0340 H   0  0  0  0  0  0  0  0  0  0  0  0
   45.7099   33.1867   47.4683 H   0  0  0  0  0  0  0  0  0  0  0  0
   47.0635   32.0202   45.7832 H   0  0  0  0  0  0  0  0  0  0  0  0
   48.0459   31.8571   43.5170 H   0  0  0  0  0  0  0  0  0  0  0  0
   47.4920   33.6812   41.8275 H   0  0  0  0  0  0  0  0  0  0  0  0
   46.0210   35.5005   42.5516 H   0  0  0  0  0  0  0  0  0  0  0  0
   36.1291   32.3416   39.7055 H   0  0  0  0  0  0  0  0  0  0  0  0
   39.8246   33.3625   41.2942 H   0  0  0  0  0  0  0  0  0  0  0  0
   40.6479   29.9725   43.3203 H   0  0  0  0  0  0  0  0  0  0  0  0
   37.2526   26.8887   42.7856 H   0  0  0  0  0  0  0  0  0  0  0  0
   35.0842   26.8603   41.5238 H   0  0  0  0  0  0  0  0  0  0  0  0
   34.4951   28.9376   40.1829 H   0  0  0  0  0  0  0  0  0  0  0  0
   36.0276   30.8166   40.1979 H   0  0  0  0  0  0  0  0  0  0  0  0
  1  2  2  0
  2  3  1  0
  3  7  1  0
  4  3  2  0
  5  4  1  0
  6  1  1  0
  6  5  2  0
  7  8  1  0
  8  9  1  0
  9 10  2  0
 10 11  1  0
 12 11  2  0
 13 12  1  0
 14 13  2  0
 15 14  1  0
 16 17  1  0
 16 15  2  0
 17 18  2  0
 18  9  1  0
 18 13  1  0
 19 22  1  0
 19  5  1  0
 20 24  1  0
 21 20  1  0
 21 22  2  0
 22 23  1  0
 24 23  2  0
 24 25  1  0
 25 34  1  0
 25 26  2  0
 26 27  1  0
 27 28  2  0
 29 30  2  0
 29 28  1  0
 31 30  1  0
 32 33  1  0
 32 31  2  0
 33 34  2  0
 34 29  1  0
  1 35  1  0
  2 36  1  0
  7 37  1  0
  7 38  1  0
  8 39  1  0
  8 40  1  0
 10 41  1  0
 11 42  1  0
 12 43  1  0
 14 44  1  0
 15 45  1  0
 16 46  1  0
 17 47  1  0
 20 48  1  0
 23 49  1  0
 27 50  1  0
 30 51  1  0
 31 52  1  0
 32 53  1  0
 33 54  1  0
M  END
>  <Score>  (1) 
-8.13513

$$$$
