
     RDKit          3D

 32 36  0  0  0  0  0  0  0  0999 V2000
   40.4960   29.3530   42.4500 C   0  0  0  0  0  0  0  0  0  0  0  0
   39.3280   28.6040   42.7740 C   0  0  0  0  0  0  0  0  0  0  0  0
   38.0730   29.1550   42.4630 C   0  0  0  0  0  0  0  0  0  0  0  0
   38.0610   30.3880   41.8640 N   0  0  0  0  0  0  0  0  0  0  0  0
   39.1770   31.0740   41.5700 C   0  0  0  0  0  0  0  0  0  0  0  0
   40.3960   30.5570   41.8620 N   0  0  0  0  0  0  0  0  0  0  0  0
   38.9550   32.3420   40.9470 N   0  0  0  0  0  0  0  0  0  0  0  0
   37.7480   32.5940   40.4210 C   0  0  0  0  0  0  0  0  0  0  0  0
   37.7880   33.8420   39.8980 N   0  0  0  0  0  0  0  0  0  0  0  0
   39.0130   34.3860   40.0870 C   0  0  0  0  0  0  0  0  0  0  0  0
   39.6820   35.5600   39.8120 C   0  0  0  0  0  0  0  0  0  0  0  0
   40.9780   35.7390   40.1830 N   0  0  0  0  0  0  0  0  0  0  0  0
   41.6310   34.7440   40.8360 C   0  0  0  0  0  0  0  0  0  0  0  0
   40.9980   33.5910   41.1150 N   0  0  0  0  0  0  0  0  0  0  0  0
   39.7320   33.4200   40.7510 C   0  0  0  0  0  0  0  0  0  0  0  0
   43.0010   34.9210   41.2340 N   0  0  0  0  0  0  0  0  0  0  0  0
   44.0450   34.3300   40.6370 C   0  0  0  0  0  0  0  0  0  0  0  0
   45.1720   34.7270   41.2780 N   0  0  0  0  0  0  0  0  0  0  0  0
   44.8020   35.5710   42.2750 C   0  0  0  0  0  0  0  0  0  0  0  0
   45.6020   36.2250   43.1920 C   0  0  0  0  0  0  0  0  0  0  0  0
   44.9390   37.0080   44.0770 N   0  0  0  0  0  0  0  0  0  0  0  0
   43.6010   37.1330   44.0570 C   0  0  0  0  0  0  0  0  0  0  0  0
   42.8140   36.4860   43.1520 N   0  0  0  0  0  0  0  0  0  0  0  0
   43.4240   35.6830   42.2350 C   0  0  0  0  0  0  0  0  0  0  0  0
   41.4891   28.9416   42.6835 H   0  0  0  0  0  0  0  0  0  0  0  0
   39.4066   27.6183   43.2559 H   0  0  0  0  0  0  0  0  0  0  0  0
   37.1396   28.6194   42.6907 H   0  0  0  0  0  0  0  0  0  0  0  0
   36.8845   31.9125   40.4154 H   0  0  0  0  0  0  0  0  0  0  0  0
   39.1567   36.3681   39.2818 H   0  0  0  0  0  0  0  0  0  0  0  0
   43.9963   33.6439   39.7785 H   0  0  0  0  0  0  0  0  0  0  0  0
   46.6967   36.1179   43.2029 H   0  0  0  0  0  0  0  0  0  0  0  0
   43.1212   37.7846   44.8021 H   0  0  0  0  0  0  0  0  0  0  0  0
  1  2  2  0
  3  2  1  0
  4  3  2  0
  5  6  2  0
  5  4  1  0
  6  1  1  0
  7  5  1  0
  8  7  1  0
  9 10  1  0
  9  8  2  0
 10 15  2  0
 11 10  1  0
 11 12  2  0
 12 13  1  0
 13 14  2  0
 13 16  1  0
 15  7  1  0
 15 14  1  0
 16 24  1  0
 17 16  1  0
 17 18  2  0
 18 19  1  0
 19 20  2  0
 20 21  1  0
 22 21  2  0
 23 22  1  0
 24 19  1  0
 24 23  2  0
  1 25  1  0
  2 26  1  0
  3 27  1  0
  8 28  1  0
 11 29  1  0
 17 30  1  0
 20 31  1  0
 22 32  1  0
M  END
>  <Score>  (1) 
-7.28818

$$$$
