
     RDKit          3D

 51 56  0  0  0  0  0  0  0  0999 V2000
   37.3010   28.5440   43.9100 C   0  0  0  0  0  0  0  0  0  0  0  0
   37.1270   27.1470   43.8750 C   0  0  0  0  0  0  0  0  0  0  0  0
   37.1670   26.5220   42.6360 C   0  0  0  0  0  0  0  0  0  0  0  0
   37.3700   27.2910   41.5290 N   0  0  0  0  0  0  0  0  0  0  0  0
   37.5330   28.6250   41.5950 C   0  0  0  0  0  0  0  0  0  0  0  0
   37.4990   29.2500   42.7760 N   0  0  0  0  0  0  0  0  0  0  0  0
   37.7390   29.3130   40.3630 N   0  0  0  0  0  0  0  0  0  0  0  0
   37.7970   28.6840   39.1880 C   0  0  0  0  0  0  0  0  0  0  0  0
   38.0020   29.4970   38.0980 C   0  0  0  0  0  0  0  0  0  0  0  0
   38.1430   30.8590   38.1660 C   0  0  0  0  0  0  0  0  0  0  0  0
   38.3300   31.5980   37.1670 O   0  0  0  0  0  0  0  0  0  0  0  0
   38.0770   31.4560   39.3750 N   0  0  0  0  0  0  0  0  0  0  0  0
   37.8730   30.6650   40.4810 C   0  0  0  0  0  0  0  0  0  0  0  0
   37.8180   31.2660   41.5990 O   0  0  0  0  0  0  0  0  0  0  0  0
   38.2130   32.8730   39.5560 C   0  0  0  0  0  0  0  0  0  0  0  0
   37.3550   33.9470   39.4910 C   0  0  0  0  0  0  0  0  0  0  0  0
   38.0640   35.0680   39.7590 N   0  0  0  0  0  0  0  0  0  0  0  0
   39.3660   34.7310   39.9970 C   0  0  0  0  0  0  0  0  0  0  0  0
   40.4370   35.5220   40.3070 C   0  0  0  0  0  0  0  0  0  0  0  0
   41.6940   34.9810   40.5120 C   0  0  0  0  0  0  0  0  0  0  0  0
   41.8220   33.6270   40.3940 C   0  0  0  0  0  0  0  0  0  0  0  0
   40.7340   32.8510   40.0830 C   0  0  0  0  0  0  0  0  0  0  0  0
   39.4750   33.3640   39.8740 C   0  0  0  0  0  0  0  0  0  0  0  0
   38.0870   28.9180   36.7530 C   0  0  0  0  0  0  0  0  0  0  0  0
   36.8880   28.9890   35.9740 N   0  0  0  0  0  0  0  0  0  0  0  0
   36.6350   29.0140   34.6530 C   0  0  0  0  0  0  0  0  0  0  0  0
   35.3090   29.0840   34.4070 N   0  0  0  0  0  0  0  0  0  0  0  0
   34.6800   29.1070   35.5960 C   0  0  0  0  0  0  0  0  0  0  0  0
   33.3230   29.1750   35.8230 C   0  0  0  0  0  0  0  0  0  0  0  0
   32.4930   29.2260   34.8850 O   0  0  0  0  0  0  0  0  0  0  0  0
   32.9060   29.1860   37.1120 N   0  0  0  0  0  0  0  0  0  0  0  0
   33.8540   29.1280   38.0830 C   0  0  0  0  0  0  0  0  0  0  0  0
   33.3510   29.1430   39.4120 N   0  0  0  0  0  0  0  0  0  0  0  0
   35.1660   29.0630   37.8230 N   0  0  0  0  0  0  0  0  0  0  0  0
   35.6610   29.0480   36.5700 C   0  0  0  0  0  0  0  0  0  0  0  0
   37.2752   29.0685   44.8765 H   0  0  0  0  0  0  0  0  0  0  0  0
   36.9649   26.5707   44.7978 H   0  0  0  0  0  0  0  0  0  0  0  0
   37.0380   25.4330   42.5497 H   0  0  0  0  0  0  0  0  0  0  0  0
   37.6886   27.5931   39.0975 H   0  0  0  0  0  0  0  0  0  0  0  0
   36.2802   33.9021   39.2612 H   0  0  0  0  0  0  0  0  0  0  0  0
   37.6821   36.0243   39.7802 H   0  0  0  0  0  0  0  0  0  0  0  0
   40.2968   36.6095   40.3952 H   0  0  0  0  0  0  0  0  0  0  0  0
   42.5564   35.6171   40.7603 H   0  0  0  0  0  0  0  0  0  0  0  0
   42.8035   33.1552   40.5492 H   0  0  0  0  0  0  0  0  0  0  0  0
   40.8758   31.7636   39.9964 H   0  0  0  0  0  0  0  0  0  0  0  0
   38.8791   29.4492   36.2049 H   0  0  0  0  0  0  0  0  0  0  0  0
   38.2897   27.8466   36.8980 H   0  0  0  0  0  0  0  0  0  0  0  0
   37.4096   28.9816   33.8726 H   0  0  0  0  0  0  0  0  0  0  0  0
   31.9046   29.2366   37.3475 H   0  0  0  0  0  0  0  0  0  0  0  0
   34.0017   29.1021   40.2094 H   0  0  0  0  0  0  0  0  0  0  0  0
   32.3358   29.1948   39.5779 H   0  0  0  0  0  0  0  0  0  0  0  0
  2  1  2  0
  3  2  1  0
  4  5  1  0
  4  3  2  0
  5  6  2  0
  6  1  1  0
  7 13  1  0
  7  5  1  0
  8  7  1  0
  9 10  1  0
  9  8  2  0
 10 12  1  0
 11 10  2  0
 12 15  1  0
 12 13  1  0
 13 14  2  0
 15 23  1  0
 16 15  2  0
 16 17  1  0
 17 18  1  0
 18 19  2  0
 19 20  1  0
 21 20  2  0
 22 21  1  0
 23 18  1  0
 23 22  2  0
 24  9  1  0
 25 35  1  0
 25 24  1  0
 26 25  1  0
 27 26  2  0
 27 28  1  0
 28 29  1  0
 28 35  2  0
 29 31  1  0
 30 29  2  0
 31 32  1  0
 32 33  1  0
 34 32  2  0
 35 34  1  0
  1 36  1  0
  2 37  1  0
  3 38  1  0
  8 39  1  0
 16 40  1  0
 17 41  1  0
 19 42  1  0
 20 43  1  0
 21 44  1  0
 22 45  1  0
 24 46  1  0
 24 47  1  0
 26 48  1  0
 31 49  1  0
 33 50  1  0
 33 51  1  0
M  END
>  <Score>  (1) 
-7.46901

$$$$
