
 OpenBabel03272508423D

 14 14  0  0  0  0  0  0  0  0999 V2000
   38.1190   25.6030   34.9850 C   0  0  0  0  0  0  0  0  0  0  0  0
   38.1010   24.5570   34.0560 C   0  0  0  0  0  0  0  0  0  0  0  0
   38.1540   23.2590   34.5560 C   0  0  0  0  0  0  0  0  0  0  0  0
   38.2190   23.1000   35.8950 N   0  0  0  0  0  0  0  0  0  0  0  0
   38.2340   24.1360   36.7670 C   0  0  0  0  0  0  0  0  0  0  0  0
   38.1830   25.4000   36.3000 N   0  0  0  0  0  0  0  0  0  0  0  0
   38.0760   26.6020   34.5650 H   0  0  0  0  0  0  0  0  0  0  0  0
   38.0510   24.6540   32.9890 H   0  0  0  0  0  0  0  0  0  0  0  0
   38.1510   22.3390   33.9830 H   0  0  0  0  0  0  0  0  0  0  0  0
   38.3020   23.9540   38.2110 C   0  0  0  0  0  0  0  0  0  0  0  0
   37.9310   24.8640   39.0150 O   0  0  0  0  0  0  0  0  0  0  0  0
   38.8150   22.6790   38.6450 N   0  0  0  0  0  0  0  0  0  0  0  0
   39.5610   22.2870   39.2800 H   0  0  0  0  0  0  0  0  0  0  0  0
   38.3080   21.8570   38.2100 H   0  0  0  0  0  0  0  0  0  0  0  0
  1  6  1  0  0  0  0
  2  3  1  0  0  0  0
  2  1  2  0  0  0  0
  3  4  2  0  0  0  0
  4  5  1  0  0  0  0
  5 10  1  0  0  0  0
  6  5  2  0  0  0  0
  7  1  1  0  0  0  0
  8  2  1  0  0  0  0
  9  3  1  0  0  0  0
 10 12  1  0  0  0  0
 10 11  2  0  0  0  0
 12 13  1  0  0  0  0
 14 12  1  0  0  0  0
M  END
>  <minimizedAffinity>
-3.26908541

$$$$

 OpenBabel03272508423D

 14 14  0  0  0  0  0  0  0  0999 V2000
   38.4380   24.4620   36.0250 C   0  0  0  0  0  0  0  0  0  0  0  0
   37.7990   24.6900   37.2490 C   0  0  0  0  0  0  0  0  0  0  0  0
   38.2260   23.9390   38.3410 C   0  0  0  0  0  0  0  0  0  0  0  0
   39.2200   23.0470   38.1450 N   0  0  0  0  0  0  0  0  0  0  0  0
   39.8170   22.8520   36.9460 C   0  0  0  0  0  0  0  0  0  0  0  0
   39.4170   23.5710   35.8770 N   0  0  0  0  0  0  0  0  0  0  0  0
   38.0840   25.0620   35.1940 H   0  0  0  0  0  0  0  0  0  0  0  0
   37.0080   25.3900   37.4330 H   0  0  0  0  0  0  0  0  0  0  0  0
   37.8430   23.9870   39.3540 H   0  0  0  0  0  0  0  0  0  0  0  0
   40.8910   21.8880   36.7450 C   0  0  0  0  0  0  0  0  0  0  0  0
   41.4710   21.7620   35.6220 O   0  0  0  0  0  0  0  0  0  0  0  0
   41.2370   21.1050   37.9030 N   0  0  0  0  0  0  0  0  0  0  0  0
   41.3510   20.0940   38.1850 H   0  0  0  0  0  0  0  0  0  0  0  0
   41.4490   21.6950   38.7570 H   0  0  0  0  0  0  0  0  0  0  0  0
  1  2  1  0  0  0  0
  2  8  1  0  0  0  0
  2  3  2  0  0  0  0
  3  9  1  0  0  0  0
  4  3  1  0  0  0  0
  5  4  2  0  0  0  0
  6  1  2  0  0  0  0
  6  5  1  0  0  0  0
  7  1  1  0  0  0  0
 10  5  1  0  0  0  0
 10 12  1  0  0  0  0
 11 10  2  0  0  0  0
 12 13  1  0  0  0  0
 12 14  1  0  0  0  0
M  END
>  <minimizedAffinity>
-3.26707101

$$$$

 OpenBabel03272508423D

 14 14  0  0  0  0  0  0  0  0999 V2000
   38.5010   26.7060   36.0520 C   0  0  0  0  0  0  0  0  0  0  0  0
   39.5590   26.7310   35.1360 C   0  0  0  0  0  0  0  0  0  0  0  0
   40.2060   25.5260   34.8770 C   0  0  0  0  0  0  0  0  0  0  0  0
   39.7730   24.4230   35.5240 N   0  0  0  0  0  0  0  0  0  0  0  0
   38.7450   24.4350   36.4060 C   0  0  0  0  0  0  0  0  0  0  0  0
   38.1060   25.5940   36.6680 N   0  0  0  0  0  0  0  0  0  0  0  0
   38.0170   27.6600   36.2330 H   0  0  0  0  0  0  0  0  0  0  0  0
   39.9240   27.5900   34.6080 H   0  0  0  0  0  0  0  0  0  0  0  0
   41.0380   25.3660   34.2010 H   0  0  0  0  0  0  0  0  0  0  0  0
   38.2830   23.2400   37.0980 C   0  0  0  0  0  0  0  0  0  0  0  0
   37.2350   22.6210   36.7320 O   0  0  0  0  0  0  0  0  0  0  0  0
   39.0960   22.8220   38.2120 N   0  0  0  0  0  0  0  0  0  0  0  0
   38.9970   22.5840   39.2350 H   0  0  0  0  0  0  0  0  0  0  0  0
   40.1190   22.7100   37.9600 H   0  0  0  0  0  0  0  0  0  0  0  0
  1  7  1  0  0  0  0
  1  6  1  0  0  0  0
  2  1  2  0  0  0  0
  3  2  1  0  0  0  0
  3  4  2  0  0  0  0
  4  5  1  0  0  0  0
  5  6  2  0  0  0  0
  5 10  1  0  0  0  0
  8  2  1  0  0  0  0
  9  3  1  0  0  0  0
 10 12  1  0  0  0  0
 11 10  2  0  0  0  0
 12 13  1  0  0  0  0
 14 12  1  0  0  0  0
M  END
>  <minimizedAffinity>
-3.25069523

$$$$

 OpenBabel03272508423D

 14 14  0  0  0  0  0  0  0  0999 V2000
   40.2030   25.8200   34.8990 C   0  0  0  0  0  0  0  0  0  0  0  0
   39.3180   26.8400   35.2670 C   0  0  0  0  0  0  0  0  0  0  0  0
   38.2830   26.5020   36.1340 C   0  0  0  0  0  0  0  0  0  0  0  0
   38.2030   25.2230   36.5570 N   0  0  0  0  0  0  0  0  0  0  0  0
   39.0780   24.2600   36.1800 C   0  0  0  0  0  0  0  0  0  0  0  0
   40.0870   24.5690   35.3410 N   0  0  0  0  0  0  0  0  0  0  0  0
   40.9990   26.1140   34.2230 H   0  0  0  0  0  0  0  0  0  0  0  0
   39.3570   27.8630   34.9470 H   0  0  0  0  0  0  0  0  0  0  0  0
   37.5130   27.1630   36.5180 H   0  0  0  0  0  0  0  0  0  0  0  0
   38.9860   22.8820   36.6440 C   0  0  0  0  0  0  0  0  0  0  0  0
   38.5390   21.9570   35.8970 O   0  0  0  0  0  0  0  0  0  0  0  0
   39.4340   22.6580   37.9940 N   0  0  0  0  0  0  0  0  0  0  0  0
   39.0900   22.2300   38.8950 H   0  0  0  0  0  0  0  0  0  0  0  0
   40.4110   23.0250   38.1740 H   0  0  0  0  0  0  0  0  0  0  0  0
  1  2  2  0  0  0  0
  1  6  1  0  0  0  0
  2  3  1  0  0  0  0
  3  9  1  0  0  0  0
  3  4  2  0  0  0  0
  5  4  1  0  0  0  0
  5 10  1  0  0  0  0
  6  5  2  0  0  0  0
  7  1  1  0  0  0  0
  8  2  1  0  0  0  0
 10 12  1  0  0  0  0
 11 10  2  0  0  0  0
 12 14  1  0  0  0  0
 12 13  1  0  0  0  0
M  END
>  <minimizedAffinity>
-3.21780276

$$$$

 OpenBabel03272508423D

 14 14  0  0  0  0  0  0  0  0999 V2000
   38.2770   23.5430   37.1320 C   0  0  0  0  0  0  0  0  0  0  0  0
   38.4240   22.6380   36.0740 C   0  0  0  0  0  0  0  0  0  0  0  0
   38.3430   23.1500   34.7820 C   0  0  0  0  0  0  0  0  0  0  0  0
   38.1290   24.4750   34.6390 N   0  0  0  0  0  0  0  0  0  0  0  0
   37.9920   25.3230   35.6860 C   0  0  0  0  0  0  0  0  0  0  0  0
   38.0680   24.8450   36.9440 N   0  0  0  0  0  0  0  0  0  0  0  0
   38.3460   23.1150   38.1260 H   0  0  0  0  0  0  0  0  0  0  0  0
   38.5940   21.5830   36.1590 H   0  0  0  0  0  0  0  0  0  0  0  0
   38.4320   22.5950   33.8560 H   0  0  0  0  0  0  0  0  0  0  0  0
   37.7640   26.7530   35.5210 C   0  0  0  0  0  0  0  0  0  0  0  0
   36.8240   27.1970   34.7910 O   0  0  0  0  0  0  0  0  0  0  0  0
   38.6750   27.6060   36.2410 N   0  0  0  0  0  0  0  0  0  0  0  0
   39.3270   28.4160   36.0640 H   0  0  0  0  0  0  0  0  0  0  0  0
   38.7330   27.3750   37.2730 H   0  0  0  0  0  0  0  0  0  0  0  0
  1  7  1  0  0  0  0
  2  8  1  0  0  0  0
  2  1  2  0  0  0  0
  3  2  1  0  0  0  0
  4  3  2  0  0  0  0
  4  5  1  0  0  0  0
  5  6  2  0  0  0  0
  6  1  1  0  0  0  0
  9  3  1  0  0  0  0
 10  5  1  0  0  0  0
 10 12  1  0  0  0  0
 11 10  2  0  0  0  0
 12 14  1  0  0  0  0
 13 12  1  0  0  0  0
M  END
>  <minimizedAffinity>
-3.14461446

$$$$

 OpenBabel03272508423D

 14 14  0  0  0  0  0  0  0  0999 V2000
   38.4590   25.3420   34.1660 C   0  0  0  0  0  0  0  0  0  0  0  0
   38.6280   26.7260   34.2860 C   0  0  0  0  0  0  0  0  0  0  0  0
   38.5510   27.2680   35.5660 C   0  0  0  0  0  0  0  0  0  0  0  0
   38.3200   26.4270   36.5970 N   0  0  0  0  0  0  0  0  0  0  0  0
   38.1610   25.0910   36.4440 C   0  0  0  0  0  0  0  0  0  0  0  0
   38.2330   24.5490   35.2120 N   0  0  0  0  0  0  0  0  0  0  0  0
   38.5250   24.9490   33.1570 H   0  0  0  0  0  0  0  0  0  0  0  0
   38.8120   27.4160   33.4870 H   0  0  0  0  0  0  0  0  0  0  0  0
   38.6570   28.3120   35.8380 H   0  0  0  0  0  0  0  0  0  0  0  0
   37.9140   24.1920   37.5630 C   0  0  0  0  0  0  0  0  0  0  0  0
   37.9690   24.5950   38.7670 O   0  0  0  0  0  0  0  0  0  0  0  0
   37.6080   22.8310   37.2000 N   0  0  0  0  0  0  0  0  0  0  0  0
   37.9340   21.8500   37.4120 H   0  0  0  0  0  0  0  0  0  0  0  0
   36.8130   22.7550   36.5050 H   0  0  0  0  0  0  0  0  0  0  0  0
  1  2  2  0  0  0  0
  1  6  1  0  0  0  0
  2  3  1  0  0  0  0
  3  9  1  0  0  0  0
  3  4  2  0  0  0  0
  5  4  1  0  0  0  0
  5 10  1  0  0  0  0
  6  5  2  0  0  0  0
  7  1  1  0  0  0  0
  8  2  1  0  0  0  0
 10 11  2  0  0  0  0
 12 13  1  0  0  0  0
 12 10  1  0  0  0  0
 14 12  1  0  0  0  0
M  END
>  <minimizedAffinity>
-3.07359505

$$$$

 OpenBabel03272508423D

 14 14  0  0  0  0  0  0  0  0999 V2000
   41.3570   22.8940   35.1700 C   0  0  0  0  0  0  0  0  0  0  0  0
   42.2210   21.9460   35.7300 C   0  0  0  0  0  0  0  0  0  0  0  0
   41.9040   21.4670   36.9990 C   0  0  0  0  0  0  0  0  0  0  0  0
   40.7940   21.9470   37.5980 N   0  0  0  0  0  0  0  0  0  0  0  0
   39.9790   22.8650   37.0260 C   0  0  0  0  0  0  0  0  0  0  0  0
   40.2690   23.3390   35.7980 N   0  0  0  0  0  0  0  0  0  0  0  0
   41.6290   23.2480   34.1820 H   0  0  0  0  0  0  0  0  0  0  0  0
   43.1080   21.5480   35.2790 H   0  0  0  0  0  0  0  0  0  0  0  0
   42.4600   20.7370   37.5760 H   0  0  0  0  0  0  0  0  0  0  0  0
   38.7810   23.3750   37.6790 C   0  0  0  0  0  0  0  0  0  0  0  0
   38.1410   24.3690   37.2150 O   0  0  0  0  0  0  0  0  0  0  0  0
   38.3880   22.6720   38.8740 N   0  0  0  0  0  0  0  0  0  0  0  0
   38.1560   22.8710   39.8840 H   0  0  0  0  0  0  0  0  0  0  0  0
   38.2920   21.6270   38.7290 H   0  0  0  0  0  0  0  0  0  0  0  0
  1  2  2  0  0  0  0
  1  6  1  0  0  0  0
  2  3  1  0  0  0  0
  3  9  1  0  0  0  0
  3  4  2  0  0  0  0
  5  4  1  0  0  0  0
  5 10  1  0  0  0  0
  6  5  2  0  0  0  0
  7  1  1  0  0  0  0
  8  2  1  0  0  0  0
 10 12  1  0  0  0  0
 11 10  2  0  0  0  0
 12 13  1  0  0  0  0
 14 12  1  0  0  0  0
M  END
>  <minimizedAffinity>
-3.05051255

$$$$

 OpenBabel03272508423D

 14 14  0  0  0  0  0  0  0  0999 V2000
   35.7460   28.9780   33.5450 C   0  0  0  0  0  0  0  0  0  0  0  0
   35.6440   28.3620   32.2920 C   0  0  0  0  0  0  0  0  0  0  0  0
   36.2950   27.1420   32.1280 C   0  0  0  0  0  0  0  0  0  0  0  0
   36.9760   26.6420   33.1810 N   0  0  0  0  0  0  0  0  0  0  0  0
   37.0540   27.2660   34.3800 C   0  0  0  0  0  0  0  0  0  0  0  0
   36.4290   28.4470   34.5570 N   0  0  0  0  0  0  0  0  0  0  0  0
   35.2280   29.9260   33.6420 H   0  0  0  0  0  0  0  0  0  0  0  0
   35.1110   28.7360   31.4400 H   0  0  0  0  0  0  0  0  0  0  0  0
   36.3210   26.5340   31.2310 H   0  0  0  0  0  0  0  0  0  0  0  0
   37.7890   26.7160   35.5110 C   0  0  0  0  0  0  0  0  0  0  0  0
   37.6950   25.4920   35.8350 O   0  0  0  0  0  0  0  0  0  0  0  0
   38.6180   27.6580   36.2200 N   0  0  0  0  0  0  0  0  0  0  0  0
   38.7790   28.0070   37.2020 H   0  0  0  0  0  0  0  0  0  0  0  0
   39.2860   28.1830   35.5870 H   0  0  0  0  0  0  0  0  0  0  0  0
  1  7  1  0  0  0  0
  1  6  1  0  0  0  0
  2  1  2  0  0  0  0
  3  2  1  0  0  0  0
  3  4  2  0  0  0  0
  4  5  1  0  0  0  0
  5  6  2  0  0  0  0
  5 10  1  0  0  0  0
  8  2  1  0  0  0  0
  9  3  1  0  0  0  0
 10 11  2  0  0  0  0
 10 12  1  0  0  0  0
 12 13  1  0  0  0  0
 14 12  1  0  0  0  0
M  END
>  <minimizedAffinity>
-3.01107168

$$$$

 OpenBabel03272508423D

 14 14  0  0  0  0  0  0  0  0999 V2000
   38.3350   23.3030   34.9030 C   0  0  0  0  0  0  0  0  0  0  0  0
   37.8610   22.8010   36.1210 C   0  0  0  0  0  0  0  0  0  0  0  0
   37.7470   23.6980   37.1790 C   0  0  0  0  0  0  0  0  0  0  0  0
   38.0990   24.9830   36.9600 N   0  0  0  0  0  0  0  0  0  0  0  0
   38.5530   25.4360   35.7670 C   0  0  0  0  0  0  0  0  0  0  0  0
   38.6700   24.5810   34.7310 N   0  0  0  0  0  0  0  0  0  0  0  0
   38.4130   22.5800   34.0980 H   0  0  0  0  0  0  0  0  0  0  0  0
   37.5750   21.7870   36.3230 H   0  0  0  0  0  0  0  0  0  0  0  0
   37.4010   23.4800   38.1830 H   0  0  0  0  0  0  0  0  0  0  0  0
   38.9290   26.8250   35.5400 C   0  0  0  0  0  0  0  0  0  0  0  0
   38.0930   27.7720   35.6790 O   0  0  0  0  0  0  0  0  0  0  0  0
   40.3000   27.0340   35.1510 N   0  0  0  0  0  0  0  0  0  0  0  0
   40.8560   27.5070   34.3890 H   0  0  0  0  0  0  0  0  0  0  0  0
   40.9930   26.5860   35.8140 H   0  0  0  0  0  0  0  0  0  0  0  0
  1  2  1  0  0  0  0
  2  8  1  0  0  0  0
  2  3  2  0  0  0  0
  3  9  1  0  0  0  0
  4  3  1  0  0  0  0
  5  4  2  0  0  0  0
  6  1  2  0  0  0  0
  6  5  1  0  0  0  0
  7  1  1  0  0  0  0
 10 11  2  0  0  0  0
 10  5  1  0  0  0  0
 12 10  1  0  0  0  0
 12 14  1  0  0  0  0
 13 12  1  0  0  0  0
M  END
>  <minimizedAffinity>
-2.83475375

$$$$
