
 OpenBabel03272502453D

 33 35  0  0  0  0  0  0  0  0999 V2000
   36.8100   31.3260   49.5230 C   0  0  0  0  0  0  0  0  0  0  0  0
   37.8050   31.6350   48.5900 C   0  0  0  0  0  0  0  0  0  0  0  0
   37.5360   31.3090   47.2580 C   0  0  0  0  0  0  0  0  0  0  0  0
   36.3520   30.7250   46.9480 N   0  0  0  0  0  0  0  0  0  0  0  0
   35.4180   30.4420   47.8740 C   0  0  0  0  0  0  0  0  0  0  0  0
   35.6720   30.7540   49.1540 N   0  0  0  0  0  0  0  0  0  0  0  0
   37.0070   31.5750   50.5700 H   0  0  0  0  0  0  0  0  0  0  0  0
   38.7490   32.1030   48.8520 H   0  0  0  0  0  0  0  0  0  0  0  0
   38.4930   31.5790   46.1900 C   0  0  0  0  0  0  0  0  0  0  0  0
   39.8070   31.1520   46.1810 C   0  0  0  0  0  0  0  0  0  0  0  0
   40.4370   31.5600   45.0590 N   0  0  0  0  0  0  0  0  0  0  0  0
   39.5370   32.2450   44.3500 C   0  0  0  0  0  0  0  0  0  0  0  0
   38.3930   32.2460   45.0360 N   0  0  0  0  0  0  0  0  0  0  0  0
   38.4470   32.9830   42.3080 C   0  0  0  0  0  0  0  0  0  0  0  0
   37.3840   32.4940   42.7250 O   0  0  0  0  0  0  0  0  0  0  0  0
   39.6350   32.9000   43.0970 N   0  0  0  0  0  0  0  0  0  0  0  0
   40.3410   30.5630   46.9350 H   0  0  0  0  0  0  0  0  0  0  0  0
   41.4180   31.4170   44.7300 H   0  0  0  0  0  0  0  0  0  0  0  0
   38.5320   33.5020   41.3180 H   0  0  0  0  0  0  0  0  0  0  0  0
   40.5690   33.2820   42.8260 H   0  0  0  0  0  0  0  0  0  0  0  0
   34.7770   27.9420   49.3000 Cl  0  0  0  0  0  0  0  0  0  0  0  0
   33.7780   28.6320   48.0820 C   0  0  0  0  0  0  0  0  0  0  0  0
   34.1700   29.8150   47.4700 C   0  0  0  0  0  0  0  0  0  0  0  0
   33.4060   30.3970   46.4980 C   0  0  0  0  0  0  0  0  0  0  0  0
   32.2120   29.8270   46.0880 C   0  0  0  0  0  0  0  0  0  0  0  0
   31.7990   28.6520   46.6790 C   0  0  0  0  0  0  0  0  0  0  0  0
   30.3090   27.8400   46.2440 Cl  0  0  0  0  0  0  0  0  0  0  0  0
   32.5950   28.0990   47.6510 C   0  0  0  0  0  0  0  0  0  0  0  0
   33.7170   31.3110   46.0310 H   0  0  0  0  0  0  0  0  0  0  0  0
   31.5940   30.2770   45.3170 H   0  0  0  0  0  0  0  0  0  0  0  0
   32.1880   26.8790   48.2810 N   0  0  0  0  0  0  0  0  0  0  0  0
   31.7550   26.6830   49.2070 H   0  0  0  0  0  0  0  0  0  0  0  0
   32.3790   26.0390   47.6580 H   0  0  0  0  0  0  0  0  0  0  0  0
  1  7  1  0  0  0  0
  2  8  1  0  0  0  0
  2  1  2  0  0  0  0
  3  2  1  0  0  0  0
  4  3  2  0  0  0  0
  4  5  1  0  0  0  0
  5  6  2  0  0  0  0
  6  1  1  0  0  0  0
  9  3  1  0  0  0  0
 10  9  2  0  0  0  0
 10 17  1  0  0  0  0
 11 10  1  0  0  0  0
 12 13  2  0  0  0  0
 12 11  1  0  0  0  0
 13  9  1  0  0  0  0
 14 15  2  0  0  0  0
 14 16  1  0  0  0  0
 16 12  1  0  0  0  0
 18 11  1  0  0  0  0
 19 14  1  0  0  0  0
 20 16  1  0  0  0  0
 22 21  1  0  0  0  0
 23  5  1  0  0  0  0
 23 22  2  0  0  0  0
 24 23  1  0  0  0  0
 25 24  2  0  0  0  0
 25 26  1  0  0  0  0
 26 28  2  0  0  0  0
 27 26  1  0  0  0  0
 28 22  1  0  0  0  0
 28 31  1  0  0  0  0
 29 24  1  0  0  0  0
 30 25  1  0  0  0  0
 31 32  1  0  0  0  0
 33 31  1  0  0  0  0
M  END
>  <minimizedAffinity>
-5.97852898

>  <minimizedRMSD>
1.76025271

$$$$
