
 OpenBabel03272510313D

 26 27  0  0  0  0  0  0  0  0999 V2000
   37.8030   25.3640   34.2670 C   0  0  0  0  0  0  0  0  0  0  0  0
   37.3860   25.3030   32.9500 C   0  0  0  0  0  0  0  0  0  0  0  0
   37.2350   24.0250   32.4580 C   0  0  0  0  0  0  0  0  0  0  0  0
   37.4810   22.9260   33.2330 N   0  0  0  0  0  0  0  0  0  0  0  0
   37.8870   23.0370   34.5140 C   0  0  0  0  0  0  0  0  0  0  0  0
   38.0480   24.2830   35.0310 N   0  0  0  0  0  0  0  0  0  0  0  0
   37.1880   26.1480   32.3340 H   0  0  0  0  0  0  0  0  0  0  0  0
   36.9120   23.8630   31.4360 H   0  0  0  0  0  0  0  0  0  0  0  0
   37.9700   26.7300   34.8980 C   0  0  0  0  0  0  0  0  0  0  0  0
   38.4160   26.9150   36.2370 C   0  0  0  0  0  0  0  0  0  0  0  0
   39.4580   27.0660   35.1400 C   0  0  0  0  0  0  0  0  0  0  0  0
   37.4000   27.5540   34.3770 H   0  0  0  0  0  0  0  0  0  0  0  0
   38.6260   26.0260   36.9010 H   0  0  0  0  0  0  0  0  0  0  0  0
   38.1380   27.8010   36.8090 H   0  0  0  0  0  0  0  0  0  0  0  0
   39.7390   28.1180   34.9330 H   0  0  0  0  0  0  0  0  0  0  0  0
   40.2020   26.2740   34.9950 H   0  0  0  0  0  0  0  0  0  0  0  0
   38.1430   21.8780   35.3560 C   0  0  0  0  0  0  0  0  0  0  0  0
   38.1900   20.9570   34.7660 H   0  0  0  0  0  0  0  0  0  0  0  0
   39.1250   21.9590   35.9010 H   0  0  0  0  0  0  0  0  0  0  0  0
   35.8610   21.0480   35.9740 C   0  0  0  0  0  0  0  0  0  0  0  0
   35.6580   20.4760   34.8630 O   0  0  0  0  0  0  0  0  0  0  0  0
   37.0390   21.7630   36.2920 N   0  0  0  0  0  0  0  0  0  0  0  0
   37.1760   22.2390   37.2070 H   0  0  0  0  0  0  0  0  0  0  0  0
   34.8470   20.9810   36.9860 N   0  0  0  0  0  0  0  0  0  0  0  0
   34.6250   20.0480   37.4110 H   0  0  0  0  0  0  0  0  0  0  0  0
   34.3280   21.8170   37.3070 H   0  0  0  0  0  0  0  0  0  0  0  0
  1  9  1  0  0  0  0
  1  6  1  0  0  0  0
  2  1  2  0  0  0  0
  3  2  1  0  0  0  0
  3  4  2  0  0  0  0
  4  5  1  0  0  0  0
  5  6  2  0  0  0  0
  5 17  1  0  0  0  0
  7  2  1  0  0  0  0
  8  3  1  0  0  0  0
  9 11  1  0  0  0  0
  9 10  1  0  0  0  0
 10 14  1  0  0  0  0
 10 13  1  0  0  0  0
 11 10  1  0  0  0  0
 12  9  1  0  0  0  0
 15 11  1  0  0  0  0
 16 11  1  0  0  0  0
 17 19  1  0  0  0  0
 17 22  1  0  0  0  0
 18 17  1  0  0  0  0
 20 22  1  0  0  0  0
 20 24  1  0  0  0  0
 21 20  2  0  0  0  0
 22 23  1  0  0  0  0
 24 26  1  0  0  0  0
 24 25  1  0  0  0  0
M  END
>  <minimizedAffinity>
-4.50549412

$$$$

 OpenBabel03272510313D

 26 27  0  0  0  0  0  0  0  0999 V2000
   36.6670   21.2110   33.4260 C   0  0  0  0  0  0  0  0  0  0  0  0
   35.6210   20.6150   34.1060 C   0  0  0  0  0  0  0  0  0  0  0  0
   35.6620   20.7800   35.4730 C   0  0  0  0  0  0  0  0  0  0  0  0
   36.6660   21.4830   36.0800 N   0  0  0  0  0  0  0  0  0  0  0  0
   37.6650   22.0470   35.3720 C   0  0  0  0  0  0  0  0  0  0  0  0
   37.6570   21.9030   34.0210 N   0  0  0  0  0  0  0  0  0  0  0  0
   34.8320   20.0660   33.6490 H   0  0  0  0  0  0  0  0  0  0  0  0
   34.8900   20.3520   36.1020 H   0  0  0  0  0  0  0  0  0  0  0  0
   36.6880   21.1030   31.9160 C   0  0  0  0  0  0  0  0  0  0  0  0
   35.5730   20.6470   31.1560 C   0  0  0  0  0  0  0  0  0  0  0  0
   35.7660   22.1510   31.2570 C   0  0  0  0  0  0  0  0  0  0  0  0
   37.7240   21.0670   31.4680 H   0  0  0  0  0  0  0  0  0  0  0  0
   34.6280   20.3060   31.6710 H   0  0  0  0  0  0  0  0  0  0  0  0
   35.7060   20.1740   30.1830 H   0  0  0  0  0  0  0  0  0  0  0  0
   36.1690   22.6120   30.3330 H   0  0  0  0  0  0  0  0  0  0  0  0
   35.0970   22.7350   31.9000 H   0  0  0  0  0  0  0  0  0  0  0  0
   38.7350   22.8080   36.0010 C   0  0  0  0  0  0  0  0  0  0  0  0
   39.4100   23.2400   35.2560 H   0  0  0  0  0  0  0  0  0  0  0  0
   38.3400   23.6660   36.6130 H   0  0  0  0  0  0  0  0  0  0  0  0
   40.8750   22.0850   37.0840 C   0  0  0  0  0  0  0  0  0  0  0  0
   41.5550   23.0400   36.6100 O   0  0  0  0  0  0  0  0  0  0  0  0
   39.4980   21.8900   36.8280 N   0  0  0  0  0  0  0  0  0  0  0  0
   38.9640   21.0870   37.2160 H   0  0  0  0  0  0  0  0  0  0  0  0
   41.5210   21.1280   37.9350 N   0  0  0  0  0  0  0  0  0  0  0  0
   41.8770   21.4480   38.8680 H   0  0  0  0  0  0  0  0  0  0  0  0
   41.6470   20.1380   37.6600 H   0  0  0  0  0  0  0  0  0  0  0  0
  1  6  2  0  0  0  0
  1  2  1  0  0  0  0
  2  3  2  0  0  0  0
  3  4  1  0  0  0  0
  3  8  1  0  0  0  0
  5 17  1  0  0  0  0
  5  4  2  0  0  0  0
  6  5  1  0  0  0  0
  7  2  1  0  0  0  0
  9  1  1  0  0  0  0
 10 11  1  0  0  0  0
 10 13  1  0  0  0  0
 10  9  1  0  0  0  0
 11 16  1  0  0  0  0
 11  9  1  0  0  0  0
 12  9  1  0  0  0  0
 14 10  1  0  0  0  0
 15 11  1  0  0  0  0
 17 19  1  0  0  0  0
 17 22  1  0  0  0  0
 18 17  1  0  0  0  0
 20 24  1  0  0  0  0
 21 20  2  0  0  0  0
 22 20  1  0  0  0  0
 22 23  1  0  0  0  0
 24 25  1  0  0  0  0
 26 24  1  0  0  0  0
M  END
>  <minimizedAffinity>
-4.45745325

$$$$

 OpenBabel03272510313D

 26 27  0  0  0  0  0  0  0  0999 V2000
   37.8750   25.4560   34.1650 C   0  0  0  0  0  0  0  0  0  0  0  0
   38.0690   26.3190   35.2280 C   0  0  0  0  0  0  0  0  0  0  0  0
   38.2040   25.6990   36.4500 C   0  0  0  0  0  0  0  0  0  0  0  0
   38.1490   24.3380   36.5720 N   0  0  0  0  0  0  0  0  0  0  0  0
   37.9570   23.5370   35.5040 C   0  0  0  0  0  0  0  0  0  0  0  0
   37.8190   24.1160   34.2830 N   0  0  0  0  0  0  0  0  0  0  0  0
   38.1160   27.3800   35.1500 H   0  0  0  0  0  0  0  0  0  0  0  0
   38.3600   26.2820   37.3500 H   0  0  0  0  0  0  0  0  0  0  0  0
   37.7430   26.0520   32.7800 C   0  0  0  0  0  0  0  0  0  0  0  0
   38.1700   27.3720   32.4590 C   0  0  0  0  0  0  0  0  0  0  0  0
   39.1200   26.2390   32.1060 C   0  0  0  0  0  0  0  0  0  0  0  0
   36.9850   25.5320   32.1220 H   0  0  0  0  0  0  0  0  0  0  0  0
   38.5950   28.0470   33.2580 H   0  0  0  0  0  0  0  0  0  0  0  0
   37.7120   27.9330   31.6450 H   0  0  0  0  0  0  0  0  0  0  0  0
   39.1460   26.0000   31.0240 H   0  0  0  0  0  0  0  0  0  0  0  0
   40.0210   26.0870   32.7120 H   0  0  0  0  0  0  0  0  0  0  0  0
   37.9070   22.0870   35.6140 C   0  0  0  0  0  0  0  0  0  0  0  0
   37.6440   21.6210   34.6600 H   0  0  0  0  0  0  0  0  0  0  0  0
   38.9000   21.6510   35.9200 H   0  0  0  0  0  0  0  0  0  0  0  0
   35.7330   21.0020   36.2270 C   0  0  0  0  0  0  0  0  0  0  0  0
   35.5010   20.5760   35.0590 O   0  0  0  0  0  0  0  0  0  0  0  0
   36.8760   21.7560   36.5820 N   0  0  0  0  0  0  0  0  0  0  0  0
   37.0370   22.1090   37.5460 H   0  0  0  0  0  0  0  0  0  0  0  0
   34.7930   20.7140   37.2710 N   0  0  0  0  0  0  0  0  0  0  0  0
   34.6660   19.7170   37.5700 H   0  0  0  0  0  0  0  0  0  0  0  0
   34.2380   21.4540   37.7360 H   0  0  0  0  0  0  0  0  0  0  0  0
  1  6  2  0  0  0  0
  1  2  1  0  0  0  0
  2  3  2  0  0  0  0
  3  4  1  0  0  0  0
  3  8  1  0  0  0  0
  5 17  1  0  0  0  0
  5  4  2  0  0  0  0
  6  5  1  0  0  0  0
  7  2  1  0  0  0  0
  9  1  1  0  0  0  0
 10  9  1  0  0  0  0
 10 13  1  0  0  0  0
 11 10  1  0  0  0  0
 11 16  1  0  0  0  0
 11  9  1  0  0  0  0
 12  9  1  0  0  0  0
 14 10  1  0  0  0  0
 15 11  1  0  0  0  0
 17 19  1  0  0  0  0
 17 22  1  0  0  0  0
 18 17  1  0  0  0  0
 20 22  1  0  0  0  0
 20 24  1  0  0  0  0
 21 20  2  0  0  0  0
 22 23  1  0  0  0  0
 24 25  1  0  0  0  0
 24 26  1  0  0  0  0
M  END
>  <minimizedAffinity>
-4.44165087

$$$$

 OpenBabel03272510313D

 26 27  0  0  0  0  0  0  0  0999 V2000
   38.4250   24.7650   35.1110 C   0  0  0  0  0  0  0  0  0  0  0  0
   38.0300   23.8350   34.1670 C   0  0  0  0  0  0  0  0  0  0  0  0
   38.2790   22.5270   34.5160 C   0  0  0  0  0  0  0  0  0  0  0  0
   38.8690   22.2030   35.7060 N   0  0  0  0  0  0  0  0  0  0  0  0
   39.2370   23.1470   36.5960 C   0  0  0  0  0  0  0  0  0  0  0  0
   39.0070   24.4490   36.2830 N   0  0  0  0  0  0  0  0  0  0  0  0
   37.5690   24.0710   33.2370 H   0  0  0  0  0  0  0  0  0  0  0  0
   38.0100   21.7180   33.8470 H   0  0  0  0  0  0  0  0  0  0  0  0
   38.1660   26.2280   34.8210 C   0  0  0  0  0  0  0  0  0  0  0  0
   38.5570   27.2750   35.7040 C   0  0  0  0  0  0  0  0  0  0  0  0
   39.4760   26.9920   34.5260 C   0  0  0  0  0  0  0  0  0  0  0  0
   37.3540   26.4130   34.0570 H   0  0  0  0  0  0  0  0  0  0  0  0
   39.0500   27.0380   36.6920 H   0  0  0  0  0  0  0  0  0  0  0  0
   38.0250   28.2260   35.7260 H   0  0  0  0  0  0  0  0  0  0  0  0
   39.4050   27.7440   33.7150 H   0  0  0  0  0  0  0  0  0  0  0  0
   40.4290   26.4790   34.7010 H   0  0  0  0  0  0  0  0  0  0  0  0
   39.8560   22.8200   37.8720 C   0  0  0  0  0  0  0  0  0  0  0  0
   40.6190   23.5540   38.1470 H   0  0  0  0  0  0  0  0  0  0  0  0
   39.1070   22.8050   38.7140 H   0  0  0  0  0  0  0  0  0  0  0  0
   41.8370   21.4020   37.2890 C   0  0  0  0  0  0  0  0  0  0  0  0
   42.5710   22.3810   36.9680 O   0  0  0  0  0  0  0  0  0  0  0  0
   40.4990   21.5260   37.7290 N   0  0  0  0  0  0  0  0  0  0  0  0
   39.9100   20.7040   37.9710 H   0  0  0  0  0  0  0  0  0  0  0  0
   42.3760   20.0750   37.2080 N   0  0  0  0  0  0  0  0  0  0  0  0
   43.1560   19.8110   37.8580 H   0  0  0  0  0  0  0  0  0  0  0  0
   42.0230   19.3740   36.5340 H   0  0  0  0  0  0  0  0  0  0  0  0
  1  6  1  0  0  0  0
  2  3  1  0  0  0  0
  2  1  2  0  0  0  0
  3  4  2  0  0  0  0
  4  5  1  0  0  0  0
  5 17  1  0  0  0  0
  6  5  2  0  0  0  0
  7  2  1  0  0  0  0
  8  3  1  0  0  0  0
  9  1  1  0  0  0  0
  9 10  1  0  0  0  0
 10 14  1  0  0  0  0
 10 13  1  0  0  0  0
 11 16  1  0  0  0  0
 11  9  1  0  0  0  0
 11 10  1  0  0  0  0
 12  9  1  0  0  0  0
 15 11  1  0  0  0  0
 17 18  1  0  0  0  0
 17 19  1  0  0  0  0
 20 22  1  0  0  0  0
 21 20  2  0  0  0  0
 22 17  1  0  0  0  0
 22 23  1  0  0  0  0
 24 20  1  0  0  0  0
 24 25  1  0  0  0  0
 26 24  1  0  0  0  0
M  END
>  <minimizedAffinity>
-4.42244864

$$$$

 OpenBabel03272510313D

 26 27  0  0  0  0  0  0  0  0999 V2000
   39.4910   25.3580   34.6940 C   0  0  0  0  0  0  0  0  0  0  0  0
   38.9430   26.2230   35.6230 C   0  0  0  0  0  0  0  0  0  0  0  0
   38.0340   25.6400   36.4780 C   0  0  0  0  0  0  0  0  0  0  0  0
   37.7210   24.3120   36.3930 N   0  0  0  0  0  0  0  0  0  0  0  0
   38.2830   23.5080   35.4680 C   0  0  0  0  0  0  0  0  0  0  0  0
   39.1840   24.0500   34.6070 N   0  0  0  0  0  0  0  0  0  0  0  0
   39.1770   27.2580   35.7040 H   0  0  0  0  0  0  0  0  0  0  0  0
   37.5440   26.2280   37.2450 H   0  0  0  0  0  0  0  0  0  0  0  0
   40.5210   25.9090   33.7300 C   0  0  0  0  0  0  0  0  0  0  0  0
   41.2630   27.0970   33.9840 C   0  0  0  0  0  0  0  0  0  0  0  0
   41.9540   25.7780   34.2910 C   0  0  0  0  0  0  0  0  0  0  0  0
   40.4140   25.5300   32.6710 H   0  0  0  0  0  0  0  0  0  0  0  0
   41.0740   27.7030   34.9180 H   0  0  0  0  0  0  0  0  0  0  0  0
   41.6540   27.7060   33.1690 H   0  0  0  0  0  0  0  0  0  0  0  0
   42.7220   25.4930   33.5450 H   0  0  0  0  0  0  0  0  0  0  0  0
   42.0780   25.4690   35.3360 H   0  0  0  0  0  0  0  0  0  0  0  0
   37.9700   22.0900   35.3700 C   0  0  0  0  0  0  0  0  0  0  0  0
   37.5040   21.8480   34.4100 H   0  0  0  0  0  0  0  0  0  0  0  0
   38.8900   21.4460   35.4520 H   0  0  0  0  0  0  0  0  0  0  0  0
   35.8410   21.0430   36.1760 C   0  0  0  0  0  0  0  0  0  0  0  0
   35.4970   20.6220   35.0340 O   0  0  0  0  0  0  0  0  0  0  0  0
   37.0240   21.7760   36.4270 N   0  0  0  0  0  0  0  0  0  0  0  0
   37.2760   22.1260   37.3730 H   0  0  0  0  0  0  0  0  0  0  0  0
   34.9930   20.7710   37.3010 N   0  0  0  0  0  0  0  0  0  0  0  0
   34.8750   19.7760   37.6100 H   0  0  0  0  0  0  0  0  0  0  0  0
   34.4950   21.5200   37.8130 H   0  0  0  0  0  0  0  0  0  0  0  0
  1  2  1  0  0  0  0
  2  7  1  0  0  0  0
  2  3  2  0  0  0  0
  3  8  1  0  0  0  0
  4  3  1  0  0  0  0
  5  4  2  0  0  0  0
  6  1  2  0  0  0  0
  6  5  1  0  0  0  0
  9 10  1  0  0  0  0
  9 11  1  0  0  0  0
  9  1  1  0  0  0  0
 10 11  1  0  0  0  0
 10 13  1  0  0  0  0
 11 16  1  0  0  0  0
 12  9  1  0  0  0  0
 14 10  1  0  0  0  0
 15 11  1  0  0  0  0
 17 19  1  0  0  0  0
 17  5  1  0  0  0  0
 17 22  1  0  0  0  0
 18 17  1  0  0  0  0
 20 22  1  0  0  0  0
 20 24  1  0  0  0  0
 21 20  2  0  0  0  0
 22 23  1  0  0  0  0
 24 25  1  0  0  0  0
 24 26  1  0  0  0  0
M  END
>  <minimizedAffinity>
-4.38823748

$$$$

 OpenBabel03272510313D

 26 27  0  0  0  0  0  0  0  0999 V2000
   36.0210   23.4580   31.5630 C   0  0  0  0  0  0  0  0  0  0  0  0
   35.3300   24.5340   31.0370 C   0  0  0  0  0  0  0  0  0  0  0  0
   35.7690   25.7630   31.4760 C   0  0  0  0  0  0  0  0  0  0  0  0
   36.8070   25.8800   32.3590 N   0  0  0  0  0  0  0  0  0  0  0  0
   37.4500   24.7990   32.8450 C   0  0  0  0  0  0  0  0  0  0  0  0
   37.0420   23.5700   32.4340 N   0  0  0  0  0  0  0  0  0  0  0  0
   34.5220   24.4610   30.3480 H   0  0  0  0  0  0  0  0  0  0  0  0
   35.2970   26.6740   31.1270 H   0  0  0  0  0  0  0  0  0  0  0  0
   35.6220   22.0680   31.1140 C   0  0  0  0  0  0  0  0  0  0  0  0
   36.3080   20.8920   31.5320 C   0  0  0  0  0  0  0  0  0  0  0  0
   35.0300   21.2420   32.2770 C   0  0  0  0  0  0  0  0  0  0  0  0
   34.9910   22.0460   30.1780 H   0  0  0  0  0  0  0  0  0  0  0  0
   37.2190   20.9640   32.1960 H   0  0  0  0  0  0  0  0  0  0  0  0
   36.3160   19.9920   30.9170 H   0  0  0  0  0  0  0  0  0  0  0  0
   34.1660   20.6050   32.0040 H   0  0  0  0  0  0  0  0  0  0  0  0
   35.0970   21.6500   33.2930 H   0  0  0  0  0  0  0  0  0  0  0  0
   38.5630   24.9050   33.7760 C   0  0  0  0  0  0  0  0  0  0  0  0
   38.7750   23.9450   34.2580 H   0  0  0  0  0  0  0  0  0  0  0  0
   39.5140   25.2250   33.2650 H   0  0  0  0  0  0  0  0  0  0  0  0
   39.0990   26.8050   35.3190 C   0  0  0  0  0  0  0  0  0  0  0  0
   40.3060   26.8960   34.9510 O   0  0  0  0  0  0  0  0  0  0  0  0
   38.1840   25.8560   34.8060 N   0  0  0  0  0  0  0  0  0  0  0  0
   37.2010   25.7910   35.1370 H   0  0  0  0  0  0  0  0  0  0  0  0
   38.6070   27.7110   36.3160 N   0  0  0  0  0  0  0  0  0  0  0  0
   38.5460   28.7310   36.0800 H   0  0  0  0  0  0  0  0  0  0  0  0
   38.3130   27.3930   37.2560 H   0  0  0  0  0  0  0  0  0  0  0  0
  1  6  1  0  0  0  0
  2  3  1  0  0  0  0
  2  1  2  0  0  0  0
  3  4  2  0  0  0  0
  4  5  1  0  0  0  0
  5 17  1  0  0  0  0
  6  5  2  0  0  0  0
  7  2  1  0  0  0  0
  8  3  1  0  0  0  0
  9 10  1  0  0  0  0
  9  1  1  0  0  0  0
  9 11  1  0  0  0  0
 10 13  1  0  0  0  0
 10 11  1  0  0  0  0
 11 16  1  0  0  0  0
 12  9  1  0  0  0  0
 14 10  1  0  0  0  0
 15 11  1  0  0  0  0
 17 18  1  0  0  0  0
 17 22  1  0  0  0  0
 19 17  1  0  0  0  0
 20 24  1  0  0  0  0
 21 20  2  0  0  0  0
 22 23  1  0  0  0  0
 22 20  1  0  0  0  0
 24 26  1  0  0  0  0
 25 24  1  0  0  0  0
M  END
>  <minimizedAffinity>
-4.35347033

$$$$

 OpenBabel03272510313D

 26 27  0  0  0  0  0  0  0  0999 V2000
   37.9070   25.4610   34.0870 C   0  0  0  0  0  0  0  0  0  0  0  0
   37.2920   25.3140   32.8570 C   0  0  0  0  0  0  0  0  0  0  0  0
   37.1430   24.0080   32.4470 C   0  0  0  0  0  0  0  0  0  0  0  0
   37.5760   22.9620   33.2150 N   0  0  0  0  0  0  0  0  0  0  0  0
   38.1710   23.1580   34.4090 C   0  0  0  0  0  0  0  0  0  0  0  0
   38.3350   24.4340   34.8440 N   0  0  0  0  0  0  0  0  0  0  0  0
   36.9490   26.1170   32.2490 H   0  0  0  0  0  0  0  0  0  0  0  0
   36.6740   23.7800   31.4970 H   0  0  0  0  0  0  0  0  0  0  0  0
   38.0890   26.8640   34.6290 C   0  0  0  0  0  0  0  0  0  0  0  0
   38.5130   27.1310   35.9620 C   0  0  0  0  0  0  0  0  0  0  0  0
   39.5780   27.1890   34.8780 C   0  0  0  0  0  0  0  0  0  0  0  0
   37.5450   27.6610   34.0430 H   0  0  0  0  0  0  0  0  0  0  0  0
   38.6940   26.2850   36.6870 H   0  0  0  0  0  0  0  0  0  0  0  0
   38.2420   28.0570   36.4670 H   0  0  0  0  0  0  0  0  0  0  0  0
   39.8820   28.2200   34.6070 H   0  0  0  0  0  0  0  0  0  0  0  0
   40.3100   26.3760   34.8010 H   0  0  0  0  0  0  0  0  0  0  0  0
   38.6270   22.0560   35.2430 C   0  0  0  0  0  0  0  0  0  0  0  0
   38.0800   21.1340   35.0240 H   0  0  0  0  0  0  0  0  0  0  0  0
   39.7180   21.8270   35.0830 H   0  0  0  0  0  0  0  0  0  0  0  0
   39.4230   22.6080   37.5540 C   0  0  0  0  0  0  0  0  0  0  0  0
   40.6490   22.4610   37.2760 O   0  0  0  0  0  0  0  0  0  0  0  0
   38.3730   22.4180   36.6260 N   0  0  0  0  0  0  0  0  0  0  0  0
   37.3710   22.5290   36.8840 H   0  0  0  0  0  0  0  0  0  0  0  0
   39.0540   22.9880   38.8870 N   0  0  0  0  0  0  0  0  0  0  0  0
   39.3320   23.9390   39.2310 H   0  0  0  0  0  0  0  0  0  0  0  0
   38.5270   22.3580   39.5170 H   0  0  0  0  0  0  0  0  0  0  0  0
  1  9  1  0  0  0  0
  1  6  1  0  0  0  0
  2  1  2  0  0  0  0
  3  2  1  0  0  0  0
  3  4  2  0  0  0  0
  4  5  1  0  0  0  0
  5  6  2  0  0  0  0
  5 17  1  0  0  0  0
  7  2  1  0  0  0  0
  8  3  1  0  0  0  0
  9 11  1  0  0  0  0
  9 10  1  0  0  0  0
 10 14  1  0  0  0  0
 10 13  1  0  0  0  0
 11 10  1  0  0  0  0
 12  9  1  0  0  0  0
 15 11  1  0  0  0  0
 16 11  1  0  0  0  0
 17 22  1  0  0  0  0
 18 17  1  0  0  0  0
 19 17  1  0  0  0  0
 20 24  1  0  0  0  0
 21 20  2  0  0  0  0
 22 23  1  0  0  0  0
 22 20  1  0  0  0  0
 24 25  1  0  0  0  0
 24 26  1  0  0  0  0
M  END
>  <minimizedAffinity>
-4.30966854

$$$$

 OpenBabel03272510313D

 26 27  0  0  0  0  0  0  0  0999 V2000
   35.9850   22.0100   31.6010 C   0  0  0  0  0  0  0  0  0  0  0  0
   37.2330   21.7830   31.0510 C   0  0  0  0  0  0  0  0  0  0  0  0
   37.8760   22.9180   30.6100 C   0  0  0  0  0  0  0  0  0  0  0  0
   37.3040   24.1550   30.7220 N   0  0  0  0  0  0  0  0  0  0  0  0
   36.0830   24.3250   31.2670 C   0  0  0  0  0  0  0  0  0  0  0  0
   35.4190   23.2260   31.7120 N   0  0  0  0  0  0  0  0  0  0  0  0
   37.6930   20.8280   30.9570 H   0  0  0  0  0  0  0  0  0  0  0  0
   38.8610   22.8540   30.1610 H   0  0  0  0  0  0  0  0  0  0  0  0
   35.2170   20.8200   32.1360 C   0  0  0  0  0  0  0  0  0  0  0  0
   35.8380   19.5840   32.4740 C   0  0  0  0  0  0  0  0  0  0  0  0
   35.5530   20.5440   33.6180 C   0  0  0  0  0  0  0  0  0  0  0  0
   34.1080   20.8500   31.9230 H   0  0  0  0  0  0  0  0  0  0  0  0
   36.9460   19.4350   32.3120 H   0  0  0  0  0  0  0  0  0  0  0  0
   35.2860   18.6450   32.4400 H   0  0  0  0  0  0  0  0  0  0  0  0
   34.6900   20.2470   34.2450 H   0  0  0  0  0  0  0  0  0  0  0  0
   36.3840   21.0950   34.0750 H   0  0  0  0  0  0  0  0  0  0  0  0
   35.4640   25.6350   31.4040 C   0  0  0  0  0  0  0  0  0  0  0  0
   34.3720   25.5660   31.3870 H   0  0  0  0  0  0  0  0  0  0  0  0
   35.7390   26.1330   32.3760 H   0  0  0  0  0  0  0  0  0  0  0  0
   36.5640   27.6710   30.4430 C   0  0  0  0  0  0  0  0  0  0  0  0
   36.8370   28.1780   31.5680 O   0  0  0  0  0  0  0  0  0  0  0  0
   35.8870   26.4410   30.2720 N   0  0  0  0  0  0  0  0  0  0  0  0
   35.6580   26.0520   29.3350 H   0  0  0  0  0  0  0  0  0  0  0  0
   36.9550   28.3690   29.2520 N   0  0  0  0  0  0  0  0  0  0  0  0
   37.9780   28.4770   29.0490 H   0  0  0  0  0  0  0  0  0  0  0  0
   36.2640   28.7680   28.5920 H   0  0  0  0  0  0  0  0  0  0  0  0
  1  6  1  0  0  0  0
  1  9  1  0  0  0  0
  2  1  2  0  0  0  0
  3  4  2  0  0  0  0
  3  2  1  0  0  0  0
  4  5  1  0  0  0  0
  5 17  1  0  0  0  0
  5  6  2  0  0  0  0
  7  2  1  0  0  0  0
  8  3  1  0  0  0  0
  9 10  1  0  0  0  0
  9 11  1  0  0  0  0
 10 11  1  0  0  0  0
 11 16  1  0  0  0  0
 11 15  1  0  0  0  0
 12  9  1  0  0  0  0
 13 10  1  0  0  0  0
 14 10  1  0  0  0  0
 17 19  1  0  0  0  0
 18 17  1  0  0  0  0
 20 21  2  0  0  0  0
 22 20  1  0  0  0  0
 22 17  1  0  0  0  0
 23 22  1  0  0  0  0
 24 20  1  0  0  0  0
 25 24  1  0  0  0  0
 26 24  1  0  0  0  0
M  END
>  <minimizedAffinity>
-4.26474524

$$$$

 OpenBabel03272510313D

 26 27  0  0  0  0  0  0  0  0999 V2000
   36.2680   21.3320   33.1490 C   0  0  0  0  0  0  0  0  0  0  0  0
   36.0530   22.2540   32.1410 C   0  0  0  0  0  0  0  0  0  0  0  0
   36.9250   23.3200   32.1480 C   0  0  0  0  0  0  0  0  0  0  0  0
   37.9130   23.4310   33.0860 N   0  0  0  0  0  0  0  0  0  0  0  0
   38.0830   22.5040   34.0510 C   0  0  0  0  0  0  0  0  0  0  0  0
   37.2400   21.4390   34.0740 N   0  0  0  0  0  0  0  0  0  0  0  0
   35.2890   22.1820   31.4030 H   0  0  0  0  0  0  0  0  0  0  0  0
   36.8440   24.1020   31.4020 H   0  0  0  0  0  0  0  0  0  0  0  0
   35.3710   20.1130   33.2020 C   0  0  0  0  0  0  0  0  0  0  0  0
   34.6610   19.6240   32.0680 C   0  0  0  0  0  0  0  0  0  0  0  0
   35.9710   18.9310   32.4090 C   0  0  0  0  0  0  0  0  0  0  0  0
   35.0300   19.8330   34.2410 H   0  0  0  0  0  0  0  0  0  0  0  0
   34.7150   20.1660   31.0790 H   0  0  0  0  0  0  0  0  0  0  0  0
   33.7350   19.0590   32.1800 H   0  0  0  0  0  0  0  0  0  0  0  0
   35.8400   17.9370   32.8830 H   0  0  0  0  0  0  0  0  0  0  0  0
   36.8530   19.1150   31.7850 H   0  0  0  0  0  0  0  0  0  0  0  0
   39.1370   22.6000   35.0500 C   0  0  0  0  0  0  0  0  0  0  0  0
   39.9600   21.9130   34.8310 H   0  0  0  0  0  0  0  0  0  0  0  0
   39.5840   23.6330   35.0950 H   0  0  0  0  0  0  0  0  0  0  0  0
   38.1000   23.1980   37.2510 C   0  0  0  0  0  0  0  0  0  0  0  0
   38.1620   24.4460   37.0560 O   0  0  0  0  0  0  0  0  0  0  0  0
   38.5630   22.2290   36.3310 N   0  0  0  0  0  0  0  0  0  0  0  0
   38.5160   21.2080   36.5220 H   0  0  0  0  0  0  0  0  0  0  0  0
   37.5300   22.7140   38.4750 N   0  0  0  0  0  0  0  0  0  0  0  0
   36.5090   22.8770   38.6500 H   0  0  0  0  0  0  0  0  0  0  0  0
   38.0900   22.2130   39.1870 H   0  0  0  0  0  0  0  0  0  0  0  0
  1  9  1  0  0  0  0
  1  6  1  0  0  0  0
  2  3  1  0  0  0  0
  2  1  2  0  0  0  0
  3  4  2  0  0  0  0
  4  5  1  0  0  0  0
  5  6  2  0  0  0  0
  5 17  1  0  0  0  0
  7  2  1  0  0  0  0
  8  3  1  0  0  0  0
  9 12  1  0  0  0  0
 10 14  1  0  0  0  0
 10 11  1  0  0  0  0
 10  9  1  0  0  0  0
 11 15  1  0  0  0  0
 11  9  1  0  0  0  0
 13 10  1  0  0  0  0
 16 11  1  0  0  0  0
 17 19  1  0  0  0  0
 17 22  1  0  0  0  0
 18 17  1  0  0  0  0
 20 24  1  0  0  0  0
 21 20  2  0  0  0  0
 22 23  1  0  0  0  0
 22 20  1  0  0  0  0
 24 25  1  0  0  0  0
 24 26  1  0  0  0  0
M  END
>  <minimizedAffinity>
-4.23597527

$$$$
