
 OpenBabel03272510313D

 26 27  0  0  0  0  0  0  0  0999 V2000
   36.4300   31.0910   49.2140 C   0  0  0  0  0  0  0  0  0  0  0  0
   36.8860   32.1350   49.9980 C   0  0  0  0  0  0  0  0  0  0  0  0
   37.8610   32.9080   49.4060 C   0  0  0  0  0  0  0  0  0  0  0  0
   38.3180   32.6420   48.1450 N   0  0  0  0  0  0  0  0  0  0  0  0
   37.8410   31.6110   47.4200 C   0  0  0  0  0  0  0  0  0  0  0  0
   36.8800   30.8260   47.9730 N   0  0  0  0  0  0  0  0  0  0  0  0
   36.5400   32.3570   50.9790 H   0  0  0  0  0  0  0  0  0  0  0  0
   38.2880   33.7530   49.9330 H   0  0  0  0  0  0  0  0  0  0  0  0
   35.3390   30.2040   49.7760 C   0  0  0  0  0  0  0  0  0  0  0  0
   35.3050   28.7950   49.5740 C   0  0  0  0  0  0  0  0  0  0  0  0
   35.8720   29.2850   50.8960 C   0  0  0  0  0  0  0  0  0  0  0  0
   34.3920   30.7540   50.0550 H   0  0  0  0  0  0  0  0  0  0  0  0
   36.0880   28.2870   48.9390 H   0  0  0  0  0  0  0  0  0  0  0  0
   34.3650   28.2430   49.5890 H   0  0  0  0  0  0  0  0  0  0  0  0
   35.1850   29.1480   51.7550 H   0  0  0  0  0  0  0  0  0  0  0  0
   36.9550   29.2420   51.0640 H   0  0  0  0  0  0  0  0  0  0  0  0
   38.3100   31.3200   46.0730 C   0  0  0  0  0  0  0  0  0  0  0  0
   37.6610   30.5950   45.5710 H   0  0  0  0  0  0  0  0  0  0  0  0
   38.3260   32.2400   45.4230 H   0  0  0  0  0  0  0  0  0  0  0  0
   40.7890   31.4220   45.7250 C   0  0  0  0  0  0  0  0  0  0  0  0
   40.7650   32.5590   45.1690 O   0  0  0  0  0  0  0  0  0  0  0  0
   39.6370   30.7420   46.1850 N   0  0  0  0  0  0  0  0  0  0  0  0
   39.6800   29.8010   46.6240 H   0  0  0  0  0  0  0  0  0  0  0  0
   42.0500   30.7650   45.9100 N   0  0  0  0  0  0  0  0  0  0  0  0
   42.2140   30.2340   46.7990 H   0  0  0  0  0  0  0  0  0  0  0  0
   42.8010   30.7980   45.1970 H   0  0  0  0  0  0  0  0  0  0  0  0
  1  9  1  0  0  0  0
  1  2  1  0  0  0  0
  2  7  1  0  0  0  0
  3  8  1  0  0  0  0
  3  2  2  0  0  0  0
  4  3  1  0  0  0  0
  5  6  1  0  0  0  0
  5  4  2  0  0  0  0
  6  1  2  0  0  0  0
  9 12  1  0  0  0  0
  9 11  1  0  0  0  0
 10 14  1  0  0  0  0
 10  9  1  0  0  0  0
 10 11  1  0  0  0  0
 11 16  1  0  0  0  0
 11 15  1  0  0  0  0
 13 10  1  0  0  0  0
 17 22  1  0  0  0  0
 17  5  1  0  0  0  0
 18 17  1  0  0  0  0
 19 17  1  0  0  0  0
 20 24  1  0  0  0  0
 20 22  1  0  0  0  0
 21 20  2  0  0  0  0
 22 23  1  0  0  0  0
 24 25  1  0  0  0  0
 26 24  1  0  0  0  0
M  END
>  <minimizedAffinity>
-5.08846569

>  <minimizedRMSD>
1.15375733

$$$$
