
 OpenBabel03272507273D

 33 34  0  0  1  0  0  0  0  0999 V2000
   36.6940   29.9540   49.0150 C   0  0  0  0  0  0  0  0  0  0  0  0
   37.7060   30.6240   48.3110 C   0  0  0  0  0  0  0  0  0  0  0  0
   37.4870   30.9180   46.9600 C   0  0  0  0  0  0  0  0  0  0  0  0
   36.3260   30.5450   46.4180 N   0  0  0  0  0  0  0  0  0  0  0  0
   35.3720   29.9020   47.1190 C   0  0  0  0  0  0  0  0  0  0  0  0
   35.5590   29.6130   48.4030 N   0  0  0  0  0  0  0  0  0  0  0  0
   38.4700   31.5860   46.2120 N   0  0  0  0  0  0  0  0  0  0  0  0
   39.4580   32.5320   46.7490 C   0  0  0  0  0  0  0  0  0  0  0  0
   40.1410   33.1570   45.5820 C   0  0  0  0  0  0  0  0  0  0  0  0
   39.2010   32.8850   44.4600 C   0  0  0  0  0  0  0  0  0  0  0  0
   38.7300   31.5000   44.8040 C   0  0  2  0  0  0  0  0  0  0  0  0
   36.9330   29.7580   50.0580 H   0  0  0  0  0  0  0  0  0  0  0  0
   38.6440   30.9150   48.7860 H   0  0  0  0  0  0  0  0  0  0  0  0
   34.4210   29.6020   46.6600 H   0  0  0  0  0  0  0  0  0  0  0  0
   40.1940   31.9150   47.2950 H   0  0  0  0  0  0  0  0  0  0  0  0
   38.9570   33.2370   47.4110 H   0  0  0  0  0  0  0  0  0  0  0  0
   41.1660   32.8400   45.4140 H   0  0  0  0  0  0  0  0  0  0  0  0
   40.1970   34.2720   45.7610 H   0  0  0  0  0  0  0  0  0  0  0  0
   39.7920   32.8220   43.5130 H   0  0  0  0  0  0  0  0  0  0  0  0
   38.3990   33.6130   44.3460 H   0  0  0  0  0  0  0  0  0  0  0  0
   37.6240   31.0250   43.9230 C   0  0  0  0  0  0  0  0  0  0  0  0
   36.4950   31.7470   44.2780 F   0  0  0  0  0  0  0  0  0  0  0  0
   37.3090   29.7010   44.0250 F   0  0  0  0  0  0  0  0  0  0  0  0
   37.9510   31.4250   42.6370 F   0  0  0  0  0  0  0  0  0  0  0  0
   39.8720   30.5520   44.6620 C   0  0  0  0  0  0  0  0  0  0  0  0
   40.6830   30.9340   45.3550 H   0  0  0  0  0  0  0  0  0  0  0  0
   39.5220   29.6130   45.1400 H   0  0  0  0  0  0  0  0  0  0  0  0
   40.3110   30.7000   43.5090 O   0  0  0  0  0  0  0  0  0  0  0  0
   41.0000   29.9620   42.6040 C   0  0  0  0  0  0  0  0  0  0  0  0
   40.7750   30.4190   41.4570 O   0  0  0  0  0  0  0  0  0  0  0  0
   41.8740   28.9070   42.2820 N   0  0  0  0  0  0  0  0  0  0  0  0
   41.8830   27.9600   42.7430 H   0  0  0  0  0  0  0  0  0  0  0  0
   42.5900   29.0620   41.5120 H   0  0  0  0  0  0  0  0  0  0  0  0
  1 12  1  0  0  0  0
  2 13  1  0  0  0  0
  2  1  2  0  0  0  0
  3  2  1  0  0  0  0
  4  3  2  0  0  0  0
  4  5  1  0  0  0  0
  5  6  2  0  0  0  0
  6  1  1  0  0  0  0
  7  8  1  0  0  0  0
  7  3  1  0  0  0  0
  8 15  1  0  0  0  0
  8 16  1  0  0  0  0
  9 18  1  0  0  0  0
  9  8  1  0  0  0  0
 10 11  1  0  0  0  0
 10  9  1  0  0  0  0
 11 21  1  6  0  0  0
 11  7  1  0  0  0  0
 14  5  1  0  0  0  0
 17  9  1  0  0  0  0
 19 10  1  0  0  0  0
 20 10  1  0  0  0  0
 21 23  1  0  0  0  0
 21 22  1  0  0  0  0
 24 21  1  0  0  0  0
 25 11  1  0  0  0  0
 25 27  1  0  0  0  0
 25 26  1  0  0  0  0
 28 25  1  0  0  0  0
 29 28  1  0  0  0  0
 30 29  2  0  0  0  0
 31 29  1  0  0  0  0
 31 32  1  0  0  0  0
 33 31  1  0  0  0  0
M  END
>  <minimizedAffinity>
-5.163764

>  <minimizedRMSD>
0.112215035

$$$$
