
 OpenBabel03272503063D

 26 27  0  0  0  0  0  0  0  0999 V2000
   38.4840   30.4120   47.3020 F   0  0  0  0  0  0  0  0  0  0  0  0
   38.7630   31.6450   47.7830 C   0  0  0  0  0  0  0  0  0  0  0  0
   38.1980   32.0650   48.9690 C   0  0  0  0  0  0  0  0  0  0  0  0
   38.5200   33.3290   49.4050 C   0  0  0  0  0  0  0  0  0  0  0  0
   39.3690   34.1510   48.7000 C   0  0  0  0  0  0  0  0  0  0  0  0
   39.9260   33.7250   47.5200 C   0  0  0  0  0  0  0  0  0  0  0  0
   39.6180   32.4520   47.0540 C   0  0  0  0  0  0  0  0  0  0  0  0
   38.0770   33.6580   50.3360 H   0  0  0  0  0  0  0  0  0  0  0  0
   39.6020   35.1270   49.0610 H   0  0  0  0  0  0  0  0  0  0  0  0
   40.5920   34.3770   46.9690 H   0  0  0  0  0  0  0  0  0  0  0  0
   36.8030   29.5840   51.4550 C   0  0  0  0  0  0  0  0  0  0  0  0
   37.6760   30.4600   50.8060 C   0  0  0  0  0  0  0  0  0  0  0  0
   37.3100   31.1470   49.6660 C   0  0  0  0  0  0  0  0  0  0  0  0
   36.0370   30.9220   49.2010 N   0  0  0  0  0  0  0  0  0  0  0  0
   35.1980   30.0770   49.8280 C   0  0  0  0  0  0  0  0  0  0  0  0
   35.5660   29.4270   50.9220 N   0  0  0  0  0  0  0  0  0  0  0  0
   37.1220   29.0570   52.3530 H   0  0  0  0  0  0  0  0  0  0  0  0
   38.6800   30.6140   51.2040 H   0  0  0  0  0  0  0  0  0  0  0  0
   34.2290   29.9970   49.3540 H   0  0  0  0  0  0  0  0  0  0  0  0
   39.3420   32.1780   44.6850 C   0  0  0  0  0  0  0  0  0  0  0  0
   38.2490   32.7840   44.9350 O   0  0  0  0  0  0  0  0  0  0  0  0
   40.1730   31.9580   45.8280 N   0  0  0  0  0  0  0  0  0  0  0  0
   41.0780   31.4750   45.6830 H   0  0  0  0  0  0  0  0  0  0  0  0
   39.6650   31.7770   43.3830 N   0  0  0  0  0  0  0  0  0  0  0  0
   40.4060   32.2280   42.8370 H   0  0  0  0  0  0  0  0  0  0  0  0
   39.1510   31.0080   42.9480 H   0  0  0  0  0  0  0  0  0  0  0  0
  1  2  1  0  0  0  0
  2  3  1  0  0  0  0
  3  4  2  0  0  0  0
  3 13  1  0  0  0  0
  4  8  1  0  0  0  0
  5  9  1  0  0  0  0
  5  4  1  0  0  0  0
  6  5  2  0  0  0  0
  7  6  1  0  0  0  0
  7  2  2  0  0  0  0
 10  6  1  0  0  0  0
 11 17  1  0  0  0  0
 12 18  1  0  0  0  0
 12 11  2  0  0  0  0
 13 12  1  0  0  0  0
 14 13  2  0  0  0  0
 14 15  1  0  0  0  0
 15 16  2  0  0  0  0
 16 11  1  0  0  0  0
 19 15  1  0  0  0  0
 20 21  2  0  0  0  0
 20 22  1  0  0  0  0
 22  7  1  0  0  0  0
 23 22  1  0  0  0  0
 24 20  1  0  0  0  0
 25 24  1  0  0  0  0
 26 24  1  0  0  0  0
M  END
>  <minimizedAffinity>
-5.91580534

>  <minimizedRMSD>
0.115410164

$$$$
