
 OpenBabel03272508233D

 45 47  0  0  1  0  0  0  0  0999 V2000
   32.5420   27.8020   48.5800 C   0  0  0  0  0  0  0  0  0  0  0  0
   32.8890   27.2190   49.4740 H   0  0  0  0  0  0  0  0  0  0  0  0
   31.9470   28.6510   48.9990 H   0  0  0  0  0  0  0  0  0  0  0  0
   30.3160   27.0890   47.8980 C   0  0  0  0  0  0  0  0  0  0  0  0
   31.6820   26.9870   47.7730 C   0  0  0  0  0  0  0  0  0  0  0  0
   32.1040   26.1130   46.8540 C   0  0  0  0  0  0  0  0  0  0  0  0
   31.2600   25.3860   46.1060 N   0  0  0  0  0  0  0  0  0  0  0  0
   29.9170   25.4650   46.2060 C   0  0  0  0  0  0  0  0  0  0  0  0
   29.4340   26.3180   47.1040 N   0  0  0  0  0  0  0  0  0  0  0  0
   33.1490   25.9270   46.6470 H   0  0  0  0  0  0  0  0  0  0  0  0
   29.2030   24.9040   45.6280 H   0  0  0  0  0  0  0  0  0  0  0  0
   29.6450   27.9310   48.9340 C   0  0  1  0  0  0  0  0  0  0  0  0
   28.6900   28.9330   48.5110 C   0  0  0  0  0  0  0  0  0  0  0  0
   28.1940   27.5900   49.1150 C   0  0  2  0  0  0  0  0  0  0  0  0
   30.2840   28.2390   49.7680 H   0  0  0  0  0  0  0  0  0  0  0  0
   28.5200   29.0920   47.4300 H   0  0  0  0  0  0  0  0  0  0  0  0
   28.5280   29.8490   49.1080 H   0  0  0  0  0  0  0  0  0  0  0  0
   27.6310   27.0130   48.3250 H   0  0  0  0  0  0  0  0  0  0  0  0
   27.5660   27.7690   50.4310 C   0  0  0  0  0  0  0  0  0  0  0  0
   26.4000   28.1360   50.4130 O   0  0  0  0  0  0  0  0  0  0  0  0
   28.3790   27.4980   51.5830 N   0  0  0  0  0  0  0  0  0  0  0  0
   27.9930   27.7970   52.5160 H   0  0  0  0  0  0  0  0  0  0  0  0
   29.1030   27.0680   50.9730 H   0  0  0  0  0  0  0  0  0  0  0  0
   33.7090   28.4160   47.8680 C   0  0  0  0  0  0  0  0  0  0  0  0
   33.2620   29.1240   47.1380 H   0  0  0  0  0  0  0  0  0  0  0  0
   34.1550   27.5970   47.2270 H   0  0  0  0  0  0  0  0  0  0  0  0
   35.0640   30.6620   46.9710 F   0  0  0  0  0  0  0  0  0  0  0  0
   35.4000   30.0630   48.1660 C   0  0  0  0  0  0  0  0  0  0  0  0
   34.7420   28.9330   48.6800 C   0  0  0  0  0  0  0  0  0  0  0  0
   35.2140   28.5210   49.8470 C   0  0  0  0  0  0  0  0  0  0  0  0
   36.2390   29.0980   50.5310 C   0  0  0  0  0  0  0  0  0  0  0  0
   36.8980   30.2170   50.0290 C   0  0  0  0  0  0  0  0  0  0  0  0
   36.4200   30.6310   48.8520 C   0  0  0  0  0  0  0  0  0  0  0  0
   34.7210   27.6260   50.2930 H   0  0  0  0  0  0  0  0  0  0  0  0
   36.5280   28.6490   51.4940 H   0  0  0  0  0  0  0  0  0  0  0  0
   38.0000   30.8350   50.7600 C   0  0  0  0  0  0  0  0  0  0  0  0
   37.7560   31.8280   51.1570 H   0  0  0  0  0  0  0  0  0  0  0  0
   38.2900   30.2140   51.6430 H   0  0  0  0  0  0  0  0  0  0  0  0
   38.8970   30.9840   50.1080 H   0  0  0  0  0  0  0  0  0  0  0  0
   37.1090   31.7910   48.3150 O   0  0  0  0  0  0  0  0  0  0  0  0
   38.2380   31.5310   47.6190 C   0  0  0  0  0  0  0  0  0  0  0  0
   39.1090   32.4600   47.7100 O   0  0  0  0  0  0  0  0  0  0  0  0
   38.6790   30.4860   46.8210 N   0  0  0  0  0  0  0  0  0  0  0  0
   39.6750   30.1800   46.7000 H   0  0  0  0  0  0  0  0  0  0  0  0
   39.0720   29.7130   46.2380 H   0  0  0  0  0  0  0  0  0  0  0  0
  1  3  1  0  0  0  0
  1  2  1  0  0  0  0
  4 12  1  0  0  0  0
  5  4  1  0  0  0  0
  5  1  1  0  0  0  0
  6  5  2  0  0  0  0
  7  8  2  0  0  0  0
  7  6  1  0  0  0  0
  8  9  1  0  0  0  0
  9  4  2  0  0  0  0
 10  6  1  0  0  0  0
 11  8  1  0  0  0  0
 12 14  1  0  0  0  0
 12 15  1  1  0  0  0
 13 12  1  0  0  0  0
 13 17  1  0  0  0  0
 13 14  1  0  0  0  0
 14 18  1  6  0  0  0
 14 19  1  0  0  0  0
 16 13  1  0  0  0  0
 19 21  1  0  0  0  0
 20 19  2  0  0  0  0
 21 22  1  0  0  0  0
 23 21  1  0  0  0  0
 24  1  1  0  0  0  0
 24 29  1  0  0  0  0
 25 24  1  0  0  0  0
 26 24  1  0  0  0  0
 27 28  1  0  0  0  0
 28 29  2  0  0  0  0
 28 33  1  0  0  0  0
 29 30  1  0  0  0  0
 30 34  1  0  0  0  0
 30 31  2  0  0  0  0
 31 35  1  0  0  0  0
 32 31  1  0  0  0  0
 32 36  1  0  0  0  0
 33 32  2  0  0  0  0
 36 37  1  0  0  0  0
 36 38  1  0  0  0  0
 39 36  1  0  0  0  0
 40 33  1  0  0  0  0
 41 42  2  0  0  0  0
 41 40  1  0  0  0  0
 43 41  1  0  0  0  0
 44 43  1  0  0  0  0
 45 43  1  0  0  0  0
M  END
>  <minimizedAffinity>
-6.31086779

>  <minimizedRMSD>
0.757480979

$$$$
