
 OpenBabel03272500373D

 30 31  0  0  1  0  0  0  0  0999 V2000
   37.2300   31.1060   49.2260 C   0  0  0  0  0  0  0  0  0  0  0  0
   37.4090   32.3800   49.7940 C   0  0  0  0  0  0  0  0  0  0  0  0
   38.1520   33.3120   49.0650 C   0  0  0  0  0  0  0  0  0  0  0  0
   38.6480   32.9260   47.8630 N   0  0  0  0  0  0  0  0  0  0  0  0
   38.4580   31.7000   47.3520 C   0  0  0  0  0  0  0  0  0  0  0  0
   37.7450   30.7950   48.0440 N   0  0  0  0  0  0  0  0  0  0  0  0
   39.0180   31.3910   46.0840 N   0  0  0  0  0  0  0  0  0  0  0  0
   40.3550   30.8630   46.0110 C   0  0  0  0  0  0  0  0  0  0  0  0
   41.0390   31.6530   44.8920 C   0  0  0  0  0  0  0  0  0  0  0  0
   40.3700   31.1690   43.6310 C   0  0  0  0  0  0  0  0  0  0  0  0
   38.9950   31.7430   43.6310 C   0  0  0  0  0  0  0  0  0  0  0  0
   38.2430   31.6070   44.9100 C   0  0  2  0  0  0  0  0  0  0  0  0
   36.9900   32.6340   50.7560 H   0  0  0  0  0  0  0  0  0  0  0  0
   38.2900   34.2800   49.4910 H   0  0  0  0  0  0  0  0  0  0  0  0
   40.8850   31.0590   46.9710 H   0  0  0  0  0  0  0  0  0  0  0  0
   40.3010   29.8010   45.7510 H   0  0  0  0  0  0  0  0  0  0  0  0
   42.0950   31.3790   44.9030 H   0  0  0  0  0  0  0  0  0  0  0  0
   40.8560   32.7410   45.0460 H   0  0  0  0  0  0  0  0  0  0  0  0
   40.3440   30.0610   43.6390 H   0  0  0  0  0  0  0  0  0  0  0  0
   40.9120   31.5470   42.7590 H   0  0  0  0  0  0  0  0  0  0  0  0
   39.0820   32.8120   43.3380 H   0  0  0  0  0  0  0  0  0  0  0  0
   38.4360   31.2700   42.7760 H   0  0  0  0  0  0  0  0  0  0  0  0
   37.5960   30.6970   44.7920 H   0  0  0  0  0  0  0  0  0  0  0  0
   36.4330   30.0940   50.0030 C   0  0  0  0  0  0  0  0  0  0  0  0
   35.0870   30.4260   49.9510 F   0  0  0  0  0  0  0  0  0  0  0  0
   36.7420   28.8560   49.5240 F   0  0  0  0  0  0  0  0  0  0  0  0
   36.8270   30.2000   51.3400 F   0  0  0  0  0  0  0  0  0  0  0  0
   37.3130   32.7260   45.0140 N   0  0  0  0  0  0  0  0  0  0  0  0
   36.6150   32.6050   45.7520 H   0  0  0  0  0  0  0  0  0  0  0  0
   36.9800   33.0570   44.0990 H   0  0  0  0  0  0  0  0  0  0  0  0
  1  2  1  0  0  0  0
  1 24  1  0  0  0  0
  2 13  1  0  0  0  0
  3 14  1  0  0  0  0
  3  2  2  0  0  0  0
  4  3  1  0  0  0  0
  5  4  2  0  0  0  0
  5  6  1  0  0  0  0
  6  1  2  0  0  0  0
  7  5  1  0  0  0  0
  8  7  1  0  0  0  0
  8 15  1  0  0  0  0
  9 17  1  0  0  0  0
  9 18  1  0  0  0  0
  9  8  1  0  0  0  0
 10 11  1  0  0  0  0
 10 19  1  0  0  0  0
 10  9  1  0  0  0  0
 11 12  1  0  0  0  0
 12 23  1  6  0  0  0
 12 28  1  0  0  0  0
 12  7  1  0  0  0  0
 16  8  1  0  0  0  0
 20 10  1  0  0  0  0
 21 11  1  0  0  0  0
 22 11  1  0  0  0  0
 24 27  1  0  0  0  0
 25 24  1  0  0  0  0
 26 24  1  0  0  0  0
 28 29  1  0  0  0  0
 30 28  1  0  0  0  0
M  END
>  <minimizedAffinity>
-6.01206875

>  <minimizedRMSD>
0.706241608

$$$$
