
 OpenBabel03272505183D

 27 28  0  0  0  0  0  0  0  0999 V2000
   38.8370   32.3690   47.5960 C   0  0  0  0  0  0  0  0  0  0  0  0
   38.3500   31.0960   47.5140 C   0  0  0  0  0  0  0  0  0  0  0  0
   38.7280   30.3530   46.4250 C   0  0  0  0  0  0  0  0  0  0  0  0
   39.5440   30.8420   45.4680 C   0  0  0  0  0  0  0  0  0  0  0  0
   40.0530   32.1240   45.5170 C   0  0  0  0  0  0  0  0  0  0  0  0
   39.6780   32.8740   46.6070 C   0  0  0  0  0  0  0  0  0  0  0  0
   38.3440   29.3410   46.3570 H   0  0  0  0  0  0  0  0  0  0  0  0
   39.7930   30.1820   44.6380 H   0  0  0  0  0  0  0  0  0  0  0  0
   40.7040   32.4730   44.7260 H   0  0  0  0  0  0  0  0  0  0  0  0
   40.1140   33.8700   46.5800 H   0  0  0  0  0  0  0  0  0  0  0  0
   37.3000   29.3940   50.6610 C   0  0  0  0  0  0  0  0  0  0  0  0
   38.0490   29.9120   49.5930 C   0  0  0  0  0  0  0  0  0  0  0  0
   37.4780   30.6140   48.5520 C   0  0  0  0  0  0  0  0  0  0  0  0
   36.1340   30.7460   48.6690 N   0  0  0  0  0  0  0  0  0  0  0  0
   35.3840   30.2690   49.6670 C   0  0  0  0  0  0  0  0  0  0  0  0
   35.9690   29.5880   50.6680 N   0  0  0  0  0  0  0  0  0  0  0  0
   37.7490   28.8450   51.4740 H   0  0  0  0  0  0  0  0  0  0  0  0
   39.1060   29.7100   49.6680 H   0  0  0  0  0  0  0  0  0  0  0  0
   34.0080   30.5820   49.4840 N   0  0  0  0  0  0  0  0  0  0  0  0
   33.1920   30.5460   50.1420 H   0  0  0  0  0  0  0  0  0  0  0  0
   33.9900   30.8770   48.4820 H   0  0  0  0  0  0  0  0  0  0  0  0
   39.4230   34.3490   48.8220 N   0  0  0  0  0  0  0  0  0  0  0  0
   38.6060   33.3370   48.6390 C   0  0  0  0  0  0  0  0  0  0  0  0
   37.7380   33.6730   49.6850 N   0  0  0  0  0  0  0  0  0  0  0  0
   39.2370   35.0390   49.5820 H   0  0  0  0  0  0  0  0  0  0  0  0
   36.8570   34.2380   49.6930 H   0  0  0  0  0  0  0  0  0  0  0  0
   37.8940   33.3600   50.6900 H   0  0  0  0  0  0  0  0  0  0  0  0
  1 23  1  0  0  0  0
  2  1  1  0  0  0  0
  2 13  1  0  0  0  0
  3  2  2  0  0  0  0
  4  5  2  0  0  0  0
  4  3  1  0  0  0  0
  5  6  1  0  0  0  0
  6  1  2  0  0  0  0
  7  3  1  0  0  0  0
  8  4  1  0  0  0  0
  9  5  1  0  0  0  0
 10  6  1  0  0  0  0
 11 16  1  0  0  0  0
 11 17  1  0  0  0  0
 12 18  1  0  0  0  0
 12 11  2  0  0  0  0
 13 14  2  0  0  0  0
 13 12  1  0  0  0  0
 14 15  1  0  0  0  0
 15 16  2  0  0  0  0
 19 15  1  0  0  0  0
 19 20  1  0  0  0  0
 21 19  1  0  0  0  0
 22 25  1  0  0  0  0
 23 22  2  0  0  0  0
 23 24  1  0  0  0  0
 24 26  1  0  0  0  0
 24 27  1  0  0  0  0
M  END
>  <minimizedAffinity>
-5.86274529

>  <minimizedRMSD>
0.401043713

$$$$
