
 OpenBabel03272506573D

 22 23  0  0  0  0  0  0  0  0999 V2000
   36.9950   29.7950   49.0420 C   0  0  0  0  0  0  0  0  0  0  0  0
   37.4380   30.2530   50.2920 C   0  0  0  0  0  0  0  0  0  0  0  0
   38.3130   31.3670   50.2590 C   0  0  0  0  0  0  0  0  0  0  0  0
   38.6610   31.9070   49.0710 N   0  0  0  0  0  0  0  0  0  0  0  0
   38.2010   31.4190   47.9120 C   0  0  0  0  0  0  0  0  0  0  0  0
   37.3510   30.3460   47.8480 N   0  0  0  0  0  0  0  0  0  0  0  0
   36.3220   28.9450   48.9750 H   0  0  0  0  0  0  0  0  0  0  0  0
   38.6640   31.7320   51.2060 H   0  0  0  0  0  0  0  0  0  0  0  0
   38.5680   31.9940   46.6110 C   0  0  0  0  0  0  0  0  0  0  0  0
   39.8310   32.4690   46.3780 C   0  0  0  0  0  0  0  0  0  0  0  0
   40.2990   33.0270   45.2100 C   0  0  0  0  0  0  0  0  0  0  0  0
   39.3790   33.0990   44.2010 N   0  0  0  0  0  0  0  0  0  0  0  0
   38.1110   32.6350   44.3990 C   0  0  0  0  0  0  0  0  0  0  0  0
   37.7120   32.0970   45.5690 N   0  0  0  0  0  0  0  0  0  0  0  0
   40.5540   32.4090   47.1820 H   0  0  0  0  0  0  0  0  0  0  0  0
   41.3120   33.3830   45.0930 H   0  0  0  0  0  0  0  0  0  0  0  0
   37.1220   32.6890   43.3760 N   0  0  0  0  0  0  0  0  0  0  0  0
   37.0270   32.1480   42.5090 H   0  0  0  0  0  0  0  0  0  0  0  0
   36.3570   33.3970   43.5170 H   0  0  0  0  0  0  0  0  0  0  0  0
   37.0140   29.6150   51.4790 N   0  0  0  0  0  0  0  0  0  0  0  0
   36.1010   30.1430   51.6000 H   0  0  0  0  0  0  0  0  0  0  0  0
   37.7540   28.9080   51.7390 H   0  0  0  0  0  0  0  0  0  0  0  0
  1  2  1  0  0  0  0
  2 20  1  0  0  0  0
  3  2  2  0  0  0  0
  3  8  1  0  0  0  0
  4  3  1  0  0  0  0
  5  4  2  0  0  0  0
  6  5  1  0  0  0  0
  6  1  2  0  0  0  0
  7  1  1  0  0  0  0
  9  5  1  0  0  0  0
 10  9  1  0  0  0  0
 10 15  1  0  0  0  0
 11 10  2  0  0  0  0
 12 13  2  0  0  0  0
 12 11  1  0  0  0  0
 13 14  1  0  0  0  0
 14  9  2  0  0  0  0
 16 11  1  0  0  0  0
 17 19  1  0  0  0  0
 17 13  1  0  0  0  0
 18 17  1  0  0  0  0
 20 21  1  0  0  0  0
 20 22  1  0  0  0  0
M  END
>  <minimizedAffinity>
-4.95907021

>  <minimizedRMSD>
1.29910481

$$$$
