
 OpenBabel03272500383D

 30 31  0  0  1  0  0  0  0  0999 V2000
   38.7910   23.1230   37.0630 C   0  0  0  0  0  0  0  0  0  0  0  0
   40.1210   22.6750   36.9840 C   0  0  0  0  0  0  0  0  0  0  0  0
   40.5580   22.1650   35.7580 C   0  0  0  0  0  0  0  0  0  0  0  0
   39.6720   22.1380   34.7310 N   0  0  0  0  0  0  0  0  0  0  0  0
   38.4080   22.5740   34.8430 C   0  0  0  0  0  0  0  0  0  0  0  0
   37.9760   23.0670   36.0180 N   0  0  0  0  0  0  0  0  0  0  0  0
   37.5540   22.5040   33.7100 N   0  0  0  0  0  0  0  0  0  0  0  0
   36.7820   21.3110   33.4790 C   0  0  0  0  0  0  0  0  0  0  0  0
   36.9590   21.0000   31.9900 C   0  0  0  0  0  0  0  0  0  0  0  0
   36.1940   22.0920   31.2870 C   0  0  0  0  0  0  0  0  0  0  0  0
   36.9890   23.3410   31.4480 C   0  0  0  0  0  0  0  0  0  0  0  0
   37.4790   23.6180   32.8270 C   0  0  2  0  0  0  0  0  0  0  0  0
   40.7850   22.7210   37.8340 H   0  0  0  0  0  0  0  0  0  0  0  0
   41.5660   21.8250   35.6930 H   0  0  0  0  0  0  0  0  0  0  0  0
   37.2030   20.4730   34.0790 H   0  0  0  0  0  0  0  0  0  0  0  0
   35.7320   21.5240   33.7030 H   0  0  0  0  0  0  0  0  0  0  0  0
   36.5040   20.0250   31.8090 H   0  0  0  0  0  0  0  0  0  0  0  0
   38.0420   21.0450   31.7320 H   0  0  0  0  0  0  0  0  0  0  0  0
   35.1920   22.1890   31.7540 H   0  0  0  0  0  0  0  0  0  0  0  0
   36.1140   21.8560   30.2220 H   0  0  0  0  0  0  0  0  0  0  0  0
   37.8380   23.2870   30.7320 H   0  0  0  0  0  0  0  0  0  0  0  0
   36.3590   24.1890   31.0600 H   0  0  0  0  0  0  0  0  0  0  0  0
   36.7360   24.3260   33.2820 H   0  0  0  0  0  0  0  0  0  0  0  0
   38.3100   23.6740   38.3770 C   0  0  0  0  0  0  0  0  0  0  0  0
   37.9800   25.0120   38.2260 F   0  0  0  0  0  0  0  0  0  0  0  0
   37.3000   22.8760   38.8250 F   0  0  0  0  0  0  0  0  0  0  0  0
   39.3890   23.6180   39.2650 F   0  0  0  0  0  0  0  0  0  0  0  0
   38.7200   24.3770   32.7270 N   0  0  0  0  0  0  0  0  0  0  0  0
   39.0170   24.7870   33.6170 H   0  0  0  0  0  0  0  0  0  0  0  0
   38.7550   24.9800   31.8950 H   0  0  0  0  0  0  0  0  0  0  0  0
  1 24  1  0  0  0  0
  2  1  1  0  0  0  0
  2 13  1  0  0  0  0
  3  2  2  0  0  0  0
  4  5  2  0  0  0  0
  4  3  1  0  0  0  0
  5  6  1  0  0  0  0
  6  1  2  0  0  0  0
  7  5  1  0  0  0  0
  8 16  1  0  0  0  0
  8  7  1  0  0  0  0
  8 15  1  0  0  0  0
  9  8  1  0  0  0  0
 10 11  1  0  0  0  0
 10 19  1  0  0  0  0
 10  9  1  0  0  0  0
 11 12  1  0  0  0  0
 12 23  1  1  0  0  0
 12  7  1  0  0  0  0
 14  3  1  0  0  0  0
 17  9  1  0  0  0  0
 18  9  1  0  0  0  0
 20 10  1  0  0  0  0
 21 11  1  0  0  0  0
 22 11  1  0  0  0  0
 24 26  1  0  0  0  0
 24 27  1  0  0  0  0
 25 24  1  0  0  0  0
 28 12  1  0  0  0  0
 28 29  1  0  0  0  0
 30 28  1  0  0  0  0
M  END
>  <minimizedAffinity>
-5.15959311

$$$$

 OpenBabel03272500383D

 30 31  0  0  1  0  0  0  0  0999 V2000
   36.5010   21.3800   33.0320 C   0  0  0  0  0  0  0  0  0  0  0  0
   36.7120   22.4180   32.1070 C   0  0  0  0  0  0  0  0  0  0  0  0
   37.4290   23.5350   32.5430 C   0  0  0  0  0  0  0  0  0  0  0  0
   37.8710   23.5430   33.8260 N   0  0  0  0  0  0  0  0  0  0  0  0
   37.6500   22.5340   34.6820 C   0  0  0  0  0  0  0  0  0  0  0  0
   36.9610   21.4530   34.2730 N   0  0  0  0  0  0  0  0  0  0  0  0
   38.1530   22.6350   36.0070 N   0  0  0  0  0  0  0  0  0  0  0  0
   37.3440   23.2510   37.0250 C   0  0  0  0  0  0  0  0  0  0  0  0
   38.2890   24.1980   37.7710 C   0  0  0  0  0  0  0  0  0  0  0  0
   39.2190   23.2810   38.5250 C   0  0  0  0  0  0  0  0  0  0  0  0
   40.1200   22.6630   37.5130 C   0  0  0  0  0  0  0  0  0  0  0  0
   39.4480   22.1210   36.2990 C   0  0  2  0  0  0  0  0  0  0  0  0
   36.3380   22.3580   31.0960 H   0  0  0  0  0  0  0  0  0  0  0  0
   37.5920   24.3240   31.8450 H   0  0  0  0  0  0  0  0  0  0  0  0
   36.5340   23.8470   36.5480 H   0  0  0  0  0  0  0  0  0  0  0  0
   36.9740   22.4720   37.7000 H   0  0  0  0  0  0  0  0  0  0  0  0
   37.6790   24.7860   38.4580 H   0  0  0  0  0  0  0  0  0  0  0  0
   38.8510   24.8120   37.0310 H   0  0  0  0  0  0  0  0  0  0  0  0
   38.6180   22.5130   39.0520 H   0  0  0  0  0  0  0  0  0  0  0  0
   39.8200   23.8660   39.2270 H   0  0  0  0  0  0  0  0  0  0  0  0
   40.8780   23.4280   37.2340 H   0  0  0  0  0  0  0  0  0  0  0  0
   40.7160   21.8670   38.0400 H   0  0  0  0  0  0  0  0  0  0  0  0
   39.3120   21.0230   36.4870 H   0  0  0  0  0  0  0  0  0  0  0  0
   35.7310   20.1730   32.5730 C   0  0  0  0  0  0  0  0  0  0  0  0
   34.5110   20.5730   32.0470 F   0  0  0  0  0  0  0  0  0  0  0  0
   36.5240   19.4650   31.7190 F   0  0  0  0  0  0  0  0  0  0  0  0
   35.4530   19.4070   33.7090 F   0  0  0  0  0  0  0  0  0  0  0  0
   40.3830   22.2060   35.1830 N   0  0  0  0  0  0  0  0  0  0  0  0
   40.0840   21.6710   34.3630 H   0  0  0  0  0  0  0  0  0  0  0  0
   41.3650   22.1140   35.4740 H   0  0  0  0  0  0  0  0  0  0  0  0
  1  6  1  0  0  0  0
  2  3  1  0  0  0  0
  2  1  2  0  0  0  0
  3  4  2  0  0  0  0
  4  5  1  0  0  0  0
  5  7  1  0  0  0  0
  6  5  2  0  0  0  0
  7 12  1  0  0  0  0
  7  8  1  0  0  0  0
  8 16  1  0  0  0  0
  8  9  1  0  0  0  0
  9 17  1  0  0  0  0
  9 10  1  0  0  0  0
 10 19  1  0  0  0  0
 10 20  1  0  0  0  0
 11 22  1  0  0  0  0
 11 10  1  0  0  0  0
 12 23  1  1  0  0  0
 12 11  1  0  0  0  0
 13  2  1  0  0  0  0
 14  3  1  0  0  0  0
 15  8  1  0  0  0  0
 18  9  1  0  0  0  0
 21 11  1  0  0  0  0
 24  1  1  0  0  0  0
 24 27  1  0  0  0  0
 25 24  1  0  0  0  0
 26 24  1  0  0  0  0
 28 30  1  0  0  0  0
 28 12  1  0  0  0  0
 29 28  1  0  0  0  0
M  END
>  <minimizedAffinity>
-5.07881165

$$$$

 OpenBabel03272500383D

 30 31  0  0  1  0  0  0  0  0999 V2000
   38.1690   23.6040   36.7460 C   0  0  0  0  0  0  0  0  0  0  0  0
   38.0740   22.3190   36.1820 C   0  0  0  0  0  0  0  0  0  0  0  0
   38.0410   22.2280   34.7880 C   0  0  0  0  0  0  0  0  0  0  0  0
   38.1010   23.3810   34.0770 N   0  0  0  0  0  0  0  0  0  0  0  0
   38.1910   24.5910   34.6490 C   0  0  0  0  0  0  0  0  0  0  0  0
   38.2240   24.6920   35.9900 N   0  0  0  0  0  0  0  0  0  0  0  0
   38.2490   25.7410   33.8180 N   0  0  0  0  0  0  0  0  0  0  0  0
   37.0260   26.3800   33.4080 C   0  0  0  0  0  0  0  0  0  0  0  0
   37.1920   26.6430   31.9090 C   0  0  0  0  0  0  0  0  0  0  0  0
   38.2340   27.7300   31.8330 C   0  0  0  0  0  0  0  0  0  0  0  0
   39.5350   27.0980   32.1920 C   0  0  0  0  0  0  0  0  0  0  0  0
   39.5180   26.2400   33.4080 C   0  0  2  0  0  0  0  0  0  0  0  0
   38.0300   21.4340   36.7980 H   0  0  0  0  0  0  0  0  0  0  0  0
   37.9690   21.2560   34.3560 H   0  0  0  0  0  0  0  0  0  0  0  0
   36.1720   25.6840   33.5630 H   0  0  0  0  0  0  0  0  0  0  0  0
   36.9240   27.3250   33.9520 H   0  0  0  0  0  0  0  0  0  0  0  0
   36.2300   26.9980   31.5360 H   0  0  0  0  0  0  0  0  0  0  0  0
   37.5510   25.7130   31.4110 H   0  0  0  0  0  0  0  0  0  0  0  0
   37.9670   28.5360   32.5460 H   0  0  0  0  0  0  0  0  0  0  0  0
   38.2940   28.1100   30.8090 H   0  0  0  0  0  0  0  0  0  0  0  0
   39.8770   26.5190   31.3060 H   0  0  0  0  0  0  0  0  0  0  0  0
   40.2920   27.9260   32.2850 H   0  0  0  0  0  0  0  0  0  0  0  0
   39.8830   26.8890   34.2490 H   0  0  0  0  0  0  0  0  0  0  0  0
   38.2070   23.7140   38.2460 C   0  0  0  0  0  0  0  0  0  0  0  0
   38.0340   25.0390   38.6180 F   0  0  0  0  0  0  0  0  0  0  0  0
   37.2880   22.8460   38.7560 F   0  0  0  0  0  0  0  0  0  0  0  0
   39.4910   23.3410   38.6530 F   0  0  0  0  0  0  0  0  0  0  0  0
   40.5360   25.2070   33.2530 N   0  0  0  0  0  0  0  0  0  0  0  0
   40.7360   24.7020   34.1190 H   0  0  0  0  0  0  0  0  0  0  0  0
   41.3390   25.5170   32.6900 H   0  0  0  0  0  0  0  0  0  0  0  0
  1 24  1  0  0  0  0
  2  1  1  0  0  0  0
  2 13  1  0  0  0  0
  3  2  2  0  0  0  0
  4  5  2  0  0  0  0
  4  3  1  0  0  0  0
  5  6  1  0  0  0  0
  6  1  2  0  0  0  0
  7  5  1  0  0  0  0
  8 15  1  0  0  0  0
  8  7  1  0  0  0  0
  8 16  1  0  0  0  0
  9  8  1  0  0  0  0
 10  9  1  0  0  0  0
 10 11  1  0  0  0  0
 10 19  1  0  0  0  0
 11 22  1  0  0  0  0
 11 12  1  0  0  0  0
 12  7  1  0  0  0  0
 12 23  1  1  0  0  0
 14  3  1  0  0  0  0
 17  9  1  0  0  0  0
 18  9  1  0  0  0  0
 20 10  1  0  0  0  0
 21 11  1  0  0  0  0
 24 25  1  0  0  0  0
 24 27  1  0  0  0  0
 24 26  1  0  0  0  0
 28 12  1  0  0  0  0
 28 29  1  0  0  0  0
 30 28  1  0  0  0  0
M  END
>  <minimizedAffinity>
-5.06546593

$$$$

 OpenBabel03272500383D

 30 31  0  0  1  0  0  0  0  0999 V2000
   39.0930   23.6450   37.3180 C   0  0  0  0  0  0  0  0  0  0  0  0
   39.8980   22.5080   37.1290 C   0  0  0  0  0  0  0  0  0  0  0  0
   40.6050   22.4110   35.9280 C   0  0  0  0  0  0  0  0  0  0  0  0
   40.4680   23.4180   35.0290 N   0  0  0  0  0  0  0  0  0  0  0  0
   39.6890   24.4890   35.2430 C   0  0  0  0  0  0  0  0  0  0  0  0
   39.0030   24.5930   36.3950 N   0  0  0  0  0  0  0  0  0  0  0  0
   39.6100   25.4920   34.2400 N   0  0  0  0  0  0  0  0  0  0  0  0
   38.6180   25.3790   33.2040 C   0  0  0  0  0  0  0  0  0  0  0  0
   39.3600   25.6880   31.9010 C   0  0  0  0  0  0  0  0  0  0  0  0
   39.6600   27.1630   31.9820 C   0  0  0  0  0  0  0  0  0  0  0  0
   40.7310   27.3240   33.0050 C   0  0  0  0  0  0  0  0  0  0  0  0
   40.5140   26.5910   34.2830 C   0  0  2  0  0  0  0  0  0  0  0  0
   39.9710   21.7360   37.8810 H   0  0  0  0  0  0  0  0  0  0  0  0
   41.2170   21.5510   35.7810 H   0  0  0  0  0  0  0  0  0  0  0  0
   38.2360   24.3340   33.1660 H   0  0  0  0  0  0  0  0  0  0  0  0
   37.8350   26.1230   33.3830 H   0  0  0  0  0  0  0  0  0  0  0  0
   38.6740   25.4740   31.0800 H   0  0  0  0  0  0  0  0  0  0  0  0
   40.3020   25.0930   31.8650 H   0  0  0  0  0  0  0  0  0  0  0  0
   38.7370   27.7020   32.2760 H   0  0  0  0  0  0  0  0  0  0  0  0
   40.0350   27.5150   31.0170 H   0  0  0  0  0  0  0  0  0  0  0  0
   41.6890   27.0160   32.5330 H   0  0  0  0  0  0  0  0  0  0  0  0
   40.8570   28.4280   33.1840 H   0  0  0  0  0  0  0  0  0  0  0  0
   40.0660   27.3350   34.9940 H   0  0  0  0  0  0  0  0  0  0  0  0
   38.3260   23.7600   38.6070 C   0  0  0  0  0  0  0  0  0  0  0  0
   37.3650   22.7620   38.6650 F   0  0  0  0  0  0  0  0  0  0  0  0
   39.2230   23.7580   39.6340 F   0  0  0  0  0  0  0  0  0  0  0  0
   37.6440   24.9800   38.5720 F   0  0  0  0  0  0  0  0  0  0  0  0
   41.8180   26.2610   34.8470 N   0  0  0  0  0  0  0  0  0  0  0  0
   41.7700   25.9420   35.8180 H   0  0  0  0  0  0  0  0  0  0  0  0
   42.5430   26.9510   34.6120 H   0  0  0  0  0  0  0  0  0  0  0  0
  1 24  1  0  0  0  0
  2  1  1  0  0  0  0
  2 13  1  0  0  0  0
  3  2  2  0  0  0  0
  4  5  2  0  0  0  0
  4  3  1  0  0  0  0
  5  6  1  0  0  0  0
  6  1  2  0  0  0  0
  7 12  1  0  0  0  0
  7  5  1  0  0  0  0
  8 16  1  0  0  0  0
  8  7  1  0  0  0  0
  9 10  1  0  0  0  0
  9  8  1  0  0  0  0
 10 19  1  0  0  0  0
 10 11  1  0  0  0  0
 11 22  1  0  0  0  0
 11 12  1  0  0  0  0
 12 28  1  0  0  0  0
 12 23  1  1  0  0  0
 14  3  1  0  0  0  0
 15  8  1  0  0  0  0
 17  9  1  0  0  0  0
 18  9  1  0  0  0  0
 20 10  1  0  0  0  0
 21 11  1  0  0  0  0
 24 25  1  0  0  0  0
 24 26  1  0  0  0  0
 27 24  1  0  0  0  0
 28 29  1  0  0  0  0
 30 28  1  0  0  0  0
M  END
>  <minimizedAffinity>
-4.94320202

$$$$

 OpenBabel03272500383D

 30 31  0  0  1  0  0  0  0  0999 V2000
   40.6260   23.5790   35.7360 C   0  0  0  0  0  0  0  0  0  0  0  0
   41.9080   24.1290   35.5560 C   0  0  0  0  0  0  0  0  0  0  0  0
   41.9910   25.3880   34.9560 C   0  0  0  0  0  0  0  0  0  0  0  0
   40.8340   25.9920   34.5880 N   0  0  0  0  0  0  0  0  0  0  0  0
   39.6270   25.4360   34.7750 C   0  0  0  0  0  0  0  0  0  0  0  0
   39.5340   24.2250   35.3510 N   0  0  0  0  0  0  0  0  0  0  0  0
   38.4710   26.1470   34.3550 N   0  0  0  0  0  0  0  0  0  0  0  0
   37.9860   25.9780   33.0110 C   0  0  0  0  0  0  0  0  0  0  0  0
   37.6920   27.3950   32.5080 C   0  0  0  0  0  0  0  0  0  0  0  0
   36.4830   27.8280   33.2980 C   0  0  0  0  0  0  0  0  0  0  0  0
   36.9510   28.0750   34.6910 C   0  0  0  0  0  0  0  0  0  0  0  0
   37.8150   27.0130   35.2760 C   0  0  2  0  0  0  0  0  0  0  0  0
   42.7980   23.6030   35.8700 H   0  0  0  0  0  0  0  0  0  0  0  0
   42.9610   25.8090   34.8190 H   0  0  0  0  0  0  0  0  0  0  0  0
   38.7840   25.5270   32.3800 H   0  0  0  0  0  0  0  0  0  0  0  0
   37.0660   25.3860   33.0410 H   0  0  0  0  0  0  0  0  0  0  0  0
   37.4570   27.3170   31.4460 H   0  0  0  0  0  0  0  0  0  0  0  0
   38.5650   28.0500   32.7270 H   0  0  0  0  0  0  0  0  0  0  0  0
   35.7230   27.0220   33.2650 H   0  0  0  0  0  0  0  0  0  0  0  0
   36.0900   28.7620   32.8840 H   0  0  0  0  0  0  0  0  0  0  0  0
   37.4760   29.0560   34.6950 H   0  0  0  0  0  0  0  0  0  0  0  0
   36.0370   28.2530   35.3220 H   0  0  0  0  0  0  0  0  0  0  0  0
   37.1330   26.3600   35.8840 H   0  0  0  0  0  0  0  0  0  0  0  0
   40.5250   22.2230   36.3810 C   0  0  0  0  0  0  0  0  0  0  0  0
   39.2440   21.7220   36.2070 F   0  0  0  0  0  0  0  0  0  0  0  0
   41.5240   21.4420   35.8820 F   0  0  0  0  0  0  0  0  0  0  0  0
   40.7070   22.4090   37.7550 F   0  0  0  0  0  0  0  0  0  0  0  0
   38.7120   27.6350   36.2430 N   0  0  0  0  0  0  0  0  0  0  0  0
   39.1960   26.9590   36.8400 H   0  0  0  0  0  0  0  0  0  0  0  0
   38.3000   28.4590   36.7000 H   0  0  0  0  0  0  0  0  0  0  0  0
  1 24  1  0  0  0  0
  2  1  1  0  0  0  0
  2 13  1  0  0  0  0
  3  2  2  0  0  0  0
  4  5  2  0  0  0  0
  4  3  1  0  0  0  0
  5  6  1  0  0  0  0
  6  1  2  0  0  0  0
  7  5  1  0  0  0  0
  7 12  1  0  0  0  0
  8 16  1  0  0  0  0
  8  7  1  0  0  0  0
  9 18  1  0  0  0  0
  9  8  1  0  0  0  0
  9 10  1  0  0  0  0
 10 11  1  0  0  0  0
 11 21  1  0  0  0  0
 11 12  1  0  0  0  0
 11 22  1  0  0  0  0
 12 23  1  1  0  0  0
 12 28  1  0  0  0  0
 14  3  1  0  0  0  0
 15  8  1  0  0  0  0
 17  9  1  0  0  0  0
 19 10  1  0  0  0  0
 20 10  1  0  0  0  0
 24 27  1  0  0  0  0
 25 24  1  0  0  0  0
 26 24  1  0  0  0  0
 28 30  1  0  0  0  0
 28 29  1  0  0  0  0
M  END
>  <minimizedAffinity>
-4.91742659

$$$$

 OpenBabel03272500383D

 30 31  0  0  1  0  0  0  0  0999 V2000
   39.4060   25.2860   35.0530 C   0  0  0  0  0  0  0  0  0  0  0  0
   38.2010   24.7090   34.6150 C   0  0  0  0  0  0  0  0  0  0  0  0
   38.1360   23.3140   34.5610 C   0  0  0  0  0  0  0  0  0  0  0  0
   39.2360   22.6140   34.9350 N   0  0  0  0  0  0  0  0  0  0  0  0
   40.3710   23.1990   35.3480 C   0  0  0  0  0  0  0  0  0  0  0  0
   40.4450   24.5400   35.4030 N   0  0  0  0  0  0  0  0  0  0  0  0
   41.4700   22.3790   35.7180 N   0  0  0  0  0  0  0  0  0  0  0  0
   42.4210   21.9760   34.7160 C   0  0  0  0  0  0  0  0  0  0  0  0
   42.6430   20.4790   34.9510 C   0  0  0  0  0  0  0  0  0  0  0  0
   43.4060   20.4140   36.2490 C   0  0  0  0  0  0  0  0  0  0  0  0
   42.4420   20.7670   37.3290 C   0  0  0  0  0  0  0  0  0  0  0  0
   41.6090   21.9750   37.0760 C   0  0  2  0  0  0  0  0  0  0  0  0
   37.3540   25.3160   34.3300 H   0  0  0  0  0  0  0  0  0  0  0  0
   37.2240   22.8730   34.2300 H   0  0  0  0  0  0  0  0  0  0  0  0
   41.9810   22.1240   33.7040 H   0  0  0  0  0  0  0  0  0  0  0  0
   43.3530   22.5290   34.8720 H   0  0  0  0  0  0  0  0  0  0  0  0
   43.2490   20.1090   34.1230 H   0  0  0  0  0  0  0  0  0  0  0  0
   41.6550   19.9720   35.0460 H   0  0  0  0  0  0  0  0  0  0  0  0
   44.2480   21.1350   36.2090 H   0  0  0  0  0  0  0  0  0  0  0  0
   43.7660   19.3940   36.4130 H   0  0  0  0  0  0  0  0  0  0  0  0
   41.8010   19.8760   37.5030 H   0  0  0  0  0  0  0  0  0  0  0  0
   43.0320   20.8690   38.2820 H   0  0  0  0  0  0  0  0  0  0  0  0
   42.1260   22.8220   37.6010 H   0  0  0  0  0  0  0  0  0  0  0  0
   39.4880   26.7870   35.1150 C   0  0  0  0  0  0  0  0  0  0  0  0
   38.9260   27.2340   36.3010 F   0  0  0  0  0  0  0  0  0  0  0  0
   40.7870   27.1480   34.9180 F   0  0  0  0  0  0  0  0  0  0  0  0
   38.6940   27.2840   34.0760 F   0  0  0  0  0  0  0  0  0  0  0  0
   40.3400   21.8090   37.7750 N   0  0  0  0  0  0  0  0  0  0  0  0
   39.7910   22.6710   37.8290 H   0  0  0  0  0  0  0  0  0  0  0  0
   40.4260   21.2490   38.6340 H   0  0  0  0  0  0  0  0  0  0  0  0
  1 24  1  0  0  0  0
  1  6  1  0  0  0  0
  2  1  2  0  0  0  0
  3  2  1  0  0  0  0
  3  4  2  0  0  0  0
  4  5  1  0  0  0  0
  5  6  2  0  0  0  0
  5  7  1  0  0  0  0
  7 12  1  0  0  0  0
  8 16  1  0  0  0  0
  8  9  1  0  0  0  0
  8  7  1  0  0  0  0
  9 18  1  0  0  0  0
  9 10  1  0  0  0  0
 10 20  1  0  0  0  0
 10 11  1  0  0  0  0
 11 21  1  0  0  0  0
 11 22  1  0  0  0  0
 12 11  1  0  0  0  0
 12 23  1  1  0  0  0
 12 28  1  0  0  0  0
 13  2  1  0  0  0  0
 14  3  1  0  0  0  0
 15  8  1  0  0  0  0
 17  9  1  0  0  0  0
 19 10  1  0  0  0  0
 24 25  1  0  0  0  0
 26 24  1  0  0  0  0
 27 24  1  0  0  0  0
 28 29  1  0  0  0  0
 28 30  1  0  0  0  0
M  END
>  <minimizedAffinity>
-4.87239647

$$$$

 OpenBabel03272500383D

 30 31  0  0  1  0  0  0  0  0999 V2000
   37.3810   25.9430   33.4450 C   0  0  0  0  0  0  0  0  0  0  0  0
   37.3240   27.1980   34.0790 C   0  0  0  0  0  0  0  0  0  0  0  0
   37.9850   27.3320   35.3030 C   0  0  0  0  0  0  0  0  0  0  0  0
   38.6340   26.2480   35.7940 N   0  0  0  0  0  0  0  0  0  0  0  0
   38.6670   25.0650   35.1620 C   0  0  0  0  0  0  0  0  0  0  0  0
   38.0350   24.9230   33.9840 N   0  0  0  0  0  0  0  0  0  0  0  0
   39.3740   23.9870   35.7580 N   0  0  0  0  0  0  0  0  0  0  0  0
   38.6900   23.1140   36.6760 C   0  0  0  0  0  0  0  0  0  0  0  0
   39.6440   22.9510   37.8630 C   0  0  0  0  0  0  0  0  0  0  0  0
   40.7780   22.1190   37.3190 C   0  0  0  0  0  0  0  0  0  0  0  0
   41.5540   23.0030   36.4050 C   0  0  0  0  0  0  0  0  0  0  0  0
   40.7460   23.7910   35.4330 C   0  0  2  0  0  0  0  0  0  0  0  0
   36.7920   28.0290   33.6400 H   0  0  0  0  0  0  0  0  0  0  0  0
   37.9450   28.2810   35.7860 H   0  0  0  0  0  0  0  0  0  0  0  0
   37.7530   23.6030   37.0270 H   0  0  0  0  0  0  0  0  0  0  0  0
   38.5220   22.1500   36.1860 H   0  0  0  0  0  0  0  0  0  0  0  0
   39.1020   22.4110   38.6400 H   0  0  0  0  0  0  0  0  0  0  0  0
   40.0060   23.9540   38.1830 H   0  0  0  0  0  0  0  0  0  0  0  0
   40.3570   21.2480   36.7760 H   0  0  0  0  0  0  0  0  0  0  0  0
   41.4260   21.8000   38.1400 H   0  0  0  0  0  0  0  0  0  0  0  0
   42.1710   23.6750   37.0400 H   0  0  0  0  0  0  0  0  0  0  0  0
   42.3100   22.3560   35.8780 H   0  0  0  0  0  0  0  0  0  0  0  0
   40.7580   23.2050   34.4760 H   0  0  0  0  0  0  0  0  0  0  0  0
   36.6730   25.7870   32.1270 C   0  0  0  0  0  0  0  0  0  0  0  0
   35.7330   26.7970   31.9830 F   0  0  0  0  0  0  0  0  0  0  0  0
   37.6160   25.7310   31.1450 F   0  0  0  0  0  0  0  0  0  0  0  0
   35.9690   24.5800   32.1810 F   0  0  0  0  0  0  0  0  0  0  0  0
   41.4640   25.0240   35.1360 N   0  0  0  0  0  0  0  0  0  0  0  0
   41.0880   25.5280   34.3280 H   0  0  0  0  0  0  0  0  0  0  0  0
   42.4860   24.9170   35.1910 H   0  0  0  0  0  0  0  0  0  0  0  0
  1  6  2  0  0  0  0
  1  2  1  0  0  0  0
  2  3  2  0  0  0  0
  3 14  1  0  0  0  0
  3  4  1  0  0  0  0
  5  7  1  0  0  0  0
  5  4  2  0  0  0  0
  6  5  1  0  0  0  0
  7  8  1  0  0  0  0
  8 15  1  0  0  0  0
  8  9  1  0  0  0  0
  9 18  1  0  0  0  0
  9 17  1  0  0  0  0
 10  9  1  0  0  0  0
 10 20  1  0  0  0  0
 11 21  1  0  0  0  0
 11 10  1  0  0  0  0
 12 23  1  6  0  0  0
 12  7  1  0  0  0  0
 12 11  1  0  0  0  0
 13  2  1  0  0  0  0
 16  8  1  0  0  0  0
 19 10  1  0  0  0  0
 22 11  1  0  0  0  0
 24 27  1  0  0  0  0
 24  1  1  0  0  0  0
 25 24  1  0  0  0  0
 26 24  1  0  0  0  0
 28 30  1  0  0  0  0
 28 12  1  0  0  0  0
 29 28  1  0  0  0  0
M  END
>  <minimizedAffinity>
-4.82088566

$$$$

 OpenBabel03272500383D

 30 31  0  0  1  0  0  0  0  0999 V2000
   36.7870   20.4700   32.5620 C   0  0  0  0  0  0  0  0  0  0  0  0
   37.9830   19.9420   32.0450 C   0  0  0  0  0  0  0  0  0  0  0  0
   39.1740   20.5890   32.3850 C   0  0  0  0  0  0  0  0  0  0  0  0
   39.0950   21.6780   33.1890 N   0  0  0  0  0  0  0  0  0  0  0  0
   37.9350   22.1550   33.6650 C   0  0  0  0  0  0  0  0  0  0  0  0
   36.7820   21.5410   33.3440 N   0  0  0  0  0  0  0  0  0  0  0  0
   37.9550   23.3030   34.5010 N   0  0  0  0  0  0  0  0  0  0  0  0
   37.8800   24.6120   33.9070 C   0  0  0  0  0  0  0  0  0  0  0  0
   38.9600   25.4370   34.6110 C   0  0  0  0  0  0  0  0  0  0  0  0
   38.4350   25.6230   36.0120 C   0  0  0  0  0  0  0  0  0  0  0  0
   38.5500   24.3010   36.6890 C   0  0  0  0  0  0  0  0  0  0  0  0
   38.0480   23.1340   35.9120 C   0  0  2  0  0  0  0  0  0  0  0  0
   37.9870   19.0690   31.4080 H   0  0  0  0  0  0  0  0  0  0  0  0
   40.0830   20.1910   31.9960 H   0  0  0  0  0  0  0  0  0  0  0  0
   38.1230   24.5430   32.8230 H   0  0  0  0  0  0  0  0  0  0  0  0
   36.8880   25.0320   34.1060 H   0  0  0  0  0  0  0  0  0  0  0  0
   39.0280   26.3920   34.0900 H   0  0  0  0  0  0  0  0  0  0  0  0
   39.9140   24.8610   34.6190 H   0  0  0  0  0  0  0  0  0  0  0  0
   37.3790   25.9580   35.9590 H   0  0  0  0  0  0  0  0  0  0  0  0
   39.0560   26.3500   36.5430 H   0  0  0  0  0  0  0  0  0  0  0  0
   39.6190   24.1610   36.9620 H   0  0  0  0  0  0  0  0  0  0  0  0
   38.0250   24.3880   37.6810 H   0  0  0  0  0  0  0  0  0  0  0  0
   37.0010   22.9500   36.2720 H   0  0  0  0  0  0  0  0  0  0  0  0
   35.4990   19.7810   32.2020 C   0  0  0  0  0  0  0  0  0  0  0  0
   35.5790   19.2980   30.9040 F   0  0  0  0  0  0  0  0  0  0  0  0
   35.2410   18.8410   33.1540 F   0  0  0  0  0  0  0  0  0  0  0  0
   34.4960   20.7560   32.2120 F   0  0  0  0  0  0  0  0  0  0  0  0
   38.8050   21.9550   36.3160 N   0  0  0  0  0  0  0  0  0  0  0  0
   38.3940   21.0770   35.9890 H   0  0  0  0  0  0  0  0  0  0  0  0
   39.1150   21.9950   37.2960 H   0  0  0  0  0  0  0  0  0  0  0  0
  1  6  1  0  0  0  0
  2  3  1  0  0  0  0
  2  1  2  0  0  0  0
  3  4  2  0  0  0  0
  4  5  1  0  0  0  0
  5  7  1  0  0  0  0
  6  5  2  0  0  0  0
  7 12  1  0  0  0  0
  8 16  1  0  0  0  0
  8  7  1  0  0  0  0
  8  9  1  0  0  0  0
  9 18  1  0  0  0  0
  9 10  1  0  0  0  0
 10 20  1  0  0  0  0
 10 11  1  0  0  0  0
 11 21  1  0  0  0  0
 11 22  1  0  0  0  0
 12 23  1  1  0  0  0
 12 28  1  0  0  0  0
 12 11  1  0  0  0  0
 13  2  1  0  0  0  0
 14  3  1  0  0  0  0
 15  8  1  0  0  0  0
 17  9  1  0  0  0  0
 19 10  1  0  0  0  0
 24 27  1  0  0  0  0
 24  1  1  0  0  0  0
 24 26  1  0  0  0  0
 25 24  1  0  0  0  0
 28 30  1  0  0  0  0
 29 28  1  0  0  0  0
M  END
>  <minimizedAffinity>
-4.75265408

$$$$

 OpenBabel03272500383D

 30 31  0  0  1  0  0  0  0  0999 V2000
   36.0240   23.3230   31.8020 C   0  0  0  0  0  0  0  0  0  0  0  0
   35.1990   24.2400   31.1260 C   0  0  0  0  0  0  0  0  0  0  0  0
   35.5070   25.5970   31.2510 C   0  0  0  0  0  0  0  0  0  0  0  0
   36.5760   25.9370   32.0130 N   0  0  0  0  0  0  0  0  0  0  0  0
   37.3410   25.0340   32.6450 C   0  0  0  0  0  0  0  0  0  0  0  0
   37.0560   23.7250   32.5320 N   0  0  0  0  0  0  0  0  0  0  0  0
   38.4410   25.4890   33.4210 N   0  0  0  0  0  0  0  0  0  0  0  0
   38.2400   25.8140   34.8090 C   0  0  0  0  0  0  0  0  0  0  0  0
   38.9580   27.1510   35.0160 C   0  0  0  0  0  0  0  0  0  0  0  0
   40.4230   26.8080   34.9120 C   0  0  0  0  0  0  0  0  0  0  0  0
   40.6930   26.5200   33.4760 C   0  0  0  0  0  0  0  0  0  0  0  0
   39.7200   25.6110   32.8090 C   0  0  2  0  0  0  0  0  0  0  0  0
   34.3600   23.9130   30.5310 H   0  0  0  0  0  0  0  0  0  0  0  0
   34.8850   26.2960   30.7400 H   0  0  0  0  0  0  0  0  0  0  0  0
   37.1530   25.9510   35.0060 H   0  0  0  0  0  0  0  0  0  0  0  0
   38.7010   25.0340   35.4230 H   0  0  0  0  0  0  0  0  0  0  0  0
   38.7090   27.4980   36.0190 H   0  0  0  0  0  0  0  0  0  0  0  0
   38.6580   27.8570   34.2090 H   0  0  0  0  0  0  0  0  0  0  0  0
   40.6310   25.9220   35.5460 H   0  0  0  0  0  0  0  0  0  0  0  0
   41.0240   27.6680   35.2220 H   0  0  0  0  0  0  0  0  0  0  0  0
   40.7430   27.4970   32.9470 H   0  0  0  0  0  0  0  0  0  0  0  0
   41.7410   26.1190   33.4070 H   0  0  0  0  0  0  0  0  0  0  0  0
   40.1810   24.5880   32.8450 H   0  0  0  0  0  0  0  0  0  0  0  0
   35.7030   21.8590   31.6740 C   0  0  0  0  0  0  0  0  0  0  0  0
   34.9150   21.4620   32.7450 F   0  0  0  0  0  0  0  0  0  0  0  0
   35.1530   21.6530   30.4440 F   0  0  0  0  0  0  0  0  0  0  0  0
   36.9110   21.1630   31.7780 F   0  0  0  0  0  0  0  0  0  0  0  0
   39.6670   25.9570   31.3930 N   0  0  0  0  0  0  0  0  0  0  0  0
   39.1860   25.2570   30.8230 H   0  0  0  0  0  0  0  0  0  0  0  0
   40.5590   26.3250   31.0370 H   0  0  0  0  0  0  0  0  0  0  0  0
  1  6  1  0  0  0  0
  2  3  1  0  0  0  0
  2  1  2  0  0  0  0
  3  4  2  0  0  0  0
  4  5  1  0  0  0  0
  5  7  1  0  0  0  0
  6  5  2  0  0  0  0
  7  8  1  0  0  0  0
  8 15  1  0  0  0  0
  8  9  1  0  0  0  0
  8 16  1  0  0  0  0
  9 17  1  0  0  0  0
 10  9  1  0  0  0  0
 10 20  1  0  0  0  0
 10 19  1  0  0  0  0
 11 10  1  0  0  0  0
 12 23  1  1  0  0  0
 12  7  1  0  0  0  0
 12 11  1  0  0  0  0
 13  2  1  0  0  0  0
 14  3  1  0  0  0  0
 18  9  1  0  0  0  0
 21 11  1  0  0  0  0
 22 11  1  0  0  0  0
 24 27  1  0  0  0  0
 24  1  1  0  0  0  0
 24 25  1  0  0  0  0
 26 24  1  0  0  0  0
 28 12  1  0  0  0  0
 29 28  1  0  0  0  0
 30 28  1  0  0  0  0
M  END
>  <minimizedAffinity>
-4.73221254

$$$$
