
 OpenBabel03272510093D

 21 22  0  0  0  0  0  0  0  0999 V2000
   37.3730   31.4600   48.7470 C   0  0  0  0  0  0  0  0  0  0  0  0
   38.1170   32.4670   49.3450 C   0  0  0  0  0  0  0  0  0  0  0  0
   39.0110   33.2760   48.6550 C   0  0  0  0  0  0  0  0  0  0  0  0
   39.1810   33.0780   47.2900 C   0  0  0  0  0  0  0  0  0  0  0  0
   38.4330   32.0760   46.7300 C   0  0  0  0  0  0  0  0  0  0  0  0
   37.5790   31.3160   47.4290 N   0  0  0  0  0  0  0  0  0  0  0  0
   38.0270   32.6640   50.3950 H   0  0  0  0  0  0  0  0  0  0  0  0
   39.5820   34.0540   49.1380 H   0  0  0  0  0  0  0  0  0  0  0  0
   38.4860   31.8380   45.6810 H   0  0  0  0  0  0  0  0  0  0  0  0
   36.7240   30.0680   50.7490 C   0  0  0  0  0  0  0  0  0  0  0  0
   36.4520   30.6360   49.4920 C   0  0  0  0  0  0  0  0  0  0  0  0
   35.2040   30.3850   48.9200 C   0  0  0  0  0  0  0  0  0  0  0  0
   34.3120   29.6050   49.6110 N   0  0  0  0  0  0  0  0  0  0  0  0
   34.6290   29.0820   50.8230 C   0  0  0  0  0  0  0  0  0  0  0  0
   35.8170   29.3080   51.3880 N   0  0  0  0  0  0  0  0  0  0  0  0
   37.7050   30.2860   51.1560 H   0  0  0  0  0  0  0  0  0  0  0  0
   34.8690   30.7660   47.9550 H   0  0  0  0  0  0  0  0  0  0  0  0
   33.8250   28.4940   51.2340 H   0  0  0  0  0  0  0  0  0  0  0  0
   40.0590   33.8350   46.4820 N   0  0  0  0  0  0  0  0  0  0  0  0
   40.0620   34.8730   46.6100 H   0  0  0  0  0  0  0  0  0  0  0  0
   40.5990   33.1950   45.8460 H   0  0  0  0  0  0  0  0  0  0  0  0
  1  2  1  0  0  0  0
  1 11  1  0  0  0  0
  2  7  1  0  0  0  0
  3  8  1  0  0  0  0
  3  2  2  0  0  0  0
  4  3  1  0  0  0  0
  5  4  2  0  0  0  0
  5  6  1  0  0  0  0
  6  1  2  0  0  0  0
  9  5  1  0  0  0  0
 10 16  1  0  0  0  0
 10 15  1  0  0  0  0
 11 10  2  0  0  0  0
 12 11  1  0  0  0  0
 12 13  2  0  0  0  0
 13 14  1  0  0  0  0
 14 18  1  0  0  0  0
 14 15  2  0  0  0  0
 17 12  1  0  0  0  0
 19 20  1  0  0  0  0
 19  4  1  0  0  0  0
 21 19  1  0  0  0  0
M  END
>  <minimizedAffinity>
-4.77654171

>  <minimizedRMSD>
0.940039456

$$$$
