
 OpenBabel03262523203D

 35 37  0  0  1  0  0  0  0  0999 V2000
   39.5450   32.8820   45.2840 C   0  0  0  0  0  0  0  0  0  0  0  0
   40.5090   32.0060   44.7990 C   0  0  0  0  0  0  0  0  0  0  0  0
   40.1640   30.6760   44.6270 C   0  0  0  0  0  0  0  0  0  0  0  0
   38.9050   30.2760   44.9350 N   0  0  0  0  0  0  0  0  0  0  0  0
   37.9950   31.0940   45.3920 C   0  0  0  0  0  0  0  0  0  0  0  0
   38.3790   32.3320   45.5320 N   0  0  0  0  0  0  0  0  0  0  0  0
   36.6970   30.6390   45.6960 N   0  0  0  0  0  0  0  0  0  0  0  0
   35.8310   29.9970   44.7020 C   0  0  0  0  0  0  0  0  0  0  0  0
   34.6340   29.5800   45.4420 C   0  0  0  0  0  0  0  0  0  0  0  0
   35.0590   29.6330   46.9090 C   0  0  0  0  0  0  0  0  0  0  0  0
   35.9770   30.7570   46.9730 C   0  0  1  0  0  0  0  0  0  0  0  0
   39.8230   33.9040   45.4120 H   0  0  0  0  0  0  0  0  0  0  0  0
   41.5150   32.3180   44.5520 H   0  0  0  0  0  0  0  0  0  0  0  0
   40.9210   29.9840   44.2430 H   0  0  0  0  0  0  0  0  0  0  0  0
   35.5760   30.7920   43.9700 H   0  0  0  0  0  0  0  0  0  0  0  0
   36.3660   29.2110   44.1350 H   0  0  0  0  0  0  0  0  0  0  0  0
   34.2850   28.5910   45.1110 H   0  0  0  0  0  0  0  0  0  0  0  0
   33.7770   30.2710   45.2240 H   0  0  0  0  0  0  0  0  0  0  0  0
   34.0980   29.7160   47.3680 H   0  0  0  0  0  0  0  0  0  0  0  0
   35.6380   28.6940   46.8780 H   0  0  0  0  0  0  0  0  0  0  0  0
   35.4950   31.7620   46.7610 H   0  0  0  0  0  0  0  0  0  0  0  0
   36.7880   30.0460   49.2510 C   0  0  0  0  0  0  0  0  0  0  0  0
   36.7560   30.9270   48.1630 C   0  0  0  0  0  0  0  0  0  0  0  0
   37.6670   31.9600   48.3220 C   0  0  0  0  0  0  0  0  0  0  0  0
   38.5160   32.1280   49.3940 C   0  0  0  0  0  0  0  0  0  0  0  0
   38.4680   31.1810   50.4340 C   0  0  0  0  0  0  0  0  0  0  0  0
   37.5910   30.1070   50.3860 C   0  0  0  0  0  0  0  0  0  0  0  0
   37.8130   32.8180   47.7170 H   0  0  0  0  0  0  0  0  0  0  0  0
   39.2440   32.8870   49.5870 H   0  0  0  0  0  0  0  0  0  0  0  0
   39.0990   31.2200   51.3300 H   0  0  0  0  0  0  0  0  0  0  0  0
   37.5480   29.1620   51.4360 N   0  0  0  0  0  0  0  0  0  0  0  0
   36.7810   28.4330   51.5280 H   0  0  0  0  0  0  0  0  0  0  0  0
   38.3830   29.3320   52.0580 H   0  0  0  0  0  0  0  0  0  0  0  0
   35.0720   28.1240   49.3040 N   0  0  0  0  0  0  0  0  0  0  0  0
   35.8240   28.9670   49.2700 C   0  0  0  0  0  0  0  0  0  0  0  0
  1 12  1  0  0  0  0
  1  6  1  0  0  0  0
  2  1  2  0  0  0  0
  3  2  1  0  0  0  0
  3  4  2  0  0  0  0
  4  5  1  0  0  0  0
  5  6  2  0  0  0  0
  5  7  1  0  0  0  0
  7 11  1  0  0  0  0
  8  9  1  0  0  0  0
  8  7  1  0  0  0  0
  9 10  1  0  0  0  0
 10 11  1  0  0  0  0
 10 19  1  0  0  0  0
 11 21  1  6  0  0  0
 11 23  1  0  0  0  0
 13  2  1  0  0  0  0
 14  3  1  0  0  0  0
 15  8  1  0  0  0  0
 16  8  1  0  0  0  0
 17  9  1  0  0  0  0
 18  9  1  0  0  0  0
 20 10  1  0  0  0  0
 22 35  1  0  0  0  0
 22 27  1  0  0  0  0
 23 24  1  0  0  0  0
 23 22  2  0  0  0  0
 24 25  2  0  0  0  0
 25 29  1  0  0  0  0
 25 26  1  0  0  0  0
 26 30  1  0  0  0  0
 27 26  2  0  0  0  0
 27 31  1  0  0  0  0
 28 24  1  0  0  0  0
 31 32  1  0  0  0  0
 31 33  1  0  0  0  0
 35 34  3  0  0  0  0
M  END
>  <minimizedAffinity>
-6.25832701

>  <minimizedRMSD>
0.77583915

$$$$
