
 OpenBabel03262521393D

 37 40  0  0  0  0  0  0  0  0999 V2000
   33.6980   29.1520   48.7610 F   0  0  0  0  0  0  0  0  0  0  0  0
   33.7990   29.2300   47.3980 C   0  0  0  0  0  0  0  0  0  0  0  0
   32.7590   28.8120   46.5840 C   0  0  0  0  0  0  0  0  0  0  0  0
   32.9080   28.9110   45.2000 C   0  0  0  0  0  0  0  0  0  0  0  0
   34.0750   29.4180   44.6370 C   0  0  0  0  0  0  0  0  0  0  0  0
   35.0660   29.8150   45.5060 C   0  0  0  0  0  0  0  0  0  0  0  0
   34.9580   29.7340   46.8760 C   0  0  0  0  0  0  0  0  0  0  0  0
   32.0950   28.5830   44.5630 H   0  0  0  0  0  0  0  0  0  0  0  0
   34.1540   29.4790   43.5550 H   0  0  0  0  0  0  0  0  0  0  0  0
   35.9500   30.2020   45.0190 H   0  0  0  0  0  0  0  0  0  0  0  0
   31.7980   27.1760   47.9960 C   0  0  0  0  0  0  0  0  0  0  0  0
   31.5880   28.3010   47.2200 C   0  0  0  0  0  0  0  0  0  0  0  0
   30.2840   28.8090   47.1410 C   0  0  0  0  0  0  0  0  0  0  0  0
   29.3010   28.1630   47.8340 N   0  0  0  0  0  0  0  0  0  0  0  0
   29.5500   27.0810   48.5710 C   0  0  0  0  0  0  0  0  0  0  0  0
   30.7880   26.5650   48.6710 N   0  0  0  0  0  0  0  0  0  0  0  0
   32.7630   26.6930   48.1330 H   0  0  0  0  0  0  0  0  0  0  0  0
   30.1890   29.6750   46.5280 H   0  0  0  0  0  0  0  0  0  0  0  0
   28.6340   26.7240   49.0380 H   0  0  0  0  0  0  0  0  0  0  0  0
   36.2810   30.2660   47.9560 S   0  0  0  0  0  0  0  0  0  0  0  0
   37.6080   31.0110   47.0630 C   0  0  0  0  0  0  0  0  0  0  0  0
   38.0610   30.6610   45.8320 N   0  0  0  0  0  0  0  0  0  0  0  0
   39.0780   31.3150   45.2670 C   0  0  0  0  0  0  0  0  0  0  0  0
   39.7120   32.3380   45.8600 N   0  0  0  0  0  0  0  0  0  0  0  0
   39.3140   32.7350   47.0770 C   0  0  0  0  0  0  0  0  0  0  0  0
   39.9540   33.7850   47.7000 C   0  0  0  0  0  0  0  0  0  0  0  0
   39.5580   34.2070   48.9570 C   0  0  0  0  0  0  0  0  0  0  0  0
   38.5040   33.5640   49.5950 C   0  0  0  0  0  0  0  0  0  0  0  0
   37.8990   32.5200   48.9260 C   0  0  0  0  0  0  0  0  0  0  0  0
   38.2620   32.0710   47.6800 C   0  0  0  0  0  0  0  0  0  0  0  0
   39.4400   31.0330   44.2830 H   0  0  0  0  0  0  0  0  0  0  0  0
   40.7880   34.3170   47.2340 H   0  0  0  0  0  0  0  0  0  0  0  0
   40.0590   35.0320   49.4510 H   0  0  0  0  0  0  0  0  0  0  0  0
   38.1870   33.8880   50.5790 H   0  0  0  0  0  0  0  0  0  0  0  0
   36.8260   31.9020   49.6300 N   0  0  0  0  0  0  0  0  0  0  0  0
   36.5380   31.9100   50.6180 H   0  0  0  0  0  0  0  0  0  0  0  0
   36.2560   31.3430   48.9430 H   0  0  0  0  0  0  0  0  0  0  0  0
  2  1  1  0  0  0  0
  3 12  1  0  0  0  0
  3  2  2  0  0  0  0
  4  3  1  0  0  0  0
  5  4  2  0  0  0  0
  5  6  1  0  0  0  0
  6  7  2  0  0  0  0
  7  2  1  0  0  0  0
  7 20  1  0  0  0  0
  8  4  1  0  0  0  0
  9  5  1  0  0  0  0
 10  6  1  0  0  0  0
 11 17  1  0  0  0  0
 11 16  1  0  0  0  0
 12 11  2  0  0  0  0
 13 12  1  0  0  0  0
 13 14  2  0  0  0  0
 14 15  1  0  0  0  0
 15 16  2  0  0  0  0
 15 19  1  0  0  0  0
 18 13  1  0  0  0  0
 21 30  1  0  0  0  0
 21 20  1  0  0  0  0
 22 21  2  0  0  0  0
 23 22  1  0  0  0  0
 23 24  2  0  0  0  0
 24 25  1  0  0  0  0
 25 30  2  0  0  0  0
 25 26  1  0  0  0  0
 26 27  2  0  0  0  0
 27 33  1  0  0  0  0
 27 28  1  0  0  0  0
 28 34  1  0  0  0  0
 29 28  2  0  0  0  0
 29 35  1  0  0  0  0
 30 29  1  0  0  0  0
 31 23  1  0  0  0  0
 32 26  1  0  0  0  0
 35 36  1  0  0  0  0
 37 35  1  0  0  0  0
M  END
>  <minimizedAffinity>
-5.99541044

>  <minimizedRMSD>
0.147306889

$$$$
