
 OpenBabel03272502443D

 29 31  0  0  0  0  0  0  0  0999 V2000
   42.6540   26.1210   34.2610 C   0  0  0  0  0  0  0  0  0  0  0  0
   42.6940   24.9860   35.0720 C   0  0  0  0  0  0  0  0  0  0  0  0
   41.4490   24.4060   35.3970 C   0  0  0  0  0  0  0  0  0  0  0  0
   40.3060   24.9650   34.9190 N   0  0  0  0  0  0  0  0  0  0  0  0
   40.3300   26.0780   34.1290 C   0  0  0  0  0  0  0  0  0  0  0  0
   41.5070   26.6270   33.8210 N   0  0  0  0  0  0  0  0  0  0  0  0
   43.6400   26.5170   34.0490 H   0  0  0  0  0  0  0  0  0  0  0  0
   43.5600   24.4920   35.4840 H   0  0  0  0  0  0  0  0  0  0  0  0
   38.5850   27.1910   36.2410 Cl  0  0  0  0  0  0  0  0  0  0  0  0
   38.1820   27.1750   34.5680 C   0  0  0  0  0  0  0  0  0  0  0  0
   39.0760   26.6250   33.6520 C   0  0  0  0  0  0  0  0  0  0  0  0
   38.7970   26.5930   32.3190 C   0  0  0  0  0  0  0  0  0  0  0  0
   37.6060   27.1080   31.8340 C   0  0  0  0  0  0  0  0  0  0  0  0
   36.6970   27.6600   32.7140 C   0  0  0  0  0  0  0  0  0  0  0  0
   35.1500   28.3480   32.2340 Cl  0  0  0  0  0  0  0  0  0  0  0  0
   37.0150   27.6740   34.0550 C   0  0  0  0  0  0  0  0  0  0  0  0
   39.4750   26.1740   31.6050 H   0  0  0  0  0  0  0  0  0  0  0  0
   37.3130   27.1200   30.8000 H   0  0  0  0  0  0  0  0  0  0  0  0
   36.3420   28.0940   34.8000 H   0  0  0  0  0  0  0  0  0  0  0  0
   41.3730   23.2250   36.2330 C   0  0  0  0  0  0  0  0  0  0  0  0
   40.2140   22.8260   36.9040 C   0  0  0  0  0  0  0  0  0  0  0  0
   40.4220   21.6870   37.6140 N   0  0  0  0  0  0  0  0  0  0  0  0
   41.7210   21.3690   37.3850 C   0  0  0  0  0  0  0  0  0  0  0  0
   42.2490   22.2840   36.5770 N   0  0  0  0  0  0  0  0  0  0  0  0
   39.2320   23.3230   36.9010 H   0  0  0  0  0  0  0  0  0  0  0  0
   39.7140   21.1960   38.1930 H   0  0  0  0  0  0  0  0  0  0  0  0
   42.3210   20.2160   37.9690 N   0  0  0  0  0  0  0  0  0  0  0  0
   41.6660   19.8350   38.6910 H   0  0  0  0  0  0  0  0  0  0  0  0
   43.2400   19.7730   37.7650 H   0  0  0  0  0  0  0  0  0  0  0  0
  1  2  1  0  0  0  0
  2  3  2  0  0  0  0
  2  8  1  0  0  0  0
  3 20  1  0  0  0  0
  4  3  1  0  0  0  0
  5  4  2  0  0  0  0
  6  5  1  0  0  0  0
  6  1  2  0  0  0  0
  7  1  1  0  0  0  0
 10  9  1  0  0  0  0
 11  5  1  0  0  0  0
 11 10  2  0  0  0  0
 12 11  1  0  0  0  0
 13 12  2  0  0  0  0
 13 14  1  0  0  0  0
 14 16  2  0  0  0  0
 15 14  1  0  0  0  0
 16 10  1  0  0  0  0
 16 19  1  0  0  0  0
 17 12  1  0  0  0  0
 18 13  1  0  0  0  0
 20 24  1  0  0  0  0
 20 21  2  0  0  0  0
 21 22  1  0  0  0  0
 22 26  1  0  0  0  0
 23 22  1  0  0  0  0
 23 27  1  0  0  0  0
 24 23  2  0  0  0  0
 25 21  1  0  0  0  0
 27 28  1  0  0  0  0
 29 27  1  0  0  0  0
M  END
>  <minimizedAffinity>
-5.74589205

$$$$

 OpenBabel03272502443D

 29 31  0  0  0  0  0  0  0  0999 V2000
   38.0910   27.5810   35.7130 C   0  0  0  0  0  0  0  0  0  0  0  0
   37.3540   27.6040   34.5280 C   0  0  0  0  0  0  0  0  0  0  0  0
   37.4570   26.4620   33.7060 C   0  0  0  0  0  0  0  0  0  0  0  0
   38.2460   25.4260   34.0960 N   0  0  0  0  0  0  0  0  0  0  0  0
   38.9440   25.4620   35.2680 C   0  0  0  0  0  0  0  0  0  0  0  0
   38.8480   26.5410   36.0470 N   0  0  0  0  0  0  0  0  0  0  0  0
   37.9690   28.4850   36.2980 H   0  0  0  0  0  0  0  0  0  0  0  0
   36.7120   28.3880   34.1590 H   0  0  0  0  0  0  0  0  0  0  0  0
   37.6180   23.4790   37.0170 Cl  0  0  0  0  0  0  0  0  0  0  0  0
   39.2350   23.3320   36.4480 C   0  0  0  0  0  0  0  0  0  0  0  0
   39.7680   24.3240   35.6280 C   0  0  0  0  0  0  0  0  0  0  0  0
   41.0430   24.2460   35.1550 C   0  0  0  0  0  0  0  0  0  0  0  0
   41.8530   23.1700   35.4830 C   0  0  0  0  0  0  0  0  0  0  0  0
   41.3580   22.1700   36.2940 C   0  0  0  0  0  0  0  0  0  0  0  0
   42.2760   20.7520   36.7870 Cl  0  0  0  0  0  0  0  0  0  0  0  0
   40.0630   22.2840   36.7520 C   0  0  0  0  0  0  0  0  0  0  0  0
   41.4640   25.0010   34.5250 H   0  0  0  0  0  0  0  0  0  0  0  0
   42.8670   23.0370   35.1520 H   0  0  0  0  0  0  0  0  0  0  0  0
   39.6130   21.5300   37.3950 H   0  0  0  0  0  0  0  0  0  0  0  0
   36.7350   26.3790   32.4520 C   0  0  0  0  0  0  0  0  0  0  0  0
   36.9690   27.2300   31.3680 C   0  0  0  0  0  0  0  0  0  0  0  0
   36.1540   26.9320   30.3240 N   0  0  0  0  0  0  0  0  0  0  0  0
   35.4040   25.8870   30.7560 C   0  0  0  0  0  0  0  0  0  0  0  0
   35.7650   25.5880   32.0010 N   0  0  0  0  0  0  0  0  0  0  0  0
   37.7000   28.0500   31.3030 H   0  0  0  0  0  0  0  0  0  0  0  0
   36.1390   27.4210   29.4080 H   0  0  0  0  0  0  0  0  0  0  0  0
   34.4150   25.2850   29.9270 N   0  0  0  0  0  0  0  0  0  0  0  0
   34.2760   25.8940   29.0860 H   0  0  0  0  0  0  0  0  0  0  0  0
   33.8840   24.4000   30.0650 H   0  0  0  0  0  0  0  0  0  0  0  0
  1  6  1  0  0  0  0
  1  7  1  0  0  0  0
  2  1  2  0  0  0  0
  3  4  2  0  0  0  0
  3  2  1  0  0  0  0
  4  5  1  0  0  0  0
  5 11  1  0  0  0  0
  5  6  2  0  0  0  0
  8  2  1  0  0  0  0
 10 16  1  0  0  0  0
 10  9  1  0  0  0  0
 11 10  2  0  0  0  0
 12 13  2  0  0  0  0
 12 11  1  0  0  0  0
 13 14  1  0  0  0  0
 14 16  2  0  0  0  0
 14 15  1  0  0  0  0
 16 19  1  0  0  0  0
 17 12  1  0  0  0  0
 18 13  1  0  0  0  0
 20  3  1  0  0  0  0
 21 20  2  0  0  0  0
 22 23  1  0  0  0  0
 22 21  1  0  0  0  0
 23 24  2  0  0  0  0
 24 20  1  0  0  0  0
 25 21  1  0  0  0  0
 26 22  1  0  0  0  0
 27 29  1  0  0  0  0
 27 23  1  0  0  0  0
 28 27  1  0  0  0  0
M  END
>  <minimizedAffinity>
-5.40267897

$$$$

 OpenBabel03272502443D

 29 31  0  0  0  0  0  0  0  0999 V2000
   36.4540   30.1860   30.9150 C   0  0  0  0  0  0  0  0  0  0  0  0
   35.9740   30.8280   32.0570 C   0  0  0  0  0  0  0  0  0  0  0  0
   35.5650   29.9930   33.1180 C   0  0  0  0  0  0  0  0  0  0  0  0
   35.6550   28.6440   32.9790 N   0  0  0  0  0  0  0  0  0  0  0  0
   36.1330   28.0730   31.8350 C   0  0  0  0  0  0  0  0  0  0  0  0
   36.5210   28.8630   30.8310 N   0  0  0  0  0  0  0  0  0  0  0  0
   36.7510   30.8820   30.1390 H   0  0  0  0  0  0  0  0  0  0  0  0
   35.8760   31.8880   32.2340 H   0  0  0  0  0  0  0  0  0  0  0  0
   38.5460   26.8810   33.0610 Cl  0  0  0  0  0  0  0  0  0  0  0  0
   37.3020   25.9680   32.2990 C   0  0  0  0  0  0  0  0  0  0  0  0
   36.2040   26.6270   31.7500 C   0  0  0  0  0  0  0  0  0  0  0  0
   35.1980   25.9440   31.1390 C   0  0  0  0  0  0  0  0  0  0  0  0
   35.2390   24.5620   31.0420 C   0  0  0  0  0  0  0  0  0  0  0  0
   36.3120   23.8760   31.5740 C   0  0  0  0  0  0  0  0  0  0  0  0
   36.4900   22.1270   31.5220 Cl  0  0  0  0  0  0  0  0  0  0  0  0
   37.3110   24.6030   32.1860 C   0  0  0  0  0  0  0  0  0  0  0  0
   34.3490   26.4380   30.7140 H   0  0  0  0  0  0  0  0  0  0  0  0
   34.4860   23.9520   30.5760 H   0  0  0  0  0  0  0  0  0  0  0  0
   38.1840   24.1240   32.6250 H   0  0  0  0  0  0  0  0  0  0  0  0
   35.0500   30.5530   34.3510 C   0  0  0  0  0  0  0  0  0  0  0  0
   33.7240   30.4110   34.7700 C   0  0  0  0  0  0  0  0  0  0  0  0
   33.5140   31.0330   35.9580 N   0  0  0  0  0  0  0  0  0  0  0  0
   34.7160   31.5690   36.2870 C   0  0  0  0  0  0  0  0  0  0  0  0
   35.5910   31.2730   35.3300 N   0  0  0  0  0  0  0  0  0  0  0  0
   32.9100   29.8790   34.2540 H   0  0  0  0  0  0  0  0  0  0  0  0
   32.6120   31.0680   36.4730 H   0  0  0  0  0  0  0  0  0  0  0  0
   34.8980   32.3130   37.4880 N   0  0  0  0  0  0  0  0  0  0  0  0
   33.9560   32.5020   37.9040 H   0  0  0  0  0  0  0  0  0  0  0  0
   35.7780   32.6430   37.9350 H   0  0  0  0  0  0  0  0  0  0  0  0
  1  2  1  0  0  0  0
  2  8  1  0  0  0  0
  2  3  2  0  0  0  0
  3 20  1  0  0  0  0
  4  3  1  0  0  0  0
  5  4  2  0  0  0  0
  6  1  2  0  0  0  0
  6  5  1  0  0  0  0
  7  1  1  0  0  0  0
 10  9  1  0  0  0  0
 11  5  1  0  0  0  0
 11 10  2  0  0  0  0
 12 11  1  0  0  0  0
 13 12  2  0  0  0  0
 13 14  1  0  0  0  0
 14 16  2  0  0  0  0
 15 14  1  0  0  0  0
 16 10  1  0  0  0  0
 16 19  1  0  0  0  0
 17 12  1  0  0  0  0
 18 13  1  0  0  0  0
 20 21  2  0  0  0  0
 20 24  1  0  0  0  0
 21 22  1  0  0  0  0
 22 23  1  0  0  0  0
 22 26  1  0  0  0  0
 23 27  1  0  0  0  0
 24 23  2  0  0  0  0
 25 21  1  0  0  0  0
 27 28  1  0  0  0  0
 27 29  1  0  0  0  0
M  END
>  <minimizedAffinity>
-5.37366104

$$$$

 OpenBabel03272502443D

 29 31  0  0  0  0  0  0  0  0999 V2000
   36.5280   28.7510   31.8750 C   0  0  0  0  0  0  0  0  0  0  0  0
   37.0520   27.5540   32.3650 C   0  0  0  0  0  0  0  0  0  0  0  0
   36.9340   27.3420   33.7560 C   0  0  0  0  0  0  0  0  0  0  0  0
   36.3340   28.2870   34.5260 N   0  0  0  0  0  0  0  0  0  0  0  0
   35.8400   29.4400   33.9890 C   0  0  0  0  0  0  0  0  0  0  0  0
   35.9510   29.6410   32.6740 N   0  0  0  0  0  0  0  0  0  0  0  0
   36.6510   28.8520   30.8040 H   0  0  0  0  0  0  0  0  0  0  0  0
   37.5390   26.7640   31.8140 H   0  0  0  0  0  0  0  0  0  0  0  0
   32.8840   29.3470   34.0140 Cl  0  0  0  0  0  0  0  0  0  0  0  0
   33.8210   30.4460   34.9500 C   0  0  0  0  0  0  0  0  0  0  0  0
   35.2110   30.4090   34.8660 C   0  0  0  0  0  0  0  0  0  0  0  0
   35.9890   31.2600   35.5900 C   0  0  0  0  0  0  0  0  0  0  0  0
   35.4160   32.1960   36.4360 C   0  0  0  0  0  0  0  0  0  0  0  0
   34.0410   32.2610   36.5430 C   0  0  0  0  0  0  0  0  0  0  0  0
   33.1840   33.3980   37.5760 Cl  0  0  0  0  0  0  0  0  0  0  0  0
   33.2870   31.3830   35.7940 C   0  0  0  0  0  0  0  0  0  0  0  0
   37.0580   31.2410   35.5340 H   0  0  0  0  0  0  0  0  0  0  0  0
   35.9600   32.9000   37.0370 H   0  0  0  0  0  0  0  0  0  0  0  0
   32.1990   31.3820   35.8330 H   0  0  0  0  0  0  0  0  0  0  0  0
   37.4440   26.1340   34.3710 C   0  0  0  0  0  0  0  0  0  0  0  0
   37.8670   25.0160   33.6460 C   0  0  0  0  0  0  0  0  0  0  0  0
   38.2950   24.0270   34.4720 N   0  0  0  0  0  0  0  0  0  0  0  0
   38.1410   24.5280   35.7230 C   0  0  0  0  0  0  0  0  0  0  0  0
   37.6410   25.7580   35.6320 N   0  0  0  0  0  0  0  0  0  0  0  0
   37.8770   24.8890   32.5530 H   0  0  0  0  0  0  0  0  0  0  0  0
   38.6570   23.1010   34.1710 H   0  0  0  0  0  0  0  0  0  0  0  0
   38.4880   23.7700   36.8780 N   0  0  0  0  0  0  0  0  0  0  0  0
   38.6720   22.7830   36.5810 H   0  0  0  0  0  0  0  0  0  0  0  0
   38.5660   24.0740   37.8700 H   0  0  0  0  0  0  0  0  0  0  0  0
  1  2  2  0  0  0  0
  1  6  1  0  0  0  0
  2  3  1  0  0  0  0
  3 20  1  0  0  0  0
  3  4  2  0  0  0  0
  5  4  1  0  0  0  0
  5 11  1  0  0  0  0
  6  5  2  0  0  0  0
  7  1  1  0  0  0  0
  8  2  1  0  0  0  0
  9 10  1  0  0  0  0
 10 16  1  0  0  0  0
 11 10  2  0  0  0  0
 11 12  1  0  0  0  0
 12 13  2  0  0  0  0
 13 14  1  0  0  0  0
 13 18  1  0  0  0  0
 14 15  1  0  0  0  0
 16 19  1  0  0  0  0
 16 14  2  0  0  0  0
 17 12  1  0  0  0  0
 20 24  1  0  0  0  0
 21 20  2  0  0  0  0
 21 22  1  0  0  0  0
 22 23  1  0  0  0  0
 23 27  1  0  0  0  0
 24 23  2  0  0  0  0
 25 21  1  0  0  0  0
 26 22  1  0  0  0  0
 27 29  1  0  0  0  0
 28 27  1  0  0  0  0
M  END
>  <minimizedAffinity>
-5.37027359

$$$$

 OpenBabel03272502443D

 29 31  0  0  0  0  0  0  0  0999 V2000
   38.5170   24.3180   30.3620 C   0  0  0  0  0  0  0  0  0  0  0  0
   37.9610   23.0710   30.6530 C   0  0  0  0  0  0  0  0  0  0  0  0
   36.9650   23.0490   31.6520 C   0  0  0  0  0  0  0  0  0  0  0  0
   36.6060   24.2080   32.2630 N   0  0  0  0  0  0  0  0  0  0  0  0
   37.1870   25.3990   31.9360 C   0  0  0  0  0  0  0  0  0  0  0  0
   38.1300   25.4210   30.9910 N   0  0  0  0  0  0  0  0  0  0  0  0
   39.2750   24.2660   29.5890 H   0  0  0  0  0  0  0  0  0  0  0  0
   38.1980   22.1160   30.2090 H   0  0  0  0  0  0  0  0  0  0  0  0
   38.2310   25.6810   34.6880 Cl  0  0  0  0  0  0  0  0  0  0  0  0
   37.1970   26.8280   33.9290 C   0  0  0  0  0  0  0  0  0  0  0  0
   36.7590   26.6010   32.6260 C   0  0  0  0  0  0  0  0  0  0  0  0
   35.9400   27.4820   31.9880 C   0  0  0  0  0  0  0  0  0  0  0  0
   35.5150   28.6380   32.6220 C   0  0  0  0  0  0  0  0  0  0  0  0
   35.9290   28.8950   33.9140 C   0  0  0  0  0  0  0  0  0  0  0  0
   35.4650   30.3200   34.8350 Cl  0  0  0  0  0  0  0  0  0  0  0  0
   36.7570   27.9790   34.5260 C   0  0  0  0  0  0  0  0  0  0  0  0
   35.5970   27.3190   30.9880 H   0  0  0  0  0  0  0  0  0  0  0  0
   34.8700   29.3800   32.1880 H   0  0  0  0  0  0  0  0  0  0  0  0
   37.1190   28.1220   35.5430 H   0  0  0  0  0  0  0  0  0  0  0  0
   36.3200   21.8090   32.0340 C   0  0  0  0  0  0  0  0  0  0  0  0
   36.3190   21.3080   33.3380 C   0  0  0  0  0  0  0  0  0  0  0  0
   35.6440   20.1320   33.4140 N   0  0  0  0  0  0  0  0  0  0  0  0
   35.2180   19.8950   32.1480 C   0  0  0  0  0  0  0  0  0  0  0  0
   35.6280   20.8890   31.3660 N   0  0  0  0  0  0  0  0  0  0  0  0
   36.7840   21.7550   34.2300 H   0  0  0  0  0  0  0  0  0  0  0  0
   35.5060   19.5670   34.2750 H   0  0  0  0  0  0  0  0  0  0  0  0
   34.4600   18.7330   31.8220 N   0  0  0  0  0  0  0  0  0  0  0  0
   34.4840   18.0830   32.6430 H   0  0  0  0  0  0  0  0  0  0  0  0
   33.9470   18.5020   30.9470 H   0  0  0  0  0  0  0  0  0  0  0  0
  1  2  2  0  0  0  0
  1  6  1  0  0  0  0
  2  3  1  0  0  0  0
  3 20  1  0  0  0  0
  3  4  2  0  0  0  0
  5  4  1  0  0  0  0
  5 11  1  0  0  0  0
  6  5  2  0  0  0  0
  7  1  1  0  0  0  0
  8  2  1  0  0  0  0
 10 16  1  0  0  0  0
 10  9  1  0  0  0  0
 11 10  2  0  0  0  0
 12 13  2  0  0  0  0
 12 11  1  0  0  0  0
 13 14  1  0  0  0  0
 14 16  2  0  0  0  0
 14 15  1  0  0  0  0
 16 19  1  0  0  0  0
 17 12  1  0  0  0  0
 18 13  1  0  0  0  0
 20 21  2  0  0  0  0
 21 22  1  0  0  0  0
 21 25  1  0  0  0  0
 22 26  1  0  0  0  0
 23 22  1  0  0  0  0
 24 20  1  0  0  0  0
 24 23  2  0  0  0  0
 27 23  1  0  0  0  0
 27 28  1  0  0  0  0
 29 27  1  0  0  0  0
M  END
>  <minimizedAffinity>
-5.35021687

$$$$

 OpenBabel03272502443D

 29 31  0  0  0  0  0  0  0  0999 V2000
   39.8270   26.1130   32.3270 C   0  0  0  0  0  0  0  0  0  0  0  0
   40.0060   25.1240   33.2960 C   0  0  0  0  0  0  0  0  0  0  0  0
   39.0260   25.0580   34.3090 C   0  0  0  0  0  0  0  0  0  0  0  0
   37.9870   25.9340   34.2920 N   0  0  0  0  0  0  0  0  0  0  0  0
   37.8660   26.8810   33.3170 C   0  0  0  0  0  0  0  0  0  0  0  0
   38.7920   26.9450   32.3580 N   0  0  0  0  0  0  0  0  0  0  0  0
   40.6120   26.1110   31.5800 H   0  0  0  0  0  0  0  0  0  0  0  0
   40.8020   24.4000   33.3700 H   0  0  0  0  0  0  0  0  0  0  0  0
   36.1490   26.8150   30.9100 Cl  0  0  0  0  0  0  0  0  0  0  0  0
   35.8620   27.8310   32.2690 C   0  0  0  0  0  0  0  0  0  0  0  0
   36.7340   27.7860   33.3560 C   0  0  0  0  0  0  0  0  0  0  0  0
   36.5440   28.5720   34.4510 C   0  0  0  0  0  0  0  0  0  0  0  0
   35.4710   29.4470   34.5160 C   0  0  0  0  0  0  0  0  0  0  0  0
   34.5880   29.5180   33.4580 C   0  0  0  0  0  0  0  0  0  0  0  0
   33.1880   30.5810   33.4080 Cl  0  0  0  0  0  0  0  0  0  0  0  0
   34.8140   28.7060   32.3660 C   0  0  0  0  0  0  0  0  0  0  0  0
   37.2050   28.5470   35.2920 H   0  0  0  0  0  0  0  0  0  0  0  0
   35.2540   30.0980   35.3430 H   0  0  0  0  0  0  0  0  0  0  0  0
   34.1560   28.7140   31.4990 H   0  0  0  0  0  0  0  0  0  0  0  0
   39.1120   24.0700   35.3660 C   0  0  0  0  0  0  0  0  0  0  0  0
   37.9960   23.4630   35.9490 C   0  0  0  0  0  0  0  0  0  0  0  0
   38.3640   22.5790   36.9120 N   0  0  0  0  0  0  0  0  0  0  0  0
   39.7200   22.6310   36.9310 C   0  0  0  0  0  0  0  0  0  0  0  0
   40.1260   23.5100   36.0190 N   0  0  0  0  0  0  0  0  0  0  0  0
   36.9360   23.6340   35.7080 H   0  0  0  0  0  0  0  0  0  0  0  0
   37.7160   22.0050   37.4860 H   0  0  0  0  0  0  0  0  0  0  0  0
   40.4840   21.8300   37.8270 N   0  0  0  0  0  0  0  0  0  0  0  0
   39.8300   21.3990   38.5230 H   0  0  0  0  0  0  0  0  0  0  0  0
   41.5090   21.6550   37.8480 H   0  0  0  0  0  0  0  0  0  0  0  0
  1  6  2  0  0  0  0
  1  2  1  0  0  0  0
  2  8  1  0  0  0  0
  2  3  2  0  0  0  0
  3 20  1  0  0  0  0
  4  3  1  0  0  0  0
  5 11  1  0  0  0  0
  5  4  2  0  0  0  0
  6  5  1  0  0  0  0
  7  1  1  0  0  0  0
  9 10  1  0  0  0  0
 10 16  2  0  0  0  0
 10 11  1  0  0  0  0
 11 12  2  0  0  0  0
 12 13  1  0  0  0  0
 12 17  1  0  0  0  0
 13 18  1  0  0  0  0
 14 13  2  0  0  0  0
 15 14  1  0  0  0  0
 16 14  1  0  0  0  0
 19 16  1  0  0  0  0
 20 21  2  0  0  0  0
 20 24  1  0  0  0  0
 21 22  1  0  0  0  0
 22 23  1  0  0  0  0
 22 26  1  0  0  0  0
 23 27  1  0  0  0  0
 24 23  2  0  0  0  0
 25 21  1  0  0  0  0
 27 29  1  0  0  0  0
 27 28  1  0  0  0  0
M  END
>  <minimizedAffinity>
-5.32688951

$$$$

 OpenBabel03272502443D

 29 31  0  0  0  0  0  0  0  0999 V2000
   37.2940   26.5600   34.7470 C   0  0  0  0  0  0  0  0  0  0  0  0
   37.7650   25.7380   35.7720 C   0  0  0  0  0  0  0  0  0  0  0  0
   38.6080   24.6750   35.3840 C   0  0  0  0  0  0  0  0  0  0  0  0
   38.9110   24.5090   34.0690 N   0  0  0  0  0  0  0  0  0  0  0  0
   38.4190   25.3470   33.1110 C   0  0  0  0  0  0  0  0  0  0  0  0
   37.6210   26.3520   33.4770 N   0  0  0  0  0  0  0  0  0  0  0  0
   36.6530   27.3550   35.1110 H   0  0  0  0  0  0  0  0  0  0  0  0
   37.5650   25.8120   36.8300 H   0  0  0  0  0  0  0  0  0  0  0  0
   40.4040   27.2460   32.0180 Cl  0  0  0  0  0  0  0  0  0  0  0  0
   39.7090   25.9550   31.1160 C   0  0  0  0  0  0  0  0  0  0  0  0
   38.7800   25.1150   31.7260 C   0  0  0  0  0  0  0  0  0  0  0  0
   38.2060   24.0810   31.0490 C   0  0  0  0  0  0  0  0  0  0  0  0
   38.5320   23.8360   29.7250 C   0  0  0  0  0  0  0  0  0  0  0  0
   39.4480   24.6500   29.0900 C   0  0  0  0  0  0  0  0  0  0  0  0
   39.9510   24.4520   27.4160 Cl  0  0  0  0  0  0  0  0  0  0  0  0
   40.0070   25.6850   29.8080 C   0  0  0  0  0  0  0  0  0  0  0  0
   37.4910   23.4290   31.5060 H   0  0  0  0  0  0  0  0  0  0  0  0
   38.1230   23.0440   29.1250 H   0  0  0  0  0  0  0  0  0  0  0  0
   40.7360   26.3620   29.3660 H   0  0  0  0  0  0  0  0  0  0  0  0
   39.1540   23.7600   36.3660 C   0  0  0  0  0  0  0  0  0  0  0  0
   38.6620   23.6420   37.6690 C   0  0  0  0  0  0  0  0  0  0  0  0
   39.3570   22.7130   38.3750 N   0  0  0  0  0  0  0  0  0  0  0  0
   40.2890   22.2450   37.5070 C   0  0  0  0  0  0  0  0  0  0  0  0
   40.1460   22.8750   36.3450 N   0  0  0  0  0  0  0  0  0  0  0  0
   37.8290   24.1980   38.1260 H   0  0  0  0  0  0  0  0  0  0  0  0
   39.1800   22.4470   39.3630 H   0  0  0  0  0  0  0  0  0  0  0  0
   41.2230   21.2390   37.8880 N   0  0  0  0  0  0  0  0  0  0  0  0
   41.1640   21.1110   38.9260 H   0  0  0  0  0  0  0  0  0  0  0  0
   41.8790   20.6870   37.2980 H   0  0  0  0  0  0  0  0  0  0  0  0
  1  7  1  0  0  0  0
  1  2  1  0  0  0  0
  2  8  1  0  0  0  0
  3  2  2  0  0  0  0
  3 20  1  0  0  0  0
  4  3  1  0  0  0  0
  5  6  1  0  0  0  0
  5  4  2  0  0  0  0
  6  1  2  0  0  0  0
 10 11  1  0  0  0  0
 10  9  1  0  0  0  0
 11  5  1  0  0  0  0
 12 17  1  0  0  0  0
 12 11  2  0  0  0  0
 13 12  1  0  0  0  0
 14 13  2  0  0  0  0
 14 16  1  0  0  0  0
 15 14  1  0  0  0  0
 16 10  2  0  0  0  0
 18 13  1  0  0  0  0
 19 16  1  0  0  0  0
 20 21  2  0  0  0  0
 21 25  1  0  0  0  0
 21 22  1  0  0  0  0
 22 26  1  0  0  0  0
 23 27  1  0  0  0  0
 23 22  1  0  0  0  0
 24 20  1  0  0  0  0
 24 23  2  0  0  0  0
 27 28  1  0  0  0  0
 29 27  1  0  0  0  0
M  END
>  <minimizedAffinity>
-5.29968119

$$$$

 OpenBabel03272502443D

 29 31  0  0  0  0  0  0  0  0999 V2000
   39.8730   24.3640   32.0000 C   0  0  0  0  0  0  0  0  0  0  0  0
   40.2270   23.6070   33.1180 C   0  0  0  0  0  0  0  0  0  0  0  0
   39.5810   23.9410   34.3280 C   0  0  0  0  0  0  0  0  0  0  0  0
   38.6740   24.9530   34.3450 N   0  0  0  0  0  0  0  0  0  0  0  0
   38.3690   25.6580   33.2170 C   0  0  0  0  0  0  0  0  0  0  0  0
   38.9790   25.3430   32.0720 N   0  0  0  0  0  0  0  0  0  0  0  0
   40.4020   24.0580   31.1060 H   0  0  0  0  0  0  0  0  0  0  0  0
   40.9350   22.7950   33.1760 H   0  0  0  0  0  0  0  0  0  0  0  0
   38.4530   27.2130   35.7310 Cl  0  0  0  0  0  0  0  0  0  0  0  0
   37.3490   27.5190   34.4460 C   0  0  0  0  0  0  0  0  0  0  0  0
   37.3920   26.7260   33.3010 C   0  0  0  0  0  0  0  0  0  0  0  0
   36.5370   26.9330   32.2610 C   0  0  0  0  0  0  0  0  0  0  0  0
   35.5920   27.9460   32.3140 C   0  0  0  0  0  0  0  0  0  0  0  0
   35.5220   28.7500   33.4340 C   0  0  0  0  0  0  0  0  0  0  0  0
   34.3740   30.0680   33.6320 Cl  0  0  0  0  0  0  0  0  0  0  0  0
   36.4040   28.5090   34.4650 C   0  0  0  0  0  0  0  0  0  0  0  0
   36.5590   26.3320   31.3770 H   0  0  0  0  0  0  0  0  0  0  0  0
   34.8850   28.1720   31.5380 H   0  0  0  0  0  0  0  0  0  0  0  0
   36.4000   29.1070   35.3750 H   0  0  0  0  0  0  0  0  0  0  0  0
   39.8730   23.2210   35.5510 C   0  0  0  0  0  0  0  0  0  0  0  0
   39.1030   23.3270   36.7130 C   0  0  0  0  0  0  0  0  0  0  0  0
   39.6000   22.5460   37.7060 N   0  0  0  0  0  0  0  0  0  0  0  0
   40.6890   21.9450   37.1630 C   0  0  0  0  0  0  0  0  0  0  0  0
   40.8220   22.3590   35.9060 N   0  0  0  0  0  0  0  0  0  0  0  0
   38.2040   23.9420   36.8690 H   0  0  0  0  0  0  0  0  0  0  0  0
   39.2030   22.4550   38.6620 H   0  0  0  0  0  0  0  0  0  0  0  0
   41.4890   21.0350   37.9120 N   0  0  0  0  0  0  0  0  0  0  0  0
   41.1990   21.0910   38.9160 H   0  0  0  0  0  0  0  0  0  0  0  0
   42.2450   20.3970   37.5870 H   0  0  0  0  0  0  0  0  0  0  0  0
  1  6  2  0  0  0  0
  1  2  1  0  0  0  0
  2  8  1  0  0  0  0
  2  3  2  0  0  0  0
  3  4  1  0  0  0  0
  3 20  1  0  0  0  0
  5 11  1  0  0  0  0
  5  4  2  0  0  0  0
  6  5  1  0  0  0  0
  7  1  1  0  0  0  0
 10 16  1  0  0  0  0
 10  9  1  0  0  0  0
 11 10  2  0  0  0  0
 12 13  2  0  0  0  0
 12 11  1  0  0  0  0
 13 14  1  0  0  0  0
 14 15  1  0  0  0  0
 14 16  2  0  0  0  0
 16 19  1  0  0  0  0
 17 12  1  0  0  0  0
 18 13  1  0  0  0  0
 20 24  1  0  0  0  0
 20 21  2  0  0  0  0
 21 25  1  0  0  0  0
 21 22  1  0  0  0  0
 22 26  1  0  0  0  0
 23 22  1  0  0  0  0
 23 27  1  0  0  0  0
 24 23  2  0  0  0  0
 27 28  1  0  0  0  0
 29 27  1  0  0  0  0
M  END
>  <minimizedAffinity>
-5.26657248

$$$$

 OpenBabel03272502443D

 29 31  0  0  0  0  0  0  0  0999 V2000
   39.0260   22.1020   32.1780 C   0  0  0  0  0  0  0  0  0  0  0  0
   39.2810   21.9030   33.5360 C   0  0  0  0  0  0  0  0  0  0  0  0
   39.0160   22.9950   34.3890 C   0  0  0  0  0  0  0  0  0  0  0  0
   38.5400   24.1540   33.8620 N   0  0  0  0  0  0  0  0  0  0  0  0
   38.3100   24.2900   32.5240 C   0  0  0  0  0  0  0  0  0  0  0  0
   38.5600   23.2570   31.7160 N   0  0  0  0  0  0  0  0  0  0  0  0
   39.2490   21.2280   31.5790 H   0  0  0  0  0  0  0  0  0  0  0  0
   39.6570   21.0140   34.0190 H   0  0  0  0  0  0  0  0  0  0  0  0
   35.5000   24.2120   31.6030 Cl  0  0  0  0  0  0  0  0  0  0  0  0
   36.4870   25.6220   31.5670 C   0  0  0  0  0  0  0  0  0  0  0  0
   37.8010   25.5530   32.0250 C   0  0  0  0  0  0  0  0  0  0  0  0
   38.6150   26.6440   32.0150 C   0  0  0  0  0  0  0  0  0  0  0  0
   38.1560   27.8640   31.5430 C   0  0  0  0  0  0  0  0  0  0  0  0
   36.8600   27.9680   31.0820 C   0  0  0  0  0  0  0  0  0  0  0  0
   36.1500   29.4520   30.4570 Cl  0  0  0  0  0  0  0  0  0  0  0  0
   36.0660   26.8420   31.1080 C   0  0  0  0  0  0  0  0  0  0  0  0
   39.6260   26.6040   32.3630 H   0  0  0  0  0  0  0  0  0  0  0  0
   38.7360   28.7680   31.5020 H   0  0  0  0  0  0  0  0  0  0  0  0
   35.0350   26.8570   30.7590 H   0  0  0  0  0  0  0  0  0  0  0  0
   39.2450   22.8980   35.8160 C   0  0  0  0  0  0  0  0  0  0  0  0
   40.1680   22.0210   36.3930 C   0  0  0  0  0  0  0  0  0  0  0  0
   40.1780   22.1370   37.7460 N   0  0  0  0  0  0  0  0  0  0  0  0
   39.2560   23.0950   38.0190 C   0  0  0  0  0  0  0  0  0  0  0  0
   38.7290   23.5190   36.8740 N   0  0  0  0  0  0  0  0  0  0  0  0
   40.8270   21.3060   35.8790 H   0  0  0  0  0  0  0  0  0  0  0  0
   40.7780   21.5930   38.3960 H   0  0  0  0  0  0  0  0  0  0  0  0
   38.9770   23.5020   39.3560 N   0  0  0  0  0  0  0  0  0  0  0  0
   39.4410   22.8280   40.0080 H   0  0  0  0  0  0  0  0  0  0  0  0
   38.4210   24.3120   39.6980 H   0  0  0  0  0  0  0  0  0  0  0  0
  1  2  1  0  0  0  0
  2  8  1  0  0  0  0
  2  3  2  0  0  0  0
  3 20  1  0  0  0  0
  4  3  1  0  0  0  0
  5  4  2  0  0  0  0
  6  1  2  0  0  0  0
  6  5  1  0  0  0  0
  7  1  1  0  0  0  0
 10  9  1  0  0  0  0
 10 11  1  0  0  0  0
 11  5  1  0  0  0  0
 12 11  2  0  0  0  0
 12 17  1  0  0  0  0
 13 12  1  0  0  0  0
 14 16  1  0  0  0  0
 14 13  2  0  0  0  0
 15 14  1  0  0  0  0
 16 10  2  0  0  0  0
 18 13  1  0  0  0  0
 19 16  1  0  0  0  0
 20 21  2  0  0  0  0
 20 24  1  0  0  0  0
 21 22  1  0  0  0  0
 22 23  1  0  0  0  0
 22 26  1  0  0  0  0
 23 27  1  0  0  0  0
 24 23  2  0  0  0  0
 25 21  1  0  0  0  0
 27 29  1  0  0  0  0
 27 28  1  0  0  0  0
M  END
>  <minimizedAffinity>
-5.25899172

$$$$
