
 OpenBabel03262521413D

 37 40  0  0  0  0  0  0  0  0999 V2000
   38.3090   22.1080   33.3560 F   0  0  0  0  0  0  0  0  0  0  0  0
   37.4390   22.9450   32.7110 C   0  0  0  0  0  0  0  0  0  0  0  0
   36.2930   22.4500   32.1090 C   0  0  0  0  0  0  0  0  0  0  0  0
   35.4350   23.3420   31.4640 C   0  0  0  0  0  0  0  0  0  0  0  0
   35.7160   24.7050   31.4190 C   0  0  0  0  0  0  0  0  0  0  0  0
   36.8710   25.1250   32.0380 C   0  0  0  0  0  0  0  0  0  0  0  0
   37.7420   24.2780   32.6850 C   0  0  0  0  0  0  0  0  0  0  0  0
   34.5390   22.9560   30.9930 H   0  0  0  0  0  0  0  0  0  0  0  0
   35.0240   25.3680   30.9070 H   0  0  0  0  0  0  0  0  0  0  0  0
   37.0420   26.1900   31.9750 H   0  0  0  0  0  0  0  0  0  0  0  0
   36.3830   20.3410   31.0440 C   0  0  0  0  0  0  0  0  0  0  0  0
   36.0600   21.0450   32.1900 C   0  0  0  0  0  0  0  0  0  0  0  0
   35.5520   20.3250   33.2800 C   0  0  0  0  0  0  0  0  0  0  0  0
   35.4070   18.9740   33.1460 N   0  0  0  0  0  0  0  0  0  0  0  0
   35.7320   18.3370   32.0210 C   0  0  0  0  0  0  0  0  0  0  0  0
   36.2220   18.9940   30.9550 N   0  0  0  0  0  0  0  0  0  0  0  0
   36.7840   20.7890   30.1380 H   0  0  0  0  0  0  0  0  0  0  0  0
   35.3230   20.9250   34.1300 H   0  0  0  0  0  0  0  0  0  0  0  0
   35.5410   17.2700   32.1240 H   0  0  0  0  0  0  0  0  0  0  0  0
   39.2300   24.8820   33.4730 S   0  0  0  0  0  0  0  0  0  0  0  0
   39.8770   23.7300   34.6430 C   0  0  0  0  0  0  0  0  0  0  0  0
   40.8400   22.7980   34.4220 N   0  0  0  0  0  0  0  0  0  0  0  0
   41.2420   21.9850   35.4030 C   0  0  0  0  0  0  0  0  0  0  0  0
   40.7350   22.0290   36.6450 N   0  0  0  0  0  0  0  0  0  0  0  0
   39.7810   22.9270   36.9290 C   0  0  0  0  0  0  0  0  0  0  0  0
   39.2510   22.9850   38.2000 C   0  0  0  0  0  0  0  0  0  0  0  0
   38.2650   23.9040   38.5120 C   0  0  0  0  0  0  0  0  0  0  0  0
   37.8060   24.7760   37.5320 C   0  0  0  0  0  0  0  0  0  0  0  0
   38.3720   24.6750   36.2780 C   0  0  0  0  0  0  0  0  0  0  0  0
   39.3510   23.7770   35.9290 C   0  0  0  0  0  0  0  0  0  0  0  0
   42.0110   21.2410   35.2240 H   0  0  0  0  0  0  0  0  0  0  0  0
   39.5820   22.3170   39.0000 H   0  0  0  0  0  0  0  0  0  0  0  0
   37.8440   23.9530   39.5100 H   0  0  0  0  0  0  0  0  0  0  0  0
   37.0350   25.4990   37.7670 H   0  0  0  0  0  0  0  0  0  0  0  0
   37.8620   25.5940   35.3170 N   0  0  0  0  0  0  0  0  0  0  0  0
   37.0120   26.1720   35.2810 H   0  0  0  0  0  0  0  0  0  0  0  0
   38.5390   25.6440   34.5110 H   0  0  0  0  0  0  0  0  0  0  0  0
  2  1  1  0  0  0  0
  3 12  1  0  0  0  0
  3  2  2  0  0  0  0
  4  3  1  0  0  0  0
  5  4  2  0  0  0  0
  5  6  1  0  0  0  0
  6  7  2  0  0  0  0
  7  2  1  0  0  0  0
  7 20  1  0  0  0  0
  8  4  1  0  0  0  0
  9  5  1  0  0  0  0
 10  6  1  0  0  0  0
 11 12  1  0  0  0  0
 12 13  2  0  0  0  0
 13 18  1  0  0  0  0
 14 13  1  0  0  0  0
 15 19  1  0  0  0  0
 15 14  2  0  0  0  0
 16 11  2  0  0  0  0
 16 15  1  0  0  0  0
 17 11  1  0  0  0  0
 20 21  1  0  0  0  0
 21 30  1  0  0  0  0
 22 21  2  0  0  0  0
 22 23  1  0  0  0  0
 23 24  2  0  0  0  0
 24 25  1  0  0  0  0
 25 26  1  0  0  0  0
 26 27  2  0  0  0  0
 26 32  1  0  0  0  0
 27 33  1  0  0  0  0
 28 34  1  0  0  0  0
 28 27  1  0  0  0  0
 29 28  2  0  0  0  0
 30 29  1  0  0  0  0
 30 25  2  0  0  0  0
 31 23  1  0  0  0  0
 35 29  1  0  0  0  0
 36 35  1  0  0  0  0
 37 35  1  0  0  0  0
M  END
>  <minimizedAffinity>
-6.34615088

$$$$

 OpenBabel03262521413D

 37 40  0  0  0  0  0  0  0  0999 V2000
   38.1310   22.5240   33.2990 F   0  0  0  0  0  0  0  0  0  0  0  0
   37.3400   23.4500   32.6760 C   0  0  0  0  0  0  0  0  0  0  0  0
   36.3170   23.0560   31.8290 C   0  0  0  0  0  0  0  0  0  0  0  0
   35.5360   24.0370   31.2160 C   0  0  0  0  0  0  0  0  0  0  0  0
   35.7740   25.3900   31.4430 C   0  0  0  0  0  0  0  0  0  0  0  0
   36.8070   25.7080   32.2950 C   0  0  0  0  0  0  0  0  0  0  0  0
   37.5980   24.7710   32.9190 C   0  0  0  0  0  0  0  0  0  0  0  0
   34.7360   23.7290   30.5540 H   0  0  0  0  0  0  0  0  0  0  0  0
   35.1450   26.1250   30.9470 H   0  0  0  0  0  0  0  0  0  0  0  0
   36.9480   26.7700   32.4380 H   0  0  0  0  0  0  0  0  0  0  0  0
   35.1140   21.1030   32.4040 C   0  0  0  0  0  0  0  0  0  0  0  0
   36.1230   21.6550   31.6370 C   0  0  0  0  0  0  0  0  0  0  0  0
   36.8310   20.8070   30.7740 C   0  0  0  0  0  0  0  0  0  0  0  0
   36.4820   19.4870   30.7430 N   0  0  0  0  0  0  0  0  0  0  0  0
   35.5010   18.9970   31.5010 C   0  0  0  0  0  0  0  0  0  0  0  0
   34.8000   19.7810   32.3400 N   0  0  0  0  0  0  0  0  0  0  0  0
   34.4980   21.6590   33.1070 H   0  0  0  0  0  0  0  0  0  0  0  0
   37.5940   21.2930   30.2130 H   0  0  0  0  0  0  0  0  0  0  0  0
   35.3860   17.9300   31.3240 H   0  0  0  0  0  0  0  0  0  0  0  0
   38.9270   25.2450   34.0180 S   0  0  0  0  0  0  0  0  0  0  0  0
   38.7680   24.5030   35.6120 C   0  0  0  0  0  0  0  0  0  0  0  0
   37.7640   24.6980   36.5050 N   0  0  0  0  0  0  0  0  0  0  0  0
   37.7650   24.0670   37.6820 C   0  0  0  0  0  0  0  0  0  0  0  0
   38.7340   23.2180   38.0580 N   0  0  0  0  0  0  0  0  0  0  0  0
   39.7550   22.9810   37.2210 C   0  0  0  0  0  0  0  0  0  0  0  0
   40.7580   22.1110   37.5920 C   0  0  0  0  0  0  0  0  0  0  0  0
   41.8200   21.8560   36.7430 C   0  0  0  0  0  0  0  0  0  0  0  0
   41.8730   22.4830   35.5040 C   0  0  0  0  0  0  0  0  0  0  0  0
   40.8430   23.3430   35.1830 C   0  0  0  0  0  0  0  0  0  0  0  0
   39.7730   23.6240   35.9980 C   0  0  0  0  0  0  0  0  0  0  0  0
   36.9630   24.2240   38.3950 H   0  0  0  0  0  0  0  0  0  0  0  0
   40.7550   21.5980   38.5570 H   0  0  0  0  0  0  0  0  0  0  0  0
   42.6120   21.1720   37.0290 H   0  0  0  0  0  0  0  0  0  0  0  0
   42.7000   22.2880   34.8320 H   0  0  0  0  0  0  0  0  0  0  0  0
   40.9520   23.9550   33.9020 N   0  0  0  0  0  0  0  0  0  0  0  0
   41.7360   24.0750   33.2470 H   0  0  0  0  0  0  0  0  0  0  0  0
   40.0090   24.3400   33.6350 H   0  0  0  0  0  0  0  0  0  0  0  0
  2  7  1  0  0  0  0
  2  1  1  0  0  0  0
  3  2  2  0  0  0  0
  4  5  2  0  0  0  0
  4  3  1  0  0  0  0
  5  6  1  0  0  0  0
  6 10  1  0  0  0  0
  6  7  2  0  0  0  0
  7 20  1  0  0  0  0
  8  4  1  0  0  0  0
  9  5  1  0  0  0  0
 11 17  1  0  0  0  0
 12  3  1  0  0  0  0
 12 11  2  0  0  0  0
 13 12  1  0  0  0  0
 14 13  2  0  0  0  0
 14 15  1  0  0  0  0
 15 16  2  0  0  0  0
 16 11  1  0  0  0  0
 18 13  1  0  0  0  0
 19 15  1  0  0  0  0
 20 21  1  0  0  0  0
 21 30  2  0  0  0  0
 21 22  1  0  0  0  0
 22 23  2  0  0  0  0
 23 24  1  0  0  0  0
 23 31  1  0  0  0  0
 25 26  1  0  0  0  0
 25 24  2  0  0  0  0
 26 32  1  0  0  0  0
 27 33  1  0  0  0  0
 27 26  2  0  0  0  0
 28 27  1  0  0  0  0
 29 28  2  0  0  0  0
 29 30  1  0  0  0  0
 30 25  1  0  0  0  0
 34 28  1  0  0  0  0
 35 29  1  0  0  0  0
 36 35  1  0  0  0  0
 37 35  1  0  0  0  0
M  END
>  <minimizedAffinity>
-6.34417915

$$$$

 OpenBabel03262521413D

 37 40  0  0  0  0  0  0  0  0999 V2000
   38.2270   26.8450   32.7530 F   0  0  0  0  0  0  0  0  0  0  0  0
   37.3380   25.9400   32.2400 C   0  0  0  0  0  0  0  0  0  0  0  0
   36.1870   26.3620   31.5940 C   0  0  0  0  0  0  0  0  0  0  0  0
   35.3110   25.4010   31.0870 C   0  0  0  0  0  0  0  0  0  0  0  0
   35.5780   24.0420   31.2240 C   0  0  0  0  0  0  0  0  0  0  0  0
   36.7390   23.6950   31.8760 C   0  0  0  0  0  0  0  0  0  0  0  0
   37.6290   24.6120   32.3890 C   0  0  0  0  0  0  0  0  0  0  0  0
   34.4110   25.7310   30.5830 H   0  0  0  0  0  0  0  0  0  0  0  0
   34.8710   23.3240   30.8160 H   0  0  0  0  0  0  0  0  0  0  0  0
   36.8990   22.6300   31.9530 H   0  0  0  0  0  0  0  0  0  0  0  0
   36.5910   28.3660   30.4070 C   0  0  0  0  0  0  0  0  0  0  0  0
   35.9700   27.7680   31.4870 C   0  0  0  0  0  0  0  0  0  0  0  0
   35.2110   28.5820   32.3400 C   0  0  0  0  0  0  0  0  0  0  0  0
   35.1320   29.9140   32.0540 N   0  0  0  0  0  0  0  0  0  0  0  0
   35.7490   30.4480   31.0000 C   0  0  0  0  0  0  0  0  0  0  0  0
   36.4850   29.6990   30.1590 N   0  0  0  0  0  0  0  0  0  0  0  0
   37.2040   27.8390   29.6780 H   0  0  0  0  0  0  0  0  0  0  0  0
   34.7590   28.0610   33.1520 H   0  0  0  0  0  0  0  0  0  0  0  0
   35.5570   31.5190   30.9540 H   0  0  0  0  0  0  0  0  0  0  0  0
   39.1240   24.1020   33.2280 S   0  0  0  0  0  0  0  0  0  0  0  0
   38.8900   23.9550   34.9710 C   0  0  0  0  0  0  0  0  0  0  0  0
   37.9130   24.5360   35.7150 N   0  0  0  0  0  0  0  0  0  0  0  0
   37.8500   24.3380   37.0340 C   0  0  0  0  0  0  0  0  0  0  0  0
   38.7250   23.5720   37.7030 N   0  0  0  0  0  0  0  0  0  0  0  0
   39.7140   22.9690   37.0270 C   0  0  0  0  0  0  0  0  0  0  0  0
   40.6210   22.1780   37.7000 C   0  0  0  0  0  0  0  0  0  0  0  0
   41.6490   21.5490   37.0200 C   0  0  0  0  0  0  0  0  0  0  0  0
   41.7660   21.7180   35.6460 C   0  0  0  0  0  0  0  0  0  0  0  0
   40.8310   22.5190   35.0230 C   0  0  0  0  0  0  0  0  0  0  0  0
   39.7980   23.1600   35.6620 C   0  0  0  0  0  0  0  0  0  0  0  0
   37.0700   24.8030   37.6260 H   0  0  0  0  0  0  0  0  0  0  0  0
   40.5660   22.0200   38.7800 H   0  0  0  0  0  0  0  0  0  0  0  0
   42.3660   20.9260   37.5450 H   0  0  0  0  0  0  0  0  0  0  0  0
   42.5680   21.2290   35.1060 H   0  0  0  0  0  0  0  0  0  0  0  0
   41.0020   22.6540   33.6160 N   0  0  0  0  0  0  0  0  0  0  0  0
   41.7930   22.4690   32.9840 H   0  0  0  0  0  0  0  0  0  0  0  0
   40.1040   23.0190   33.2040 H   0  0  0  0  0  0  0  0  0  0  0  0
  2  7  1  0  0  0  0
  2  1  1  0  0  0  0
  3  2  2  0  0  0  0
  4  5  2  0  0  0  0
  4  3  1  0  0  0  0
  5  6  1  0  0  0  0
  6 10  1  0  0  0  0
  6  7  2  0  0  0  0
  7 20  1  0  0  0  0
  8  4  1  0  0  0  0
  9  5  1  0  0  0  0
 11 12  1  0  0  0  0
 12  3  1  0  0  0  0
 12 13  2  0  0  0  0
 13 18  1  0  0  0  0
 14 13  1  0  0  0  0
 15 14  2  0  0  0  0
 16 11  2  0  0  0  0
 16 15  1  0  0  0  0
 17 11  1  0  0  0  0
 19 15  1  0  0  0  0
 20 21  1  0  0  0  0
 21 30  2  0  0  0  0
 21 22  1  0  0  0  0
 22 23  2  0  0  0  0
 23 31  1  0  0  0  0
 23 24  1  0  0  0  0
 25 26  1  0  0  0  0
 25 24  2  0  0  0  0
 26 32  1  0  0  0  0
 27 33  1  0  0  0  0
 27 26  2  0  0  0  0
 28 27  1  0  0  0  0
 29 28  2  0  0  0  0
 29 30  1  0  0  0  0
 30 25  1  0  0  0  0
 34 28  1  0  0  0  0
 35 29  1  0  0  0  0
 36 35  1  0  0  0  0
 37 35  1  0  0  0  0
M  END
>  <minimizedAffinity>
-6.11528206

$$$$

 OpenBabel03262521413D

 37 40  0  0  0  0  0  0  0  0999 V2000
   37.5600   28.2990   35.6580 F   0  0  0  0  0  0  0  0  0  0  0  0
   37.2040   27.9890   34.3730 C   0  0  0  0  0  0  0  0  0  0  0  0
   36.1150   28.5990   33.7720 C   0  0  0  0  0  0  0  0  0  0  0  0
   35.7900   28.2510   32.4590 C   0  0  0  0  0  0  0  0  0  0  0  0
   36.5390   27.3090   31.7600 C   0  0  0  0  0  0  0  0  0  0  0  0
   37.6060   26.7440   32.4200 C   0  0  0  0  0  0  0  0  0  0  0  0
   37.9590   27.0610   33.7120 C   0  0  0  0  0  0  0  0  0  0  0  0
   34.9390   28.7280   31.9890 H   0  0  0  0  0  0  0  0  0  0  0  0
   36.2550   27.0640   30.7400 H   0  0  0  0  0  0  0  0  0  0  0  0
   38.1540   26.0220   31.8320 H   0  0  0  0  0  0  0  0  0  0  0  0
   34.0180   29.3680   34.5480 C   0  0  0  0  0  0  0  0  0  0  0  0
   35.3880   29.5560   34.5410 C   0  0  0  0  0  0  0  0  0  0  0  0
   35.9050   30.6360   35.2690 C   0  0  0  0  0  0  0  0  0  0  0  0
   35.0270   31.4370   35.9410 N   0  0  0  0  0  0  0  0  0  0  0  0
   33.7120   31.2170   35.9200 C   0  0  0  0  0  0  0  0  0  0  0  0
   33.1790   30.1910   35.2320 N   0  0  0  0  0  0  0  0  0  0  0  0
   33.5030   28.5670   34.0220 H   0  0  0  0  0  0  0  0  0  0  0  0
   36.9660   30.7260   35.2230 H   0  0  0  0  0  0  0  0  0  0  0  0
   33.1950   31.9660   36.5180 H   0  0  0  0  0  0  0  0  0  0  0  0
   39.3590   26.2930   34.5190 S   0  0  0  0  0  0  0  0  0  0  0  0
   38.8620   25.0520   35.6710 C   0  0  0  0  0  0  0  0  0  0  0  0
   37.6430   24.9210   36.2550 N   0  0  0  0  0  0  0  0  0  0  0  0
   37.3990   23.9280   37.1120 C   0  0  0  0  0  0  0  0  0  0  0  0
   38.3170   23.0090   37.4520 N   0  0  0  0  0  0  0  0  0  0  0  0
   39.5420   23.0810   36.9100 C   0  0  0  0  0  0  0  0  0  0  0  0
   40.4960   22.1450   37.2480 C   0  0  0  0  0  0  0  0  0  0  0  0
   41.7650   22.2030   36.7000 C   0  0  0  0  0  0  0  0  0  0  0  0
   42.0780   23.2150   35.8010 C   0  0  0  0  0  0  0  0  0  0  0  0
   41.0860   24.1240   35.4980 C   0  0  0  0  0  0  0  0  0  0  0  0
   39.8150   24.1010   36.0200 C   0  0  0  0  0  0  0  0  0  0  0  0
   36.4250   23.8260   37.5790 H   0  0  0  0  0  0  0  0  0  0  0  0
   40.2920   21.3330   37.9510 H   0  0  0  0  0  0  0  0  0  0  0  0
   42.5200   21.4690   36.9620 H   0  0  0  0  0  0  0  0  0  0  0  0
   43.0690   23.2680   35.3670 H   0  0  0  0  0  0  0  0  0  0  0  0
   41.4650   25.1370   34.5720 N   0  0  0  0  0  0  0  0  0  0  0  0
   42.3780   25.4800   34.2420 H   0  0  0  0  0  0  0  0  0  0  0  0
   40.5910   25.5820   34.1870 H   0  0  0  0  0  0  0  0  0  0  0  0
  2  1  1  0  0  0  0
  3  2  1  0  0  0  0
  3 12  1  0  0  0  0
  4  3  2  0  0  0  0
  5  6  2  0  0  0  0
  5  4  1  0  0  0  0
  6  7  1  0  0  0  0
  7  2  2  0  0  0  0
  7 20  1  0  0  0  0
  8  4  1  0  0  0  0
  9  5  1  0  0  0  0
 10  6  1  0  0  0  0
 11 16  1  0  0  0  0
 12 11  2  0  0  0  0
 12 13  1  0  0  0  0
 13 14  2  0  0  0  0
 15 14  1  0  0  0  0
 15 19  1  0  0  0  0
 16 15  2  0  0  0  0
 17 11  1  0  0  0  0
 18 13  1  0  0  0  0
 20 21  1  0  0  0  0
 21 30  2  0  0  0  0
 21 22  1  0  0  0  0
 22 23  2  0  0  0  0
 23 24  1  0  0  0  0
 23 31  1  0  0  0  0
 25 26  1  0  0  0  0
 25 24  2  0  0  0  0
 26 32  1  0  0  0  0
 27 33  1  0  0  0  0
 27 26  2  0  0  0  0
 28 27  1  0  0  0  0
 29 28  2  0  0  0  0
 29 30  1  0  0  0  0
 30 25  1  0  0  0  0
 34 28  1  0  0  0  0
 35 29  1  0  0  0  0
 36 35  1  0  0  0  0
 37 35  1  0  0  0  0
M  END
>  <minimizedAffinity>
-6.06934452

$$$$

 OpenBabel03262521413D

 37 40  0  0  0  0  0  0  0  0999 V2000
   35.7960   28.3040   34.5080 F   0  0  0  0  0  0  0  0  0  0  0  0
   36.4950   28.3000   33.3310 C   0  0  0  0  0  0  0  0  0  0  0  0
   37.5330   27.4060   33.1240 C   0  0  0  0  0  0  0  0  0  0  0  0
   38.2170   27.4400   31.9080 C   0  0  0  0  0  0  0  0  0  0  0  0
   37.8720   28.3530   30.9160 C   0  0  0  0  0  0  0  0  0  0  0  0
   36.8320   29.2110   31.1900 C   0  0  0  0  0  0  0  0  0  0  0  0
   36.1330   29.2080   32.3760 C   0  0  0  0  0  0  0  0  0  0  0  0
   39.0280   26.7400   31.7470 H   0  0  0  0  0  0  0  0  0  0  0  0
   38.4290   28.3490   29.9820 H   0  0  0  0  0  0  0  0  0  0  0  0
   36.6050   29.8970   30.3870 H   0  0  0  0  0  0  0  0  0  0  0  0
   37.8130   25.1620   33.8150 C   0  0  0  0  0  0  0  0  0  0  0  0
   37.8380   26.4950   34.1800 C   0  0  0  0  0  0  0  0  0  0  0  0
   38.1520   26.8050   35.5100 C   0  0  0  0  0  0  0  0  0  0  0  0
   38.4140   25.7740   36.3660 N   0  0  0  0  0  0  0  0  0  0  0  0
   38.3790   24.5010   35.9700 C   0  0  0  0  0  0  0  0  0  0  0  0
   38.0820   24.1660   34.7020 N   0  0  0  0  0  0  0  0  0  0  0  0
   37.5840   24.8000   32.8160 H   0  0  0  0  0  0  0  0  0  0  0  0
   38.1540   27.8490   35.7260 H   0  0  0  0  0  0  0  0  0  0  0  0
   38.6170   23.8420   36.8020 H   0  0  0  0  0  0  0  0  0  0  0  0
   34.7880   30.3490   32.6760 S   0  0  0  0  0  0  0  0  0  0  0  0
   35.0630   31.3350   34.1130 C   0  0  0  0  0  0  0  0  0  0  0  0
   36.0550   32.2420   34.3040 N   0  0  0  0  0  0  0  0  0  0  0  0
   36.1460   32.9270   35.4460 C   0  0  0  0  0  0  0  0  0  0  0  0
   35.2860   32.7710   36.4640 N   0  0  0  0  0  0  0  0  0  0  0  0
   34.2810   31.8920   36.3400 C   0  0  0  0  0  0  0  0  0  0  0  0
   33.3880   31.7210   37.3770 C   0  0  0  0  0  0  0  0  0  0  0  0
   32.3460   30.8170   37.2680 C   0  0  0  0  0  0  0  0  0  0  0  0
   32.2010   30.0760   36.1020 C   0  0  0  0  0  0  0  0  0  0  0  0
   33.1220   30.2870   35.0970 C   0  0  0  0  0  0  0  0  0  0  0  0
   34.1690   31.1730   35.1660 C   0  0  0  0  0  0  0  0  0  0  0  0
   36.9410   33.6500   35.5970 H   0  0  0  0  0  0  0  0  0  0  0  0
   33.4670   32.2830   38.3110 H   0  0  0  0  0  0  0  0  0  0  0  0
   31.6410   30.6780   38.0810 H   0  0  0  0  0  0  0  0  0  0  0  0
   31.3880   29.3660   36.0080 H   0  0  0  0  0  0  0  0  0  0  0  0
   32.9210   29.4990   33.9280 N   0  0  0  0  0  0  0  0  0  0  0  0
   32.3760   28.6460   33.7410 H   0  0  0  0  0  0  0  0  0  0  0  0
   33.4660   29.9320   33.1370 H   0  0  0  0  0  0  0  0  0  0  0  0
  2  1  1  0  0  0  0
  3  2  1  0  0  0  0
  3 12  1  0  0  0  0
  4  3  2  0  0  0  0
  5  6  2  0  0  0  0
  5  4  1  0  0  0  0
  6  7  1  0  0  0  0
  7 20  1  0  0  0  0
  7  2  2  0  0  0  0
  8  4  1  0  0  0  0
  9  5  1  0  0  0  0
 10  6  1  0  0  0  0
 11 12  2  0  0  0  0
 11 16  1  0  0  0  0
 12 13  1  0  0  0  0
 13 18  1  0  0  0  0
 13 14  2  0  0  0  0
 15 14  1  0  0  0  0
 15 19  1  0  0  0  0
 16 15  2  0  0  0  0
 17 11  1  0  0  0  0
 20 21  1  0  0  0  0
 21 22  2  0  0  0  0
 21 30  1  0  0  0  0
 22 23  1  0  0  0  0
 23 31  1  0  0  0  0
 23 24  2  0  0  0  0
 25 24  1  0  0  0  0
 25 26  1  0  0  0  0
 26 32  1  0  0  0  0
 27 26  2  0  0  0  0
 27 33  1  0  0  0  0
 28 27  1  0  0  0  0
 29 30  1  0  0  0  0
 29 28  2  0  0  0  0
 30 25  2  0  0  0  0
 34 28  1  0  0  0  0
 35 29  1  0  0  0  0
 36 35  1  0  0  0  0
 37 35  1  0  0  0  0
M  END
>  <minimizedAffinity>
-5.99455452

$$$$

 OpenBabel03262521413D

 37 40  0  0  0  0  0  0  0  0999 V2000
   34.9940   28.8600   33.8850 F   0  0  0  0  0  0  0  0  0  0  0  0
   35.5300   29.7920   33.0370 C   0  0  0  0  0  0  0  0  0  0  0  0
   35.5810   31.1300   33.3930 C   0  0  0  0  0  0  0  0  0  0  0  0
   36.1370   32.0430   32.4950 C   0  0  0  0  0  0  0  0  0  0  0  0
   36.6330   31.6270   31.2630 C   0  0  0  0  0  0  0  0  0  0  0  0
   36.5500   30.2840   30.9770 C   0  0  0  0  0  0  0  0  0  0  0  0
   36.0100   29.3530   31.8350 C   0  0  0  0  0  0  0  0  0  0  0  0
   36.1760   33.0890   32.7730 H   0  0  0  0  0  0  0  0  0  0  0  0
   37.0590   32.3690   30.5910 H   0  0  0  0  0  0  0  0  0  0  0  0
   36.9500   30.0150   30.0100 H   0  0  0  0  0  0  0  0  0  0  0  0
   33.7110   31.8120   34.6690 C   0  0  0  0  0  0  0  0  0  0  0  0
   35.0560   31.4930   34.6690 C   0  0  0  0  0  0  0  0  0  0  0  0
   35.7440   31.5570   35.8880 C   0  0  0  0  0  0  0  0  0  0  0  0
   35.0470   31.9310   37.0010 N   0  0  0  0  0  0  0  0  0  0  0  0
   33.7490   32.2290   36.9540 C   0  0  0  0  0  0  0  0  0  0  0  0
   33.0550   32.1790   35.8030 N   0  0  0  0  0  0  0  0  0  0  0  0
   33.0730   31.7980   33.7870 H   0  0  0  0  0  0  0  0  0  0  0  0
   36.7760   31.3000   35.8200 H   0  0  0  0  0  0  0  0  0  0  0  0
   33.3890   32.4990   37.9450 H   0  0  0  0  0  0  0  0  0  0  0  0
   35.9290   27.6180   31.4070 S   0  0  0  0  0  0  0  0  0  0  0  0
   36.9700   26.6310   32.4360 C   0  0  0  0  0  0  0  0  0  0  0  0
   37.8730   27.0750   33.3480 N   0  0  0  0  0  0  0  0  0  0  0  0
   38.5990   26.2150   34.0660 C   0  0  0  0  0  0  0  0  0  0  0  0
   38.4920   24.8830   33.9410 N   0  0  0  0  0  0  0  0  0  0  0  0
   37.6180   24.3790   33.0590 C   0  0  0  0  0  0  0  0  0  0  0  0
   37.4960   23.0130   32.9190 C   0  0  0  0  0  0  0  0  0  0  0  0
   36.6010   22.4740   32.0120 C   0  0  0  0  0  0  0  0  0  0  0  0
   35.8180   23.3200   31.2360 C   0  0  0  0  0  0  0  0  0  0  0  0
   35.9800   24.6780   31.4170 C   0  0  0  0  0  0  0  0  0  0  0  0
   36.8570   25.2520   32.3050 C   0  0  0  0  0  0  0  0  0  0  0  0
   39.3210   26.5720   34.7930 H   0  0  0  0  0  0  0  0  0  0  0  0
   38.0930   22.3120   33.5090 H   0  0  0  0  0  0  0  0  0  0  0  0
   36.5010   21.4000   31.8980 H   0  0  0  0  0  0  0  0  0  0  0  0
   35.1140   22.9070   30.5240 H   0  0  0  0  0  0  0  0  0  0  0  0
   35.1510   25.4940   30.5950 N   0  0  0  0  0  0  0  0  0  0  0  0
   34.6140   25.3080   29.7370 H   0  0  0  0  0  0  0  0  0  0  0  0
   35.1280   26.4640   31.0040 H   0  0  0  0  0  0  0  0  0  0  0  0
  2  3  1  0  0  0  0
  2  1  1  0  0  0  0
  3 12  1  0  0  0  0
  4  8  1  0  0  0  0
  4  3  2  0  0  0  0
  5  4  1  0  0  0  0
  6  5  2  0  0  0  0
  6  7  1  0  0  0  0
  7  2  2  0  0  0  0
  9  5  1  0  0  0  0
 10  6  1  0  0  0  0
 11 16  1  0  0  0  0
 12 11  2  0  0  0  0
 12 13  1  0  0  0  0
 13 14  2  0  0  0  0
 15 14  1  0  0  0  0
 15 19  1  0  0  0  0
 16 15  2  0  0  0  0
 17 11  1  0  0  0  0
 18 13  1  0  0  0  0
 20  7  1  0  0  0  0
 20 21  1  0  0  0  0
 21 22  1  0  0  0  0
 22 23  2  0  0  0  0
 23 31  1  0  0  0  0
 24 23  1  0  0  0  0
 25 24  2  0  0  0  0
 26 25  1  0  0  0  0
 26 32  1  0  0  0  0
 27 26  2  0  0  0  0
 28 29  2  0  0  0  0
 28 27  1  0  0  0  0
 29 30  1  0  0  0  0
 30 21  2  0  0  0  0
 30 25  1  0  0  0  0
 33 27  1  0  0  0  0
 34 28  1  0  0  0  0
 35 37  1  0  0  0  0
 35 29  1  0  0  0  0
 36 35  1  0  0  0  0
M  END
>  <minimizedAffinity>
-5.96137238

$$$$

 OpenBabel03262521413D

 37 40  0  0  0  0  0  0  0  0999 V2000
   37.7180   22.9230   33.6470 F   0  0  0  0  0  0  0  0  0  0  0  0
   37.0950   23.8140   32.8140 C   0  0  0  0  0  0  0  0  0  0  0  0
   36.3020   23.3730   31.7670 C   0  0  0  0  0  0  0  0  0  0  0  0
   35.6880   24.3200   30.9460 C   0  0  0  0  0  0  0  0  0  0  0  0
   35.8630   25.6830   31.1650 C   0  0  0  0  0  0  0  0  0  0  0  0
   36.6640   26.0480   32.2220 C   0  0  0  0  0  0  0  0  0  0  0  0
   37.2860   25.1460   33.0560 C   0  0  0  0  0  0  0  0  0  0  0  0
   35.0680   23.9750   30.1270 H   0  0  0  0  0  0  0  0  0  0  0  0
   35.3680   26.3890   30.5030 H   0  0  0  0  0  0  0  0  0  0  0  0
   36.7650   27.1160   32.3490 H   0  0  0  0  0  0  0  0  0  0  0  0
   35.0630   21.4120   32.2270 C   0  0  0  0  0  0  0  0  0  0  0  0
   36.1620   21.9640   31.5950 C   0  0  0  0  0  0  0  0  0  0  0  0
   37.0000   21.1050   30.8700 C   0  0  0  0  0  0  0  0  0  0  0  0
   36.6820   19.7780   30.8320 N   0  0  0  0  0  0  0  0  0  0  0  0
   35.6110   19.2900   31.4570 C   0  0  0  0  0  0  0  0  0  0  0  0
   34.7840   20.0830   32.1610 N   0  0  0  0  0  0  0  0  0  0  0  0
   34.3430   21.9760   32.8160 H   0  0  0  0  0  0  0  0  0  0  0  0
   37.8280   21.5910   30.4080 H   0  0  0  0  0  0  0  0  0  0  0  0
   35.5400   18.2160   31.3000 H   0  0  0  0  0  0  0  0  0  0  0  0
   38.3170   25.6800   34.4170 S   0  0  0  0  0  0  0  0  0  0  0  0
   39.9040   24.9090   34.3910 C   0  0  0  0  0  0  0  0  0  0  0  0
   40.8750   25.0710   33.4560 N   0  0  0  0  0  0  0  0  0  0  0  0
   42.0380   24.4250   33.5590 C   0  0  0  0  0  0  0  0  0  0  0  0
   42.3250   23.5870   34.5680 N   0  0  0  0  0  0  0  0  0  0  0  0
   41.4090   23.3830   35.5260 C   0  0  0  0  0  0  0  0  0  0  0  0
   41.6880   22.5260   36.5690 C   0  0  0  0  0  0  0  0  0  0  0  0
   40.7540   22.3010   37.5660 C   0  0  0  0  0  0  0  0  0  0  0  0
   39.5250   22.9470   37.5120 C   0  0  0  0  0  0  0  0  0  0  0  0
   39.2990   23.7930   36.4460 C   0  0  0  0  0  0  0  0  0  0  0  0
   40.1980   24.0420   35.4380 C   0  0  0  0  0  0  0  0  0  0  0  0
   42.8130   24.5550   32.8100 H   0  0  0  0  0  0  0  0  0  0  0  0
   42.6410   21.9980   36.6500 H   0  0  0  0  0  0  0  0  0  0  0  0
   40.9680   21.6280   38.3890 H   0  0  0  0  0  0  0  0  0  0  0  0
   38.7890   22.7770   38.2880 H   0  0  0  0  0  0  0  0  0  0  0  0
   38.0230   24.4250   36.4450 N   0  0  0  0  0  0  0  0  0  0  0  0
   37.1420   24.2280   36.9390 H   0  0  0  0  0  0  0  0  0  0  0  0
   38.0580   25.2480   35.7880 H   0  0  0  0  0  0  0  0  0  0  0  0
  2  7  1  0  0  0  0
  2  1  1  0  0  0  0
  3  2  2  0  0  0  0
  4  5  2  0  0  0  0
  4  3  1  0  0  0  0
  5  6  1  0  0  0  0
  6 10  1  0  0  0  0
  6  7  2  0  0  0  0
  7 20  1  0  0  0  0
  8  4  1  0  0  0  0
  9  5  1  0  0  0  0
 11 17  1  0  0  0  0
 12  3  1  0  0  0  0
 12 11  2  0  0  0  0
 13 12  1  0  0  0  0
 14 13  2  0  0  0  0
 14 15  1  0  0  0  0
 15 16  2  0  0  0  0
 16 11  1  0  0  0  0
 18 13  1  0  0  0  0
 19 15  1  0  0  0  0
 21 20  1  0  0  0  0
 21 30  1  0  0  0  0
 22 23  1  0  0  0  0
 22 21  2  0  0  0  0
 23 24  2  0  0  0  0
 24 25  1  0  0  0  0
 25 26  1  0  0  0  0
 26 32  1  0  0  0  0
 26 27  2  0  0  0  0
 27 33  1  0  0  0  0
 28 27  1  0  0  0  0
 28 34  1  0  0  0  0
 29 28  2  0  0  0  0
 30 25  2  0  0  0  0
 30 29  1  0  0  0  0
 31 23  1  0  0  0  0
 35 29  1  0  0  0  0
 35 36  1  0  0  0  0
 37 35  1  0  0  0  0
M  END
>  <minimizedAffinity>
-5.88959837

$$$$

 OpenBabel03262521413D

 37 40  0  0  0  0  0  0  0  0999 V2000
   37.6140   23.2450   33.8970 F   0  0  0  0  0  0  0  0  0  0  0  0
   38.2210   24.4570   33.7080 C   0  0  0  0  0  0  0  0  0  0  0  0
   38.9010   25.0800   34.7430 C   0  0  0  0  0  0  0  0  0  0  0  0
   39.5050   26.3150   34.5030 C   0  0  0  0  0  0  0  0  0  0  0  0
   39.4300   26.9200   33.2510 C   0  0  0  0  0  0  0  0  0  0  0  0
   38.7390   26.2450   32.2710 C   0  0  0  0  0  0  0  0  0  0  0  0
   38.1310   25.0250   32.4680 C   0  0  0  0  0  0  0  0  0  0  0  0
   40.0350   26.8020   35.3120 H   0  0  0  0  0  0  0  0  0  0  0  0
   39.9130   27.8830   33.1030 H   0  0  0  0  0  0  0  0  0  0  0  0
   38.7130   26.7560   31.3200 H   0  0  0  0  0  0  0  0  0  0  0  0
   38.0180   24.8620   36.9260 C   0  0  0  0  0  0  0  0  0  0  0  0
   38.9420   24.4100   36.0020 C   0  0  0  0  0  0  0  0  0  0  0  0
   39.7980   23.3680   36.3870 C   0  0  0  0  0  0  0  0  0  0  0  0
   39.6690   22.8650   37.6490 N   0  0  0  0  0  0  0  0  0  0  0  0
   38.7630   23.3320   38.5080 C   0  0  0  0  0  0  0  0  0  0  0  0
   37.9240   24.3290   38.1740 N   0  0  0  0  0  0  0  0  0  0  0  0
   37.3030   25.6610   36.7420 H   0  0  0  0  0  0  0  0  0  0  0  0
   40.4860   23.0670   35.6310 H   0  0  0  0  0  0  0  0  0  0  0  0
   38.8260   22.7950   39.4520 H   0  0  0  0  0  0  0  0  0  0  0  0
   37.2460   24.1940   31.1550 S   0  0  0  0  0  0  0  0  0  0  0  0
   37.8430   22.5550   30.8860 C   0  0  0  0  0  0  0  0  0  0  0  0
   39.0670   22.1980   30.4190 N   0  0  0  0  0  0  0  0  0  0  0  0
   39.3920   20.9130   30.2650 C   0  0  0  0  0  0  0  0  0  0  0  0
   38.5530   19.9050   30.5510 N   0  0  0  0  0  0  0  0  0  0  0  0
   37.3280   20.1890   31.0170 C   0  0  0  0  0  0  0  0  0  0  0  0
   36.4550   19.1650   31.3170 C   0  0  0  0  0  0  0  0  0  0  0  0
   35.1860   19.4380   31.7970 C   0  0  0  0  0  0  0  0  0  0  0  0
   34.7910   20.7580   31.9780 C   0  0  0  0  0  0  0  0  0  0  0  0
   35.7050   21.7430   31.6640 C   0  0  0  0  0  0  0  0  0  0  0  0
   36.9720   21.5130   31.1840 C   0  0  0  0  0  0  0  0  0  0  0  0
   40.3700   20.6300   29.8910 H   0  0  0  0  0  0  0  0  0  0  0  0
   36.7240   18.1140   31.1880 H   0  0  0  0  0  0  0  0  0  0  0  0
   34.4950   18.6370   32.0340 H   0  0  0  0  0  0  0  0  0  0  0  0
   33.8000   20.9810   32.3540 H   0  0  0  0  0  0  0  0  0  0  0  0
   35.2440   23.0740   31.8700 N   0  0  0  0  0  0  0  0  0  0  0  0
   34.3070   23.4810   31.9920 H   0  0  0  0  0  0  0  0  0  0  0  0
   36.0780   23.7170   31.8910 H   0  0  0  0  0  0  0  0  0  0  0  0
  2  1  1  0  0  0  0
  2  3  1  0  0  0  0
  3 12  1  0  0  0  0
  4  3  2  0  0  0  0
  4  8  1  0  0  0  0
  5  4  1  0  0  0  0
  6  7  1  0  0  0  0
  6  5  2  0  0  0  0
  7  2  2  0  0  0  0
  9  5  1  0  0  0  0
 10  6  1  0  0  0  0
 11 16  1  0  0  0  0
 12 13  1  0  0  0  0
 12 11  2  0  0  0  0
 13 14  2  0  0  0  0
 14 15  1  0  0  0  0
 15 19  1  0  0  0  0
 16 15  2  0  0  0  0
 17 11  1  0  0  0  0
 18 13  1  0  0  0  0
 20  7  1  0  0  0  0
 21 20  1  0  0  0  0
 21 30  1  0  0  0  0
 22 21  2  0  0  0  0
 23 22  1  0  0  0  0
 23 24  2  0  0  0  0
 24 25  1  0  0  0  0
 25 30  2  0  0  0  0
 25 26  1  0  0  0  0
 26 27  2  0  0  0  0
 27 28  1  0  0  0  0
 27 33  1  0  0  0  0
 28 34  1  0  0  0  0
 29 35  1  0  0  0  0
 29 28  2  0  0  0  0
 30 29  1  0  0  0  0
 31 23  1  0  0  0  0
 32 26  1  0  0  0  0
 35 37  1  0  0  0  0
 35 36  1  0  0  0  0
M  END
>  <minimizedAffinity>
-5.83344746

$$$$

 OpenBabel03262521413D

 37 40  0  0  0  0  0  0  0  0999 V2000
   39.0680   25.2330   34.3980 F   0  0  0  0  0  0  0  0  0  0  0  0
   38.3960   24.1580   33.8810 C   0  0  0  0  0  0  0  0  0  0  0  0
   38.1000   23.0600   34.6720 C   0  0  0  0  0  0  0  0  0  0  0  0
   37.4120   21.9870   34.1010 C   0  0  0  0  0  0  0  0  0  0  0  0
   37.0290   22.0110   32.7630 C   0  0  0  0  0  0  0  0  0  0  0  0
   37.3570   23.1330   32.0380 C   0  0  0  0  0  0  0  0  0  0  0  0
   38.0330   24.2110   32.5650 C   0  0  0  0  0  0  0  0  0  0  0  0
   37.1810   21.1280   34.7180 H   0  0  0  0  0  0  0  0  0  0  0  0
   36.4960   21.1560   32.3540 H   0  0  0  0  0  0  0  0  0  0  0  0
   37.0360   23.1010   31.0070 H   0  0  0  0  0  0  0  0  0  0  0  0
   37.6030   23.6560   36.9050 C   0  0  0  0  0  0  0  0  0  0  0  0
   38.5190   23.0960   36.0350 C   0  0  0  0  0  0  0  0  0  0  0  0
   39.7310   22.6330   36.5670 C   0  0  0  0  0  0  0  0  0  0  0  0
   39.9340   22.7650   37.9110 N   0  0  0  0  0  0  0  0  0  0  0  0
   39.0210   23.3120   38.7130 C   0  0  0  0  0  0  0  0  0  0  0  0
   37.8470   23.7660   38.2390 N   0  0  0  0  0  0  0  0  0  0  0  0
   36.6320   24.0480   36.6100 H   0  0  0  0  0  0  0  0  0  0  0  0
   40.3930   22.2140   35.8450 H   0  0  0  0  0  0  0  0  0  0  0  0
   39.3790   23.3190   39.7410 H   0  0  0  0  0  0  0  0  0  0  0  0
   38.4320   25.6450   31.5730 S   0  0  0  0  0  0  0  0  0  0  0  0
   37.4960   27.0640   32.0510 C   0  0  0  0  0  0  0  0  0  0  0  0
   36.8640   27.2630   33.2360 N   0  0  0  0  0  0  0  0  0  0  0  0
   36.1900   28.3910   33.4690 C   0  0  0  0  0  0  0  0  0  0  0  0
   36.0890   29.3850   32.5720 N   0  0  0  0  0  0  0  0  0  0  0  0
   36.6910   29.2510   31.3810 C   0  0  0  0  0  0  0  0  0  0  0  0
   36.5980   30.2620   30.4490 C   0  0  0  0  0  0  0  0  0  0  0  0
   37.2110   30.1420   29.2150 C   0  0  0  0  0  0  0  0  0  0  0  0
   37.9280   28.9900   28.9140 C   0  0  0  0  0  0  0  0  0  0  0  0
   37.9890   28.0110   29.8840 C   0  0  0  0  0  0  0  0  0  0  0  0
   37.3940   28.0910   31.1190 C   0  0  0  0  0  0  0  0  0  0  0  0
   35.6840   28.5480   34.4160 H   0  0  0  0  0  0  0  0  0  0  0  0
   36.0430   31.1840   30.6440 H   0  0  0  0  0  0  0  0  0  0  0  0
   37.1400   30.9350   28.4770 H   0  0  0  0  0  0  0  0  0  0  0  0
   38.4110   28.8880   27.9510 H   0  0  0  0  0  0  0  0  0  0  0  0
   38.7370   26.8550   29.5190 N   0  0  0  0  0  0  0  0  0  0  0  0
   39.0600   26.4850   28.6150 H   0  0  0  0  0  0  0  0  0  0  0  0
   38.9720   26.3200   30.3950 H   0  0  0  0  0  0  0  0  0  0  0  0
  2  1  1  0  0  0  0
  2  3  1  0  0  0  0
  3 12  1  0  0  0  0
  4  3  2  0  0  0  0
  4  8  1  0  0  0  0
  5  4  1  0  0  0  0
  6  7  1  0  0  0  0
  6  5  2  0  0  0  0
  7  2  2  0  0  0  0
  9  5  1  0  0  0  0
 10  6  1  0  0  0  0
 11 16  1  0  0  0  0
 12 13  1  0  0  0  0
 12 11  2  0  0  0  0
 13 14  2  0  0  0  0
 14 15  1  0  0  0  0
 15 19  1  0  0  0  0
 16 15  2  0  0  0  0
 17 11  1  0  0  0  0
 18 13  1  0  0  0  0
 20 21  1  0  0  0  0
 20  7  1  0  0  0  0
 21 22  1  0  0  0  0
 22 23  2  0  0  0  0
 23 31  1  0  0  0  0
 24 23  1  0  0  0  0
 25 24  2  0  0  0  0
 26 32  1  0  0  0  0
 26 25  1  0  0  0  0
 27 26  2  0  0  0  0
 28 27  1  0  0  0  0
 28 29  2  0  0  0  0
 29 30  1  0  0  0  0
 30 25  1  0  0  0  0
 30 21  2  0  0  0  0
 33 27  1  0  0  0  0
 34 28  1  0  0  0  0
 35 29  1  0  0  0  0
 35 37  1  0  0  0  0
 36 35  1  0  0  0  0
M  END
>  <minimizedAffinity>
-5.83102846

$$$$
