
 OpenBabel03272505043D

 39 41  0  0  1  0  0  0  0  0999 V2000
   39.0930   23.1380   35.2380 O   0  0  0  0  0  0  0  0  0  0  0  0
   38.7260   22.4660   36.3730 C   0  0  2  0  0  0  0  0  0  0  0  0
   37.3450   23.1120   36.7510 C   0  0  0  0  0  0  0  0  0  0  0  0
   37.6150   24.5350   37.1940 C   0  0  0  0  0  0  0  0  0  0  0  0
   38.1480   24.4830   38.5920 C   0  0  0  0  0  0  0  0  0  0  0  0
   38.8920   23.1970   38.7730 C   0  0  0  0  0  0  0  0  0  0  0  0
   39.6470   22.8460   37.4990 C   0  0  1  0  0  0  0  0  0  0  0  0
   38.5340   21.3760   36.2640 H   0  0  0  0  0  0  0  0  0  0  0  0
   36.9690   22.4730   37.5620 H   0  0  0  0  0  0  0  0  0  0  0  0
   36.6800   23.0420   35.8830 H   0  0  0  0  0  0  0  0  0  0  0  0
   38.5760   24.8490   36.6730 H   0  0  0  0  0  0  0  0  0  0  0  0
   36.7900   25.2290   37.0320 H   0  0  0  0  0  0  0  0  0  0  0  0
   37.2780   24.4790   39.3050 H   0  0  0  0  0  0  0  0  0  0  0  0
   38.7480   25.3740   38.8640 H   0  0  0  0  0  0  0  0  0  0  0  0
   39.6810   23.3590   39.5450 H   0  0  0  0  0  0  0  0  0  0  0  0
   38.2680   22.3530   39.1320 H   0  0  0  0  0  0  0  0  0  0  0  0
   40.2620   23.7470   37.2500 H   0  0  0  0  0  0  0  0  0  0  0  0
   40.6150   21.7880   37.7810 N   0  0  0  0  0  0  0  0  0  0  0  0
   41.5560   22.2030   37.9790 H   0  0  0  0  0  0  0  0  0  0  0  0
   40.3150   21.1800   38.5680 H   0  0  0  0  0  0  0  0  0  0  0  0
   38.8690   25.8190   34.1440 Cl  0  0  0  0  0  0  0  0  0  0  0  0
   38.2530   24.3790   33.3700 C   0  0  0  0  0  0  0  0  0  0  0  0
   37.6180   24.5100   32.1660 C   0  0  0  0  0  0  0  0  0  0  0  0
   37.1490   23.3460   31.5990 C   0  0  0  0  0  0  0  0  0  0  0  0
   37.3280   22.1350   32.2410 C   0  0  0  0  0  0  0  0  0  0  0  0
   37.9700   22.0460   33.4450 C   0  0  0  0  0  0  0  0  0  0  0  0
   38.4390   23.1890   34.0190 C   0  0  0  0  0  0  0  0  0  0  0  0
   36.6260   23.3300   30.6390 H   0  0  0  0  0  0  0  0  0  0  0  0
   36.9540   21.2080   31.7890 H   0  0  0  0  0  0  0  0  0  0  0  0
   38.1060   21.1020   33.9370 H   0  0  0  0  0  0  0  0  0  0  0  0
   36.2500   26.5360   31.6420 C   0  0  0  0  0  0  0  0  0  0  0  0
   37.4220   25.7940   31.4740 C   0  0  0  0  0  0  0  0  0  0  0  0
   38.3970   26.3090   30.6290 C   0  0  0  0  0  0  0  0  0  0  0  0
   38.1570   27.4970   30.0200 N   0  0  0  0  0  0  0  0  0  0  0  0
   37.0280   28.1790   30.2020 C   0  0  0  0  0  0  0  0  0  0  0  0
   36.0590   27.7110   31.0140 N   0  0  0  0  0  0  0  0  0  0  0  0
   35.4740   26.1650   32.2900 H   0  0  0  0  0  0  0  0  0  0  0  0
   39.3200   25.7750   30.4660 H   0  0  0  0  0  0  0  0  0  0  0  0
   36.7950   29.1320   29.7350 H   0  0  0  0  0  0  0  0  0  0  0  0
  1  2  1  0  0  0  0
  2  8  1  6  0  0  0
  2  3  1  0  0  0  0
  2  7  1  0  0  0  0
  3  4  1  0  0  0  0
  3  9  1  0  0  0  0
  4  5  1  0  0  0  0
  5  6  1  0  0  0  0
  5 14  1  0  0  0  0
  5 13  1  0  0  0  0
  6 16  1  0  0  0  0
  6 15  1  0  0  0  0
  7 17  1  6  0  0  0
  7 18  1  0  0  0  0
  7  6  1  0  0  0  0
 10  3  1  0  0  0  0
 11  4  1  0  0  0  0
 12  4  1  0  0  0  0
 18 19  1  0  0  0  0
 18 20  1  0  0  0  0
 22 27  1  0  0  0  0
 22 21  1  0  0  0  0
 23 22  2  0  0  0  0
 24 23  1  0  0  0  0
 24 25  2  0  0  0  0
 25 26  1  0  0  0  0
 26 30  1  0  0  0  0
 26 27  2  0  0  0  0
 27  1  1  0  0  0  0
 28 24  1  0  0  0  0
 29 25  1  0  0  0  0
 31 37  1  0  0  0  0
 32 31  1  0  0  0  0
 32 23  1  0  0  0  0
 33 32  2  0  0  0  0
 34 35  2  0  0  0  0
 34 33  1  0  0  0  0
 35 36  1  0  0  0  0
 36 31  2  0  0  0  0
 38 33  1  0  0  0  0
 39 35  1  0  0  0  0
M  END
>  <minimizedAffinity>
-5.34972143

$$$$

 OpenBabel03272505043D

 39 41  0  0  1  0  0  0  0  0999 V2000
   38.4440   23.9890   33.7470 O   0  0  0  0  0  0  0  0  0  0  0  0
   38.3570   23.8790   35.1090 C   0  0  2  0  0  0  0  0  0  0  0  0
   39.5790   24.7210   35.6230 C   0  0  0  0  0  0  0  0  0  0  0  0
   40.8400   23.9750   35.2370 C   0  0  0  0  0  0  0  0  0  0  0  0
   41.0140   22.8450   36.2040 C   0  0  0  0  0  0  0  0  0  0  0  0
   39.6630   22.3990   36.6670 C   0  0  0  0  0  0  0  0  0  0  0  0
   38.6680   22.4660   35.5160 C   0  0  1  0  0  0  0  0  0  0  0  0
   37.4570   24.3240   35.5870 H   0  0  0  0  0  0  0  0  0  0  0  0
   39.4250   24.7720   36.7100 H   0  0  0  0  0  0  0  0  0  0  0  0
   39.5160   25.7260   35.1900 H   0  0  0  0  0  0  0  0  0  0  0  0
   40.5710   23.3560   34.3220 H   0  0  0  0  0  0  0  0  0  0  0  0
   41.7170   24.6050   35.0890 H   0  0  0  0  0  0  0  0  0  0  0  0
   41.5750   23.2270   37.1010 H   0  0  0  0  0  0  0  0  0  0  0  0
   41.6310   22.0170   35.8010 H   0  0  0  0  0  0  0  0  0  0  0  0
   39.7280   21.3170   36.9340 H   0  0  0  0  0  0  0  0  0  0  0  0
   39.2900   22.9250   37.5690 H   0  0  0  0  0  0  0  0  0  0  0  0
   39.1270   21.8800   34.6810 H   0  0  0  0  0  0  0  0  0  0  0  0
   37.4560   21.7320   35.8770 N   0  0  0  0  0  0  0  0  0  0  0  0
   37.5030   20.7530   35.5070 H   0  0  0  0  0  0  0  0  0  0  0  0
   37.2910   21.7240   36.9020 H   0  0  0  0  0  0  0  0  0  0  0  0
   38.2940   26.8670   33.3860 Cl  0  0  0  0  0  0  0  0  0  0  0  0
   37.2680   25.7120   32.5690 C   0  0  0  0  0  0  0  0  0  0  0  0
   36.3240   26.1820   31.6990 C   0  0  0  0  0  0  0  0  0  0  0  0
   35.5410   25.2320   31.0850 C   0  0  0  0  0  0  0  0  0  0  0  0
   35.7270   23.8900   31.3570 C   0  0  0  0  0  0  0  0  0  0  0  0
   36.6830   23.4600   32.2350 C   0  0  0  0  0  0  0  0  0  0  0  0
   37.4670   24.3880   32.8520 C   0  0  0  0  0  0  0  0  0  0  0  0
   34.7550   25.4920   30.3710 H   0  0  0  0  0  0  0  0  0  0  0  0
   35.1020   23.1330   30.8680 H   0  0  0  0  0  0  0  0  0  0  0  0
   36.8220   22.4160   32.4410 H   0  0  0  0  0  0  0  0  0  0  0  0
   35.2670   28.3960   32.1810 C   0  0  0  0  0  0  0  0  0  0  0  0
   36.1180   27.6090   31.4010 C   0  0  0  0  0  0  0  0  0  0  0  0
   36.7630   28.2190   30.3330 C   0  0  0  0  0  0  0  0  0  0  0  0
   36.5310   29.5360   30.1100 N   0  0  0  0  0  0  0  0  0  0  0  0
   35.7120   30.2580   30.8730 C   0  0  0  0  0  0  0  0  0  0  0  0
   35.0690   29.7010   31.9190 N   0  0  0  0  0  0  0  0  0  0  0  0
   34.7510   27.9550   33.0170 H   0  0  0  0  0  0  0  0  0  0  0  0
   37.4300   27.6550   29.7010 H   0  0  0  0  0  0  0  0  0  0  0  0
   35.4980   31.3140   30.7290 H   0  0  0  0  0  0  0  0  0  0  0  0
  1  2  1  0  0  0  0
  2  7  1  0  0  0  0
  2  8  1  1  0  0  0
  2  3  1  0  0  0  0
  3  9  1  0  0  0  0
  4  3  1  0  0  0  0
  4  5  1  0  0  0  0
  5  6  1  0  0  0  0
  5 13  1  0  0  0  0
  6 15  1  0  0  0  0
  6 16  1  0  0  0  0
  7 17  1  6  0  0  0
  7 18  1  0  0  0  0
  7  6  1  0  0  0  0
 10  3  1  0  0  0  0
 11  4  1  0  0  0  0
 12  4  1  0  0  0  0
 14  5  1  0  0  0  0
 18 20  1  0  0  0  0
 19 18  1  0  0  0  0
 22 27  1  0  0  0  0
 22 21  1  0  0  0  0
 23 22  2  0  0  0  0
 24 25  2  0  0  0  0
 24 23  1  0  0  0  0
 25 26  1  0  0  0  0
 26 30  1  0  0  0  0
 26 27  2  0  0  0  0
 27  1  1  0  0  0  0
 28 24  1  0  0  0  0
 29 25  1  0  0  0  0
 31 37  1  0  0  0  0
 32 23  1  0  0  0  0
 32 31  2  0  0  0  0
 33 32  1  0  0  0  0
 34 33  2  0  0  0  0
 34 35  1  0  0  0  0
 35 36  2  0  0  0  0
 36 31  1  0  0  0  0
 38 33  1  0  0  0  0
 39 35  1  0  0  0  0
M  END
>  <minimizedAffinity>
-5.2663393

$$$$

 OpenBabel03272505043D

 39 41  0  0  1  0  0  0  0  0999 V2000
   36.6190   22.4500   32.6430 O   0  0  0  0  0  0  0  0  0  0  0  0
   36.8990   21.2130   33.1590 C   0  0  2  0  0  0  0  0  0  0  0  0
   37.3150   20.3770   31.8960 C   0  0  0  0  0  0  0  0  0  0  0  0
   36.0760   20.1890   31.0460 C   0  0  0  0  0  0  0  0  0  0  0  0
   35.2490   19.1120   31.6780 C   0  0  0  0  0  0  0  0  0  0  0  0
   35.4820   19.1360   33.1560 C   0  0  0  0  0  0  0  0  0  0  0  0
   35.6270   20.5730   33.6390 C   0  0  1  0  0  0  0  0  0  0  0  0
   37.7570   21.1510   33.8630 H   0  0  0  0  0  0  0  0  0  0  0  0
   37.6950   19.4350   32.3170 H   0  0  0  0  0  0  0  0  0  0  0  0
   38.1240   20.9060   31.3800 H   0  0  0  0  0  0  0  0  0  0  0  0
   35.3950   21.0680   31.2850 H   0  0  0  0  0  0  0  0  0  0  0  0
   36.2660   20.0690   29.9790 H   0  0  0  0  0  0  0  0  0  0  0  0
   35.6040   18.1180   31.2910 H   0  0  0  0  0  0  0  0  0  0  0  0
   34.1760   19.1690   31.4050 H   0  0  0  0  0  0  0  0  0  0  0  0
   34.5620   18.7510   33.6570 H   0  0  0  0  0  0  0  0  0  0  0  0
   36.3200   18.4960   33.4990 H   0  0  0  0  0  0  0  0  0  0  0  0
   34.7200   21.1130   33.2680 H   0  0  0  0  0  0  0  0  0  0  0  0
   35.5240   20.6090   35.0970 N   0  0  0  0  0  0  0  0  0  0  0  0
   34.5420   20.8290   35.3840 H   0  0  0  0  0  0  0  0  0  0  0  0
   35.8400   19.7230   35.5360 H   0  0  0  0  0  0  0  0  0  0  0  0
   35.4000   24.7280   31.3160 Cl  0  0  0  0  0  0  0  0  0  0  0  0
   36.8430   24.8090   32.2970 C   0  0  0  0  0  0  0  0  0  0  0  0
   37.4520   26.0240   32.4580 C   0  0  0  0  0  0  0  0  0  0  0  0
   38.5860   26.0330   33.2370 C   0  0  0  0  0  0  0  0  0  0  0  0
   39.0520   24.8640   33.8070 C   0  0  0  0  0  0  0  0  0  0  0  0
   38.4150   23.6690   33.6230 C   0  0  0  0  0  0  0  0  0  0  0  0
   37.2910   23.6420   32.8530 C   0  0  0  0  0  0  0  0  0  0  0  0
   39.1550   26.9460   33.4350 H   0  0  0  0  0  0  0  0  0  0  0  0
   39.9570   24.8730   34.4280 H   0  0  0  0  0  0  0  0  0  0  0  0
   38.7820   22.7650   34.0690 H   0  0  0  0  0  0  0  0  0  0  0  0
   37.3080   27.6330   30.5500 C   0  0  0  0  0  0  0  0  0  0  0  0
   36.9630   27.2750   31.8560 C   0  0  0  0  0  0  0  0  0  0  0  0
   36.1440   28.1410   32.5680 C   0  0  0  0  0  0  0  0  0  0  0  0
   35.7280   29.2780   31.9590 N   0  0  0  0  0  0  0  0  0  0  0  0
   36.0760   29.5900   30.7120 C   0  0  0  0  0  0  0  0  0  0  0  0
   36.8690   28.7750   29.9890 N   0  0  0  0  0  0  0  0  0  0  0  0
   37.9410   26.9840   29.9700 H   0  0  0  0  0  0  0  0  0  0  0  0
   35.8490   27.9100   33.5790 H   0  0  0  0  0  0  0  0  0  0  0  0
   35.7650   30.4900   30.1870 H   0  0  0  0  0  0  0  0  0  0  0  0
  1 27  1  0  0  0  0
  1  2  1  0  0  0  0
  2  7  1  0  0  0  0
  2  8  1  1  0  0  0
  3  9  1  0  0  0  0
  3  2  1  0  0  0  0
  4 11  1  0  0  0  0
  4  5  1  0  0  0  0
  4  3  1  0  0  0  0
  5  6  1  0  0  0  0
  6 16  1  0  0  0  0
  6  7  1  0  0  0  0
  6 15  1  0  0  0  0
  7 17  1  6  0  0  0
  7 18  1  0  0  0  0
 10  3  1  0  0  0  0
 12  4  1  0  0  0  0
 13  5  1  0  0  0  0
 14  5  1  0  0  0  0
 18 19  1  0  0  0  0
 18 20  1  0  0  0  0
 21 22  1  0  0  0  0
 22 23  2  0  0  0  0
 22 27  1  0  0  0  0
 23 24  1  0  0  0  0
 24 28  1  0  0  0  0
 24 25  2  0  0  0  0
 25 29  1  0  0  0  0
 26 25  1  0  0  0  0
 26 30  1  0  0  0  0
 27 26  2  0  0  0  0
 31 32  1  0  0  0  0
 32 23  1  0  0  0  0
 32 33  2  0  0  0  0
 33 38  1  0  0  0  0
 34 33  1  0  0  0  0
 35 34  2  0  0  0  0
 36 31  2  0  0  0  0
 36 35  1  0  0  0  0
 37 31  1  0  0  0  0
 39 35  1  0  0  0  0
M  END
>  <minimizedAffinity>
-5.220469

$$$$

 OpenBabel03272505043D

 39 41  0  0  1  0  0  0  0  0999 V2000
   38.4750   24.4340   34.9380 O   0  0  0  0  0  0  0  0  0  0  0  0
   38.8000   23.2200   35.4830 C   0  0  2  0  0  0  0  0  0  0  0  0
   37.6450   22.9620   36.5150 C   0  0  0  0  0  0  0  0  0  0  0  0
   37.8070   23.9650   37.6390 C   0  0  0  0  0  0  0  0  0  0  0  0
   38.9150   23.4820   38.5230 C   0  0  0  0  0  0  0  0  0  0  0  0
   39.8920   22.7130   37.6900 C   0  0  0  0  0  0  0  0  0  0  0  0
   40.0380   23.3640   36.3220 C   0  0  1  0  0  0  0  0  0  0  0  0
   38.7930   22.3490   34.7920 H   0  0  0  0  0  0  0  0  0  0  0  0
   37.8080   21.9240   36.8380 H   0  0  0  0  0  0  0  0  0  0  0  0
   36.6860   23.0430   35.9920 H   0  0  0  0  0  0  0  0  0  0  0  0
   38.3470   24.8580   37.1880 H   0  0  0  0  0  0  0  0  0  0  0  0
   36.8830   24.2330   38.1500 H   0  0  0  0  0  0  0  0  0  0  0  0
   38.4820   22.7750   39.2830 H   0  0  0  0  0  0  0  0  0  0  0  0
   39.3900   24.2930   39.1110 H   0  0  0  0  0  0  0  0  0  0  0  0
   40.8980   22.8010   38.1650 H   0  0  0  0  0  0  0  0  0  0  0  0
   39.6740   21.6280   37.6120 H   0  0  0  0  0  0  0  0  0  0  0  0
   40.2880   24.4370   36.5200 H   0  0  0  0  0  0  0  0  0  0  0  0
   41.2130   22.8170   35.6450 N   0  0  0  0  0  0  0  0  0  0  0  0
   42.0420   23.4380   35.8010 H   0  0  0  0  0  0  0  0  0  0  0  0
   41.4250   21.8470   35.9480 H   0  0  0  0  0  0  0  0  0  0  0  0
   37.9590   27.2550   34.4800 Cl  0  0  0  0  0  0  0  0  0  0  0  0
   37.5320   25.9770   33.3680 C   0  0  0  0  0  0  0  0  0  0  0  0
   36.9100   26.3150   32.1990 C   0  0  0  0  0  0  0  0  0  0  0  0
   36.5920   25.2720   31.3590 C   0  0  0  0  0  0  0  0  0  0  0  0
   36.9000   23.9720   31.7120 C   0  0  0  0  0  0  0  0  0  0  0  0
   37.5240   23.6750   32.8920 C   0  0  0  0  0  0  0  0  0  0  0  0
   37.8440   24.6960   33.7350 C   0  0  0  0  0  0  0  0  0  0  0  0
   36.0930   25.4230   30.3980 H   0  0  0  0  0  0  0  0  0  0  0  0
   36.6460   23.1400   31.0430 H   0  0  0  0  0  0  0  0  0  0  0  0
   37.7610   22.6630   33.1600 H   0  0  0  0  0  0  0  0  0  0  0  0
   37.4500   28.4580   31.0310 C   0  0  0  0  0  0  0  0  0  0  0  0
   36.5780   27.6960   31.8120 C   0  0  0  0  0  0  0  0  0  0  0  0
   35.3860   28.2860   32.2130 C   0  0  0  0  0  0  0  0  0  0  0  0
   35.1390   29.5610   31.8260 N   0  0  0  0  0  0  0  0  0  0  0  0
   35.9920   30.2610   31.0800 C   0  0  0  0  0  0  0  0  0  0  0  0
   37.1580   29.7220   30.6710 N   0  0  0  0  0  0  0  0  0  0  0  0
   38.3820   28.0310   30.7020 H   0  0  0  0  0  0  0  0  0  0  0  0
   34.6800   27.7390   32.8170 H   0  0  0  0  0  0  0  0  0  0  0  0
   35.8330   31.2840   30.7480 H   0  0  0  0  0  0  0  0  0  0  0  0
  1  2  1  0  0  0  0
  2  8  1  6  0  0  0
  2  7  1  0  0  0  0
  2  3  1  0  0  0  0
  3  9  1  0  0  0  0
  3  4  1  0  0  0  0
  4 12  1  0  0  0  0
  4  5  1  0  0  0  0
  5 14  1  0  0  0  0
  5 13  1  0  0  0  0
  6 15  1  0  0  0  0
  6  5  1  0  0  0  0
  7 17  1  1  0  0  0
  7  6  1  0  0  0  0
 10  3  1  0  0  0  0
 11  4  1  0  0  0  0
 16  6  1  0  0  0  0
 18 19  1  0  0  0  0
 18 20  1  0  0  0  0
 18  7  1  0  0  0  0
 22 27  1  0  0  0  0
 22 21  1  0  0  0  0
 23 22  2  0  0  0  0
 24 25  2  0  0  0  0
 24 23  1  0  0  0  0
 25 26  1  0  0  0  0
 26 30  1  0  0  0  0
 26 27  2  0  0  0  0
 27  1  1  0  0  0  0
 28 24  1  0  0  0  0
 29 25  1  0  0  0  0
 31 32  1  0  0  0  0
 32 23  1  0  0  0  0
 32 33  2  0  0  0  0
 33 38  1  0  0  0  0
 34 33  1  0  0  0  0
 35 34  2  0  0  0  0
 36 31  2  0  0  0  0
 36 35  1  0  0  0  0
 37 31  1  0  0  0  0
 39 35  1  0  0  0  0
M  END
>  <minimizedAffinity>
-5.17571688

$$$$

 OpenBabel03272505043D

 39 41  0  0  1  0  0  0  0  0999 V2000
   38.3880   25.9140   31.9840 O   0  0  0  0  0  0  0  0  0  0  0  0
   38.5650   26.9780   32.8270 C   0  0  2  0  0  0  0  0  0  0  0  0
   40.1130   27.2330   32.7730 C   0  0  0  0  0  0  0  0  0  0  0  0
   40.7910   26.0620   33.4540 C   0  0  0  0  0  0  0  0  0  0  0  0
   40.6550   26.2550   34.9330 C   0  0  0  0  0  0  0  0  0  0  0  0
   39.3860   27.0000   35.2030 C   0  0  0  0  0  0  0  0  0  0  0  0
   38.2970   26.5450   34.2410 C   0  0  1  0  0  0  0  0  0  0  0  0
   38.0860   27.9350   32.5250 H   0  0  0  0  0  0  0  0  0  0  0  0
   40.2430   28.1800   33.3160 H   0  0  0  0  0  0  0  0  0  0  0  0
   40.4080   27.3610   31.7260 H   0  0  0  0  0  0  0  0  0  0  0  0
   40.0800   25.1810   33.3460 H   0  0  0  0  0  0  0  0  0  0  0  0
   41.8000   25.8480   33.1000 H   0  0  0  0  0  0  0  0  0  0  0  0
   41.5100   26.8920   35.2890 H   0  0  0  0  0  0  0  0  0  0  0  0
   40.7330   25.3080   35.5050 H   0  0  0  0  0  0  0  0  0  0  0  0
   39.0210   26.7070   36.2160 H   0  0  0  0  0  0  0  0  0  0  0  0
   39.4950   28.1040   35.2140 H   0  0  0  0  0  0  0  0  0  0  0  0
   38.2510   25.4320   34.3370 H   0  0  0  0  0  0  0  0  0  0  0  0
   36.9990   27.0240   34.7130 N   0  0  0  0  0  0  0  0  0  0  0  0
   36.5230   26.2810   35.2770 H   0  0  0  0  0  0  0  0  0  0  0  0
   37.0790   27.9010   35.2630 H   0  0  0  0  0  0  0  0  0  0  0  0
   38.5580   23.0690   32.5450 Cl  0  0  0  0  0  0  0  0  0  0  0  0
   37.1390   23.8710   31.9170 C   0  0  0  0  0  0  0  0  0  0  0  0
   36.0250   23.1180   31.6660 C   0  0  0  0  0  0  0  0  0  0  0  0
   34.9350   23.7970   31.1700 C   0  0  0  0  0  0  0  0  0  0  0  0
   35.0010   25.1600   30.9510 C   0  0  0  0  0  0  0  0  0  0  0  0
   36.1350   25.8780   31.2150 C   0  0  0  0  0  0  0  0  0  0  0  0
   37.2230   25.2210   31.7060 C   0  0  0  0  0  0  0  0  0  0  0  0
   33.9920   23.2990   30.9320 H   0  0  0  0  0  0  0  0  0  0  0  0
   34.1330   25.7000   30.5550 H   0  0  0  0  0  0  0  0  0  0  0  0
   36.1790   26.9360   31.0430 H   0  0  0  0  0  0  0  0  0  0  0  0
   35.5690   21.1510   33.1390 C   0  0  0  0  0  0  0  0  0  0  0  0
   35.9440   21.6670   31.8960 C   0  0  0  0  0  0  0  0  0  0  0  0
   36.2380   20.7630   30.8830 C   0  0  0  0  0  0  0  0  0  0  0  0
   36.1450   19.4390   31.1580 N   0  0  0  0  0  0  0  0  0  0  0  0
   35.7850   18.9790   32.3560 C   0  0  0  0  0  0  0  0  0  0  0  0
   35.4920   19.8260   33.3630 N   0  0  0  0  0  0  0  0  0  0  0  0
   35.3340   21.8240   33.9460 H   0  0  0  0  0  0  0  0  0  0  0  0
   36.5310   21.1110   29.9060 H   0  0  0  0  0  0  0  0  0  0  0  0
   35.6990   17.9280   32.6180 H   0  0  0  0  0  0  0  0  0  0  0  0
  1  2  1  0  0  0  0
  2  8  1  6  0  0  0
  2  7  1  0  0  0  0
  3  2  1  0  0  0  0
  3  9  1  0  0  0  0
  3  4  1  0  0  0  0
  4  5  1  0  0  0  0
  5  6  1  0  0  0  0
  5 13  1  0  0  0  0
  5 14  1  0  0  0  0
  6 16  1  0  0  0  0
  6 15  1  0  0  0  0
  7 17  1  1  0  0  0
  7 18  1  0  0  0  0
  7  6  1  0  0  0  0
 10  3  1  0  0  0  0
 11  4  1  0  0  0  0
 12  4  1  0  0  0  0
 18 20  1  0  0  0  0
 18 19  1  0  0  0  0
 22 21  1  0  0  0  0
 23 32  1  0  0  0  0
 23 22  2  0  0  0  0
 24 23  1  0  0  0  0
 25 24  2  0  0  0  0
 25 26  1  0  0  0  0
 26 27  2  0  0  0  0
 27 22  1  0  0  0  0
 27  1  1  0  0  0  0
 28 24  1  0  0  0  0
 29 25  1  0  0  0  0
 30 26  1  0  0  0  0
 31 36  1  0  0  0  0
 31 37  1  0  0  0  0
 32 31  2  0  0  0  0
 33 34  2  0  0  0  0
 33 32  1  0  0  0  0
 34 35  1  0  0  0  0
 35 39  1  0  0  0  0
 35 36  2  0  0  0  0
 38 33  1  0  0  0  0
M  END
>  <minimizedAffinity>
-5.16758108

$$$$

 OpenBabel03272505043D

 39 41  0  0  1  0  0  0  0  0999 V2000
   37.8340   24.9060   34.8510 O   0  0  0  0  0  0  0  0  0  0  0  0
   38.3490   25.8010   33.9520 C   0  0  2  0  0  0  0  0  0  0  0  0
   38.4120   27.1420   34.7670 C   0  0  0  0  0  0  0  0  0  0  0  0
   36.9860   27.5920   35.0110 C   0  0  0  0  0  0  0  0  0  0  0  0
   36.4790   28.2060   33.7430 C   0  0  0  0  0  0  0  0  0  0  0  0
   37.1570   27.5430   32.5860 C   0  0  0  0  0  0  0  0  0  0  0  0
   37.3400   26.0580   32.8690 C   0  0  1  0  0  0  0  0  0  0  0  0
   39.3860   25.6080   33.5990 H   0  0  0  0  0  0  0  0  0  0  0  0
   38.9710   27.8230   34.1090 H   0  0  0  0  0  0  0  0  0  0  0  0
   38.9790   26.9640   35.6870 H   0  0  0  0  0  0  0  0  0  0  0  0
   36.3520   26.6490   34.9930 H   0  0  0  0  0  0  0  0  0  0  0  0
   36.8440   28.1910   35.9110 H   0  0  0  0  0  0  0  0  0  0  0  0
   36.7680   29.2930   33.7330 H   0  0  0  0  0  0  0  0  0  0  0  0
   35.3730   28.1930   33.6640 H   0  0  0  0  0  0  0  0  0  0  0  0
   36.4700   27.5900   31.7080 H   0  0  0  0  0  0  0  0  0  0  0  0
   38.1050   28.0250   32.2720 H   0  0  0  0  0  0  0  0  0  0  0  0
   36.3260   25.6710   33.1390 H   0  0  0  0  0  0  0  0  0  0  0  0
   37.6940   25.3660   31.6300 N   0  0  0  0  0  0  0  0  0  0  0  0
   36.8370   24.9650   31.1820 H   0  0  0  0  0  0  0  0  0  0  0  0
   38.1950   25.9850   30.9630 H   0  0  0  0  0  0  0  0  0  0  0  0
   40.3940   23.7460   34.1200 Cl  0  0  0  0  0  0  0  0  0  0  0  0
   39.6950   23.6750   35.7190 C   0  0  0  0  0  0  0  0  0  0  0  0
   40.3910   23.0290   36.7040 C   0  0  0  0  0  0  0  0  0  0  0  0
   39.7960   22.9980   37.9440 C   0  0  0  0  0  0  0  0  0  0  0  0
   38.5660   23.5960   38.1450 C   0  0  0  0  0  0  0  0  0  0  0  0
   37.9020   24.2330   37.1340 C   0  0  0  0  0  0  0  0  0  0  0  0
   38.4770   24.2720   35.8990 C   0  0  0  0  0  0  0  0  0  0  0  0
   40.2600   22.5100   38.8060 H   0  0  0  0  0  0  0  0  0  0  0  0
   38.0930   23.5710   39.1340 H   0  0  0  0  0  0  0  0  0  0  0  0
   36.9480   24.6960   37.2970 H   0  0  0  0  0  0  0  0  0  0  0  0
   42.8720   23.1470   36.4180 C   0  0  0  0  0  0  0  0  0  0  0  0
   41.7010   22.3890   36.5010 C   0  0  0  0  0  0  0  0  0  0  0  0
   41.8150   21.0100   36.3860 C   0  0  0  0  0  0  0  0  0  0  0  0
   43.0500   20.4810   36.2000 N   0  0  0  0  0  0  0  0  0  0  0  0
   44.1470   21.2330   36.1240 C   0  0  0  0  0  0  0  0  0  0  0  0
   44.0750   22.5750   36.2320 N   0  0  0  0  0  0  0  0  0  0  0  0
   42.8190   24.2190   36.5040 H   0  0  0  0  0  0  0  0  0  0  0  0
   40.9420   20.3800   36.4440 H   0  0  0  0  0  0  0  0  0  0  0  0
   45.1530   20.8510   35.9760 H   0  0  0  0  0  0  0  0  0  0  0  0
  1 27  1  0  0  0  0
  2  8  1  6  0  0  0
  2  3  1  0  0  0  0
  2  1  1  0  0  0  0
  3  4  1  0  0  0  0
  3 10  1  0  0  0  0
  4 12  1  0  0  0  0
  5  4  1  0  0  0  0
  6  7  1  0  0  0  0
  6  5  1  0  0  0  0
  7 17  1  1  0  0  0
  7  2  1  0  0  0  0
  9  3  1  0  0  0  0
 11  4  1  0  0  0  0
 13  5  1  0  0  0  0
 14  5  1  0  0  0  0
 15  6  1  0  0  0  0
 16  6  1  0  0  0  0
 18  7  1  0  0  0  0
 19 18  1  0  0  0  0
 20 18  1  0  0  0  0
 21 22  1  0  0  0  0
 22 27  2  0  0  0  0
 22 23  1  0  0  0  0
 23 24  2  0  0  0  0
 24 25  1  0  0  0  0
 24 28  1  0  0  0  0
 25 29  1  0  0  0  0
 26 30  1  0  0  0  0
 26 25  2  0  0  0  0
 27 26  1  0  0  0  0
 31 32  1  0  0  0  0
 31 37  1  0  0  0  0
 32 23  1  0  0  0  0
 33 38  1  0  0  0  0
 33 32  2  0  0  0  0
 34 33  1  0  0  0  0
 35 34  2  0  0  0  0
 35 36  1  0  0  0  0
 36 31  2  0  0  0  0
 39 35  1  0  0  0  0
M  END
>  <minimizedAffinity>
-5.16384983

$$$$

 OpenBabel03272505043D

 39 41  0  0  1  0  0  0  0  0999 V2000
   37.2570   26.9530   32.2450 O   0  0  0  0  0  0  0  0  0  0  0  0
   36.7180   25.7080   32.4330 C   0  0  2  0  0  0  0  0  0  0  0  0
   37.9580   24.8290   32.8270 C   0  0  0  0  0  0  0  0  0  0  0  0
   38.8380   24.7070   31.5990 C   0  0  0  0  0  0  0  0  0  0  0  0
   38.2130   23.6930   30.6920 C   0  0  0  0  0  0  0  0  0  0  0  0
   36.7300   23.7240   30.8880 C   0  0  0  0  0  0  0  0  0  0  0  0
   36.2630   25.1560   31.1110 C   0  0  1  0  0  0  0  0  0  0  0  0
   35.9910   25.6030   33.2680 H   0  0  0  0  0  0  0  0  0  0  0  0
   37.5150   23.8710   33.1360 H   0  0  0  0  0  0  0  0  0  0  0  0
   38.4610   25.2980   33.6800 H   0  0  0  0  0  0  0  0  0  0  0  0
   38.6280   25.6300   30.9700 H   0  0  0  0  0  0  0  0  0  0  0  0
   39.8970   24.5590   31.8090 H   0  0  0  0  0  0  0  0  0  0  0  0
   38.5770   22.6730   30.9930 H   0  0  0  0  0  0  0  0  0  0  0  0
   38.5130   23.8130   29.6310 H   0  0  0  0  0  0  0  0  0  0  0  0
   36.2470   23.4050   29.9340 H   0  0  0  0  0  0  0  0  0  0  0  0
   36.3570   23.0380   31.6750 H   0  0  0  0  0  0  0  0  0  0  0  0
   36.6630   25.7460   30.2500 H   0  0  0  0  0  0  0  0  0  0  0  0
   34.8080   25.2210   30.9750 N   0  0  0  0  0  0  0  0  0  0  0  0
   34.5490   25.5060   30.0020 H   0  0  0  0  0  0  0  0  0  0  0  0
   34.3490   24.3230   31.2230 H   0  0  0  0  0  0  0  0  0  0  0  0
   36.4830   27.9510   34.8600 Cl  0  0  0  0  0  0  0  0  0  0  0  0
   36.1790   28.7820   33.3530 C   0  0  0  0  0  0  0  0  0  0  0  0
   35.5310   29.9850   33.3940 C   0  0  0  0  0  0  0  0  0  0  0  0
   35.3140   30.5970   32.1800 C   0  0  0  0  0  0  0  0  0  0  0  0
   35.7400   29.9990   31.0100 C   0  0  0  0  0  0  0  0  0  0  0  0
   36.3860   28.7930   31.0110 C   0  0  0  0  0  0  0  0  0  0  0  0
   36.6080   28.1740   32.2040 C   0  0  0  0  0  0  0  0  0  0  0  0
   34.8060   31.5610   32.0910 H   0  0  0  0  0  0  0  0  0  0  0  0
   35.5670   30.4860   30.0430 H   0  0  0  0  0  0  0  0  0  0  0  0
   36.7140   28.3340   30.0980 H   0  0  0  0  0  0  0  0  0  0  0  0
   33.7660   30.4660   35.0980 C   0  0  0  0  0  0  0  0  0  0  0  0
   35.0740   30.6320   34.6340 C   0  0  0  0  0  0  0  0  0  0  0  0
   35.9280   31.4300   35.3840 C   0  0  0  0  0  0  0  0  0  0  0  0
   35.4470   31.9990   36.5170 N   0  0  0  0  0  0  0  0  0  0  0  0
   34.1930   31.8200   36.9310 C   0  0  0  0  0  0  0  0  0  0  0  0
   33.3350   31.0530   36.2300 N   0  0  0  0  0  0  0  0  0  0  0  0
   33.0780   29.8530   34.5410 H   0  0  0  0  0  0  0  0  0  0  0  0
   36.9470   31.5890   35.0700 H   0  0  0  0  0  0  0  0  0  0  0  0
   33.7680   32.2570   37.8310 H   0  0  0  0  0  0  0  0  0  0  0  0
  1  2  1  0  0  0  0
  2  3  1  0  0  0  0
  2  8  1  1  0  0  0
  3  9  1  0  0  0  0
  3 10  1  0  0  0  0
  4 12  1  0  0  0  0
  4  3  1  0  0  0  0
  5  6  1  0  0  0  0
  5 13  1  0  0  0  0
  5  4  1  0  0  0  0
  6  7  1  0  0  0  0
  6 16  1  0  0  0  0
  7 17  1  6  0  0  0
  7  2  1  0  0  0  0
 11  4  1  0  0  0  0
 14  5  1  0  0  0  0
 15  6  1  0  0  0  0
 18  7  1  0  0  0  0
 18 20  1  0  0  0  0
 19 18  1  0  0  0  0
 22 23  1  0  0  0  0
 22 21  1  0  0  0  0
 23 32  1  0  0  0  0
 24 23  2  0  0  0  0
 25 26  2  0  0  0  0
 25 24  1  0  0  0  0
 26 27  1  0  0  0  0
 27  1  1  0  0  0  0
 27 22  2  0  0  0  0
 28 24  1  0  0  0  0
 29 25  1  0  0  0  0
 30 26  1  0  0  0  0
 31 36  1  0  0  0  0
 32 31  2  0  0  0  0
 32 33  1  0  0  0  0
 33 34  2  0  0  0  0
 34 35  1  0  0  0  0
 35 39  1  0  0  0  0
 36 35  2  0  0  0  0
 37 31  1  0  0  0  0
 38 33  1  0  0  0  0
M  END
>  <minimizedAffinity>
-5.14264584

$$$$

 OpenBabel03272505043D

 39 41  0  0  1  0  0  0  0  0999 V2000
   35.4160   28.8680   34.2890 O   0  0  0  0  0  0  0  0  0  0  0  0
   34.6480   29.9840   34.0930 C   0  0  2  0  0  0  0  0  0  0  0  0
   35.6580   31.1660   34.3120 C   0  0  0  0  0  0  0  0  0  0  0  0
   36.0250   31.1830   35.7820 C   0  0  0  0  0  0  0  0  0  0  0  0
   34.8890   31.8110   36.5280 C   0  0  0  0  0  0  0  0  0  0  0  0
   33.6160   31.5200   35.7950 C   0  0  0  0  0  0  0  0  0  0  0  0
   33.6570   30.1130   35.2160 C   0  0  1  0  0  0  0  0  0  0  0  0
   34.2290   30.1250   33.0720 H   0  0  0  0  0  0  0  0  0  0  0  0
   35.0930   32.0560   34.0000 H   0  0  0  0  0  0  0  0  0  0  0  0
   36.5160   31.0180   33.6490 H   0  0  0  0  0  0  0  0  0  0  0  0
   35.8850   30.1170   36.1530 H   0  0  0  0  0  0  0  0  0  0  0  0
   37.0120   31.5900   36.0020 H   0  0  0  0  0  0  0  0  0  0  0  0
   35.0360   32.9250   36.5300 H   0  0  0  0  0  0  0  0  0  0  0  0
   34.8520   31.5160   37.5960 H   0  0  0  0  0  0  0  0  0  0  0  0
   32.7840   31.5060   36.5380 H   0  0  0  0  0  0  0  0  0  0  0  0
   33.3440   32.2760   35.0310 H   0  0  0  0  0  0  0  0  0  0  0  0
   33.9040   29.4370   36.0720 H   0  0  0  0  0  0  0  0  0  0  0  0
   32.3140   29.7200   34.7940 N   0  0  0  0  0  0  0  0  0  0  0  0
   31.8430   29.1720   35.5530 H   0  0  0  0  0  0  0  0  0  0  0  0
   31.7320   30.5370   34.5230 H   0  0  0  0  0  0  0  0  0  0  0  0
   37.7740   27.7910   35.6000 Cl  0  0  0  0  0  0  0  0  0  0  0  0
   37.4780   27.7210   33.8790 C   0  0  0  0  0  0  0  0  0  0  0  0
   38.4150   27.1230   33.0830 C   0  0  0  0  0  0  0  0  0  0  0  0
   38.1360   27.0970   31.7350 C   0  0  0  0  0  0  0  0  0  0  0  0
   36.9680   27.6530   31.2530 C   0  0  0  0  0  0  0  0  0  0  0  0
   36.0550   28.2430   32.0820 C   0  0  0  0  0  0  0  0  0  0  0  0
   36.3160   28.2780   33.4190 C   0  0  0  0  0  0  0  0  0  0  0  0
   38.8130   26.6450   31.0040 H   0  0  0  0  0  0  0  0  0  0  0  0
   36.7460   27.6330   30.1780 H   0  0  0  0  0  0  0  0  0  0  0  0
   35.1490   28.6730   31.7010 H   0  0  0  0  0  0  0  0  0  0  0  0
   40.8450   27.2690   33.6540 C   0  0  0  0  0  0  0  0  0  0  0  0
   39.6630   26.5260   33.5860 C   0  0  0  0  0  0  0  0  0  0  0  0
   39.7060   25.2040   34.0090 C   0  0  0  0  0  0  0  0  0  0  0  0
   40.8860   24.7130   34.4610 N   0  0  0  0  0  0  0  0  0  0  0  0
   41.9950   25.4480   34.5130 C   0  0  0  0  0  0  0  0  0  0  0  0
   41.9930   26.7350   34.1110 N   0  0  0  0  0  0  0  0  0  0  0  0
   40.8470   28.2970   33.3340 H   0  0  0  0  0  0  0  0  0  0  0  0
   38.8210   24.5890   33.9770 H   0  0  0  0  0  0  0  0  0  0  0  0
   42.9600   25.0940   34.8670 H   0  0  0  0  0  0  0  0  0  0  0  0
  2  8  1  6  0  0  0
  2  1  1  0  0  0  0
  2  3  1  0  0  0  0
  2  7  1  0  0  0  0
  3  4  1  0  0  0  0
  4 12  1  0  0  0  0
  4 11  1  0  0  0  0
  4  5  1  0  0  0  0
  5 13  1  0  0  0  0
  5 14  1  0  0  0  0
  6  5  1  0  0  0  0
  6 15  1  0  0  0  0
  7  6  1  0  0  0  0
  7 17  1  1  0  0  0
  9  3  1  0  0  0  0
 10  3  1  0  0  0  0
 16  6  1  0  0  0  0
 18  7  1  0  0  0  0
 18 19  1  0  0  0  0
 20 18  1  0  0  0  0
 22 21  1  0  0  0  0
 23 32  1  0  0  0  0
 23 22  2  0  0  0  0
 24 23  1  0  0  0  0
 25 24  2  0  0  0  0
 25 26  1  0  0  0  0
 26 27  2  0  0  0  0
 27 22  1  0  0  0  0
 27  1  1  0  0  0  0
 28 24  1  0  0  0  0
 29 25  1  0  0  0  0
 30 26  1  0  0  0  0
 31 36  1  0  0  0  0
 32 31  2  0  0  0  0
 32 33  1  0  0  0  0
 33 34  2  0  0  0  0
 34 35  1  0  0  0  0
 35 39  1  0  0  0  0
 36 35  2  0  0  0  0
 37 31  1  0  0  0  0
 38 33  1  0  0  0  0
M  END
>  <minimizedAffinity>
-5.06393957

$$$$

 OpenBabel03272505043D

 39 41  0  0  1  0  0  0  0  0999 V2000
   37.3220   27.1580   32.6220 O   0  0  0  0  0  0  0  0  0  0  0  0
   36.1350   27.7670   32.3140 C   0  0  2  0  0  0  0  0  0  0  0  0
   36.2760   28.0860   30.7820 C   0  0  0  0  0  0  0  0  0  0  0  0
   37.3320   29.1620   30.6370 C   0  0  0  0  0  0  0  0  0  0  0  0
   36.7040   30.4690   31.0090 C   0  0  0  0  0  0  0  0  0  0  0  0
   35.6370   30.2150   32.0270 C   0  0  0  0  0  0  0  0  0  0  0  0
   36.0770   29.1130   32.9810 C   0  0  1  0  0  0  0  0  0  0  0  0
   35.2180   27.1470   32.4150 H   0  0  0  0  0  0  0  0  0  0  0  0
   35.2720   28.4260   30.4910 H   0  0  0  0  0  0  0  0  0  0  0  0
   36.5210   27.1580   30.2550 H   0  0  0  0  0  0  0  0  0  0  0  0
   38.0150   29.0550   31.5390 H   0  0  0  0  0  0  0  0  0  0  0  0
   37.8670   29.1530   29.6870 H   0  0  0  0  0  0  0  0  0  0  0  0
   36.2100   30.9000   30.0950 H   0  0  0  0  0  0  0  0  0  0  0  0
   37.4410   31.2310   31.3340 H   0  0  0  0  0  0  0  0  0  0  0  0
   35.5380   31.1280   32.6610 H   0  0  0  0  0  0  0  0  0  0  0  0
   34.6330   30.0180   31.6000 H   0  0  0  0  0  0  0  0  0  0  0  0
   37.0750   29.4300   33.3740 H   0  0  0  0  0  0  0  0  0  0  0  0
   35.1940   29.0960   34.1460 N   0  0  0  0  0  0  0  0  0  0  0  0
   35.6150   29.6550   34.9260 H   0  0  0  0  0  0  0  0  0  0  0  0
   34.2420   29.4450   33.9240 H   0  0  0  0  0  0  0  0  0  0  0  0
   37.9460   26.8020   35.4370 Cl  0  0  0  0  0  0  0  0  0  0  0  0
   37.8490   25.5030   34.2720 C   0  0  0  0  0  0  0  0  0  0  0  0
   38.0830   24.2270   34.7020 C   0  0  0  0  0  0  0  0  0  0  0  0
   37.9970   23.2410   33.7460 C   0  0  0  0  0  0  0  0  0  0  0  0
   37.6910   23.5620   32.4370 C   0  0  0  0  0  0  0  0  0  0  0  0
   37.4630   24.8520   32.0460 C   0  0  0  0  0  0  0  0  0  0  0  0
   37.5450   25.8400   32.9810 C   0  0  0  0  0  0  0  0  0  0  0  0
   38.1640   22.1850   33.9740 H   0  0  0  0  0  0  0  0  0  0  0  0
   37.6230   22.7750   31.6750 H   0  0  0  0  0  0  0  0  0  0  0  0
   37.2250   25.0940   31.0280 H   0  0  0  0  0  0  0  0  0  0  0  0
   39.6470   23.3180   36.4280 C   0  0  0  0  0  0  0  0  0  0  0  0
   38.4090   23.8740   36.0930 C   0  0  0  0  0  0  0  0  0  0  0  0
   37.4960   24.0810   37.1190 C   0  0  0  0  0  0  0  0  0  0  0  0
   37.8560   23.7340   38.3790 N   0  0  0  0  0  0  0  0  0  0  0  0
   39.0450   23.2060   38.6640 C   0  0  0  0  0  0  0  0  0  0  0  0
   39.9580   22.9900   37.6960 N   0  0  0  0  0  0  0  0  0  0  0  0
   40.3790   23.1440   35.6570 H   0  0  0  0  0  0  0  0  0  0  0  0
   36.5280   24.5070   36.9130 H   0  0  0  0  0  0  0  0  0  0  0  0
   39.3730   22.9140   39.6590 H   0  0  0  0  0  0  0  0  0  0  0  0
  1 27  1  0  0  0  0
  2  8  1  1  0  0  0
  2  1  1  0  0  0  0
  2  7  1  0  0  0  0
  3  2  1  0  0  0  0
  4  3  1  0  0  0  0
  4  5  1  0  0  0  0
  4 11  1  0  0  0  0
  5 14  1  0  0  0  0
  5  6  1  0  0  0  0
  6 15  1  0  0  0  0
  6  7  1  0  0  0  0
  7 17  1  1  0  0  0
  7 18  1  0  0  0  0
  9  3  1  0  0  0  0
 10  3  1  0  0  0  0
 12  4  1  0  0  0  0
 13  5  1  0  0  0  0
 16  6  1  0  0  0  0
 18 19  1  0  0  0  0
 20 18  1  0  0  0  0
 22 23  1  0  0  0  0
 22 21  1  0  0  0  0
 23 32  1  0  0  0  0
 24 28  1  0  0  0  0
 24 23  2  0  0  0  0
 25 24  1  0  0  0  0
 26 25  2  0  0  0  0
 26 27  1  0  0  0  0
 27 22  2  0  0  0  0
 29 25  1  0  0  0  0
 30 26  1  0  0  0  0
 31 36  1  0  0  0  0
 32 31  2  0  0  0  0
 32 33  1  0  0  0  0
 33 34  2  0  0  0  0
 34 35  1  0  0  0  0
 35 39  1  0  0  0  0
 36 35  2  0  0  0  0
 37 31  1  0  0  0  0
 38 33  1  0  0  0  0
M  END
>  <minimizedAffinity>
-5.03633499

$$$$
