
 OpenBabel03262522253D

 39 41  0  0  0  0  0  0  0  0999 V2000
   38.7080   32.8390   48.3420 C   0  0  0  0  0  0  0  0  0  0  0  0
   39.0250   32.1810   47.1510 C   0  0  0  0  0  0  0  0  0  0  0  0
   38.5290   30.9080   46.9910 C   0  0  0  0  0  0  0  0  0  0  0  0
   37.7690   30.3790   47.9920 N   0  0  0  0  0  0  0  0  0  0  0  0
   37.4990   31.0310   49.0880 C   0  0  0  0  0  0  0  0  0  0  0  0
   37.9670   32.3120   49.3100 N   0  0  0  0  0  0  0  0  0  0  0  0
   39.0760   33.8560   48.5260 H   0  0  0  0  0  0  0  0  0  0  0  0
   38.7360   30.3470   46.0810 H   0  0  0  0  0  0  0  0  0  0  0  0
   39.7920   32.8290   46.2450 O   0  0  0  0  0  0  0  0  0  0  0  0
   39.9480   32.2970   44.9730 C   0  0  0  0  0  0  0  0  0  0  0  0
   40.6570   31.1700   44.6170 C   0  0  0  0  0  0  0  0  0  0  0  0
   40.6990   30.8000   43.3210 C   0  0  0  0  0  0  0  0  0  0  0  0
   40.0430   31.5470   42.3950 C   0  0  0  0  0  0  0  0  0  0  0  0
   39.3270   32.6880   42.7640 C   0  0  0  0  0  0  0  0  0  0  0  0
   39.2950   33.0470   44.0770 N   0  0  0  0  0  0  0  0  0  0  0  0
   41.1530   30.6430   45.4200 H   0  0  0  0  0  0  0  0  0  0  0  0
   41.2560   29.9160   43.0510 H   0  0  0  0  0  0  0  0  0  0  0  0
   40.0840   31.2380   41.3470 H   0  0  0  0  0  0  0  0  0  0  0  0
   38.6040   33.5100   41.7130 C   0  0  0  0  0  0  0  0  0  0  0  0
   38.2580   34.4140   42.2140 H   0  0  0  0  0  0  0  0  0  0  0  0
   39.4120   33.7940   41.0020 H   0  0  0  0  0  0  0  0  0  0  0  0
   37.8330   32.8870   41.2430 H   0  0  0  0  0  0  0  0  0  0  0  0
   36.4760   30.0660   50.2250 S   0  0  0  0  0  0  0  0  0  0  0  0
   34.7710   30.5150   49.7970 C   0  0  0  0  0  0  0  0  0  0  0  0
   34.0870   30.2110   50.6000 H   0  0  0  0  0  0  0  0  0  0  0  0
   34.6430   31.5990   49.6010 H   0  0  0  0  0  0  0  0  0  0  0  0
   34.4090   27.7820   49.8700 F   0  0  0  0  0  0  0  0  0  0  0  0
   34.2960   28.4310   48.6700 C   0  0  0  0  0  0  0  0  0  0  0  0
   34.4590   29.8050   48.5190 C   0  0  0  0  0  0  0  0  0  0  0  0
   34.3350   30.4010   47.2970 C   0  0  0  0  0  0  0  0  0  0  0  0
   34.0380   29.6340   46.1540 C   0  0  0  0  0  0  0  0  0  0  0  0
   33.8730   28.2610   46.2940 C   0  0  0  0  0  0  0  0  0  0  0  0
   34.0030   27.6850   47.5410 C   0  0  0  0  0  0  0  0  0  0  0  0
   34.4790   31.4670   47.2840 H   0  0  0  0  0  0  0  0  0  0  0  0
   33.9560   30.1720   45.2270 H   0  0  0  0  0  0  0  0  0  0  0  0
   33.6440   27.6950   45.3980 H   0  0  0  0  0  0  0  0  0  0  0  0
   33.8320   26.2780   47.6700 N   0  0  0  0  0  0  0  0  0  0  0  0
   34.4760   26.0490   48.4770 H   0  0  0  0  0  0  0  0  0  0  0  0
   33.2010   25.7000   47.0690 H   0  0  0  0  0  0  0  0  0  0  0  0
  1  7  1  0  0  0  0
  1  6  1  0  0  0  0
  2  1  2  0  0  0  0
  3  2  1  0  0  0  0
  3  4  2  0  0  0  0
  4  5  1  0  0  0  0
  5  6  2  0  0  0  0
  5 23  1  0  0  0  0
  8  3  1  0  0  0  0
  9  2  1  0  0  0  0
 10  9  1  0  0  0  0
 11 10  1  0  0  0  0
 11 16  1  0  0  0  0
 12 11  2  0  0  0  0
 13 14  2  0  0  0  0
 13 12  1  0  0  0  0
 14 15  1  0  0  0  0
 15 10  2  0  0  0  0
 17 12  1  0  0  0  0
 18 13  1  0  0  0  0
 19 20  1  0  0  0  0
 19 14  1  0  0  0  0
 21 19  1  0  0  0  0
 22 19  1  0  0  0  0
 24 23  1  0  0  0  0
 24 25  1  0  0  0  0
 26 24  1  0  0  0  0
 28 27  1  0  0  0  0
 29 28  1  0  0  0  0
 29 24  1  0  0  0  0
 30 29  2  0  0  0  0
 31 32  2  0  0  0  0
 31 30  1  0  0  0  0
 32 33  1  0  0  0  0
 33 37  1  0  0  0  0
 33 28  2  0  0  0  0
 34 30  1  0  0  0  0
 35 31  1  0  0  0  0
 36 32  1  0  0  0  0
 37 38  1  0  0  0  0
 39 37  1  0  0  0  0
M  END
>  <minimizedAffinity>
-6.02449989

>  <minimizedRMSD>
1.66336107

$$$$
