
 OpenBabel03272510143D

 22 23  0  0  0  0  0  0  0  0999 V2000
   37.4520   29.1980   50.8920 Br  0  0  0  0  0  0  0  0  0  0  0  0
   36.0120   29.2900   49.6560 C   0  0  0  0  0  0  0  0  0  0  0  0
   35.9820   30.2720   48.6770 C   0  0  0  0  0  0  0  0  0  0  0  0
   34.8980   30.2680   47.8200 C   0  0  0  0  0  0  0  0  0  0  0  0
   33.8640   29.3520   47.8890 C   0  0  0  0  0  0  0  0  0  0  0  0
   33.9340   28.4000   48.8730 C   0  0  0  0  0  0  0  0  0  0  0  0
   35.0090   28.3770   49.7500 C   0  0  0  0  0  0  0  0  0  0  0  0
   34.9190   31.0600   47.0650 H   0  0  0  0  0  0  0  0  0  0  0  0
   33.1100   27.6990   48.9010 H   0  0  0  0  0  0  0  0  0  0  0  0
   34.9920   27.5950   50.4980 H   0  0  0  0  0  0  0  0  0  0  0  0
   38.0190   33.1980   49.4210 C   0  0  0  0  0  0  0  0  0  0  0  0
   39.0390   33.1600   48.4200 C   0  0  0  0  0  0  0  0  0  0  0  0
   38.9920   32.1140   47.5050 C   0  0  0  0  0  0  0  0  0  0  0  0
   37.9940   31.1870   47.6050 N   0  0  0  0  0  0  0  0  0  0  0  0
   37.0480   31.2560   48.5660 C   0  0  0  0  0  0  0  0  0  0  0  0
   37.0760   32.2600   49.4570 N   0  0  0  0  0  0  0  0  0  0  0  0
   38.0330   34.0020   50.1420 H   0  0  0  0  0  0  0  0  0  0  0  0
   39.8150   33.9290   48.3860 H   0  0  0  0  0  0  0  0  0  0  0  0
   39.7420   32.0360   46.7240 H   0  0  0  0  0  0  0  0  0  0  0  0
   32.8410   29.5190   46.9140 N   0  0  0  0  0  0  0  0  0  0  0  0
   32.6560   28.5720   46.5190 H   0  0  0  0  0  0  0  0  0  0  0  0
   32.3280   30.3560   46.5920 H   0  0  0  0  0  0  0  0  0  0  0  0
  2  7  1  0  0  0  0
  2  1  1  0  0  0  0
  3  2  2  0  0  0  0
  4  5  2  0  0  0  0
  4  3  1  0  0  0  0
  5  6  1  0  0  0  0
  6  9  1  0  0  0  0
  6  7  2  0  0  0  0
  7 10  1  0  0  0  0
  8  4  1  0  0  0  0
 11 16  1  0  0  0  0
 11 17  1  0  0  0  0
 12 11  2  0  0  0  0
 13 14  2  0  0  0  0
 13 12  1  0  0  0  0
 14 15  1  0  0  0  0
 15  3  1  0  0  0  0
 15 16  2  0  0  0  0
 18 12  1  0  0  0  0
 19 13  1  0  0  0  0
 20  5  1  0  0  0  0
 21 20  1  0  0  0  0
 22 20  1  0  0  0  0
M  END
>  <minimizedAffinity>
-5.53317451

>  <minimizedRMSD>
0.192810491

$$$$
