
 OpenBabel03272508583D

 40 43  0  0  1  0  0  0  0  0999 V2000
   38.3600   31.8750   44.5180 C   0  0  0  0  0  0  0  0  0  0  0  0
   37.2800   32.4490   44.4070 O   0  0  0  0  0  0  0  0  0  0  0  0
   38.9280   31.5700   45.8180 N   0  0  0  0  0  0  0  0  0  0  0  0
   39.8930   31.2810   45.9870 H   0  0  0  0  0  0  0  0  0  0  0  0
   39.1430   31.4620   43.3210 C   0  0  0  0  0  0  0  0  0  0  0  0
   40.1330   30.5120   43.4740 C   0  0  0  0  0  0  0  0  0  0  0  0
   40.8600   30.1560   42.3520 C   0  0  0  0  0  0  0  0  0  0  0  0
   40.5490   30.7730   41.1590 C   0  0  0  0  0  0  0  0  0  0  0  0
   39.5590   31.7220   41.0030 C   0  0  0  0  0  0  0  0  0  0  0  0
   38.8930   32.0220   42.1300 N   0  0  0  0  0  0  0  0  0  0  0  0
   40.3370   30.0480   44.4360 H   0  0  0  0  0  0  0  0  0  0  0  0
   41.6140   29.4150   42.5040 H   0  0  0  0  0  0  0  0  0  0  0  0
   41.2030   30.4240   40.3880 H   0  0  0  0  0  0  0  0  0  0  0  0
   39.2460   32.3430   39.7160 C   0  0  2  0  0  3  0  0  0  0  0  0
   38.5840   33.4460   39.7610 O   0  0  0  0  0  1  0  0  0  0  0  0
   39.5200   31.9850   38.3350 C   0  0  0  0  0  0  0  0  0  0  0  0
   39.0670   30.8780   37.6530 C   0  0  0  0  0  0  0  0  0  0  0  0
   38.4620   30.1250   38.1160 H   0  0  0  0  0  0  0  0  0  0  0  0
   39.3280   30.6040   36.3320 C   0  0  0  0  0  3  0  0  0  0  0  0
   40.0950   31.4910   35.6170 C   0  0  0  0  0  0  0  0  0  0  0  0
   40.3110   31.2860   34.5560 H   0  0  0  0  0  0  0  0  0  0  0  0
   40.5890   32.6220   36.2170 C   0  0  0  0  0  0  0  0  0  0  0  0
   41.1970   33.3560   35.6700 H   0  0  0  0  0  0  0  0  0  0  0  0
   40.3020   32.8540   37.5460 C   0  0  0  0  0  3  0  0  0  0  0  0
   38.4190   31.0810   48.2070 C   0  0  2  0  0  0  0  0  0  0  0  0
   38.6690   32.5470   48.1070 C   0  0  0  0  0  0  0  0  0  0  0  0
   38.0640   31.6850   46.9640 C   0  0  1  0  0  0  0  0  0  0  0  0
   39.3880   30.5070   48.3020 H   0  0  0  0  0  0  0  0  0  0  0  0
   39.6860   32.9280   47.9840 H   0  0  0  0  0  0  0  0  0  0  0  0
   37.9550   33.1540   48.7110 H   0  0  0  0  0  0  0  0  0  0  0  0
   36.9860   31.9200   46.7700 H   0  0  0  0  0  0  0  0  0  0  0  0
   35.0750   30.2250   49.5380 C   0  0  0  0  0  0  0  0  0  0  0  0
   35.3830   29.5470   50.7450 C   0  0  0  0  0  0  0  0  0  0  0  0
   36.7670   29.4050   51.0760 C   0  0  0  0  0  0  0  0  0  0  0  0
   37.7410   29.9150   50.2430 N   0  0  0  0  0  0  0  0  0  0  0  0
   37.3390   30.5540   49.1050 C   0  0  0  0  0  0  0  0  0  0  0  0
   36.0300   30.7220   48.7320 N   0  0  0  0  0  0  0  0  0  0  0  0
   34.0570   30.3790   49.2010 H   0  0  0  0  0  0  0  0  0  0  0  0
   34.6000   29.1760   51.3540 H   0  0  0  0  0  0  0  0  0  0  0  0
   37.0140   28.8850   52.0070 H   0  0  0  0  0  0  0  0  0  0  0  0
  1  3  1  0  0  0  0
  2  1  2  0  0  0  0
  3  4  1  0  0  0  0
  3 27  1  0  0  0  0
  5  6  1  0  0  0  0
  5  1  1  0  0  0  0
  6 11  1  0  0  0  0
  7 12  1  0  0  0  0
  7  6  2  0  0  0  0
  8  7  1  0  0  0  0
  9  8  2  0  0  0  0
  9 10  1  0  0  0  0
 10  5  2  0  0  0  0
 13  8  1  0  0  0  0
 14 15  1  6  0  0  0
 14  9  1  0  0  0  0
 16 14  1  0  0  0  0
 17 18  1  0  0  0  0
 17 16  1  0  0  0  0
 19 17  2  0  0  0  0
 20 22  2  0  0  0  0
 20 19  1  0  0  0  0
 21 20  1  0  0  0  0
 22 24  1  0  0  0  0
 23 22  1  0  0  0  0
 24 16  2  0  0  0  0
 25 28  1  6  0  0  0
 25 36  1  0  0  0  0
 26 25  1  0  0  0  0
 26 30  1  0  0  0  0
 27 31  1  6  0  0  0
 27 26  1  0  0  0  0
 27 25  1  0  0  0  0
 29 26  1  0  0  0  0
 32 33  1  0  0  0  0
 33 34  2  0  0  0  0
 33 39  1  0  0  0  0
 34 40  1  0  0  0  0
 35 34  1  0  0  0  0
 36 35  2  0  0  0  0
 37 36  1  0  0  0  0
 37 32  2  0  0  0  0
 38 32  1  0  0  0  0
M  END
>  <minimizedAffinity>
-4.93068027

>  <minimizedRMSD>
0.762507737

$$$$
