
 OpenBabel03272508423D

 20 21  0  0  0  0  0  0  0  0999 V2000
   34.9250   28.7780   48.7030 C   0  0  0  0  0  0  0  0  0  0  0  0
   34.5830   27.8560   49.5080 O   0  0  0  0  0  0  0  0  0  0  0  0
   33.0080   30.5720   46.1860 C   0  0  0  0  0  0  0  0  0  0  0  0
   32.8280   29.6360   45.1630 C   0  0  0  0  0  0  0  0  0  0  0  0
   33.3720   28.3700   45.3370 C   0  0  0  0  0  0  0  0  0  0  0  0
   34.0540   28.0890   46.4890 N   0  0  0  0  0  0  0  0  0  0  0  0
   34.2070   29.0090   47.4470 C   0  0  0  0  0  0  0  0  0  0  0  0
   33.6850   30.2360   47.2860 N   0  0  0  0  0  0  0  0  0  0  0  0
   32.5850   31.5680   46.0580 H   0  0  0  0  0  0  0  0  0  0  0  0
   32.2760   29.9020   44.2620 H   0  0  0  0  0  0  0  0  0  0  0  0
   33.2600   27.5990   44.5710 H   0  0  0  0  0  0  0  0  0  0  0  0
   36.0760   29.5670   49.1390 C   0  0  0  0  0  0  0  0  0  0  0  0
   36.2900   29.6860   50.5190 C   0  0  0  0  0  0  0  0  0  0  0  0
   35.6120   29.2020   51.2130 H   0  0  0  0  0  0  0  0  0  0  0  0
   37.3650   30.4180   51.0440 C   0  0  0  0  0  0  0  0  0  0  0  0
   38.2500   31.0490   50.1570 C   0  0  0  0  0  0  0  0  0  0  0  0
   39.0660   31.6020   50.6040 H   0  0  0  0  0  0  0  0  0  0  0  0
   38.0220   30.9200   48.7980 C   0  0  0  0  0  0  0  0  0  0  0  0
   38.7320   31.4240   48.1260 H   0  0  0  0  0  0  0  0  0  0  0  0
   36.9630   30.1990   48.2990 C   0  0  0  0  0  0  0  0  0  0  0  0
  1 12  1  0  0  0  0
  1  2  2  0  0  0  0
  3  8  1  0  0  0  0
  4  5  1  0  0  0  0
  4  3  2  0  0  0  0
  5  6  2  0  0  0  0
  6  7  1  0  0  0  0
  7  1  1  0  0  0  0
  8  7  2  0  0  0  0
  9  3  1  0  0  0  0
 10  4  1  0  0  0  0
 11  5  1  0  0  0  0
 12 13  1  0  0  0  0
 13 15  2  0  0  0  0
 13 14  1  0  0  0  0
 16 17  1  0  0  0  0
 16 15  1  0  0  0  0
 18 16  2  0  0  0  0
 19 18  1  0  0  0  0
 20 18  1  0  0  0  0
 20 12  2  0  0  0  0
M  END
>  <minimizedAffinity>
-4.71253347

>  <minimizedRMSD>
5.33381939

$$$$
