
 OpenBabel03272503243D

 32 34  0  0  1  0  0  0  0  0999 V2000
   36.4840   29.8280   49.4200 N   0  0  0  0  0  0  0  0  0  0  0  0
   36.8950   31.1470   49.7530 C   0  0  1  0  0  0  0  0  0  0  0  0
   37.4500   31.0250   51.1660 C   0  0  0  0  0  0  0  0  0  0  0  0
   37.2960   29.5190   51.5000 C   0  0  0  0  0  0  0  0  0  0  0  0
   37.3900   28.9480   50.1050 C   0  0  0  0  0  0  0  0  0  0  0  0
   35.9030   31.7600   49.9080 H   0  0  0  0  0  0  0  0  0  0  0  0
   36.8770   31.6270   51.8760 H   0  0  0  0  0  0  0  0  0  0  0  0
   38.5370   31.2300   51.1510 H   0  0  0  0  0  0  0  0  0  0  0  0
   36.2550   29.3910   51.8800 H   0  0  0  0  0  0  0  0  0  0  0  0
   38.0810   29.1910   52.1830 H   0  0  0  0  0  0  0  0  0  0  0  0
   38.4390   29.0170   49.7490 H   0  0  0  0  0  0  0  0  0  0  0  0
   37.0340   27.8970   50.1170 H   0  0  0  0  0  0  0  0  0  0  0  0
   35.3920   29.4920   48.5820 C   0  0  0  0  0  0  0  0  0  0  0  0
   34.9400   30.3960   47.6390 C   0  0  0  0  0  0  0  0  0  0  0  0
   33.8890   30.0600   46.7850 C   0  0  0  0  0  0  0  0  0  0  0  0
   33.3560   28.8050   46.9490 N   0  0  0  0  0  0  0  0  0  0  0  0
   33.8090   27.9300   47.8780 C   0  0  0  0  0  0  0  0  0  0  0  0
   34.8350   28.2770   48.7000 N   0  0  0  0  0  0  0  0  0  0  0  0
   35.3430   31.3700   47.5020 H   0  0  0  0  0  0  0  0  0  0  0  0
   33.5220   30.7360   46.0510 H   0  0  0  0  0  0  0  0  0  0  0  0
   33.3260   26.9620   47.9330 H   0  0  0  0  0  0  0  0  0  0  0  0
   37.6580   31.9040   48.8170 C   0  0  0  0  0  0  0  0  0  0  0  0
   37.7160   33.1310   49.0490 O   0  0  0  0  0  0  0  0  0  0  0  0
   38.4350   31.7670   47.5910 C   0  0  0  0  0  0  0  0  0  0  0  0
   39.2550   32.7640   47.1210 C   0  0  0  0  0  0  0  0  0  0  0  0
   39.3760   33.7360   47.5520 H   0  0  0  0  0  0  0  0  0  0  0  0
   40.0550   32.7340   46.0030 C   0  0  0  0  0  0  0  0  0  0  0  0
   40.0380   31.5770   45.2640 C   0  0  0  0  0  0  0  0  0  0  0  0
   40.6150   31.4140   44.3650 H   0  0  0  0  0  0  0  0  0  0  0  0
   39.2540   30.5210   45.6450 C   0  0  0  0  0  0  0  0  0  0  0  0
   39.2120   29.5960   45.0920 H   0  0  0  0  0  0  0  0  0  0  0  0
   38.4960   30.6600   46.7760 C   0  0  0  0  0  0  0  0  0  0  0  0
  1  2  1  0  0  0  0
  1  5  1  0  0  0  0
  2  6  1  1  0  0  0
  2  3  1  0  0  0  0
  3  4  1  0  0  0  0
  3  7  1  0  0  0  0
  4  9  1  0  0  0  0
  4 10  1  0  0  0  0
  5 12  1  0  0  0  0
  5  4  1  0  0  0  0
  8  3  1  0  0  0  0
 11  5  1  0  0  0  0
 13 18  1  0  0  0  0
 13  1  1  0  0  0  0
 14 13  2  0  0  0  0
 15 16  2  0  0  0  0
 15 14  1  0  0  0  0
 16 17  1  0  0  0  0
 17 21  1  0  0  0  0
 17 18  2  0  0  0  0
 19 14  1  0  0  0  0
 20 15  1  0  0  0  0
 22 23  2  0  0  0  0
 22  2  1  0  0  0  0
 24 22  1  0  0  0  0
 25 26  1  0  0  0  0
 25 24  1  0  0  0  0
 27 25  2  0  0  0  0
 28 30  2  0  0  0  0
 28 27  1  0  0  0  0
 29 28  1  0  0  0  0
 30 32  1  0  0  0  0
 31 30  1  0  0  0  0
 32 24  2  0  0  0  0
M  END
>  <minimizedAffinity>
-5.84160805

>  <minimizedRMSD>
1.92819583

$$$$
