
 OpenBabel03272503253D

 32 34  0  0  1  0  0  0  0  0999 V2000
   36.4960   27.5510   32.8180 N   0  0  0  0  0  0  0  0  0  0  0  0
   36.1660   28.9310   32.7400 C   0  0  1  0  0  0  0  0  0  0  0  0
   36.1910   29.2430   31.2490 C   0  0  0  0  0  0  0  0  0  0  0  0
   36.5450   27.8850   30.5890 C   0  0  0  0  0  0  0  0  0  0  0  0
   35.9650   26.9510   31.6250 C   0  0  0  0  0  0  0  0  0  0  0  0
   37.1070   29.5070   33.1490 H   0  0  0  0  0  0  0  0  0  0  0  0
   36.9540   29.9870   31.0070 H   0  0  0  0  0  0  0  0  0  0  0  0
   35.1690   29.4950   30.9120 H   0  0  0  0  0  0  0  0  0  0  0  0
   37.6580   27.8120   30.6090 H   0  0  0  0  0  0  0  0  0  0  0  0
   36.0950   27.8070   29.5990 H   0  0  0  0  0  0  0  0  0  0  0  0
   34.8580   26.9760   31.5640 H   0  0  0  0  0  0  0  0  0  0  0  0
   36.3590   25.9280   31.4520 H   0  0  0  0  0  0  0  0  0  0  0  0
   37.2100   26.9330   33.8750 C   0  0  0  0  0  0  0  0  0  0  0  0
   37.6280   27.6820   34.9570 C   0  0  0  0  0  0  0  0  0  0  0  0
   38.2990   27.0750   36.0190 C   0  0  0  0  0  0  0  0  0  0  0  0
   38.5060   25.7220   35.9080 N   0  0  0  0  0  0  0  0  0  0  0  0
   38.0900   25.0010   34.8400 C   0  0  0  0  0  0  0  0  0  0  0  0
   37.4370   25.6120   33.8160 N   0  0  0  0  0  0  0  0  0  0  0  0
   37.4760   28.7290   35.0560 H   0  0  0  0  0  0  0  0  0  0  0  0
   38.6330   27.6280   36.8650 H   0  0  0  0  0  0  0  0  0  0  0  0
   38.2970   23.9370   34.8400 H   0  0  0  0  0  0  0  0  0  0  0  0
   35.0640   29.4360   33.4920 C   0  0  0  0  0  0  0  0  0  0  0  0
   33.9360   29.1360   33.0460 O   0  0  0  0  0  0  0  0  0  0  0  0
   34.7490   30.2460   34.6620 C   0  0  0  0  0  0  0  0  0  0  0  0
   35.6870   31.0250   35.2950 C   0  0  0  0  0  0  0  0  0  0  0  0
   36.7270   31.0860   35.0480 H   0  0  0  0  0  0  0  0  0  0  0  0
   35.4970   31.8510   36.3770 C   0  0  0  0  0  3  0  0  0  0  0  0
   34.2260   31.9100   36.8930 C   0  0  0  0  0  0  0  0  0  0  0  0
   33.9340   32.5160   37.7380 H   0  0  0  0  0  0  0  0  0  0  0  0
   33.2160   31.1730   36.3350 C   0  0  0  0  0  0  0  0  0  0  0  0
   32.2050   31.1920   36.7100 H   0  0  0  0  0  0  0  0  0  0  0  0
   33.5170   30.3830   35.2590 C   0  0  0  0  0  3  0  0  0  0  0  0
  1 13  1  0  0  0  0
  2  1  1  0  0  0  0
  2  6  1  1  0  0  0
  2 22  1  0  0  0  0
  3  2  1  0  0  0  0
  4  9  1  0  0  0  0
  4  3  1  0  0  0  0
  4  5  1  0  0  0  0
  5  1  1  0  0  0  0
  7  3  1  0  0  0  0
  8  3  1  0  0  0  0
 10  4  1  0  0  0  0
 11  5  1  0  0  0  0
 12  5  1  0  0  0  0
 13 14  1  0  0  0  0
 14 19  1  0  0  0  0
 14 15  2  0  0  0  0
 15 20  1  0  0  0  0
 16 15  1  0  0  0  0
 17 21  1  0  0  0  0
 17 16  2  0  0  0  0
 18 13  2  0  0  0  0
 18 17  1  0  0  0  0
 22 24  1  0  0  0  0
 23 22  2  0  0  0  0
 24 32  2  0  0  0  0
 24 25  1  0  0  0  0
 25 27  2  0  0  0  0
 26 25  1  0  0  0  0
 27 28  1  0  0  0  0
 28 29  1  0  0  0  0
 30 31  1  0  0  0  0
 30 28  2  0  0  0  0
 32 30  1  0  0  0  0
M  END
>  <minimizedAffinity>
-5.30376863

$$$$

 OpenBabel03272503253D

 32 34  0  0  1  0  0  0  0  0999 V2000
   38.3870   23.9670   36.0220 N   0  0  0  0  0  0  0  0  0  0  0  0
   38.5950   22.7240   35.3640 C   0  0  1  0  0  0  0  0  0  0  0  0
   39.6270   22.0080   36.2270 C   0  0  0  0  0  0  0  0  0  0  0  0
   39.8990   23.0000   37.3860 C   0  0  0  0  0  0  0  0  0  0  0  0
   38.5640   23.7050   37.4240 C   0  0  0  0  0  0  0  0  0  0  0  0
   39.1960   22.9790   34.3850 H   0  0  0  0  0  0  0  0  0  0  0  0
   40.5500   21.8160   35.6730 H   0  0  0  0  0  0  0  0  0  0  0  0
   39.1630   21.1150   36.6850 H   0  0  0  0  0  0  0  0  0  0  0  0
   40.6780   23.7070   37.0130 H   0  0  0  0  0  0  0  0  0  0  0  0
   40.1610   22.4660   38.3000 H   0  0  0  0  0  0  0  0  0  0  0  0
   37.8010   23.0240   37.8540 H   0  0  0  0  0  0  0  0  0  0  0  0
   38.6610   24.6350   38.0210 H   0  0  0  0  0  0  0  0  0  0  0  0
   38.0740   25.1940   35.3860 C   0  0  0  0  0  0  0  0  0  0  0  0
   38.1790   26.3810   36.0840 C   0  0  0  0  0  0  0  0  0  0  0  0
   37.9090   27.5960   35.4550 C   0  0  0  0  0  0  0  0  0  0  0  0
   37.5410   27.5240   34.1340 N   0  0  0  0  0  0  0  0  0  0  0  0
   37.4420   26.3520   33.4630 C   0  0  0  0  0  0  0  0  0  0  0  0
   37.7110   25.1790   34.0940 N   0  0  0  0  0  0  0  0  0  0  0  0
   38.4620   26.4520   37.1060 H   0  0  0  0  0  0  0  0  0  0  0  0
   37.9820   28.5250   35.9690 H   0  0  0  0  0  0  0  0  0  0  0  0
   37.1450   26.3930   32.4220 H   0  0  0  0  0  0  0  0  0  0  0  0
   37.4730   21.9630   34.9250 C   0  0  0  0  0  0  0  0  0  0  0  0
   36.7960   21.4410   35.8370 O   0  0  0  0  0  0  0  0  0  0  0  0
   36.7880   21.5220   33.7160 C   0  0  0  0  0  0  0  0  0  0  0  0
   37.2100   21.8760   32.4580 C   0  0  0  0  0  0  0  0  0  0  0  0
   38.0240   22.5310   32.2270 H   0  0  0  0  0  0  0  0  0  0  0  0
   36.6660   21.4940   31.2540 C   0  0  0  0  0  3  0  0  0  0  0  0
   35.5740   20.6630   31.3060 C   0  0  0  0  0  0  0  0  0  0  0  0
   35.0490   20.2860   30.4410 H   0  0  0  0  0  0  0  0  0  0  0  0
   35.0730   20.2500   32.5110 C   0  0  0  0  0  0  0  0  0  0  0  0
   34.2180   19.5980   32.5940 H   0  0  0  0  0  0  0  0  0  0  0  0
   35.6920   20.6910   33.6480 C   0  0  0  0  0  3  0  0  0  0  0  0
  1  5  1  0  0  0  0
  2  6  1  6  0  0  0
  2  1  1  0  0  0  0
  2  3  1  0  0  0  0
  3  8  1  0  0  0  0
  3  4  1  0  0  0  0
  4  5  1  0  0  0  0
  4 10  1  0  0  0  0
  5 11  1  0  0  0  0
  5 12  1  0  0  0  0
  7  3  1  0  0  0  0
  9  4  1  0  0  0  0
 13  1  1  0  0  0  0
 13 14  1  0  0  0  0
 14 19  1  0  0  0  0
 15 20  1  0  0  0  0
 15 14  2  0  0  0  0
 16 15  1  0  0  0  0
 17 18  1  0  0  0  0
 17 16  2  0  0  0  0
 18 13  2  0  0  0  0
 21 17  1  0  0  0  0
 22  2  1  0  0  0  0
 22 23  2  0  0  0  0
 24 22  1  0  0  0  0
 25 24  2  0  0  0  0
 26 25  1  0  0  0  0
 27 28  2  0  0  0  0
 27 25  1  0  0  0  0
 28 30  1  0  0  0  0
 29 28  1  0  0  0  0
 30 31  1  0  0  0  0
 30 32  2  0  0  0  0
 32 24  1  0  0  0  0
M  END
>  <minimizedAffinity>
-5.18970299

$$$$

 OpenBabel03272503253D

 32 34  0  0  1  0  0  0  0  0999 V2000
   38.1530   23.1170   36.2830 N   0  0  0  0  0  0  0  0  0  0  0  0
   37.6760   24.3930   36.6860 C   0  0  1  0  0  0  0  0  0  0  0  0
   38.1070   24.5170   38.1420 C   0  0  0  0  0  0  0  0  0  0  0  0
   38.8620   23.1910   38.4210 C   0  0  0  0  0  0  0  0  0  0  0  0
   39.3620   22.8960   37.0270 C   0  0  0  0  0  0  0  0  0  0  0  0
   36.5060   24.2870   36.7630 H   0  0  0  0  0  0  0  0  0  0  0  0
   37.2470   24.6060   38.8100 H   0  0  0  0  0  0  0  0  0  0  0  0
   38.8560   25.3250   38.2330 H   0  0  0  0  0  0  0  0  0  0  0  0
   38.0820   22.4430   38.6990 H   0  0  0  0  0  0  0  0  0  0  0  0
   39.6440   23.3410   39.1660 H   0  0  0  0  0  0  0  0  0  0  0  0
   40.1820   23.5990   36.7730 H   0  0  0  0  0  0  0  0  0  0  0  0
   39.7030   21.8400   36.9800 H   0  0  0  0  0  0  0  0  0  0  0  0
   37.5290   22.2650   35.3380 C   0  0  0  0  0  0  0  0  0  0  0  0
   36.4440   21.4950   35.7110 C   0  0  0  0  0  0  0  0  0  0  0  0
   35.8010   20.6810   34.7780 C   0  0  0  0  0  0  0  0  0  0  0  0
   36.3140   20.7020   33.5040 N   0  0  0  0  0  0  0  0  0  0  0  0
   37.3790   21.4610   33.1540 C   0  0  0  0  0  0  0  0  0  0  0  0
   37.9900   22.2480   34.0780 N   0  0  0  0  0  0  0  0  0  0  0  0
   36.0380   21.4690   36.6930 H   0  0  0  0  0  0  0  0  0  0  0  0
   34.9640   20.0790   35.0380 H   0  0  0  0  0  0  0  0  0  0  0  0
   37.7130   21.4130   32.1240 H   0  0  0  0  0  0  0  0  0  0  0  0
   37.8920   25.5240   35.8450 C   0  0  0  0  0  0  0  0  0  0  0  0
   38.8430   26.2610   36.1810 O   0  0  0  0  0  0  0  0  0  0  0  0
   37.3610   26.1940   34.6640 C   0  0  0  0  0  0  0  0  0  0  0  0
   36.9010   27.4890   34.6950 C   0  0  0  0  0  0  0  0  0  0  0  0
   36.8320   28.1130   35.5610 H   0  0  0  0  0  0  0  0  0  0  0  0
   36.4140   28.2290   33.6440 C   0  0  0  0  0  3  0  0  0  0  0  0
   36.3790   27.6120   32.4180 C   0  0  0  0  0  0  0  0  0  0  0  0
   36.0230   28.0730   31.5080 H   0  0  0  0  0  0  0  0  0  0  0  0
   36.8150   26.3210   32.2780 C   0  0  0  0  0  0  0  0  0  0  0  0
   36.8030   25.8020   31.3330 H   0  0  0  0  0  0  0  0  0  0  0  0
   37.2800   25.6770   33.3910 C   0  0  0  0  0  3  0  0  0  0  0  0
  1  2  1  0  0  0  0
  1  5  1  0  0  0  0
  2  6  1  1  0  0  0
  2  3  1  0  0  0  0
  3  8  1  0  0  0  0
  3  4  1  0  0  0  0
  3  7  1  0  0  0  0
  4  9  1  0  0  0  0
  4 10  1  0  0  0  0
  5  4  1  0  0  0  0
 11  5  1  0  0  0  0
 12  5  1  0  0  0  0
 13 14  1  0  0  0  0
 13  1  1  0  0  0  0
 14 19  1  0  0  0  0
 15 20  1  0  0  0  0
 15 14  2  0  0  0  0
 16 15  1  0  0  0  0
 17 16  2  0  0  0  0
 17 18  1  0  0  0  0
 18 13  2  0  0  0  0
 21 17  1  0  0  0  0
 22 23  2  0  0  0  0
 22  2  1  0  0  0  0
 24 25  1  0  0  0  0
 24 22  1  0  0  0  0
 25 26  1  0  0  0  0
 27 25  2  0  0  0  0
 28 27  1  0  0  0  0
 29 28  1  0  0  0  0
 30 28  2  0  0  0  0
 30 32  1  0  0  0  0
 31 30  1  0  0  0  0
 32 24  2  0  0  0  0
M  END
>  <minimizedAffinity>
-5.15147209

$$$$

 OpenBabel03272503253D

 32 34  0  0  1  0  0  0  0  0999 V2000
   34.8760   29.6910   32.7230 N   0  0  0  0  0  0  0  0  0  0  0  0
   35.5260   28.7650   31.8630 C   0  0  1  0  0  0  0  0  0  0  0  0
   36.1720   29.6340   30.7910 C   0  0  0  0  0  0  0  0  0  0  0  0
   35.8020   31.0800   31.2080 C   0  0  0  0  0  0  0  0  0  0  0  0
   35.6800   30.8810   32.7000 C   0  0  0  0  0  0  0  0  0  0  0  0
   34.6650   28.2160   31.2780 H   0  0  0  0  0  0  0  0  0  0  0  0
   35.7690   29.4140   29.7990 H   0  0  0  0  0  0  0  0  0  0  0  0
   37.2730   29.5590   30.8760 H   0  0  0  0  0  0  0  0  0  0  0  0
   34.7900   31.2760   30.7800 H   0  0  0  0  0  0  0  0  0  0  0  0
   36.5770   31.7820   30.9010 H   0  0  0  0  0  0  0  0  0  0  0  0
   36.6920   30.7490   33.1370 H   0  0  0  0  0  0  0  0  0  0  0  0
   35.1590   31.7560   33.1420 H   0  0  0  0  0  0  0  0  0  0  0  0
   33.6750   29.4510   33.4370 C   0  0  0  0  0  0  0  0  0  0  0  0
   33.6350   29.6400   34.8050 C   0  0  0  0  0  0  0  0  0  0  0  0
   32.4480   29.4410   35.5100 C   0  0  0  0  0  0  0  0  0  0  0  0
   31.3610   29.0540   34.7660 N   0  0  0  0  0  0  0  0  0  0  0  0
   31.4160   28.8710   33.4250 C   0  0  0  0  0  0  0  0  0  0  0  0
   32.5830   29.0720   32.7560 N   0  0  0  0  0  0  0  0  0  0  0  0
   34.4680   29.9380   35.3930 H   0  0  0  0  0  0  0  0  0  0  0  0
   32.3880   29.5800   36.5630 H   0  0  0  0  0  0  0  0  0  0  0  0
   30.5070   28.5660   32.9210 H   0  0  0  0  0  0  0  0  0  0  0  0
   36.3200   27.7220   32.4230 C   0  0  0  0  0  0  0  0  0  0  0  0
   36.1290   26.5890   31.9310 O   0  0  0  0  0  0  0  0  0  0  0  0
   37.3300   27.4700   33.4420 C   0  0  0  0  0  0  0  0  0  0  0  0
   38.6140   27.0890   33.1320 C   0  0  0  0  0  0  0  0  0  0  0  0
   38.9920   26.8900   32.1510 H   0  0  0  0  0  0  0  0  0  0  0  0
   39.6520   26.8590   34.0020 C   0  0  0  0  0  3  0  0  0  0  0  0
   39.3860   27.0250   35.3390 C   0  0  0  0  0  0  0  0  0  0  0  0
   40.1060   26.8790   36.1310 H   0  0  0  0  0  0  0  0  0  0  0  0
   38.1380   27.4040   35.7560 C   0  0  0  0  0  0  0  0  0  0  0  0
   37.8890   27.5450   36.7950 H   0  0  0  0  0  0  0  0  0  0  0  0
   37.1780   27.6060   34.8030 C   0  0  0  0  0  3  0  0  0  0  0  0
  1 13  1  0  0  0  0
  2  6  1  6  0  0  0
  2 22  1  0  0  0  0
  2  1  1  0  0  0  0
  3  8  1  0  0  0  0
  3  4  1  0  0  0  0
  3  2  1  0  0  0  0
  4  5  1  0  0  0  0
  5  1  1  0  0  0  0
  5 11  1  0  0  0  0
  5 12  1  0  0  0  0
  7  3  1  0  0  0  0
  9  4  1  0  0  0  0
 10  4  1  0  0  0  0
 13 14  1  0  0  0  0
 14 19  1  0  0  0  0
 14 15  2  0  0  0  0
 15 20  1  0  0  0  0
 16 15  1  0  0  0  0
 17 16  2  0  0  0  0
 18 17  1  0  0  0  0
 18 13  2  0  0  0  0
 21 17  1  0  0  0  0
 22 24  1  0  0  0  0
 23 22  2  0  0  0  0
 24 32  1  0  0  0  0
 25 24  2  0  0  0  0
 25 27  1  0  0  0  0
 26 25  1  0  0  0  0
 27 28  2  0  0  0  0
 28 30  1  0  0  0  0
 28 29  1  0  0  0  0
 30 31  1  0  0  0  0
 32 30  2  0  0  0  0
M  END
>  <minimizedAffinity>
-5.13443613

$$$$

 OpenBabel03272503253D

 32 34  0  0  1  0  0  0  0  0999 V2000
   37.2610   25.2290   32.6140 N   0  0  0  0  0  0  0  0  0  0  0  0
   38.2720   25.6900   33.5010 C   0  0  1  0  0  0  0  0  0  0  0  0
   38.6390   27.0710   32.9720 C   0  0  0  0  0  0  0  0  0  0  0  0
   37.7030   27.2640   31.7510 C   0  0  0  0  0  0  0  0  0  0  0  0
   36.5450   26.4010   32.1910 C   0  0  0  0  0  0  0  0  0  0  0  0
   39.2270   25.0490   33.2560 H   0  0  0  0  0  0  0  0  0  0  0  0
   39.6840   27.1150   32.6540 H   0  0  0  0  0  0  0  0  0  0  0  0
   38.3430   27.8360   33.7140 H   0  0  0  0  0  0  0  0  0  0  0  0
   38.2170   26.7790   30.8870 H   0  0  0  0  0  0  0  0  0  0  0  0
   37.4610   28.3190   31.6120 H   0  0  0  0  0  0  0  0  0  0  0  0
   35.9950   26.9110   33.0080 H   0  0  0  0  0  0  0  0  0  0  0  0
   35.8870   26.2040   31.3190 H   0  0  0  0  0  0  0  0  0  0  0  0
   37.0420   23.8790   32.2450 C   0  0  0  0  0  0  0  0  0  0  0  0
   35.8820   23.5220   31.5850 C   0  0  0  0  0  0  0  0  0  0  0  0
   35.6740   22.2020   31.1850 C   0  0  0  0  0  0  0  0  0  0  0  0
   36.6770   21.3140   31.4890 N   0  0  0  0  0  0  0  0  0  0  0  0
   37.8090   21.6790   32.1380 C   0  0  0  0  0  0  0  0  0  0  0  0
   37.9920   22.9710   32.5170 N   0  0  0  0  0  0  0  0  0  0  0  0
   35.0980   24.1980   31.3440 H   0  0  0  0  0  0  0  0  0  0  0  0
   34.7910   21.9000   30.6760 H   0  0  0  0  0  0  0  0  0  0  0  0
   38.5450   20.9090   32.3340 H   0  0  0  0  0  0  0  0  0  0  0  0
   38.0870   25.5600   34.9090 C   0  0  0  0  0  0  0  0  0  0  0  0
   37.4150   26.4690   35.4410 O   0  0  0  0  0  0  0  0  0  0  0  0
   38.4340   24.7060   36.0380 C   0  0  0  0  0  0  0  0  0  0  0  0
   39.4540   23.7880   35.9820 C   0  0  0  0  0  0  0  0  0  0  0  0
   40.0540   23.5630   35.1240 H   0  0  0  0  0  0  0  0  0  0  0  0
   39.8910   22.9590   36.9880 C   0  0  0  0  0  3  0  0  0  0  0  0
   39.2360   23.0520   38.1920 C   0  0  0  0  0  0  0  0  0  0  0  0
   39.4730   22.4640   39.0660 H   0  0  0  0  0  0  0  0  0  0  0  0
   38.2040   23.9370   38.3540 C   0  0  0  0  0  0  0  0  0  0  0  0
   37.6660   24.0400   39.2820 H   0  0  0  0  0  0  0  0  0  0  0  0
   37.8520   24.7140   37.2850 C   0  0  0  0  0  3  0  0  0  0  0  0
  1  2  1  0  0  0  0
  2  6  1  6  0  0  0
  2 22  1  0  0  0  0
  3  2  1  0  0  0  0
  3  8  1  0  0  0  0
  4  5  1  0  0  0  0
  4  3  1  0  0  0  0
  5  1  1  0  0  0  0
  5 11  1  0  0  0  0
  7  3  1  0  0  0  0
  9  4  1  0  0  0  0
 10  4  1  0  0  0  0
 12  5  1  0  0  0  0
 13 18  1  0  0  0  0
 13  1  1  0  0  0  0
 14 13  2  0  0  0  0
 15 16  2  0  0  0  0
 15 14  1  0  0  0  0
 16 17  1  0  0  0  0
 17 21  1  0  0  0  0
 17 18  2  0  0  0  0
 19 14  1  0  0  0  0
 20 15  1  0  0  0  0
 22 23  2  0  0  0  0
 22 24  1  0  0  0  0
 24 32  1  0  0  0  0
 25 24  2  0  0  0  0
 25 27  1  0  0  0  0
 26 25  1  0  0  0  0
 27 28  2  0  0  0  0
 28 30  1  0  0  0  0
 28 29  1  0  0  0  0
 30 31  1  0  0  0  0
 32 30  2  0  0  0  0
M  END
>  <minimizedAffinity>
-5.06143427

$$$$

 OpenBabel03272503253D

 32 34  0  0  1  0  0  0  0  0999 V2000
   39.1710   24.8380   34.6450 N   0  0  0  0  0  0  0  0  0  0  0  0
   38.1480   24.8180   33.6590 C   0  0  1  0  0  0  0  0  0  0  0  0
   38.3540   26.1070   32.8730 C   0  0  0  0  0  0  0  0  0  0  0  0
   39.5870   26.7620   33.5460 C   0  0  0  0  0  0  0  0  0  0  0  0
   40.2850   25.5180   34.0430 C   0  0  0  0  0  0  0  0  0  0  0  0
   37.1430   25.0160   34.2380 H   0  0  0  0  0  0  0  0  0  0  0  0
   37.4870   26.7680   32.9520 H   0  0  0  0  0  0  0  0  0  0  0  0
   38.6600   25.8590   31.8390 H   0  0  0  0  0  0  0  0  0  0  0  0
   39.1940   27.3370   34.4180 H   0  0  0  0  0  0  0  0  0  0  0  0
   40.1560   27.3490   32.8240 H   0  0  0  0  0  0  0  0  0  0  0  0
   40.7300   24.9780   33.1830 H   0  0  0  0  0  0  0  0  0  0  0  0
   41.0580   25.8080   34.7860 H   0  0  0  0  0  0  0  0  0  0  0  0
   39.0700   24.2910   35.9490 C   0  0  0  0  0  0  0  0  0  0  0  0
   38.0250   24.6600   36.7740 C   0  0  0  0  0  0  0  0  0  0  0  0
   37.8970   24.0980   38.0440 C   0  0  0  0  0  0  0  0  0  0  0  0
   38.8580   23.1840   38.4000 N   0  0  0  0  0  0  0  0  0  0  0  0
   39.8780   22.8340   37.5800 C   0  0  0  0  0  0  0  0  0  0  0  0
   39.9830   23.3920   36.3450 N   0  0  0  0  0  0  0  0  0  0  0  0
   37.2750   25.3650   36.5120 H   0  0  0  0  0  0  0  0  0  0  0  0
   37.1020   24.3630   38.7000 H   0  0  0  0  0  0  0  0  0  0  0  0
   40.5890   22.1040   37.9470 H   0  0  0  0  0  0  0  0  0  0  0  0
   37.9170   23.6270   32.9080 C   0  0  0  0  0  0  0  0  0  0  0  0
   38.7690   23.3820   32.0270 O   0  0  0  0  0  0  0  0  0  0  0  0
   36.9750   22.5240   32.7690 C   0  0  0  0  0  0  0  0  0  0  0  0
   36.7590   21.6080   33.7700 C   0  0  0  0  0  0  0  0  0  0  0  0
   37.2700   21.5660   34.7080 H   0  0  0  0  0  0  0  0  0  0  0  0
   35.8760   20.5530   33.7630 C   0  0  0  0  0  3  0  0  0  0  0  0
   35.1200   20.3890   32.6280 C   0  0  0  0  0  0  0  0  0  0  0  0
   34.3900   19.6060   32.4850 H   0  0  0  0  0  0  0  0  0  0  0  0
   35.2590   21.2480   31.5710 C   0  0  0  0  0  0  0  0  0  0  0  0
   34.6850   21.1520   30.6630 H   0  0  0  0  0  0  0  0  0  0  0  0
   36.1680   22.2630   31.6850 C   0  0  0  0  0  3  0  0  0  0  0  0
  1 13  1  0  0  0  0
  2  6  1  1  0  0  0
  2  1  1  0  0  0  0
  3  7  1  0  0  0  0
  3  4  1  0  0  0  0
  3  2  1  0  0  0  0
  4  5  1  0  0  0  0
  4  9  1  0  0  0  0
  5  1  1  0  0  0  0
  5 12  1  0  0  0  0
  8  3  1  0  0  0  0
 10  4  1  0  0  0  0
 11  5  1  0  0  0  0
 13 18  2  0  0  0  0
 13 14  1  0  0  0  0
 14 15  2  0  0  0  0
 15 16  1  0  0  0  0
 15 20  1  0  0  0  0
 17 21  1  0  0  0  0
 17 16  2  0  0  0  0
 18 17  1  0  0  0  0
 19 14  1  0  0  0  0
 22  2  1  0  0  0  0
 23 22  2  0  0  0  0
 24 22  1  0  0  0  0
 24 25  1  0  0  0  0
 25 26  1  0  0  0  0
 27 25  2  0  0  0  0
 28 27  1  0  0  0  0
 29 28  1  0  0  0  0
 30 32  1  0  0  0  0
 30 28  2  0  0  0  0
 31 30  1  0  0  0  0
 32 24  2  0  0  0  0
M  END
>  <minimizedAffinity>
-5.03992891

$$$$

 OpenBabel03272503253D

 32 34  0  0  1  0  0  0  0  0999 V2000
   38.6270   23.4060   36.2610 N   0  0  0  0  0  0  0  0  0  0  0  0
   38.0340   24.6540   36.5950 C   0  0  1  0  0  0  0  0  0  0  0  0
   37.9270   24.6280   38.1140 C   0  0  0  0  0  0  0  0  0  0  0  0
   38.5410   23.2610   38.5090 C   0  0  0  0  0  0  0  0  0  0  0  0
   39.4990   23.0800   37.3560 C   0  0  0  0  0  0  0  0  0  0  0  0
   36.9120   24.5760   36.2480 H   0  0  0  0  0  0  0  0  0  0  0  0
   36.8870   24.6820   38.4450 H   0  0  0  0  0  0  0  0  0  0  0  0
   38.5930   25.4020   38.5400 H   0  0  0  0  0  0  0  0  0  0  0  0
   37.7160   22.5140   38.4230 H   0  0  0  0  0  0  0  0  0  0  0  0
   39.0120   23.3170   39.4910 H   0  0  0  0  0  0  0  0  0  0  0  0
   40.3530   23.7780   37.4740 H   0  0  0  0  0  0  0  0  0  0  0  0
   39.8390   22.0240   37.3280 H   0  0  0  0  0  0  0  0  0  0  0  0
   38.3770   22.6650   35.0800 C   0  0  0  0  0  0  0  0  0  0  0  0
   39.3210   22.6350   34.0710 C   0  0  0  0  0  0  0  0  0  0  0  0
   39.1000   21.8780   32.9200 C   0  0  0  0  0  0  0  0  0  0  0  0
   37.9120   21.1900   32.8690 N   0  0  0  0  0  0  0  0  0  0  0  0
   36.9970   21.2300   33.8660 C   0  0  0  0  0  0  0  0  0  0  0  0
   37.2320   21.9730   34.9800 N   0  0  0  0  0  0  0  0  0  0  0  0
   40.2430   23.1620   34.0970 H   0  0  0  0  0  0  0  0  0  0  0  0
   39.8080   21.8360   32.1280 H   0  0  0  0  0  0  0  0  0  0  0  0
   36.0880   20.6540   33.7370 H   0  0  0  0  0  0  0  0  0  0  0  0
   38.5260   25.8510   35.9960 C   0  0  0  0  0  0  0  0  0  0  0  0
   38.2990   26.8970   36.6390 O   0  0  0  0  0  0  0  0  0  0  0  0
   39.2310   26.3380   34.8170 C   0  0  0  0  0  0  0  0  0  0  0  0
   40.5570   26.6950   34.8450 C   0  0  0  0  0  0  0  0  0  0  0  0
   41.1890   26.7080   35.7090 H   0  0  0  0  0  0  0  0  0  0  0  0
   41.3290   27.1330   33.7950 C   0  0  0  0  0  3  0  0  0  0  0  0
   40.7100   27.2280   32.5720 C   0  0  0  0  0  0  0  0  0  0  0  0
   41.1940   27.5550   31.6630 H   0  0  0  0  0  0  0  0  0  0  0  0
   39.3890   26.8950   32.4350 C   0  0  0  0  0  0  0  0  0  0  0  0
   38.8680   26.9560   31.4930 H   0  0  0  0  0  0  0  0  0  0  0  0
   38.7160   26.4710   33.5480 C   0  0  0  0  0  3  0  0  0  0  0  0
  1  2  1  0  0  0  0
  1  5  1  0  0  0  0
  2  6  1  6  0  0  0
  2  3  1  0  0  0  0
  3  7  1  0  0  0  0
  3  4  1  0  0  0  0
  3  8  1  0  0  0  0
  4 10  1  0  0  0  0
  5 11  1  0  0  0  0
  5  4  1  0  0  0  0
  9  4  1  0  0  0  0
 12  5  1  0  0  0  0
 13  1  1  0  0  0  0
 14 19  1  0  0  0  0
 14 13  2  0  0  0  0
 15 14  1  0  0  0  0
 16 15  2  0  0  0  0
 16 17  1  0  0  0  0
 17 18  2  0  0  0  0
 18 13  1  0  0  0  0
 20 15  1  0  0  0  0
 21 17  1  0  0  0  0
 22  2  1  0  0  0  0
 22 23  2  0  0  0  0
 24 25  1  0  0  0  0
 24 22  1  0  0  0  0
 25 26  1  0  0  0  0
 27 25  2  0  0  0  0
 28 27  1  0  0  0  0
 29 28  1  0  0  0  0
 30 28  2  0  0  0  0
 30 32  1  0  0  0  0
 31 30  1  0  0  0  0
 32 24  2  0  0  0  0
M  END
>  <minimizedAffinity>
-4.99153852

$$$$

 OpenBabel03272503253D

 32 34  0  0  1  0  0  0  0  0999 V2000
   37.5890   23.2370   32.1070 N   0  0  0  0  0  0  0  0  0  0  0  0
   37.6400   22.6240   33.3880 C   0  0  1  0  0  0  0  0  0  0  0  0
   37.8400   21.1430   33.0910 C   0  0  0  0  0  0  0  0  0  0  0  0
   37.9040   21.0780   31.5430 C   0  0  0  0  0  0  0  0  0  0  0  0
   38.4500   22.4570   31.2620 C   0  0  0  0  0  0  0  0  0  0  0  0
   36.5410   22.6660   33.8050 H   0  0  0  0  0  0  0  0  0  0  0  0
   37.0030   20.5430   33.4580 H   0  0  0  0  0  0  0  0  0  0  0  0
   38.8350   20.8290   33.4560 H   0  0  0  0  0  0  0  0  0  0  0  0
   36.8460   21.0220   31.1920 H   0  0  0  0  0  0  0  0  0  0  0  0
   38.5430   20.2560   31.2170 H   0  0  0  0  0  0  0  0  0  0  0  0
   39.5210   22.4950   31.5530 H   0  0  0  0  0  0  0  0  0  0  0  0
   38.3140   22.6890   30.1850 H   0  0  0  0  0  0  0  0  0  0  0  0
   36.8260   24.3830   31.7720 C   0  0  0  0  0  0  0  0  0  0  0  0
   35.5750   24.2390   31.2020 C   0  0  0  0  0  0  0  0  0  0  0  0
   34.8020   25.3610   30.9030 C   0  0  0  0  0  0  0  0  0  0  0  0
   35.3610   26.5780   31.2060 N   0  0  0  0  0  0  0  0  0  0  0  0
   36.5890   26.7040   31.7640 C   0  0  0  0  0  0  0  0  0  0  0  0
   37.3260   25.5970   32.0490 N   0  0  0  0  0  0  0  0  0  0  0  0
   35.1310   23.3040   30.9610 H   0  0  0  0  0  0  0  0  0  0  0  0
   33.8360   25.2790   30.4640 H   0  0  0  0  0  0  0  0  0  0  0  0
   36.9470   27.7050   31.9690 H   0  0  0  0  0  0  0  0  0  0  0  0
   38.4500   23.1980   34.4120 C   0  0  0  0  0  0  0  0  0  0  0  0
   39.4400   23.8440   34.0060 O   0  0  0  0  0  0  0  0  0  0  0  0
   38.5670   23.2980   35.8610 C   0  0  0  0  0  0  0  0  0  0  0  0
   39.6040   22.7270   36.5590 C   0  0  0  0  0  0  0  0  0  0  0  0
   40.3850   22.1230   36.1460 H   0  0  0  0  0  0  0  0  0  0  0  0
   39.8330   22.7850   37.9130 C   0  0  0  0  0  3  0  0  0  0  0  0
   38.9270   23.4940   38.6630 C   0  0  0  0  0  0  0  0  0  0  0  0
   38.9840   23.6220   39.7340 H   0  0  0  0  0  0  0  0  0  0  0  0
   37.8560   24.1020   38.0650 C   0  0  0  0  0  0  0  0  0  0  0  0
   37.1230   24.6670   38.6180 H   0  0  0  0  0  0  0  0  0  0  0  0
   37.7240   23.9800   36.7090 C   0  0  0  0  0  3  0  0  0  0  0  0
  1  2  1  0  0  0  0
  2  6  1  1  0  0  0
  2 22  1  0  0  0  0
  3  2  1  0  0  0  0
  3  8  1  0  0  0  0
  3  7  1  0  0  0  0
  4  3  1  0  0  0  0
  5  4  1  0  0  0  0
  5 11  1  0  0  0  0
  5  1  1  0  0  0  0
  9  4  1  0  0  0  0
 10  4  1  0  0  0  0
 12  5  1  0  0  0  0
 13 18  1  0  0  0  0
 13  1  1  0  0  0  0
 14 13  2  0  0  0  0
 15 14  1  0  0  0  0
 15 16  2  0  0  0  0
 16 17  1  0  0  0  0
 17 21  1  0  0  0  0
 17 18  2  0  0  0  0
 19 14  1  0  0  0  0
 20 15  1  0  0  0  0
 22 24  1  0  0  0  0
 23 22  2  0  0  0  0
 24 25  2  0  0  0  0
 24 32  1  0  0  0  0
 25 27  1  0  0  0  0
 26 25  1  0  0  0  0
 27 28  2  0  0  0  0
 28 29  1  0  0  0  0
 30 31  1  0  0  0  0
 30 28  1  0  0  0  0
 32 30  2  0  0  0  0
M  END
>  <minimizedAffinity>
-4.98993206

$$$$

 OpenBabel03272503253D

 32 34  0  0  1  0  0  0  0  0999 V2000
   37.2260   25.2190   32.5080 N   0  0  0  0  0  0  0  0  0  0  0  0
   38.2080   25.6760   33.4270 C   0  0  1  0  0  0  0  0  0  0  0  0
   38.5300   27.0910   32.9640 C   0  0  0  0  0  0  0  0  0  0  0  0
   37.6020   27.3040   31.7410 C   0  0  0  0  0  0  0  0  0  0  0  0
   36.4720   26.3810   32.1270 C   0  0  0  0  0  0  0  0  0  0  0  0
   39.1900   25.0810   33.1670 H   0  0  0  0  0  0  0  0  0  0  0  0
   39.5770   27.1870   32.6630 H   0  0  0  0  0  0  0  0  0  0  0  0
   38.1980   27.8110   33.7350 H   0  0  0  0  0  0  0  0  0  0  0  0
   38.1430   26.8770   30.8630 H   0  0  0  0  0  0  0  0  0  0  0  0
   37.3230   28.3540   31.6450 H   0  0  0  0  0  0  0  0  0  0  0  0
   35.8940   26.8340   32.9590 H   0  0  0  0  0  0  0  0  0  0  0  0
   35.8310   26.2000   31.2390 H   0  0  0  0  0  0  0  0  0  0  0  0
   37.0610   23.8790   32.0760 C   0  0  0  0  0  0  0  0  0  0  0  0
   38.1220   22.9950   32.1430 C   0  0  0  0  0  0  0  0  0  0  0  0
   37.9580   21.6650   31.7550 C   0  0  0  0  0  0  0  0  0  0  0  0
   36.7050   21.3140   31.3160 N   0  0  0  0  0  0  0  0  0  0  0  0
   35.6750   22.1920   31.2560 C   0  0  0  0  0  0  0  0  0  0  0  0
   35.8550   23.4830   31.6390 N   0  0  0  0  0  0  0  0  0  0  0  0
   39.0960   23.2540   32.4800 H   0  0  0  0  0  0  0  0  0  0  0  0
   38.7570   20.9640   31.7960 H   0  0  0  0  0  0  0  0  0  0  0  0
   34.7220   21.8240   30.8960 H   0  0  0  0  0  0  0  0  0  0  0  0
   38.0120   25.4760   34.8250 C   0  0  0  0  0  0  0  0  0  0  0  0
   37.2350   26.2880   35.3720 O   0  0  0  0  0  0  0  0  0  0  0  0
   38.4290   24.6250   35.9330 C   0  0  0  0  0  0  0  0  0  0  0  0
   39.5160   23.7890   35.8520 C   0  0  0  0  0  0  0  0  0  0  0  0
   40.1270   23.6310   34.9880 H   0  0  0  0  0  0  0  0  0  0  0  0
   40.0190   22.9730   36.8370 C   0  0  0  0  0  3  0  0  0  0  0  0
   39.3650   22.9880   38.0450 C   0  0  0  0  0  0  0  0  0  0  0  0
   39.6500   22.3990   38.9050 H   0  0  0  0  0  0  0  0  0  0  0  0
   38.2690   23.7870   38.2300 C   0  0  0  0  0  0  0  0  0  0  0  0
   37.7290   23.8270   39.1630 H   0  0  0  0  0  0  0  0  0  0  0  0
   37.8540   24.5600   37.1810 C   0  0  0  0  0  3  0  0  0  0  0  0
  1  2  1  0  0  0  0
  2  6  1  6  0  0  0
  2 22  1  0  0  0  0
  3  2  1  0  0  0  0
  3  8  1  0  0  0  0
  4  5  1  0  0  0  0
  4  3  1  0  0  0  0
  5  1  1  0  0  0  0
  5 11  1  0  0  0  0
  7  3  1  0  0  0  0
  9  4  1  0  0  0  0
 10  4  1  0  0  0  0
 12  5  1  0  0  0  0
 13 14  1  0  0  0  0
 13  1  1  0  0  0  0
 14 19  1  0  0  0  0
 15 20  1  0  0  0  0
 15 14  2  0  0  0  0
 16 15  1  0  0  0  0
 17 16  2  0  0  0  0
 17 18  1  0  0  0  0
 18 13  2  0  0  0  0
 21 17  1  0  0  0  0
 22 23  2  0  0  0  0
 22 24  1  0  0  0  0
 24 32  1  0  0  0  0
 25 24  2  0  0  0  0
 25 27  1  0  0  0  0
 26 25  1  0  0  0  0
 27 28  2  0  0  0  0
 28 30  1  0  0  0  0
 28 29  1  0  0  0  0
 30 31  1  0  0  0  0
 32 30  2  0  0  0  0
M  END
>  <minimizedAffinity>
-4.9861331

$$$$
