
 OpenBabel03272508583D

 40 43  0  0  1  0  0  0  0  0999 V2000
   38.3640   31.8630   44.5300 C   0  0  0  0  0  0  0  0  0  0  0  0
   37.2870   32.4420   44.4150 O   0  0  0  0  0  0  0  0  0  0  0  0
   38.9260   31.5550   45.8310 N   0  0  0  0  0  0  0  0  0  0  0  0
   39.8900   31.2630   46.0030 H   0  0  0  0  0  0  0  0  0  0  0  0
   39.1490   31.4460   43.3350 C   0  0  0  0  0  0  0  0  0  0  0  0
   40.1360   30.4940   43.4920 C   0  0  0  0  0  0  0  0  0  0  0  0
   40.8660   30.1340   42.3730 C   0  0  0  0  0  0  0  0  0  0  0  0
   40.5590   30.7490   41.1780 C   0  0  0  0  0  0  0  0  0  0  0  0
   39.5710   31.7000   41.0180 C   0  0  0  0  0  0  0  0  0  0  0  0
   38.9030   32.0040   42.1430 N   0  0  0  0  0  0  0  0  0  0  0  0
   40.3370   30.0310   44.4560 H   0  0  0  0  0  0  0  0  0  0  0  0
   41.6170   29.3910   42.5280 H   0  0  0  0  0  0  0  0  0  0  0  0
   41.2140   30.3970   40.4090 H   0  0  0  0  0  0  0  0  0  0  0  0
   39.2620   32.3190   39.7280 C   0  0  2  0  0  3  0  0  0  0  0  0
   38.5550   33.3940   39.7670 O   0  0  0  0  0  1  0  0  0  0  0  0
   39.5820   31.9850   38.3520 C   0  0  0  0  0  0  0  0  0  0  0  0
   40.4860   32.6190   37.5280 C   0  0  0  0  0  0  0  0  0  0  0  0
   41.0430   33.4780   37.8390 H   0  0  0  0  0  0  0  0  0  0  0  0
   40.7780   32.2410   36.2390 C   0  0  0  0  0  3  0  0  0  0  0  0
   40.1310   31.1490   35.7130 C   0  0  0  0  0  0  0  0  0  0  0  0
   40.3560   30.8330   34.6810 H   0  0  0  0  0  0  0  0  0  0  0  0
   39.2130   30.4580   36.4630 C   0  0  0  0  0  0  0  0  0  0  0  0
   38.6870   29.5760   36.0750 H   0  0  0  0  0  0  0  0  0  0  0  0
   38.9520   30.8750   37.7510 C   0  0  0  0  0  3  0  0  0  0  0  0
   38.4130   31.0800   48.2220 C   0  0  2  0  0  0  0  0  0  0  0  0
   38.6590   32.5460   48.1130 C   0  0  0  0  0  0  0  0  0  0  0  0
   38.0590   31.6750   46.9750 C   0  0  1  0  0  0  0  0  0  0  0  0
   39.3840   30.5100   48.3240 H   0  0  0  0  0  0  0  0  0  0  0  0
   39.6750   32.9290   47.9910 H   0  0  0  0  0  0  0  0  0  0  0  0
   37.9420   33.1550   48.7120 H   0  0  0  0  0  0  0  0  0  0  0  0
   36.9810   31.9060   46.7770 H   0  0  0  0  0  0  0  0  0  0  0  0
   35.0690   30.2190   49.5500 C   0  0  0  0  0  0  0  0  0  0  0  0
   35.3760   29.5520   50.7630 C   0  0  0  0  0  0  0  0  0  0  0  0
   36.7600   29.4200   51.1000 C   0  0  0  0  0  0  0  0  0  0  0  0
   37.7340   29.9280   50.2660 N   0  0  0  0  0  0  0  0  0  0  0  0
   37.3330   30.5550   49.1210 C   0  0  0  0  0  0  0  0  0  0  0  0
   36.0240   30.7130   48.7420 N   0  0  0  0  0  0  0  0  0  0  0  0
   34.0520   30.3650   49.2080 H   0  0  0  0  0  0  0  0  0  0  0  0
   34.5940   29.1840   51.3730 H   0  0  0  0  0  0  0  0  0  0  0  0
   37.0060   28.9100   52.0360 H   0  0  0  0  0  0  0  0  0  0  0  0
  1  3  1  0  0  0  0
  2  1  2  0  0  0  0
  3  4  1  0  0  0  0
  3 27  1  0  0  0  0
  5  6  1  0  0  0  0
  5  1  1  0  0  0  0
  6 11  1  0  0  0  0
  7 12  1  0  0  0  0
  7  6  2  0  0  0  0
  8  7  1  0  0  0  0
  9  8  2  0  0  0  0
  9 10  1  0  0  0  0
 10  5  2  0  0  0  0
 13  8  1  0  0  0  0
 14 15  1  6  0  0  0
 14  9  1  0  0  0  0
 16 14  1  0  0  0  0
 17 18  1  0  0  0  0
 17 16  2  0  0  0  0
 19 17  1  0  0  0  0
 20 19  2  0  0  0  0
 20 22  1  0  0  0  0
 21 20  1  0  0  0  0
 22 24  2  0  0  0  0
 23 22  1  0  0  0  0
 24 16  1  0  0  0  0
 25 28  1  6  0  0  0
 25 36  1  0  0  0  0
 26 25  1  0  0  0  0
 26 30  1  0  0  0  0
 27 31  1  6  0  0  0
 27 26  1  0  0  0  0
 27 25  1  0  0  0  0
 29 26  1  0  0  0  0
 32 33  1  0  0  0  0
 33 34  2  0  0  0  0
 33 39  1  0  0  0  0
 34 40  1  0  0  0  0
 35 34  1  0  0  0  0
 36 35  2  0  0  0  0
 37 36  1  0  0  0  0
 37 32  2  0  0  0  0
 38 32  1  0  0  0  0
M  END
>  <minimizedAffinity>
-4.92912865

>  <minimizedRMSD>
0.657271683

$$$$
