
 OpenBabel03272508583D

 40 43  0  0  1  0  0  0  0  0999 V2000
   38.3630   31.8630   44.5290 C   0  0  0  0  0  0  0  0  0  0  0  0
   37.2860   32.4410   44.4140 O   0  0  0  0  0  0  0  0  0  0  0  0
   38.9270   31.5560   45.8310 N   0  0  0  0  0  0  0  0  0  0  0  0
   39.8900   31.2650   46.0030 H   0  0  0  0  0  0  0  0  0  0  0  0
   39.1490   31.4460   43.3350 C   0  0  0  0  0  0  0  0  0  0  0  0
   40.1360   30.4940   43.4920 C   0  0  0  0  0  0  0  0  0  0  0  0
   40.8650   30.1350   42.3730 C   0  0  0  0  0  0  0  0  0  0  0  0
   40.5590   30.7490   41.1780 C   0  0  0  0  0  0  0  0  0  0  0  0
   39.5710   31.7010   41.0170 C   0  0  0  0  0  0  0  0  0  0  0  0
   38.9030   32.0040   42.1420 N   0  0  0  0  0  0  0  0  0  0  0  0
   40.3370   30.0310   44.4560 H   0  0  0  0  0  0  0  0  0  0  0  0
   41.6170   29.3920   42.5270 H   0  0  0  0  0  0  0  0  0  0  0  0
   41.2140   30.3980   40.4090 H   0  0  0  0  0  0  0  0  0  0  0  0
   39.2620   32.3200   39.7280 C   0  0  2  0  0  3  0  0  0  0  0  0
   38.5560   33.3960   39.7670 O   0  0  0  0  0  1  0  0  0  0  0  0
   39.5820   31.9860   38.3520 C   0  0  0  0  0  0  0  0  0  0  0  0
   40.4860   32.6180   37.5270 C   0  0  0  0  0  0  0  0  0  0  0  0
   41.0440   33.4770   37.8360 H   0  0  0  0  0  0  0  0  0  0  0  0
   40.7770   32.2380   36.2380 C   0  0  0  0  0  3  0  0  0  0  0  0
   40.1300   31.1470   35.7140 C   0  0  0  0  0  0  0  0  0  0  0  0
   40.3530   30.8280   34.6820 H   0  0  0  0  0  0  0  0  0  0  0  0
   39.2110   30.4560   36.4640 C   0  0  0  0  0  0  0  0  0  0  0  0
   38.6850   29.5730   36.0780 H   0  0  0  0  0  0  0  0  0  0  0  0
   38.9510   30.8750   37.7530 C   0  0  0  0  0  3  0  0  0  0  0  0
   38.4130   31.0800   48.2210 C   0  0  2  0  0  0  0  0  0  0  0  0
   38.6590   32.5460   48.1140 C   0  0  0  0  0  0  0  0  0  0  0  0
   38.0590   31.6760   46.9750 C   0  0  1  0  0  0  0  0  0  0  0  0
   39.3830   30.5090   48.3220 H   0  0  0  0  0  0  0  0  0  0  0  0
   39.6760   32.9290   47.9910 H   0  0  0  0  0  0  0  0  0  0  0  0
   37.9430   33.1540   48.7130 H   0  0  0  0  0  0  0  0  0  0  0  0
   36.9810   31.9070   46.7770 H   0  0  0  0  0  0  0  0  0  0  0  0
   35.0690   30.2210   49.5490 C   0  0  0  0  0  0  0  0  0  0  0  0
   35.3750   29.5520   50.7610 C   0  0  0  0  0  0  0  0  0  0  0  0
   36.7590   29.4170   51.0980 C   0  0  0  0  0  0  0  0  0  0  0  0
   37.7330   29.9250   50.2630 N   0  0  0  0  0  0  0  0  0  0  0  0
   37.3330   30.5550   49.1200 C   0  0  0  0  0  0  0  0  0  0  0  0
   36.0240   30.7160   48.7420 N   0  0  0  0  0  0  0  0  0  0  0  0
   34.0510   30.3690   49.2080 H   0  0  0  0  0  0  0  0  0  0  0  0
   34.5930   29.1830   51.3710 H   0  0  0  0  0  0  0  0  0  0  0  0
   37.0050   28.9040   52.0320 H   0  0  0  0  0  0  0  0  0  0  0  0
  1  3  1  0  0  0  0
  2  1  2  0  0  0  0
  3  4  1  0  0  0  0
  3 27  1  0  0  0  0
  5  6  1  0  0  0  0
  5  1  1  0  0  0  0
  6 11  1  0  0  0  0
  7 12  1  0  0  0  0
  7  6  2  0  0  0  0
  8  7  1  0  0  0  0
  9  8  2  0  0  0  0
  9 10  1  0  0  0  0
 10  5  2  0  0  0  0
 13  8  1  0  0  0  0
 14 15  1  6  0  0  0
 14  9  1  0  0  0  0
 16 14  1  0  0  0  0
 17 18  1  0  0  0  0
 17 16  2  0  0  0  0
 19 17  1  0  0  0  0
 20 19  2  0  0  0  0
 20 22  1  0  0  0  0
 21 20  1  0  0  0  0
 22 24  2  0  0  0  0
 23 22  1  0  0  0  0
 24 16  1  0  0  0  0
 25 28  1  6  0  0  0
 25 36  1  0  0  0  0
 26 25  1  0  0  0  0
 26 30  1  0  0  0  0
 27 31  1  6  0  0  0
 27 26  1  0  0  0  0
 27 25  1  0  0  0  0
 29 26  1  0  0  0  0
 32 33  1  0  0  0  0
 33 34  2  0  0  0  0
 33 39  1  0  0  0  0
 34 40  1  0  0  0  0
 35 34  1  0  0  0  0
 36 35  2  0  0  0  0
 37 36  1  0  0  0  0
 37 32  2  0  0  0  0
 38 32  1  0  0  0  0
M  END
>  <minimizedAffinity>
-4.92909956

>  <minimizedRMSD>
0.803378046

$$$$
