
 OpenBabel03272508583D

 40 43  0  0  1  0  0  0  0  0999 V2000
   38.3640   31.8630   44.5290 C   0  0  0  0  0  0  0  0  0  0  0  0
   37.2880   32.4420   44.4140 O   0  0  0  0  0  0  0  0  0  0  0  0
   38.9270   31.5550   45.8310 N   0  0  0  0  0  0  0  0  0  0  0  0
   39.8900   31.2620   46.0030 H   0  0  0  0  0  0  0  0  0  0  0  0
   39.1500   31.4460   43.3340 C   0  0  0  0  0  0  0  0  0  0  0  0
   40.1360   30.4940   43.4910 C   0  0  0  0  0  0  0  0  0  0  0  0
   40.8660   30.1340   42.3720 C   0  0  0  0  0  0  0  0  0  0  0  0
   40.5590   30.7490   41.1770 C   0  0  0  0  0  0  0  0  0  0  0  0
   39.5710   31.7000   41.0170 C   0  0  0  0  0  0  0  0  0  0  0  0
   38.9030   32.0040   42.1420 N   0  0  0  0  0  0  0  0  0  0  0  0
   40.3380   30.0310   44.4550 H   0  0  0  0  0  0  0  0  0  0  0  0
   41.6170   29.3910   42.5270 H   0  0  0  0  0  0  0  0  0  0  0  0
   41.2140   30.3970   40.4080 H   0  0  0  0  0  0  0  0  0  0  0  0
   39.2630   32.3190   39.7280 C   0  0  2  0  0  3  0  0  0  0  0  0
   38.5560   33.3940   39.7670 O   0  0  0  0  0  1  0  0  0  0  0  0
   39.5830   31.9860   38.3510 C   0  0  0  0  0  0  0  0  0  0  0  0
   40.4870   32.6200   37.5270 C   0  0  0  0  0  0  0  0  0  0  0  0
   41.0440   33.4790   37.8380 H   0  0  0  0  0  0  0  0  0  0  0  0
   40.7780   32.2420   36.2380 C   0  0  0  0  0  3  0  0  0  0  0  0
   40.1320   31.1500   35.7130 C   0  0  0  0  0  0  0  0  0  0  0  0
   40.3570   30.8330   34.6810 H   0  0  0  0  0  0  0  0  0  0  0  0
   39.2140   30.4580   36.4620 C   0  0  0  0  0  0  0  0  0  0  0  0
   38.6880   29.5750   36.0740 H   0  0  0  0  0  0  0  0  0  0  0  0
   38.9530   30.8760   37.7510 C   0  0  0  0  0  3  0  0  0  0  0  0
   38.4130   31.0800   48.2210 C   0  0  2  0  0  0  0  0  0  0  0  0
   38.6590   32.5450   48.1130 C   0  0  0  0  0  0  0  0  0  0  0  0
   38.0590   31.6750   46.9740 C   0  0  1  0  0  0  0  0  0  0  0  0
   39.3840   30.5090   48.3230 H   0  0  0  0  0  0  0  0  0  0  0  0
   39.6760   32.9280   47.9910 H   0  0  0  0  0  0  0  0  0  0  0  0
   37.9430   33.1540   48.7120 H   0  0  0  0  0  0  0  0  0  0  0  0
   36.9820   31.9060   46.7760 H   0  0  0  0  0  0  0  0  0  0  0  0
   35.0690   30.2210   49.5500 C   0  0  0  0  0  0  0  0  0  0  0  0
   35.3760   29.5520   50.7610 C   0  0  0  0  0  0  0  0  0  0  0  0
   36.7600   29.4180   51.0980 C   0  0  0  0  0  0  0  0  0  0  0  0
   37.7340   29.9260   50.2630 N   0  0  0  0  0  0  0  0  0  0  0  0
   37.3330   30.5550   49.1200 C   0  0  0  0  0  0  0  0  0  0  0  0
   36.0240   30.7150   48.7420 N   0  0  0  0  0  0  0  0  0  0  0  0
   34.0510   30.3690   49.2090 H   0  0  0  0  0  0  0  0  0  0  0  0
   34.5930   29.1830   51.3710 H   0  0  0  0  0  0  0  0  0  0  0  0
   37.0060   28.9050   52.0330 H   0  0  0  0  0  0  0  0  0  0  0  0
  1  3  1  0  0  0  0
  2  1  2  0  0  0  0
  3  4  1  0  0  0  0
  3 27  1  0  0  0  0
  5  6  1  0  0  0  0
  5  1  1  0  0  0  0
  6 11  1  0  0  0  0
  7 12  1  0  0  0  0
  7  6  2  0  0  0  0
  8  7  1  0  0  0  0
  9  8  2  0  0  0  0
  9 10  1  0  0  0  0
 10  5  2  0  0  0  0
 13  8  1  0  0  0  0
 14 15  1  6  0  0  0
 14  9  1  0  0  0  0
 16 14  1  0  0  0  0
 17 18  1  0  0  0  0
 17 16  2  0  0  0  0
 19 17  1  0  0  0  0
 20 19  2  0  0  0  0
 20 22  1  0  0  0  0
 21 20  1  0  0  0  0
 22 24  2  0  0  0  0
 23 22  1  0  0  0  0
 24 16  1  0  0  0  0
 25 28  1  6  0  0  0
 25 36  1  0  0  0  0
 26 25  1  0  0  0  0
 26 30  1  0  0  0  0
 27 31  1  6  0  0  0
 27 26  1  0  0  0  0
 27 25  1  0  0  0  0
 29 26  1  0  0  0  0
 32 33  1  0  0  0  0
 33 34  2  0  0  0  0
 33 39  1  0  0  0  0
 34 40  1  0  0  0  0
 35 34  1  0  0  0  0
 36 35  2  0  0  0  0
 37 36  1  0  0  0  0
 37 32  2  0  0  0  0
 38 32  1  0  0  0  0
M  END
>  <minimizedAffinity>
-4.92915678

>  <minimizedRMSD>
0.626532555

$$$$
