
 OpenBabel03272507423D

 41 44  0  0  0  0  0  0  0  0999 V2000
   36.6300   31.1760   50.0810 C   0  0  0  0  0  0  0  0  0  0  0  0
   35.5590   30.3130   49.8490 C   0  0  0  0  0  0  0  0  0  0  0  0
   35.3530   29.1930   50.6340 C   0  0  0  0  0  0  0  0  0  0  0  0
   36.2390   28.9690   51.6430 N   0  0  0  0  0  0  0  0  0  0  0  0
   37.2830   29.8200   51.8590 C   0  0  0  0  0  0  0  0  0  0  0  0
   37.4540   30.8860   51.0900 N   0  0  0  0  0  0  0  0  0  0  0  0
   34.5500   28.4810   50.5170 H   0  0  0  0  0  0  0  0  0  0  0  0
   38.0050   29.6640   52.6580 H   0  0  0  0  0  0  0  0  0  0  0  0
   34.2380   29.3540   48.0080 C   0  0  0  0  0  0  0  0  0  0  0  0
   34.7350   28.1690   47.8930 O   0  0  0  0  0  0  0  0  0  0  0  0
   34.5990   30.4380   48.8400 N   0  0  0  0  0  0  0  0  0  0  0  0
   34.2340   31.4060   48.8200 H   0  0  0  0  0  0  0  0  0  0  0  0
   33.1080   29.5560   47.1010 C   0  0  0  0  0  0  0  0  0  0  0  0
   32.0790   28.6520   46.9330 C   0  0  0  0  0  0  0  0  0  0  0  0
   32.0660   27.7240   47.4850 H   0  0  0  0  0  0  0  0  0  0  0  0
   31.0080   28.8200   46.0870 C   0  0  0  0  0  3  0  0  0  0  0  0
   30.9290   29.9660   45.3390 C   0  0  0  0  0  0  0  0  0  0  0  0
   30.1120   30.1490   44.6600 H   0  0  0  0  0  0  0  0  0  0  0  0
   31.9160   30.9200   45.4470 C   0  0  0  0  0  0  0  0  0  0  0  0
   31.8620   31.8290   44.8580 H   0  0  0  0  0  0  0  0  0  0  0  0
   32.9390   30.6720   46.3080 C   0  0  0  0  0  3  0  0  0  0  0  0
   36.6630   32.2080   49.2160 O   0  0  0  0  0  0  0  0  0  0  0  0
   38.1760   32.1950   47.2620 C   0  0  0  0  0  0  0  0  0  0  0  0
   37.7830   32.6230   48.5250 C   0  0  0  0  0  0  0  0  0  0  0  0
   38.5440   33.5520   49.2050 C   0  0  0  0  0  0  0  0  0  0  0  0
   39.7000   34.0600   48.6340 C   0  0  0  0  0  0  0  0  0  0  0  0
   40.0860   33.6280   47.3720 C   0  0  0  0  0  0  0  0  0  0  0  0
   39.3080   32.7050   46.7230 C   0  0  0  0  0  0  0  0  0  0  0  0
   38.2970   33.9280   50.1890 H   0  0  0  0  0  0  0  0  0  0  0  0
   40.3170   34.7920   49.1470 H   0  0  0  0  0  0  0  0  0  0  0  0
   40.9850   34.0120   46.9070 H   0  0  0  0  0  0  0  0  0  0  0  0
   39.7330   32.2510   45.3750 C   0  0  0  0  0  0  0  0  0  0  0  0
   40.5660   31.2110   45.0220 C   0  0  0  0  0  0  0  0  0  0  0  0
   40.6450   31.2000   43.6330 C   0  0  0  0  0  0  0  0  0  0  0  0
   39.8430   32.2490   43.2190 C   0  0  0  0  0  0  0  0  0  0  0  0
   39.3160   32.8540   44.2700 O   0  0  0  0  0  0  0  0  0  0  0  0
   41.0200   30.5820   45.7710 H   0  0  0  0  0  0  0  0  0  0  0  0
   41.2370   30.4780   43.1070 H   0  0  0  0  0  0  0  0  0  0  0  0
   39.7010   32.5010   42.1660 H   0  0  0  0  0  0  0  0  0  0  0  0
   36.6770   30.4610   46.0860 N   0  0  0  0  0  0  0  0  0  0  0  0
   37.3410   31.2350   46.6210 C   0  0  0  0  0  0  0  0  0  0  0  0
  1  6  1  0  0  0  0
  2  1  2  0  0  0  0
  2  3  1  0  0  0  0
  3  4  2  0  0  0  0
  4  5  1  0  0  0  0
  5  8  1  0  0  0  0
  6  5  2  0  0  0  0
  7  3  1  0  0  0  0
  9 11  1  0  0  0  0
 10  9  2  0  0  0  0
 11  2  1  0  0  0  0
 12 11  1  0  0  0  0
 13  9  1  0  0  0  0
 14 13  1  0  0  0  0
 14 15  1  0  0  0  0
 16 14  2  0  0  0  0
 17 19  2  0  0  0  0
 17 16  1  0  0  0  0
 18 17  1  0  0  0  0
 19 21  1  0  0  0  0
 20 19  1  0  0  0  0
 21 13  2  0  0  0  0
 22  1  1  0  0  0  0
 23 24  1  0  0  0  0
 24 25  2  0  0  0  0
 24 22  1  0  0  0  0
 25 29  1  0  0  0  0
 26 30  1  0  0  0  0
 26 25  1  0  0  0  0
 27 26  2  0  0  0  0
 28 23  2  0  0  0  0
 28 27  1  0  0  0  0
 31 27  1  0  0  0  0
 32 28  1  0  0  0  0
 33 32  2  0  0  0  0
 33 37  1  0  0  0  0
 34 33  1  0  0  0  0
 35 34  2  0  0  0  0
 35 36  1  0  0  0  0
 36 32  1  0  0  0  0
 38 34  1  0  0  0  0
 39 35  1  0  0  0  0
 40 41  3  0  0  0  0
 41 23  1  0  0  0  0
M  END
>  <minimizedAffinity>
-6.05853891

>  <minimizedRMSD>
0.420387864

$$$$
