
 OpenBabel03272507423D

 41 44  0  0  0  0  0  0  0  0999 V2000
   36.7680   31.2020   50.1060 C   0  0  0  0  0  0  0  0  0  0  0  0
   35.7310   30.3030   49.8620 C   0  0  0  0  0  0  0  0  0  0  0  0
   35.5560   29.1740   50.6420 C   0  0  0  0  0  0  0  0  0  0  0  0
   36.4400   28.9790   51.6590 N   0  0  0  0  0  0  0  0  0  0  0  0
   37.4510   29.8640   51.8870 C   0  0  0  0  0  0  0  0  0  0  0  0
   37.5920   30.9380   51.1220 N   0  0  0  0  0  0  0  0  0  0  0  0
   34.7790   28.4350   50.5160 H   0  0  0  0  0  0  0  0  0  0  0  0
   38.1710   29.7320   52.6920 H   0  0  0  0  0  0  0  0  0  0  0  0
   34.3240   29.2640   48.1310 C   0  0  0  0  0  0  0  0  0  0  0  0
   34.7250   28.0380   48.1420 O   0  0  0  0  0  0  0  0  0  0  0  0
   34.7760   30.3970   48.8440 N   0  0  0  0  0  0  0  0  0  0  0  0
   34.4890   31.3830   48.7210 H   0  0  0  0  0  0  0  0  0  0  0  0
   33.2070   29.4580   47.2050 C   0  0  0  0  0  0  0  0  0  0  0  0
   32.1700   28.5630   47.0460 C   0  0  0  0  0  0  0  0  0  0  0  0
   32.1400   27.6480   47.6180 H   0  0  0  0  0  0  0  0  0  0  0  0
   31.1100   28.7250   46.1830 C   0  0  0  0  0  3  0  0  0  0  0  0
   31.0540   29.8540   45.4080 C   0  0  0  0  0  0  0  0  0  0  0  0
   30.2470   30.0320   44.7170 H   0  0  0  0  0  0  0  0  0  0  0  0
   32.0510   30.8000   45.5070 C   0  0  0  0  0  0  0  0  0  0  0  0
   32.0140   31.6940   44.8990 H   0  0  0  0  0  0  0  0  0  0  0  0
   33.0610   30.5590   46.3860 C   0  0  0  0  0  3  0  0  0  0  0  0
   36.7740   32.2370   49.2430 O   0  0  0  0  0  0  0  0  0  0  0  0
   38.2420   32.2320   47.2560 C   0  0  0  0  0  0  0  0  0  0  0  0
   37.8740   32.6600   48.5270 C   0  0  0  0  0  0  0  0  0  0  0  0
   38.6400   33.6000   49.1860 C   0  0  0  0  0  0  0  0  0  0  0  0
   39.7770   34.1180   48.5870 C   0  0  0  0  0  0  0  0  0  0  0  0
   40.1400   33.6840   47.3180 C   0  0  0  0  0  0  0  0  0  0  0  0
   39.3570   32.7510   46.6900 C   0  0  0  0  0  0  0  0  0  0  0  0
   38.4120   33.9770   50.1740 H   0  0  0  0  0  0  0  0  0  0  0  0
   40.3980   34.8570   49.0840 H   0  0  0  0  0  0  0  0  0  0  0  0
   41.0250   34.0760   46.8320 H   0  0  0  0  0  0  0  0  0  0  0  0
   39.7560   32.2970   45.3340 C   0  0  0  0  0  0  0  0  0  0  0  0
   40.5900   31.2630   44.9670 C   0  0  0  0  0  0  0  0  0  0  0  0
   40.6390   31.2490   43.5760 C   0  0  0  0  0  0  0  0  0  0  0  0
   39.8200   32.2900   43.1770 C   0  0  0  0  0  0  0  0  0  0  0  0
   39.3100   32.8930   44.2370 O   0  0  0  0  0  0  0  0  0  0  0  0
   41.0660   30.6400   45.7070 H   0  0  0  0  0  0  0  0  0  0  0  0
   41.2250   30.5300   43.0390 H   0  0  0  0  0  0  0  0  0  0  0  0
   39.6520   32.5370   42.1260 H   0  0  0  0  0  0  0  0  0  0  0  0
   36.7350   30.4790   46.1200 N   0  0  0  0  0  0  0  0  0  0  0  0
   37.4030   31.2610   46.6370 C   0  0  0  0  0  0  0  0  0  0  0  0
  1  6  1  0  0  0  0
  2  1  2  0  0  0  0
  2  3  1  0  0  0  0
  3  4  2  0  0  0  0
  4  5  1  0  0  0  0
  5  8  1  0  0  0  0
  6  5  2  0  0  0  0
  7  3  1  0  0  0  0
  9 10  2  0  0  0  0
  9 11  1  0  0  0  0
 11  2  1  0  0  0  0
 12 11  1  0  0  0  0
 13  9  1  0  0  0  0
 14 13  1  0  0  0  0
 14 15  1  0  0  0  0
 16 14  2  0  0  0  0
 17 19  2  0  0  0  0
 17 16  1  0  0  0  0
 18 17  1  0  0  0  0
 19 21  1  0  0  0  0
 20 19  1  0  0  0  0
 21 13  2  0  0  0  0
 22  1  1  0  0  0  0
 23 24  1  0  0  0  0
 24 25  2  0  0  0  0
 24 22  1  0  0  0  0
 25 29  1  0  0  0  0
 26 30  1  0  0  0  0
 26 25  1  0  0  0  0
 27 26  2  0  0  0  0
 28 23  2  0  0  0  0
 28 27  1  0  0  0  0
 31 27  1  0  0  0  0
 32 28  1  0  0  0  0
 33 32  2  0  0  0  0
 33 37  1  0  0  0  0
 34 33  1  0  0  0  0
 35 34  2  0  0  0  0
 35 36  1  0  0  0  0
 36 32  1  0  0  0  0
 38 34  1  0  0  0  0
 39 35  1  0  0  0  0
 40 41  3  0  0  0  0
 41 23  1  0  0  0  0
M  END
>  <minimizedAffinity>
-6.12864685

>  <minimizedRMSD>
0.582222998

$$$$
