
 OpenBabel03272507313D

 29 31  0  0  0  0  0  0  0  0999 V2000
   35.8840   29.2620   49.7610 C   0  0  0  0  0  0  0  0  0  0  0  0
   34.8890   29.8230   50.4900 C   0  0  0  0  0  0  0  0  0  0  0  0
   33.6790   29.2610   50.0560 C   0  0  0  0  0  0  0  0  0  0  0  0
   34.0350   28.3590   49.0500 C   0  0  0  0  0  0  0  0  0  0  0  0
   35.3180   28.4290   48.9530 O   0  0  0  0  0  0  0  0  0  0  0  0
   34.8410   30.5630   51.2820 H   0  0  0  0  0  0  0  0  0  0  0  0
   32.6790   29.4410   50.3810 H   0  0  0  0  0  0  0  0  0  0  0  0
   37.2800   29.6030   49.9380 C   0  0  0  0  0  0  0  0  0  0  0  0
   37.9330   29.0380   50.8190 O   0  0  0  0  0  0  0  0  0  0  0  0
   37.8310   30.6140   49.0440 C   0  0  0  0  0  0  0  0  0  0  0  0
   38.1810   31.8330   49.6160 C   0  0  0  0  0  0  0  0  0  0  0  0
   38.7070   32.8250   48.8050 C   0  0  0  0  0  0  0  0  0  0  0  0
   38.8590   32.5580   47.4760 N   0  0  0  0  0  0  0  0  0  0  0  0
   38.5130   31.3750   46.9480 C   0  0  0  0  0  0  0  0  0  0  0  0
   38.0050   30.4140   47.7280 N   0  0  0  0  0  0  0  0  0  0  0  0
   38.0720   32.0730   50.6720 H   0  0  0  0  0  0  0  0  0  0  0  0
   39.0030   33.7980   49.1740 H   0  0  0  0  0  0  0  0  0  0  0  0
   38.6070   31.1030   45.9050 H   0  0  0  0  0  0  0  0  0  0  0  0
   33.0950   27.5210   48.2860 C   0  0  0  0  0  0  0  0  0  0  0  0
   31.8850   27.4960   48.6380 O   0  0  0  0  0  0  0  0  0  0  0  0
   33.5510   26.7480   47.1630 C   0  0  0  0  0  0  0  0  0  0  0  0
   33.8730   25.4070   47.2800 C   0  0  0  0  0  0  0  0  0  0  0  0
   33.7920   24.8950   48.2250 H   0  0  0  0  0  0  0  0  0  0  0  0
   34.3050   24.6940   46.1860 C   0  0  0  0  0  3  0  0  0  0  0  0
   34.4440   25.2480   44.9320 C   0  0  0  0  0  0  0  0  0  0  0  0
   34.7830   24.7060   44.0570 H   0  0  0  0  0  0  0  0  0  0  0  0
   34.1300   26.5880   44.7850 C   0  0  0  0  0  0  0  0  0  0  0  0
   34.2340   27.0300   43.8130 H   0  0  0  0  0  0  0  0  0  0  0  0
   33.6990   27.2870   45.8870 C   0  0  0  0  0  3  0  0  0  0  0  0
  1  8  1  0  0  0  0
  1  2  2  0  0  0  0
  2  6  1  0  0  0  0
  3  7  1  0  0  0  0
  3  2  1  0  0  0  0
  4  3  2  0  0  0  0
  5  4  1  0  0  0  0
  5  1  1  0  0  0  0
  8  9  2  0  0  0  0
 10 11  1  0  0  0  0
 10  8  1  0  0  0  0
 11 16  1  0  0  0  0
 12 17  1  0  0  0  0
 12 11  2  0  0  0  0
 13 12  1  0  0  0  0
 14 13  2  0  0  0  0
 14 15  1  0  0  0  0
 15 10  2  0  0  0  0
 18 14  1  0  0  0  0
 19 20  2  0  0  0  0
 19  4  1  0  0  0  0
 21 22  1  0  0  0  0
 21 19  1  0  0  0  0
 22 23  1  0  0  0  0
 24 22  2  0  0  0  0
 25 24  1  0  0  0  0
 26 25  1  0  0  0  0
 27 25  2  0  0  0  0
 27 29  1  0  0  0  0
 28 27  1  0  0  0  0
 29 21  2  0  0  0  0
M  END
>  <minimizedAffinity>
-5.4592371

>  <minimizedRMSD>
1.13433957

$$$$
