
 OpenBabel03272507423D

 41 44  0  0  0  0  0  0  0  0999 V2000
   36.7660   31.2060   50.0740 C   0  0  0  0  0  0  0  0  0  0  0  0
   35.7280   30.3050   49.8380 C   0  0  0  0  0  0  0  0  0  0  0  0
   35.5520   29.1840   50.6310 C   0  0  0  0  0  0  0  0  0  0  0  0
   36.4360   28.9990   51.6500 N   0  0  0  0  0  0  0  0  0  0  0  0
   37.4470   29.8870   51.8690 C   0  0  0  0  0  0  0  0  0  0  0  0
   37.5890   30.9520   51.0930 N   0  0  0  0  0  0  0  0  0  0  0  0
   34.7750   28.4450   50.5110 H   0  0  0  0  0  0  0  0  0  0  0  0
   38.1660   29.7620   52.6760 H   0  0  0  0  0  0  0  0  0  0  0  0
   34.3200   29.2480   48.1190 C   0  0  0  0  0  0  0  0  0  0  0  0
   34.7180   28.0220   48.1450 O   0  0  0  0  0  0  0  0  0  0  0  0
   34.7740   30.3890   48.8190 N   0  0  0  0  0  0  0  0  0  0  0  0
   34.4890   31.3740   48.6840 H   0  0  0  0  0  0  0  0  0  0  0  0
   33.2040   29.4350   47.1910 C   0  0  0  0  0  0  0  0  0  0  0  0
   33.0600   30.5280   46.3630 C   0  0  0  0  0  0  0  0  0  0  0  0
   33.7920   31.3210   46.3670 H   0  0  0  0  0  0  0  0  0  0  0  0
   32.0210   30.7240   45.4830 C   0  0  0  0  0  3  0  0  0  0  0  0
   31.0360   29.7740   45.4010 C   0  0  0  0  0  0  0  0  0  0  0  0
   30.1990   29.8760   44.7290 H   0  0  0  0  0  0  0  0  0  0  0  0
   31.1030   28.6500   46.1940 C   0  0  0  0  0  0  0  0  0  0  0  0
   30.3300   27.8960   46.1350 H   0  0  0  0  0  0  0  0  0  0  0  0
   32.1660   28.5380   47.0350 C   0  0  0  0  0  3  0  0  0  0  0  0
   36.7720   32.2320   49.2000 O   0  0  0  0  0  0  0  0  0  0  0  0
   38.2400   32.2210   47.2120 C   0  0  0  0  0  0  0  0  0  0  0  0
   37.8740   32.6500   48.4830 C   0  0  0  0  0  0  0  0  0  0  0  0
   38.6460   33.5850   49.1440 C   0  0  0  0  0  0  0  0  0  0  0  0
   39.7860   34.0970   48.5440 C   0  0  0  0  0  0  0  0  0  0  0  0
   40.1460   33.6640   47.2750 C   0  0  0  0  0  0  0  0  0  0  0  0
   39.3570   32.7350   46.6460 C   0  0  0  0  0  0  0  0  0  0  0  0
   38.4200   33.9620   50.1320 H   0  0  0  0  0  0  0  0  0  0  0  0
   40.4110   34.8330   49.0410 H   0  0  0  0  0  0  0  0  0  0  0  0
   41.0320   34.0510   46.7880 H   0  0  0  0  0  0  0  0  0  0  0  0
   39.7530   32.2800   45.2900 C   0  0  0  0  0  0  0  0  0  0  0  0
   40.5850   31.2450   44.9210 C   0  0  0  0  0  0  0  0  0  0  0  0
   40.6310   31.2300   43.5300 C   0  0  0  0  0  0  0  0  0  0  0  0
   39.8120   32.2720   43.1320 C   0  0  0  0  0  0  0  0  0  0  0  0
   39.3060   32.8770   44.1930 O   0  0  0  0  0  0  0  0  0  0  0  0
   41.0610   30.6220   45.6600 H   0  0  0  0  0  0  0  0  0  0  0  0
   41.2150   30.5110   42.9920 H   0  0  0  0  0  0  0  0  0  0  0  0
   39.6430   32.5200   42.0820 H   0  0  0  0  0  0  0  0  0  0  0  0
   36.7230   30.4780   46.0750 N   0  0  0  0  0  0  0  0  0  0  0  0
   37.3950   31.2560   46.5930 C   0  0  0  0  0  0  0  0  0  0  0  0
  1  6  1  0  0  0  0
  2  1  2  0  0  0  0
  2  3  1  0  0  0  0
  3  4  2  0  0  0  0
  4  5  1  0  0  0  0
  5  8  1  0  0  0  0
  6  5  2  0  0  0  0
  7  3  1  0  0  0  0
  9 10  2  0  0  0  0
  9 11  1  0  0  0  0
 11  2  1  0  0  0  0
 12 11  1  0  0  0  0
 13  9  1  0  0  0  0
 14 15  1  0  0  0  0
 14 13  2  0  0  0  0
 16 14  1  0  0  0  0
 17 16  2  0  0  0  0
 17 19  1  0  0  0  0
 18 17  1  0  0  0  0
 19 21  2  0  0  0  0
 20 19  1  0  0  0  0
 21 13  1  0  0  0  0
 22  1  1  0  0  0  0
 23 24  1  0  0  0  0
 24 25  2  0  0  0  0
 24 22  1  0  0  0  0
 25 29  1  0  0  0  0
 26 30  1  0  0  0  0
 26 25  1  0  0  0  0
 27 26  2  0  0  0  0
 28 23  2  0  0  0  0
 28 27  1  0  0  0  0
 31 27  1  0  0  0  0
 32 28  1  0  0  0  0
 33 32  2  0  0  0  0
 33 37  1  0  0  0  0
 34 33  1  0  0  0  0
 35 34  2  0  0  0  0
 35 36  1  0  0  0  0
 36 32  1  0  0  0  0
 38 34  1  0  0  0  0
 39 35  1  0  0  0  0
 40 41  3  0  0  0  0
 41 23  1  0  0  0  0
M  END
>  <minimizedAffinity>
-6.12972212

>  <minimizedRMSD>
0.498361707

$$$$
