
 OpenBabel03272507423D

 41 44  0  0  0  0  0  0  0  0999 V2000
   36.6320   31.1790   50.0750 C   0  0  0  0  0  0  0  0  0  0  0  0
   35.5600   30.3140   49.8510 C   0  0  0  0  0  0  0  0  0  0  0  0
   35.3560   29.1990   50.6440 C   0  0  0  0  0  0  0  0  0  0  0  0
   36.2440   28.9820   51.6530 N   0  0  0  0  0  0  0  0  0  0  0  0
   37.2880   29.8340   51.8610 C   0  0  0  0  0  0  0  0  0  0  0  0
   37.4580   30.8950   51.0840 N   0  0  0  0  0  0  0  0  0  0  0  0
   34.5520   28.4870   50.5330 H   0  0  0  0  0  0  0  0  0  0  0  0
   38.0120   29.6840   52.6600 H   0  0  0  0  0  0  0  0  0  0  0  0
   34.2360   29.3430   48.0180 C   0  0  0  0  0  0  0  0  0  0  0  0
   34.7350   28.1580   47.9090 O   0  0  0  0  0  0  0  0  0  0  0  0
   34.5980   30.4320   48.8420 N   0  0  0  0  0  0  0  0  0  0  0  0
   34.2320   31.3990   48.8170 H   0  0  0  0  0  0  0  0  0  0  0  0
   33.1050   29.5380   47.1110 C   0  0  0  0  0  0  0  0  0  0  0  0
   32.0790   28.6300   46.9470 C   0  0  0  0  0  0  0  0  0  0  0  0
   32.0700   27.7050   47.5020 H   0  0  0  0  0  0  0  0  0  0  0  0
   31.0060   28.7920   46.1020 C   0  0  0  0  0  3  0  0  0  0  0  0
   30.9230   29.9370   45.3500 C   0  0  0  0  0  0  0  0  0  0  0  0
   30.1040   30.1150   44.6720 H   0  0  0  0  0  0  0  0  0  0  0  0
   31.9070   30.8950   45.4550 C   0  0  0  0  0  0  0  0  0  0  0  0
   31.8480   31.8000   44.8640 H   0  0  0  0  0  0  0  0  0  0  0  0
   32.9320   30.6530   46.3150 C   0  0  0  0  0  3  0  0  0  0  0  0
   36.6630   32.2050   49.2020 O   0  0  0  0  0  0  0  0  0  0  0  0
   38.1740   32.1810   47.2470 C   0  0  0  0  0  0  0  0  0  0  0  0
   37.7820   32.6160   48.5090 C   0  0  0  0  0  0  0  0  0  0  0  0
   38.5440   33.5490   49.1830 C   0  0  0  0  0  0  0  0  0  0  0  0
   39.6990   34.0540   48.6080 C   0  0  0  0  0  0  0  0  0  0  0  0
   40.0850   33.6150   47.3470 C   0  0  0  0  0  0  0  0  0  0  0  0
   39.3060   32.6880   46.7050 C   0  0  0  0  0  0  0  0  0  0  0  0
   38.2980   33.9310   50.1650 H   0  0  0  0  0  0  0  0  0  0  0  0
   40.3160   34.7890   49.1160 H   0  0  0  0  0  0  0  0  0  0  0  0
   40.9830   33.9970   46.8800 H   0  0  0  0  0  0  0  0  0  0  0  0
   39.7290   32.2270   45.3590 C   0  0  0  0  0  0  0  0  0  0  0  0
   40.5740   31.1950   45.0110 C   0  0  0  0  0  0  0  0  0  0  0  0
   40.6460   31.1720   43.6220 C   0  0  0  0  0  0  0  0  0  0  0  0
   39.8290   32.2060   43.2020 C   0  0  0  0  0  0  0  0  0  0  0  0
   39.2990   32.8140   44.2500 O   0  0  0  0  0  0  0  0  0  0  0  0
   41.0410   30.5790   45.7630 H   0  0  0  0  0  0  0  0  0  0  0  0
   41.2450   30.4520   43.1000 H   0  0  0  0  0  0  0  0  0  0  0  0
   39.6780   32.4460   42.1470 H   0  0  0  0  0  0  0  0  0  0  0  0
   36.6750   30.4410   46.0830 N   0  0  0  0  0  0  0  0  0  0  0  0
   37.3390   31.2170   46.6120 C   0  0  0  0  0  0  0  0  0  0  0  0
  1  6  1  0  0  0  0
  2  1  2  0  0  0  0
  2  3  1  0  0  0  0
  3  4  2  0  0  0  0
  4  5  1  0  0  0  0
  5  8  1  0  0  0  0
  6  5  2  0  0  0  0
  7  3  1  0  0  0  0
  9 11  1  0  0  0  0
 10  9  2  0  0  0  0
 11  2  1  0  0  0  0
 12 11  1  0  0  0  0
 13  9  1  0  0  0  0
 14 13  1  0  0  0  0
 14 15  1  0  0  0  0
 16 14  2  0  0  0  0
 17 19  2  0  0  0  0
 17 16  1  0  0  0  0
 18 17  1  0  0  0  0
 19 21  1  0  0  0  0
 20 19  1  0  0  0  0
 21 13  2  0  0  0  0
 22  1  1  0  0  0  0
 23 24  1  0  0  0  0
 24 25  2  0  0  0  0
 24 22  1  0  0  0  0
 25 29  1  0  0  0  0
 26 30  1  0  0  0  0
 26 25  1  0  0  0  0
 27 26  2  0  0  0  0
 28 23  2  0  0  0  0
 28 27  1  0  0  0  0
 31 27  1  0  0  0  0
 32 28  1  0  0  0  0
 33 32  2  0  0  0  0
 33 37  1  0  0  0  0
 34 33  1  0  0  0  0
 35 34  2  0  0  0  0
 35 36  1  0  0  0  0
 36 32  1  0  0  0  0
 38 34  1  0  0  0  0
 39 35  1  0  0  0  0
 40 41  3  0  0  0  0
 41 23  1  0  0  0  0
M  END
>  <minimizedAffinity>
-6.05164051

>  <minimizedRMSD>
0.464903235

$$$$
