
 OpenBabel03272507423D

 41 44  0  0  0  0  0  0  0  0999 V2000
   36.7610   31.2020   50.0910 C   0  0  0  0  0  0  0  0  0  0  0  0
   35.7250   30.3000   49.8510 C   0  0  0  0  0  0  0  0  0  0  0  0
   35.5500   29.1760   50.6390 C   0  0  0  0  0  0  0  0  0  0  0  0
   36.4320   28.9890   51.6590 N   0  0  0  0  0  0  0  0  0  0  0  0
   37.4420   29.8780   51.8820 C   0  0  0  0  0  0  0  0  0  0  0  0
   37.5830   30.9460   51.1100 N   0  0  0  0  0  0  0  0  0  0  0  0
   34.7740   28.4360   50.5150 H   0  0  0  0  0  0  0  0  0  0  0  0
   38.1600   29.7520   52.6900 H   0  0  0  0  0  0  0  0  0  0  0  0
   34.3200   29.2460   48.1270 C   0  0  0  0  0  0  0  0  0  0  0  0
   34.7190   28.0200   48.1510 O   0  0  0  0  0  0  0  0  0  0  0  0
   34.7720   30.3860   48.8300 N   0  0  0  0  0  0  0  0  0  0  0  0
   34.4860   31.3710   48.6970 H   0  0  0  0  0  0  0  0  0  0  0  0
   33.2050   29.4340   47.1980 C   0  0  0  0  0  0  0  0  0  0  0  0
   33.0630   30.5270   46.3700 C   0  0  0  0  0  0  0  0  0  0  0  0
   33.7960   31.3200   46.3750 H   0  0  0  0  0  0  0  0  0  0  0  0
   32.0250   30.7240   45.4890 C   0  0  0  0  0  3  0  0  0  0  0  0
   31.0400   29.7750   45.4060 C   0  0  0  0  0  0  0  0  0  0  0  0
   30.2040   29.8790   44.7340 H   0  0  0  0  0  0  0  0  0  0  0  0
   31.1040   28.6510   46.1990 C   0  0  0  0  0  0  0  0  0  0  0  0
   30.3300   27.8980   46.1390 H   0  0  0  0  0  0  0  0  0  0  0  0
   32.1660   28.5380   47.0410 C   0  0  0  0  0  3  0  0  0  0  0  0
   36.7660   32.2310   49.2210 O   0  0  0  0  0  0  0  0  0  0  0  0
   38.2370   32.2260   47.2350 C   0  0  0  0  0  0  0  0  0  0  0  0
   37.8680   32.6530   48.5060 C   0  0  0  0  0  0  0  0  0  0  0  0
   38.6360   33.5900   49.1670 C   0  0  0  0  0  0  0  0  0  0  0  0
   39.7750   34.1060   48.5700 C   0  0  0  0  0  0  0  0  0  0  0  0
   40.1380   33.6740   47.3010 C   0  0  0  0  0  0  0  0  0  0  0  0
   39.3540   32.7430   46.6710 C   0  0  0  0  0  0  0  0  0  0  0  0
   38.4070   33.9670   50.1550 H   0  0  0  0  0  0  0  0  0  0  0  0
   40.3970   34.8440   49.0680 H   0  0  0  0  0  0  0  0  0  0  0  0
   41.0240   34.0640   46.8160 H   0  0  0  0  0  0  0  0  0  0  0  0
   39.7530   32.2900   45.3150 C   0  0  0  0  0  0  0  0  0  0  0  0
   40.5860   31.2550   44.9470 C   0  0  0  0  0  0  0  0  0  0  0  0
   40.6360   31.2420   43.5560 C   0  0  0  0  0  0  0  0  0  0  0  0
   39.8180   32.2840   43.1570 C   0  0  0  0  0  0  0  0  0  0  0  0
   39.3090   32.8870   44.2180 O   0  0  0  0  0  0  0  0  0  0  0  0
   41.0610   30.6310   45.6870 H   0  0  0  0  0  0  0  0  0  0  0  0
   41.2220   30.5230   43.0200 H   0  0  0  0  0  0  0  0  0  0  0  0
   39.6520   32.5320   42.1070 H   0  0  0  0  0  0  0  0  0  0  0  0
   36.7270   30.4770   46.0960 N   0  0  0  0  0  0  0  0  0  0  0  0
   37.3970   31.2570   46.6140 C   0  0  0  0  0  0  0  0  0  0  0  0
  1  6  1  0  0  0  0
  2  1  2  0  0  0  0
  2  3  1  0  0  0  0
  3  4  2  0  0  0  0
  4  5  1  0  0  0  0
  5  8  1  0  0  0  0
  6  5  2  0  0  0  0
  7  3  1  0  0  0  0
  9 10  2  0  0  0  0
  9 11  1  0  0  0  0
 11  2  1  0  0  0  0
 12 11  1  0  0  0  0
 13  9  1  0  0  0  0
 14 15  1  0  0  0  0
 14 13  2  0  0  0  0
 16 14  1  0  0  0  0
 17 16  2  0  0  0  0
 17 19  1  0  0  0  0
 18 17  1  0  0  0  0
 19 21  2  0  0  0  0
 20 19  1  0  0  0  0
 21 13  1  0  0  0  0
 22  1  1  0  0  0  0
 23 24  1  0  0  0  0
 24 25  2  0  0  0  0
 24 22  1  0  0  0  0
 25 29  1  0  0  0  0
 26 30  1  0  0  0  0
 26 25  1  0  0  0  0
 27 26  2  0  0  0  0
 28 23  2  0  0  0  0
 28 27  1  0  0  0  0
 31 27  1  0  0  0  0
 32 28  1  0  0  0  0
 33 32  2  0  0  0  0
 33 37  1  0  0  0  0
 34 33  1  0  0  0  0
 35 34  2  0  0  0  0
 35 36  1  0  0  0  0
 36 32  1  0  0  0  0
 38 34  1  0  0  0  0
 39 35  1  0  0  0  0
 40 41  3  0  0  0  0
 41 23  1  0  0  0  0
M  END
>  <minimizedAffinity>
-6.13345671

>  <minimizedRMSD>
0.595291674

$$$$
