
 OpenBabel03272507303D

 29 31  0  0  0  0  0  0  0  0999 V2000
   35.8830   29.2610   49.7610 C   0  0  0  0  0  0  0  0  0  0  0  0
   34.8880   29.8220   50.4890 C   0  0  0  0  0  0  0  0  0  0  0  0
   33.6780   29.2610   50.0550 C   0  0  0  0  0  0  0  0  0  0  0  0
   34.0340   28.3580   49.0500 C   0  0  0  0  0  0  0  0  0  0  0  0
   35.3180   28.4280   48.9530 O   0  0  0  0  0  0  0  0  0  0  0  0
   34.8400   30.5640   51.2810 H   0  0  0  0  0  0  0  0  0  0  0  0
   32.6780   29.4410   50.3790 H   0  0  0  0  0  0  0  0  0  0  0  0
   37.2790   29.6030   49.9380 C   0  0  0  0  0  0  0  0  0  0  0  0
   37.9320   29.0370   50.8190 O   0  0  0  0  0  0  0  0  0  0  0  0
   37.8300   30.6140   49.0440 C   0  0  0  0  0  0  0  0  0  0  0  0
   38.1810   31.8320   49.6170 C   0  0  0  0  0  0  0  0  0  0  0  0
   38.7070   32.8240   48.8060 C   0  0  0  0  0  0  0  0  0  0  0  0
   38.8580   32.5580   47.4770 N   0  0  0  0  0  0  0  0  0  0  0  0
   38.5120   31.3750   46.9490 C   0  0  0  0  0  0  0  0  0  0  0  0
   38.0030   30.4140   47.7290 N   0  0  0  0  0  0  0  0  0  0  0  0
   38.0720   32.0720   50.6720 H   0  0  0  0  0  0  0  0  0  0  0  0
   39.0030   33.7970   49.1760 H   0  0  0  0  0  0  0  0  0  0  0  0
   38.6060   31.1030   45.9050 H   0  0  0  0  0  0  0  0  0  0  0  0
   33.0940   27.5200   48.2860 C   0  0  0  0  0  0  0  0  0  0  0  0
   31.8840   27.4950   48.6370 O   0  0  0  0  0  0  0  0  0  0  0  0
   33.5510   26.7470   47.1630 C   0  0  0  0  0  0  0  0  0  0  0  0
   33.8730   25.4050   47.2800 C   0  0  0  0  0  0  0  0  0  0  0  0
   33.7920   24.8940   48.2260 H   0  0  0  0  0  0  0  0  0  0  0  0
   34.3050   24.6920   46.1870 C   0  0  0  0  0  3  0  0  0  0  0  0
   34.4440   25.2460   44.9330 C   0  0  0  0  0  0  0  0  0  0  0  0
   34.7830   24.7040   44.0570 H   0  0  0  0  0  0  0  0  0  0  0  0
   34.1300   26.5860   44.7840 C   0  0  0  0  0  0  0  0  0  0  0  0
   34.2340   27.0280   43.8130 H   0  0  0  0  0  0  0  0  0  0  0  0
   33.7000   27.2850   45.8880 C   0  0  0  0  0  3  0  0  0  0  0  0
  1  8  1  0  0  0  0
  1  2  2  0  0  0  0
  2  6  1  0  0  0  0
  3  7  1  0  0  0  0
  3  2  1  0  0  0  0
  4  3  2  0  0  0  0
  5  4  1  0  0  0  0
  5  1  1  0  0  0  0
  8  9  2  0  0  0  0
 10 11  1  0  0  0  0
 10  8  1  0  0  0  0
 11 16  1  0  0  0  0
 12 17  1  0  0  0  0
 12 11  2  0  0  0  0
 13 12  1  0  0  0  0
 14 13  2  0  0  0  0
 14 15  1  0  0  0  0
 15 10  2  0  0  0  0
 18 14  1  0  0  0  0
 19 20  2  0  0  0  0
 19  4  1  0  0  0  0
 21 22  1  0  0  0  0
 21 19  1  0  0  0  0
 22 23  1  0  0  0  0
 24 22  2  0  0  0  0
 25 24  1  0  0  0  0
 26 25  1  0  0  0  0
 27 25  2  0  0  0  0
 27 29  1  0  0  0  0
 28 27  1  0  0  0  0
 29 21  2  0  0  0  0
M  END
>  <minimizedAffinity>
-5.45966196

>  <minimizedRMSD>
1.11580777

$$$$
