
 OpenBabel03272509313D

 38 40  0  0  1  0  0  0  0  0999 V2000
   36.3370   30.7410   49.0080 C   0  0  2  0  0  0  0  0  0  0  0  0
   37.3060   31.5960   49.7700 C   0  0  0  0  0  0  0  0  0  0  0  0
   38.1770   30.7990   50.7150 C   0  0  0  0  0  0  0  0  0  0  0  0
   37.3210   29.9930   51.6880 C   0  0  0  0  0  0  0  0  0  0  0  0
   36.0630   29.4350   51.0770 C   0  0  0  0  0  0  0  0  0  0  0  0
   36.2630   29.3530   49.5530 C   0  0  1  0  0  0  0  0  0  0  0  0
   35.2780   31.1220   49.0250 H   0  0  0  0  0  0  0  0  0  0  0  0
   37.8730   32.3190   49.2180 H   0  0  0  0  0  0  0  0  0  0  0  0
   36.6450   32.2100   50.4700 H   0  0  0  0  0  0  0  0  0  0  0  0
   38.7610   31.5130   51.2950 H   0  0  0  0  0  0  0  0  0  0  0  0
   38.8420   30.0920   50.2100 H   0  0  0  0  0  0  0  0  0  0  0  0
   37.9240   29.1390   52.0610 H   0  0  0  0  0  0  0  0  0  0  0  0
   37.0700   30.6100   52.5820 H   0  0  0  0  0  0  0  0  0  0  0  0
   35.7940   28.4450   51.4730 H   0  0  0  0  0  0  0  0  0  0  0  0
   35.2340   30.1270   51.2670 H   0  0  0  0  0  0  0  0  0  0  0  0
   37.2120   28.8750   49.5140 H   0  0  0  0  0  0  0  0  0  0  0  0
   36.7010   30.6710   47.5680 C   0  0  0  0  0  0  0  0  0  0  0  0
   38.0510   30.9310   47.2710 C   0  0  0  0  0  0  0  0  0  0  0  0
   38.4220   30.8680   45.9220 C   0  0  0  0  0  0  0  0  0  0  0  0
   37.4600   30.5590   44.9860 N   0  0  0  0  0  0  0  0  0  0  0  0
   36.1590   30.3130   45.3300 C   0  0  0  0  0  0  0  0  0  0  0  0
   35.7990   30.3750   46.6280 N   0  0  0  0  0  0  0  0  0  0  0  0
   38.8910   31.1710   47.8920 H   0  0  0  0  0  0  0  0  0  0  0  0
   39.4110   31.0430   45.5430 H   0  0  0  0  0  0  0  0  0  0  0  0
   35.4560   30.0750   44.5340 H   0  0  0  0  0  0  0  0  0  0  0  0
   33.9690   28.3650   49.0770 C   0  0  0  0  0  0  0  0  0  0  0  0
   33.1670   29.0420   49.8230 O   0  0  0  0  0  0  0  0  0  0  0  0
   35.3630   28.4940   48.8760 N   0  0  0  0  0  0  0  0  0  0  0  0
   35.7310   27.8560   48.1110 H   0  0  0  0  0  0  0  0  0  0  0  0
   33.1760   27.3320   48.3880 C   0  0  0  0  0  0  0  0  0  0  0  0
   33.7390   26.3410   47.6220 C   0  0  0  0  0  0  0  0  0  0  0  0
   34.8060   26.2660   47.4830 H   0  0  0  0  0  0  0  0  0  0  0  0
   33.0250   25.3570   46.9580 C   0  0  0  0  0  3  0  0  0  0  0  0
   31.6690   25.3360   47.0490 C   0  0  0  0  0  0  0  0  0  0  0  0
   31.1070   24.5710   46.5350 H   0  0  0  0  0  0  0  0  0  0  0  0
   31.0520   26.3040   47.8040 C   0  0  0  0  0  0  0  0  0  0  0  0
   29.9720   26.2540   47.8510 H   0  0  0  0  0  0  0  0  0  0  0  0
   31.8050   27.2590   48.4420 C   0  0  0  0  0  3  0  0  0  0  0  0
  1  7  1  1  0  0  0
  1  6  1  0  0  0  0
  1  2  1  0  0  0  0
  2  9  1  0  0  0  0
  2  3  1  0  0  0  0
  3 10  1  0  0  0  0
  3  4  1  0  0  0  0
  4 12  1  0  0  0  0
  4 13  1  0  0  0  0
  5 15  1  0  0  0  0
  5 14  1  0  0  0  0
  5  4  1  0  0  0  0
  6 16  1  6  0  0  0
  6  5  1  0  0  0  0
  8  2  1  0  0  0  0
 11  3  1  0  0  0  0
 17  1  1  0  0  0  0
 18 17  1  0  0  0  0
 18 23  1  0  0  0  0
 19 18  2  0  0  0  0
 20 21  2  0  0  0  0
 20 19  1  0  0  0  0
 21 22  1  0  0  0  0
 22 17  2  0  0  0  0
 24 19  1  0  0  0  0
 25 21  1  0  0  0  0
 26 27  2  0  0  0  0
 28 26  1  0  0  0  0
 28  6  1  0  0  0  0
 29 28  1  0  0  0  0
 30 38  1  0  0  0  0
 30 26  1  0  0  0  0
 31 30  2  0  0  0  0
 32 31  1  0  0  0  0
 33 34  2  0  0  0  0
 33 31  1  0  0  0  0
 34 36  1  0  0  0  0
 35 34  1  0  0  0  0
 36 37  1  0  0  0  0
 36 38  2  0  0  0  0
M  END
>  <minimizedAffinity>
-6.25739622

>  <minimizedRMSD>
0.451017737

$$$$
