
 OpenBabel03272509313D

 38 40  0  0  1  0  0  0  0  0999 V2000
   36.3440   30.7460   49.0080 C   0  0  2  0  0  0  0  0  0  0  0  0
   37.3090   31.6030   49.7730 C   0  0  0  0  0  0  0  0  0  0  0  0
   38.1810   30.8080   50.7190 C   0  0  0  0  0  0  0  0  0  0  0  0
   37.3250   29.9980   51.6890 C   0  0  0  0  0  0  0  0  0  0  0  0
   36.0710   29.4360   51.0750 C   0  0  0  0  0  0  0  0  0  0  0  0
   36.2740   29.3560   49.5510 C   0  0  1  0  0  0  0  0  0  0  0  0
   35.2840   31.1240   49.0240 H   0  0  0  0  0  0  0  0  0  0  0  0
   37.8740   32.3300   49.2230 H   0  0  0  0  0  0  0  0  0  0  0  0
   36.6440   32.2140   50.4720 H   0  0  0  0  0  0  0  0  0  0  0  0
   38.7610   31.5230   51.3010 H   0  0  0  0  0  0  0  0  0  0  0  0
   38.8490   30.1040   50.2130 H   0  0  0  0  0  0  0  0  0  0  0  0
   37.9310   29.1450   52.0620 H   0  0  0  0  0  0  0  0  0  0  0  0
   37.0700   30.6120   52.5830 H   0  0  0  0  0  0  0  0  0  0  0  0
   35.8050   28.4440   51.4690 H   0  0  0  0  0  0  0  0  0  0  0  0
   35.2400   30.1240   51.2640 H   0  0  0  0  0  0  0  0  0  0  0  0
   37.2250   28.8820   49.5130 H   0  0  0  0  0  0  0  0  0  0  0  0
   36.7110   30.6790   47.5690 C   0  0  0  0  0  0  0  0  0  0  0  0
   38.0600   30.9480   47.2740 C   0  0  0  0  0  0  0  0  0  0  0  0
   38.4340   30.8890   45.9260 C   0  0  0  0  0  0  0  0  0  0  0  0
   37.4750   30.5750   44.9870 N   0  0  0  0  0  0  0  0  0  0  0  0
   36.1750   30.3210   45.3290 C   0  0  0  0  0  0  0  0  0  0  0  0
   35.8120   30.3780   46.6260 N   0  0  0  0  0  0  0  0  0  0  0  0
   38.8980   31.1920   47.8970 H   0  0  0  0  0  0  0  0  0  0  0  0
   39.4220   31.0690   45.5490 H   0  0  0  0  0  0  0  0  0  0  0  0
   35.4750   30.0790   44.5320 H   0  0  0  0  0  0  0  0  0  0  0  0
   33.9850   28.3610   49.0700 C   0  0  0  0  0  0  0  0  0  0  0  0
   33.1790   29.0330   49.8160 O   0  0  0  0  0  0  0  0  0  0  0  0
   35.3780   28.4960   48.8710 N   0  0  0  0  0  0  0  0  0  0  0  0
   35.7500   27.8600   48.1060 H   0  0  0  0  0  0  0  0  0  0  0  0
   33.1970   27.3260   48.3770 C   0  0  0  0  0  0  0  0  0  0  0  0
   31.8270   27.2620   48.4380 C   0  0  0  0  0  0  0  0  0  0  0  0
   31.2470   27.9760   49.0010 H   0  0  0  0  0  0  0  0  0  0  0  0
   31.0540   26.3030   47.8040 C   0  0  0  0  0  3  0  0  0  0  0  0
   31.6600   25.3400   47.0580 C   0  0  0  0  0  0  0  0  0  0  0  0
   31.0630   24.5900   46.5610 H   0  0  0  0  0  0  0  0  0  0  0  0
   33.0300   25.3550   46.9630 C   0  0  0  0  0  0  0  0  0  0  0  0
   33.4740   24.5740   46.3600 H   0  0  0  0  0  0  0  0  0  0  0  0
   33.7510   26.3280   47.6110 C   0  0  0  0  0  3  0  0  0  0  0  0
  1  7  1  1  0  0  0
  1  6  1  0  0  0  0
  1  2  1  0  0  0  0
  2  9  1  0  0  0  0
  2  3  1  0  0  0  0
  3 10  1  0  0  0  0
  3  4  1  0  0  0  0
  4 12  1  0  0  0  0
  4 13  1  0  0  0  0
  5 15  1  0  0  0  0
  5 14  1  0  0  0  0
  5  4  1  0  0  0  0
  6 16  1  6  0  0  0
  6  5  1  0  0  0  0
  8  2  1  0  0  0  0
 11  3  1  0  0  0  0
 17  1  1  0  0  0  0
 18 17  1  0  0  0  0
 18 23  1  0  0  0  0
 19 18  2  0  0  0  0
 20 21  2  0  0  0  0
 20 19  1  0  0  0  0
 21 22  1  0  0  0  0
 22 17  2  0  0  0  0
 24 19  1  0  0  0  0
 25 21  1  0  0  0  0
 26 27  2  0  0  0  0
 28 26  1  0  0  0  0
 28  6  1  0  0  0  0
 29 28  1  0  0  0  0
 30 31  1  0  0  0  0
 30 26  1  0  0  0  0
 31 32  1  0  0  0  0
 33 31  2  0  0  0  0
 34 33  1  0  0  0  0
 35 34  1  0  0  0  0
 36 34  2  0  0  0  0
 36 38  1  0  0  0  0
 37 36  1  0  0  0  0
 38 30  2  0  0  0  0
M  END
>  <minimizedAffinity>
-6.25325155

>  <minimizedRMSD>
0.424904317

$$$$
