
 OpenBabel03272509313D

 38 40  0  0  1  0  0  0  0  0999 V2000
   36.4530   30.7580   49.0260 C   0  0  2  0  0  0  0  0  0  0  0  0
   37.4570   31.5860   49.7710 C   0  0  0  0  0  0  0  0  0  0  0  0
   38.3020   30.7690   50.7240 C   0  0  0  0  0  0  0  0  0  0  0  0
   37.4200   30.0110   51.7120 C   0  0  0  0  0  0  0  0  0  0  0  0
   36.1390   29.4920   51.1140 C   0  0  0  0  0  0  0  0  0  0  0  0
   36.3280   29.3810   49.5900 C   0  0  1  0  0  0  0  0  0  0  0  0
   35.4090   31.1800   49.0420 H   0  0  0  0  0  0  0  0  0  0  0  0
   38.0480   32.2800   49.2070 H   0  0  0  0  0  0  0  0  0  0  0  0
   36.8230   32.2350   50.4650 H   0  0  0  0  0  0  0  0  0  0  0  0
   38.9160   31.4690   51.2920 H   0  0  0  0  0  0  0  0  0  0  0  0
   38.9370   30.0310   50.2250 H   0  0  0  0  0  0  0  0  0  0  0  0
   37.9930   29.1390   52.0940 H   0  0  0  0  0  0  0  0  0  0  0  0
   37.1970   30.6490   52.5980 H   0  0  0  0  0  0  0  0  0  0  0  0
   35.8350   28.5190   51.5250 H   0  0  0  0  0  0  0  0  0  0  0  0
   35.3380   30.2180   51.2980 H   0  0  0  0  0  0  0  0  0  0  0  0
   37.2590   28.8670   49.5540 H   0  0  0  0  0  0  0  0  0  0  0  0
   36.8070   30.6550   47.5850 C   0  0  0  0  0  0  0  0  0  0  0  0
   38.1710   30.8190   47.2830 C   0  0  0  0  0  0  0  0  0  0  0  0
   38.5330   30.7230   45.9340 C   0  0  0  0  0  0  0  0  0  0  0  0
   37.5480   30.4760   45.0020 N   0  0  0  0  0  0  0  0  0  0  0  0
   36.2350   30.3220   45.3500 C   0  0  0  0  0  0  0  0  0  0  0  0
   35.8840   30.4160   46.6490 N   0  0  0  0  0  0  0  0  0  0  0  0
   39.0270   31.0040   47.9000 H   0  0  0  0  0  0  0  0  0  0  0  0
   39.5300   30.8270   45.5510 H   0  0  0  0  0  0  0  0  0  0  0  0
   35.5150   30.1280   44.5580 H   0  0  0  0  0  0  0  0  0  0  0  0
   33.9990   28.4630   49.1500 C   0  0  0  0  0  0  0  0  0  0  0  0
   33.2280   29.1680   49.9030 O   0  0  0  0  0  0  0  0  0  0  0  0
   35.3930   28.5490   48.9290 N   0  0  0  0  0  0  0  0  0  0  0  0
   35.7310   27.8960   48.1620 H   0  0  0  0  0  0  0  0  0  0  0  0
   33.1660   27.4520   48.4760 C   0  0  0  0  0  0  0  0  0  0  0  0
   31.7960   27.4240   48.5740 C   0  0  0  0  0  0  0  0  0  0  0  0
   31.2510   28.1510   49.1560 H   0  0  0  0  0  0  0  0  0  0  0  0
   30.9810   26.4900   47.9570 C   0  0  0  0  0  3  0  0  0  0  0  0
   31.5400   25.5150   47.1910 C   0  0  0  0  0  0  0  0  0  0  0  0
   30.9110   24.7840   46.7080 H   0  0  0  0  0  0  0  0  0  0  0  0
   32.9070   25.4950   47.0580 C   0  0  0  0  0  0  0  0  0  0  0  0
   33.3130   24.7040   46.4410 H   0  0  0  0  0  0  0  0  0  0  0  0
   33.6720   26.4440   47.6900 C   0  0  0  0  0  3  0  0  0  0  0  0
  1  7  1  1  0  0  0
  1  6  1  0  0  0  0
  1  2  1  0  0  0  0
  2  9  1  0  0  0  0
  2  3  1  0  0  0  0
  3 10  1  0  0  0  0
  3  4  1  0  0  0  0
  4 12  1  0  0  0  0
  4 13  1  0  0  0  0
  5 15  1  0  0  0  0
  5 14  1  0  0  0  0
  5  4  1  0  0  0  0
  6 16  1  6  0  0  0
  6  5  1  0  0  0  0
  8  2  1  0  0  0  0
 11  3  1  0  0  0  0
 17  1  1  0  0  0  0
 18 17  1  0  0  0  0
 18 23  1  0  0  0  0
 19 18  2  0  0  0  0
 20 21  2  0  0  0  0
 20 19  1  0  0  0  0
 21 22  1  0  0  0  0
 22 17  2  0  0  0  0
 24 19  1  0  0  0  0
 25 21  1  0  0  0  0
 26 27  2  0  0  0  0
 28 26  1  0  0  0  0
 28  6  1  0  0  0  0
 29 28  1  0  0  0  0
 30 31  1  0  0  0  0
 30 26  1  0  0  0  0
 31 32  1  0  0  0  0
 33 31  2  0  0  0  0
 34 33  1  0  0  0  0
 35 34  1  0  0  0  0
 36 34  2  0  0  0  0
 36 38  1  0  0  0  0
 37 36  1  0  0  0  0
 38 30  2  0  0  0  0
M  END
>  <minimizedAffinity>
-6.28789806

>  <minimizedRMSD>
0.737607479

$$$$
