
 OpenBabel03262520303D

 44 47  0  0  1  0  0  0  0  0999 V2000
   32.2560   29.3960   46.7510 C   0  0  0  0  0  0  0  0  0  0  0  0
   33.3750   29.9250   46.1570 C   0  0  0  0  0  0  0  0  0  0  0  0
   33.1360   30.6230   44.9920 C   0  0  0  0  0  0  0  0  0  0  0  0
   31.8660   30.7300   44.5370 N   0  0  0  0  0  0  0  0  0  0  0  0
   30.8110   30.2010   45.1460 C   0  0  0  0  0  0  0  0  0  0  0  0
   31.0840   29.5530   46.2400 N   0  0  0  0  0  0  0  0  0  0  0  0
   34.2860   31.2020   44.3380 N   0  0  0  0  0  0  0  0  0  0  0  0
   32.2600   28.8170   47.6740 H   0  0  0  0  0  0  0  0  0  0  0  0
   34.6420   32.0400   44.8680 H   0  0  0  0  0  0  0  0  0  0  0  0
   34.6970   30.8190   43.4470 H   0  0  0  0  0  0  0  0  0  0  0  0
   29.7840   30.6500   44.2670 C   0  0  1  0  0  0  0  0  0  0  0  0
   29.3300   31.0570   43.1590 N   0  0  0  0  0  0  0  0  0  0  0  0
   28.1960   31.6010   42.8960 C   0  0  0  0  0  0  0  0  0  0  0  0
   27.8630   30.4940   42.1660 N   0  0  0  0  0  0  0  0  0  0  0  0
   28.3570   29.3390   42.6990 C   0  0  0  0  0  0  0  0  0  0  0  0
   27.8370   28.1290   42.1480 C   0  0  0  0  0  0  0  0  0  0  0  0
   28.2820   26.9610   42.6390 C   0  0  0  0  0  0  0  0  0  0  0  0
   29.2060   26.8390   43.6370 C   0  0  0  0  0  0  0  0  0  0  0  0
   29.6480   28.0480   44.1040 C   0  0  0  0  0  0  0  0  0  0  0  0
   29.3380   29.3610   43.7580 C   0  0  0  0  0  0  0  0  0  0  0  0
   28.9810   30.9110   45.0550 H   0  0  0  0  0  0  0  0  0  0  0  0
   30.0690   31.2810   42.4240 H   0  0  0  0  0  0  0  0  0  0  0  0
   28.1790   32.5490   42.3160 H   0  0  0  0  0  0  0  0  0  0  0  0
   27.5000   31.7540   43.7610 H   0  0  0  0  0  0  0  0  0  0  0  0
   27.2860   30.5680   41.2960 H   0  0  0  0  0  0  0  0  0  0  0  0
   27.1080   28.1160   41.3600 H   0  0  0  0  0  0  0  0  0  0  0  0
   27.8910   26.0260   42.2260 H   0  0  0  0  0  0  0  0  0  0  0  0
   29.6000   25.9430   44.0720 H   0  0  0  0  0  0  0  0  0  0  0  0
   30.4000   28.0260   44.9120 H   0  0  0  0  0  0  0  0  0  0  0  0
   34.7020   29.7330   46.7530 C   0  0  0  0  0  0  0  0  0  0  0  0
   35.3250   30.6220   46.6650 H   0  0  0  0  0  0  0  0  0  0  0  0
   35.1890   28.9170   46.1400 H   0  0  0  0  0  0  0  0  0  0  0  0
   34.6400   29.2070   48.1500 C   0  0  0  0  0  0  0  0  0  0  0  0
   33.7100   29.5460   48.6530 H   0  0  0  0  0  0  0  0  0  0  0  0
   34.7120   28.1010   48.1540 H   0  0  0  0  0  0  0  0  0  0  0  0
   35.7690   29.7130   48.9870 C   0  0  0  0  0  0  0  0  0  0  0  0
   36.1770   31.0280   48.8780 C   0  0  0  0  0  0  0  0  0  0  0  0
   35.6420   31.6440   48.1700 H   0  0  0  0  0  0  0  0  0  0  0  0
   37.2130   31.5450   49.6280 C   0  0  0  0  0  0  0  0  0  0  0  0
   37.8570   30.6900   50.5200 C   0  0  0  0  0  0  0  0  0  0  0  0
   38.6580   31.1580   51.0730 H   0  0  0  0  0  0  0  0  0  0  0  0
   37.4400   29.3670   50.6230 C   0  0  0  0  0  0  0  0  0  0  0  0
   38.0070   28.7750   51.3500 H   0  0  0  0  0  0  0  0  0  0  0  0
   36.4130   28.8770   49.8720 C   0  0  0  0  0  0  0  0  0  0  0  0
  1  8  1  0  0  0  0
  2  1  2  0  0  0  0
  2 30  1  0  0  0  0
  3  2  1  0  0  0  0
  4  3  2  0  0  0  0
  4  5  1  0  0  0  0
  5  6  2  0  0  0  0
  6  1  1  0  0  0  0
  7  9  1  0  0  0  0
  7  3  1  0  0  0  0
 10  7  1  0  0  0  0
 11 21  1  1  0  0  0
 11  5  1  0  0  0  0
 12 11  1  0  0  0  0
 13 12  1  0  0  0  0
 13 24  1  0  0  0  0
 14 15  1  0  0  0  0
 14 13  1  0  0  0  0
 15 20  1  0  0  0  0
 16 17  1  0  0  0  0
 16 15  2  0  0  0  0
 17 18  2  0  0  0  0
 18 28  1  0  0  0  0
 18 19  1  0  0  0  0
 19 29  1  0  0  0  0
 20 19  2  0  0  0  0
 20 11  1  0  0  0  0
 22 12  1  0  0  0  0
 23 13  1  0  0  0  0
 25 14  1  0  0  0  0
 26 16  1  0  0  0  0
 27 17  1  0  0  0  0
 30 33  1  0  0  0  0
 31 30  1  0  0  0  0
 32 30  1  0  0  0  0
 33 35  1  0  0  0  0
 33 34  1  0  0  0  0
 33 36  1  0  0  0  0
 36 44  1  0  0  0  0
 37 36  2  0  0  0  0
 37 39  1  0  0  0  0
 38 37  1  0  0  0  0
 39 40  2  0  0  0  0
 40 42  1  0  0  0  0
 40 41  1  0  0  0  0
 42 43  1  0  0  0  0
 44 42  2  0  0  0  0
M  END
>  <minimizedAffinity>
-4.93834591

>  <minimizedRMSD>
5.28046083

$$$$
