
 OpenBabel03272510103D

 28 30  0  0  0  0  0  0  0  0999 V2000
   36.4140   30.2260   47.7870 C   0  0  0  0  0  0  0  0  0  0  0  0
   37.2780   30.7050   46.8380 C   0  0  0  0  0  0  0  0  0  0  0  0
   36.9980   30.7770   45.4950 C   0  0  0  0  0  0  0  0  0  0  0  0
   35.7750   30.3470   45.0250 C   0  0  0  0  0  0  0  0  0  0  0  0
   34.9020   29.8620   46.0000 C   0  0  0  0  0  0  0  0  0  0  0  0
   35.2190   29.8110   47.3110 N   0  0  0  0  0  0  0  0  0  0  0  0
   38.2500   31.0510   47.1780 H   0  0  0  0  0  0  0  0  0  0  0  0
   37.6820   31.1540   44.7500 H   0  0  0  0  0  0  0  0  0  0  0  0
   33.9100   29.4980   45.7400 H   0  0  0  0  0  0  0  0  0  0  0  0
   35.8680   29.5430   50.1460 C   0  0  0  0  0  0  0  0  0  0  0  0
   36.7160   30.1550   49.1960 C   0  0  0  0  0  0  0  0  0  0  0  0
   37.9080   30.7210   49.6490 C   0  0  0  0  0  0  0  0  0  0  0  0
   38.1760   30.6420   50.9970 N   0  0  0  0  0  0  0  0  0  0  0  0
   37.3430   30.0520   51.8620 C   0  0  0  0  0  0  0  0  0  0  0  0
   36.1840   29.4980   51.4510 N   0  0  0  0  0  0  0  0  0  0  0  0
   34.9440   29.1090   49.7720 H   0  0  0  0  0  0  0  0  0  0  0  0
   38.5730   31.1900   48.9680 H   0  0  0  0  0  0  0  0  0  0  0  0
   37.7020   30.0750   52.8910 H   0  0  0  0  0  0  0  0  0  0  0  0
   35.3370   30.3500   43.7130 O   0  0  0  0  0  0  0  0  0  0  0  0
   35.0290   29.1700   43.0570 C   0  0  0  0  0  0  0  0  0  0  0  0
   33.8040   28.7580   42.5690 C   0  0  0  0  0  0  0  0  0  0  0  0
   33.0290   29.4640   42.7420 H   0  0  0  0  0  0  0  0  0  0  0  0
   33.6880   27.5350   41.9350 C   0  0  0  0  0  3  0  0  0  0  0  0
   34.7630   26.6940   41.7650 C   0  0  0  0  0  0  0  0  0  0  0  0
   34.6180   25.7460   41.2610 H   0  0  0  0  0  0  0  0  0  0  0  0
   35.9880   27.1180   42.2580 C   0  0  0  0  0  0  0  0  0  0  0  0
   36.8210   26.4360   42.1110 H   0  0  0  0  0  0  0  0  0  0  0  0
   36.1430   28.3380   42.8990 C   0  0  0  0  0  3  0  0  0  0  0  0
  1 11  1  0  0  0  0
  2  7  1  0  0  0  0
  2  1  2  0  0  0  0
  3  2  1  0  0  0  0
  4  3  2  0  0  0  0
  4  5  1  0  0  0  0
  5  6  2  0  0  0  0
  6  1  1  0  0  0  0
  8  3  1  0  0  0  0
  9  5  1  0  0  0  0
 10 15  1  0  0  0  0
 11 12  1  0  0  0  0
 11 10  2  0  0  0  0
 12 13  2  0  0  0  0
 13 14  1  0  0  0  0
 14 18  1  0  0  0  0
 15 14  2  0  0  0  0
 16 10  1  0  0  0  0
 17 12  1  0  0  0  0
 19  4  1  0  0  0  0
 20 19  1  0  0  0  0
 21 22  1  0  0  0  0
 21 20  2  0  0  0  0
 23 21  1  0  0  0  0
 24 23  2  0  0  0  0
 24 26  1  0  0  0  0
 25 24  1  0  0  0  0
 26 28  2  0  0  0  0
 27 26  1  0  0  0  0
 28 20  1  0  0  0  0
M  END
>  <minimizedAffinity>
-3.92785811

>  <minimizedRMSD>
7.49860764

$$$$
