
 OpenBabel03272508513D

 29 31  0  0  1  0  0  0  0  0999 V2000
   38.8760   32.6850   45.4900 C   0  0  2  0  0  0  0  0  0  0  0  0
   40.2520   32.8840   45.9230 C   0  0  0  0  0  0  0  0  0  0  0  0
   39.5810   31.4970   45.9570 C   0  0  1  0  0  0  0  0  0  0  0  0
   38.0100   32.9860   46.1560 H   0  0  0  0  0  0  0  0  0  0  0  0
   40.4070   33.3210   46.9250 H   0  0  0  0  0  0  0  0  0  0  0  0
   41.0750   33.0380   45.1990 H   0  0  0  0  0  0  0  0  0  0  0  0
   40.1540   30.7500   45.3790 H   0  0  0  0  0  0  0  0  0  0  0  0
   36.7740   32.5920   42.4410 C   0  0  0  0  0  0  0  0  0  0  0  0
   37.7070   32.9520   41.4340 C   0  0  0  0  0  0  0  0  0  0  0  0
   39.0620   33.2240   41.8180 C   0  0  0  0  0  0  0  0  0  0  0  0
   39.3870   33.1230   43.1390 N   0  0  0  0  0  0  0  0  0  0  0  0
   38.4490   32.7730   44.0600 C   0  0  0  0  0  0  0  0  0  0  0  0
   37.1640   32.5070   43.7550 N   0  0  0  0  0  0  0  0  0  0  0  0
   35.7920   32.4100   42.0490 H   0  0  0  0  0  0  0  0  0  0  0  0
   37.4310   33.0260   40.4070 H   0  0  0  0  0  0  0  0  0  0  0  0
   39.7890   33.5000   41.0710 H   0  0  0  0  0  0  0  0  0  0  0  0
   37.9250   30.5470   47.5200 C   0  0  0  0  0  0  0  0  0  0  0  0
   37.1520   30.3520   46.5500 O   0  0  0  0  0  0  0  0  0  0  0  0
   39.2610   31.0360   47.3120 N   0  0  0  0  0  0  0  0  0  0  0  0
   39.9920   31.0850   48.0320 H   0  0  0  0  0  0  0  0  0  0  0  0
   37.4960   30.2860   48.9000 C   0  0  0  0  0  0  0  0  0  0  0  0
   38.0940   30.7420   50.0570 C   0  0  0  0  0  0  0  0  0  0  0  0
   38.9620   31.3520   49.9190 H   0  0  0  0  0  0  0  0  0  0  0  0
   37.5740   30.4100   51.2880 C   0  0  0  0  0  0  0  0  0  0  0  0
   36.4520   29.6200   51.4250 C   0  0  0  0  0  0  0  0  0  0  0  0
   36.0700   29.3790   52.4070 H   0  0  0  0  0  0  0  0  0  0  0  0
   35.8120   29.1360   50.3030 C   0  0  0  0  0  0  0  0  0  0  0  0
   34.9370   28.5170   50.3430 H   0  0  0  0  0  0  0  0  0  0  0  0
   36.3610   29.4880   49.0860 C   0  0  0  0  0  0  0  0  0  0  0  0
  1  2  1  0  0  0  0
  1  3  1  0  0  0  0
  1  4  1  1  0  0  0
  2  3  1  0  0  0  0
  2  5  1  0  0  0  0
  3  7  1  6  0  0  0
  3 19  1  0  0  0  0
  6  2  1  0  0  0  0
  8 13  1  0  0  0  0
  9 10  1  0  0  0  0
  9  8  2  0  0  0  0
 10 11  2  0  0  0  0
 11 12  1  0  0  0  0
 12  1  1  0  0  0  0
 13 12  2  0  0  0  0
 14  8  1  0  0  0  0
 15  9  1  0  0  0  0
 16 10  1  0  0  0  0
 17 21  1  0  0  0  0
 18 17  2  0  0  0  0
 19 17  1  0  0  0  0
 19 20  1  0  0  0  0
 21 29  2  0  0  0  0
 21 22  1  0  0  0  0
 22 24  2  0  0  0  0
 23 22  1  0  0  0  0
 24 25  1  0  0  0  0
 25 26  1  0  0  0  0
 27 28  1  0  0  0  0
 27 25  2  0  0  0  0
 29 27  1  0  0  0  0
M  END
>  <minimizedAffinity>
-6.22507

>  <minimizedRMSD>
3.5443418

$$$$
