
 OpenBabel03272510103D

 28 30  0  0  0  0  0  0  0  0999 V2000
   36.6750   30.5050   47.7360 C   0  0  0  0  0  0  0  0  0  0  0  0
   37.8240   31.2320   47.5740 C   0  0  0  0  0  0  0  0  0  0  0  0
   38.3450   31.6050   46.3580 C   0  0  0  0  0  0  0  0  0  0  0  0
   37.7000   31.2440   45.1950 C   0  0  0  0  0  0  0  0  0  0  0  0
   36.5300   30.5040   45.3710 C   0  0  0  0  0  0  0  0  0  0  0  0
   36.0530   30.1600   46.5860 N   0  0  0  0  0  0  0  0  0  0  0  0
   38.3550   31.5310   48.4730 H   0  0  0  0  0  0  0  0  0  0  0  0
   39.2520   32.1780   46.2350 H   0  0  0  0  0  0  0  0  0  0  0  0
   35.9410   30.1670   44.5200 H   0  0  0  0  0  0  0  0  0  0  0  0
   36.9310   29.8640   50.1550 C   0  0  0  0  0  0  0  0  0  0  0  0
   36.1340   30.1180   49.0150 C   0  0  0  0  0  0  0  0  0  0  0  0
   34.7510   29.9850   49.1400 C   0  0  0  0  0  0  0  0  0  0  0  0
   34.2560   29.6150   50.3700 N   0  0  0  0  0  0  0  0  0  0  0  0
   35.0490   29.3840   51.4230 C   0  0  0  0  0  0  0  0  0  0  0  0
   36.3890   29.5040   51.3310 N   0  0  0  0  0  0  0  0  0  0  0  0
   38.0060   29.9730   50.0370 H   0  0  0  0  0  0  0  0  0  0  0  0
   34.1170   30.1670   48.3090 H   0  0  0  0  0  0  0  0  0  0  0  0
   34.5010   29.1000   52.3220 H   0  0  0  0  0  0  0  0  0  0  0  0
   38.0880   31.5360   43.9000 O   0  0  0  0  0  0  0  0  0  0  0  0
   38.8520   30.6470   43.1620 C   0  0  0  0  0  0  0  0  0  0  0  0
   38.4260   29.5410   42.4500 C   0  0  0  0  0  0  0  0  0  0  0  0
   37.3760   29.3910   42.5050 H   0  0  0  0  0  0  0  0  0  0  0  0
   39.3440   28.7650   41.7670 C   0  0  0  0  0  3  0  0  0  0  0  0
   40.6900   29.0520   41.7650 C   0  0  0  0  0  0  0  0  0  0  0  0
   41.3650   28.4110   41.2140 H   0  0  0  0  0  0  0  0  0  0  0  0
   41.1040   30.1630   42.4810 C   0  0  0  0  0  0  0  0  0  0  0  0
   42.1710   30.3680   42.4640 H   0  0  0  0  0  0  0  0  0  0  0  0
   40.2140   30.9660   43.1790 C   0  0  0  0  0  3  0  0  0  0  0  0
  1 11  1  0  0  0  0
  2  1  1  0  0  0  0
  2  7  1  0  0  0  0
  3  2  2  0  0  0  0
  4  5  2  0  0  0  0
  4  3  1  0  0  0  0
  5  6  1  0  0  0  0
  6  1  2  0  0  0  0
  8  3  1  0  0  0  0
  9  5  1  0  0  0  0
 10 15  1  0  0  0  0
 11 12  1  0  0  0  0
 11 10  2  0  0  0  0
 12 13  2  0  0  0  0
 13 14  1  0  0  0  0
 14 18  1  0  0  0  0
 15 14  2  0  0  0  0
 16 10  1  0  0  0  0
 17 12  1  0  0  0  0
 19  4  1  0  0  0  0
 20 28  1  0  0  0  0
 20 19  1  0  0  0  0
 21 22  1  0  0  0  0
 21 20  2  0  0  0  0
 23 21  1  0  0  0  0
 24 23  2  0  0  0  0
 24 26  1  0  0  0  0
 25 24  1  0  0  0  0
 26 28  2  0  0  0  0
 27 26  1  0  0  0  0
M  END
>  <minimizedAffinity>
-4.42149925

>  <minimizedRMSD>
5.31968975

$$$$
