
 OpenBabel03272509313D

 38 40  0  0  1  0  0  0  0  0999 V2000
   36.4540   30.7590   49.0270 C   0  0  2  0  0  0  0  0  0  0  0  0
   37.4580   31.5860   49.7730 C   0  0  0  0  0  0  0  0  0  0  0  0
   38.3030   30.7690   50.7250 C   0  0  0  0  0  0  0  0  0  0  0  0
   37.4200   30.0100   51.7130 C   0  0  0  0  0  0  0  0  0  0  0  0
   36.1390   29.4930   51.1150 C   0  0  0  0  0  0  0  0  0  0  0  0
   36.3290   29.3820   49.5910 C   0  0  1  0  0  0  0  0  0  0  0  0
   35.4100   31.1810   49.0430 H   0  0  0  0  0  0  0  0  0  0  0  0
   38.0500   32.2790   49.2080 H   0  0  0  0  0  0  0  0  0  0  0  0
   36.8250   32.2350   50.4670 H   0  0  0  0  0  0  0  0  0  0  0  0
   38.9170   31.4680   51.2930 H   0  0  0  0  0  0  0  0  0  0  0  0
   38.9370   30.0300   50.2270 H   0  0  0  0  0  0  0  0  0  0  0  0
   37.9920   29.1380   52.0950 H   0  0  0  0  0  0  0  0  0  0  0  0
   37.1970   30.6480   52.5990 H   0  0  0  0  0  0  0  0  0  0  0  0
   35.8340   28.5190   51.5260 H   0  0  0  0  0  0  0  0  0  0  0  0
   35.3390   30.2190   51.2990 H   0  0  0  0  0  0  0  0  0  0  0  0
   37.2590   28.8670   49.5550 H   0  0  0  0  0  0  0  0  0  0  0  0
   36.8080   30.6550   47.5860 C   0  0  0  0  0  0  0  0  0  0  0  0
   38.1720   30.8200   47.2840 C   0  0  0  0  0  0  0  0  0  0  0  0
   38.5340   30.7230   45.9350 C   0  0  0  0  0  0  0  0  0  0  0  0
   37.5500   30.4760   45.0030 N   0  0  0  0  0  0  0  0  0  0  0  0
   36.2360   30.3230   45.3520 C   0  0  0  0  0  0  0  0  0  0  0  0
   35.8850   30.4160   46.6500 N   0  0  0  0  0  0  0  0  0  0  0  0
   39.0290   31.0040   47.9020 H   0  0  0  0  0  0  0  0  0  0  0  0
   39.5310   30.8260   45.5530 H   0  0  0  0  0  0  0  0  0  0  0  0
   35.5170   30.1290   44.5590 H   0  0  0  0  0  0  0  0  0  0  0  0
   33.9990   28.4640   49.1510 C   0  0  0  0  0  0  0  0  0  0  0  0
   33.2290   29.1690   49.9050 O   0  0  0  0  0  0  0  0  0  0  0  0
   35.3930   28.5500   48.9300 N   0  0  0  0  0  0  0  0  0  0  0  0
   35.7300   27.8980   48.1630 H   0  0  0  0  0  0  0  0  0  0  0  0
   33.1650   27.4540   48.4760 C   0  0  0  0  0  0  0  0  0  0  0  0
   31.7960   27.4250   48.5740 C   0  0  0  0  0  0  0  0  0  0  0  0
   31.2510   28.1520   49.1570 H   0  0  0  0  0  0  0  0  0  0  0  0
   30.9810   26.4910   47.9580 C   0  0  0  0  0  3  0  0  0  0  0  0
   31.5400   25.5170   47.1920 C   0  0  0  0  0  0  0  0  0  0  0  0
   30.9110   24.7850   46.7090 H   0  0  0  0  0  0  0  0  0  0  0  0
   32.9070   25.4960   47.0580 C   0  0  0  0  0  0  0  0  0  0  0  0
   33.3130   24.7060   46.4410 H   0  0  0  0  0  0  0  0  0  0  0  0
   33.6710   26.4460   47.6900 C   0  0  0  0  0  3  0  0  0  0  0  0
  1  7  1  1  0  0  0
  1  6  1  0  0  0  0
  1  2  1  0  0  0  0
  2  9  1  0  0  0  0
  2  3  1  0  0  0  0
  3 10  1  0  0  0  0
  3  4  1  0  0  0  0
  4 12  1  0  0  0  0
  4 13  1  0  0  0  0
  5 15  1  0  0  0  0
  5 14  1  0  0  0  0
  5  4  1  0  0  0  0
  6 16  1  6  0  0  0
  6  5  1  0  0  0  0
  8  2  1  0  0  0  0
 11  3  1  0  0  0  0
 17  1  1  0  0  0  0
 18 17  1  0  0  0  0
 18 23  1  0  0  0  0
 19 18  2  0  0  0  0
 20 21  2  0  0  0  0
 20 19  1  0  0  0  0
 21 22  1  0  0  0  0
 22 17  2  0  0  0  0
 24 19  1  0  0  0  0
 25 21  1  0  0  0  0
 26 27  2  0  0  0  0
 28 26  1  0  0  0  0
 28  6  1  0  0  0  0
 29 28  1  0  0  0  0
 30 31  1  0  0  0  0
 30 26  1  0  0  0  0
 31 32  1  0  0  0  0
 33 31  2  0  0  0  0
 34 33  1  0  0  0  0
 35 34  1  0  0  0  0
 36 34  2  0  0  0  0
 36 38  1  0  0  0  0
 37 36  1  0  0  0  0
 38 30  2  0  0  0  0
M  END
>  <minimizedAffinity>
-6.28757191

>  <minimizedRMSD>
0.77048862

$$$$
