
 OpenBabel03272509313D

 38 40  0  0  1  0  0  0  0  0999 V2000
   36.4430   30.7600   49.0180 C   0  0  2  0  0  0  0  0  0  0  0  0
   37.4520   31.5870   49.7560 C   0  0  0  0  0  0  0  0  0  0  0  0
   38.3010   30.7710   50.7060 C   0  0  0  0  0  0  0  0  0  0  0  0
   37.4240   30.0150   51.7000 C   0  0  0  0  0  0  0  0  0  0  0  0
   36.1390   29.4980   51.1100 C   0  0  0  0  0  0  0  0  0  0  0  0
   36.3200   29.3840   49.5850 C   0  0  1  0  0  0  0  0  0  0  0  0
   35.3990   31.1830   49.0390 H   0  0  0  0  0  0  0  0  0  0  0  0
   38.0410   32.2800   49.1880 H   0  0  0  0  0  0  0  0  0  0  0  0
   36.8230   32.2380   50.4530 H   0  0  0  0  0  0  0  0  0  0  0  0
   38.9190   31.4710   51.2690 H   0  0  0  0  0  0  0  0  0  0  0  0
   38.9320   30.0310   50.2050 H   0  0  0  0  0  0  0  0  0  0  0  0
   37.9970   29.1440   52.0800 H   0  0  0  0  0  0  0  0  0  0  0  0
   37.2060   30.6550   52.5860 H   0  0  0  0  0  0  0  0  0  0  0  0
   35.8350   28.5250   51.5240 H   0  0  0  0  0  0  0  0  0  0  0  0
   35.3400   30.2240   51.2970 H   0  0  0  0  0  0  0  0  0  0  0  0
   37.2490   28.8690   49.5440 H   0  0  0  0  0  0  0  0  0  0  0  0
   36.7890   30.6530   47.5750 C   0  0  0  0  0  0  0  0  0  0  0  0
   38.1510   30.8210   47.2650 C   0  0  0  0  0  0  0  0  0  0  0  0
   38.5050   30.7220   45.9150 C   0  0  0  0  0  0  0  0  0  0  0  0
   37.5170   30.4700   44.9880 N   0  0  0  0  0  0  0  0  0  0  0  0
   36.2050   30.3130   45.3450 C   0  0  0  0  0  0  0  0  0  0  0  0
   35.8610   30.4090   46.6450 N   0  0  0  0  0  0  0  0  0  0  0  0
   39.0100   31.0100   47.8770 H   0  0  0  0  0  0  0  0  0  0  0  0
   39.5000   30.8270   45.5260 H   0  0  0  0  0  0  0  0  0  0  0  0
   35.4820   30.1150   44.5560 H   0  0  0  0  0  0  0  0  0  0  0  0
   33.9870   28.4700   49.1560 C   0  0  0  0  0  0  0  0  0  0  0  0
   33.2210   29.1790   49.9110 O   0  0  0  0  0  0  0  0  0  0  0  0
   35.3800   28.5510   48.9300 N   0  0  0  0  0  0  0  0  0  0  0  0
   35.7130   27.8960   48.1640 H   0  0  0  0  0  0  0  0  0  0  0  0
   33.1480   27.4590   48.4890 C   0  0  0  0  0  0  0  0  0  0  0  0
   33.6630   26.4570   47.7030 C   0  0  0  0  0  0  0  0  0  0  0  0
   34.7230   26.3550   47.5320 H   0  0  0  0  0  0  0  0  0  0  0  0
   32.9060   25.4930   47.0590 C   0  0  0  0  0  3  0  0  0  0  0  0
   31.5530   25.5060   47.1910 C   0  0  0  0  0  0  0  0  0  0  0  0
   30.9560   24.7570   46.6910 H   0  0  0  0  0  0  0  0  0  0  0  0
   30.9820   26.4860   47.9660 C   0  0  0  0  0  0  0  0  0  0  0  0
   29.9030   26.4630   48.0460 H   0  0  0  0  0  0  0  0  0  0  0  0
   31.7770   27.4200   48.5830 C   0  0  0  0  0  3  0  0  0  0  0  0
  1  7  1  1  0  0  0
  1  6  1  0  0  0  0
  1  2  1  0  0  0  0
  2  9  1  0  0  0  0
  2  3  1  0  0  0  0
  3 10  1  0  0  0  0
  3  4  1  0  0  0  0
  4 12  1  0  0  0  0
  4 13  1  0  0  0  0
  5 15  1  0  0  0  0
  5 14  1  0  0  0  0
  5  4  1  0  0  0  0
  6 16  1  6  0  0  0
  6  5  1  0  0  0  0
  8  2  1  0  0  0  0
 11  3  1  0  0  0  0
 17  1  1  0  0  0  0
 18 17  1  0  0  0  0
 18 23  1  0  0  0  0
 19 18  2  0  0  0  0
 20 21  2  0  0  0  0
 20 19  1  0  0  0  0
 21 22  1  0  0  0  0
 22 17  2  0  0  0  0
 24 19  1  0  0  0  0
 25 21  1  0  0  0  0
 26 27  2  0  0  0  0
 28 26  1  0  0  0  0
 28  6  1  0  0  0  0
 29 28  1  0  0  0  0
 30 38  1  0  0  0  0
 30 26  1  0  0  0  0
 31 30  2  0  0  0  0
 32 31  1  0  0  0  0
 33 34  2  0  0  0  0
 33 31  1  0  0  0  0
 34 36  1  0  0  0  0
 35 34  1  0  0  0  0
 36 37  1  0  0  0  0
 36 38  2  0  0  0  0
M  END
>  <minimizedAffinity>
-6.26952553

>  <minimizedRMSD>
0.725601494

$$$$
