
 OpenBabel03272509313D

 38 40  0  0  1  0  0  0  0  0999 V2000
   36.5800   30.8790   48.8770 C   0  0  2  0  0  0  0  0  0  0  0  0
   37.4590   31.5830   49.8680 C   0  0  0  0  0  0  0  0  0  0  0  0
   38.0940   30.6400   50.8660 C   0  0  0  0  0  0  0  0  0  0  0  0
   37.0270   29.8340   51.6010 C   0  0  0  0  0  0  0  0  0  0  0  0
   35.8590   29.4370   50.7380 C   0  0  0  0  0  0  0  0  0  0  0  0
   36.3150   29.4620   49.2680 C   0  0  1  0  0  0  0  0  0  0  0  0
   35.5640   31.3470   48.7520 H   0  0  0  0  0  0  0  0  0  0  0  0
   38.1620   32.2990   49.4900 H   0  0  0  0  0  0  0  0  0  0  0  0
   36.7310   32.1930   50.5020 H   0  0  0  0  0  0  0  0  0  0  0  0
   38.6170   31.2530   51.6010 H   0  0  0  0  0  0  0  0  0  0  0  0
   38.7860   29.9230   50.4140 H   0  0  0  0  0  0  0  0  0  0  0  0
   37.4950   28.9040   51.9870 H   0  0  0  0  0  0  0  0  0  0  0  0
   36.6670   30.3950   52.4950 H   0  0  0  0  0  0  0  0  0  0  0  0
   35.4560   28.4440   50.9880 H   0  0  0  0  0  0  0  0  0  0  0  0
   35.0600   30.1790   50.8510 H   0  0  0  0  0  0  0  0  0  0  0  0
   37.2210   28.9100   49.3430 H   0  0  0  0  0  0  0  0  0  0  0  0
   37.1840   30.8960   47.5180 C   0  0  0  0  0  0  0  0  0  0  0  0
   38.5610   31.1820   47.4700 C   0  0  0  0  0  0  0  0  0  0  0  0
   39.1560   31.2000   46.2030 C   0  0  0  0  0  0  0  0  0  0  0  0
   38.3710   30.9410   45.1000 N   0  0  0  0  0  0  0  0  0  0  0  0
   37.0350   30.6670   45.2040 C   0  0  0  0  0  0  0  0  0  0  0  0
   36.4590   30.6490   46.4230 N   0  0  0  0  0  0  0  0  0  0  0  0
   39.2800   31.3900   48.2370 H   0  0  0  0  0  0  0  0  0  0  0  0
   40.1910   31.4030   46.0080 H   0  0  0  0  0  0  0  0  0  0  0  0
   36.4810   30.4710   44.2880 H   0  0  0  0  0  0  0  0  0  0  0  0
   34.1480   28.3380   48.5610 C   0  0  0  0  0  0  0  0  0  0  0  0
   33.3230   28.6010   49.5150 O   0  0  0  0  0  0  0  0  0  0  0  0
   35.4890   28.7420   48.3710 N   0  0  0  0  0  0  0  0  0  0  0  0
   35.8770   28.4530   47.4260 H   0  0  0  0  0  0  0  0  0  0  0  0
   33.4500   27.4750   47.5910 C   0  0  0  0  0  0  0  0  0  0  0  0
   33.0580   26.1910   47.8770 C   0  0  0  0  0  0  0  0  0  0  0  0
   33.2410   25.7400   48.8410 H   0  0  0  0  0  0  0  0  0  0  0  0
   32.4030   25.3510   46.9920 C   0  0  0  0  0  3  0  0  0  0  0  0
   32.1110   25.7950   45.7410 C   0  0  0  0  0  0  0  0  0  0  0  0
   31.6000   25.1450   45.0450 H   0  0  0  0  0  0  0  0  0  0  0  0
   32.4810   27.0730   45.3980 C   0  0  0  0  0  0  0  0  0  0  0  0
   32.2300   27.3880   44.3940 H   0  0  0  0  0  0  0  0  0  0  0  0
   33.1280   27.8660   46.3140 C   0  0  0  0  0  3  0  0  0  0  0  0
  1  7  1  6  0  0  0
  1  6  1  0  0  0  0
  1  2  1  0  0  0  0
  2  9  1  0  0  0  0
  2  3  1  0  0  0  0
  3 10  1  0  0  0  0
  3  4  1  0  0  0  0
  4 12  1  0  0  0  0
  4 13  1  0  0  0  0
  5 15  1  0  0  0  0
  5 14  1  0  0  0  0
  5  4  1  0  0  0  0
  6 16  1  6  0  0  0
  6  5  1  0  0  0  0
  8  2  1  0  0  0  0
 11  3  1  0  0  0  0
 17  1  1  0  0  0  0
 18 17  1  0  0  0  0
 18 23  1  0  0  0  0
 19 18  2  0  0  0  0
 20 21  2  0  0  0  0
 20 19  1  0  0  0  0
 21 22  1  0  0  0  0
 22 17  2  0  0  0  0
 24 19  1  0  0  0  0
 25 21  1  0  0  0  0
 26 27  2  0  0  0  0
 28 26  1  0  0  0  0
 28  6  1  0  0  0  0
 29 28  1  0  0  0  0
 30 31  1  0  0  0  0
 30 26  1  0  0  0  0
 31 32  1  0  0  0  0
 33 31  2  0  0  0  0
 34 33  1  0  0  0  0
 35 34  1  0  0  0  0
 36 34  2  0  0  0  0
 36 38  1  0  0  0  0
 37 36  1  0  0  0  0
 38 30  2  0  0  0  0
M  END
>  <minimizedAffinity>
-5.77720261

>  <minimizedRMSD>
1.17929304

$$$$
