
 OpenBabel03262520323D

 23 24  0  0  0  0  0  0  0  0999 V2000
   33.2810   27.2940   47.9830 C   0  0  0  0  0  0  0  0  0  0  0  0
   32.7790   26.7490   48.8280 H   0  0  0  0  0  0  0  0  0  0  0  0
   32.5200   27.9280   47.4670 H   0  0  0  0  0  0  0  0  0  0  0  0
   33.7050   26.2150   47.0440 C   0  0  0  0  0  0  0  0  0  0  0  0
   33.9200   24.8930   47.3700 C   0  0  0  0  0  0  0  0  0  0  0  0
   33.7640   24.6230   48.4020 H   0  0  0  0  0  0  0  0  0  0  0  0
   34.3110   23.9850   46.4090 C   0  0  0  0  0  0  0  0  0  0  0  0
   34.5020   24.3740   45.0800 C   0  0  0  0  0  0  0  0  0  0  0  0
   34.8100   23.6840   44.3020 H   0  0  0  0  0  0  0  0  0  0  0  0
   34.2930   25.6880   44.7390 C   0  0  0  0  0  0  0  0  0  0  0  0
   34.4360   26.0070   43.7120 H   0  0  0  0  0  0  0  0  0  0  0  0
   33.8990   26.5920   45.7100 C   0  0  0  0  0  0  0  0  0  0  0  0
   34.6940   28.3820   49.7530 C   0  0  0  0  0  0  0  0  0  0  0  0
   34.3880   28.0740   48.5350 C   0  0  0  0  0  0  0  0  0  0  0  0
   37.3740   30.2390   51.4280 C   0  0  0  0  0  0  0  0  0  0  0  0
   38.1190   30.7060   50.3110 C   0  0  0  0  0  0  0  0  0  0  0  0
   37.6750   30.3660   49.0050 C   0  0  0  0  0  0  0  0  0  0  0  0
   36.5440   29.6020   48.9230 N   0  0  0  0  0  0  0  0  0  0  0  0
   35.8740   29.1850   50.0020 C   0  0  0  0  0  0  0  0  0  0  0  0
   36.2860   29.5000   51.2370 N   0  0  0  0  0  0  0  0  0  0  0  0
   37.7500   30.5210   52.4030 H   0  0  0  0  0  0  0  0  0  0  0  0
   39.0050   31.3070   50.4380 H   0  0  0  0  0  0  0  0  0  0  0  0
   38.2140   30.7030   48.1380 H   0  0  0  0  0  0  0  0  0  0  0  0
  1 14  1  0  0  0  0
  1  2  1  0  0  0  0
  3  1  1  0  0  0  0
  4  5  1  0  0  0  0
  4  1  1  0  0  0  0
  5  6  1  0  0  0  0
  7  5  2  0  0  0  0
  8  7  1  0  0  0  0
  9  8  1  0  0  0  0
 10  8  2  0  0  0  0
 10 12  1  0  0  0  0
 11 10  1  0  0  0  0
 12  4  2  0  0  0  0
 13 19  1  0  0  0  0
 14 13  2  0  0  0  0
 15 21  1  0  0  0  0
 16 22  1  0  0  0  0
 16 15  2  0  0  0  0
 17 16  1  0  0  0  0
 18 17  2  0  0  0  0
 18 19  1  0  0  0  0
 19 20  2  0  0  0  0
 20 15  1  0  0  0  0
 23 17  1  0  0  0  0
M  END
>  <minimizedAffinity>
-4.6130352

>  <minimizedRMSD>
0.75401181

$$$$
