
 OpenBabel03272509323D

 38 40  0  0  1  0  0  0  0  0999 V2000
   38.5210   25.7030   34.2090 C   0  0  2  0  0  0  0  0  0  0  0  0
   38.5240   27.1010   34.7530 C   0  0  0  0  0  0  0  0  0  0  0  0
   37.2310   27.8390   34.4850 C   0  0  0  0  0  0  0  0  0  0  0  0
   36.9250   27.8650   32.9900 C   0  0  0  0  0  0  0  0  0  0  0  0
   37.3020   26.5990   32.2670 C   0  0  0  0  0  0  0  0  0  0  0  0
   37.3650   25.4560   33.2970 C   0  0  1  0  0  0  0  0  0  0  0  0
   39.4360   25.4440   33.6050 H   0  0  0  0  0  0  0  0  0  0  0  0
   38.8640   27.2430   35.7590 H   0  0  0  0  0  0  0  0  0  0  0  0
   39.2850   27.6510   34.1030 H   0  0  0  0  0  0  0  0  0  0  0  0
   37.3720   28.8680   34.8160 H   0  0  0  0  0  0  0  0  0  0  0  0
   36.3620   27.3990   34.9840 H   0  0  0  0  0  0  0  0  0  0  0  0
   35.8320   28.0170   32.8590 H   0  0  0  0  0  0  0  0  0  0  0  0
   37.4200   28.7410   32.5100 H   0  0  0  0  0  0  0  0  0  0  0  0
   36.6010   26.3380   31.4610 H   0  0  0  0  0  0  0  0  0  0  0  0
   38.3040   26.7160   31.8380 H   0  0  0  0  0  0  0  0  0  0  0  0
   36.4410   25.6070   33.8000 H   0  0  0  0  0  0  0  0  0  0  0  0
   38.4860   24.7010   35.3080 C   0  0  0  0  0  0  0  0  0  0  0  0
   38.0590   25.1850   36.5570 C   0  0  0  0  0  0  0  0  0  0  0  0
   38.0120   24.2620   37.6080 C   0  0  0  0  0  0  0  0  0  0  0  0
   38.3800   22.9580   37.3590 N   0  0  0  0  0  0  0  0  0  0  0  0
   38.7880   22.5380   36.1220 C   0  0  0  0  0  0  0  0  0  0  0  0
   38.8340   23.4260   35.1080 N   0  0  0  0  0  0  0  0  0  0  0  0
   37.7400   26.1560   36.8820 H   0  0  0  0  0  0  0  0  0  0  0  0
   37.7090   24.4830   38.6130 H   0  0  0  0  0  0  0  0  0  0  0  0
   39.0620   21.4920   36.0020 H   0  0  0  0  0  0  0  0  0  0  0  0
   36.2600   23.5740   31.9930 C   0  0  0  0  0  0  0  0  0  0  0  0
   35.1770   24.0960   31.5320 O   0  0  0  0  0  0  0  0  0  0  0  0
   37.3060   24.1520   32.7480 N   0  0  0  0  0  0  0  0  0  0  0  0
   38.1270   23.4930   32.8890 H   0  0  0  0  0  0  0  0  0  0  0  0
   36.2790   22.1550   31.5970 C   0  0  0  0  0  0  0  0  0  0  0  0
   37.2940   21.5960   30.8620 C   0  0  0  0  0  0  0  0  0  0  0  0
   38.1440   22.1730   30.5330 H   0  0  0  0  0  0  0  0  0  0  0  0
   37.3440   20.2680   30.4690 C   0  0  0  0  0  3  0  0  0  0  0  0
   36.3330   19.4290   30.8170 C   0  0  0  0  0  0  0  0  0  0  0  0
   36.3650   18.3930   30.5150 H   0  0  0  0  0  0  0  0  0  0  0  0
   35.2890   19.9350   31.5540 C   0  0  0  0  0  0  0  0  0  0  0  0
   34.5050   19.2360   31.8120 H   0  0  0  0  0  0  0  0  0  0  0  0
   35.2870   21.2590   31.9190 C   0  0  0  0  0  3  0  0  0  0  0  0
  1  7  1  6  0  0  0
  1  2  1  0  0  0  0
  1 17  1  0  0  0  0
  2  8  1  0  0  0  0
  3  2  1  0  0  0  0
  3 10  1  0  0  0  0
  3 11  1  0  0  0  0
  4  3  1  0  0  0  0
  5  4  1  0  0  0  0
  5  6  1  0  0  0  0
  6 16  1  1  0  0  0
  6  1  1  0  0  0  0
  9  2  1  0  0  0  0
 12  4  1  0  0  0  0
 13  4  1  0  0  0  0
 14  5  1  0  0  0  0
 15  5  1  0  0  0  0
 17 18  1  0  0  0  0
 18 23  1  0  0  0  0
 18 19  2  0  0  0  0
 19 24  1  0  0  0  0
 20 19  1  0  0  0  0
 21 20  2  0  0  0  0
 22 17  2  0  0  0  0
 22 21  1  0  0  0  0
 25 21  1  0  0  0  0
 26 28  1  0  0  0  0
 27 26  2  0  0  0  0
 28 29  1  0  0  0  0
 28  6  1  0  0  0  0
 30 38  1  0  0  0  0
 30 26  1  0  0  0  0
 31 30  2  0  0  0  0
 32 31  1  0  0  0  0
 33 34  2  0  0  0  0
 33 31  1  0  0  0  0
 34 36  1  0  0  0  0
 35 34  1  0  0  0  0
 36 37  1  0  0  0  0
 36 38  2  0  0  0  0
M  END
>  <minimizedAffinity>
-5.62306786

$$$$

 OpenBabel03272509323D

 38 40  0  0  1  0  0  0  0  0999 V2000
   40.0570   24.6840   34.4400 C   0  0  2  0  0  0  0  0  0  0  0  0
   40.7010   26.0260   34.6270 C   0  0  0  0  0  0  0  0  0  0  0  0
   39.9260   27.1470   33.9710 C   0  0  0  0  0  0  0  0  0  0  0  0
   39.7290   26.8690   32.4840 C   0  0  0  0  0  0  0  0  0  0  0  0
   39.4900   25.4190   32.1600 C   0  0  0  0  0  0  0  0  0  0  0  0
   38.9610   24.7230   33.4270 C   0  0  1  0  0  0  0  0  0  0  0  0
   40.7630   23.8830   34.0830 H   0  0  0  0  0  0  0  0  0  0  0  0
   41.0270   26.2890   35.6140 H   0  0  0  0  0  0  0  0  0  0  0  0
   41.6580   25.9640   34.0070 H   0  0  0  0  0  0  0  0  0  0  0  0
   40.5260   28.0530   34.0670 H   0  0  0  0  0  0  0  0  0  0  0  0
   38.9330   27.3060   34.4030 H   0  0  0  0  0  0  0  0  0  0  0  0
   38.8470   27.4450   32.1340 H   0  0  0  0  0  0  0  0  0  0  0  0
   40.6000   27.2510   31.9020 H   0  0  0  0  0  0  0  0  0  0  0  0
   38.7820   25.2730   31.3300 H   0  0  0  0  0  0  0  0  0  0  0  0
   40.4430   24.9480   31.8950 H   0  0  0  0  0  0  0  0  0  0  0  0
   38.1990   25.4080   33.7130 H   0  0  0  0  0  0  0  0  0  0  0  0
   39.5060   24.1710   35.7230 C   0  0  0  0  0  0  0  0  0  0  0  0
   40.3320   23.2740   36.4220 C   0  0  0  0  0  0  0  0  0  0  0  0
   39.8400   22.7780   37.6350 C   0  0  0  0  0  0  0  0  0  0  0  0
   38.5970   23.1930   38.0630 N   0  0  0  0  0  0  0  0  0  0  0  0
   37.8330   24.0710   37.3430 C   0  0  0  0  0  0  0  0  0  0  0  0
   38.3060   24.5480   36.1740 N   0  0  0  0  0  0  0  0  0  0  0  0
   41.3070   22.8800   36.2120 H   0  0  0  0  0  0  0  0  0  0  0  0
   40.3530   22.0880   38.2770 H   0  0  0  0  0  0  0  0  0  0  0  0
   36.8630   24.3530   37.7460 H   0  0  0  0  0  0  0  0  0  0  0  0
   37.0940   23.2520   32.5230 C   0  0  0  0  0  0  0  0  0  0  0  0
   36.3410   24.0600   31.8610 O   0  0  0  0  0  0  0  0  0  0  0  0
   38.3120   23.4840   33.2040 N   0  0  0  0  0  0  0  0  0  0  0  0
   38.7580   22.5920   33.5670 H   0  0  0  0  0  0  0  0  0  0  0  0
   36.4690   21.9190   32.4810 C   0  0  0  0  0  0  0  0  0  0  0  0
   36.1460   21.2790   31.3100 C   0  0  0  0  0  0  0  0  0  0  0  0
   36.3390   21.7240   30.3460 H   0  0  0  0  0  0  0  0  0  0  0  0
   35.5550   20.0280   31.2320 C   0  0  0  0  0  3  0  0  0  0  0  0
   35.2580   19.3560   32.3750 C   0  0  0  0  0  0  0  0  0  0  0  0
   34.7970   18.3810   32.3220 H   0  0  0  0  0  0  0  0  0  0  0  0
   35.5590   19.9480   33.5780 C   0  0  0  0  0  0  0  0  0  0  0  0
   35.3080   19.3820   34.4640 H   0  0  0  0  0  0  0  0  0  0  0  0
   36.1450   21.1910   33.6010 C   0  0  0  0  0  3  0  0  0  0  0  0
  1  7  1  6  0  0  0
  1  2  1  0  0  0  0
  1 17  1  0  0  0  0
  2  8  1  0  0  0  0
  3 10  1  0  0  0  0
  3 11  1  0  0  0  0
  3  2  1  0  0  0  0
  4  3  1  0  0  0  0
  5  4  1  0  0  0  0
  5  6  1  0  0  0  0
  6 16  1  1  0  0  0
  6  1  1  0  0  0  0
  9  2  1  0  0  0  0
 12  4  1  0  0  0  0
 13  4  1  0  0  0  0
 14  5  1  0  0  0  0
 15  5  1  0  0  0  0
 17 22  2  0  0  0  0
 17 18  1  0  0  0  0
 18 19  2  0  0  0  0
 19 20  1  0  0  0  0
 19 24  1  0  0  0  0
 21 25  1  0  0  0  0
 21 20  2  0  0  0  0
 22 21  1  0  0  0  0
 23 18  1  0  0  0  0
 26 28  1  0  0  0  0
 27 26  2  0  0  0  0
 28  6  1  0  0  0  0
 28 29  1  0  0  0  0
 30 26  1  0  0  0  0
 30 38  1  0  0  0  0
 31 30  2  0  0  0  0
 32 31  1  0  0  0  0
 33 31  1  0  0  0  0
 33 34  2  0  0  0  0
 34 36  1  0  0  0  0
 35 34  1  0  0  0  0
 36 38  2  0  0  0  0
 36 37  1  0  0  0  0
M  END
>  <minimizedAffinity>
-5.53589916

$$$$

 OpenBabel03272509323D

 38 40  0  0  1  0  0  0  0  0999 V2000
   36.1380   25.8190   32.0020 C   0  0  2  0  0  0  0  0  0  0  0  0
   35.9120   26.6540   30.7770 C   0  0  0  0  0  0  0  0  0  0  0  0
   36.9430   27.7490   30.6130 C   0  0  0  0  0  0  0  0  0  0  0  0
   36.9830   28.6430   31.8500 C   0  0  0  0  0  0  0  0  0  0  0  0
   36.7840   27.9020   33.1450 C   0  0  0  0  0  0  0  0  0  0  0  0
   37.1510   26.4240   32.9170 C   0  0  1  0  0  0  0  0  0  0  0  0
   35.2180   25.6740   32.6340 H   0  0  0  0  0  0  0  0  0  0  0  0
   35.7210   26.1440   29.8540 H   0  0  0  0  0  0  0  0  0  0  0  0
   34.9490   27.2260   31.0030 H   0  0  0  0  0  0  0  0  0  0  0  0
   36.6320   28.3620   29.7670 H   0  0  0  0  0  0  0  0  0  0  0  0
   37.9590   27.3760   30.4530 H   0  0  0  0  0  0  0  0  0  0  0  0
   37.9750   29.1380   31.8920 H   0  0  0  0  0  0  0  0  0  0  0  0
   36.2300   29.4600   31.7580 H   0  0  0  0  0  0  0  0  0  0  0  0
   37.3810   28.3120   33.9730 H   0  0  0  0  0  0  0  0  0  0  0  0
   35.7240   27.9420   33.4220 H   0  0  0  0  0  0  0  0  0  0  0  0
   38.0890   26.5380   32.4290 H   0  0  0  0  0  0  0  0  0  0  0  0
   36.5800   24.4460   31.6410 C   0  0  0  0  0  0  0  0  0  0  0  0
   35.5550   23.4880   31.5320 C   0  0  0  0  0  0  0  0  0  0  0  0
   35.9420   22.1880   31.1890 C   0  0  0  0  0  0  0  0  0  0  0  0
   37.2800   21.9300   30.9810 N   0  0  0  0  0  0  0  0  0  0  0  0
   38.2380   22.9000   31.0990 C   0  0  0  0  0  0  0  0  0  0  0  0
   37.8670   24.1530   31.4300 N   0  0  0  0  0  0  0  0  0  0  0  0
   34.4920   23.5540   31.6560 H   0  0  0  0  0  0  0  0  0  0  0  0
   35.2770   21.3540   31.0700 H   0  0  0  0  0  0  0  0  0  0  0  0
   39.2730   22.6190   30.9180 H   0  0  0  0  0  0  0  0  0  0  0  0
   38.5530   25.7400   34.9240 C   0  0  0  0  0  0  0  0  0  0  0  0
   39.5710   26.5270   34.8880 O   0  0  0  0  0  0  0  0  0  0  0  0
   37.4090   25.6820   34.0950 N   0  0  0  0  0  0  0  0  0  0  0  0
   36.6820   24.9900   34.4420 H   0  0  0  0  0  0  0  0  0  0  0  0
   38.7440   24.8100   36.0510 C   0  0  0  0  0  0  0  0  0  0  0  0
   38.0070   24.8720   37.2070 C   0  0  0  0  0  0  0  0  0  0  0  0
   37.2370   25.6140   37.3530 H   0  0  0  0  0  0  0  0  0  0  0  0
   38.1610   24.0180   38.2880 C   0  0  0  0  0  3  0  0  0  0  0  0
   39.0990   23.0360   38.2360 C   0  0  0  0  0  0  0  0  0  0  0  0
   39.2240   22.3670   39.0740 H   0  0  0  0  0  0  0  0  0  0  0  0
   39.8670   22.9260   37.1010 C   0  0  0  0  0  0  0  0  0  0  0  0
   40.6010   22.1320   37.0990 H   0  0  0  0  0  0  0  0  0  0  0  0
   39.6750   23.7980   36.0580 C   0  0  0  0  0  3  0  0  0  0  0  0
  1  7  1  1  0  0  0
  1  6  1  0  0  0  0
  2  9  1  0  0  0  0
  2  1  1  0  0  0  0
  3  2  1  0  0  0  0
  3  4  1  0  0  0  0
  4 12  1  0  0  0  0
  4  5  1  0  0  0  0
  5 15  1  0  0  0  0
  5 14  1  0  0  0  0
  6 16  1  6  0  0  0
  6  5  1  0  0  0  0
  6 28  1  0  0  0  0
  8  2  1  0  0  0  0
 10  3  1  0  0  0  0
 11  3  1  0  0  0  0
 13  4  1  0  0  0  0
 17  1  1  0  0  0  0
 18 17  1  0  0  0  0
 18 23  1  0  0  0  0
 19 18  2  0  0  0  0
 20 21  2  0  0  0  0
 20 19  1  0  0  0  0
 21 22  1  0  0  0  0
 22 17  2  0  0  0  0
 24 19  1  0  0  0  0
 25 21  1  0  0  0  0
 26 30  1  0  0  0  0
 27 26  2  0  0  0  0
 28 29  1  0  0  0  0
 28 26  1  0  0  0  0
 30 38  2  0  0  0  0
 30 31  1  0  0  0  0
 31 32  1  0  0  0  0
 31 33  2  0  0  0  0
 34 33  1  0  0  0  0
 34 35  1  0  0  0  0
 36 34  2  0  0  0  0
 37 36  1  0  0  0  0
 38 36  1  0  0  0  0
M  END
>  <minimizedAffinity>
-5.50635576

$$$$

 OpenBabel03272509323D

 38 40  0  0  1  0  0  0  0  0999 V2000
   36.5500   26.5470   31.9120 C   0  0  2  0  0  0  0  0  0  0  0  0
   36.2600   27.6060   30.8900 C   0  0  0  0  0  0  0  0  0  0  0  0
   36.7580   28.9740   31.3020 C   0  0  0  0  0  0  0  0  0  0  0  0
   36.1680   29.3790   32.6510 C   0  0  0  0  0  0  0  0  0  0  0  0
   36.0280   28.2380   33.6230 C   0  0  0  0  0  0  0  0  0  0  0  0
   37.0100   27.1270   33.2090 C   0  0  1  0  0  0  0  0  0  0  0  0
   35.6620   25.9060   32.1730 H   0  0  0  0  0  0  0  0  0  0  0  0
   36.4920   27.3870   29.8670 H   0  0  0  0  0  0  0  0  0  0  0  0
   35.1230   27.7160   30.9180 H   0  0  0  0  0  0  0  0  0  0  0  0
   36.4050   29.6840   30.5550 H   0  0  0  0  0  0  0  0  0  0  0  0
   37.8460   29.0350   31.3950 H   0  0  0  0  0  0  0  0  0  0  0  0
   36.8370   30.1370   33.1110 H   0  0  0  0  0  0  0  0  0  0  0  0
   35.1830   29.8800   32.5050 H   0  0  0  0  0  0  0  0  0  0  0  0
   36.2180   28.5350   34.6660 H   0  0  0  0  0  0  0  0  0  0  0  0
   35.0140   27.8290   33.5530 H   0  0  0  0  0  0  0  0  0  0  0  0
   37.8970   27.7000   33.0790 H   0  0  0  0  0  0  0  0  0  0  0  0
   37.5820   25.5960   31.4200 C   0  0  0  0  0  0  0  0  0  0  0  0
   37.0910   24.3920   30.8830 C   0  0  0  0  0  0  0  0  0  0  0  0
   38.0410   23.4810   30.4090 C   0  0  0  0  0  0  0  0  0  0  0  0
   39.3760   23.8120   30.4940 N   0  0  0  0  0  0  0  0  0  0  0  0
   39.8010   24.9990   31.0260 C   0  0  0  0  0  0  0  0  0  0  0  0
   38.8870   25.8790   31.4840 N   0  0  0  0  0  0  0  0  0  0  0  0
   36.0960   24.0170   30.7490 H   0  0  0  0  0  0  0  0  0  0  0  0
   37.8200   22.5250   29.9740 H   0  0  0  0  0  0  0  0  0  0  0  0
   40.8710   25.1900   31.0580 H   0  0  0  0  0  0  0  0  0  0  0  0
   38.1170   26.3450   35.3590 C   0  0  0  0  0  0  0  0  0  0  0  0
   38.7000   27.3960   35.8210 O   0  0  0  0  0  0  0  0  0  0  0  0
   37.3000   26.1770   34.2170 N   0  0  0  0  0  0  0  0  0  0  0  0
   36.8710   25.2080   34.1560 H   0  0  0  0  0  0  0  0  0  0  0  0
   38.4360   25.2220   36.2590 C   0  0  0  0  0  0  0  0  0  0  0  0
   39.3190   24.2250   35.9280 C   0  0  0  0  0  0  0  0  0  0  0  0
   39.8340   24.2110   34.9800 H   0  0  0  0  0  0  0  0  0  0  0  0
   39.6420   23.1540   36.7460 C   0  0  0  0  0  3  0  0  0  0  0  0
   39.0630   23.0490   37.9710 C   0  0  0  0  0  0  0  0  0  0  0  0
   39.3090   22.2180   38.6140 H   0  0  0  0  0  0  0  0  0  0  0  0
   38.1700   24.0210   38.3560 C   0  0  0  0  0  0  0  0  0  0  0  0
   37.7320   23.9020   39.3370 H   0  0  0  0  0  0  0  0  0  0  0  0
   37.8840   25.0630   37.5080 C   0  0  0  0  0  3  0  0  0  0  0  0
  1  7  1  1  0  0  0
  1  6  1  0  0  0  0
  2  9  1  0  0  0  0
  2  3  1  0  0  0  0
  2  1  1  0  0  0  0
  3 11  1  0  0  0  0
  3  4  1  0  0  0  0
  4 12  1  0  0  0  0
  4  5  1  0  0  0  0
  5 14  1  0  0  0  0
  6 16  1  6  0  0  0
  6  5  1  0  0  0  0
  6 28  1  0  0  0  0
  8  2  1  0  0  0  0
 10  3  1  0  0  0  0
 13  4  1  0  0  0  0
 15  5  1  0  0  0  0
 17 22  1  0  0  0  0
 17  1  1  0  0  0  0
 18 17  2  0  0  0  0
 19 20  2  0  0  0  0
 19 18  1  0  0  0  0
 20 21  1  0  0  0  0
 21 25  1  0  0  0  0
 21 22  2  0  0  0  0
 23 18  1  0  0  0  0
 24 19  1  0  0  0  0
 26 27  2  0  0  0  0
 26 30  1  0  0  0  0
 28 26  1  0  0  0  0
 29 28  1  0  0  0  0
 30 38  1  0  0  0  0
 31 30  2  0  0  0  0
 31 33  1  0  0  0  0
 32 31  1  0  0  0  0
 33 34  2  0  0  0  0
 34 36  1  0  0  0  0
 34 35  1  0  0  0  0
 36 37  1  0  0  0  0
 38 36  2  0  0  0  0
M  END
>  <minimizedAffinity>
-5.32020235

$$$$

 OpenBabel03272509323D

 38 40  0  0  1  0  0  0  0  0999 V2000
   36.2140   27.3280   32.1310 C   0  0  2  0  0  0  0  0  0  0  0  0
   35.7880   28.5430   31.3620 C   0  0  0  0  0  0  0  0  0  0  0  0
   36.2820   29.8330   31.9800 C   0  0  0  0  0  0  0  0  0  0  0  0
   35.8190   29.9480   33.4300 C   0  0  0  0  0  0  0  0  0  0  0  0
   35.8140   28.6400   34.1750 C   0  0  0  0  0  0  0  0  0  0  0  0
   36.7830   27.6770   33.4660 C   0  0  1  0  0  0  0  0  0  0  0  0
   35.3770   26.6050   32.3460 H   0  0  0  0  0  0  0  0  0  0  0  0
   35.9220   28.5320   30.2990 H   0  0  0  0  0  0  0  0  0  0  0  0
   34.6570   28.5890   31.5160 H   0  0  0  0  0  0  0  0  0  0  0  0
   35.8320   30.6520   31.4190 H   0  0  0  0  0  0  0  0  0  0  0  0
   37.3710   29.9310   31.9810 H   0  0  0  0  0  0  0  0  0  0  0  0
   36.5050   30.6390   33.9620 H   0  0  0  0  0  0  0  0  0  0  0  0
   34.8080   30.4170   33.4750 H   0  0  0  0  0  0  0  0  0  0  0  0
   36.0980   28.7450   35.2330 H   0  0  0  0  0  0  0  0  0  0  0  0
   34.8110   28.2010   34.1220 H   0  0  0  0  0  0  0  0  0  0  0  0
   37.6340   28.3080   33.3660 H   0  0  0  0  0  0  0  0  0  0  0  0
   37.2210   26.5390   31.3720 C   0  0  0  0  0  0  0  0  0  0  0  0
   38.2520   27.2870   30.7750 C   0  0  0  0  0  0  0  0  0  0  0  0
   39.2160   26.5690   30.0580 C   0  0  0  0  0  0  0  0  0  0  0  0
   39.0990   25.1970   29.9830 N   0  0  0  0  0  0  0  0  0  0  0  0
   38.0750   24.5180   30.5850 C   0  0  0  0  0  0  0  0  0  0  0  0
   37.1450   25.2080   31.2750 N   0  0  0  0  0  0  0  0  0  0  0  0
   38.4640   28.3370   30.7620 H   0  0  0  0  0  0  0  0  0  0  0  0
   40.0570   26.9990   29.5490 H   0  0  0  0  0  0  0  0  0  0  0  0
   38.0510   23.4360   30.4820 H   0  0  0  0  0  0  0  0  0  0  0  0
   38.1300   26.5620   35.3120 C   0  0  0  0  0  0  0  0  0  0  0  0
   38.7280   27.5350   35.9060 O   0  0  0  0  0  0  0  0  0  0  0  0
   37.2040   26.5700   34.2430 N   0  0  0  0  0  0  0  0  0  0  0  0
   36.7980   25.6100   34.0400 H   0  0  0  0  0  0  0  0  0  0  0  0
   38.5730   25.3080   35.9470 C   0  0  0  0  0  0  0  0  0  0  0  0
   37.9940   24.7980   37.0810 C   0  0  0  0  0  0  0  0  0  0  0  0
   37.1720   25.2930   37.5740 H   0  0  0  0  0  0  0  0  0  0  0  0
   38.3860   23.6250   37.7070 C   0  0  0  0  0  3  0  0  0  0  0  0
   39.4130   22.9010   37.1900 C   0  0  0  0  0  0  0  0  0  0  0  0
   39.7240   21.9870   37.6720 H   0  0  0  0  0  0  0  0  0  0  0  0
   40.0310   23.3650   36.0530 C   0  0  0  0  0  0  0  0  0  0  0  0
   40.8430   22.7610   35.6720 H   0  0  0  0  0  0  0  0  0  0  0  0
   39.6040   24.5340   35.4710 C   0  0  0  0  0  3  0  0  0  0  0  0
  1  7  1  1  0  0  0
  1  6  1  0  0  0  0
  2  9  1  0  0  0  0
  2  3  1  0  0  0  0
  2  1  1  0  0  0  0
  3 11  1  0  0  0  0
  3  4  1  0  0  0  0
  4 13  1  0  0  0  0
  4 12  1  0  0  0  0
  4  5  1  0  0  0  0
  5 14  1  0  0  0  0
  6 16  1  6  0  0  0
  6  5  1  0  0  0  0
  6 28  1  0  0  0  0
  8  2  1  0  0  0  0
 10  3  1  0  0  0  0
 15  5  1  0  0  0  0
 17  1  1  0  0  0  0
 18 17  2  0  0  0  0
 19 18  1  0  0  0  0
 20 19  2  0  0  0  0
 20 21  1  0  0  0  0
 21 22  2  0  0  0  0
 22 17  1  0  0  0  0
 23 18  1  0  0  0  0
 24 19  1  0  0  0  0
 25 21  1  0  0  0  0
 26 27  2  0  0  0  0
 26 30  1  0  0  0  0
 28 26  1  0  0  0  0
 29 28  1  0  0  0  0
 30 31  1  0  0  0  0
 31 32  1  0  0  0  0
 31 33  2  0  0  0  0
 34 35  1  0  0  0  0
 34 33  1  0  0  0  0
 36 34  2  0  0  0  0
 37 36  1  0  0  0  0
 38 30  2  0  0  0  0
 38 36  1  0  0  0  0
M  END
>  <minimizedAffinity>
-5.27220249

$$$$

 OpenBabel03272509323D

 38 40  0  0  1  0  0  0  0  0999 V2000
   36.7110   27.6070   32.2690 C   0  0  2  0  0  0  0  0  0  0  0  0
   37.3030   27.0880   30.9930 C   0  0  0  0  0  0  0  0  0  0  0  0
   37.8780   28.1830   30.1230 C   0  0  0  0  0  0  0  0  0  0  0  0
   36.8190   29.2370   29.8120 C   0  0  0  0  0  0  0  0  0  0  0  0
   35.8820   29.5170   30.9560 C   0  0  0  0  0  0  0  0  0  0  0  0
   36.5760   29.0940   32.2630 C   0  0  1  0  0  0  0  0  0  0  0  0
   35.6770   27.2170   32.4870 H   0  0  0  0  0  0  0  0  0  0  0  0
   37.9570   26.2410   31.0560 H   0  0  0  0  0  0  0  0  0  0  0  0
   36.4010   26.7190   30.3970 H   0  0  0  0  0  0  0  0  0  0  0  0
   38.1790   27.7230   29.1820 H   0  0  0  0  0  0  0  0  0  0  0  0
   38.7280   28.7030   30.5760 H   0  0  0  0  0  0  0  0  0  0  0  0
   37.3350   30.1870   29.5560 H   0  0  0  0  0  0  0  0  0  0  0  0
   36.2400   28.9450   28.9060 H   0  0  0  0  0  0  0  0  0  0  0  0
   35.5800   30.5730   31.0170 H   0  0  0  0  0  0  0  0  0  0  0  0
   34.9830   28.9010   30.8420 H   0  0  0  0  0  0  0  0  0  0  0  0
   37.5220   29.5640   32.1330 H   0  0  0  0  0  0  0  0  0  0  0  0
   37.5310   27.2060   33.4430 C   0  0  0  0  0  0  0  0  0  0  0  0
   38.9210   27.1830   33.2320 C   0  0  0  0  0  0  0  0  0  0  0  0
   39.7180   26.8120   34.3210 C   0  0  0  0  0  0  0  0  0  0  0  0
   39.1020   26.4990   35.5140 N   0  0  0  0  0  0  0  0  0  0  0  0
   37.7430   26.5390   35.6660 C   0  0  0  0  0  0  0  0  0  0  0  0
   36.9740   26.8950   34.6180 N   0  0  0  0  0  0  0  0  0  0  0  0
   39.5220   27.4080   32.3730 H   0  0  0  0  0  0  0  0  0  0  0  0
   40.7890   26.7480   34.3120 H   0  0  0  0  0  0  0  0  0  0  0  0
   37.3310   26.2790   36.6390 H   0  0  0  0  0  0  0  0  0  0  0  0
   34.6600   29.6920   33.8240 C   0  0  0  0  0  0  0  0  0  0  0  0
   33.6210   29.1680   33.2720 O   0  0  0  0  0  0  0  0  0  0  0  0
   36.0210   29.6470   33.4430 N   0  0  0  0  0  0  0  0  0  0  0  0
   36.6660   30.0870   34.1620 H   0  0  0  0  0  0  0  0  0  0  0  0
   34.2120   30.4200   35.0240 C   0  0  0  0  0  0  0  0  0  0  0  0
   32.9600   30.2710   35.5650 C   0  0  0  0  0  0  0  0  0  0  0  0
   32.2280   29.6040   35.1370 H   0  0  0  0  0  0  0  0  0  0  0  0
   32.5020   30.9390   36.6900 C   0  0  0  0  0  3  0  0  0  0  0  0
   33.3240   31.8130   37.3300 C   0  0  0  0  0  0  0  0  0  0  0  0
   32.9750   32.3370   38.2060 H   0  0  0  0  0  0  0  0  0  0  0  0
   34.5910   32.0010   36.8310 C   0  0  0  0  0  0  0  0  0  0  0  0
   35.2140   32.7040   37.3680 H   0  0  0  0  0  0  0  0  0  0  0  0
   34.9960   31.3140   35.7130 C   0  0  0  0  0  3  0  0  0  0  0  0
  1  7  1  1  0  0  0
  1 17  1  0  0  0  0
  2  8  1  0  0  0  0
  2  1  1  0  0  0  0
  3 11  1  0  0  0  0
  3  2  1  0  0  0  0
  4  3  1  0  0  0  0
  4  5  1  0  0  0  0
  5 14  1  0  0  0  0
  5  6  1  0  0  0  0
  6 16  1  6  0  0  0
  6  1  1  0  0  0  0
  6 28  1  0  0  0  0
  9  2  1  0  0  0  0
 10  3  1  0  0  0  0
 12  4  1  0  0  0  0
 13  4  1  0  0  0  0
 15  5  1  0  0  0  0
 17 22  1  0  0  0  0
 18 17  2  0  0  0  0
 18 19  1  0  0  0  0
 19 20  2  0  0  0  0
 20 21  1  0  0  0  0
 21 25  1  0  0  0  0
 22 21  2  0  0  0  0
 23 18  1  0  0  0  0
 24 19  1  0  0  0  0
 26 30  1  0  0  0  0
 27 26  2  0  0  0  0
 28 26  1  0  0  0  0
 28 29  1  0  0  0  0
 30 31  2  0  0  0  0
 30 38  1  0  0  0  0
 31 33  1  0  0  0  0
 32 31  1  0  0  0  0
 33 34  2  0  0  0  0
 34 35  1  0  0  0  0
 36 34  1  0  0  0  0
 36 37  1  0  0  0  0
 38 36  2  0  0  0  0
M  END
>  <minimizedAffinity>
-5.24681997

$$$$

 OpenBabel03272509323D

 38 40  0  0  1  0  0  0  0  0999 V2000
   38.4600   27.0490   31.7380 C   0  0  2  0  0  0  0  0  0  0  0  0
   38.7970   27.8770   30.5340 C   0  0  0  0  0  0  0  0  0  0  0  0
   40.1620   27.5590   29.9650 C   0  0  0  0  0  0  0  0  0  0  0  0
   41.2430   27.7280   31.0300 C   0  0  0  0  0  0  0  0  0  0  0  0
   40.8160   27.2950   32.4070 C   0  0  0  0  0  0  0  0  0  0  0  0
   39.6450   26.3060   32.2600 C   0  0  1  0  0  0  0  0  0  0  0  0
   38.0760   27.6460   32.6120 H   0  0  0  0  0  0  0  0  0  0  0  0
   38.0540   27.9650   29.7660 H   0  0  0  0  0  0  0  0  0  0  0  0
   38.9200   28.9340   30.9480 H   0  0  0  0  0  0  0  0  0  0  0  0
   40.3570   28.2810   29.1720 H   0  0  0  0  0  0  0  0  0  0  0  0
   40.2500   26.5400   29.5760 H   0  0  0  0  0  0  0  0  0  0  0  0
   42.1210   27.1130   30.7380 H   0  0  0  0  0  0  0  0  0  0  0  0
   41.5980   28.7840   31.0540 H   0  0  0  0  0  0  0  0  0  0  0  0
   41.6290   26.8290   32.9840 H   0  0  0  0  0  0  0  0  0  0  0  0
   40.4480   28.1670   32.9590 H   0  0  0  0  0  0  0  0  0  0  0  0
   40.0430   25.6520   31.5220 H   0  0  0  0  0  0  0  0  0  0  0  0
   37.3800   26.0720   31.4320 C   0  0  0  0  0  0  0  0  0  0  0  0
   36.0780   26.6020   31.3910 C   0  0  0  0  0  0  0  0  0  0  0  0
   35.0430   25.7050   31.1010 C   0  0  0  0  0  0  0  0  0  0  0  0
   35.3580   24.3820   30.8750 N   0  0  0  0  0  0  0  0  0  0  0  0
   36.6440   23.9200   30.9260 C   0  0  0  0  0  0  0  0  0  0  0  0
   37.6420   24.7810   31.2060 N   0  0  0  0  0  0  0  0  0  0  0  0
   35.7000   27.5940   31.5360 H   0  0  0  0  0  0  0  0  0  0  0  0
   34.0030   25.9600   31.0370 H   0  0  0  0  0  0  0  0  0  0  0  0
   36.8140   22.8620   30.7350 H   0  0  0  0  0  0  0  0  0  0  0  0
   39.1590   25.9320   34.7270 C   0  0  0  0  0  0  0  0  0  0  0  0
   39.0150   27.1170   35.2100 O   0  0  0  0  0  0  0  0  0  0  0  0
   39.3920   25.5040   33.4000 N   0  0  0  0  0  0  0  0  0  0  0  0
   39.3550   24.4490   33.2940 H   0  0  0  0  0  0  0  0  0  0  0  0
   39.0390   24.9760   35.8420 C   0  0  0  0  0  0  0  0  0  0  0  0
   38.1130   25.1100   36.8470 C   0  0  0  0  0  0  0  0  0  0  0  0
   37.4140   25.9310   36.8720 H   0  0  0  0  0  0  0  0  0  0  0  0
   37.9730   24.2340   37.9120 C   0  0  0  0  0  3  0  0  0  0  0  0
   38.7920   23.1530   38.0020 C   0  0  0  0  0  0  0  0  0  0  0  0
   38.6890   22.4670   38.8280 H   0  0  0  0  0  0  0  0  0  0  0  0
   39.7390   22.9690   37.0230 C   0  0  0  0  0  0  0  0  0  0  0  0
   40.3710   22.0980   37.1300 H   0  0  0  0  0  0  0  0  0  0  0  0
   39.8370   23.8670   35.9880 C   0  0  0  0  0  3  0  0  0  0  0  0
  1  6  1  0  0  0  0
  1  7  1  1  0  0  0
  2  9  1  0  0  0  0
  2  1  1  0  0  0  0
  3  2  1  0  0  0  0
  3  4  1  0  0  0  0
  4 13  1  0  0  0  0
  4  5  1  0  0  0  0
  5 15  1  0  0  0  0
  5 14  1  0  0  0  0
  6 16  1  6  0  0  0
  6  5  1  0  0  0  0
  6 28  1  0  0  0  0
  8  2  1  0  0  0  0
 10  3  1  0  0  0  0
 11  3  1  0  0  0  0
 12  4  1  0  0  0  0
 17  1  1  0  0  0  0
 18 17  1  0  0  0  0
 18 23  1  0  0  0  0
 19 18  2  0  0  0  0
 20 21  2  0  0  0  0
 20 19  1  0  0  0  0
 21 22  1  0  0  0  0
 22 17  2  0  0  0  0
 24 19  1  0  0  0  0
 25 21  1  0  0  0  0
 26 27  2  0  0  0  0
 26 30  1  0  0  0  0
 28 26  1  0  0  0  0
 29 28  1  0  0  0  0
 30 38  2  0  0  0  0
 30 31  1  0  0  0  0
 31 32  1  0  0  0  0
 31 33  2  0  0  0  0
 33 34  1  0  0  0  0
 34 35  1  0  0  0  0
 36 37  1  0  0  0  0
 36 34  2  0  0  0  0
 38 36  1  0  0  0  0
M  END
>  <minimizedAffinity>
-5.22977448

$$$$

 OpenBabel03272509323D

 38 40  0  0  1  0  0  0  0  0999 V2000
   38.7130   26.1800   34.6570 C   0  0  2  0  0  0  0  0  0  0  0  0
   39.8400   27.1340   34.9200 C   0  0  0  0  0  0  0  0  0  0  0  0
   41.1620   26.6520   34.3640 C   0  0  0  0  0  0  0  0  0  0  0  0
   41.5100   25.2740   34.9200 C   0  0  0  0  0  0  0  0  0  0  0  0
   40.3210   24.3660   35.0910 C   0  0  0  0  0  0  0  0  0  0  0  0
   39.2000   24.8590   34.1580 C   0  0  1  0  0  0  0  0  0  0  0  0
   38.0920   25.9420   35.5660 H   0  0  0  0  0  0  0  0  0  0  0  0
   39.6720   28.1720   34.7110 H   0  0  0  0  0  0  0  0  0  0  0  0
   39.9910   27.0830   36.0510 H   0  0  0  0  0  0  0  0  0  0  0  0
   41.9270   27.3520   34.7000 H   0  0  0  0  0  0  0  0  0  0  0  0
   41.1770   26.5730   33.2730 H   0  0  0  0  0  0  0  0  0  0  0  0
   42.2140   24.7810   34.2170 H   0  0  0  0  0  0  0  0  0  0  0  0
   42.0550   25.3750   35.8870 H   0  0  0  0  0  0  0  0  0  0  0  0
   40.5500   23.3120   34.8760 H   0  0  0  0  0  0  0  0  0  0  0  0
   39.9550   24.4440   36.1210 H   0  0  0  0  0  0  0  0  0  0  0  0
   39.7450   24.9700   33.2520 H   0  0  0  0  0  0  0  0  0  0  0  0
   37.7540   26.7410   33.6690 C   0  0  0  0  0  0  0  0  0  0  0  0
   36.8610   27.7040   34.1710 C   0  0  0  0  0  0  0  0  0  0  0  0
   35.9490   28.2530   33.2610 C   0  0  0  0  0  0  0  0  0  0  0  0
   35.9840   27.8240   31.9510 N   0  0  0  0  0  0  0  0  0  0  0  0
   36.8760   26.8840   31.5150 C   0  0  0  0  0  0  0  0  0  0  0  0
   37.7540   26.3530   32.3900 N   0  0  0  0  0  0  0  0  0  0  0  0
   36.7340   28.1280   35.1470 H   0  0  0  0  0  0  0  0  0  0  0  0
   35.2090   28.9930   33.4950 H   0  0  0  0  0  0  0  0  0  0  0  0
   36.8430   26.5970   30.4660 H   0  0  0  0  0  0  0  0  0  0  0  0
   38.2430   22.7920   33.0290 C   0  0  0  0  0  0  0  0  0  0  0  0
   39.2330   22.2990   32.3700 O   0  0  0  0  0  0  0  0  0  0  0  0
   38.1820   23.9110   33.8910 N   0  0  0  0  0  0  0  0  0  0  0  0
   37.2440   24.0060   34.3790 H   0  0  0  0  0  0  0  0  0  0  0  0
   37.0580   21.9630   32.7460 C   0  0  0  0  0  0  0  0  0  0  0  0
   36.4300   21.9460   31.5270 C   0  0  0  0  0  0  0  0  0  0  0  0
   36.7750   22.5460   30.6990 H   0  0  0  0  0  0  0  0  0  0  0  0
   35.3130   21.1830   31.2250 C   0  0  0  0  0  3  0  0  0  0  0  0
   34.7740   20.3800   32.1800 C   0  0  0  0  0  0  0  0  0  0  0  0
   33.9040   19.7820   31.9530 H   0  0  0  0  0  0  0  0  0  0  0  0
   35.3630   20.3560   33.4220 C   0  0  0  0  0  0  0  0  0  0  0  0
   34.9050   19.7050   34.1540 H   0  0  0  0  0  0  0  0  0  0  0  0
   36.4690   21.1330   33.6700 C   0  0  0  0  0  3  0  0  0  0  0  0
  1  2  1  0  0  0  0
  1  7  1  1  0  0  0
  2  9  1  0  0  0  0
  3 10  1  0  0  0  0
  3  4  1  0  0  0  0
  3  2  1  0  0  0  0
  4  5  1  0  0  0  0
  4 13  1  0  0  0  0
  5 15  1  0  0  0  0
  6 16  1  6  0  0  0
  6  1  1  0  0  0  0
  6  5  1  0  0  0  0
  8  2  1  0  0  0  0
 11  3  1  0  0  0  0
 12  4  1  0  0  0  0
 14  5  1  0  0  0  0
 17 18  1  0  0  0  0
 17  1  1  0  0  0  0
 18 23  1  0  0  0  0
 19 24  1  0  0  0  0
 19 18  2  0  0  0  0
 20 19  1  0  0  0  0
 21 20  2  0  0  0  0
 21 22  1  0  0  0  0
 22 17  2  0  0  0  0
 25 21  1  0  0  0  0
 26 28  1  0  0  0  0
 27 26  2  0  0  0  0
 28  6  1  0  0  0  0
 28 29  1  0  0  0  0
 30 26  1  0  0  0  0
 30 38  1  0  0  0  0
 31 30  2  0  0  0  0
 32 31  1  0  0  0  0
 33 31  1  0  0  0  0
 33 34  2  0  0  0  0
 34 36  1  0  0  0  0
 35 34  1  0  0  0  0
 36 38  2  0  0  0  0
 36 37  1  0  0  0  0
M  END
>  <minimizedAffinity>
-5.14580488

$$$$

 OpenBabel03272509323D

 38 40  0  0  1  0  0  0  0  0999 V2000
   38.6930   26.0000   34.0190 C   0  0  2  0  0  0  0  0  0  0  0  0
   39.6780   26.9850   34.5760 C   0  0  0  0  0  0  0  0  0  0  0  0
   41.1140   26.6060   34.2920 C   0  0  0  0  0  0  0  0  0  0  0  0
   41.4200   25.2090   34.8270 C   0  0  0  0  0  0  0  0  0  0  0  0
   40.2790   24.2370   34.6820 C   0  0  0  0  0  0  0  0  0  0  0  0
   39.3540   24.7420   33.5600 C   0  0  1  0  0  0  0  0  0  0  0  0
   37.9090   25.6690   34.7570 H   0  0  0  0  0  0  0  0  0  0  0  0
   39.4960   28.0260   34.3970 H   0  0  0  0  0  0  0  0  0  0  0  0
   39.5870   26.8600   35.7080 H   0  0  0  0  0  0  0  0  0  0  0  0
   41.7470   27.3150   34.8260 H   0  0  0  0  0  0  0  0  0  0  0  0
   41.3660   26.6050   33.2270 H   0  0  0  0  0  0  0  0  0  0  0  0
   42.2860   24.8010   34.2650 H   0  0  0  0  0  0  0  0  0  0  0  0
   41.7390   25.2660   35.8930 H   0  0  0  0  0  0  0  0  0  0  0  0
   40.6120   23.2120   34.4600 H   0  0  0  0  0  0  0  0  0  0  0  0
   39.6990   24.2240   35.6110 H   0  0  0  0  0  0  0  0  0  0  0  0
   40.0720   24.9420   32.8010 H   0  0  0  0  0  0  0  0  0  0  0  0
   37.9340   26.5850   32.8820 C   0  0  0  0  0  0  0  0  0  0  0  0
   38.6620   27.4580   32.0530 C   0  0  0  0  0  0  0  0  0  0  0  0
   37.9720   28.0200   30.9720 C   0  0  0  0  0  0  0  0  0  0  0  0
   36.6470   27.6890   30.7890 N   0  0  0  0  0  0  0  0  0  0  0  0
   35.9870   26.8320   31.6260 C   0  0  0  0  0  0  0  0  0  0  0  0
   36.6490   26.2900   32.6680 N   0  0  0  0  0  0  0  0  0  0  0  0
   39.6810   27.7890   32.0760 H   0  0  0  0  0  0  0  0  0  0  0  0
   38.3920   28.7010   30.2570 H   0  0  0  0  0  0  0  0  0  0  0  0
   34.9410   26.6180   31.4160 H   0  0  0  0  0  0  0  0  0  0  0  0
   37.7420   22.7830   33.7210 C   0  0  0  0  0  0  0  0  0  0  0  0
   37.6000   22.5880   34.9860 O   0  0  0  0  0  0  0  0  0  0  0  0
   38.4760   23.7690   33.0230 N   0  0  0  0  0  0  0  0  0  0  0  0
   38.3120   23.7410   31.9750 H   0  0  0  0  0  0  0  0  0  0  0  0
   36.9660   21.7480   33.0180 C   0  0  0  0  0  0  0  0  0  0  0  0
   36.1650   20.8420   33.6670 C   0  0  0  0  0  0  0  0  0  0  0  0
   36.0590   20.8410   34.7410 H   0  0  0  0  0  0  0  0  0  0  0  0
   35.4230   19.8530   33.0400 C   0  0  0  0  0  3  0  0  0  0  0  0
   35.4660   19.7420   31.6860 C   0  0  0  0  0  0  0  0  0  0  0  0
   34.8920   18.9740   31.1900 H   0  0  0  0  0  0  0  0  0  0  0  0
   36.2520   20.6230   30.9830 C   0  0  0  0  0  0  0  0  0  0  0  0
   36.2600   20.5030   29.9090 H   0  0  0  0  0  0  0  0  0  0  0  0
   36.9680   21.5860   31.6530 C   0  0  0  0  0  3  0  0  0  0  0  0
  1  2  1  0  0  0  0
  1  7  1  1  0  0  0
  2  9  1  0  0  0  0
  3  2  1  0  0  0  0
  3 10  1  0  0  0  0
  3  4  1  0  0  0  0
  4 13  1  0  0  0  0
  5  4  1  0  0  0  0
  5 15  1  0  0  0  0
  6 16  1  6  0  0  0
  6  1  1  0  0  0  0
  6  5  1  0  0  0  0
  8  2  1  0  0  0  0
 11  3  1  0  0  0  0
 12  4  1  0  0  0  0
 14  5  1  0  0  0  0
 17  1  1  0  0  0  0
 18 23  1  0  0  0  0
 18 17  2  0  0  0  0
 19 18  1  0  0  0  0
 20 19  2  0  0  0  0
 20 21  1  0  0  0  0
 21 22  2  0  0  0  0
 22 17  1  0  0  0  0
 24 19  1  0  0  0  0
 25 21  1  0  0  0  0
 26 27  2  0  0  0  0
 28  6  1  0  0  0  0
 28 26  1  0  0  0  0
 29 28  1  0  0  0  0
 30 31  1  0  0  0  0
 30 26  1  0  0  0  0
 31 32  1  0  0  0  0
 33 31  2  0  0  0  0
 34 33  1  0  0  0  0
 35 34  1  0  0  0  0
 36 38  1  0  0  0  0
 36 34  2  0  0  0  0
 37 36  1  0  0  0  0
 38 30  2  0  0  0  0
M  END
>  <minimizedAffinity>
-5.07815838

$$$$
