
 OpenBabel03272500053D

 29 31  0  0  0  0  0  0  0  0999 V2000
   35.4970   28.9190   49.1610 C   0  0  0  0  0  0  0  0  0  0  0  0
   35.4290   30.0960   48.3940 C   0  0  0  0  0  0  0  0  0  0  0  0
   34.3310   30.2480   47.5420 C   0  0  0  0  0  0  0  0  0  0  0  0
   33.3910   29.2710   47.4890 N   0  0  0  0  0  0  0  0  0  0  0  0
   33.4880   28.1590   48.2370 C   0  0  0  0  0  0  0  0  0  0  0  0
   34.5500   27.9690   49.0870 N   0  0  0  0  0  0  0  0  0  0  0  0
   36.3140   28.7260   49.8440 H   0  0  0  0  0  0  0  0  0  0  0  0
   34.2670   31.1370   46.9530 H   0  0  0  0  0  0  0  0  0  0  0  0
   36.4670   31.0490   48.5280 N   0  0  0  0  0  0  0  0  0  0  0  0
   36.6390   31.7570   49.6520 C   0  0  0  0  0  0  0  0  0  0  0  0
   37.6790   32.6830   49.7310 C   0  0  0  0  0  0  0  0  0  0  0  0
   38.4500   32.7850   48.6130 C   0  0  0  0  0  0  0  0  0  0  0  0
   39.4020   33.6230   48.6630 O   0  0  0  0  0  0  0  0  0  0  0  0
   38.3100   32.1020   47.4840 N   0  0  0  0  0  0  0  0  0  0  0  0
   37.2840   31.2050   47.4430 C   0  0  0  0  0  0  0  0  0  0  0  0
   37.1320   30.5450   46.3770 O   0  0  0  0  0  0  0  0  0  0  0  0
   35.9900   31.6280   50.5080 H   0  0  0  0  0  0  0  0  0  0  0  0
   37.8580   33.2770   50.6150 H   0  0  0  0  0  0  0  0  0  0  0  0
   38.9430   32.2290   46.6530 H   0  0  0  0  0  0  0  0  0  0  0  0
   32.5400   27.1300   48.2120 O   0  0  0  0  0  0  0  0  0  0  0  0
   31.2060   27.5600   48.2480 C   0  0  0  0  0  0  0  0  0  0  0  0
   30.7710   27.7060   49.5650 C   0  0  0  0  0  0  0  0  0  0  0  0
   31.3620   27.5190   50.4590 H   0  0  0  0  0  0  0  0  0  0  0  0
   29.4850   28.1230   49.8430 C   0  0  0  0  0  0  0  0  0  0  0  0
   28.6240   28.3980   48.7770 C   0  0  0  0  0  0  0  0  0  0  0  0
   27.5890   28.7330   48.9390 H   0  0  0  0  0  0  0  0  0  0  0  0
   29.0730   28.2480   47.4790 C   0  0  0  0  0  0  0  0  0  0  0  0
   28.4360   28.4510   46.6080 H   0  0  0  0  0  0  0  0  0  0  0  0
   30.3510   27.8330   47.2000 C   0  0  0  0  0  0  0  0  0  0  0  0
  1  7  1  0  0  0  0
  2  9  1  0  0  0  0
  2  1  2  0  0  0  0
  3  2  1  0  0  0  0
  4  3  2  0  0  0  0
  4  5  1  0  0  0  0
  5  6  2  0  0  0  0
  6  1  1  0  0  0  0
  8  3  1  0  0  0  0
  9 10  1  0  0  0  0
 10 11  2  0  0  0  0
 10 17  1  0  0  0  0
 11 18  1  0  0  0  0
 12 13  2  0  0  0  0
 12 11  1  0  0  0  0
 14 12  1  0  0  0  0
 15 14  1  0  0  0  0
 15  9  1  0  0  0  0
 16 15  2  0  0  0  0
 19 14  1  0  0  0  0
 20  5  1  0  0  0  0
 20 21  1  0  0  0  0
 21 22  1  0  0  0  0
 22 24  2  0  0  0  0
 22 23  1  0  0  0  0
 25 26  1  0  0  0  0
 25 24  1  0  0  0  0
 27 25  2  0  0  0  0
 28 27  1  0  0  0  0
 29 27  1  0  0  0  0
 29 21  2  0  0  0  0
M  END
>  <minimizedAffinity>
-5.74421406

>  <minimizedRMSD>
1.43472433

$$$$
