
 OpenBabel03262522033D

 39 42  0  0  1  0  0  0  0  0999 V2000
   34.4700   29.1750   48.8260 C   0  0  2  0  0  0  0  0  0  0  0  0
   35.1510   28.4310   49.9270 C   0  0  0  0  0  0  0  0  0  0  0  0
   36.3340   29.1750   50.3360 N   0  0  0  0  0  0  0  0  0  0  0  0
   37.3310   29.8750   51.0860 C   0  0  0  0  0  0  0  0  0  0  0  0
   37.6200   30.0530   52.2900 O   0  0  0  0  0  0  0  0  0  0  0  0
   38.0090   30.3950   49.8990 C   0  0  1  0  0  0  0  0  0  0  0  0
   37.1360   29.4150   49.1630 C   0  0  2  0  0  0  0  0  0  0  0  0
   35.8430   30.1600   48.1150 S   0  0  0  0  0  0  0  0  0  0  0  0
   35.3630   27.3770   49.7210 H   0  0  0  0  0  0  0  0  0  0  0  0
   34.4410   28.4270   50.7960 H   0  0  0  0  0  0  0  0  0  0  0  0
   39.0700   30.0840   49.7060 H   0  0  0  0  0  0  0  0  0  0  0  0
   37.6200   28.5320   48.7220 H   0  0  0  0  0  0  0  0  0  0  0  0
   33.2980   30.0090   49.2360 C   0  0  0  0  0  0  0  0  0  0  0  0
   33.7270   30.9690   49.6450 H   0  0  0  0  0  0  0  0  0  0  0  0
   32.6860   30.2890   48.3820 H   0  0  0  0  0  0  0  0  0  0  0  0
   32.7080   29.4970   50.0010 H   0  0  0  0  0  0  0  0  0  0  0  0
   34.0990   28.1750   47.7230 C   0  0  0  0  0  0  0  0  0  0  0  0
   34.5830   27.2170   48.0670 H   0  0  0  0  0  0  0  0  0  0  0  0
   34.6200   28.4770   46.8150 H   0  0  0  0  0  0  0  0  0  0  0  0
   32.6560   28.0320   47.5300 C   0  0  0  0  0  0  0  0  0  0  0  0
   32.0500   27.1050   48.3830 C   0  0  0  0  0  0  0  0  0  0  0  0
   32.6040   26.5270   49.1370 H   0  0  0  0  0  0  0  0  0  0  0  0
   30.6840   26.8350   48.3450 C   0  0  0  0  0  0  0  0  0  0  0  0
   29.8910   27.5020   47.4370 C   0  0  0  0  0  0  0  0  0  0  0  0
   28.8350   27.3120   47.3880 H   0  0  0  0  0  0  0  0  0  0  0  0
   30.5040   28.4000   46.6170 C   0  0  0  0  0  0  0  0  0  0  0  0
   29.9470   28.9720   45.8670 H   0  0  0  0  0  0  0  0  0  0  0  0
   31.8430   28.6880   46.6280 C   0  0  0  0  0  0  0  0  0  0  0  0
   37.7880   31.8300   49.6100 C   0  0  0  0  0  0  0  0  0  0  0  0
   36.8090   32.3340   50.2310 O   0  0  0  0  0  0  0  0  0  0  0  0
   38.6210   32.5770   48.7050 C   0  0  0  0  0  0  0  0  0  0  0  0
   39.1480   33.7780   49.1610 C   0  0  0  0  0  0  0  0  0  0  0  0
   39.9650   34.5180   48.2790 C   0  0  0  0  0  0  0  0  0  0  0  0
   40.1840   34.0070   47.0420 N   0  0  0  0  0  0  0  0  0  0  0  0
   39.6640   32.8480   46.6290 C   0  0  0  0  0  0  0  0  0  0  0  0
   38.8820   32.1330   47.4630 N   0  0  0  0  0  0  0  0  0  0  0  0
   38.9470   34.1530   50.1620 H   0  0  0  0  0  0  0  0  0  0  0  0
   40.4000   35.4690   48.5980 H   0  0  0  0  0  0  0  0  0  0  0  0
   39.9080   32.5380   45.6140 H   0  0  0  0  0  0  0  0  0  0  0  0
  1 17  1  6  0  0  0
  1 13  1  0  0  0  0
  1  2  1  0  0  0  0
  2  3  1  0  0  0  0
  2 10  1  0  0  0  0
  3  4  1  0  0  0  0
  4  5  2  0  0  0  0
  6 11  1  6  0  0  0
  6  4  1  0  0  0  0
  7 12  1  6  0  0  0
  7  6  1  0  0  0  0
  7  3  1  0  0  0  0
  8  1  1  0  0  0  0
  8  7  1  0  0  0  0
  9  2  1  0  0  0  0
 13 14  1  0  0  0  0
 13 16  1  0  0  0  0
 15 13  1  0  0  0  0
 17 18  1  0  0  0  0
 19 17  1  0  0  0  0
 20 17  1  0  0  0  0
 20 21  1  0  0  0  0
 21 22  1  0  0  0  0
 23 21  2  0  0  0  0
 24 23  1  0  0  0  0
 25 24  1  0  0  0  0
 26 28  1  0  0  0  0
 26 24  2  0  0  0  0
 27 26  1  0  0  0  0
 28 20  2  0  0  0  0
 29  6  1  0  0  0  0
 29 30  2  0  0  0  0
 31 32  1  0  0  0  0
 31 29  1  0  0  0  0
 32 37  1  0  0  0  0
 33 38  1  0  0  0  0
 33 32  2  0  0  0  0
 34 33  1  0  0  0  0
 35 34  2  0  0  0  0
 35 36  1  0  0  0  0
 36 31  2  0  0  0  0
 39 35  1  0  0  0  0
M  END
>  <minimizedAffinity>
-5.34742737

>  <minimizedRMSD>
1.78833711

$$$$
