
 OpenBabel03272502293D

 23 24  0  0  0  0  0  0  0  0999 V2000
   36.2780   28.2630   33.3830 C   0  0  0  0  0  0  0  0  0  0  0  0
   35.6130   27.4640   32.9880 H   0  0  0  0  0  0  0  0  0  0  0  0
   36.4730   28.9250   32.5020 H   0  0  0  0  0  0  0  0  0  0  0  0
   37.5410   27.6900   33.9120 C   0  0  0  0  0  0  0  0  0  0  0  0
   37.7210   27.6340   35.2920 C   0  0  0  0  0  0  0  0  0  0  0  0
   36.9330   28.0100   35.9290 H   0  0  0  0  0  0  0  0  0  0  0  0
   38.8990   27.1010   35.8080 C   0  0  0  0  0  3  0  0  0  0  0  0
   39.8650   26.6370   34.9230 C   0  0  0  0  0  0  0  0  0  0  0  0
   40.7480   26.2400   35.3970 H   0  0  0  0  0  0  0  0  0  0  0  0
   39.6610   26.7050   33.5450 C   0  0  0  0  0  0  0  0  0  0  0  0
   40.4430   26.3320   32.9210 H   0  0  0  0  0  0  0  0  0  0  0  0
   38.4860   27.2370   33.0260 C   0  0  0  0  0  3  0  0  0  0  0  0
   35.5120   30.3070   34.5140 C   0  0  0  0  0  3  0  0  0  0  0  0
   35.5030   28.9980   34.4150 C   0  0  0  0  0  3  0  0  0  0  0  0
   34.7020   32.7970   37.1150 C   0  0  0  0  0  0  0  0  0  0  0  0
   35.4430   32.0710   36.1570 C   0  0  0  0  0  0  0  0  0  0  0  0
   34.7810   31.0540   35.4830 C   0  0  0  0  0  0  0  0  0  0  0  0
   33.4890   30.8040   35.7600 N   0  0  0  0  0  0  0  0  0  0  0  0
   32.7990   31.5040   36.6740 C   0  0  0  0  0  0  0  0  0  0  0  0
   33.4020   32.4970   37.3510 N   0  0  0  0  0  0  0  0  0  0  0  0
   35.2080   33.5960   37.6510 H   0  0  0  0  0  0  0  0  0  0  0  0
   36.4770   32.3550   36.0130 H   0  0  0  0  0  0  0  0  0  0  0  0
   31.7560   31.2600   36.8590 H   0  0  0  0  0  0  0  0  0  0  0  0
  1  4  1  0  0  0  0
  1 14  1  0  0  0  0
  2  1  1  0  0  0  0
  3  1  1  0  0  0  0
  4  5  1  0  0  0  0
  5  7  2  0  0  0  0
  5  6  1  0  0  0  0
  8  9  1  0  0  0  0
  8  7  1  0  0  0  0
 10  8  2  0  0  0  0
 11 10  1  0  0  0  0
 12 10  1  0  0  0  0
 12  4  2  0  0  0  0
 13 17  1  0  0  0  0
 14 13  2  0  0  0  0
 15 20  1  0  0  0  0
 15 21  1  0  0  0  0
 16 15  2  0  0  0  0
 17 18  2  0  0  0  0
 17 16  1  0  0  0  0
 18 19  1  0  0  0  0
 19 23  1  0  0  0  0
 19 20  2  0  0  0  0
 22 16  1  0  0  0  0
M  END
>  <minimizedAffinity>
-4.6405406

$$$$

 OpenBabel03272502293D

 23 24  0  0  0  0  0  0  0  0999 V2000
   36.2940   28.2590   33.4090 C   0  0  0  0  0  0  0  0  0  0  0  0
   35.6310   27.4580   33.0150 H   0  0  0  0  0  0  0  0  0  0  0  0
   36.4830   28.9230   32.5280 H   0  0  0  0  0  0  0  0  0  0  0  0
   37.5620   27.6910   33.9320 C   0  0  0  0  0  0  0  0  0  0  0  0
   38.5100   27.2280   33.0230 C   0  0  0  0  0  0  0  0  0  0  0  0
   38.2880   27.2980   31.9670 H   0  0  0  0  0  0  0  0  0  0  0  0
   39.7060   26.6910   33.4940 C   0  0  0  0  0  3  0  0  0  0  0  0
   39.9180   26.6350   34.8650 C   0  0  0  0  0  0  0  0  0  0  0  0
   40.8650   26.2080   35.1520 H   0  0  0  0  0  0  0  0  0  0  0  0
   38.9520   27.1060   35.7550 C   0  0  0  0  0  0  0  0  0  0  0  0
   39.1780   27.0330   36.7970 H   0  0  0  0  0  0  0  0  0  0  0  0
   37.7570   27.6420   35.2890 C   0  0  0  0  0  3  0  0  0  0  0  0
   35.4930   30.2990   34.5230 C   0  0  0  0  0  3  0  0  0  0  0  0
   35.5200   28.9880   34.4460 C   0  0  0  0  0  3  0  0  0  0  0  0
   34.6870   32.7590   37.1540 C   0  0  0  0  0  0  0  0  0  0  0  0
   35.4290   32.0380   36.1940 C   0  0  0  0  0  0  0  0  0  0  0  0
   34.7620   31.0410   35.4960 C   0  0  0  0  0  0  0  0  0  0  0  0
   33.4630   30.8050   35.7530 N   0  0  0  0  0  0  0  0  0  0  0  0
   32.7720   31.5010   36.6700 C   0  0  0  0  0  0  0  0  0  0  0  0
   33.3800   32.4740   37.3700 N   0  0  0  0  0  0  0  0  0  0  0  0
   35.1980   33.5420   37.7080 H   0  0  0  0  0  0  0  0  0  0  0  0
   36.4690   32.3100   36.0660 H   0  0  0  0  0  0  0  0  0  0  0  0
   31.7230   31.2680   36.8390 H   0  0  0  0  0  0  0  0  0  0  0  0
  1  4  1  0  0  0  0
  1 14  1  0  0  0  0
  2  1  1  0  0  0  0
  3  1  1  0  0  0  0
  4 12  1  0  0  0  0
  5  7  1  0  0  0  0
  5  4  2  0  0  0  0
  6  5  1  0  0  0  0
  7  8  2  0  0  0  0
  8  9  1  0  0  0  0
  8 10  1  0  0  0  0
 10 11  1  0  0  0  0
 12 10  2  0  0  0  0
 13 17  1  0  0  0  0
 14 13  2  0  0  0  0
 15 20  1  0  0  0  0
 15 21  1  0  0  0  0
 16 15  2  0  0  0  0
 17 18  2  0  0  0  0
 17 16  1  0  0  0  0
 18 19  1  0  0  0  0
 19 23  1  0  0  0  0
 19 20  2  0  0  0  0
 22 16  1  0  0  0  0
M  END
>  <minimizedAffinity>
-4.62312841

$$$$

 OpenBabel03272502293D

 23 24  0  0  0  0  0  0  0  0999 V2000
   35.7700   29.6270   33.8830 C   0  0  0  0  0  0  0  0  0  0  0  0
   36.6430   30.1580   33.4450 H   0  0  0  0  0  0  0  0  0  0  0  0
   35.0860   29.4510   33.0140 H   0  0  0  0  0  0  0  0  0  0  0  0
   35.1100   30.4560   34.9230 C   0  0  0  0  0  0  0  0  0  0  0  0
   33.7350   30.3260   35.1060 C   0  0  0  0  0  0  0  0  0  0  0  0
   33.1970   29.6250   34.4830 H   0  0  0  0  0  0  0  0  0  0  0  0
   33.0970   31.0950   36.0750 C   0  0  0  0  0  3  0  0  0  0  0  0
   33.8570   31.9740   36.8370 C   0  0  0  0  0  0  0  0  0  0  0  0
   33.2940   32.5340   37.5650 H   0  0  0  0  0  0  0  0  0  0  0  0
   35.2330   32.0860   36.6330 C   0  0  0  0  0  0  0  0  0  0  0  0
   35.7580   32.7810   37.2520 H   0  0  0  0  0  0  0  0  0  0  0  0
   35.8740   31.3200   35.6660 C   0  0  0  0  0  3  0  0  0  0  0  0
   36.9280   27.4690   33.6740 C   0  0  0  0  0  3  0  0  0  0  0  0
   36.2720   28.3340   34.4130 C   0  0  0  0  0  3  0  0  0  0  0  0
   38.2900   24.8730   35.9170 C   0  0  0  0  0  0  0  0  0  0  0  0
   37.7910   26.1180   35.4760 C   0  0  0  0  0  0  0  0  0  0  0  0
   37.4320   26.2200   34.1400 C   0  0  0  0  0  0  0  0  0  0  0  0
   37.5690   25.1530   33.3320 N   0  0  0  0  0  0  0  0  0  0  0  0
   38.0450   23.9760   33.7670 C   0  0  0  0  0  0  0  0  0  0  0  0
   38.4060   23.8350   35.0540 N   0  0  0  0  0  0  0  0  0  0  0  0
   38.5760   24.7800   36.9610 H   0  0  0  0  0  0  0  0  0  0  0  0
   37.7230   26.9110   36.2100 H   0  0  0  0  0  0  0  0  0  0  0  0
   38.1350   23.1460   33.0710 H   0  0  0  0  0  0  0  0  0  0  0  0
  1 14  1  0  0  0  0
  1  4  1  0  0  0  0
  2  1  1  0  0  0  0
  3  1  1  0  0  0  0
  4  5  2  0  0  0  0
  4 12  1  0  0  0  0
  5  7  1  0  0  0  0
  6  5  1  0  0  0  0
  7  8  2  0  0  0  0
  8  9  1  0  0  0  0
 10  8  1  0  0  0  0
 10 11  1  0  0  0  0
 12 10  2  0  0  0  0
 13 17  1  0  0  0  0
 13 14  2  0  0  0  0
 15 21  1  0  0  0  0
 16 15  1  0  0  0  0
 16 22  1  0  0  0  0
 17 16  2  0  0  0  0
 18 19  2  0  0  0  0
 18 17  1  0  0  0  0
 19 20  1  0  0  0  0
 20 15  2  0  0  0  0
 23 19  1  0  0  0  0
M  END
>  <minimizedAffinity>
-4.51739597

$$$$

 OpenBabel03272502293D

 23 24  0  0  0  0  0  0  0  0999 V2000
   37.1350   27.7140   34.7670 C   0  0  0  0  0  0  0  0  0  0  0  0
   36.0840   27.4650   35.0300 H   0  0  0  0  0  0  0  0  0  0  0  0
   37.2890   28.7440   35.1790 H   0  0  0  0  0  0  0  0  0  0  0  0
   37.3360   27.6910   33.2970 C   0  0  0  0  0  0  0  0  0  0  0  0
   38.5550   27.2380   32.7970 C   0  0  0  0  0  0  0  0  0  0  0  0
   39.3120   26.9200   33.5000 H   0  0  0  0  0  0  0  0  0  0  0  0
   38.7630   27.2090   31.4210 C   0  0  0  0  0  3  0  0  0  0  0  0
   37.7410   27.6350   30.5820 C   0  0  0  0  0  0  0  0  0  0  0  0
   37.9770   27.5830   29.5320 H   0  0  0  0  0  0  0  0  0  0  0  0
   36.5290   28.0840   31.1070 C   0  0  0  0  0  0  0  0  0  0  0  0
   35.7850   28.3970   30.4070 H   0  0  0  0  0  0  0  0  0  0  0  0
   36.3170   28.1140   32.4810 C   0  0  0  0  0  3  0  0  0  0  0  0
   37.5830   25.5530   35.8490 C   0  0  0  0  0  3  0  0  0  0  0  0
   38.0010   26.7420   35.4810 C   0  0  0  0  0  3  0  0  0  0  0  0
   38.8490   23.3160   38.4980 C   0  0  0  0  0  0  0  0  0  0  0  0
   38.0460   24.2740   37.8410 C   0  0  0  0  0  0  0  0  0  0  0  0
   38.3790   24.5860   36.5300 C   0  0  0  0  0  0  0  0  0  0  0  0
   39.4280   23.9780   35.9480 N   0  0  0  0  0  0  0  0  0  0  0  0
   40.1800   23.0690   36.5880 C   0  0  0  0  0  0  0  0  0  0  0  0
   39.8940   22.7390   37.8590 N   0  0  0  0  0  0  0  0  0  0  0  0
   38.5990   23.0630   39.5260 H   0  0  0  0  0  0  0  0  0  0  0  0
   37.2260   24.7020   38.4030 H   0  0  0  0  0  0  0  0  0  0  0  0
   41.0180   22.6090   36.0690 H   0  0  0  0  0  0  0  0  0  0  0  0
  1  2  1  0  0  0  0
  1  3  1  0  0  0  0
  1 14  1  0  0  0  0
  4  1  1  0  0  0  0
  5  4  1  0  0  0  0
  5  6  1  0  0  0  0
  7  5  2  0  0  0  0
  8 10  2  0  0  0  0
  8  7  1  0  0  0  0
  9  8  1  0  0  0  0
 10 12  1  0  0  0  0
 11 10  1  0  0  0  0
 12  4  2  0  0  0  0
 13 17  1  0  0  0  0
 14 13  2  0  0  0  0
 15 21  1  0  0  0  0
 16 22  1  0  0  0  0
 16 15  2  0  0  0  0
 17 16  1  0  0  0  0
 18 17  2  0  0  0  0
 18 19  1  0  0  0  0
 19 20  2  0  0  0  0
 20 15  1  0  0  0  0
 23 19  1  0  0  0  0
M  END
>  <minimizedAffinity>
-4.50904369

$$$$

 OpenBabel03272502293D

 23 24  0  0  0  0  0  0  0  0999 V2000
   38.6820   24.6850   34.6880 C   0  0  0  0  0  0  0  0  0  0  0  0
   38.2100   23.9200   34.0340 H   0  0  0  0  0  0  0  0  0  0  0  0
   39.6980   24.8420   34.2460 H   0  0  0  0  0  0  0  0  0  0  0  0
   38.7760   24.2030   36.0880 C   0  0  0  0  0  0  0  0  0  0  0  0
   37.8910   24.7190   37.0320 C   0  0  0  0  0  0  0  0  0  0  0  0
   37.1670   25.4540   36.7110 H   0  0  0  0  0  0  0  0  0  0  0  0
   37.9640   24.2800   38.3520 C   0  0  0  0  0  3  0  0  0  0  0  0
   38.9230   23.3330   38.6880 C   0  0  0  0  0  0  0  0  0  0  0  0
   38.9170   23.0430   39.7260 H   0  0  0  0  0  0  0  0  0  0  0  0
   39.7980   22.8310   37.7240 C   0  0  0  0  0  0  0  0  0  0  0  0
   40.5110   22.1060   38.0490 H   0  0  0  0  0  0  0  0  0  0  0  0
   39.7280   23.2670   36.4050 C   0  0  0  0  0  3  0  0  0  0  0  0
   37.7620   26.5890   33.4340 C   0  0  0  0  0  3  0  0  0  0  0  0
   37.8700   25.9220   34.5600 C   0  0  0  0  0  3  0  0  0  0  0  0
   35.5890   29.4770   34.1820 C   0  0  0  0  0  0  0  0  0  0  0  0
   36.3490   28.3020   34.3740 C   0  0  0  0  0  0  0  0  0  0  0  0
   36.9920   27.7760   33.2630 C   0  0  0  0  0  0  0  0  0  0  0  0
   36.8720   28.3910   32.0720 N   0  0  0  0  0  0  0  0  0  0  0  0
   36.1460   29.5080   31.9080 C   0  0  0  0  0  0  0  0  0  0  0  0
   35.5050   30.0500   32.9580 N   0  0  0  0  0  0  0  0  0  0  0  0
   35.0790   29.8990   35.0440 H   0  0  0  0  0  0  0  0  0  0  0  0
   36.3770   27.8900   35.3740 H   0  0  0  0  0  0  0  0  0  0  0  0
   36.0830   29.9630   30.9230 H   0  0  0  0  0  0  0  0  0  0  0  0
  1  4  1  0  0  0  0
  2  1  1  0  0  0  0
  3  1  1  0  0  0  0
  4 12  2  0  0  0  0
  4  5  1  0  0  0  0
  5  7  2  0  0  0  0
  6  5  1  0  0  0  0
  7  8  1  0  0  0  0
  8  9  1  0  0  0  0
 10 11  1  0  0  0  0
 10  8  2  0  0  0  0
 12 10  1  0  0  0  0
 13 14  2  0  0  0  0
 14  1  1  0  0  0  0
 15 16  1  0  0  0  0
 15 21  1  0  0  0  0
 16 22  1  0  0  0  0
 17 13  1  0  0  0  0
 17 16  2  0  0  0  0
 18 17  1  0  0  0  0
 19 18  2  0  0  0  0
 19 20  1  0  0  0  0
 20 15  2  0  0  0  0
 23 19  1  0  0  0  0
M  END
>  <minimizedAffinity>
-4.5068059

$$$$

 OpenBabel03272502293D

 23 24  0  0  0  0  0  0  0  0999 V2000
   38.1280   26.4050   33.0040 C   0  0  0  0  0  0  0  0  0  0  0  0
   39.0880   26.6210   32.4870 H   0  0  0  0  0  0  0  0  0  0  0  0
   37.6600   25.5900   32.3950 H   0  0  0  0  0  0  0  0  0  0  0  0
   37.2610   27.6090   33.0420 C   0  0  0  0  0  0  0  0  0  0  0  0
   36.6410   27.9460   34.2420 C   0  0  0  0  0  0  0  0  0  0  0  0
   36.8120   27.3170   35.1050 H   0  0  0  0  0  0  0  0  0  0  0  0
   35.8230   29.0720   34.2990 C   0  0  0  0  0  3  0  0  0  0  0  0
   35.6510   29.8300   33.1470 C   0  0  0  0  0  0  0  0  0  0  0  0
   35.0060   30.6840   33.2700 H   0  0  0  0  0  0  0  0  0  0  0  0
   36.2840   29.4710   31.9570 C   0  0  0  0  0  0  0  0  0  0  0  0
   36.1100   30.0970   31.1090 H   0  0  0  0  0  0  0  0  0  0  0  0
   37.1010   28.3480   31.8970 C   0  0  0  0  0  3  0  0  0  0  0  0
   38.2590   24.6600   34.7300 C   0  0  0  0  0  3  0  0  0  0  0  0
   38.4710   25.9010   34.3580 C   0  0  0  0  0  3  0  0  0  0  0  0
   38.1140   23.9710   38.3540 C   0  0  0  0  0  0  0  0  0  0  0  0
   37.7810   24.5050   37.0890 C   0  0  0  0  0  0  0  0  0  0  0  0
   38.5760   24.1310   36.0150 C   0  0  0  0  0  0  0  0  0  0  0  0
   39.6100   23.2930   36.2140 N   0  0  0  0  0  0  0  0  0  0  0  0
   39.9120   22.7950   37.4230 C   0  0  0  0  0  0  0  0  0  0  0  0
   39.1680   23.1330   38.4900 N   0  0  0  0  0  0  0  0  0  0  0  0
   37.4990   24.2570   39.2040 H   0  0  0  0  0  0  0  0  0  0  0  0
   36.9280   25.1700   37.0420 H   0  0  0  0  0  0  0  0  0  0  0  0
   40.7600   22.1220   37.5260 H   0  0  0  0  0  0  0  0  0  0  0  0
  1  4  1  0  0  0  0
  1 14  1  0  0  0  0
  2  1  1  0  0  0  0
  3  1  1  0  0  0  0
  4  5  1  0  0  0  0
  5  7  2  0  0  0  0
  5  6  1  0  0  0  0
  8  9  1  0  0  0  0
  8  7  1  0  0  0  0
 10  8  2  0  0  0  0
 11 10  1  0  0  0  0
 12 10  1  0  0  0  0
 12  4  2  0  0  0  0
 13 17  1  0  0  0  0
 14 13  2  0  0  0  0
 15 20  1  0  0  0  0
 15 21  1  0  0  0  0
 16 15  2  0  0  0  0
 17 18  2  0  0  0  0
 17 16  1  0  0  0  0
 18 19  1  0  0  0  0
 19 23  1  0  0  0  0
 19 20  2  0  0  0  0
 22 16  1  0  0  0  0
M  END
>  <minimizedAffinity>
-4.39566612

$$$$

 OpenBabel03272502293D

 23 24  0  0  0  0  0  0  0  0999 V2000
   36.8060   25.5010   32.4250 C   0  0  0  0  0  0  0  0  0  0  0  0
   37.3840   25.8920   31.5600 H   0  0  0  0  0  0  0  0  0  0  0  0
   35.7670   25.8850   32.2630 H   0  0  0  0  0  0  0  0  0  0  0  0
   37.3650   25.9980   33.7070 C   0  0  0  0  0  0  0  0  0  0  0  0
   38.1140   25.1230   34.4910 C   0  0  0  0  0  0  0  0  0  0  0  0
   38.2600   24.1120   34.1380 H   0  0  0  0  0  0  0  0  0  0  0  0
   38.6470   25.5690   35.6970 C   0  0  0  0  0  3  0  0  0  0  0  0
   38.4150   26.8830   36.0840 C   0  0  0  0  0  0  0  0  0  0  0  0
   38.8590   27.1540   37.0280 H   0  0  0  0  0  0  0  0  0  0  0  0
   37.6620   27.7400   35.2800 C   0  0  0  0  0  0  0  0  0  0  0  0
   37.5220   28.7370   35.6360 H   0  0  0  0  0  0  0  0  0  0  0  0
   37.1280   27.2980   34.0750 C   0  0  0  0  0  3  0  0  0  0  0  0
   35.9260   23.3390   31.6540 C   0  0  0  0  0  3  0  0  0  0  0  0
   36.8270   24.0200   32.3240 C   0  0  0  0  0  3  0  0  0  0  0  0
   34.9140   19.8110   32.0450 C   0  0  0  0  0  0  0  0  0  0  0  0
   34.9110   21.2160   32.1840 C   0  0  0  0  0  0  0  0  0  0  0  0
   35.9100   21.9190   31.5260 C   0  0  0  0  0  0  0  0  0  0  0  0
   36.8220   21.2520   30.7960 N   0  0  0  0  0  0  0  0  0  0  0  0
   36.8100   19.9150   30.6750 C   0  0  0  0  0  0  0  0  0  0  0  0
   35.8610   19.1950   31.2970 N   0  0  0  0  0  0  0  0  0  0  0  0
   34.1370   19.2480   32.5570 H   0  0  0  0  0  0  0  0  0  0  0  0
   34.1310   21.6510   32.7950 H   0  0  0  0  0  0  0  0  0  0  0  0
   37.5720   19.4270   30.0720 H   0  0  0  0  0  0  0  0  0  0  0  0
  1  4  1  0  0  0  0
  2  1  1  0  0  0  0
  3  1  1  0  0  0  0
  4 12  2  0  0  0  0
  4  5  1  0  0  0  0
  5  7  2  0  0  0  0
  6  5  1  0  0  0  0
  7  8  1  0  0  0  0
  8  9  1  0  0  0  0
 10 11  1  0  0  0  0
 10  8  2  0  0  0  0
 12 10  1  0  0  0  0
 13 14  2  0  0  0  0
 14  1  1  0  0  0  0
 15 16  1  0  0  0  0
 15 21  1  0  0  0  0
 16 22  1  0  0  0  0
 17 13  1  0  0  0  0
 17 16  2  0  0  0  0
 18 17  1  0  0  0  0
 19 18  2  0  0  0  0
 19 20  1  0  0  0  0
 20 15  2  0  0  0  0
 23 19  1  0  0  0  0
M  END
>  <minimizedAffinity>
-4.34813213

$$$$

 OpenBabel03272502293D

 23 24  0  0  0  0  0  0  0  0999 V2000
   36.6370   28.0410   34.4950 C   0  0  0  0  0  0  0  0  0  0  0  0
   35.5890   28.1250   34.8560 H   0  0  0  0  0  0  0  0  0  0  0  0
   37.1920   28.8300   35.0640 H   0  0  0  0  0  0  0  0  0  0  0  0
   36.7160   28.2820   33.0330 C   0  0  0  0  0  0  0  0  0  0  0  0
   35.9040   29.2650   32.4730 C   0  0  0  0  0  0  0  0  0  0  0  0
   35.2440   29.8190   33.1260 H   0  0  0  0  0  0  0  0  0  0  0  0
   35.9630   29.5050   31.1030 C   0  0  0  0  0  3  0  0  0  0  0  0
   36.8380   28.7520   30.3300 C   0  0  0  0  0  0  0  0  0  0  0  0
   36.8270   28.9950   29.2810 H   0  0  0  0  0  0  0  0  0  0  0  0
   37.6410   27.7720   30.9150 C   0  0  0  0  0  0  0  0  0  0  0  0
   38.2910   27.2280   30.2640 H   0  0  0  0  0  0  0  0  0  0  0  0
   37.5840   27.5290   32.2820 C   0  0  0  0  0  3  0  0  0  0  0  0
   37.9900   26.4980   35.8480 C   0  0  0  0  0  3  0  0  0  0  0  0
   37.1220   26.6920   34.8830 C   0  0  0  0  0  3  0  0  0  0  0  0
   39.9230   23.3540   35.9010 C   0  0  0  0  0  0  0  0  0  0  0  0
   39.4550   24.6180   35.4790 C   0  0  0  0  0  0  0  0  0  0  0  0
   38.4790   25.2240   36.2580 C   0  0  0  0  0  0  0  0  0  0  0  0
   38.0280   24.6010   37.3620 N   0  0  0  0  0  0  0  0  0  0  0  0
   38.4850   23.4000   37.7490 C   0  0  0  0  0  0  0  0  0  0  0  0
   39.4290   22.7770   37.0220 N   0  0  0  0  0  0  0  0  0  0  0  0
   40.6870   22.8680   35.2990 H   0  0  0  0  0  0  0  0  0  0  0  0
   39.8860   25.0280   34.5750 H   0  0  0  0  0  0  0  0  0  0  0  0
   38.0850   22.9410   38.6500 H   0  0  0  0  0  0  0  0  0  0  0  0
  1  2  1  0  0  0  0
  1 14  1  0  0  0  0
  1  3  1  0  0  0  0
  4  1  1  0  0  0  0
  5  4  1  0  0  0  0
  5  6  1  0  0  0  0
  7  5  2  0  0  0  0
  8 10  2  0  0  0  0
  8  7  1  0  0  0  0
  9  8  1  0  0  0  0
 10 12  1  0  0  0  0
 11 10  1  0  0  0  0
 12  4  2  0  0  0  0
 13 17  1  0  0  0  0
 14 13  2  0  0  0  0
 15 20  1  0  0  0  0
 16 15  2  0  0  0  0
 16 17  1  0  0  0  0
 17 18  2  0  0  0  0
 18 19  1  0  0  0  0
 19 23  1  0  0  0  0
 20 19  2  0  0  0  0
 21 15  1  0  0  0  0
 22 16  1  0  0  0  0
M  END
>  <minimizedAffinity>
-4.34593821

$$$$

 OpenBabel03272502293D

 23 24  0  0  0  0  0  0  0  0999 V2000
   38.4820   26.5880   33.0120 C   0  0  0  0  0  0  0  0  0  0  0  0
   39.5100   26.9920   32.8800 H   0  0  0  0  0  0  0  0  0  0  0  0
   38.4100   25.7600   32.2620 H   0  0  0  0  0  0  0  0  0  0  0  0
   37.4630   27.6350   32.7520 C   0  0  0  0  0  0  0  0  0  0  0  0
   37.3750   28.1780   31.4720 C   0  0  0  0  0  0  0  0  0  0  0  0
   38.0550   27.8180   30.7130 H   0  0  0  0  0  0  0  0  0  0  0  0
   36.4260   29.1610   31.2080 C   0  0  0  0  0  3  0  0  0  0  0  0
   35.5870   29.5720   32.2370 C   0  0  0  0  0  0  0  0  0  0  0  0
   34.8800   30.3350   31.9560 H   0  0  0  0  0  0  0  0  0  0  0  0
   35.6950   29.0120   33.5100 C   0  0  0  0  0  0  0  0  0  0  0  0
   35.0200   29.3740   34.2550 H   0  0  0  0  0  0  0  0  0  0  0  0
   36.6420   28.0310   33.7770 C   0  0  0  0  0  3  0  0  0  0  0  0
   38.9640   24.9040   34.7360 C   0  0  0  0  0  3  0  0  0  0  0  0
   38.4070   26.0410   34.3900 C   0  0  0  0  0  3  0  0  0  0  0  0
   39.7980   22.8300   37.6730 C   0  0  0  0  0  0  0  0  0  0  0  0
   39.8590   23.3730   36.3710 C   0  0  0  0  0  0  0  0  0  0  0  0
   38.9210   24.3430   36.0460 C   0  0  0  0  0  0  0  0  0  0  0  0
   38.0110   24.7220   36.9610 N   0  0  0  0  0  0  0  0  0  0  0  0
   37.9670   24.1940   38.1950 C   0  0  0  0  0  0  0  0  0  0  0  0
   38.8560   23.2510   38.5510 N   0  0  0  0  0  0  0  0  0  0  0  0
   40.5260   22.0680   37.9410 H   0  0  0  0  0  0  0  0  0  0  0  0
   40.6320   22.9960   35.7140 H   0  0  0  0  0  0  0  0  0  0  0  0
   37.2100   24.5370   38.8960 H   0  0  0  0  0  0  0  0  0  0  0  0
  1 14  1  0  0  0  0
  2  1  1  0  0  0  0
  3  1  1  0  0  0  0
  4  1  1  0  0  0  0
  4 12  1  0  0  0  0
  5  4  2  0  0  0  0
  6  5  1  0  0  0  0
  7  5  1  0  0  0  0
  7  8  2  0  0  0  0
  8 10  1  0  0  0  0
  9  8  1  0  0  0  0
 10 12  2  0  0  0  0
 10 11  1  0  0  0  0
 13 17  1  0  0  0  0
 14 13  2  0  0  0  0
 15 21  1  0  0  0  0
 15 20  1  0  0  0  0
 16 15  2  0  0  0  0
 17 16  1  0  0  0  0
 17 18  2  0  0  0  0
 18 19  1  0  0  0  0
 19 20  2  0  0  0  0
 19 23  1  0  0  0  0
 22 16  1  0  0  0  0
M  END
>  <minimizedAffinity>
-4.30487442

$$$$
