
 OpenBabel03262520473D

 34 36  0  0  1  0  0  0  0  0999 V2000
   38.6730   32.1300   46.9600 C   0  0  1  0  0  0  0  0  0  0  0  0
   39.7920   32.9060   46.2900 C   0  0  0  0  0  0  0  0  0  0  0  0
   39.7950   31.4200   46.3190 C   0  0  2  0  0  0  0  0  0  0  0  0
   37.6720   32.0800   46.4870 H   0  0  0  0  0  0  0  0  0  0  0  0
   39.5880   33.3360   45.2700 H   0  0  0  0  0  0  0  0  0  0  0  0
   40.5020   33.4840   46.8920 H   0  0  0  0  0  0  0  0  0  0  0  0
   40.5620   30.9910   47.0100 H   0  0  0  0  0  0  0  0  0  0  0  0
   38.6030   32.2690   48.4570 C   0  0  0  0  0  0  0  0  0  0  0  0
   38.1810   33.2670   48.7690 H   0  0  0  0  0  0  0  0  0  0  0  0
   39.6470   32.2040   48.8430 H   0  0  0  0  0  0  0  0  0  0  0  0
   37.3350   29.9000   51.0590 C   0  0  0  0  0  0  0  0  0  0  0  0
   38.0520   30.9630   50.4200 C   0  0  0  0  0  0  0  0  0  0  0  0
   37.8420   31.1580   49.0780 C   0  0  0  0  0  0  0  0  0  0  0  0
   36.9870   30.3650   48.4030 N   0  0  0  0  0  0  0  0  0  0  0  0
   36.3260   29.3710   49.0260 C   0  0  0  0  0  0  0  0  0  0  0  0
   36.5000   29.1450   50.3400 N   0  0  0  0  0  0  0  0  0  0  0  0
   37.4820   29.7280   52.1060 H   0  0  0  0  0  0  0  0  0  0  0  0
   38.7060   31.5260   51.0730 H   0  0  0  0  0  0  0  0  0  0  0  0
   35.6300   28.7110   48.5240 H   0  0  0  0  0  0  0  0  0  0  0  0
   39.4600   30.5970   45.1250 C   0  0  0  0  0  0  0  0  0  0  0  0
   39.7840   29.5440   45.3310 H   0  0  0  0  0  0  0  0  0  0  0  0
   38.3680   30.5180   44.9460 H   0  0  0  0  0  0  0  0  0  0  0  0
   40.1840   31.0090   43.8500 C   0  0  0  0  0  0  0  0  0  0  0  0
   41.2450   31.2480   44.0500 H   0  0  0  0  0  0  0  0  0  0  0  0
   39.6720   31.8510   43.3400 H   0  0  0  0  0  0  0  0  0  0  0  0
   40.2010   29.7750   42.9840 C   0  0  0  0  0  0  0  0  0  0  0  0
   39.2410   28.7880   43.1870 C   0  0  0  0  0  0  0  0  0  0  0  0
   38.4810   28.8870   43.9560 H   0  0  0  0  0  0  0  0  0  0  0  0
   39.3020   27.6720   42.3610 C   0  0  0  0  0  0  0  0  0  0  0  0
   40.2530   27.5090   41.3710 C   0  0  0  0  0  0  0  0  0  0  0  0
   40.2470   26.6120   40.7560 H   0  0  0  0  0  0  0  0  0  0  0  0
   41.2030   28.4950   41.1760 C   0  0  0  0  0  0  0  0  0  0  0  0
   41.9660   28.4050   40.4090 H   0  0  0  0  0  0  0  0  0  0  0  0
   41.1570   29.6100   41.9870 C   0  0  0  0  0  0  0  0  0  0  0  0
  1  4  1  6  0  0  0
  1  8  1  0  0  0  0
  2  3  1  0  0  0  0
  2  6  1  0  0  0  0
  2  1  1  0  0  0  0
  3  1  1  0  0  0  0
  3  7  1  1  0  0  0
  5  2  1  0  0  0  0
  8  9  1  0  0  0  0
  8 10  1  0  0  0  0
  8 13  1  0  0  0  0
 11 17  1  0  0  0  0
 12 11  1  0  0  0  0
 12 18  1  0  0  0  0
 13 12  2  0  0  0  0
 14 15  2  0  0  0  0
 14 13  1  0  0  0  0
 15 16  1  0  0  0  0
 16 11  2  0  0  0  0
 19 15  1  0  0  0  0
 20 21  1  0  0  0  0
 20  3  1  0  0  0  0
 22 20  1  0  0  0  0
 23 24  1  0  0  0  0
 23 20  1  0  0  0  0
 25 23  1  0  0  0  0
 26 27  1  0  0  0  0
 26 23  1  0  0  0  0
 27 28  1  0  0  0  0
 29 27  2  0  0  0  0
 30 29  1  0  0  0  0
 31 30  1  0  0  0  0
 32 30  2  0  0  0  0
 32 34  1  0  0  0  0
 33 32  1  0  0  0  0
 34 26  2  0  0  0  0
M  END
>  <minimizedAffinity>
-5.27430964

>  <minimizedRMSD>
0.752862453

$$$$
