
 OpenBabel03262521103D

 24 25  0  0  0  0  0  0  0  0999 V2000
   39.5120   27.0370   34.1340 O   0  0  0  0  0  0  0  0  0  0  0  0
   38.3170   26.8830   35.0630 P   0  0  1  0  0  0  0  0  0  0  0  0
   38.6030   27.6430   36.5630 O   0  0  0  0  0  0  0  0  0  0  0  0
   38.9150   28.5690   36.4340 H   0  0  0  0  0  0  0  0  0  0  0  0
   36.9010   27.6240   34.4240 O   0  0  0  0  0  0  0  0  0  0  0  0
   36.6840   27.7540   33.0530 C   0  0  0  0  0  0  0  0  0  0  0  0
   36.4990   28.9500   32.3620 C   0  0  0  0  0  0  0  0  0  0  0  0
   36.2930   28.9000   30.9940 C   0  0  0  0  0  0  0  0  0  0  0  0
   36.2830   27.6870   30.3880 N   0  0  0  0  0  0  0  0  0  0  0  0
   36.4650   26.5270   31.0690 C   0  0  0  0  0  0  0  0  0  0  0  0
   36.6650   26.5750   32.4040 N   0  0  0  0  0  0  0  0  0  0  0  0
   36.5310   29.8600   32.9790 H   0  0  0  0  0  0  0  0  0  0  0  0
   36.1560   29.8270   30.4970 H   0  0  0  0  0  0  0  0  0  0  0  0
   36.4490   25.5790   30.5450 H   0  0  0  0  0  0  0  0  0  0  0  0
   38.0430   25.2400   35.2690 O   0  0  0  0  0  0  0  0  0  0  0  0
   38.8500   24.3800   35.9910 C   0  0  0  0  0  0  0  0  0  0  0  0
   40.0530   23.7940   35.6610 C   0  0  0  0  0  0  0  0  0  0  0  0
   40.3890   24.0730   34.6770 H   0  0  0  0  0  0  0  0  0  0  0  0
   40.6750   22.9570   36.5650 C   0  0  0  0  0  3  0  0  0  0  0  0
   40.1310   22.6840   37.8020 C   0  0  0  0  0  0  0  0  0  0  0  0
   40.6560   22.0200   38.4800 H   0  0  0  0  0  0  0  0  0  0  0  0
   38.9290   23.2610   38.1480 C   0  0  0  0  0  0  0  0  0  0  0  0
   38.5370   23.0220   39.1210 H   0  0  0  0  0  0  0  0  0  0  0  0
   38.2860   24.1110   37.2420 C   0  0  0  0  0  3  0  0  0  0  0  0
  2  1  2  6  0  0  0
  2 15  1  0  0  0  0
  2  3  1  0  0  0  0
  4  3  1  0  0  0  0
  5  2  1  0  0  0  0
  6  5  1  0  0  0  0
  7 12  1  0  0  0  0
  7  6  2  0  0  0  0
  8  7  1  0  0  0  0
  9  8  2  0  0  0  0
  9 10  1  0  0  0  0
 10 11  2  0  0  0  0
 11  6  1  0  0  0  0
 13  8  1  0  0  0  0
 14 10  1  0  0  0  0
 15 16  1  0  0  0  0
 16 24  1  0  0  0  0
 17 16  2  0  0  0  0
 17 19  1  0  0  0  0
 18 17  1  0  0  0  0
 19 20  2  0  0  0  0
 20 22  1  0  0  0  0
 20 21  1  0  0  0  0
 22 23  1  0  0  0  0
 24 22  2  0  0  0  0
M  END
>  <minimizedAffinity>
-4.84128237

$$$$

 OpenBabel03262521103D

 24 25  0  0  0  0  0  0  0  0999 V2000
   39.2270   27.1900   35.6490 O   0  0  0  0  0  0  0  0  0  0  0  0
   37.9670   26.6930   34.9560 P   0  0  1  0  0  0  0  0  0  0  0  0
   36.8200   27.9450   34.7940 O   0  0  0  0  0  0  0  0  0  0  0  0
   37.2290   28.7470   34.3930 H   0  0  0  0  0  0  0  0  0  0  0  0
   38.2840   26.1370   33.3580 O   0  0  0  0  0  0  0  0  0  0  0  0
   37.2790   25.6420   32.5300 C   0  0  0  0  0  0  0  0  0  0  0  0
   37.0460   24.2980   32.2380 C   0  0  0  0  0  0  0  0  0  0  0  0
   35.9990   23.9770   31.3900 C   0  0  0  0  0  0  0  0  0  0  0  0
   35.2480   24.9850   30.8840 N   0  0  0  0  0  0  0  0  0  0  0  0
   35.4820   26.2900   31.1740 C   0  0  0  0  0  0  0  0  0  0  0  0
   36.5020   26.6050   32.0000 N   0  0  0  0  0  0  0  0  0  0  0  0
   37.7320   23.5870   32.7170 H   0  0  0  0  0  0  0  0  0  0  0  0
   35.8480   22.9470   31.1880 H   0  0  0  0  0  0  0  0  0  0  0  0
   34.8560   27.0640   30.7470 H   0  0  0  0  0  0  0  0  0  0  0  0
   37.3470   25.4310   35.8730 O   0  0  0  0  0  0  0  0  0  0  0  0
   38.0920   24.5880   36.6790 C   0  0  0  0  0  0  0  0  0  0  0  0
   38.0290   24.3630   38.0370 C   0  0  0  0  0  0  0  0  0  0  0  0
   37.2680   24.9540   38.5160 H   0  0  0  0  0  0  0  0  0  0  0  0
   38.8930   23.4590   38.6190 C   0  0  0  0  0  3  0  0  0  0  0  0
   39.8290   22.7630   37.8820 C   0  0  0  0  0  0  0  0  0  0  0  0
   40.4880   22.0620   38.3830 H   0  0  0  0  0  0  0  0  0  0  0  0
   39.9050   22.9760   36.5230 C   0  0  0  0  0  0  0  0  0  0  0  0
   40.6480   22.4150   35.9840 H   0  0  0  0  0  0  0  0  0  0  0  0
   39.0360   23.8910   35.9190 C   0  0  0  0  0  3  0  0  0  0  0  0
  2  1  2  1  0  0  0
  2 15  1  0  0  0  0
  3  2  1  0  0  0  0
  4  3  1  0  0  0  0
  5  2  1  0  0  0  0
  6  5  1  0  0  0  0
  7  6  1  0  0  0  0
  7 12  1  0  0  0  0
  8  7  2  0  0  0  0
  9 10  2  0  0  0  0
  9  8  1  0  0  0  0
 10 11  1  0  0  0  0
 11  6  2  0  0  0  0
 13  8  1  0  0  0  0
 14 10  1  0  0  0  0
 15 16  1  0  0  0  0
 16 17  1  0  0  0  0
 17 18  1  0  0  0  0
 17 19  2  0  0  0  0
 20 21  1  0  0  0  0
 20 19  1  0  0  0  0
 22 20  2  0  0  0  0
 23 22  1  0  0  0  0
 24 22  1  0  0  0  0
 24 16  2  0  0  0  0
M  END
>  <minimizedAffinity>
-4.80884218

$$$$

 OpenBabel03262521103D

 24 25  0  0  0  0  0  0  0  0999 V2000
   37.0310   27.9810   34.8520 O   0  0  0  0  0  0  0  0  0  0  0  0
   37.9670   26.7830   34.9250 P   0  0  1  0  0  0  0  0  0  0  0  0
   39.4440   27.2020   35.6670 O   0  0  0  0  0  0  0  0  0  0  0  0
   39.2890   27.6640   36.5240 H   0  0  0  0  0  0  0  0  0  0  0  0
   37.3100   25.5070   35.8750 O   0  0  0  0  0  0  0  0  0  0  0  0
   38.1150   24.6200   36.5870 C   0  0  0  0  0  0  0  0  0  0  0  0
   37.9280   24.2240   37.9110 C   0  0  0  0  0  0  0  0  0  0  0  0
   38.8250   23.3300   38.4690 C   0  0  0  0  0  0  0  0  0  0  0  0
   39.8470   22.8790   37.7000 N   0  0  0  0  0  0  0  0  0  0  0  0
   40.0210   23.2680   36.4120 C   0  0  0  0  0  0  0  0  0  0  0  0
   39.1460   24.1410   35.8670 N   0  0  0  0  0  0  0  0  0  0  0  0
   37.0580   24.6690   38.4160 H   0  0  0  0  0  0  0  0  0  0  0  0
   38.6560   23.0490   39.4770 H   0  0  0  0  0  0  0  0  0  0  0  0
   40.8520   22.8830   35.8330 H   0  0  0  0  0  0  0  0  0  0  0  0
   38.2190   26.2400   33.3580 O   0  0  0  0  0  0  0  0  0  0  0  0
   37.4110   25.3410   32.6840 C   0  0  0  0  0  0  0  0  0  0  0  0
   37.4570   23.9650   32.6270 C   0  0  0  0  0  0  0  0  0  0  0  0
   38.2630   23.5570   33.2130 H   0  0  0  0  0  0  0  0  0  0  0  0
   36.5260   23.2820   31.8730 C   0  0  0  0  0  3  0  0  0  0  0  0
   35.5380   23.9340   31.1650 C   0  0  0  0  0  0  0  0  0  0  0  0
   34.8270   23.3550   30.5850 H   0  0  0  0  0  0  0  0  0  0  0  0
   35.4780   25.3100   31.2100 C   0  0  0  0  0  0  0  0  0  0  0  0
   34.6940   25.7810   30.6440 H   0  0  0  0  0  0  0  0  0  0  0  0
   36.4160   26.0160   31.9700 C   0  0  0  0  0  3  0  0  0  0  0  0
  2  1  2  6  0  0  0
  2  3  1  0  0  0  0
  2  5  1  0  0  0  0
  3  4  1  0  0  0  0
  5  6  1  0  0  0  0
  6  7  1  0  0  0  0
  7 12  1  0  0  0  0
  7  8  2  0  0  0  0
  8 13  1  0  0  0  0
  9  8  1  0  0  0  0
 10  9  2  0  0  0  0
 11 10  1  0  0  0  0
 11  6  2  0  0  0  0
 14 10  1  0  0  0  0
 15  2  1  0  0  0  0
 16 15  1  0  0  0  0
 17 16  1  0  0  0  0
 17 18  1  0  0  0  0
 19 17  2  0  0  0  0
 20 22  2  0  0  0  0
 20 19  1  0  0  0  0
 21 20  1  0  0  0  0
 22 24  1  0  0  0  0
 23 22  1  0  0  0  0
 24 16  2  0  0  0  0
M  END
>  <minimizedAffinity>
-4.71705055

$$$$

 OpenBabel03262521103D

 24 25  0  0  0  0  0  0  0  0999 V2000
   38.8780   27.5370   35.7060 O   0  0  0  0  0  0  0  0  0  0  0  0
   39.5850   26.6280   34.7120 P   0  0  1  0  0  0  0  0  0  0  0  0
   41.2690   26.6140   34.9810 O   0  0  0  0  0  0  0  0  0  0  0  0
   41.4720   26.4350   35.9290 H   0  0  0  0  0  0  0  0  0  0  0  0
   39.0740   24.9900   34.8570 O   0  0  0  0  0  0  0  0  0  0  0  0
   39.1070   24.3060   36.0700 C   0  0  0  0  0  0  0  0  0  0  0  0
   40.0590   23.3620   36.4540 C   0  0  0  0  0  0  0  0  0  0  0  0
   39.9430   22.7730   37.7020 C   0  0  0  0  0  0  0  0  0  0  0  0
   38.9080   23.1430   38.4950 N   0  0  0  0  0  0  0  0  0  0  0  0
   37.9860   24.0640   38.1140 C   0  0  0  0  0  0  0  0  0  0  0  0
   38.0980   24.6390   36.8970 N   0  0  0  0  0  0  0  0  0  0  0  0
   40.8430   23.1570   35.7120 H   0  0  0  0  0  0  0  0  0  0  0  0
   40.6820   22.0590   37.9630 H   0  0  0  0  0  0  0  0  0  0  0  0
   37.1740   24.3310   38.7800 H   0  0  0  0  0  0  0  0  0  0  0  0
   39.2320   27.1880   33.1700 O   0  0  0  0  0  0  0  0  0  0  0  0
   37.9970   27.1060   32.5530 C   0  0  0  0  0  0  0  0  0  0  0  0
   36.9340   27.9830   32.5580 C   0  0  0  0  0  0  0  0  0  0  0  0
   37.1320   28.8640   33.1450 H   0  0  0  0  0  0  0  0  0  0  0  0
   35.7890   27.6720   31.8550 C   0  0  0  0  0  3  0  0  0  0  0  0
   35.6680   26.5000   31.1380 C   0  0  0  0  0  0  0  0  0  0  0  0
   34.7470   26.2970   30.6000 H   0  0  0  0  0  0  0  0  0  0  0  0
   36.7200   25.6110   31.1230 C   0  0  0  0  0  0  0  0  0  0  0  0
   36.5850   24.7080   30.5530 H   0  0  0  0  0  0  0  0  0  0  0  0
   37.8870   25.9130   31.8320 C   0  0  0  0  0  3  0  0  0  0  0  0
  2  5  1  0  0  0  0
  2  3  1  0  0  0  0
  2  1  2  1  0  0  0
  3  4  1  0  0  0  0
  5  6  1  0  0  0  0
  6  7  2  0  0  0  0
  6 11  1  0  0  0  0
  7  8  1  0  0  0  0
  8 13  1  0  0  0  0
  8  9  2  0  0  0  0
 10  9  1  0  0  0  0
 10 14  1  0  0  0  0
 11 10  2  0  0  0  0
 12  7  1  0  0  0  0
 15  2  1  0  0  0  0
 16 17  1  0  0  0  0
 16 15  1  0  0  0  0
 17 18  1  0  0  0  0
 19 17  2  0  0  0  0
 20 19  1  0  0  0  0
 21 20  1  0  0  0  0
 22 20  2  0  0  0  0
 22 24  1  0  0  0  0
 23 22  1  0  0  0  0
 24 16  2  0  0  0  0
M  END
>  <minimizedAffinity>
-4.57302046

$$$$

 OpenBabel03262521103D

 24 25  0  0  0  0  0  0  0  0999 V2000
   35.0600   24.7220   30.7950 O   0  0  0  0  0  0  0  0  0  0  0  0
   36.3810   24.9340   31.5210 P   0  0  1  0  0  0  0  0  0  0  0  0
   37.6430   25.2550   30.4200 O   0  0  0  0  0  0  0  0  0  0  0  0
   37.3900   25.9740   29.7950 H   0  0  0  0  0  0  0  0  0  0  0  0
   36.3250   26.2900   32.5800 O   0  0  0  0  0  0  0  0  0  0  0  0
   37.3490   26.5710   33.4820 C   0  0  0  0  0  0  0  0  0  0  0  0
   37.1900   26.8800   34.8330 C   0  0  0  0  0  0  0  0  0  0  0  0
   38.3200   27.1350   35.5920 C   0  0  0  0  0  0  0  0  0  0  0  0
   39.5300   27.0710   34.9850 N   0  0  0  0  0  0  0  0  0  0  0  0
   39.6760   26.7690   33.6710 C   0  0  0  0  0  0  0  0  0  0  0  0
   38.5750   26.5200   32.9290 N   0  0  0  0  0  0  0  0  0  0  0  0
   36.1510   26.8970   35.1920 H   0  0  0  0  0  0  0  0  0  0  0  0
   38.1650   27.3670   36.6140 H   0  0  0  0  0  0  0  0  0  0  0  0
   40.6630   26.7290   33.2260 H   0  0  0  0  0  0  0  0  0  0  0  0
   36.7010   23.5460   32.4070 O   0  0  0  0  0  0  0  0  0  0  0  0
   36.2990   22.2680   32.0640 C   0  0  0  0  0  0  0  0  0  0  0  0
   35.1980   21.5390   32.4610 C   0  0  0  0  0  0  0  0  0  0  0  0
   34.5730   22.0820   33.1480 H   0  0  0  0  0  0  0  0  0  0  0  0
   35.0120   20.2620   31.9720 C   0  0  0  0  0  3  0  0  0  0  0  0
   35.8990   19.6820   31.0890 C   0  0  0  0  0  0  0  0  0  0  0  0
   35.7110   18.6750   30.7300 H   0  0  0  0  0  0  0  0  0  0  0  0
   37.0040   20.3960   30.6810 C   0  0  0  0  0  0  0  0  0  0  0  0
   37.6710   19.9080   29.9930 H   0  0  0  0  0  0  0  0  0  0  0  0
   37.2060   21.6910   31.1700 C   0  0  0  0  0  3  0  0  0  0  0  0
  2  1  2  6  0  0  0
  2 15  1  0  0  0  0
  2  5  1  0  0  0  0
  3  2  1  0  0  0  0
  4  3  1  0  0  0  0
  5  6  1  0  0  0  0
  6  7  1  0  0  0  0
  7 12  1  0  0  0  0
  7  8  2  0  0  0  0
  8 13  1  0  0  0  0
  9  8  1  0  0  0  0
 10  9  2  0  0  0  0
 11  6  2  0  0  0  0
 11 10  1  0  0  0  0
 14 10  1  0  0  0  0
 16 15  1  0  0  0  0
 16 17  1  0  0  0  0
 17 18  1  0  0  0  0
 19 17  2  0  0  0  0
 20 19  1  0  0  0  0
 21 20  1  0  0  0  0
 22 20  2  0  0  0  0
 22 24  1  0  0  0  0
 23 22  1  0  0  0  0
 24 16  2  0  0  0  0
M  END
>  <minimizedAffinity>
-4.4650445

$$$$

 OpenBabel03262521103D

 24 25  0  0  0  0  0  0  0  0999 V2000
   39.4550   23.4100   32.8060 O   0  0  0  0  0  0  0  0  0  0  0  0
   38.0660   23.6190   33.3930 P   0  0  1  0  0  0  0  0  0  0  0  0
   37.8540   25.2300   33.9110 O   0  0  0  0  0  0  0  0  0  0  0  0
   38.1070   25.8650   33.2010 H   0  0  0  0  0  0  0  0  0  0  0  0
   36.8250   23.3320   32.2350 O   0  0  0  0  0  0  0  0  0  0  0  0
   36.3570   22.0510   31.9500 C   0  0  0  0  0  0  0  0  0  0  0  0
   35.2130   21.4590   32.4840 C   0  0  0  0  0  0  0  0  0  0  0  0
   34.8890   20.1710   32.0920 C   0  0  0  0  0  0  0  0  0  0  0  0
   35.7000   19.5450   31.2040 N   0  0  0  0  0  0  0  0  0  0  0  0
   36.8100   20.1290   30.6880 C   0  0  0  0  0  0  0  0  0  0  0  0
   37.1280   21.3850   31.0700 N   0  0  0  0  0  0  0  0  0  0  0  0
   34.6490   22.0810   33.1930 H   0  0  0  0  0  0  0  0  0  0  0  0
   34.0140   19.7490   32.5160 H   0  0  0  0  0  0  0  0  0  0  0  0
   37.4310   19.5920   29.9810 H   0  0  0  0  0  0  0  0  0  0  0  0
   37.8910   22.5510   34.6750 O   0  0  0  0  0  0  0  0  0  0  0  0
   38.1850   22.8340   35.9970 C   0  0  0  0  0  0  0  0  0  0  0  0
   37.3980   23.3700   36.9930 C   0  0  0  0  0  0  0  0  0  0  0  0
   36.4000   23.5900   36.6540 H   0  0  0  0  0  0  0  0  0  0  0  0
   37.9270   23.5610   38.2530 C   0  0  0  0  0  3  0  0  0  0  0  0
   39.2320   23.2310   38.5540 C   0  0  0  0  0  0  0  0  0  0  0  0
   39.6050   23.3990   39.5600 H   0  0  0  0  0  0  0  0  0  0  0  0
   40.0330   22.6950   37.5700 C   0  0  0  0  0  0  0  0  0  0  0  0
   41.0450   22.4520   37.8450 H   0  0  0  0  0  0  0  0  0  0  0  0
   39.5100   22.4960   36.2880 C   0  0  0  0  0  3  0  0  0  0  0  0
  2  1  2  6  0  0  0
  2  3  1  0  0  0  0
  2 15  1  0  0  0  0
  4  3  1  0  0  0  0
  5  2  1  0  0  0  0
  6  5  1  0  0  0  0
  6  7  1  0  0  0  0
  7 12  1  0  0  0  0
  8  7  2  0  0  0  0
  8 13  1  0  0  0  0
  9  8  1  0  0  0  0
 10 11  1  0  0  0  0
 10  9  2  0  0  0  0
 11  6  2  0  0  0  0
 14 10  1  0  0  0  0
 15 16  1  0  0  0  0
 16 24  2  0  0  0  0
 16 17  1  0  0  0  0
 17 19  2  0  0  0  0
 18 17  1  0  0  0  0
 19 20  1  0  0  0  0
 20 21  1  0  0  0  0
 22 23  1  0  0  0  0
 22 20  2  0  0  0  0
 24 22  1  0  0  0  0
M  END
>  <minimizedAffinity>
-4.43092108

$$$$

 OpenBabel03262521103D

 24 25  0  0  0  0  0  0  0  0999 V2000
   35.0870   24.2760   31.3880 O   0  0  0  0  0  0  0  0  0  0  0  0
   36.5890   24.3470   31.6230 P   0  0  1  0  0  0  0  0  0  0  0  0
   37.4360   24.4820   30.1490 O   0  0  0  0  0  0  0  0  0  0  0  0
   37.0660   25.2070   29.5950 H   0  0  0  0  0  0  0  0  0  0  0  0
   37.0330   25.7300   32.5470 O   0  0  0  0  0  0  0  0  0  0  0  0
   36.7340   27.0270   32.1360 C   0  0  0  0  0  0  0  0  0  0  0  0
   36.3230   28.0740   32.9590 C   0  0  0  0  0  0  0  0  0  0  0  0
   36.0650   29.3070   32.3850 C   0  0  0  0  0  0  0  0  0  0  0  0
   36.2250   29.4400   31.0450 N   0  0  0  0  0  0  0  0  0  0  0  0
   36.6260   28.4150   30.2510 C   0  0  0  0  0  0  0  0  0  0  0  0
   36.8780   27.2120   30.8100 N   0  0  0  0  0  0  0  0  0  0  0  0
   36.2340   27.8270   34.0270 H   0  0  0  0  0  0  0  0  0  0  0  0
   35.7540   30.0830   33.0370 H   0  0  0  0  0  0  0  0  0  0  0  0
   36.7410   28.5640   29.1840 H   0  0  0  0  0  0  0  0  0  0  0  0
   37.0400   22.9570   32.4460 O   0  0  0  0  0  0  0  0  0  0  0  0
   36.4910   21.7010   32.2560 C   0  0  0  0  0  0  0  0  0  0  0  0
   36.3280   20.9620   31.1040 C   0  0  0  0  0  0  0  0  0  0  0  0
   36.6990   21.4730   30.2320 H   0  0  0  0  0  0  0  0  0  0  0  0
   35.7430   19.7150   31.1710 C   0  0  0  0  0  3  0  0  0  0  0  0
   35.3090   19.1740   32.3640 C   0  0  0  0  0  0  0  0  0  0  0  0
   34.8540   18.1890   32.3680 H   0  0  0  0  0  0  0  0  0  0  0  0
   35.4640   19.9000   33.5240 C   0  0  0  0  0  0  0  0  0  0  0  0
   35.1130   19.4430   34.4330 H   0  0  0  0  0  0  0  0  0  0  0  0
   36.0560   21.1660   33.4720 C   0  0  0  0  0  3  0  0  0  0  0  0
  2  1  2  6  0  0  0
  2 15  1  0  0  0  0
  2  5  1  0  0  0  0
  3  2  1  0  0  0  0
  4  3  1  0  0  0  0
  6  5  1  0  0  0  0
  6  7  1  0  0  0  0
  7 12  1  0  0  0  0
  8  7  2  0  0  0  0
  8 13  1  0  0  0  0
  9  8  1  0  0  0  0
 10 11  1  0  0  0  0
 10  9  2  0  0  0  0
 11  6  2  0  0  0  0
 14 10  1  0  0  0  0
 16 15  1  0  0  0  0
 16 24  1  0  0  0  0
 17 19  1  0  0  0  0
 17 16  2  0  0  0  0
 18 17  1  0  0  0  0
 19 20  2  0  0  0  0
 20 21  1  0  0  0  0
 20 22  1  0  0  0  0
 22 23  1  0  0  0  0
 24 22  2  0  0  0  0
M  END
>  <minimizedAffinity>
-4.39651155

$$$$

 OpenBabel03262521103D

 24 25  0  0  0  0  0  0  0  0999 V2000
   39.4450   27.1120   34.7730 O   0  0  0  0  0  0  0  0  0  0  0  0
   38.6540   25.9960   34.1070 P   0  0  1  0  0  0  0  0  0  0  0  0
   39.6900   24.8860   33.3310 O   0  0  0  0  0  0  0  0  0  0  0  0
   40.4040   24.5850   33.9400 H   0  0  0  0  0  0  0  0  0  0  0  0
   37.7500   25.0750   35.2460 O   0  0  0  0  0  0  0  0  0  0  0  0
   38.3610   24.3400   36.2600 C   0  0  0  0  0  0  0  0  0  0  0  0
   37.9030   24.2150   37.5720 C   0  0  0  0  0  0  0  0  0  0  0  0
   38.6350   23.4420   38.4580 C   0  0  0  0  0  0  0  0  0  0  0  0
   39.7640   22.8410   38.0080 N   0  0  0  0  0  0  0  0  0  0  0  0
   40.2010   22.9680   36.7290 C   0  0  0  0  0  0  0  0  0  0  0  0
   39.4880   23.7210   35.8640 N   0  0  0  0  0  0  0  0  0  0  0  0
   36.9740   24.7570   37.8000 H   0  0  0  0  0  0  0  0  0  0  0  0
   38.2610   23.3680   39.4470 H   0  0  0  0  0  0  0  0  0  0  0  0
   41.1090   22.4700   36.4120 H   0  0  0  0  0  0  0  0  0  0  0  0
   37.6060   26.7050   33.0050 O   0  0  0  0  0  0  0  0  0  0  0  0
   36.8860   27.8660   33.2200 C   0  0  0  0  0  0  0  0  0  0  0  0
   36.2810   28.3450   34.3630 C   0  0  0  0  0  0  0  0  0  0  0  0
   36.4100   27.6840   35.2030 H   0  0  0  0  0  0  0  0  0  0  0  0
   35.6090   29.5490   34.3260 C   0  0  0  0  0  3  0  0  0  0  0  0
   35.5210   30.3010   33.1730 C   0  0  0  0  0  0  0  0  0  0  0  0
   34.9820   31.2430   33.1920 H   0  0  0  0  0  0  0  0  0  0  0  0
   36.1200   29.8380   32.0220 C   0  0  0  0  0  0  0  0  0  0  0  0
   36.0270   30.4540   31.1450 H   0  0  0  0  0  0  0  0  0  0  0  0
   36.8030   28.6180   32.0440 C   0  0  0  0  0  3  0  0  0  0  0  0
  2  1  2  1  0  0  0
  2  5  1  0  0  0  0
  3  4  1  0  0  0  0
  3  2  1  0  0  0  0
  5  6  1  0  0  0  0
  6  7  1  0  0  0  0
  7 12  1  0  0  0  0
  7  8  2  0  0  0  0
  8 13  1  0  0  0  0
  9  8  1  0  0  0  0
 10  9  2  0  0  0  0
 11  6  2  0  0  0  0
 11 10  1  0  0  0  0
 14 10  1  0  0  0  0
 15 16  1  0  0  0  0
 15  2  1  0  0  0  0
 16 17  1  0  0  0  0
 17 18  1  0  0  0  0
 19 17  2  0  0  0  0
 20 21  1  0  0  0  0
 20 19  1  0  0  0  0
 22 24  1  0  0  0  0
 22 20  2  0  0  0  0
 23 22  1  0  0  0  0
 24 16  2  0  0  0  0
M  END
>  <minimizedAffinity>
-4.39057064

$$$$

 OpenBabel03262521103D

 24 25  0  0  0  0  0  0  0  0999 V2000
   37.5500   24.6770   30.4850 O   0  0  0  0  0  0  0  0  0  0  0  0
   36.5910   24.5270   31.6570 P   0  0  1  0  0  0  0  0  0  0  0  0
   35.0030   24.2210   31.1170 O   0  0  0  0  0  0  0  0  0  0  0  0
   34.9890   23.4780   30.4680 H   0  0  0  0  0  0  0  0  0  0  0  0
   37.0080   23.1970   32.6670 O   0  0  0  0  0  0  0  0  0  0  0  0
   36.5020   21.9160   32.4560 C   0  0  0  0  0  0  0  0  0  0  0  0
   35.9870   21.0660   33.4350 C   0  0  0  0  0  0  0  0  0  0  0  0
   35.5230   19.8190   33.0520 C   0  0  0  0  0  0  0  0  0  0  0  0
   35.5900   19.4820   31.7410 N   0  0  0  0  0  0  0  0  0  0  0  0
   36.0920   20.3150   30.7950 C   0  0  0  0  0  0  0  0  0  0  0  0
   36.5460   21.5320   31.1670 N   0  0  0  0  0  0  0  0  0  0  0  0
   35.9940   21.4690   34.4580 H   0  0  0  0  0  0  0  0  0  0  0  0
   35.1380   19.1970   33.8190 H   0  0  0  0  0  0  0  0  0  0  0  0
   36.1280   20.0050   29.7580 H   0  0  0  0  0  0  0  0  0  0  0  0
   36.6550   25.9470   32.5500 O   0  0  0  0  0  0  0  0  0  0  0  0
   37.6350   26.2680   33.4710 C   0  0  0  0  0  0  0  0  0  0  0  0
   38.9860   25.9940   33.4730 C   0  0  0  0  0  0  0  0  0  0  0  0
   39.2930   25.4410   32.6020 H   0  0  0  0  0  0  0  0  0  0  0  0
   39.7680   26.4270   34.5230 C   0  0  0  0  0  3  0  0  0  0  0  0
   39.2420   27.1340   35.5840 C   0  0  0  0  0  0  0  0  0  0  0  0
   39.8960   27.4550   36.3880 H   0  0  0  0  0  0  0  0  0  0  0  0
   37.8930   27.4170   35.5980 C   0  0  0  0  0  0  0  0  0  0  0  0
   37.5220   27.9690   36.4440 H   0  0  0  0  0  0  0  0  0  0  0  0
   37.0870   26.9830   34.5410 C   0  0  0  0  0  3  0  0  0  0  0  0
  2  1  2  6  0  0  0
  2 15  1  0  0  0  0
  2  5  1  0  0  0  0
  3  2  1  0  0  0  0
  4  3  1  0  0  0  0
  6  5  1  0  0  0  0
  6  7  1  0  0  0  0
  7 12  1  0  0  0  0
  8  7  2  0  0  0  0
  8 13  1  0  0  0  0
  9  8  1  0  0  0  0
 10 11  1  0  0  0  0
 10  9  2  0  0  0  0
 11  6  2  0  0  0  0
 14 10  1  0  0  0  0
 15 16  1  0  0  0  0
 16 17  2  0  0  0  0
 16 24  1  0  0  0  0
 17 19  1  0  0  0  0
 18 17  1  0  0  0  0
 19 20  2  0  0  0  0
 20 22  1  0  0  0  0
 20 21  1  0  0  0  0
 22 23  1  0  0  0  0
 24 22  2  0  0  0  0
M  END
>  <minimizedAffinity>
-4.37880564

$$$$
