
 OpenBabel03272510133D

 41 44  0  0  0  0  0  0  0  0999 V2000
   38.2960   31.5000   48.9210 C   0  0  0  0  0  0  0  0  0  0  0  0
   38.4120   32.7400   49.5020 C   0  0  0  0  0  0  0  0  0  0  0  0
   39.0570   33.5670   48.5850 C   0  0  0  0  0  0  0  0  0  0  0  0
   39.3110   32.8350   47.5040 N   0  0  0  0  0  0  0  0  0  0  0  0
   38.8620   31.6480   47.7220 N   0  0  0  0  0  0  0  0  0  0  0  0
   38.1320   33.1850   50.4470 H   0  0  0  0  0  0  0  0  0  0  0  0
   39.3440   34.6220   48.6470 H   0  0  0  0  0  0  0  0  0  0  0  0
   39.9770   33.2440   46.2960 C   0  0  0  0  0  0  0  0  0  0  0  0
   40.6990   34.0500   46.5010 H   0  0  0  0  0  0  0  0  0  0  0  0
   39.2050   33.7130   45.6250 H   0  0  0  0  0  0  0  0  0  0  0  0
   40.5890   32.0550   45.6320 C   0  0  0  0  0  0  0  0  0  0  0  0
   41.7070   32.1590   45.8120 H   0  0  0  0  0  0  0  0  0  0  0  0
   40.3670   31.1030   46.2190 H   0  0  0  0  0  0  0  0  0  0  0  0
   40.3010   31.8590   44.2080 C   0  0  0  0  0  0  0  0  0  0  0  0
   40.5410   30.8380   43.3180 C   0  0  0  0  0  0  0  0  0  0  0  0
   41.1050   30.0190   43.7450 H   0  0  0  0  0  0  0  0  0  0  0  0
   40.1190   30.8930   42.0100 C   0  0  0  0  0  3  0  0  0  0  0  0
   39.4300   31.9730   41.5060 C   0  0  0  0  0  0  0  0  0  0  0  0
   39.1660   31.8730   40.4620 H   0  0  0  0  0  0  0  0  0  0  0  0
   39.1740   33.0160   42.3710 C   0  0  0  0  0  0  0  0  0  0  0  0
   38.6330   33.8450   41.9410 H   0  0  0  0  0  0  0  0  0  0  0  0
   39.6010   32.9530   43.6880 C   0  0  0  0  0  3  0  0  0  0  0  0
   37.6740   30.5440   49.7000 O   0  0  0  0  0  0  0  0  0  0  0  0
   34.0520   28.8910   48.3450 C   0  0  0  0  0  0  0  0  0  0  0  0
   34.7440   28.3270   49.3780 C   0  0  0  0  0  0  0  0  0  0  0  0
   35.9340   28.8120   49.8750 C   0  0  0  0  0  0  0  0  0  0  0  0
   36.4980   29.9230   49.3350 C   0  0  0  0  0  0  0  0  0  0  0  0
   35.8000   30.5090   48.2790 C   0  0  0  0  0  0  0  0  0  0  0  0
   34.6330   30.0110   47.8120 N   0  0  0  0  0  0  0  0  0  0  0  0
   34.3520   27.4370   49.8560 H   0  0  0  0  0  0  0  0  0  0  0  0
   36.4720   28.3520   50.6940 H   0  0  0  0  0  0  0  0  0  0  0  0
   36.1100   31.3990   47.7380 H   0  0  0  0  0  0  0  0  0  0  0  0
   32.0170   27.4600   48.4830 C   0  0  0  0  0  0  0  0  0  0  0  0
   32.8170   28.4010   47.8150 C   0  0  0  0  0  0  0  0  0  0  0  0
   32.3630   28.8490   46.6010 C   0  0  0  0  0  0  0  0  0  0  0  0
   31.1820   28.3780   46.0950 N   0  0  0  0  0  0  0  0  0  0  0  0
   30.4460   27.4600   46.7910 C   0  0  0  0  0  0  0  0  0  0  0  0
   30.8550   26.9910   47.9920 N   0  0  0  0  0  0  0  0  0  0  0  0
   32.3330   27.0770   49.4410 H   0  0  0  0  0  0  0  0  0  0  0  0
   32.9170   29.5810   46.0080 H   0  0  0  0  0  0  0  0  0  0  0  0
   29.5160   27.0880   46.3960 H   0  0  0  0  0  0  0  0  0  0  0  0
  1  2  1  0  0  0  0
  1 23  1  0  0  0  0
  2  6  1  0  0  0  0
  3  7  1  0  0  0  0
  3  2  2  0  0  0  0
  4  5  1  0  0  0  0
  4  3  1  0  0  0  0
  5  1  2  0  0  0  0
  8  9  1  0  0  0  0
  8  4  1  0  0  0  0
 10  8  1  0  0  0  0
 11 12  1  0  0  0  0
 11 13  1  0  0  0  0
 11  8  1  0  0  0  0
 14 11  1  0  0  0  0
 15 16  1  0  0  0  0
 15 14  2  0  0  0  0
 17 15  1  0  0  0  0
 18 17  2  0  0  0  0
 18 20  1  0  0  0  0
 19 18  1  0  0  0  0
 20 22  2  0  0  0  0
 21 20  1  0  0  0  0
 22 14  1  0  0  0  0
 24 25  1  0  0  0  0
 25 30  1  0  0  0  0
 25 26  2  0  0  0  0
 26 31  1  0  0  0  0
 27 23  1  0  0  0  0
 27 26  1  0  0  0  0
 28 27  2  0  0  0  0
 29 28  1  0  0  0  0
 29 24  2  0  0  0  0
 32 28  1  0  0  0  0
 33 39  1  0  0  0  0
 34 24  1  0  0  0  0
 34 33  2  0  0  0  0
 35 34  1  0  0  0  0
 36 35  2  0  0  0  0
 36 37  1  0  0  0  0
 37 38  2  0  0  0  0
 38 33  1  0  0  0  0
 40 35  1  0  0  0  0
 41 37  1  0  0  0  0
M  END
>  <minimizedAffinity>
-6.43093824

>  <minimizedRMSD>
1.6484462

$$$$
