
 OpenBabel03272510133D

 41 44  0  0  0  0  0  0  0  0999 V2000
   38.3590   31.6040   48.9480 C   0  0  0  0  0  0  0  0  0  0  0  0
   38.4790   32.8470   49.5200 C   0  0  0  0  0  0  0  0  0  0  0  0
   39.1160   33.6690   48.5930 C   0  0  0  0  0  0  0  0  0  0  0  0
   39.3620   32.9320   47.5150 N   0  0  0  0  0  0  0  0  0  0  0  0
   38.9160   31.7460   47.7430 N   0  0  0  0  0  0  0  0  0  0  0  0
   38.2060   33.2980   50.4650 H   0  0  0  0  0  0  0  0  0  0  0  0
   39.4020   34.7250   48.6470 H   0  0  0  0  0  0  0  0  0  0  0  0
   40.0180   33.3340   46.2990 C   0  0  0  0  0  0  0  0  0  0  0  0
   40.8000   34.0820   46.5050 H   0  0  0  0  0  0  0  0  0  0  0  0
   39.2600   33.8760   45.6680 H   0  0  0  0  0  0  0  0  0  0  0  0
   40.5270   32.1280   45.5790 C   0  0  0  0  0  0  0  0  0  0  0  0
   41.6550   32.1570   45.7160 H   0  0  0  0  0  0  0  0  0  0  0  0
   40.2670   31.1760   46.1490 H   0  0  0  0  0  0  0  0  0  0  0  0
   40.1710   31.9920   44.1640 C   0  0  0  0  0  0  0  0  0  0  0  0
   39.5360   32.8100   43.2570 C   0  0  0  0  0  0  0  0  0  0  0  0
   39.1800   33.7340   43.6900 H   0  0  0  0  0  0  0  0  0  0  0  0
   39.3590   32.4460   41.9430 C   0  0  0  0  0  3  0  0  0  0  0  0
   39.8040   31.2410   41.4490 C   0  0  0  0  0  0  0  0  0  0  0  0
   39.5920   31.0960   40.3980 H   0  0  0  0  0  0  0  0  0  0  0  0
   40.4440   30.3970   42.3300 C   0  0  0  0  0  0  0  0  0  0  0  0
   40.7790   29.4620   41.9070 H   0  0  0  0  0  0  0  0  0  0  0  0
   40.6200   30.7690   43.6540 C   0  0  0  0  0  3  0  0  0  0  0  0
   37.7450   30.6520   49.7370 O   0  0  0  0  0  0  0  0  0  0  0  0
   34.1770   28.9000   48.3630 C   0  0  0  0  0  0  0  0  0  0  0  0
   34.8520   28.3850   49.4330 C   0  0  0  0  0  0  0  0  0  0  0  0
   36.0230   28.9040   49.9380 C   0  0  0  0  0  0  0  0  0  0  0  0
   36.5860   30.0010   49.3690 C   0  0  0  0  0  0  0  0  0  0  0  0
   35.9060   30.5380   48.2760 C   0  0  0  0  0  0  0  0  0  0  0  0
   34.7560   30.0070   47.8010 N   0  0  0  0  0  0  0  0  0  0  0  0
   34.4600   27.5090   49.9350 H   0  0  0  0  0  0  0  0  0  0  0  0
   36.5470   28.4840   50.7870 H   0  0  0  0  0  0  0  0  0  0  0  0
   36.2170   31.4110   47.7080 H   0  0  0  0  0  0  0  0  0  0  0  0
   32.1550   27.4530   48.5110 C   0  0  0  0  0  0  0  0  0  0  0  0
   32.9610   28.3740   47.8240 C   0  0  0  0  0  0  0  0  0  0  0  0
   32.5340   28.7650   46.5810 C   0  0  0  0  0  0  0  0  0  0  0  0
   31.3710   28.2590   46.0660 N   0  0  0  0  0  0  0  0  0  0  0  0
   30.6270   27.3630   46.7820 C   0  0  0  0  0  0  0  0  0  0  0  0
   31.0100   26.9510   48.0120 N   0  0  0  0  0  0  0  0  0  0  0  0
   32.4500   27.1150   49.4930 H   0  0  0  0  0  0  0  0  0  0  0  0
   33.0950   29.4780   45.9710 H   0  0  0  0  0  0  0  0  0  0  0  0
   29.7120   26.9640   46.3800 H   0  0  0  0  0  0  0  0  0  0  0  0
  1  2  1  0  0  0  0
  1 23  1  0  0  0  0
  2  6  1  0  0  0  0
  3  7  1  0  0  0  0
  3  2  2  0  0  0  0
  4  5  1  0  0  0  0
  4  3  1  0  0  0  0
  5  1  2  0  0  0  0
  8  9  1  0  0  0  0
  8  4  1  0  0  0  0
 10  8  1  0  0  0  0
 11 12  1  0  0  0  0
 11 13  1  0  0  0  0
 11  8  1  0  0  0  0
 14 11  1  0  0  0  0
 15 16  1  0  0  0  0
 15 14  2  0  0  0  0
 17 15  1  0  0  0  0
 18 17  2  0  0  0  0
 18 20  1  0  0  0  0
 19 18  1  0  0  0  0
 20 22  2  0  0  0  0
 21 20  1  0  0  0  0
 22 14  1  0  0  0  0
 24 25  1  0  0  0  0
 25 30  1  0  0  0  0
 25 26  2  0  0  0  0
 26 31  1  0  0  0  0
 27 23  1  0  0  0  0
 27 26  1  0  0  0  0
 28 27  2  0  0  0  0
 29 28  1  0  0  0  0
 29 24  2  0  0  0  0
 32 28  1  0  0  0  0
 33 39  1  0  0  0  0
 34 24  1  0  0  0  0
 34 33  2  0  0  0  0
 35 34  1  0  0  0  0
 36 35  2  0  0  0  0
 36 37  1  0  0  0  0
 37 38  2  0  0  0  0
 38 33  1  0  0  0  0
 40 35  1  0  0  0  0
 41 37  1  0  0  0  0
M  END
>  <minimizedAffinity>
-6.40872669

>  <minimizedRMSD>
1.50311852

$$$$
