
 OpenBabel03272510133D

 41 44  0  0  0  0  0  0  0  0999 V2000
   38.1580   31.5200   48.9020 C   0  0  0  0  0  0  0  0  0  0  0  0
   38.4200   32.7750   49.3930 C   0  0  0  0  0  0  0  0  0  0  0  0
   39.1180   33.4680   48.4070 C   0  0  0  0  0  0  0  0  0  0  0  0
   39.2610   32.6460   47.3720 N   0  0  0  0  0  0  0  0  0  0  0  0
   38.6980   31.5290   47.6810 N   0  0  0  0  0  0  0  0  0  0  0  0
   38.2180   33.3080   50.3130 H   0  0  0  0  0  0  0  0  0  0  0  0
   39.5140   34.4890   48.3910 H   0  0  0  0  0  0  0  0  0  0  0  0
   39.9270   32.9030   46.1230 C   0  0  0  0  0  0  0  0  0  0  0  0
   40.6240   33.7500   46.2180 H   0  0  0  0  0  0  0  0  0  0  0  0
   39.1480   33.2530   45.3890 H   0  0  0  0  0  0  0  0  0  0  0  0
   40.5780   31.6520   45.6330 C   0  0  0  0  0  0  0  0  0  0  0  0
   41.6440   31.9540   45.3780 H   0  0  0  0  0  0  0  0  0  0  0  0
   40.7620   30.9270   46.4930 H   0  0  0  0  0  0  0  0  0  0  0  0
   39.9430   30.9610   44.5070 C   0  0  0  0  0  0  0  0  0  0  0  0
   39.1530   29.8400   44.3980 C   0  0  0  0  0  0  0  0  0  0  0  0
   39.0010   29.3290   45.3390 H   0  0  0  0  0  0  0  0  0  0  0  0
   38.6420   29.4180   43.1930 C   0  0  0  0  0  3  0  0  0  0  0  0
   38.8900   30.0890   42.0150 C   0  0  0  0  0  0  0  0  0  0  0  0
   38.4220   29.6380   41.1510 H   0  0  0  0  0  0  0  0  0  0  0  0
   39.6790   31.2160   42.0880 C   0  0  0  0  0  0  0  0  0  0  0  0
   39.8530   31.7150   41.1460 H   0  0  0  0  0  0  0  0  0  0  0  0
   40.1900   31.6370   43.3060 C   0  0  0  0  0  3  0  0  0  0  0  0
   37.4660   30.6870   49.7580 O   0  0  0  0  0  0  0  0  0  0  0  0
   33.9460   28.8360   48.3900 C   0  0  0  0  0  0  0  0  0  0  0  0
   34.6790   28.2970   49.4080 C   0  0  0  0  0  0  0  0  0  0  0  0
   35.8390   28.8450   49.9070 C   0  0  0  0  0  0  0  0  0  0  0  0
   36.3290   30.0000   49.3870 C   0  0  0  0  0  0  0  0  0  0  0  0
   35.5890   30.5620   48.3470 C   0  0  0  0  0  0  0  0  0  0  0  0
   34.4520   30.0000   47.8760 N   0  0  0  0  0  0  0  0  0  0  0  0
   34.3470   27.3750   49.8690 H   0  0  0  0  0  0  0  0  0  0  0  0
   36.4100   28.4050   50.7150 H   0  0  0  0  0  0  0  0  0  0  0  0
   35.8380   31.4800   47.8220 H   0  0  0  0  0  0  0  0  0  0  0  0
   31.9240   27.3930   48.5760 C   0  0  0  0  0  0  0  0  0  0  0  0
   32.7400   28.2800   47.8570 C   0  0  0  0  0  0  0  0  0  0  0  0
   32.3350   28.6050   46.5880 C   0  0  0  0  0  0  0  0  0  0  0  0
   31.1830   28.0710   46.0790 N   0  0  0  0  0  0  0  0  0  0  0  0
   30.4270   27.2110   46.8270 C   0  0  0  0  0  0  0  0  0  0  0  0
   30.7890   26.8630   48.0830 N   0  0  0  0  0  0  0  0  0  0  0  0
   32.2020   27.1060   49.5790 H   0  0  0  0  0  0  0  0  0  0  0  0
   32.9060   29.2870   45.9530 H   0  0  0  0  0  0  0  0  0  0  0  0
   29.5200   26.7890   46.4300 H   0  0  0  0  0  0  0  0  0  0  0  0
  1  2  1  0  0  0  0
  1 23  1  0  0  0  0
  2  6  1  0  0  0  0
  3  2  2  0  0  0  0
  4  5  1  0  0  0  0
  4  3  1  0  0  0  0
  5  1  2  0  0  0  0
  7  3  1  0  0  0  0
  8  9  1  0  0  0  0
  8  4  1  0  0  0  0
 10  8  1  0  0  0  0
 11  8  1  0  0  0  0
 11 13  1  0  0  0  0
 12 11  1  0  0  0  0
 14 11  1  0  0  0  0
 15 14  1  0  0  0  0
 15 16  1  0  0  0  0
 17 15  2  0  0  0  0
 18 20  2  0  0  0  0
 18 17  1  0  0  0  0
 19 18  1  0  0  0  0
 20 22  1  0  0  0  0
 21 20  1  0  0  0  0
 22 14  2  0  0  0  0
 24 25  1  0  0  0  0
 25 30  1  0  0  0  0
 25 26  2  0  0  0  0
 26 31  1  0  0  0  0
 27 23  1  0  0  0  0
 27 26  1  0  0  0  0
 28 27  2  0  0  0  0
 29 28  1  0  0  0  0
 29 24  2  0  0  0  0
 32 28  1  0  0  0  0
 33 39  1  0  0  0  0
 34 24  1  0  0  0  0
 34 33  2  0  0  0  0
 35 34  1  0  0  0  0
 36 35  2  0  0  0  0
 36 37  1  0  0  0  0
 37 38  2  0  0  0  0
 38 33  1  0  0  0  0
 40 35  1  0  0  0  0
 41 37  1  0  0  0  0
M  END
>  <minimizedAffinity>
-6.25817251

>  <minimizedRMSD>
0.846901953

$$$$
