
 OpenBabel03262521363D

 37 40  0  0  1  0  0  0  0  0999 V2000
   37.4740   25.2330   32.0640 C   0  0  1  0  0  0  0  0  0  0  0  0
   37.4010   26.2160   33.1510 C   0  0  2  0  0  0  0  0  0  0  0  0
   37.8460   27.5290   32.4870 C   0  0  0  0  0  0  0  0  0  0  0  0
   38.8550   27.0970   31.6810 O   0  0  0  0  0  0  0  0  0  0  0  0
   38.5640   25.8540   31.1780 C   0  0  0  0  0  0  0  0  0  0  0  0
   36.5200   25.2080   31.5130 H   0  0  0  0  0  0  0  0  0  0  0  0
   36.3370   26.4020   33.4320 H   0  0  0  0  0  0  0  0  0  0  0  0
   37.0020   28.0090   31.9600 H   0  0  0  0  0  0  0  0  0  0  0  0
   38.2790   28.1650   33.2870 H   0  0  0  0  0  0  0  0  0  0  0  0
   38.1900   25.9300   30.1330 H   0  0  0  0  0  0  0  0  0  0  0  0
   39.4340   25.1760   31.1470 H   0  0  0  0  0  0  0  0  0  0  0  0
   37.5960   25.4810   35.6470 C   0  0  1  0  0  0  0  0  0  0  0  0
   37.9200   26.8820   35.5380 C   0  0  0  0  0  0  0  0  0  0  0  0
   38.2690   25.9500   34.3590 C   0  0  2  0  0  0  0  0  0  0  0  0
   36.5670   25.1170   35.4270 H   0  0  0  0  0  0  0  0  0  0  0  0
   38.7800   27.2460   36.1590 H   0  0  0  0  0  0  0  0  0  0  0  0
   37.1390   27.6400   35.4100 H   0  0  0  0  0  0  0  0  0  0  0  0
   39.3320   25.7360   34.1950 H   0  0  0  0  0  0  0  0  0  0  0  0
   38.8850   23.3040   38.4040 C   0  0  0  0  0  0  0  0  0  0  0  0
   38.0830   24.2000   37.7110 C   0  0  0  0  0  0  0  0  0  0  0  0
   38.4210   24.5230   36.4090 C   0  0  0  0  0  0  0  0  0  0  0  0
   39.5440   23.9350   35.8710 N   0  0  0  0  0  0  0  0  0  0  0  0
   40.3160   23.0650   36.5590 C   0  0  0  0  0  0  0  0  0  0  0  0
   39.9850   22.7410   37.8490 N   0  0  0  0  0  0  0  0  0  0  0  0
   38.6050   23.0620   39.4220 H   0  0  0  0  0  0  0  0  0  0  0  0
   37.2100   24.6880   38.0960 H   0  0  0  0  0  0  0  0  0  0  0  0
   41.1740   22.6700   36.0250 H   0  0  0  0  0  0  0  0  0  0  0  0
   37.8670   23.9550   32.4330 O   0  0  0  0  0  0  0  0  0  0  0  0
   37.0110   22.8640   32.5730 C   0  0  0  0  0  0  0  0  0  0  0  0
   37.0620   22.0070   33.6530 C   0  0  0  0  0  0  0  0  0  0  0  0
   37.7980   22.1560   34.4410 H   0  0  0  0  0  0  0  0  0  0  0  0
   36.2480   20.9150   33.8540 C   0  0  0  0  0  3  0  0  0  0  0  0
   35.2980   20.6200   32.9340 C   0  0  0  0  0  0  0  0  0  0  0  0
   34.6540   19.7740   33.0720 H   0  0  0  0  0  0  0  0  0  0  0  0
   35.1890   21.4330   31.8270 C   0  0  0  0  0  0  0  0  0  0  0  0
   34.4220   21.1680   31.1140 H   0  0  0  0  0  0  0  0  0  0  0  0
   36.0250   22.5040   31.6790 C   0  0  0  0  0  3  0  0  0  0  0  0
  1  6  1  6  0  0  0
  1 28  1  0  0  0  0
  1  2  1  0  0  0  0
  2  7  1  1  0  0  0
  2 14  1  0  0  0  0
  3  2  1  0  0  0  0
  3  9  1  0  0  0  0
  4  3  1  0  0  0  0
  5  4  1  0  0  0  0
  5  1  1  0  0  0  0
  8  3  1  0  0  0  0
 10  5  1  0  0  0  0
 11  5  1  0  0  0  0
 12 15  1  6  0  0  0
 12 21  1  0  0  0  0
 13 12  1  0  0  0  0
 13 16  1  0  0  0  0
 14 18  1  6  0  0  0
 14 13  1  0  0  0  0
 14 12  1  0  0  0  0
 17 13  1  0  0  0  0
 19 25  1  0  0  0  0
 20 26  1  0  0  0  0
 20 19  2  0  0  0  0
 21 20  1  0  0  0  0
 22 21  2  0  0  0  0
 22 23  1  0  0  0  0
 23 24  2  0  0  0  0
 24 19  1  0  0  0  0
 27 23  1  0  0  0  0
 28 29  1  0  0  0  0
 29 30  1  0  0  0  0
 30 32  2  0  0  0  0
 30 31  1  0  0  0  0
 33 34  1  0  0  0  0
 33 32  1  0  0  0  0
 35 33  2  0  0  0  0
 36 35  1  0  0  0  0
 37 35  1  0  0  0  0
 37 29  2  0  0  0  0
M  END
>  <minimizedAffinity>
-5.363132

$$$$

 OpenBabel03262521363D

 37 40  0  0  1  0  0  0  0  0999 V2000
   37.6310   25.1550   32.0620 C   0  0  1  0  0  0  0  0  0  0  0  0
   37.5300   26.1880   33.0990 C   0  0  2  0  0  0  0  0  0  0  0  0
   38.0510   27.4570   32.4040 C   0  0  0  0  0  0  0  0  0  0  0  0
   39.0890   26.9600   31.6760 O   0  0  0  0  0  0  0  0  0  0  0  0
   38.7870   25.7040   31.2120 C   0  0  0  0  0  0  0  0  0  0  0  0
   36.7080   25.1330   31.4600 H   0  0  0  0  0  0  0  0  0  0  0  0
   36.4580   26.4170   33.3120 H   0  0  0  0  0  0  0  0  0  0  0  0
   37.2520   27.9360   31.8100 H   0  0  0  0  0  0  0  0  0  0  0  0
   38.4590   28.1150   33.1990 H   0  0  0  0  0  0  0  0  0  0  0  0
   38.4730   25.7440   30.1450 H   0  0  0  0  0  0  0  0  0  0  0  0
   39.6350   25.0010   31.2590 H   0  0  0  0  0  0  0  0  0  0  0  0
   37.5830   25.4350   35.5960 C   0  0  1  0  0  0  0  0  0  0  0  0
   37.8420   26.8520   35.5230 C   0  0  0  0  0  0  0  0  0  0  0  0
   38.3220   25.9530   34.3640 C   0  0  2  0  0  0  0  0  0  0  0  0
   36.5930   25.0220   35.3010 H   0  0  0  0  0  0  0  0  0  0  0  0
   38.6350   27.2520   36.2060 H   0  0  0  0  0  0  0  0  0  0  0  0
   37.0340   27.5710   35.3450 H   0  0  0  0  0  0  0  0  0  0  0  0
   39.4030   25.7950   34.2750 H   0  0  0  0  0  0  0  0  0  0  0  0
   40.2340   23.0060   36.6320 C   0  0  0  0  0  0  0  0  0  0  0  0
   39.4920   23.8750   35.8450 C   0  0  0  0  0  0  0  0  0  0  0  0
   38.4000   24.5120   36.4090 C   0  0  0  0  0  0  0  0  0  0  0  0
   38.1090   24.2440   37.7280 N   0  0  0  0  0  0  0  0  0  0  0  0
   38.8410   23.3940   38.4800 C   0  0  0  0  0  0  0  0  0  0  0  0
   39.9240   22.7610   37.9280 N   0  0  0  0  0  0  0  0  0  0  0  0
   41.0850   22.5160   36.1750 H   0  0  0  0  0  0  0  0  0  0  0  0
   39.6770   24.1020   34.8140 H   0  0  0  0  0  0  0  0  0  0  0  0
   38.5100   23.2660   39.5060 H   0  0  0  0  0  0  0  0  0  0  0  0
   37.9640   23.8850   32.5080 O   0  0  0  0  0  0  0  0  0  0  0  0
   37.0730   22.8190   32.6230 C   0  0  0  0  0  0  0  0  0  0  0  0
   36.1100   22.5430   31.6740 C   0  0  0  0  0  0  0  0  0  0  0  0
   36.0100   23.1720   30.7910 H   0  0  0  0  0  0  0  0  0  0  0  0
   35.2020   21.5090   31.7250 C   0  0  0  0  0  3  0  0  0  0  0  0
   35.2210   20.6630   32.7840 C   0  0  0  0  0  0  0  0  0  0  0  0
   34.5220   19.8530   32.8420 H   0  0  0  0  0  0  0  0  0  0  0  0
   36.1560   20.8790   33.7730 C   0  0  0  0  0  0  0  0  0  0  0  0
   36.1430   20.1870   34.6020 H   0  0  0  0  0  0  0  0  0  0  0  0
   37.0330   21.9220   33.6700 C   0  0  0  0  0  3  0  0  0  0  0  0
  1  6  1  6  0  0  0
  1 28  1  0  0  0  0
  1  2  1  0  0  0  0
  2  7  1  1  0  0  0
  2 14  1  0  0  0  0
  3  2  1  0  0  0  0
  3  9  1  0  0  0  0
  4  3  1  0  0  0  0
  5 11  1  0  0  0  0
  5  4  1  0  0  0  0
  5  1  1  0  0  0  0
  8  3  1  0  0  0  0
 10  5  1  0  0  0  0
 12 15  1  6  0  0  0
 12 21  1  0  0  0  0
 13 12  1  0  0  0  0
 13 16  1  0  0  0  0
 14 18  1  6  0  0  0
 14 13  1  0  0  0  0
 14 12  1  0  0  0  0
 17 13  1  0  0  0  0
 19 24  1  0  0  0  0
 20 21  1  0  0  0  0
 20 19  2  0  0  0  0
 21 22  2  0  0  0  0
 22 23  1  0  0  0  0
 23 27  1  0  0  0  0
 24 23  2  0  0  0  0
 25 19  1  0  0  0  0
 26 20  1  0  0  0  0
 28 29  1  0  0  0  0
 29 37  1  0  0  0  0
 30 32  1  0  0  0  0
 30 29  2  0  0  0  0
 31 30  1  0  0  0  0
 32 33  2  0  0  0  0
 33 34  1  0  0  0  0
 33 35  1  0  0  0  0
 35 36  1  0  0  0  0
 37 35  2  0  0  0  0
M  END
>  <minimizedAffinity>
-5.24374294

$$$$

 OpenBabel03262521363D

 37 40  0  0  1  0  0  0  0  0999 V2000
   38.3980   23.2640   34.9110 C   0  0  1  0  0  0  0  0  0  0  0  0
   38.6850   24.4200   35.7680 C   0  0  2  0  0  0  0  0  0  0  0  0
   38.4890   23.8770   37.1930 C   0  0  0  0  0  0  0  0  0  0  0  0
   37.3970   23.0790   37.0310 O   0  0  0  0  0  0  0  0  0  0  0  0
   37.4290   22.4710   35.8010 C   0  0  0  0  0  0  0  0  0  0  0  0
   39.3160   22.6770   34.7490 H   0  0  0  0  0  0  0  0  0  0  0  0
   39.7710   24.6730   35.7220 H   0  0  0  0  0  0  0  0  0  0  0  0
   39.3980   23.3560   37.5430 H   0  0  0  0  0  0  0  0  0  0  0  0
   38.2070   24.7400   37.8310 H   0  0  0  0  0  0  0  0  0  0  0  0
   37.7870   21.4210   35.8910 H   0  0  0  0  0  0  0  0  0  0  0  0
   36.4440   22.4210   35.3080 H   0  0  0  0  0  0  0  0  0  0  0  0
   38.2880   26.7310   34.6230 C   0  0  1  0  0  0  0  0  0  0  0  0
   38.5100   26.9320   36.0330 C   0  0  0  0  0  0  0  0  0  0  0  0
   37.8090   25.6360   35.5740 C   0  0  2  0  0  0  0  0  0  0  0  0
   39.1000   26.3380   33.9700 H   0  0  0  0  0  0  0  0  0  0  0  0
   37.8640   27.6980   36.5370 H   0  0  0  0  0  0  0  0  0  0  0  0
   39.5150   26.8740   36.4670 H   0  0  0  0  0  0  0  0  0  0  0  0
   36.7400   25.5440   35.8000 H   0  0  0  0  0  0  0  0  0  0  0  0
   35.8500   27.6060   31.9220 C   0  0  0  0  0  0  0  0  0  0  0  0
   36.8900   26.9760   32.5920 C   0  0  0  0  0  0  0  0  0  0  0  0
   37.1820   27.3730   33.8850 C   0  0  0  0  0  0  0  0  0  0  0  0
   36.4210   28.3780   34.4380 N   0  0  0  0  0  0  0  0  0  0  0  0
   35.4130   28.9830   33.7720 C   0  0  0  0  0  0  0  0  0  0  0  0
   35.1180   28.5940   32.4910 N   0  0  0  0  0  0  0  0  0  0  0  0
   35.6350   27.2830   30.9110 H   0  0  0  0  0  0  0  0  0  0  0  0
   37.5130   26.2000   32.1950 H   0  0  0  0  0  0  0  0  0  0  0  0
   34.8870   29.7610   34.3150 H   0  0  0  0  0  0  0  0  0  0  0  0
   37.7710   23.5480   33.7070 O   0  0  0  0  0  0  0  0  0  0  0  0
   37.3620   22.5950   32.7750 C   0  0  0  0  0  0  0  0  0  0  0  0
   36.1460   22.6580   32.1250 C   0  0  0  0  0  0  0  0  0  0  0  0
   35.4500   23.4670   32.3360 H   0  0  0  0  0  0  0  0  0  0  0  0
   35.6820   21.7550   31.1950 C   0  0  0  0  0  3  0  0  0  0  0  0
   36.4570   20.6940   30.8590 C   0  0  0  0  0  0  0  0  0  0  0  0
   36.1140   19.9800   30.1370 H   0  0  0  0  0  0  0  0  0  0  0  0
   37.6860   20.5660   31.4690 C   0  0  0  0  0  0  0  0  0  0  0  0
   38.2770   19.7100   31.1780 H   0  0  0  0  0  0  0  0  0  0  0  0
   38.0950   21.4940   32.3860 C   0  0  0  0  0  3  0  0  0  0  0  0
  1  6  1  6  0  0  0
  1  2  1  0  0  0  0
  1  5  1  0  0  0  0
  2  7  1  6  0  0  0
  2  3  1  0  0  0  0
  3  8  1  0  0  0  0
  3  9  1  0  0  0  0
  4  3  1  0  0  0  0
  5 10  1  0  0  0  0
  5  4  1  0  0  0  0
 11  5  1  0  0  0  0
 12 15  1  6  0  0  0
 12 14  1  0  0  0  0
 12 13  1  0  0  0  0
 13 17  1  0  0  0  0
 13 16  1  0  0  0  0
 14  2  1  0  0  0  0
 14 18  1  1  0  0  0
 14 13  1  0  0  0  0
 19 24  2  0  0  0  0
 19 20  1  0  0  0  0
 20 21  2  0  0  0  0
 21 22  1  0  0  0  0
 21 12  1  0  0  0  0
 23 27  1  0  0  0  0
 23 22  2  0  0  0  0
 24 23  1  0  0  0  0
 25 19  1  0  0  0  0
 26 20  1  0  0  0  0
 28  1  1  0  0  0  0
 29 28  1  0  0  0  0
 30 31  1  0  0  0  0
 30 29  2  0  0  0  0
 32 30  1  0  0  0  0
 33 32  2  0  0  0  0
 33 35  1  0  0  0  0
 34 33  1  0  0  0  0
 35 37  2  0  0  0  0
 36 35  1  0  0  0  0
 37 29  1  0  0  0  0
M  END
>  <minimizedAffinity>
-5.17204666

$$$$

 OpenBabel03262521363D

 37 40  0  0  1  0  0  0  0  0999 V2000
   38.0560   26.3050   34.6890 C   0  0  1  0  0  0  0  0  0  0  0  0
   38.2420   26.1170   33.2460 C   0  0  2  0  0  0  0  0  0  0  0  0
   37.8570   27.4780   32.6450 C   0  0  0  0  0  0  0  0  0  0  0  0
   36.7860   27.8200   33.4140 O   0  0  0  0  0  0  0  0  0  0  0  0
   36.9710   27.3930   34.7050 C   0  0  0  0  0  0  0  0  0  0  0  0
   38.9800   26.7000   35.1410 H   0  0  0  0  0  0  0  0  0  0  0  0
   39.3280   26.0140   33.0080 H   0  0  0  0  0  0  0  0  0  0  0  0
   38.7070   28.1830   32.6910 H   0  0  0  0  0  0  0  0  0  0  0  0
   37.5040   27.2860   31.6110 H   0  0  0  0  0  0  0  0  0  0  0  0
   37.3020   28.2340   35.3540 H   0  0  0  0  0  0  0  0  0  0  0  0
   36.0570   26.9850   35.1690 H   0  0  0  0  0  0  0  0  0  0  0  0
   38.0220   23.6390   32.4580 C   0  0  1  0  0  0  0  0  0  0  0  0
   38.0680   24.5020   31.3030 C   0  0  0  0  0  0  0  0  0  0  0  0
   37.4130   25.0330   32.5950 C   0  0  2  0  0  0  0  0  0  0  0  0
   38.9030   23.5410   33.1300 H   0  0  0  0  0  0  0  0  0  0  0  0
   37.3750   24.2480   30.4600 H   0  0  0  0  0  0  0  0  0  0  0  0
   39.0110   24.9430   30.9580 H   0  0  0  0  0  0  0  0  0  0  0  0
   36.3240   25.1530   32.5860 H   0  0  0  0  0  0  0  0  0  0  0  0
   36.0480   20.8000   33.8880 C   0  0  0  0  0  0  0  0  0  0  0  0
   36.9910   21.8120   33.7770 C   0  0  0  0  0  0  0  0  0  0  0  0
   37.0240   22.5620   32.6140 C   0  0  0  0  0  0  0  0  0  0  0  0
   36.1140   22.2580   31.6260 N   0  0  0  0  0  0  0  0  0  0  0  0
   35.2030   21.2690   31.7490 C   0  0  0  0  0  0  0  0  0  0  0  0
   35.1640   20.5230   32.8990 N   0  0  0  0  0  0  0  0  0  0  0  0
   36.0360   20.2240   34.8050 H   0  0  0  0  0  0  0  0  0  0  0  0
   37.7220   22.0720   34.5150 H   0  0  0  0  0  0  0  0  0  0  0  0
   34.5410   21.1270   30.9010 H   0  0  0  0  0  0  0  0  0  0  0  0
   37.5950   25.2000   35.3860 O   0  0  0  0  0  0  0  0  0  0  0  0
   38.3730   24.4000   36.2220 C   0  0  0  0  0  0  0  0  0  0  0  0
   39.5350   23.7870   35.8000 C   0  0  0  0  0  0  0  0  0  0  0  0
   39.8810   23.9060   34.7750 H   0  0  0  0  0  0  0  0  0  0  0  0
   40.3500   22.9890   36.5710 C   0  0  0  0  0  3  0  0  0  0  0  0
   40.0170   22.7560   37.8650 C   0  0  0  0  0  0  0  0  0  0  0  0
   40.6380   22.1370   38.4810 H   0  0  0  0  0  0  0  0  0  0  0  0
   38.8670   23.3360   38.3550 C   0  0  0  0  0  0  0  0  0  0  0  0
   38.6320   23.1300   39.3890 H   0  0  0  0  0  0  0  0  0  0  0  0
   38.0960   24.1200   37.5440 C   0  0  0  0  0  3  0  0  0  0  0  0
  1  5  1  0  0  0  0
  1  6  1  1  0  0  0
  1 28  1  0  0  0  0
  2  7  1  6  0  0  0
  2  1  1  0  0  0  0
  3  8  1  0  0  0  0
  3  2  1  0  0  0  0
  3  4  1  0  0  0  0
  4  5  1  0  0  0  0
  5 11  1  0  0  0  0
  5 10  1  0  0  0  0
  9  3  1  0  0  0  0
 12 14  1  0  0  0  0
 12 21  1  0  0  0  0
 12 15  1  1  0  0  0
 13 12  1  0  0  0  0
 13 14  1  0  0  0  0
 14 18  1  1  0  0  0
 14  2  1  0  0  0  0
 16 13  1  0  0  0  0
 17 13  1  0  0  0  0
 19 25  1  0  0  0  0
 20 19  1  0  0  0  0
 20 26  1  0  0  0  0
 21 20  2  0  0  0  0
 22 23  2  0  0  0  0
 22 21  1  0  0  0  0
 23 24  1  0  0  0  0
 24 19  2  0  0  0  0
 27 23  1  0  0  0  0
 28 29  1  0  0  0  0
 29 37  1  0  0  0  0
 30 29  2  0  0  0  0
 30 32  1  0  0  0  0
 31 30  1  0  0  0  0
 32 33  2  0  0  0  0
 33 35  1  0  0  0  0
 33 34  1  0  0  0  0
 35 36  1  0  0  0  0
 37 35  2  0  0  0  0
M  END
>  <minimizedAffinity>
-5.10541868

$$$$

 OpenBabel03262521363D

 37 40  0  0  1  0  0  0  0  0999 V2000
   37.7610   25.4610   34.1010 C   0  0  1  0  0  0  0  0  0  0  0  0
   38.7370   26.5370   33.8940 C   0  0  2  0  0  0  0  0  0  0  0  0
   38.2030   27.2830   32.6610 C   0  0  0  0  0  0  0  0  0  0  0  0
   37.7680   26.2510   31.8860 O   0  0  0  0  0  0  0  0  0  0  0  0
   37.2410   25.2560   32.6700 C   0  0  0  0  0  0  0  0  0  0  0  0
   36.9400   25.8150   34.7440 H   0  0  0  0  0  0  0  0  0  0  0  0
   38.6640   27.2870   34.7160 H   0  0  0  0  0  0  0  0  0  0  0  0
   37.4220   28.0100   32.9490 H   0  0  0  0  0  0  0  0  0  0  0  0
   39.0770   27.7550   32.1650 H   0  0  0  0  0  0  0  0  0  0  0  0
   36.1290   25.3040   32.6710 H   0  0  0  0  0  0  0  0  0  0  0  0
   37.5060   24.2400   32.3310 H   0  0  0  0  0  0  0  0  0  0  0  0
   41.1710   26.2300   34.7800 C   0  0  1  0  0  0  0  0  0  0  0  0
   41.1540   27.2840   33.7960 C   0  0  0  0  0  0  0  0  0  0  0  0
   40.1640   26.1110   33.6380 C   0  0  2  0  0  0  0  0  0  0  0  0
   40.6360   26.3470   35.7490 H   0  0  0  0  0  0  0  0  0  0  0  0
   42.0140   27.3120   33.0780 H   0  0  0  0  0  0  0  0  0  0  0  0
   40.7700   28.2820   34.0360 H   0  0  0  0  0  0  0  0  0  0  0  0
   40.3550   25.4090   32.8180 H   0  0  0  0  0  0  0  0  0  0  0  0
   43.0180   23.0980   33.8940 C   0  0  0  0  0  0  0  0  0  0  0  0
   42.0660   24.1070   33.8660 C   0  0  0  0  0  0  0  0  0  0  0  0
   42.1730   25.1450   34.7750 C   0  0  0  0  0  0  0  0  0  0  0  0
   43.2250   25.1160   35.6640 N   0  0  0  0  0  0  0  0  0  0  0  0
   44.1430   24.1250   35.6790 C   0  0  0  0  0  0  0  0  0  0  0  0
   44.0420   23.0960   34.7810 N   0  0  0  0  0  0  0  0  0  0  0  0
   42.9190   22.2940   33.1750 H   0  0  0  0  0  0  0  0  0  0  0  0
   41.2280   24.1610   33.2010 H   0  0  0  0  0  0  0  0  0  0  0  0
   44.9240   24.2160   36.4270 H   0  0  0  0  0  0  0  0  0  0  0  0
   38.2760   24.2620   34.5680 O   0  0  0  0  0  0  0  0  0  0  0  0
   38.5040   23.9590   35.9100 C   0  0  0  0  0  0  0  0  0  0  0  0
   37.7420   24.4810   36.9350 C   0  0  0  0  0  0  0  0  0  0  0  0
   36.9270   25.1690   36.7200 H   0  0  0  0  0  0  0  0  0  0  0  0
   37.9110   24.2220   38.2760 C   0  0  0  0  0  3  0  0  0  0  0  0
   38.9040   23.3870   38.6700 C   0  0  0  0  0  0  0  0  0  0  0  0
   39.0520   23.1730   39.7090 H   0  0  0  0  0  0  0  0  0  0  0  0
   39.7070   22.8280   37.6990 C   0  0  0  0  0  0  0  0  0  0  0  0
   40.4870   22.1680   38.0470 H   0  0  0  0  0  0  0  0  0  0  0  0
   39.4930   23.1210   36.3810 C   0  0  0  0  0  3  0  0  0  0  0  0
  1 28  1  0  0  0  0
  1  6  1  1  0  0  0
  2  1  1  0  0  0  0
  2  7  1  1  0  0  0
  3  8  1  0  0  0  0
  3  2  1  0  0  0  0
  4  3  1  0  0  0  0
  4  5  1  0  0  0  0
  5 10  1  0  0  0  0
  5  1  1  0  0  0  0
  9  3  1  0  0  0  0
 11  5  1  0  0  0  0
 12 15  1  1  0  0  0
 13 17  1  0  0  0  0
 13 12  1  0  0  0  0
 14 18  1  6  0  0  0
 14 13  1  0  0  0  0
 14  2  1  0  0  0  0
 14 12  1  0  0  0  0
 16 13  1  0  0  0  0
 19 24  1  0  0  0  0
 20 19  2  0  0  0  0
 20 21  1  0  0  0  0
 21 12  1  0  0  0  0
 21 22  2  0  0  0  0
 22 23  1  0  0  0  0
 23 27  1  0  0  0  0
 24 23  2  0  0  0  0
 25 19  1  0  0  0  0
 26 20  1  0  0  0  0
 28 29  1  0  0  0  0
 29 37  2  0  0  0  0
 29 30  1  0  0  0  0
 30 32  2  0  0  0  0
 31 30  1  0  0  0  0
 32 33  1  0  0  0  0
 33 34  1  0  0  0  0
 35 36  1  0  0  0  0
 35 33  2  0  0  0  0
 37 35  1  0  0  0  0
M  END
>  <minimizedAffinity>
-4.97065735

$$$$

 OpenBabel03262521363D

 37 40  0  0  1  0  0  0  0  0999 V2000
   36.7610   27.6190   31.6170 C   0  0  1  0  0  0  0  0  0  0  0  0
   36.3400   28.7560   30.7920 C   0  0  2  0  0  0  0  0  0  0  0  0
   37.3840   28.7970   29.6640 C   0  0  0  0  0  0  0  0  0  0  0  0
   38.5280   28.5060   30.3440 O   0  0  0  0  0  0  0  0  0  0  0  0
   38.2720   27.5980   31.3400 C   0  0  0  0  0  0  0  0  0  0  0  0
   36.3040   26.6900   31.2410 H   0  0  0  0  0  0  0  0  0  0  0  0
   35.3850   28.5190   30.2660 H   0  0  0  0  0  0  0  0  0  0  0  0
   37.1250   28.0840   28.8620 H   0  0  0  0  0  0  0  0  0  0  0  0
   37.4380   29.8490   29.3130 H   0  0  0  0  0  0  0  0  0  0  0  0
   38.5760   26.5750   31.0270 H   0  0  0  0  0  0  0  0  0  0  0  0
   38.8140   27.8080   32.2780 H   0  0  0  0  0  0  0  0  0  0  0  0
   35.1570   30.3770   32.4600 C   0  0  1  0  0  0  0  0  0  0  0  0
   35.0110   30.8880   31.1190 C   0  0  0  0  0  0  0  0  0  0  0  0
   36.2920   30.1040   31.4750 C   0  0  2  0  0  0  0  0  0  0  0  0
   34.6750   29.4200   32.7600 H   0  0  0  0  0  0  0  0  0  0  0  0
   35.1230   31.9960   30.9900 H   0  0  0  0  0  0  0  0  0  0  0  0
   34.2920   30.4500   30.4170 H   0  0  0  0  0  0  0  0  0  0  0  0
   37.2220   30.6800   31.5460 H   0  0  0  0  0  0  0  0  0  0  0  0
   35.9630   31.5250   35.9290 C   0  0  0  0  0  0  0  0  0  0  0  0
   35.5720   30.7040   34.8810 C   0  0  0  0  0  0  0  0  0  0  0  0
   35.5770   31.2200   33.5970 C   0  0  0  0  0  0  0  0  0  0  0  0
   35.9710   32.5290   33.4310 N   0  0  0  0  0  0  0  0  0  0  0  0
   36.3470   33.3160   34.4630 C   0  0  0  0  0  0  0  0  0  0  0  0
   36.3460   32.8100   35.7360 N   0  0  0  0  0  0  0  0  0  0  0  0
   35.9540   31.1040   36.9270 H   0  0  0  0  0  0  0  0  0  0  0  0
   35.2490   29.6860   34.9680 H   0  0  0  0  0  0  0  0  0  0  0  0
   36.6360   34.3300   34.2040 H   0  0  0  0  0  0  0  0  0  0  0  0
   36.5560   27.7560   32.9810 O   0  0  0  0  0  0  0  0  0  0  0  0
   37.2190   27.0260   33.9670 C   0  0  0  0  0  0  0  0  0  0  0  0
   37.7360   27.6070   35.1070 C   0  0  0  0  0  0  0  0  0  0  0  0
   37.6470   28.6790   35.2680 H   0  0  0  0  0  0  0  0  0  0  0  0
   38.3980   26.9470   36.1170 C   0  0  0  0  0  3  0  0  0  0  0  0
   38.5820   25.6060   36.0240 C   0  0  0  0  0  0  0  0  0  0  0  0
   39.0950   25.0740   36.8000 H   0  0  0  0  0  0  0  0  0  0  0  0
   38.0920   24.9590   34.9100 C   0  0  0  0  0  0  0  0  0  0  0  0
   38.2560   23.8920   34.8680 H   0  0  0  0  0  0  0  0  0  0  0  0
   37.4420   25.6660   33.9380 C   0  0  0  0  0  3  0  0  0  0  0  0
  1  6  1  6  0  0  0
  1 28  1  0  0  0  0
  2  7  1  6  0  0  0
  2 14  1  0  0  0  0
  2  1  1  0  0  0  0
  3  4  1  0  0  0  0
  3  2  1  0  0  0  0
  4  5  1  0  0  0  0
  5  1  1  0  0  0  0
  5 11  1  0  0  0  0
  8  3  1  0  0  0  0
  9  3  1  0  0  0  0
 10  5  1  0  0  0  0
 12 15  1  1  0  0  0
 12 21  1  0  0  0  0
 13 14  1  0  0  0  0
 13 12  1  0  0  0  0
 14 18  1  1  0  0  0
 14 12  1  0  0  0  0
 16 13  1  0  0  0  0
 17 13  1  0  0  0  0
 19 25  1  0  0  0  0
 20 26  1  0  0  0  0
 20 19  2  0  0  0  0
 21 20  1  0  0  0  0
 22 21  2  0  0  0  0
 22 23  1  0  0  0  0
 23 24  2  0  0  0  0
 24 19  1  0  0  0  0
 27 23  1  0  0  0  0
 28 29  1  0  0  0  0
 29 30  1  0  0  0  0
 30 31  1  0  0  0  0
 30 32  2  0  0  0  0
 33 32  1  0  0  0  0
 33 34  1  0  0  0  0
 35 33  2  0  0  0  0
 36 35  1  0  0  0  0
 37 29  2  0  0  0  0
 37 35  1  0  0  0  0
M  END
>  <minimizedAffinity>
-4.96369076

$$$$

 OpenBabel03262521363D

 37 40  0  0  1  0  0  0  0  0999 V2000
   37.5300   23.2320   32.7320 C   0  0  1  0  0  0  0  0  0  0  0  0
   36.2900   23.5250   32.0040 C   0  0  2  0  0  0  0  0  0  0  0  0
   36.0120   22.2340   31.2180 C   0  0  0  0  0  0  0  0  0  0  0  0
   37.2670   21.8810   30.8250 O   0  0  0  0  0  0  0  0  0  0  0  0
   38.1790   22.1960   31.8010 C   0  0  0  0  0  0  0  0  0  0  0  0
   37.2960   22.7620   33.7010 H   0  0  0  0  0  0  0  0  0  0  0  0
   35.4330   23.5980   32.7160 H   0  0  0  0  0  0  0  0  0  0  0  0
   35.4960   21.4910   31.8520 H   0  0  0  0  0  0  0  0  0  0  0  0
   35.4270   22.5230   30.3200 H   0  0  0  0  0  0  0  0  0  0  0  0
   38.4530   21.2920   32.3900 H   0  0  0  0  0  0  0  0  0  0  0  0
   39.1230   22.6060   31.4060 H   0  0  0  0  0  0  0  0  0  0  0  0
   35.8830   26.0620   31.5500 C   0  0  1  0  0  0  0  0  0  0  0  0
   34.9300   25.2870   30.7950 C   0  0  0  0  0  0  0  0  0  0  0  0
   36.3320   24.6920   31.0450 C   0  0  2  0  0  0  0  0  0  0  0  0
   35.8580   26.0680   32.6620 H   0  0  0  0  0  0  0  0  0  0  0  0
   34.7130   25.6360   29.7520 H   0  0  0  0  0  0  0  0  0  0  0  0
   34.0590   24.8280   31.2780 H   0  0  0  0  0  0  0  0  0  0  0  0
   37.0030   24.6270   30.1810 H   0  0  0  0  0  0  0  0  0  0  0  0
   38.6570   28.0190   29.9740 C   0  0  0  0  0  0  0  0  0  0  0  0
   37.9500   26.9530   30.5140 C   0  0  0  0  0  0  0  0  0  0  0  0
   36.6590   27.1720   30.9610 C   0  0  0  0  0  0  0  0  0  0  0  0
   36.1450   28.4440   30.8460 N   0  0  0  0  0  0  0  0  0  0  0  0
   36.8460   29.4720   30.3200 C   0  0  0  0  0  0  0  0  0  0  0  0
   38.1250   29.2610   29.8740 N   0  0  0  0  0  0  0  0  0  0  0  0
   39.6650   27.8300   29.6290 H   0  0  0  0  0  0  0  0  0  0  0  0
   38.3170   25.9530   30.6320 H   0  0  0  0  0  0  0  0  0  0  0  0
   36.3310   30.4270   30.2840 H   0  0  0  0  0  0  0  0  0  0  0  0
   38.4000   24.2980   32.8930 O   0  0  0  0  0  0  0  0  0  0  0  0
   38.4330   25.1430   34.0020 C   0  0  0  0  0  0  0  0  0  0  0  0
   38.1010   24.7210   35.2740 C   0  0  0  0  0  0  0  0  0  0  0  0
   37.7870   23.6940   35.4490 H   0  0  0  0  0  0  0  0  0  0  0  0
   38.1140   25.4990   36.4090 C   0  0  0  0  0  3  0  0  0  0  0  0
   38.4770   26.8020   36.3150 C   0  0  0  0  0  0  0  0  0  0  0  0
   38.4920   27.4240   37.1870 H   0  0  0  0  0  0  0  0  0  0  0  0
   38.8200   27.2940   35.0750 C   0  0  0  0  0  0  0  0  0  0  0  0
   39.1040   28.3350   35.0360 H   0  0  0  0  0  0  0  0  0  0  0  0
   38.7900   26.4750   33.9810 C   0  0  0  0  0  3  0  0  0  0  0  0
  1 28  1  0  0  0  0
  1  6  1  1  0  0  0
  2  7  1  1  0  0  0
  2  1  1  0  0  0  0
  3  8  1  0  0  0  0
  3  2  1  0  0  0  0
  4  3  1  0  0  0  0
  4  5  1  0  0  0  0
  5 10  1  0  0  0  0
  5  1  1  0  0  0  0
  9  3  1  0  0  0  0
 11  5  1  0  0  0  0
 12 15  1  1  0  0  0
 13 14  1  0  0  0  0
 13 17  1  0  0  0  0
 13 12  1  0  0  0  0
 14 18  1  6  0  0  0
 14 12  1  0  0  0  0
 14  2  1  0  0  0  0
 16 13  1  0  0  0  0
 19 20  1  0  0  0  0
 20 26  1  0  0  0  0
 20 21  2  0  0  0  0
 21 12  1  0  0  0  0
 22 21  1  0  0  0  0
 23 22  2  0  0  0  0
 24 19  2  0  0  0  0
 24 23  1  0  0  0  0
 25 19  1  0  0  0  0
 27 23  1  0  0  0  0
 28 29  1  0  0  0  0
 29 30  1  0  0  0  0
 30 31  1  0  0  0  0
 30 32  2  0  0  0  0
 33 32  1  0  0  0  0
 33 34  1  0  0  0  0
 35 33  2  0  0  0  0
 36 35  1  0  0  0  0
 37 29  2  0  0  0  0
 37 35  1  0  0  0  0
M  END
>  <minimizedAffinity>
-4.90633869

$$$$

 OpenBabel03262521363D

 37 40  0  0  1  0  0  0  0  0999 V2000
   37.3530   24.7720   31.8160 C   0  0  1  0  0  0  0  0  0  0  0  0
   37.8510   23.3980   31.9390 C   0  0  2  0  0  0  0  0  0  0  0  0
   36.8470   22.5700   31.1210 C   0  0  0  0  0  0  0  0  0  0  0  0
   35.6700   23.1710   31.4480 O   0  0  0  0  0  0  0  0  0  0  0  0
   35.8520   24.5230   31.6010 C   0  0  0  0  0  0  0  0  0  0  0  0
   37.7790   25.2500   30.9190 H   0  0  0  0  0  0  0  0  0  0  0  0
   38.8120   23.2850   31.3810 H   0  0  0  0  0  0  0  0  0  0  0  0
   37.1000   22.5940   30.0460 H   0  0  0  0  0  0  0  0  0  0  0  0
   36.8520   21.5450   31.5480 H   0  0  0  0  0  0  0  0  0  0  0  0
   35.5130   25.0710   30.6940 H   0  0  0  0  0  0  0  0  0  0  0  0
   35.2900   24.9500   32.4490 H   0  0  0  0  0  0  0  0  0  0  0  0
   39.2420   23.0150   34.1130 C   0  0  1  0  0  0  0  0  0  0  0  0
   39.0260   21.7480   33.4590 C   0  0  0  0  0  0  0  0  0  0  0  0
   37.9380   22.8360   33.3390 C   0  0  2  0  0  0  0  0  0  0  0  0
   39.8630   23.8040   33.6340 H   0  0  0  0  0  0  0  0  0  0  0  0
   38.7900   20.8760   34.1220 H   0  0  0  0  0  0  0  0  0  0  0  0
   39.5980   21.4610   32.5690 H   0  0  0  0  0  0  0  0  0  0  0  0
   37.0030   22.6630   33.8850 H   0  0  0  0  0  0  0  0  0  0  0  0
   39.6820   22.8860   37.8270 C   0  0  0  0  0  0  0  0  0  0  0  0
   39.9180   22.6860   36.4740 C   0  0  0  0  0  0  0  0  0  0  0  0
   39.0260   23.2180   35.5590 C   0  0  0  0  0  0  0  0  0  0  0  0
   37.9450   23.9180   36.0460 N   0  0  0  0  0  0  0  0  0  0  0  0
   37.7280   24.1030   37.3670 C   0  0  0  0  0  0  0  0  0  0  0  0
   38.6090   23.5800   38.2780 N   0  0  0  0  0  0  0  0  0  0  0  0
   40.3900   22.4640   38.5280 H   0  0  0  0  0  0  0  0  0  0  0  0
   40.7380   22.1390   36.0550 H   0  0  0  0  0  0  0  0  0  0  0  0
   36.8410   24.6730   37.6250 H   0  0  0  0  0  0  0  0  0  0  0  0
   37.5200   25.5760   32.9330 O   0  0  0  0  0  0  0  0  0  0  0  0
   37.0170   26.8690   33.0700 C   0  0  0  0  0  0  0  0  0  0  0  0
   36.8920   27.7400   32.0060 C   0  0  0  0  0  0  0  0  0  0  0  0
   37.2000   27.4370   31.0070 H   0  0  0  0  0  0  0  0  0  0  0  0
   36.4030   29.0250   32.0710 C   0  0  0  0  0  3  0  0  0  0  0  0
   35.9980   29.5200   33.2660 C   0  0  0  0  0  0  0  0  0  0  0  0
   35.6150   30.5180   33.3370 H   0  0  0  0  0  0  0  0  0  0  0  0
   36.0940   28.7060   34.3740 C   0  0  0  0  0  0  0  0  0  0  0  0
   35.7630   29.1320   35.3100 H   0  0  0  0  0  0  0  0  0  0  0  0
   36.5880   27.4380   34.2510 C   0  0  0  0  0  3  0  0  0  0  0  0
  1  6  1  6  0  0  0
  1  2  1  0  0  0  0
  1 28  1  0  0  0  0
  2  7  1  6  0  0  0
  2 14  1  0  0  0  0
  3  4  1  0  0  0  0
  3  9  1  0  0  0  0
  3  2  1  0  0  0  0
  4  5  1  0  0  0  0
  5  1  1  0  0  0  0
  5 11  1  0  0  0  0
  8  3  1  0  0  0  0
 10  5  1  0  0  0  0
 12 15  1  6  0  0  0
 12 21  1  0  0  0  0
 13 12  1  0  0  0  0
 13 16  1  0  0  0  0
 14 13  1  0  0  0  0
 14 18  1  1  0  0  0
 14 12  1  0  0  0  0
 17 13  1  0  0  0  0
 19 24  1  0  0  0  0
 19 25  1  0  0  0  0
 20 19  2  0  0  0  0
 21 22  2  0  0  0  0
 21 20  1  0  0  0  0
 22 23  1  0  0  0  0
 23 27  1  0  0  0  0
 23 24  2  0  0  0  0
 26 20  1  0  0  0  0
 28 29  1  0  0  0  0
 29 37  1  0  0  0  0
 30 32  1  0  0  0  0
 30 29  2  0  0  0  0
 31 30  1  0  0  0  0
 32 33  2  0  0  0  0
 33 34  1  0  0  0  0
 33 35  1  0  0  0  0
 35 36  1  0  0  0  0
 37 35  2  0  0  0  0
M  END
>  <minimizedAffinity>
-4.90586138

$$$$

 OpenBabel03262521363D

 37 40  0  0  1  0  0  0  0  0999 V2000
   36.5270   26.4230   32.1400 C   0  0  1  0  0  0  0  0  0  0  0  0
   36.7040   27.2530   33.3360 C   0  0  2  0  0  0  0  0  0  0  0  0
   36.4260   28.6800   32.8370 C   0  0  0  0  0  0  0  0  0  0  0  0
   37.0260   28.6600   31.6140 O   0  0  0  0  0  0  0  0  0  0  0  0
   36.8780   27.4270   31.0310 C   0  0  0  0  0  0  0  0  0  0  0  0
   35.4720   26.1210   32.0430 H   0  0  0  0  0  0  0  0  0  0  0  0
   35.8820   27.0580   34.0660 H   0  0  0  0  0  0  0  0  0  0  0  0
   35.3420   28.8870   32.8210 H   0  0  0  0  0  0  0  0  0  0  0  0
   36.9930   29.3690   33.4980 H   0  0  0  0  0  0  0  0  0  0  0  0
   36.0600   27.4440   30.2760 H   0  0  0  0  0  0  0  0  0  0  0  0
   37.7800   27.0790   30.5010 H   0  0  0  0  0  0  0  0  0  0  0  0
   38.3110   26.1750   35.0860 C   0  0  1  0  0  0  0  0  0  0  0  0
   37.9920   27.5180   35.5010 C   0  0  0  0  0  0  0  0  0  0  0  0
   38.0650   27.2100   33.9900 C   0  0  2  0  0  0  0  0  0  0  0  0
   37.5250   25.3880   35.0490 H   0  0  0  0  0  0  0  0  0  0  0  0
   38.8320   28.1240   35.9290 H   0  0  0  0  0  0  0  0  0  0  0  0
   37.0230   27.7600   35.9520 H   0  0  0  0  0  0  0  0  0  0  0  0
   38.9160   27.6300   33.4400 H   0  0  0  0  0  0  0  0  0  0  0  0
   42.0190   25.9180   34.6470 C   0  0  0  0  0  0  0  0  0  0  0  0
   40.7360   26.4480   34.6550 C   0  0  0  0  0  0  0  0  0  0  0  0
   39.6900   25.6460   35.0750 C   0  0  0  0  0  0  0  0  0  0  0  0
   39.9820   24.3570   35.4620 N   0  0  0  0  0  0  0  0  0  0  0  0
   41.2360   23.8560   35.4470 C   0  0  0  0  0  0  0  0  0  0  0  0
   42.2770   24.6460   35.0330 N   0  0  0  0  0  0  0  0  0  0  0  0
   42.8260   26.5600   34.3160 H   0  0  0  0  0  0  0  0  0  0  0  0
   40.4650   27.4390   34.3510 H   0  0  0  0  0  0  0  0  0  0  0  0
   41.3380   22.8260   35.7760 H   0  0  0  0  0  0  0  0  0  0  0  0
   37.3690   25.3270   32.0370 O   0  0  0  0  0  0  0  0  0  0  0  0
   36.9800   24.0000   32.2190 C   0  0  0  0  0  0  0  0  0  0  0  0
   35.9110   23.4360   31.5530 C   0  0  0  0  0  0  0  0  0  0  0  0
   35.3200   24.0280   30.8570 H   0  0  0  0  0  0  0  0  0  0  0  0
   35.4760   22.1370   31.6830 C   0  0  0  0  0  3  0  0  0  0  0  0
   36.1260   21.3030   32.5320 C   0  0  0  0  0  0  0  0  0  0  0  0
   35.8030   20.2880   32.6480 H   0  0  0  0  0  0  0  0  0  0  0  0
   37.2050   21.7980   33.2330 C   0  0  0  0  0  0  0  0  0  0  0  0
   37.6990   21.1080   33.8990 H   0  0  0  0  0  0  0  0  0  0  0  0
   37.5920   23.0980   33.0630 C   0  0  0  0  0  3  0  0  0  0  0  0
  1  6  1  6  0  0  0
  1  2  1  0  0  0  0
  2 14  1  0  0  0  0
  2  7  1  1  0  0  0
  3  2  1  0  0  0  0
  3  9  1  0  0  0  0
  4  3  1  0  0  0  0
  5  4  1  0  0  0  0
  5  1  1  0  0  0  0
  8  3  1  0  0  0  0
 10  5  1  0  0  0  0
 11  5  1  0  0  0  0
 12 15  1  1  0  0  0
 12 13  1  0  0  0  0
 13 16  1  0  0  0  0
 13 17  1  0  0  0  0
 14 18  1  6  0  0  0
 14 12  1  0  0  0  0
 14 13  1  0  0  0  0
 19 20  2  0  0  0  0
 19 24  1  0  0  0  0
 20 21  1  0  0  0  0
 21 12  1  0  0  0  0
 21 22  2  0  0  0  0
 23 22  1  0  0  0  0
 23 27  1  0  0  0  0
 24 23  2  0  0  0  0
 25 19  1  0  0  0  0
 26 20  1  0  0  0  0
 28  1  1  0  0  0  0
 28 29  1  0  0  0  0
 29 37  1  0  0  0  0
 30 32  1  0  0  0  0
 30 29  2  0  0  0  0
 31 30  1  0  0  0  0
 32 33  2  0  0  0  0
 33 34  1  0  0  0  0
 33 35  1  0  0  0  0
 35 36  1  0  0  0  0
 37 35  2  0  0  0  0
M  END
>  <minimizedAffinity>
-4.8666482

$$$$
