
 OpenBabel03272510133D

 41 44  0  0  0  0  0  0  0  0999 V2000
   38.4190   31.5010   48.8640 C   0  0  0  0  0  0  0  0  0  0  0  0
   38.4810   32.7180   49.4980 C   0  0  0  0  0  0  0  0  0  0  0  0
   39.0670   33.6170   48.6100 C   0  0  0  0  0  0  0  0  0  0  0  0
   39.3410   32.9480   47.4940 N   0  0  0  0  0  0  0  0  0  0  0  0
   38.9580   31.7300   47.6650 N   0  0  0  0  0  0  0  0  0  0  0  0
   38.1940   33.1060   50.4660 H   0  0  0  0  0  0  0  0  0  0  0  0
   39.3000   34.6820   48.7150 H   0  0  0  0  0  0  0  0  0  0  0  0
   39.9650   33.4430   46.2960 C   0  0  0  0  0  0  0  0  0  0  0  0
   40.6390   34.2840   46.5250 H   0  0  0  0  0  0  0  0  0  0  0  0
   39.1570   33.8890   45.6520 H   0  0  0  0  0  0  0  0  0  0  0  0
   40.6400   32.3210   45.5790 C   0  0  0  0  0  0  0  0  0  0  0  0
   41.7520   32.5510   45.6480 H   0  0  0  0  0  0  0  0  0  0  0  0
   40.5850   31.3590   46.1880 H   0  0  0  0  0  0  0  0  0  0  0  0
   40.2400   32.0730   44.1910 C   0  0  0  0  0  0  0  0  0  0  0  0
   39.5830   32.8210   43.2400 C   0  0  0  0  0  0  0  0  0  0  0  0
   39.2470   33.7810   43.6070 H   0  0  0  0  0  0  0  0  0  0  0  0
   39.3610   32.3530   41.9660 C   0  0  0  0  0  3  0  0  0  0  0  0
   39.7830   31.1070   41.5580 C   0  0  0  0  0  0  0  0  0  0  0  0
   39.5370   30.8790   40.5300 H   0  0  0  0  0  0  0  0  0  0  0  0
   40.4440   30.3310   42.4860 C   0  0  0  0  0  0  0  0  0  0  0  0
   40.7570   29.3620   42.1310 H   0  0  0  0  0  0  0  0  0  0  0  0
   40.6640   30.8080   43.7690 C   0  0  0  0  0  3  0  0  0  0  0  0
   37.8610   30.4800   49.6080 O   0  0  0  0  0  0  0  0  0  0  0  0
   34.1640   28.8960   48.3790 C   0  0  0  0  0  0  0  0  0  0  0  0
   34.8230   28.3930   49.4640 C   0  0  0  0  0  0  0  0  0  0  0  0
   36.0340   28.8600   49.9240 C   0  0  0  0  0  0  0  0  0  0  0  0
   36.6560   29.8880   49.2910 C   0  0  0  0  0  0  0  0  0  0  0  0
   35.9930   30.4110   48.1810 C   0  0  0  0  0  0  0  0  0  0  0  0
   34.8030   29.9320   47.7510 N   0  0  0  0  0  0  0  0  0  0  0  0
   34.3850   27.5720   50.0160 H   0  0  0  0  0  0  0  0  0  0  0  0
   36.5450   28.4500   50.7860 H   0  0  0  0  0  0  0  0  0  0  0  0
   36.3490   31.2320   47.5650 H   0  0  0  0  0  0  0  0  0  0  0  0
   32.0360   27.6280   48.6470 C   0  0  0  0  0  0  0  0  0  0  0  0
   32.9070   28.4230   47.8850 C   0  0  0  0  0  0  0  0  0  0  0  0
   32.5040   28.7410   46.6130 C   0  0  0  0  0  0  0  0  0  0  0  0
   31.3020   28.2860   46.1420 N   0  0  0  0  0  0  0  0  0  0  0  0
   30.4950   27.5140   46.9310 C   0  0  0  0  0  0  0  0  0  0  0  0
   30.8530   27.1770   48.1910 N   0  0  0  0  0  0  0  0  0  0  0  0
   32.3100   27.3510   49.6530 H   0  0  0  0  0  0  0  0  0  0  0  0
   33.1150   29.3540   45.9470 H   0  0  0  0  0  0  0  0  0  0  0  0
   29.5490   27.1550   46.5640 H   0  0  0  0  0  0  0  0  0  0  0  0
  1  2  1  0  0  0  0
  1 23  1  0  0  0  0
  2  6  1  0  0  0  0
  3  7  1  0  0  0  0
  3  2  2  0  0  0  0
  4  5  1  0  0  0  0
  4  3  1  0  0  0  0
  5  1  2  0  0  0  0
  8  9  1  0  0  0  0
  8  4  1  0  0  0  0
 10  8  1  0  0  0  0
 11 12  1  0  0  0  0
 11 13  1  0  0  0  0
 11  8  1  0  0  0  0
 14 11  1  0  0  0  0
 15 16  1  0  0  0  0
 15 14  2  0  0  0  0
 17 15  1  0  0  0  0
 18 17  2  0  0  0  0
 18 20  1  0  0  0  0
 19 18  1  0  0  0  0
 20 22  2  0  0  0  0
 21 20  1  0  0  0  0
 22 14  1  0  0  0  0
 24 25  1  0  0  0  0
 25 26  2  0  0  0  0
 25 30  1  0  0  0  0
 26 31  1  0  0  0  0
 27 23  1  0  0  0  0
 27 26  1  0  0  0  0
 28 27  2  0  0  0  0
 29 28  1  0  0  0  0
 29 24  2  0  0  0  0
 32 28  1  0  0  0  0
 33 39  1  0  0  0  0
 34 24  1  0  0  0  0
 34 33  2  0  0  0  0
 35 34  1  0  0  0  0
 36 35  2  0  0  0  0
 36 37  1  0  0  0  0
 37 38  2  0  0  0  0
 38 33  1  0  0  0  0
 40 35  1  0  0  0  0
 41 37  1  0  0  0  0
M  END
>  <minimizedAffinity>
-6.41485023

>  <minimizedRMSD>
1.45514953

$$$$
