
 OpenBabel03272510143D

 41 44  0  0  0  0  0  0  0  0999 V2000
   38.3350   31.6210   48.8810 C   0  0  0  0  0  0  0  0  0  0  0  0
   38.5280   32.8760   49.4060 C   0  0  0  0  0  0  0  0  0  0  0  0
   39.1850   33.6330   48.4380 C   0  0  0  0  0  0  0  0  0  0  0  0
   39.3720   32.8470   47.3820 N   0  0  0  0  0  0  0  0  0  0  0  0
   38.8720   31.6930   47.6610 N   0  0  0  0  0  0  0  0  0  0  0  0
   38.2990   33.3720   50.3400 H   0  0  0  0  0  0  0  0  0  0  0  0
   39.5240   34.6740   48.4490 H   0  0  0  0  0  0  0  0  0  0  0  0
   40.0200   33.1740   46.1400 C   0  0  0  0  0  0  0  0  0  0  0  0
   40.7560   33.9800   46.2830 H   0  0  0  0  0  0  0  0  0  0  0  0
   39.2420   33.6140   45.4560 H   0  0  0  0  0  0  0  0  0  0  0  0
   40.6030   31.9390   45.5360 C   0  0  0  0  0  0  0  0  0  0  0  0
   41.7120   32.1630   45.4170 H   0  0  0  0  0  0  0  0  0  0  0  0
   40.6380   31.0920   46.2990 H   0  0  0  0  0  0  0  0  0  0  0  0
   40.0230   31.4690   44.2750 C   0  0  0  0  0  0  0  0  0  0  0  0
   39.9240   32.0050   43.0110 C   0  0  0  0  0  0  0  0  0  0  0  0
   40.3190   33.0100   42.9400 H   0  0  0  0  0  0  0  0  0  0  0  0
   39.3480   31.3190   41.9680 C   0  0  0  0  0  3  0  0  0  0  0  0
   38.8310   30.0520   42.1190 C   0  0  0  0  0  0  0  0  0  0  0  0
   38.4110   29.6410   41.2120 H   0  0  0  0  0  0  0  0  0  0  0  0
   38.9120   29.4850   43.3730 C   0  0  0  0  0  0  0  0  0  0  0  0
   38.4960   28.4920   43.4540 H   0  0  0  0  0  0  0  0  0  0  0  0
   39.4950   30.1810   44.4210 C   0  0  0  0  0  3  0  0  0  0  0  0
   37.6920   30.7290   49.7150 O   0  0  0  0  0  0  0  0  0  0  0  0
   34.1490   28.9020   48.3740 C   0  0  0  0  0  0  0  0  0  0  0  0
   34.8760   28.3690   49.4000 C   0  0  0  0  0  0  0  0  0  0  0  0
   36.0430   28.9100   49.8910 C   0  0  0  0  0  0  0  0  0  0  0  0
   36.5460   30.0510   49.3540 C   0  0  0  0  0  0  0  0  0  0  0  0
   35.8130   30.6060   48.3050 C   0  0  0  0  0  0  0  0  0  0  0  0
   34.6700   30.0520   47.8420 N   0  0  0  0  0  0  0  0  0  0  0  0
   34.5320   27.4580   49.8750 H   0  0  0  0  0  0  0  0  0  0  0  0
   36.6080   28.4750   50.7060 H   0  0  0  0  0  0  0  0  0  0  0  0
   36.0750   31.5130   47.7660 H   0  0  0  0  0  0  0  0  0  0  0  0
   32.1290   27.4560   48.5660 C   0  0  0  0  0  0  0  0  0  0  0  0
   32.9370   28.3520   47.8490 C   0  0  0  0  0  0  0  0  0  0  0  0
   32.5160   28.6950   46.5890 C   0  0  0  0  0  0  0  0  0  0  0  0
   31.3570   28.1670   46.0880 N   0  0  0  0  0  0  0  0  0  0  0  0
   30.6110   27.2970   46.8350 C   0  0  0  0  0  0  0  0  0  0  0  0
   30.9880   26.9330   48.0810 N   0  0  0  0  0  0  0  0  0  0  0  0
   32.4200   27.1570   49.5620 H   0  0  0  0  0  0  0  0  0  0  0  0
   33.0790   29.3850   45.9560 H   0  0  0  0  0  0  0  0  0  0  0  0
   29.6980   26.8810   46.4430 H   0  0  0  0  0  0  0  0  0  0  0  0
  1  2  1  0  0  0  0
  1 23  1  0  0  0  0
  2  6  1  0  0  0  0
  3  7  1  0  0  0  0
  3  2  2  0  0  0  0
  4  5  1  0  0  0  0
  4  3  1  0  0  0  0
  5  1  2  0  0  0  0
  8  9  1  0  0  0  0
  8  4  1  0  0  0  0
 10  8  1  0  0  0  0
 11  8  1  0  0  0  0
 11 13  1  0  0  0  0
 12 11  1  0  0  0  0
 14 22  1  0  0  0  0
 14 11  1  0  0  0  0
 15 14  2  0  0  0  0
 16 15  1  0  0  0  0
 17 18  2  0  0  0  0
 17 15  1  0  0  0  0
 18 20  1  0  0  0  0
 19 18  1  0  0  0  0
 20 21  1  0  0  0  0
 20 22  2  0  0  0  0
 24 25  1  0  0  0  0
 25 30  1  0  0  0  0
 25 26  2  0  0  0  0
 26 31  1  0  0  0  0
 27 23  1  0  0  0  0
 27 26  1  0  0  0  0
 28 27  2  0  0  0  0
 29 28  1  0  0  0  0
 29 24  2  0  0  0  0
 32 28  1  0  0  0  0
 33 39  1  0  0  0  0
 34 24  1  0  0  0  0
 34 33  2  0  0  0  0
 35 34  1  0  0  0  0
 36 35  2  0  0  0  0
 36 37  1  0  0  0  0
 37 38  2  0  0  0  0
 38 33  1  0  0  0  0
 40 35  1  0  0  0  0
 41 37  1  0  0  0  0
M  END
>  <minimizedAffinity>
-6.25257111

>  <minimizedRMSD>
1.20783341

$$$$
