
 OpenBabel03272510133D

 41 44  0  0  0  0  0  0  0  0999 V2000
   38.3420   31.6210   48.8840 C   0  0  0  0  0  0  0  0  0  0  0  0
   38.5300   32.8780   49.4050 C   0  0  0  0  0  0  0  0  0  0  0  0
   39.1820   33.6350   48.4340 C   0  0  0  0  0  0  0  0  0  0  0  0
   39.3700   32.8470   47.3790 N   0  0  0  0  0  0  0  0  0  0  0  0
   38.8770   31.6910   47.6630 N   0  0  0  0  0  0  0  0  0  0  0  0
   38.3000   33.3750   50.3370 H   0  0  0  0  0  0  0  0  0  0  0  0
   39.5160   34.6780   48.4410 H   0  0  0  0  0  0  0  0  0  0  0  0
   40.0150   33.1730   46.1350 C   0  0  0  0  0  0  0  0  0  0  0  0
   40.7490   33.9820   46.2750 H   0  0  0  0  0  0  0  0  0  0  0  0
   39.2340   33.6080   45.4520 H   0  0  0  0  0  0  0  0  0  0  0  0
   40.6010   31.9380   45.5340 C   0  0  0  0  0  0  0  0  0  0  0  0
   41.7090   32.1660   45.4120 H   0  0  0  0  0  0  0  0  0  0  0  0
   40.6410   31.0940   46.2980 H   0  0  0  0  0  0  0  0  0  0  0  0
   40.0210   31.4640   44.2740 C   0  0  0  0  0  0  0  0  0  0  0  0
   39.9230   31.9950   43.0090 C   0  0  0  0  0  0  0  0  0  0  0  0
   40.3200   32.9980   42.9330 H   0  0  0  0  0  0  0  0  0  0  0  0
   39.3460   31.3060   41.9680 C   0  0  0  0  0  3  0  0  0  0  0  0
   38.8240   30.0400   42.1250 C   0  0  0  0  0  0  0  0  0  0  0  0
   38.4050   29.6270   41.2190 H   0  0  0  0  0  0  0  0  0  0  0  0
   38.9040   29.4800   43.3810 C   0  0  0  0  0  0  0  0  0  0  0  0
   38.4860   28.4870   43.4660 H   0  0  0  0  0  0  0  0  0  0  0  0
   39.4880   30.1790   44.4260 C   0  0  0  0  0  3  0  0  0  0  0  0
   37.7040   30.7280   49.7220 O   0  0  0  0  0  0  0  0  0  0  0  0
   34.1560   28.8970   48.4010 C   0  0  0  0  0  0  0  0  0  0  0  0
   34.8880   28.3660   49.4240 C   0  0  0  0  0  0  0  0  0  0  0  0
   36.0570   28.9080   49.9090 C   0  0  0  0  0  0  0  0  0  0  0  0
   36.5570   30.0490   49.3680 C   0  0  0  0  0  0  0  0  0  0  0  0
   35.8190   30.6020   48.3220 C   0  0  0  0  0  0  0  0  0  0  0  0
   34.6730   30.0470   47.8660 N   0  0  0  0  0  0  0  0  0  0  0  0
   34.5470   27.4550   49.9020 H   0  0  0  0  0  0  0  0  0  0  0  0
   36.6270   28.4740   50.7210 H   0  0  0  0  0  0  0  0  0  0  0  0
   36.0770   31.5090   47.7810 H   0  0  0  0  0  0  0  0  0  0  0  0
   32.0210   27.6440   48.6750 C   0  0  0  0  0  0  0  0  0  0  0  0
   32.9410   28.3470   47.8830 C   0  0  0  0  0  0  0  0  0  0  0  0
   32.6310   28.4930   46.5550 C   0  0  0  0  0  0  0  0  0  0  0  0
   31.4700   27.9640   46.0610 N   0  0  0  0  0  0  0  0  0  0  0  0
   30.6110   27.2880   46.8820 C   0  0  0  0  0  0  0  0  0  0  0  0
   30.8760   27.1210   48.1980 N   0  0  0  0  0  0  0  0  0  0  0  0
   32.2210   27.5020   49.7270 H   0  0  0  0  0  0  0  0  0  0  0  0
   33.2870   29.0240   45.8610 H   0  0  0  0  0  0  0  0  0  0  0  0
   29.6960   26.8710   46.4970 H   0  0  0  0  0  0  0  0  0  0  0  0
  1  2  1  0  0  0  0
  1 23  1  0  0  0  0
  2  6  1  0  0  0  0
  3  7  1  0  0  0  0
  3  2  2  0  0  0  0
  4  5  1  0  0  0  0
  4  3  1  0  0  0  0
  5  1  2  0  0  0  0
  8  9  1  0  0  0  0
  8  4  1  0  0  0  0
 10  8  1  0  0  0  0
 11  8  1  0  0  0  0
 11 13  1  0  0  0  0
 12 11  1  0  0  0  0
 14 22  1  0  0  0  0
 14 11  1  0  0  0  0
 15 14  2  0  0  0  0
 16 15  1  0  0  0  0
 17 18  2  0  0  0  0
 17 15  1  0  0  0  0
 18 20  1  0  0  0  0
 19 18  1  0  0  0  0
 20 21  1  0  0  0  0
 20 22  2  0  0  0  0
 24 25  1  0  0  0  0
 25 30  1  0  0  0  0
 25 26  2  0  0  0  0
 26 31  1  0  0  0  0
 27 23  1  0  0  0  0
 27 26  1  0  0  0  0
 28 27  2  0  0  0  0
 29 28  1  0  0  0  0
 29 24  2  0  0  0  0
 32 28  1  0  0  0  0
 33 39  1  0  0  0  0
 34 24  1  0  0  0  0
 34 33  2  0  0  0  0
 35 34  1  0  0  0  0
 36 35  2  0  0  0  0
 36 37  1  0  0  0  0
 37 38  2  0  0  0  0
 38 33  1  0  0  0  0
 40 35  1  0  0  0  0
 41 37  1  0  0  0  0
M  END
>  <minimizedAffinity>
-6.25635433

>  <minimizedRMSD>
1.18769383

$$$$
