
 OpenBabel03272505493D

 40 44  0  0  0  0  0  0  0  0999 V2000
   35.8500   29.3990   33.1770 C   0  0  0  0  0  0  0  0  0  0  0  0
   36.1690   29.8760   31.9510 C   0  0  0  0  0  0  0  0  0  0  0  0
   36.9480   29.1210   31.0860 C   0  0  0  0  0  0  0  0  0  0  0  0
   37.3830   27.8770   31.5170 C   0  0  0  0  0  0  0  0  0  0  0  0
   37.0550   27.3850   32.7790 C   0  0  0  0  0  0  0  0  0  0  0  0
   36.2880   28.1800   33.5740 N   0  0  0  0  0  0  0  0  0  0  0  0
   35.8360   30.8430   31.6070 H   0  0  0  0  0  0  0  0  0  0  0  0
   37.2250   29.4680   30.0970 H   0  0  0  0  0  0  0  0  0  0  0  0
   37.9950   27.2130   30.9150 H   0  0  0  0  0  0  0  0  0  0  0  0
   35.0000   30.2090   34.1330 C   0  0  0  0  0  0  0  0  0  0  0  0
   35.6700   30.8760   35.2720 C   0  0  0  0  0  0  0  0  0  0  0  0
   35.1550   31.6900   34.1230 C   0  0  0  0  0  0  0  0  0  0  0  0
   35.0550   30.9090   36.2160 H   0  0  0  0  0  0  0  0  0  0  0  0
   36.7370   30.7860   35.4870 H   0  0  0  0  0  0  0  0  0  0  0  0
   34.2510   32.3230   34.2650 H   0  0  0  0  0  0  0  0  0  0  0  0
   35.9500   32.0990   33.4520 H   0  0  0  0  0  0  0  0  0  0  0  0
   31.7040   28.8360   33.2090 C   0  0  0  0  0  0  0  0  0  0  0  0
   31.0880   28.6420   34.4510 C   0  0  0  0  0  0  0  0  0  0  0  0
   31.8080   28.9840   35.6080 C   0  0  0  0  0  0  0  0  0  0  0  0
   33.0510   29.4800   35.4500 N   0  0  0  0  0  0  0  0  0  0  0  0
   33.6310   29.6610   34.2410 C   0  0  0  0  0  0  0  0  0  0  0  0
   32.9540   29.3370   33.1140 N   0  0  0  0  0  0  0  0  0  0  0  0
   31.1160   28.5600   32.3430 H   0  0  0  0  0  0  0  0  0  0  0  0
   30.1100   28.2540   34.6170 H   0  0  0  0  0  0  0  0  0  0  0  0
   31.4600   28.8880   36.6160 H   0  0  0  0  0  0  0  0  0  0  0  0
   37.4850   26.0880   33.2780 C   0  0  0  0  0  0  0  0  0  0  0  0
   37.7160   24.9150   32.6280 N   0  0  0  0  0  0  0  0  0  0  0  0
   38.1040   23.9950   33.5560 C   0  0  0  0  0  0  0  0  0  0  0  0
   38.1160   24.5880   34.7700 N   0  0  0  0  0  0  0  0  0  0  0  0
   37.7420   25.8490   34.5940 N   0  0  0  0  0  0  0  0  0  0  0  0
   38.3750   22.9540   33.4440 H   0  0  0  0  0  0  0  0  0  0  0  0
   38.4260   24.1480   36.0750 C   0  0  0  0  0  0  0  0  0  0  0  0
   39.4490   23.2570   36.3550 C   0  0  0  0  0  0  0  0  0  0  0  0
   40.0510   22.8680   35.5450 H   0  0  0  0  0  0  0  0  0  0  0  0
   39.7360   22.8390   37.6390 C   0  0  0  0  0  3  0  0  0  0  0  0
   38.9640   23.3330   38.6970 C   0  0  0  0  0  0  0  0  0  0  0  0
   39.1590   23.0290   39.7160 H   0  0  0  0  0  0  0  0  0  0  0  0
   37.9540   24.2190   38.3800 C   0  0  0  0  0  0  0  0  0  0  0  0
   37.3750   24.5800   39.2440 H   0  0  0  0  0  0  0  0  0  0  0  0
   37.6380   24.6590   37.1120 C   0  0  0  0  0  3  0  0  0  0  0  0
  1  6  1  0  0  0  0
  1 10  1  0  0  0  0
  2  1  2  0  0  0  0
  3  4  2  0  0  0  0
  3  2  1  0  0  0  0
  4  5  1  0  0  0  0
  5 26  1  0  0  0  0
  5  6  2  0  0  0  0
  7  2  1  0  0  0  0
  8  3  1  0  0  0  0
  9  4  1  0  0  0  0
 10 21  1  0  0  0  0
 10 11  1  0  0  0  0
 11 14  1  0  0  0  0
 11 13  1  0  0  0  0
 12 10  1  0  0  0  0
 12 15  1  0  0  0  0
 12 11  1  0  0  0  0
 16 12  1  0  0  0  0
 17 18  1  0  0  0  0
 18 24  1  0  0  0  0
 18 19  2  0  0  0  0
 19 25  1  0  0  0  0
 20 19  1  0  0  0  0
 21 20  2  0  0  0  0
 22 17  2  0  0  0  0
 22 21  1  0  0  0  0
 23 17  1  0  0  0  0
 26 30  2  0  0  0  0
 27 26  1  0  0  0  0
 27 28  2  0  0  0  0
 28 29  1  0  0  0  0
 29 32  1  0  0  0  0
 30 29  1  0  0  0  0
 31 28  1  0  0  0  0
 32 33  2  0  0  0  0
 32 40  1  0  0  0  0
 33 35  1  0  0  0  0
 34 33  1  0  0  0  0
 35 36  2  0  0  0  0
 36 37  1  0  0  0  0
 38 36  1  0  0  0  0
 38 39  1  0  0  0  0
 40 38  2  0  0  0  0
M  END
>  <minimizedAffinity>
-6.58732176

$$$$

 OpenBabel03272505493D

 40 44  0  0  0  0  0  0  0  0999 V2000
   38.6150   25.3170   33.7180 C   0  0  0  0  0  0  0  0  0  0  0  0
   38.1800   24.3120   32.9220 C   0  0  0  0  0  0  0  0  0  0  0  0
   37.0850   24.5010   32.0890 C   0  0  0  0  0  0  0  0  0  0  0  0
   36.4610   25.7390   32.1030 C   0  0  0  0  0  0  0  0  0  0  0  0
   36.9090   26.7750   32.9210 C   0  0  0  0  0  0  0  0  0  0  0  0
   37.9870   26.5180   33.7110 N   0  0  0  0  0  0  0  0  0  0  0  0
   38.6580   23.3460   32.9050 H   0  0  0  0  0  0  0  0  0  0  0  0
   36.7060   23.7220   31.4390 H   0  0  0  0  0  0  0  0  0  0  0  0
   35.6010   25.9850   31.4890 H   0  0  0  0  0  0  0  0  0  0  0  0
   39.8080   25.1280   34.6300 C   0  0  0  0  0  0  0  0  0  0  0  0
   41.1390   24.9380   34.0100 C   0  0  0  0  0  0  0  0  0  0  0  0
   40.8110   26.2250   34.7060 C   0  0  0  0  0  0  0  0  0  0  0  0
   41.8140   24.2300   34.5720 H   0  0  0  0  0  0  0  0  0  0  0  0
   41.3060   24.8870   32.9320 H   0  0  0  0  0  0  0  0  0  0  0  0
   41.2840   26.4500   35.6880 H   0  0  0  0  0  0  0  0  0  0  0  0
   40.6470   27.0930   34.0210 H   0  0  0  0  0  0  0  0  0  0  0  0
   37.9910   24.2740   37.7240 C   0  0  0  0  0  0  0  0  0  0  0  0
   38.7260   23.1970   38.2300 C   0  0  0  0  0  0  0  0  0  0  0  0
   39.8490   22.7630   37.5060 C   0  0  0  0  0  0  0  0  0  0  0  0
   40.1500   23.4130   36.3650 N   0  0  0  0  0  0  0  0  0  0  0  0
   39.4270   24.4540   35.8900 C   0  0  0  0  0  0  0  0  0  0  0  0
   38.3420   24.8880   36.5730 N   0  0  0  0  0  0  0  0  0  0  0  0
   37.1340   24.5780   38.3120 H   0  0  0  0  0  0  0  0  0  0  0  0
   38.5220   22.6580   39.1260 H   0  0  0  0  0  0  0  0  0  0  0  0
   40.4970   21.9540   37.7770 H   0  0  0  0  0  0  0  0  0  0  0  0
   36.2910   28.0900   32.9720 C   0  0  0  0  0  0  0  0  0  0  0  0
   36.0370   28.9940   31.9870 N   0  0  0  0  0  0  0  0  0  0  0  0
   35.4400   30.0770   32.5600 C   0  0  0  0  0  0  0  0  0  0  0  0
   35.3230   29.8510   33.8870 N   0  0  0  0  0  0  0  0  0  0  0  0
   35.8380   28.6520   34.1270 N   0  0  0  0  0  0  0  0  0  0  0  0
   35.0850   31.0000   32.1210 H   0  0  0  0  0  0  0  0  0  0  0  0
   34.7990   30.5930   34.9680 C   0  0  0  0  0  0  0  0  0  0  0  0
   33.4640   30.5570   35.3390 C   0  0  0  0  0  0  0  0  0  0  0  0
   32.7750   29.9340   34.7850 H   0  0  0  0  0  0  0  0  0  0  0  0
   32.9720   31.2910   36.4000 C   0  0  0  0  0  3  0  0  0  0  0  0
   33.8520   32.1010   37.1250 C   0  0  0  0  0  0  0  0  0  0  0  0
   33.5030   32.6910   37.9630 H   0  0  0  0  0  0  0  0  0  0  0  0
   35.1730   32.1120   36.7260 C   0  0  0  0  0  0  0  0  0  0  0  0
   35.8270   32.7630   37.3270 H   0  0  0  0  0  0  0  0  0  0  0  0
   35.7020   31.3940   35.6740 C   0  0  0  0  0  3  0  0  0  0  0  0
  1 10  1  0  0  0  0
  2  1  2  0  0  0  0
  3  4  2  0  0  0  0
  3  2  1  0  0  0  0
  4  5  1  0  0  0  0
  5 26  1  0  0  0  0
  5  6  2  0  0  0  0
  6  1  1  0  0  0  0
  7  2  1  0  0  0  0
  8  3  1  0  0  0  0
  9  4  1  0  0  0  0
 10 12  1  0  0  0  0
 10 21  1  0  0  0  0
 11 13  1  0  0  0  0
 11 10  1  0  0  0  0
 11 12  1  0  0  0  0
 12 15  1  0  0  0  0
 14 11  1  0  0  0  0
 16 12  1  0  0  0  0
 17 18  1  0  0  0  0
 17 23  1  0  0  0  0
 18 24  1  0  0  0  0
 19 25  1  0  0  0  0
 19 18  2  0  0  0  0
 20 19  1  0  0  0  0
 21 20  2  0  0  0  0
 21 22  1  0  0  0  0
 22 17  2  0  0  0  0
 26 30  2  0  0  0  0
 27 28  2  0  0  0  0
 27 26  1  0  0  0  0
 28 29  1  0  0  0  0
 29 30  1  0  0  0  0
 29 32  1  0  0  0  0
 31 28  1  0  0  0  0
 32 33  2  0  0  0  0
 32 40  1  0  0  0  0
 33 35  1  0  0  0  0
 34 33  1  0  0  0  0
 35 36  2  0  0  0  0
 36 37  1  0  0  0  0
 38 36  1  0  0  0  0
 38 39  1  0  0  0  0
 40 38  2  0  0  0  0
M  END
>  <minimizedAffinity>
-6.40231705

$$$$

 OpenBabel03272505493D

 40 44  0  0  0  0  0  0  0  0999 V2000
   38.1500   24.1460   35.0110 C   0  0  0  0  0  0  0  0  0  0  0  0
   38.1900   23.2170   34.0270 C   0  0  0  0  0  0  0  0  0  0  0  0
   37.7910   23.5430   32.7380 C   0  0  0  0  0  0  0  0  0  0  0  0
   37.3570   24.8380   32.4980 C   0  0  0  0  0  0  0  0  0  0  0  0
   37.3170   25.7960   33.5100 C   0  0  0  0  0  0  0  0  0  0  0  0
   37.7220   25.4040   34.7490 N   0  0  0  0  0  0  0  0  0  0  0  0
   38.5250   22.2070   34.2040 H   0  0  0  0  0  0  0  0  0  0  0  0
   37.8070   22.8290   31.9230 H   0  0  0  0  0  0  0  0  0  0  0  0
   37.0260   25.1910   31.5260 H   0  0  0  0  0  0  0  0  0  0  0  0
   38.5820   23.8050   36.4210 C   0  0  0  0  0  0  0  0  0  0  0  0
   38.0240   24.6050   37.5360 C   0  0  0  0  0  0  0  0  0  0  0  0
   37.5790   23.1880   37.3310 C   0  0  0  0  0  0  0  0  0  0  0  0
   38.7440   24.7780   38.3860 H   0  0  0  0  0  0  0  0  0  0  0  0
   37.3490   25.4510   37.3980 H   0  0  0  0  0  0  0  0  0  0  0  0
   37.9150   22.4020   38.0430 H   0  0  0  0  0  0  0  0  0  0  0  0
   36.5430   23.0830   36.9240 H   0  0  0  0  0  0  0  0  0  0  0  0
   41.4730   21.6390   37.1650 C   0  0  0  0  0  0  0  0  0  0  0  0
   42.5260   22.2880   36.5100 C   0  0  0  0  0  0  0  0  0  0  0  0
   42.2400   23.4730   35.8110 C   0  0  0  0  0  0  0  0  0  0  0  0
   40.9680   23.9130   35.8150 N   0  0  0  0  0  0  0  0  0  0  0  0
   39.9610   23.2730   36.4540 C   0  0  0  0  0  0  0  0  0  0  0  0
   40.2150   22.1290   37.1330 N   0  0  0  0  0  0  0  0  0  0  0  0
   41.7350   20.7300   37.6910 H   0  0  0  0  0  0  0  0  0  0  0  0
   43.5430   21.9740   36.4830 H   0  0  0  0  0  0  0  0  0  0  0  0
   42.9470   24.0680   35.2690 H   0  0  0  0  0  0  0  0  0  0  0  0
   36.8710   27.1650   33.3110 C   0  0  0  0  0  0  0  0  0  0  0  0
   36.9240   27.9690   32.2140 N   0  0  0  0  0  0  0  0  0  0  0  0
   36.3690   29.1680   32.5500 C   0  0  0  0  0  0  0  0  0  0  0  0
   35.9740   29.1120   33.8410 N   0  0  0  0  0  0  0  0  0  0  0  0
   36.2800   27.9020   34.2920 N   0  0  0  0  0  0  0  0  0  0  0  0
   36.2240   30.0650   31.9640 H   0  0  0  0  0  0  0  0  0  0  0  0
   35.3510   30.0260   34.7190 C   0  0  0  0  0  0  0  0  0  0  0  0
   36.0540   30.9220   35.5080 C   0  0  0  0  0  0  0  0  0  0  0  0
   37.1340   30.9360   35.4630 H   0  0  0  0  0  0  0  0  0  0  0  0
   35.4250   31.8070   36.3600 C   0  0  0  0  0  3  0  0  0  0  0  0
   34.0270   31.8000   36.4300 C   0  0  0  0  0  0  0  0  0  0  0  0
   33.4990   32.4790   37.0850 H   0  0  0  0  0  0  0  0  0  0  0  0
   33.3620   30.8940   35.6290 C   0  0  0  0  0  0  0  0  0  0  0  0
   32.2640   30.9250   35.7170 H   0  0  0  0  0  0  0  0  0  0  0  0
   33.9540   29.9950   34.7660 C   0  0  0  0  0  3  0  0  0  0  0  0
  1 10  1  0  0  0  0
  2  7  1  0  0  0  0
  2  1  2  0  0  0  0
  3  2  1  0  0  0  0
  4  3  2  0  0  0  0
  4  5  1  0  0  0  0
  5  6  2  0  0  0  0
  6  1  1  0  0  0  0
  8  3  1  0  0  0  0
  9  4  1  0  0  0  0
 10 21  1  0  0  0  0
 10 12  1  0  0  0  0
 10 11  1  0  0  0  0
 11 13  1  0  0  0  0
 12 11  1  0  0  0  0
 12 15  1  0  0  0  0
 14 11  1  0  0  0  0
 16 12  1  0  0  0  0
 17 23  1  0  0  0  0
 18 17  2  0  0  0  0
 19 20  2  0  0  0  0
 19 18  1  0  0  0  0
 20 21  1  0  0  0  0
 21 22  2  0  0  0  0
 22 17  1  0  0  0  0
 24 18  1  0  0  0  0
 25 19  1  0  0  0  0
 26  5  1  0  0  0  0
 26 30  2  0  0  0  0
 27 28  2  0  0  0  0
 27 26  1  0  0  0  0
 28 29  1  0  0  0  0
 29 30  1  0  0  0  0
 29 32  1  0  0  0  0
 31 28  1  0  0  0  0
 32 40  2  0  0  0  0
 32 33  1  0  0  0  0
 33 35  2  0  0  0  0
 34 33  1  0  0  0  0
 35 36  1  0  0  0  0
 36 37  1  0  0  0  0
 38 39  1  0  0  0  0
 38 36  2  0  0  0  0
 40 38  1  0  0  0  0
M  END
>  <minimizedAffinity>
-6.29407072

$$$$

 OpenBabel03272505493D

 40 44  0  0  0  0  0  0  0  0999 V2000
   35.2900   29.3550   32.5540 C   0  0  0  0  0  0  0  0  0  0  0  0
   35.9220   30.0340   31.5680 C   0  0  0  0  0  0  0  0  0  0  0  0
   37.0540   29.5040   30.9660 C   0  0  0  0  0  0  0  0  0  0  0  0
   37.5100   28.2700   31.4050 C   0  0  0  0  0  0  0  0  0  0  0  0
   36.8600   27.5690   32.4200 C   0  0  0  0  0  0  0  0  0  0  0  0
   35.7560   28.1500   32.9640 N   0  0  0  0  0  0  0  0  0  0  0  0
   35.5750   30.9940   31.2200 H   0  0  0  0  0  0  0  0  0  0  0  0
   37.5880   30.0170   30.1740 H   0  0  0  0  0  0  0  0  0  0  0  0
   38.3840   27.7730   30.9980 H   0  0  0  0  0  0  0  0  0  0  0  0
   34.0530   29.9190   33.2200 C   0  0  0  0  0  0  0  0  0  0  0  0
   32.9300   30.3510   32.3570 C   0  0  0  0  0  0  0  0  0  0  0  0
   32.8060   29.1060   33.1820 C   0  0  0  0  0  0  0  0  0  0  0  0
   32.3750   31.2550   32.7400 H   0  0  0  0  0  0  0  0  0  0  0  0
   32.9570   30.3250   31.2660 H   0  0  0  0  0  0  0  0  0  0  0  0
   32.1400   29.1060   34.0730 H   0  0  0  0  0  0  0  0  0  0  0  0
   32.8540   28.1560   32.5950 H   0  0  0  0  0  0  0  0  0  0  0  0
   35.9640   31.6480   35.8570 C   0  0  0  0  0  0  0  0  0  0  0  0
   34.9910   31.9050   36.8300 C   0  0  0  0  0  0  0  0  0  0  0  0
   33.6750   31.4830   36.5780 C   0  0  0  0  0  0  0  0  0  0  0  0
   33.4300   30.8540   35.4120 N   0  0  0  0  0  0  0  0  0  0  0  0
   34.3840   30.6140   34.4820 C   0  0  0  0  0  0  0  0  0  0  0  0
   35.6580   31.0130   34.7060 N   0  0  0  0  0  0  0  0  0  0  0  0
   36.9650   31.9900   36.0900 H   0  0  0  0  0  0  0  0  0  0  0  0
   35.1450   32.3980   37.7620 H   0  0  0  0  0  0  0  0  0  0  0  0
   32.8380   31.6150   37.2320 H   0  0  0  0  0  0  0  0  0  0  0  0
   37.2960   26.2740   32.9150 C   0  0  0  0  0  0  0  0  0  0  0  0
   37.5330   25.1040   32.2630 N   0  0  0  0  0  0  0  0  0  0  0  0
   37.9250   24.1830   33.1890 C   0  0  0  0  0  0  0  0  0  0  0  0
   37.9330   24.7730   34.4040 N   0  0  0  0  0  0  0  0  0  0  0  0
   37.5530   26.0330   34.2310 N   0  0  0  0  0  0  0  0  0  0  0  0
   38.2020   23.1440   33.0740 H   0  0  0  0  0  0  0  0  0  0  0  0
   38.2440   24.3310   35.7090 C   0  0  0  0  0  0  0  0  0  0  0  0
   37.6610   24.8590   36.8500 C   0  0  0  0  0  0  0  0  0  0  0  0
   36.9300   25.6500   36.7560 H   0  0  0  0  0  0  0  0  0  0  0  0
   37.9800   24.4130   38.1170 C   0  0  0  0  0  3  0  0  0  0  0  0
   38.9260   23.3910   38.2540 C   0  0  0  0  0  0  0  0  0  0  0  0
   39.2010   23.0150   39.2300 H   0  0  0  0  0  0  0  0  0  0  0  0
   39.4850   22.8900   37.0960 C   0  0  0  0  0  0  0  0  0  0  0  0
   40.2220   22.0880   37.2530 H   0  0  0  0  0  0  0  0  0  0  0  0
   39.1920   23.3090   35.8140 C   0  0  0  0  0  3  0  0  0  0  0  0
  1  6  1  0  0  0  0
  1 10  1  0  0  0  0
  2  1  2  0  0  0  0
  3  4  2  0  0  0  0
  3  2  1  0  0  0  0
  4  5  1  0  0  0  0
  5 26  1  0  0  0  0
  5  6  2  0  0  0  0
  7  2  1  0  0  0  0
  8  3  1  0  0  0  0
  9  4  1  0  0  0  0
 10 21  1  0  0  0  0
 11 13  1  0  0  0  0
 11 12  1  0  0  0  0
 11 10  1  0  0  0  0
 12 10  1  0  0  0  0
 12 15  1  0  0  0  0
 14 11  1  0  0  0  0
 16 12  1  0  0  0  0
 17 23  1  0  0  0  0
 17 18  1  0  0  0  0
 18 24  1  0  0  0  0
 19 18  2  0  0  0  0
 19 25  1  0  0  0  0
 20 19  1  0  0  0  0
 21 22  1  0  0  0  0
 21 20  2  0  0  0  0
 22 17  2  0  0  0  0
 26 30  2  0  0  0  0
 27 26  1  0  0  0  0
 27 28  2  0  0  0  0
 28 29  1  0  0  0  0
 29 32  1  0  0  0  0
 30 29  1  0  0  0  0
 31 28  1  0  0  0  0
 32 40  2  0  0  0  0
 32 33  1  0  0  0  0
 33 35  2  0  0  0  0
 34 33  1  0  0  0  0
 35 36  1  0  0  0  0
 36 37  1  0  0  0  0
 38 39  1  0  0  0  0
 38 36  2  0  0  0  0
 40 38  1  0  0  0  0
M  END
>  <minimizedAffinity>
-6.28634882

$$$$

 OpenBabel03272505493D

 40 44  0  0  0  0  0  0  0  0999 V2000
   38.0320   24.8820   34.2800 C   0  0  0  0  0  0  0  0  0  0  0  0
   37.9590   24.0680   33.2010 C   0  0  0  0  0  0  0  0  0  0  0  0
   37.3670   24.5130   32.0270 C   0  0  0  0  0  0  0  0  0  0  0  0
   36.8600   25.8030   32.0000 C   0  0  0  0  0  0  0  0  0  0  0  0
   36.9350   26.6420   33.1110 C   0  0  0  0  0  0  0  0  0  0  0  0
   37.5290   26.1380   34.2280 N   0  0  0  0  0  0  0  0  0  0  0  0
   38.3510   23.0630   33.2120 H   0  0  0  0  0  0  0  0  0  0  0  0
   37.2890   23.8920   31.1420 H   0  0  0  0  0  0  0  0  0  0  0  0
   36.3800   26.2420   31.1310 H   0  0  0  0  0  0  0  0  0  0  0  0
   38.6760   24.4120   35.5680 C   0  0  0  0  0  0  0  0  0  0  0  0
   37.9910   24.7200   36.8440 C   0  0  0  0  0  0  0  0  0  0  0  0
   38.0110   23.3150   36.3220 C   0  0  0  0  0  0  0  0  0  0  0  0
   38.6890   24.9380   37.7020 H   0  0  0  0  0  0  0  0  0  0  0  0
   37.0690   25.2990   36.9150 H   0  0  0  0  0  0  0  0  0  0  0  0
   38.6460   22.5530   36.8280 H   0  0  0  0  0  0  0  0  0  0  0  0
   37.0330   22.9580   35.9160 H   0  0  0  0  0  0  0  0  0  0  0  0
   42.1470   25.4170   34.8310 C   0  0  0  0  0  0  0  0  0  0  0  0
   42.8890   24.3100   35.2570 C   0  0  0  0  0  0  0  0  0  0  0  0
   42.1940   23.2160   35.7990 C   0  0  0  0  0  0  0  0  0  0  0  0
   40.8520   23.3000   35.8750 N   0  0  0  0  0  0  0  0  0  0  0  0
   40.1500   24.3790   35.4580 C   0  0  0  0  0  0  0  0  0  0  0  0
   40.8010   25.4440   34.9330 N   0  0  0  0  0  0  0  0  0  0  0  0
   42.7200   26.2390   34.4200 H   0  0  0  0  0  0  0  0  0  0  0  0
   43.9480   24.2050   35.2140 H   0  0  0  0  0  0  0  0  0  0  0  0
   42.6350   22.3100   36.1620 H   0  0  0  0  0  0  0  0  0  0  0  0
   36.4190   28.0010   33.1340 C   0  0  0  0  0  0  0  0  0  0  0  0
   36.3320   28.9380   32.1510 N   0  0  0  0  0  0  0  0  0  0  0  0
   35.7680   30.0560   32.6910 C   0  0  0  0  0  0  0  0  0  0  0  0
   35.5070   29.8180   33.9950 N   0  0  0  0  0  0  0  0  0  0  0  0
   35.9020   28.5780   34.2540 N   0  0  0  0  0  0  0  0  0  0  0  0
   35.5300   31.0110   32.2420 H   0  0  0  0  0  0  0  0  0  0  0  0
   34.9410   30.5820   35.0390 C   0  0  0  0  0  0  0  0  0  0  0  0
   35.6700   31.4680   35.8150 C   0  0  0  0  0  0  0  0  0  0  0  0
   36.7270   31.5940   35.6260 H   0  0  0  0  0  0  0  0  0  0  0  0
   35.0970   32.2050   36.8320 C   0  0  0  0  0  3  0  0  0  0  0  0
   33.7300   32.0520   37.0880 C   0  0  0  0  0  0  0  0  0  0  0  0
   33.2450   32.6120   37.8760 H   0  0  0  0  0  0  0  0  0  0  0  0
   33.0360   31.1600   36.2950 C   0  0  0  0  0  0  0  0  0  0  0  0
   31.9640   31.0740   36.5330 H   0  0  0  0  0  0  0  0  0  0  0  0
   33.5730   30.4070   35.2710 C   0  0  0  0  0  3  0  0  0  0  0  0
  1 10  1  0  0  0  0
  2  7  1  0  0  0  0
  2  1  2  0  0  0  0
  3  2  1  0  0  0  0
  4  3  2  0  0  0  0
  4  5  1  0  0  0  0
  5 26  1  0  0  0  0
  5  6  2  0  0  0  0
  6  1  1  0  0  0  0
  8  3  1  0  0  0  0
  9  4  1  0  0  0  0
 10 12  1  0  0  0  0
 10 11  1  0  0  0  0
 11 14  1  0  0  0  0
 11 13  1  0  0  0  0
 12 15  1  0  0  0  0
 12 11  1  0  0  0  0
 16 12  1  0  0  0  0
 17 22  2  0  0  0  0
 17 18  1  0  0  0  0
 18 19  2  0  0  0  0
 19 20  1  0  0  0  0
 19 25  1  0  0  0  0
 21 10  1  0  0  0  0
 21 20  2  0  0  0  0
 22 21  1  0  0  0  0
 23 17  1  0  0  0  0
 24 18  1  0  0  0  0
 26 30  2  0  0  0  0
 27 28  2  0  0  0  0
 27 26  1  0  0  0  0
 28 29  1  0  0  0  0
 29 30  1  0  0  0  0
 29 32  1  0  0  0  0
 31 28  1  0  0  0  0
 32 40  2  0  0  0  0
 32 33  1  0  0  0  0
 33 35  2  0  0  0  0
 34 33  1  0  0  0  0
 35 36  1  0  0  0  0
 36 37  1  0  0  0  0
 38 39  1  0  0  0  0
 38 36  2  0  0  0  0
 40 38  1  0  0  0  0
M  END
>  <minimizedAffinity>
-6.08877087

$$$$

 OpenBabel03272505493D

 40 44  0  0  0  0  0  0  0  0999 V2000
   38.4450   24.3390   35.2530 C   0  0  0  0  0  0  0  0  0  0  0  0
   38.6380   25.1660   36.3080 C   0  0  0  0  0  0  0  0  0  0  0  0
   38.3010   26.5090   36.2160 C   0  0  0  0  0  0  0  0  0  0  0  0
   37.7660   26.9670   35.0220 C   0  0  0  0  0  0  0  0  0  0  0  0
   37.5650   26.1160   33.9360 C   0  0  0  0  0  0  0  0  0  0  0  0
   37.9200   24.8120   34.0980 N   0  0  0  0  0  0  0  0  0  0  0  0
   39.0550   24.8190   37.2400 H   0  0  0  0  0  0  0  0  0  0  0  0
   38.4410   27.2030   37.0370 H   0  0  0  0  0  0  0  0  0  0  0  0
   37.4700   27.9970   34.8520 H   0  0  0  0  0  0  0  0  0  0  0  0
   38.8070   22.8710   35.3380 C   0  0  0  0  0  0  0  0  0  0  0  0
   40.2190   22.4860   35.1170 C   0  0  0  0  0  0  0  0  0  0  0  0
   39.6290   22.4190   36.4930 C   0  0  0  0  0  0  0  0  0  0  0  0
   40.3520   21.4990   34.5880 H   0  0  0  0  0  0  0  0  0  0  0  0
   41.0090   23.1930   34.8580 H   0  0  0  0  0  0  0  0  0  0  0  0
   39.4130   21.4260   36.9470 H   0  0  0  0  0  0  0  0  0  0  0  0
   39.9850   23.2170   37.1890 H   0  0  0  0  0  0  0  0  0  0  0  0
   35.7350   20.8330   35.4380 C   0  0  0  0  0  0  0  0  0  0  0  0
   35.6000   20.4070   34.1120 C   0  0  0  0  0  0  0  0  0  0  0  0
   36.5670   20.8220   33.1820 C   0  0  0  0  0  0  0  0  0  0  0  0
   37.5680   21.6060   33.6240 N   0  0  0  0  0  0  0  0  0  0  0  0
   37.6840   22.0090   34.9110 C   0  0  0  0  0  0  0  0  0  0  0  0
   36.7620   21.6200   35.8240 N   0  0  0  0  0  0  0  0  0  0  0  0
   34.9690   20.4910   36.1230 H   0  0  0  0  0  0  0  0  0  0  0  0
   34.8250   19.7880   33.7230 H   0  0  0  0  0  0  0  0  0  0  0  0
   36.5850   20.5710   32.1410 H   0  0  0  0  0  0  0  0  0  0  0  0
   37.0080   26.5470   32.6640 C   0  0  0  0  0  0  0  0  0  0  0  0
   36.1000   25.9530   31.8420 N   0  0  0  0  0  0  0  0  0  0  0  0
   35.9150   26.7710   30.7680 C   0  0  0  0  0  0  0  0  0  0  0  0
   36.6970   27.8620   30.9180 N   0  0  0  0  0  0  0  0  0  0  0  0
   37.3520   27.7200   32.0630 N   0  0  0  0  0  0  0  0  0  0  0  0
   35.2790   26.6590   29.8990 H   0  0  0  0  0  0  0  0  0  0  0  0
   36.9230   29.0230   30.1470 C   0  0  0  0  0  0  0  0  0  0  0  0
   37.5570   29.0060   28.9150 C   0  0  0  0  0  0  0  0  0  0  0  0
   37.9030   28.0650   28.5080 H   0  0  0  0  0  0  0  0  0  0  0  0
   37.7700   30.1530   28.1770 C   0  0  0  0  0  3  0  0  0  0  0  0
   37.3290   31.3770   28.6910 C   0  0  0  0  0  0  0  0  0  0  0  0
   37.4760   32.2970   28.1420 H   0  0  0  0  0  0  0  0  0  0  0  0
   36.7010   31.3550   29.9200 C   0  0  0  0  0  0  0  0  0  0  0  0
   36.3710   32.3410   30.2830 H   0  0  0  0  0  0  0  0  0  0  0  0
   36.4710   30.2310   30.6860 C   0  0  0  0  0  3  0  0  0  0  0  0
  1 10  1  0  0  0  0
  1  2  1  0  0  0  0
  2  7  1  0  0  0  0
  3  2  2  0  0  0  0
  3  8  1  0  0  0  0
  4  3  1  0  0  0  0
  5  6  1  0  0  0  0
  5  4  2  0  0  0  0
  6  1  2  0  0  0  0
  9  4  1  0  0  0  0
 10 12  1  0  0  0  0
 11 10  1  0  0  0  0
 11 12  1  0  0  0  0
 12 15  1  0  0  0  0
 12 16  1  0  0  0  0
 13 11  1  0  0  0  0
 14 11  1  0  0  0  0
 17 22  1  0  0  0  0
 17 23  1  0  0  0  0
 18 17  2  0  0  0  0
 19 20  2  0  0  0  0
 19 18  1  0  0  0  0
 20 21  1  0  0  0  0
 21 10  1  0  0  0  0
 21 22  2  0  0  0  0
 24 18  1  0  0  0  0
 25 19  1  0  0  0  0
 26  5  1  0  0  0  0
 27 26  1  0  0  0  0
 28 29  1  0  0  0  0
 28 27  2  0  0  0  0
 29 30  1  0  0  0  0
 30 26  2  0  0  0  0
 31 28  1  0  0  0  0
 32 40  1  0  0  0  0
 32 29  1  0  0  0  0
 33 32  2  0  0  0  0
 34 33  1  0  0  0  0
 35 36  2  0  0  0  0
 35 33  1  0  0  0  0
 36 38  1  0  0  0  0
 37 36  1  0  0  0  0
 38 39  1  0  0  0  0
 38 40  2  0  0  0  0
M  END
>  <minimizedAffinity>
-6.05625963

$$$$

 OpenBabel03272505493D

 40 44  0  0  0  0  0  0  0  0999 V2000
   38.6420   24.5530   34.0840 C   0  0  0  0  0  0  0  0  0  0  0  0
   39.6380   24.4780   33.1700 C   0  0  0  0  0  0  0  0  0  0  0  0
   39.7070   25.3960   32.1310 C   0  0  0  0  0  0  0  0  0  0  0  0
   38.7320   26.3790   32.0640 C   0  0  0  0  0  0  0  0  0  0  0  0
   37.7060   26.4580   33.0050 C   0  0  0  0  0  0  0  0  0  0  0  0
   37.7010   25.5240   33.9950 N   0  0  0  0  0  0  0  0  0  0  0  0
   40.4000   23.7160   33.2130 H   0  0  0  0  0  0  0  0  0  0  0  0
   40.4870   25.3690   31.3800 H   0  0  0  0  0  0  0  0  0  0  0  0
   38.6990   27.1420   31.2920 H   0  0  0  0  0  0  0  0  0  0  0  0
   38.5530   23.5600   35.2230 C   0  0  0  0  0  0  0  0  0  0  0  0
   39.7730   23.3000   36.0200 C   0  0  0  0  0  0  0  0  0  0  0  0
   38.6410   24.0820   36.6140 C   0  0  0  0  0  0  0  0  0  0  0  0
   39.8770   22.2340   36.3730 H   0  0  0  0  0  0  0  0  0  0  0  0
   40.7440   23.7520   35.8100 H   0  0  0  0  0  0  0  0  0  0  0  0
   38.0090   23.6150   37.4020 H   0  0  0  0  0  0  0  0  0  0  0  0
   38.8400   25.1770   36.7190 H   0  0  0  0  0  0  0  0  0  0  0  0
   36.0090   20.9380   35.7310 C   0  0  0  0  0  0  0  0  0  0  0  0
   35.7110   20.5360   34.4240 C   0  0  0  0  0  0  0  0  0  0  0  0
   36.3870   21.1670   33.3670 C   0  0  0  0  0  0  0  0  0  0  0  0
   37.2820   22.1240   33.6760 N   0  0  0  0  0  0  0  0  0  0  0  0
   37.5580   22.5010   34.9460 C   0  0  0  0  0  0  0  0  0  0  0  0
   36.9180   21.9050   35.9800 N   0  0  0  0  0  0  0  0  0  0  0  0
   35.4670   20.4280   36.5160 H   0  0  0  0  0  0  0  0  0  0  0  0
   35.0120   19.7850   34.1380 H   0  0  0  0  0  0  0  0  0  0  0  0
   36.2560   20.9580   32.3240 H   0  0  0  0  0  0  0  0  0  0  0  0
   36.6610   27.4680   32.9800 C   0  0  0  0  0  0  0  0  0  0  0  0
   35.7790   27.8150   32.0030 N   0  0  0  0  0  0  0  0  0  0  0  0
   35.0050   28.8290   32.4820 C   0  0  0  0  0  0  0  0  0  0  0  0
   35.3980   29.1100   33.7440 N   0  0  0  0  0  0  0  0  0  0  0  0
   36.3960   28.2860   34.0360 N   0  0  0  0  0  0  0  0  0  0  0  0
   34.1950   29.3760   32.0180 H   0  0  0  0  0  0  0  0  0  0  0  0
   34.9770   30.0400   34.7200 C   0  0  0  0  0  0  0  0  0  0  0  0
   33.6490   30.2270   35.0690 C   0  0  0  0  0  0  0  0  0  0  0  0
   32.8830   29.6410   34.5800 H   0  0  0  0  0  0  0  0  0  0  0  0
   33.2590   31.1420   36.0270 C   0  0  0  0  0  3  0  0  0  0  0  0
   34.2390   31.9080   36.6670 C   0  0  0  0  0  0  0  0  0  0  0  0
   33.9710   32.6340   37.4230 H   0  0  0  0  0  0  0  0  0  0  0  0
   35.5500   31.6940   36.2930 C   0  0  0  0  0  0  0  0  0  0  0  0
   36.2850   32.3180   36.8240 H   0  0  0  0  0  0  0  0  0  0  0  0
   35.9790   30.7900   35.3430 C   0  0  0  0  0  3  0  0  0  0  0  0
  1 10  1  0  0  0  0
  2  7  1  0  0  0  0
  2  1  2  0  0  0  0
  3  2  1  0  0  0  0
  4  3  2  0  0  0  0
  4  5  1  0  0  0  0
  5  6  2  0  0  0  0
  6  1  1  0  0  0  0
  8  3  1  0  0  0  0
  9  4  1  0  0  0  0
 10 11  1  0  0  0  0
 10 12  1  0  0  0  0
 11 13  1  0  0  0  0
 11 12  1  0  0  0  0
 12 16  1  0  0  0  0
 12 15  1  0  0  0  0
 14 11  1  0  0  0  0
 17 22  1  0  0  0  0
 17 23  1  0  0  0  0
 18 17  2  0  0  0  0
 19 20  2  0  0  0  0
 19 18  1  0  0  0  0
 20 21  1  0  0  0  0
 21 10  1  0  0  0  0
 21 22  2  0  0  0  0
 24 18  1  0  0  0  0
 25 19  1  0  0  0  0
 26  5  1  0  0  0  0
 26 30  2  0  0  0  0
 27 28  2  0  0  0  0
 27 26  1  0  0  0  0
 28 29  1  0  0  0  0
 29 30  1  0  0  0  0
 29 32  1  0  0  0  0
 31 28  1  0  0  0  0
 32 33  2  0  0  0  0
 32 40  1  0  0  0  0
 33 35  1  0  0  0  0
 34 33  1  0  0  0  0
 35 36  2  0  0  0  0
 36 37  1  0  0  0  0
 38 36  1  0  0  0  0
 38 39  1  0  0  0  0
 40 38  2  0  0  0  0
M  END
>  <minimizedAffinity>
-6.02393293

$$$$

 OpenBabel03272505493D

 40 44  0  0  0  0  0  0  0  0999 V2000
   38.2270   23.4960   34.7690 C   0  0  0  0  0  0  0  0  0  0  0  0
   38.2190   22.3190   34.1000 C   0  0  0  0  0  0  0  0  0  0  0  0
   37.7840   22.2640   32.7830 C   0  0  0  0  0  0  0  0  0  0  0  0
   37.3620   23.4420   32.1850 C   0  0  0  0  0  0  0  0  0  0  0  0
   37.3700   24.6550   32.8730 C   0  0  0  0  0  0  0  0  0  0  0  0
   37.8100   24.6330   34.1610 N   0  0  0  0  0  0  0  0  0  0  0  0
   38.5440   21.3970   34.5560 H   0  0  0  0  0  0  0  0  0  0  0  0
   37.7620   21.3420   32.2130 H   0  0  0  0  0  0  0  0  0  0  0  0
   37.0060   23.5030   31.1620 H   0  0  0  0  0  0  0  0  0  0  0  0
   38.7000   23.5720   36.2050 C   0  0  0  0  0  0  0  0  0  0  0  0
   38.1440   24.6400   37.0680 C   0  0  0  0  0  0  0  0  0  0  0  0
   37.7340   23.2140   37.2790 C   0  0  0  0  0  0  0  0  0  0  0  0
   38.8780   25.0590   37.8140 H   0  0  0  0  0  0  0  0  0  0  0  0
   37.4430   25.4000   36.7190 H   0  0  0  0  0  0  0  0  0  0  0  0
   38.1070   22.6650   38.1730 H   0  0  0  0  0  0  0  0  0  0  0  0
   36.6920   22.9780   36.9490 H   0  0  0  0  0  0  0  0  0  0  0  0
   42.3640   23.3450   35.8510 C   0  0  0  0  0  0  0  0  0  0  0  0
   42.6800   22.2110   36.6080 C   0  0  0  0  0  0  0  0  0  0  0  0
   41.6310   21.5240   37.2410 C   0  0  0  0  0  0  0  0  0  0  0  0
   40.3810   22.0000   37.0800 N   0  0  0  0  0  0  0  0  0  0  0  0
   40.0930   23.0980   36.3440 C   0  0  0  0  0  0  0  0  0  0  0  0
   41.0900   23.7750   35.7260 N   0  0  0  0  0  0  0  0  0  0  0  0
   43.2000   23.8450   35.3800 H   0  0  0  0  0  0  0  0  0  0  0  0
   43.6530   21.8040   36.7590 H   0  0  0  0  0  0  0  0  0  0  0  0
   41.7310   20.6470   37.8470 H   0  0  0  0  0  0  0  0  0  0  0  0
   36.9400   25.9160   32.2930 C   0  0  0  0  0  0  0  0  0  0  0  0
   36.6880   26.2640   31.0020 N   0  0  0  0  0  0  0  0  0  0  0  0
   36.3110   27.5740   30.9890 C   0  0  0  0  0  0  0  0  0  0  0  0
   36.3270   28.0370   32.2580 N   0  0  0  0  0  0  0  0  0  0  0  0
   36.7060   27.0330   33.0380 N   0  0  0  0  0  0  0  0  0  0  0  0
   36.0290   28.2170   30.1660 H   0  0  0  0  0  0  0  0  0  0  0  0
   36.0380   29.2850   32.8520 C   0  0  0  0  0  0  0  0  0  0  0  0
   35.9790   30.4710   32.1390 C   0  0  0  0  0  0  0  0  0  0  0  0
   36.1600   30.4600   31.0720 H   0  0  0  0  0  0  0  0  0  0  0  0
   35.6950   31.6820   32.7390 C   0  0  0  0  0  3  0  0  0  0  0  0
   35.4600   31.7120   34.1180 C   0  0  0  0  0  0  0  0  0  0  0  0
   35.2340   32.6410   34.6240 H   0  0  0  0  0  0  0  0  0  0  0  0
   35.5270   30.5110   34.7950 C   0  0  0  0  0  0  0  0  0  0  0  0
   35.3340   30.5840   35.8770 H   0  0  0  0  0  0  0  0  0  0  0  0
   35.8070   29.2840   34.2310 C   0  0  0  0  0  3  0  0  0  0  0  0
  1 10  1  0  0  0  0
  2  7  1  0  0  0  0
  2  1  2  0  0  0  0
  3  2  1  0  0  0  0
  4  3  2  0  0  0  0
  4  5  1  0  0  0  0
  5  6  2  0  0  0  0
  6  1  1  0  0  0  0
  8  3  1  0  0  0  0
  9  4  1  0  0  0  0
 10 21  1  0  0  0  0
 10 11  1  0  0  0  0
 10 12  1  0  0  0  0
 11 12  1  0  0  0  0
 11 13  1  0  0  0  0
 12 15  1  0  0  0  0
 14 11  1  0  0  0  0
 16 12  1  0  0  0  0
 17 18  1  0  0  0  0
 18 24  1  0  0  0  0
 18 19  2  0  0  0  0
 19 25  1  0  0  0  0
 20 19  1  0  0  0  0
 21 20  2  0  0  0  0
 22 17  2  0  0  0  0
 22 21  1  0  0  0  0
 23 17  1  0  0  0  0
 26  5  1  0  0  0  0
 26 30  2  0  0  0  0
 27 26  1  0  0  0  0
 28 27  2  0  0  0  0
 28 29  1  0  0  0  0
 29 32  1  0  0  0  0
 29 30  1  0  0  0  0
 31 28  1  0  0  0  0
 32 40  1  0  0  0  0
 33 35  1  0  0  0  0
 33 32  2  0  0  0  0
 34 33  1  0  0  0  0
 35 36  2  0  0  0  0
 36 37  1  0  0  0  0
 36 38  1  0  0  0  0
 38 39  1  0  0  0  0
 40 38  2  0  0  0  0
M  END
>  <minimizedAffinity>
-5.99260235

$$$$

 OpenBabel03272505493D

 40 44  0  0  0  0  0  0  0  0999 V2000
   40.7650   22.9150   36.5420 C   0  0  0  0  0  0  0  0  0  0  0  0
   40.2000   22.7740   37.7640 C   0  0  0  0  0  0  0  0  0  0  0  0
   38.9280   23.2720   38.0100 C   0  0  0  0  0  0  0  0  0  0  0  0
   38.2660   23.9110   36.9720 C   0  0  0  0  0  0  0  0  0  0  0  0
   38.8470   24.0560   35.7140 C   0  0  0  0  0  0  0  0  0  0  0  0
   40.0970   23.5440   35.5460 N   0  0  0  0  0  0  0  0  0  0  0  0
   40.7070   22.2790   38.5780 H   0  0  0  0  0  0  0  0  0  0  0  0
   38.4410   23.1790   38.9740 H   0  0  0  0  0  0  0  0  0  0  0  0
   37.2700   24.3330   37.0640 H   0  0  0  0  0  0  0  0  0  0  0  0
   42.1520   22.3770   36.2580 C   0  0  0  0  0  0  0  0  0  0  0  0
   42.5800   21.1450   36.9600 C   0  0  0  0  0  0  0  0  0  0  0  0
   42.2650   21.1040   35.4950 C   0  0  0  0  0  0  0  0  0  0  0  0
   43.6750   21.1240   37.2300 H   0  0  0  0  0  0  0  0  0  0  0  0
   41.9710   20.6240   37.7000 H   0  0  0  0  0  0  0  0  0  0  0  0
   43.0930   20.9920   34.7610 H   0  0  0  0  0  0  0  0  0  0  0  0
   41.3030   20.5920   35.2430 H   0  0  0  0  0  0  0  0  0  0  0  0
   44.5530   25.1500   36.6410 C   0  0  0  0  0  0  0  0  0  0  0  0
   44.8630   25.4790   35.3170 C   0  0  0  0  0  0  0  0  0  0  0  0
   44.2440   24.7460   34.2900 C   0  0  0  0  0  0  0  0  0  0  0  0
   43.3880   23.7680   34.6450 N   0  0  0  0  0  0  0  0  0  0  0  0
   43.1000   23.4630   35.9310 C   0  0  0  0  0  0  0  0  0  0  0  0
   43.6860   24.1570   36.9360 N   0  0  0  0  0  0  0  0  0  0  0  0
   45.0510   25.7380   37.4020 H   0  0  0  0  0  0  0  0  0  0  0  0
   45.5320   26.2430   34.9960 H   0  0  0  0  0  0  0  0  0  0  0  0
   44.3890   24.8920   33.2390 H   0  0  0  0  0  0  0  0  0  0  0  0
   38.1960   24.7170   34.5940 C   0  0  0  0  0  0  0  0  0  0  0  0
   37.9100   24.2720   33.3400 N   0  0  0  0  0  0  0  0  0  0  0  0
   37.2900   25.2840   32.6710 C   0  0  0  0  0  0  0  0  0  0  0  0
   37.1900   26.3480   33.4970 N   0  0  0  0  0  0  0  0  0  0  0  0
   37.7380   25.9980   34.6540 N   0  0  0  0  0  0  0  0  0  0  0  0
   36.9070   25.3290   31.6600 H   0  0  0  0  0  0  0  0  0  0  0  0
   36.6560   27.6490   33.3650 C   0  0  0  0  0  0  0  0  0  0  0  0
   36.4580   28.2690   32.1420 C   0  0  0  0  0  0  0  0  0  0  0  0
   36.7200   27.7460   31.2330 H   0  0  0  0  0  0  0  0  0  0  0  0
   35.9350   29.5420   32.0350 C   0  0  0  0  0  3  0  0  0  0  0  0
   35.5930   30.2310   33.2040 C   0  0  0  0  0  0  0  0  0  0  0  0
   35.1800   31.2300   33.1600 H   0  0  0  0  0  0  0  0  0  0  0  0
   35.8040   29.5820   34.4030 C   0  0  0  0  0  0  0  0  0  0  0  0
   35.5200   30.1630   35.2950 H   0  0  0  0  0  0  0  0  0  0  0  0
   36.3240   28.3120   34.5510 C   0  0  0  0  0  3  0  0  0  0  0  0
  1  2  1  0  0  0  0
  2  3  2  0  0  0  0
  2  7  1  0  0  0  0
  3  8  1  0  0  0  0
  4  9  1  0  0  0  0
  4  3  1  0  0  0  0
  5  4  2  0  0  0  0
  6  5  1  0  0  0  0
  6  1  2  0  0  0  0
 10  1  1  0  0  0  0
 10 11  1  0  0  0  0
 11 13  1  0  0  0  0
 11 14  1  0  0  0  0
 12 10  1  0  0  0  0
 12 11  1  0  0  0  0
 15 12  1  0  0  0  0
 16 12  1  0  0  0  0
 17 22  1  0  0  0  0
 17 23  1  0  0  0  0
 18 17  2  0  0  0  0
 19 20  2  0  0  0  0
 19 18  1  0  0  0  0
 20 21  1  0  0  0  0
 21 10  1  0  0  0  0
 21 22  2  0  0  0  0
 24 18  1  0  0  0  0
 25 19  1  0  0  0  0
 26 30  2  0  0  0  0
 26  5  1  0  0  0  0
 27 26  1  0  0  0  0
 28 27  2  0  0  0  0
 28 29  1  0  0  0  0
 29 30  1  0  0  0  0
 31 28  1  0  0  0  0
 32 29  1  0  0  0  0
 32 40  1  0  0  0  0
 33 32  2  0  0  0  0
 34 33  1  0  0  0  0
 35 33  1  0  0  0  0
 35 36  2  0  0  0  0
 36 38  1  0  0  0  0
 37 36  1  0  0  0  0
 38 40  2  0  0  0  0
 38 39  1  0  0  0  0
M  END
>  <minimizedAffinity>
-5.99015617

$$$$
