
 OpenBabel03262523413D

 38 40  0  0  1  0  0  0  0  0999 V2000
   38.3810   26.3680   35.9080 C   0  0  0  0  0  0  0  0  0  0  0  0
   37.9300   27.2350   34.9170 C   0  0  0  0  0  0  0  0  0  0  0  0
   37.5390   26.8060   33.6670 C   0  0  0  0  0  0  0  0  0  0  0  0
   37.6300   25.4710   33.4810 N   0  0  0  0  0  0  0  0  0  0  0  0
   38.0610   24.6020   34.4120 C   0  0  0  0  0  0  0  0  0  0  0  0
   38.4340   25.0610   35.6250 N   0  0  0  0  0  0  0  0  0  0  0  0
   37.0860   27.6820   32.6730 N   0  0  0  0  0  0  0  0  0  0  0  0
   37.9830   27.9470   31.5860 C   0  0  0  0  0  0  0  0  0  0  0  0
   37.4800   28.8970   30.5620 C   0  0  0  0  0  0  0  0  0  0  0  0
   36.1150   29.1950   30.5700 N   0  0  0  0  0  0  0  0  0  0  0  0
   35.4640   29.3140   31.8140 C   0  0  0  0  0  0  0  0  0  0  0  0
   35.7640   28.2450   32.8140 C   0  0  2  0  0  0  0  0  0  0  0  0
   38.6850   26.7020   36.8820 H   0  0  0  0  0  0  0  0  0  0  0  0
   37.9220   28.2650   35.2240 H   0  0  0  0  0  0  0  0  0  0  0  0
   38.0860   23.5540   34.1360 H   0  0  0  0  0  0  0  0  0  0  0  0
   38.2120   26.9490   31.1270 H   0  0  0  0  0  0  0  0  0  0  0  0
   38.9500   28.2650   32.0300 H   0  0  0  0  0  0  0  0  0  0  0  0
   38.0390   29.8550   30.6870 H   0  0  0  0  0  0  0  0  0  0  0  0
   37.7710   28.5270   29.5530 H   0  0  0  0  0  0  0  0  0  0  0  0
   35.5920   28.6600   29.8410 H   0  0  0  0  0  0  0  0  0  0  0  0
   34.3890   29.3590   31.6280 H   0  0  0  0  0  0  0  0  0  0  0  0
   35.7770   30.3160   32.2250 H   0  0  0  0  0  0  0  0  0  0  0  0
   35.0500   27.3990   32.7420 H   0  0  0  0  0  0  0  0  0  0  0  0
   35.5300   28.8790   34.1690 C   0  0  0  0  0  0  0  0  0  0  0  0
   34.6490   28.4950   34.6610 H   0  0  0  0  0  0  0  0  0  0  0  0
   36.4940   28.7130   34.7290 H   0  0  0  0  0  0  0  0  0  0  0  0
   35.5040   30.3840   33.9340 C   0  0  0  0  0  0  0  0  0  0  0  0
   36.4910   30.8540   33.8740 H   0  0  0  0  0  0  0  0  0  0  0  0
   34.8930   30.6860   33.0840 H   0  0  0  0  0  0  0  0  0  0  0  0
   34.8670   31.0630   35.1290 C   0  0  0  0  0  0  0  0  0  0  0  0
   35.5290   31.9260   35.9680 C   0  0  0  0  0  0  0  0  0  0  0  0
   36.5580   32.1330   35.7680 H   0  0  0  0  0  0  0  0  0  0  0  0
   34.8570   32.4930   37.0300 C   0  0  0  0  0  3  0  0  0  0  0  0
   33.5120   32.2160   37.2820 C   0  0  0  0  0  0  0  0  0  0  0  0
   32.9940   32.6670   38.1200 H   0  0  0  0  0  0  0  0  0  0  0  0
   32.8230   31.3570   36.4600 C   0  0  0  0  0  0  0  0  0  0  0  0
   31.7760   31.0870   36.5840 H   0  0  0  0  0  0  0  0  0  0  0  0
   33.5400   30.8190   35.4160 C   0  0  0  0  0  3  0  0  0  0  0  0
  1 13  1  0  0  0  0
  2 14  1  0  0  0  0
  2  1  2  0  0  0  0
  3  2  1  0  0  0  0
  4  3  2  0  0  0  0
  4  5  1  0  0  0  0
  5  6  2  0  0  0  0
  6  1  1  0  0  0  0
  7 12  1  0  0  0  0
  7  3  1  0  0  0  0
  8 17  1  0  0  0  0
  8  7  1  0  0  0  0
  9 10  1  0  0  0  0
  9 18  1  0  0  0  0
  9  8  1  0  0  0  0
 10 11  1  0  0  0  0
 11 22  1  0  0  0  0
 11 12  1  0  0  0  0
 12 23  1  6  0  0  0
 12 24  1  0  0  0  0
 15  5  1  0  0  0  0
 16  8  1  0  0  0  0
 19  9  1  0  0  0  0
 20 10  1  0  0  0  0
 21 11  1  0  0  0  0
 24 25  1  0  0  0  0
 24 26  1  0  0  0  0
 27 24  1  0  0  0  0
 27 30  1  0  0  0  0
 28 27  1  0  0  0  0
 29 27  1  0  0  0  0
 30 38  2  0  0  0  0
 30 31  1  0  0  0  0
 31 33  2  0  0  0  0
 32 31  1  0  0  0  0
 33 34  1  0  0  0  0
 34 35  1  0  0  0  0
 36 37  1  0  0  0  0
 36 34  2  0  0  0  0
 38 36  1  0  0  0  0
M  END
>  <minimizedAffinity>
-5.35035467

$$$$

 OpenBabel03262523413D

 38 40  0  0  1  0  0  0  0  0999 V2000
   37.4750   22.7400   32.4000 C   0  0  0  0  0  0  0  0  0  0  0  0
   38.0760   22.9840   33.6310 C   0  0  0  0  0  0  0  0  0  0  0  0
   37.7430   22.2930   34.7770 C   0  0  0  0  0  0  0  0  0  0  0  0
   36.7840   21.3580   34.6070 N   0  0  0  0  0  0  0  0  0  0  0  0
   36.1800   21.0930   33.4340 C   0  0  0  0  0  0  0  0  0  0  0  0
   36.5340   21.7900   32.3350 N   0  0  0  0  0  0  0  0  0  0  0  0
   38.3500   22.5420   36.0140 N   0  0  0  0  0  0  0  0  0  0  0  0
   37.5660   23.2430   36.9900 C   0  0  0  0  0  0  0  0  0  0  0  0
   38.2480   23.5090   38.2820 C   0  0  0  0  0  0  0  0  0  0  0  0
   39.4270   22.8100   38.5480 N   0  0  0  0  0  0  0  0  0  0  0  0
   40.3180   22.5710   37.4830 C   0  0  0  0  0  0  0  0  0  0  0  0
   39.7020   22.0780   36.2140 C   0  0  2  0  0  0  0  0  0  0  0  0
   37.7350   23.2770   31.5070 H   0  0  0  0  0  0  0  0  0  0  0  0
   38.8160   23.7610   33.5980 H   0  0  0  0  0  0  0  0  0  0  0  0
   35.4240   20.3160   33.4320 H   0  0  0  0  0  0  0  0  0  0  0  0
   36.6440   22.6230   37.1450 H   0  0  0  0  0  0  0  0  0  0  0  0
   37.1890   24.1670   36.5030 H   0  0  0  0  0  0  0  0  0  0  0  0
   38.4810   24.6000   38.3210 H   0  0  0  0  0  0  0  0  0  0  0  0
   37.5240   23.3430   39.1110 H   0  0  0  0  0  0  0  0  0  0  0  0
   39.2680   22.0000   39.1880 H   0  0  0  0  0  0  0  0  0  0  0  0
   41.0740   21.8640   37.8300 H   0  0  0  0  0  0  0  0  0  0  0  0
   40.8370   23.5540   37.2960 H   0  0  0  0  0  0  0  0  0  0  0  0
   39.6660   20.9700   36.1740 H   0  0  0  0  0  0  0  0  0  0  0  0
   40.6470   22.5080   35.1100 C   0  0  0  0  0  0  0  0  0  0  0  0
   41.3450   21.7310   34.8360 H   0  0  0  0  0  0  0  0  0  0  0  0
   39.9690   22.8510   34.2770 H   0  0  0  0  0  0  0  0  0  0  0  0
   41.3050   23.7940   35.5940 C   0  0  0  0  0  0  0  0  0  0  0  0
   41.0150   24.1040   36.6030 H   0  0  0  0  0  0  0  0  0  0  0  0
   42.3890   23.7960   35.4980 H   0  0  0  0  0  0  0  0  0  0  0  0
   40.8380   24.9460   34.7280 C   0  0  0  0  0  0  0  0  0  0  0  0
   41.2880   25.1830   33.4520 C   0  0  0  0  0  0  0  0  0  0  0  0
   42.0130   24.5150   33.0410 H   0  0  0  0  0  0  0  0  0  0  0  0
   40.7980   26.2620   32.7470 C   0  0  0  0  0  3  0  0  0  0  0  0
   39.8510   27.1300   33.2930 C   0  0  0  0  0  0  0  0  0  0  0  0
   39.4740   27.9750   32.7300 H   0  0  0  0  0  0  0  0  0  0  0  0
   39.3820   26.9190   34.5670 C   0  0  0  0  0  0  0  0  0  0  0  0
   38.6460   27.5440   35.0680 H   0  0  0  0  0  0  0  0  0  0  0  0
   39.9020   25.8290   35.2270 C   0  0  0  0  0  3  0  0  0  0  0  0
  1  2  1  0  0  0  0
  2  3  2  0  0  0  0
  3  7  1  0  0  0  0
  4  3  1  0  0  0  0
  5  4  2  0  0  0  0
  6  1  2  0  0  0  0
  6  5  1  0  0  0  0
  7 12  1  0  0  0  0
  7  8  1  0  0  0  0
  8 16  1  0  0  0  0
  8  9  1  0  0  0  0
  9 18  1  0  0  0  0
  9 10  1  0  0  0  0
  9 19  1  0  0  0  0
 10 20  1  0  0  0  0
 11 21  1  0  0  0  0
 11 10  1  0  0  0  0
 12 23  1  1  0  0  0
 12 11  1  0  0  0  0
 13  1  1  0  0  0  0
 14  2  1  0  0  0  0
 15  5  1  0  0  0  0
 17  8  1  0  0  0  0
 22 11  1  0  0  0  0
 24 27  1  0  0  0  0
 24 12  1  0  0  0  0
 25 24  1  0  0  0  0
 26 24  1  0  0  0  0
 27 28  1  0  0  0  0
 29 27  1  0  0  0  0
 30 38  1  0  0  0  0
 30 27  1  0  0  0  0
 31 30  2  0  0  0  0
 32 31  1  0  0  0  0
 33 34  2  0  0  0  0
 33 31  1  0  0  0  0
 34 36  1  0  0  0  0
 35 34  1  0  0  0  0
 36 37  1  0  0  0  0
 36 38  2  0  0  0  0
M  END
>  <minimizedAffinity>
-5.22415829

$$$$

 OpenBabel03262523413D

 38 40  0  0  1  0  0  0  0  0999 V2000
   38.0230   22.4120   31.7400 C   0  0  0  0  0  0  0  0  0  0  0  0
   37.9650   23.7840   31.9630 C   0  0  0  0  0  0  0  0  0  0  0  0
   36.7980   24.5110   31.8630 C   0  0  0  0  0  0  0  0  0  0  0  0
   35.7120   23.7800   31.5290 N   0  0  0  0  0  0  0  0  0  0  0  0
   35.7280   22.4540   31.3050 C   0  0  0  0  0  0  0  0  0  0  0  0
   36.8900   21.7780   31.4140 N   0  0  0  0  0  0  0  0  0  0  0  0
   36.7440   25.8920   32.0880 N   0  0  0  0  0  0  0  0  0  0  0  0
   36.5990   26.7310   30.9330 C   0  0  0  0  0  0  0  0  0  0  0  0
   36.5680   28.1900   31.2070 C   0  0  0  0  0  0  0  0  0  0  0  0
   36.3680   28.5970   32.5270 N   0  0  0  0  0  0  0  0  0  0  0  0
   36.9700   27.8470   33.5570 C   0  0  0  0  0  0  0  0  0  0  0  0
   36.8340   26.3630   33.4500 C   0  0  2  0  0  0  0  0  0  0  0  0
   38.9320   21.8460   31.8190 H   0  0  0  0  0  0  0  0  0  0  0  0
   38.9160   24.2160   32.2160 H   0  0  0  0  0  0  0  0  0  0  0  0
   34.7860   21.9860   31.0430 H   0  0  0  0  0  0  0  0  0  0  0  0
   35.6530   26.3980   30.4290 H   0  0  0  0  0  0  0  0  0  0  0  0
   37.3990   26.4430   30.2180 H   0  0  0  0  0  0  0  0  0  0  0  0
   37.5380   28.6180   30.8590 H   0  0  0  0  0  0  0  0  0  0  0  0
   35.7980   28.6610   30.5540 H   0  0  0  0  0  0  0  0  0  0  0  0
   35.3810   28.8870   32.7050 H   0  0  0  0  0  0  0  0  0  0  0  0
   36.5590   28.1910   34.5080 H   0  0  0  0  0  0  0  0  0  0  0  0
   38.0620   28.1300   33.5400 H   0  0  0  0  0  0  0  0  0  0  0  0
   35.9300   25.9910   33.9740 H   0  0  0  0  0  0  0  0  0  0  0  0
   38.0200   25.7910   34.1980 C   0  0  0  0  0  0  0  0  0  0  0  0
   38.2780   24.7950   33.8700 H   0  0  0  0  0  0  0  0  0  0  0  0
   38.8350   26.5580   34.0640 H   0  0  0  0  0  0  0  0  0  0  0  0
   37.6740   25.8870   35.6780 C   0  0  0  0  0  0  0  0  0  0  0  0
   38.0240   26.8000   36.1710 H   0  0  0  0  0  0  0  0  0  0  0  0
   36.6180   25.7260   35.8940 H   0  0  0  0  0  0  0  0  0  0  0  0
   38.3950   24.7870   36.4300 C   0  0  0  0  0  0  0  0  0  0  0  0
   38.0580   24.3700   37.6950 C   0  0  0  0  0  0  0  0  0  0  0  0
   37.2360   24.8490   38.1810 H   0  0  0  0  0  0  0  0  0  0  0  0
   38.7790   23.3580   38.2930 C   0  0  0  0  0  3  0  0  0  0  0  0
   39.8520   22.7390   37.6480 C   0  0  0  0  0  0  0  0  0  0  0  0
   40.4130   21.9460   38.1280 H   0  0  0  0  0  0  0  0  0  0  0  0
   40.2130   23.1360   36.3830 C   0  0  0  0  0  0  0  0  0  0  0  0
   41.0330   22.7080   35.8100 H   0  0  0  0  0  0  0  0  0  0  0  0
   39.4610   24.1480   35.8320 C   0  0  0  0  0  3  0  0  0  0  0  0
  1 13  1  0  0  0  0
  1  2  1  0  0  0  0
  2 14  1  0  0  0  0
  3  2  2  0  0  0  0
  3  7  1  0  0  0  0
  4  3  1  0  0  0  0
  5  6  1  0  0  0  0
  5  4  2  0  0  0  0
  6  1  2  0  0  0  0
  7 12  1  0  0  0  0
  8  9  1  0  0  0  0
  8  7  1  0  0  0  0
  9 10  1  0  0  0  0
 10 20  1  0  0  0  0
 10 11  1  0  0  0  0
 11 21  1  0  0  0  0
 12 11  1  0  0  0  0
 12 23  1  1  0  0  0
 12 24  1  0  0  0  0
 15  5  1  0  0  0  0
 16  8  1  0  0  0  0
 17  8  1  0  0  0  0
 18  9  1  0  0  0  0
 19  9  1  0  0  0  0
 22 11  1  0  0  0  0
 24 27  1  0  0  0  0
 25 24  1  0  0  0  0
 26 24  1  0  0  0  0
 27 29  1  0  0  0  0
 27 28  1  0  0  0  0
 27 30  1  0  0  0  0
 30 31  1  0  0  0  0
 31 32  1  0  0  0  0
 31 33  2  0  0  0  0
 34 35  1  0  0  0  0
 34 33  1  0  0  0  0
 36 34  2  0  0  0  0
 37 36  1  0  0  0  0
 38 36  1  0  0  0  0
 38 30  2  0  0  0  0
M  END
>  <minimizedAffinity>
-5.19474697

$$$$

 OpenBabel03262523413D

 38 40  0  0  1  0  0  0  0  0999 V2000
   37.4180   25.7330   33.4240 C   0  0  0  0  0  0  0  0  0  0  0  0
   37.1430   27.0280   32.9960 C   0  0  0  0  0  0  0  0  0  0  0  0
   36.4820   27.3020   31.8170 C   0  0  0  0  0  0  0  0  0  0  0  0
   36.1230   26.2090   31.1110 N   0  0  0  0  0  0  0  0  0  0  0  0
   36.3710   24.9430   31.4910 C   0  0  0  0  0  0  0  0  0  0  0  0
   37.0200   24.7150   32.6520 N   0  0  0  0  0  0  0  0  0  0  0  0
   36.2070   28.6070   31.3900 N   0  0  0  0  0  0  0  0  0  0  0  0
   36.9970   29.1120   30.3040 C   0  0  0  0  0  0  0  0  0  0  0  0
   36.6940   30.5060   29.8910 C   0  0  0  0  0  0  0  0  0  0  0  0
   35.5060   31.0750   30.3550 N   0  0  0  0  0  0  0  0  0  0  0  0
   35.0880   30.7750   31.6660 C   0  0  0  0  0  0  0  0  0  0  0  0
   35.1590   29.3360   32.0630 C   0  0  2  0  0  0  0  0  0  0  0  0
   37.9320   25.5190   34.3420 H   0  0  0  0  0  0  0  0  0  0  0  0
   37.4980   27.7850   33.6700 H   0  0  0  0  0  0  0  0  0  0  0  0
   36.0300   24.1530   30.8320 H   0  0  0  0  0  0  0  0  0  0  0  0
   36.8400   28.3990   29.4520 H   0  0  0  0  0  0  0  0  0  0  0  0
   38.0630   28.9670   30.5820 H   0  0  0  0  0  0  0  0  0  0  0  0
   37.5390   31.1500   30.2360 H   0  0  0  0  0  0  0  0  0  0  0  0
   36.7250   30.5660   28.7800 H   0  0  0  0  0  0  0  0  0  0  0  0
   34.7530   31.0570   29.6300 H   0  0  0  0  0  0  0  0  0  0  0  0
   34.0670   31.1450   31.7860 H   0  0  0  0  0  0  0  0  0  0  0  0
   35.7500   31.3880   32.3420 H   0  0  0  0  0  0  0  0  0  0  0  0
   34.2110   28.8010   31.8480 H   0  0  0  0  0  0  0  0  0  0  0  0
   35.3090   29.3370   33.5700 C   0  0  0  0  0  0  0  0  0  0  0  0
   35.7460   28.4240   33.9440 H   0  0  0  0  0  0  0  0  0  0  0  0
   35.9010   30.2710   33.7940 H   0  0  0  0  0  0  0  0  0  0  0  0
   33.9280   29.6420   34.1330 C   0  0  0  0  0  0  0  0  0  0  0  0
   33.2470   30.1380   33.4330 H   0  0  0  0  0  0  0  0  0  0  0  0
   33.4370   28.7810   34.5860 H   0  0  0  0  0  0  0  0  0  0  0  0
   34.0600   30.6480   35.2590 C   0  0  0  0  0  0  0  0  0  0  0  0
   33.0830   30.8930   36.1920 C   0  0  0  0  0  0  0  0  0  0  0  0
   32.1700   30.3430   36.1220 H   0  0  0  0  0  0  0  0  0  0  0  0
   33.3030   31.8310   37.1790 C   0  0  0  0  0  3  0  0  0  0  0  0
   34.4990   32.5450   37.2610 C   0  0  0  0  0  0  0  0  0  0  0  0
   34.6620   33.2800   38.0400 H   0  0  0  0  0  0  0  0  0  0  0  0
   35.4960   32.3210   36.3420 C   0  0  0  0  0  0  0  0  0  0  0  0
   36.4570   32.8320   36.3320 H   0  0  0  0  0  0  0  0  0  0  0  0
   35.2250   31.3760   35.3790 C   0  0  0  0  0  3  0  0  0  0  0  0
  1 13  1  0  0  0  0
  2  1  1  0  0  0  0
  2 14  1  0  0  0  0
  3  2  2  0  0  0  0
  4  5  2  0  0  0  0
  4  3  1  0  0  0  0
  5  6  1  0  0  0  0
  6  1  2  0  0  0  0
  7  3  1  0  0  0  0
  7 12  1  0  0  0  0
  8 17  1  0  0  0  0
  8  7  1  0  0  0  0
  9 18  1  0  0  0  0
  9  8  1  0  0  0  0
  9 10  1  0  0  0  0
 10 11  1  0  0  0  0
 11 21  1  0  0  0  0
 11 12  1  0  0  0  0
 11 22  1  0  0  0  0
 12 23  1  6  0  0  0
 12 24  1  0  0  0  0
 15  5  1  0  0  0  0
 16  8  1  0  0  0  0
 19  9  1  0  0  0  0
 20 10  1  0  0  0  0
 24 26  1  0  0  0  0
 24 25  1  0  0  0  0
 24 27  1  0  0  0  0
 27 29  1  0  0  0  0
 27 30  1  0  0  0  0
 28 27  1  0  0  0  0
 30 38  2  0  0  0  0
 30 31  1  0  0  0  0
 31 33  2  0  0  0  0
 32 31  1  0  0  0  0
 33 34  1  0  0  0  0
 34 35  1  0  0  0  0
 36 34  2  0  0  0  0
 37 36  1  0  0  0  0
 38 36  1  0  0  0  0
M  END
>  <minimizedAffinity>
-5.17899513

$$$$

 OpenBabel03262523413D

 38 40  0  0  1  0  0  0  0  0999 V2000
   38.3650   26.9320   36.1950 C   0  0  0  0  0  0  0  0  0  0  0  0
   37.9940   27.5480   35.0030 C   0  0  0  0  0  0  0  0  0  0  0  0
   37.6600   26.8420   33.8680 C   0  0  0  0  0  0  0  0  0  0  0  0
   37.7220   25.5000   34.0050 N   0  0  0  0  0  0  0  0  0  0  0  0
   38.0750   24.8680   35.1390 C   0  0  0  0  0  0  0  0  0  0  0  0
   38.3950   25.5940   36.2300 N   0  0  0  0  0  0  0  0  0  0  0  0
   37.2870   27.4660   32.6700 N   0  0  0  0  0  0  0  0  0  0  0  0
   38.2510   27.4530   31.6070 C   0  0  0  0  0  0  0  0  0  0  0  0
   37.8320   28.1430   30.3600 C   0  0  0  0  0  0  0  0  0  0  0  0
   36.4790   28.4550   30.2170 N   0  0  0  0  0  0  0  0  0  0  0  0
   35.7640   28.8740   31.3570 C   0  0  0  0  0  0  0  0  0  0  0  0
   35.9770   28.0670   32.5950 C   0  0  2  0  0  0  0  0  0  0  0  0
   38.6240   27.4820   37.0800 H   0  0  0  0  0  0  0  0  0  0  0  0
   37.9990   28.6210   35.0590 H   0  0  0  0  0  0  0  0  0  0  0  0
   38.0850   23.7850   35.1180 H   0  0  0  0  0  0  0  0  0  0  0  0
   38.4750   26.3720   31.4100 H   0  0  0  0  0  0  0  0  0  0  0  0
   39.2010   27.8520   32.0220 H   0  0  0  0  0  0  0  0  0  0  0  0
   38.4120   29.0950   30.2910 H   0  0  0  0  0  0  0  0  0  0  0  0
   38.1670   27.5410   29.4860 H   0  0  0  0  0  0  0  0  0  0  0  0
   35.9810   27.7720   29.6030 H   0  0  0  0  0  0  0  0  0  0  0  0
   34.7020   28.8910   31.1000 H   0  0  0  0  0  0  0  0  0  0  0  0
   36.0830   29.9400   31.5390 H   0  0  0  0  0  0  0  0  0  0  0  0
   35.2440   27.2390   32.6810 H   0  0  0  0  0  0  0  0  0  0  0  0
   35.6880   29.0070   33.7480 C   0  0  0  0  0  0  0  0  0  0  0  0
   35.0780   28.5500   34.5120 H   0  0  0  0  0  0  0  0  0  0  0  0
   36.7040   29.3480   34.0950 H   0  0  0  0  0  0  0  0  0  0  0  0
   35.0770   30.2580   33.1300 C   0  0  0  0  0  0  0  0  0  0  0  0
   35.3350   30.4200   32.0780 H   0  0  0  0  0  0  0  0  0  0  0  0
   34.0000   30.3370   33.2690 H   0  0  0  0  0  0  0  0  0  0  0  0
   35.6470   31.4810   33.8200 C   0  0  0  0  0  0  0  0  0  0  0  0
   36.2180   32.5420   33.1600 C   0  0  0  0  0  0  0  0  0  0  0  0
   36.2650   32.5050   32.0930 H   0  0  0  0  0  0  0  0  0  0  0  0
   36.7070   33.6090   33.8820 C   0  0  0  0  0  3  0  0  0  0  0  0
   36.6400   33.6470   35.2760 C   0  0  0  0  0  0  0  0  0  0  0  0
   37.0280   34.4910   35.8340 H   0  0  0  0  0  0  0  0  0  0  0  0
   36.0740   32.6010   35.9640 C   0  0  0  0  0  0  0  0  0  0  0  0
   35.9820   32.5490   37.0470 H   0  0  0  0  0  0  0  0  0  0  0  0
   35.6020   31.5610   35.1960 C   0  0  0  0  0  3  0  0  0  0  0  0
  1  6  1  0  0  0  0
  1 13  1  0  0  0  0
  2 14  1  0  0  0  0
  2  1  2  0  0  0  0
  3  4  2  0  0  0  0
  3  2  1  0  0  0  0
  4  5  1  0  0  0  0
  5  6  2  0  0  0  0
  7  3  1  0  0  0  0
  8 17  1  0  0  0  0
  8  7  1  0  0  0  0
  9  8  1  0  0  0  0
 10  9  1  0  0  0  0
 10 11  1  0  0  0  0
 11 22  1  0  0  0  0
 11 12  1  0  0  0  0
 12  7  1  0  0  0  0
 12 23  1  1  0  0  0
 12 24  1  0  0  0  0
 15  5  1  0  0  0  0
 16  8  1  0  0  0  0
 18  9  1  0  0  0  0
 19  9  1  0  0  0  0
 20 10  1  0  0  0  0
 21 11  1  0  0  0  0
 24 26  1  0  0  0  0
 24 25  1  0  0  0  0
 27 29  1  0  0  0  0
 27 24  1  0  0  0  0
 27 30  1  0  0  0  0
 28 27  1  0  0  0  0
 30 38  1  0  0  0  0
 31 30  2  0  0  0  0
 31 33  1  0  0  0  0
 32 31  1  0  0  0  0
 33 34  2  0  0  0  0
 34 35  1  0  0  0  0
 34 36  1  0  0  0  0
 36 37  1  0  0  0  0
 38 36  2  0  0  0  0
M  END
>  <minimizedAffinity>
-5.16670799

$$$$

 OpenBabel03262523413D

 38 40  0  0  1  0  0  0  0  0999 V2000
   39.4880   24.1080   35.4830 C   0  0  0  0  0  0  0  0  0  0  0  0
   38.4480   24.3660   34.5960 C   0  0  0  0  0  0  0  0  0  0  0  0
   38.6060   25.1230   33.4550 C   0  0  0  0  0  0  0  0  0  0  0  0
   39.8580   25.5950   33.2680 N   0  0  0  0  0  0  0  0  0  0  0  0
   40.8880   25.3680   34.1020 C   0  0  0  0  0  0  0  0  0  0  0  0
   40.6930   24.6210   35.2080 N   0  0  0  0  0  0  0  0  0  0  0  0
   37.5560   25.3810   32.5650 N   0  0  0  0  0  0  0  0  0  0  0  0
   37.0040   26.7050   32.5820 C   0  0  0  0  0  0  0  0  0  0  0  0
   35.8780   26.9370   31.6430 C   0  0  0  0  0  0  0  0  0  0  0  0
   35.6680   25.9900   30.6380 N   0  0  0  0  0  0  0  0  0  0  0  0
   35.8680   24.6300   30.9480 C   0  0  0  0  0  0  0  0  0  0  0  0
   37.1150   24.3090   31.7050 C   0  0  2  0  0  0  0  0  0  0  0  0
   39.3650   23.5170   36.3710 H   0  0  0  0  0  0  0  0  0  0  0  0
   37.5150   23.9210   34.8910 H   0  0  0  0  0  0  0  0  0  0  0  0
   41.8440   25.8050   33.8360 H   0  0  0  0  0  0  0  0  0  0  0  0
   37.8590   27.3970   32.3610 H   0  0  0  0  0  0  0  0  0  0  0  0
   36.7390   26.9350   33.6370 H   0  0  0  0  0  0  0  0  0  0  0  0
   34.9430   27.0070   32.2480 H   0  0  0  0  0  0  0  0  0  0  0  0
   35.9950   27.9440   31.1830 H   0  0  0  0  0  0  0  0  0  0  0  0
   36.0530   26.3000   29.7180 H   0  0  0  0  0  0  0  0  0  0  0  0
   35.8430   24.0650   30.0140 H   0  0  0  0  0  0  0  0  0  0  0  0
   34.9670   24.3220   31.5520 H   0  0  0  0  0  0  0  0  0  0  0  0
   37.9630   24.0770   31.0280 H   0  0  0  0  0  0  0  0  0  0  0  0
   36.8160   23.0290   32.4570 C   0  0  0  0  0  0  0  0  0  0  0  0
   37.6660   22.3660   32.5030 H   0  0  0  0  0  0  0  0  0  0  0  0
   36.4300   23.3740   33.4590 H   0  0  0  0  0  0  0  0  0  0  0  0
   35.5900   22.4220   31.7880 C   0  0  0  0  0  0  0  0  0  0  0  0
   34.6450   22.6060   32.3110 H   0  0  0  0  0  0  0  0  0  0  0  0
   35.4910   22.6790   30.7340 H   0  0  0  0  0  0  0  0  0  0  0  0
   35.7090   20.9110   31.8080 C   0  0  0  0  0  0  0  0  0  0  0  0
   35.2830   20.1180   32.8460 C   0  0  0  0  0  0  0  0  0  0  0  0
   34.8400   20.5930   33.6940 H   0  0  0  0  0  0  0  0  0  0  0  0
   35.4380   18.7510   32.7660 C   0  0  0  0  0  3  0  0  0  0  0  0
   36.0190   18.1400   31.6530 C   0  0  0  0  0  0  0  0  0  0  0  0
   36.1360   17.0640   31.6010 H   0  0  0  0  0  0  0  0  0  0  0  0
   36.4550   18.9070   30.5990 C   0  0  0  0  0  0  0  0  0  0  0  0
   36.9180   18.5140   29.6970 H   0  0  0  0  0  0  0  0  0  0  0  0
   36.2770   20.2650   30.7300 C   0  0  0  0  0  3  0  0  0  0  0  0
  1 13  1  0  0  0  0
  2 14  1  0  0  0  0
  2  1  2  0  0  0  0
  3  2  1  0  0  0  0
  4  3  2  0  0  0  0
  4  5  1  0  0  0  0
  5  6  2  0  0  0  0
  6  1  1  0  0  0  0
  7  8  1  0  0  0  0
  7  3  1  0  0  0  0
  8 17  1  0  0  0  0
  9 18  1  0  0  0  0
  9  8  1  0  0  0  0
 10 11  1  0  0  0  0
 10  9  1  0  0  0  0
 11 22  1  0  0  0  0
 11 12  1  0  0  0  0
 12 23  1  6  0  0  0
 12 24  1  0  0  0  0
 12  7  1  0  0  0  0
 15  5  1  0  0  0  0
 16  8  1  0  0  0  0
 19  9  1  0  0  0  0
 20 10  1  0  0  0  0
 21 11  1  0  0  0  0
 24 25  1  0  0  0  0
 24 26  1  0  0  0  0
 27 30  1  0  0  0  0
 27 28  1  0  0  0  0
 27 24  1  0  0  0  0
 29 27  1  0  0  0  0
 30 31  1  0  0  0  0
 31 32  1  0  0  0  0
 33 31  2  0  0  0  0
 34 33  1  0  0  0  0
 35 34  1  0  0  0  0
 36 38  1  0  0  0  0
 36 34  2  0  0  0  0
 37 36  1  0  0  0  0
 38 30  2  0  0  0  0
M  END
>  <minimizedAffinity>
-5.13891506

$$$$

 OpenBabel03262523413D

 38 40  0  0  1  0  0  0  0  0999 V2000
   37.5400   27.0170   33.4380 C   0  0  0  0  0  0  0  0  0  0  0  0
   37.3400   25.6490   33.2900 C   0  0  0  0  0  0  0  0  0  0  0  0
   37.2420   25.0350   32.0600 C   0  0  0  0  0  0  0  0  0  0  0  0
   37.3560   25.8720   31.0070 N   0  0  0  0  0  0  0  0  0  0  0  0
   37.5500   27.1990   31.1090 C   0  0  0  0  0  0  0  0  0  0  0  0
   37.6410   27.7630   32.3310 N   0  0  0  0  0  0  0  0  0  0  0  0
   37.0410   23.6560   31.9150 N   0  0  0  0  0  0  0  0  0  0  0  0
   35.7330   23.2330   31.5030 C   0  0  0  0  0  0  0  0  0  0  0  0
   35.5480   21.7650   31.3820 C   0  0  0  0  0  0  0  0  0  0  0  0
   36.6940   20.9670   31.3670 N   0  0  0  0  0  0  0  0  0  0  0  0
   37.7720   21.3290   32.1990 C   0  0  0  0  0  0  0  0  0  0  0  0
   38.1510   22.7750   32.1860 C   0  0  2  0  0  0  0  0  0  0  0  0
   37.6170   27.4960   34.3960 H   0  0  0  0  0  0  0  0  0  0  0  0
   37.2660   25.1250   34.2250 H   0  0  0  0  0  0  0  0  0  0  0  0
   37.6250   27.7600   30.1840 H   0  0  0  0  0  0  0  0  0  0  0  0
   35.5410   23.7430   30.5220 H   0  0  0  0  0  0  0  0  0  0  0  0
   35.0040   23.7030   32.1960 H   0  0  0  0  0  0  0  0  0  0  0  0
   34.9120   21.4340   32.2370 H   0  0  0  0  0  0  0  0  0  0  0  0
   34.9390   21.5530   30.4740 H   0  0  0  0  0  0  0  0  0  0  0  0
   36.9560   20.6720   30.4000 H   0  0  0  0  0  0  0  0  0  0  0  0
   38.6320   20.7160   31.9220 H   0  0  0  0  0  0  0  0  0  0  0  0
   37.4650   21.0270   33.2410 H   0  0  0  0  0  0  0  0  0  0  0  0
   38.9230   22.9930   31.4210 H   0  0  0  0  0  0  0  0  0  0  0  0
   38.8030   23.0360   33.5290 C   0  0  0  0  0  0  0  0  0  0  0  0
   39.8700   22.8750   33.5090 H   0  0  0  0  0  0  0  0  0  0  0  0
   38.4870   24.0840   33.7960 H   0  0  0  0  0  0  0  0  0  0  0  0
   38.0610   22.1670   34.5350 C   0  0  0  0  0  0  0  0  0  0  0  0
   36.9760   22.3170   34.5570 H   0  0  0  0  0  0  0  0  0  0  0  0
   38.2900   21.1050   34.4550 H   0  0  0  0  0  0  0  0  0  0  0  0
   38.4930   22.5500   35.9360 C   0  0  0  0  0  0  0  0  0  0  0  0
   39.7540   22.3420   36.4380 C   0  0  0  0  0  0  0  0  0  0  0  0
   40.4790   21.8800   35.8030 H   0  0  0  0  0  0  0  0  0  0  0  0
   40.0470   22.7280   37.7280 C   0  0  0  0  0  3  0  0  0  0  0  0
   39.0920   23.3310   38.5500 C   0  0  0  0  0  0  0  0  0  0  0  0
   39.3330   23.6300   39.5630 H   0  0  0  0  0  0  0  0  0  0  0  0
   37.8210   23.5520   38.0770 C   0  0  0  0  0  0  0  0  0  0  0  0
   37.0190   24.0140   38.6480 H   0  0  0  0  0  0  0  0  0  0  0  0
   37.5820   23.1480   36.7830 C   0  0  0  0  0  3  0  0  0  0  0  0
  1 13  1  0  0  0  0
  2  1  1  0  0  0  0
  2 14  1  0  0  0  0
  3  2  2  0  0  0  0
  4  5  2  0  0  0  0
  4  3  1  0  0  0  0
  5  6  1  0  0  0  0
  6  1  2  0  0  0  0
  7  3  1  0  0  0  0
  7 12  1  0  0  0  0
  8  7  1  0  0  0  0
  8 17  1  0  0  0  0
  9  8  1  0  0  0  0
  9 18  1  0  0  0  0
 10  9  1  0  0  0  0
 10 11  1  0  0  0  0
 11 22  1  0  0  0  0
 12 23  1  6  0  0  0
 12 11  1  0  0  0  0
 12 24  1  0  0  0  0
 15  5  1  0  0  0  0
 16  8  1  0  0  0  0
 19  9  1  0  0  0  0
 20 10  1  0  0  0  0
 21 11  1  0  0  0  0
 24 26  1  0  0  0  0
 24 27  1  0  0  0  0
 25 24  1  0  0  0  0
 27 28  1  0  0  0  0
 27 30  1  0  0  0  0
 29 27  1  0  0  0  0
 30 31  2  0  0  0  0
 30 38  1  0  0  0  0
 31 33  1  0  0  0  0
 32 31  1  0  0  0  0
 33 34  2  0  0  0  0
 34 35  1  0  0  0  0
 36 34  1  0  0  0  0
 36 37  1  0  0  0  0
 38 36  2  0  0  0  0
M  END
>  <minimizedAffinity>
-5.09671831

$$$$

 OpenBabel03262523413D

 38 40  0  0  1  0  0  0  0  0999 V2000
   40.0140   26.6420   35.1560 C   0  0  0  0  0  0  0  0  0  0  0  0
   39.2300   27.2190   34.1620 C   0  0  0  0  0  0  0  0  0  0  0  0
   38.8130   26.5310   33.0420 C   0  0  0  0  0  0  0  0  0  0  0  0
   39.2290   25.2480   32.9890 N   0  0  0  0  0  0  0  0  0  0  0  0
   39.9870   24.6540   33.9280 C   0  0  0  0  0  0  0  0  0  0  0  0
   40.3740   25.3610   35.0100 N   0  0  0  0  0  0  0  0  0  0  0  0
   38.0240   27.1160   32.0440 N   0  0  0  0  0  0  0  0  0  0  0  0
   38.6770   27.4340   30.8070 C   0  0  0  0  0  0  0  0  0  0  0  0
   37.8170   28.0730   29.7790 C   0  0  0  0  0  0  0  0  0  0  0  0
   36.4340   28.0240   29.9710 N   0  0  0  0  0  0  0  0  0  0  0  0
   35.9350   28.1580   31.2820 C   0  0  0  0  0  0  0  0  0  0  0  0
   36.6290   27.3520   32.3310 C   0  0  2  0  0  0  0  0  0  0  0  0
   40.3380   27.1770   36.0280 H   0  0  0  0  0  0  0  0  0  0  0  0
   38.9890   28.2480   34.3530 H   0  0  0  0  0  0  0  0  0  0  0  0
   40.2530   23.6160   33.7660 H   0  0  0  0  0  0  0  0  0  0  0  0
   39.1020   26.4670   30.4270 H   0  0  0  0  0  0  0  0  0  0  0  0
   39.5730   28.0410   31.0560 H   0  0  0  0  0  0  0  0  0  0  0  0
   38.1150   29.1470   29.7110 H   0  0  0  0  0  0  0  0  0  0  0  0
   38.0670   27.6440   28.7830 H   0  0  0  0  0  0  0  0  0  0  0  0
   35.9840   27.2790   29.3950 H   0  0  0  0  0  0  0  0  0  0  0  0
   34.8720   27.9110   31.2630 H   0  0  0  0  0  0  0  0  0  0  0  0
   36.0210   29.2550   31.5280 H   0  0  0  0  0  0  0  0  0  0  0  0
   36.1610   26.3550   32.4640 H   0  0  0  0  0  0  0  0  0  0  0  0
   36.4070   28.0980   33.6300 C   0  0  0  0  0  0  0  0  0  0  0  0
   35.6770   27.6180   34.2640 H   0  0  0  0  0  0  0  0  0  0  0  0
   37.4360   28.1920   34.0810 H   0  0  0  0  0  0  0  0  0  0  0  0
   36.0510   29.5270   33.2410 C   0  0  0  0  0  0  0  0  0  0  0  0
   36.9100   30.1970   33.1290 H   0  0  0  0  0  0  0  0  0  0  0  0
   35.4030   29.5980   32.3690 H   0  0  0  0  0  0  0  0  0  0  0  0
   35.2570   30.1640   34.3640 C   0  0  0  0  0  0  0  0  0  0  0  0
   33.9090   29.9820   34.5540 C   0  0  0  0  0  0  0  0  0  0  0  0
   33.3840   29.3530   33.8690 H   0  0  0  0  0  0  0  0  0  0  0  0
   33.2800   30.6080   35.6090 C   0  0  0  0  0  3  0  0  0  0  0  0
   33.9760   31.4290   36.4990 C   0  0  0  0  0  0  0  0  0  0  0  0
   33.4710   31.9160   37.3250 H   0  0  0  0  0  0  0  0  0  0  0  0
   35.3250   31.6300   36.3350 C   0  0  0  0  0  0  0  0  0  0  0  0
   35.9420   32.2510   36.9800 H   0  0  0  0  0  0  0  0  0  0  0  0
   35.9040   30.9820   35.2670 C   0  0  0  0  0  3  0  0  0  0  0  0
  1 13  1  0  0  0  0
  2 14  1  0  0  0  0
  2  1  2  0  0  0  0
  3  2  1  0  0  0  0
  4  3  2  0  0  0  0
  4  5  1  0  0  0  0
  5  6  2  0  0  0  0
  6  1  1  0  0  0  0
  7 12  1  0  0  0  0
  7  3  1  0  0  0  0
  8 17  1  0  0  0  0
  8  7  1  0  0  0  0
  9 10  1  0  0  0  0
  9  8  1  0  0  0  0
 10 11  1  0  0  0  0
 11 22  1  0  0  0  0
 11 12  1  0  0  0  0
 12 23  1  1  0  0  0
 12 24  1  0  0  0  0
 15  5  1  0  0  0  0
 16  8  1  0  0  0  0
 18  9  1  0  0  0  0
 19  9  1  0  0  0  0
 20 10  1  0  0  0  0
 21 11  1  0  0  0  0
 24 26  1  0  0  0  0
 24 25  1  0  0  0  0
 27 24  1  0  0  0  0
 27 30  1  0  0  0  0
 28 27  1  0  0  0  0
 29 27  1  0  0  0  0
 30 31  2  0  0  0  0
 30 38  1  0  0  0  0
 31 33  1  0  0  0  0
 32 31  1  0  0  0  0
 33 34  2  0  0  0  0
 34 35  1  0  0  0  0
 36 34  1  0  0  0  0
 36 37  1  0  0  0  0
 38 36  2  0  0  0  0
M  END
>  <minimizedAffinity>
-5.0451827

$$$$

 OpenBabel03262523413D

 38 40  0  0  1  0  0  0  0  0999 V2000
   34.8170   32.5290   37.0870 C   0  0  0  0  0  0  0  0  0  0  0  0
   34.3090   31.5130   36.2840 C   0  0  0  0  0  0  0  0  0  0  0  0
   33.3070   31.7170   35.3600 C   0  0  0  0  0  0  0  0  0  0  0  0
   32.8560   32.9890   35.2970 N   0  0  0  0  0  0  0  0  0  0  0  0
   33.3210   33.9980   36.0560 C   0  0  0  0  0  0  0  0  0  0  0  0
   34.3030   33.7580   36.9490 N   0  0  0  0  0  0  0  0  0  0  0  0
   32.7990   30.6910   34.5540 N   0  0  0  0  0  0  0  0  0  0  0  0
   31.4960   30.1910   34.8880 C   0  0  0  0  0  0  0  0  0  0  0  0
   30.9980   29.0880   34.0270 C   0  0  0  0  0  0  0  0  0  0  0  0
   31.6660   28.8540   32.8230 N   0  0  0  0  0  0  0  0  0  0  0  0
   33.0680   28.9960   32.7970 C   0  0  0  0  0  0  0  0  0  0  0  0
   33.6130   30.2190   33.4600 C   0  0  2  0  0  0  0  0  0  0  0  0
   35.5980   32.3710   37.8060 H   0  0  0  0  0  0  0  0  0  0  0  0
   34.7720   30.5590   36.4600 H   0  0  0  0  0  0  0  0  0  0  0  0
   32.8730   34.9740   35.9070 H   0  0  0  0  0  0  0  0  0  0  0  0
   30.8070   31.0750   34.8430 H   0  0  0  0  0  0  0  0  0  0  0  0
   31.5160   29.9210   35.9650 H   0  0  0  0  0  0  0  0  0  0  0  0
   31.0370   28.1480   34.6280 H   0  0  0  0  0  0  0  0  0  0  0  0
   29.9160   29.2520   33.8240 H   0  0  0  0  0  0  0  0  0  0  0  0
   31.1600   29.2650   32.0070 H   0  0  0  0  0  0  0  0  0  0  0  0
   33.3900   28.9620   31.7540 H   0  0  0  0  0  0  0  0  0  0  0  0
   33.4750   28.0760   33.3060 H   0  0  0  0  0  0  0  0  0  0  0  0
   33.7100   31.0660   32.7500 H   0  0  0  0  0  0  0  0  0  0  0  0
   35.0230   29.8590   33.8800 C   0  0  0  0  0  0  0  0  0  0  0  0
   35.6860   30.7110   33.8820 H   0  0  0  0  0  0  0  0  0  0  0  0
   34.8990   29.3540   34.8810 H   0  0  0  0  0  0  0  0  0  0  0  0
   35.4640   28.7300   32.9580 C   0  0  0  0  0  0  0  0  0  0  0  0
   34.7660   27.8880   32.9010 H   0  0  0  0  0  0  0  0  0  0  0  0
   35.7360   29.0600   31.9570 H   0  0  0  0  0  0  0  0  0  0  0  0
   36.7250   28.0990   33.5130 C   0  0  0  0  0  0  0  0  0  0  0  0
   37.7270   27.5700   32.7370 C   0  0  0  0  0  0  0  0  0  0  0  0
   37.6130   27.6020   31.6750 H   0  0  0  0  0  0  0  0  0  0  0  0
   38.8370   27.0180   33.3410 C   0  0  0  0  0  3  0  0  0  0  0  0
   38.9760   26.9790   34.7300 C   0  0  0  0  0  0  0  0  0  0  0  0
   39.8520   26.5430   35.1940 H   0  0  0  0  0  0  0  0  0  0  0  0
   37.9900   27.5010   35.5330 C   0  0  0  0  0  0  0  0  0  0  0  0
   38.0180   27.5130   36.6200 H   0  0  0  0  0  0  0  0  0  0  0  0
   36.9050   28.0400   34.8790 C   0  0  0  0  0  3  0  0  0  0  0  0
  1 13  1  0  0  0  0
  2 14  1  0  0  0  0
  2  1  2  0  0  0  0
  3  2  1  0  0  0  0
  4  3  2  0  0  0  0
  4  5  1  0  0  0  0
  5  6  2  0  0  0  0
  6  1  1  0  0  0  0
  7  8  1  0  0  0  0
  7  3  1  0  0  0  0
  8 17  1  0  0  0  0
  9 18  1  0  0  0  0
  9  8  1  0  0  0  0
 10  9  1  0  0  0  0
 11 10  1  0  0  0  0
 11 22  1  0  0  0  0
 11 12  1  0  0  0  0
 12 23  1  6  0  0  0
 12 24  1  0  0  0  0
 12  7  1  0  0  0  0
 15  5  1  0  0  0  0
 16  8  1  0  0  0  0
 19  9  1  0  0  0  0
 20 10  1  0  0  0  0
 21 11  1  0  0  0  0
 24 25  1  0  0  0  0
 24 26  1  0  0  0  0
 27 30  1  0  0  0  0
 27 24  1  0  0  0  0
 28 27  1  0  0  0  0
 29 27  1  0  0  0  0
 30 38  1  0  0  0  0
 31 33  1  0  0  0  0
 31 30  2  0  0  0  0
 32 31  1  0  0  0  0
 33 34  2  0  0  0  0
 34 35  1  0  0  0  0
 34 36  1  0  0  0  0
 36 37  1  0  0  0  0
 38 36  2  0  0  0  0
M  END
>  <minimizedAffinity>
-5.01583815

$$$$
