
 OpenBabel03272506413D

 19 20  0  0  0  0  0  0  0  0999 V2000
   32.7690   28.4810   47.4280 S   0  0  0  0  0  0  0  0  0  0  0  0
   35.3910   29.1680   50.3010 C   0  0  0  0  0  0  0  0  0  0  0  0
   36.2280   30.1690   49.7890 C   0  0  0  0  0  0  0  0  0  0  0  0
   35.9800   30.6610   48.5020 C   0  0  0  0  0  0  0  0  0  0  0  0
   34.9300   30.1350   47.8070 N   0  0  0  0  0  0  0  0  0  0  0  0
   34.1470   29.1780   48.3250 C   0  0  0  0  0  0  0  0  0  0  0  0
   34.3650   28.6940   49.5540 N   0  0  0  0  0  0  0  0  0  0  0  0
   35.5280   28.7480   51.2870 H   0  0  0  0  0  0  0  0  0  0  0  0
   37.0390   30.5240   50.4170 H   0  0  0  0  0  0  0  0  0  0  0  0
   36.6180   31.4270   48.1040 H   0  0  0  0  0  0  0  0  0  0  0  0
   32.8490   26.7010   47.3380 C   0  0  0  0  0  0  0  0  0  0  0  0
   31.9490   25.7800   47.8210 C   0  0  0  0  0  0  0  0  0  0  0  0
   31.0920   26.2360   48.3130 H   0  0  0  0  0  0  0  0  0  0  0  0
   32.1910   24.4330   47.6500 C   0  0  0  0  0  3  0  0  0  0  0  0
   33.3290   24.0020   47.0010 C   0  0  0  0  0  0  0  0  0  0  0  0
   33.5180   22.9550   46.8680 H   0  0  0  0  0  0  0  0  0  0  0  0
   34.2430   24.9050   46.5100 C   0  0  0  0  0  0  0  0  0  0  0  0
   35.1360   24.5290   46.0000 H   0  0  0  0  0  0  0  0  0  0  0  0
   33.9990   26.2660   46.6820 C   0  0  0  0  0  3  0  0  0  0  0  0
  1  6  1  0  0  0  0
  2  8  1  0  0  0  0
  3  2  1  0  0  0  0
  3  9  1  0  0  0  0
  4  3  2  0  0  0  0
  5  6  2  0  0  0  0
  5  4  1  0  0  0  0
  6  7  1  0  0  0  0
  7  2  2  0  0  0  0
 10  4  1  0  0  0  0
 11  1  1  0  0  0  0
 11 12  1  0  0  0  0
 12 13  1  0  0  0  0
 14 12  2  0  0  0  0
 15 14  1  0  0  0  0
 16 15  1  0  0  0  0
 17 19  1  0  0  0  0
 17 15  2  0  0  0  0
 18 17  1  0  0  0  0
 19 11  2  0  0  0  0
M  END
>  <minimizedAffinity>
-3.16202021

>  <minimizedRMSD>
2.88238382

$$$$
