
 OpenBabel03272509403D

 35 37  0  0  0  0  0  0  0  0999 V2000
   37.0580   30.9640   49.0670 C   0  0  0  0  0  0  0  0  0  0  0  0
   36.8050   31.8940   50.0800 C   0  0  0  0  0  0  0  0  0  0  0  0
   37.4150   33.1340   50.1040 C   0  0  0  0  0  0  0  0  0  0  0  0
   38.3170   33.4840   49.0910 C   0  0  0  0  0  0  0  0  0  0  0  0
   38.5500   32.5580   48.1060 C   0  0  0  0  0  0  0  0  0  0  0  0
   37.9280   31.3220   48.1020 C   0  0  0  0  0  0  0  0  0  0  0  0
   36.1200   31.6820   50.8890 H   0  0  0  0  0  0  0  0  0  0  0  0
   37.2070   33.8370   50.8950 H   0  0  0  0  0  0  0  0  0  0  0  0
   38.7790   34.4600   49.1360 H   0  0  0  0  0  0  0  0  0  0  0  0
   39.2570   32.9090   47.3660 H   0  0  0  0  0  0  0  0  0  0  0  0
   36.3700   29.6860   49.1240 C   0  0  0  0  0  0  0  0  0  0  0  0
   36.8970   28.8290   49.9170 O   0  0  0  0  0  0  0  0  0  0  0  0
   33.5940   30.1720   46.8440 C   0  0  0  0  0  0  0  0  0  0  0  0
   32.9290   28.9420   46.8460 C   0  0  0  0  0  0  0  0  0  0  0  0
   33.4400   27.9440   47.6370 C   0  0  0  0  0  0  0  0  0  0  0  0
   34.5590   28.1750   48.3820 N   0  0  0  0  0  0  0  0  0  0  0  0
   35.1670   29.3470   48.3600 C   0  0  0  0  0  0  0  0  0  0  0  0
   34.6730   30.3240   47.5910 N   0  0  0  0  0  0  0  0  0  0  0  0
   33.1440   30.9130   46.2030 H   0  0  0  0  0  0  0  0  0  0  0  0
   32.0570   28.6630   46.3070 H   0  0  0  0  0  0  0  0  0  0  0  0
   33.0170   26.9570   47.7230 H   0  0  0  0  0  0  0  0  0  0  0  0
   38.2890   30.4700   46.9960 C   0  0  0  0  0  3  0  0  0  0  0  0
   39.0290   30.8060   45.9500 C   0  0  0  0  0  3  0  0  0  0  0  0
   39.4670   30.0390   44.7690 C   0  0  0  0  0  0  0  0  0  0  0  0
   40.5000   30.2650   44.4520 H   0  0  0  0  0  0  0  0  0  0  0  0
   39.4630   28.9610   45.0450 H   0  0  0  0  0  0  0  0  0  0  0  0
   38.4910   30.1710   43.6350 C   0  0  0  0  0  0  0  0  0  0  0  0
   38.0060   31.4110   43.2830 C   0  0  0  0  0  0  0  0  0  0  0  0
   38.2980   32.3240   43.7950 H   0  0  0  0  0  0  0  0  0  0  0  0
   37.0970   31.5580   42.2300 C   0  0  0  0  0  3  0  0  0  0  0  0
   36.7590   30.3680   41.6110 C   0  0  0  0  0  0  0  0  0  0  0  0
   36.0490   30.4640   40.7860 H   0  0  0  0  0  0  0  0  0  0  0  0
   37.1960   29.1110   41.9030 C   0  0  0  0  0  0  0  0  0  0  0  0
   36.8460   28.2610   41.3340 H   0  0  0  0  0  0  0  0  0  0  0  0
   38.1010   29.0520   42.9680 C   0  0  0  0  0  3  0  0  0  0  0  0
  1 11  1  0  0  0  0
  1  2  1  0  0  0  0
  2  3  2  0  0  0  0
  2  7  1  0  0  0  0
  3  8  1  0  0  0  0
  4  9  1  0  0  0  0
  4  3  1  0  0  0  0
  5  4  2  0  0  0  0
  6  5  1  0  0  0  0
  6  1  2  0  0  0  0
 10  5  1  0  0  0  0
 11 12  2  0  0  0  0
 13 14  2  0  0  0  0
 13 18  1  0  0  0  0
 14 15  1  0  0  0  0
 15 21  1  0  0  0  0
 15 16  2  0  0  0  0
 17 16  1  0  0  0  0
 17 11  1  0  0  0  0
 18 17  2  0  0  0  0
 19 13  1  0  0  0  0
 20 14  1  0  0  0  0
 22  6  1  0  0  0  0
 23 22  2  0  0  0  0
 24 26  1  0  0  0  0
 24 23  1  0  0  0  0
 25 24  1  0  0  0  0
 27 24  1  0  0  0  0
 28 27  1  0  0  0  0
 28 29  1  0  0  0  0
 30 28  2  0  0  0  0
 31 33  2  0  0  0  0
 31 30  1  0  0  0  0
 32 31  1  0  0  0  0
 33 35  1  0  0  0  0
 34 33  1  0  0  0  0
 35 27  2  0  0  0  0
M  END
>  <minimizedAffinity>
-5.69043016

>  <minimizedRMSD>
0.447251379

$$$$
