
 OpenBabel03272509573D

 46 49  0  0  0  0  0  0  0  0999 V2000
   34.4980   28.4390   48.3260 C   0  0  0  0  0  0  0  0  0  0  0  0
   35.5490   28.0810   48.1670 H   0  0  0  0  0  0  0  0  0  0  0  0
   34.3310   29.1520   47.4840 H   0  0  0  0  0  0  0  0  0  0  0  0
   33.5200   27.3000   48.3410 C   0  0  0  0  0  0  0  0  0  0  0  0
   33.8530   26.5610   47.5650 H   0  0  0  0  0  0  0  0  0  0  0  0
   33.4770   26.7380   49.2850 H   0  0  0  0  0  0  0  0  0  0  0  0
   32.1460   27.7120   47.9360 C   0  0  0  0  0  0  0  0  0  0  0  0
   31.1400   27.6030   48.8800 C   0  0  0  0  0  0  0  0  0  0  0  0
   29.8430   27.9580   48.5980 C   0  0  0  0  0  0  0  0  0  0  0  0
   29.5460   28.4210   47.3790 N   0  0  0  0  0  0  0  0  0  0  0  0
   30.5510   28.5200   46.4630 C   0  0  0  0  0  0  0  0  0  0  0  0
   31.8200   28.1800   46.7180 N   0  0  0  0  0  0  0  0  0  0  0  0
   31.3810   27.2260   49.8720 H   0  0  0  0  0  0  0  0  0  0  0  0
   29.0740   27.8560   49.3780 H   0  0  0  0  0  0  0  0  0  0  0  0
   30.1640   29.0430   45.1180 C   0  0  0  0  0  0  0  0  0  0  0  0
   29.0940   28.7950   44.9570 H   0  0  0  0  0  0  0  0  0  0  0  0
   30.7100   28.3850   44.3850 H   0  0  0  0  0  0  0  0  0  0  0  0
   30.4630   30.4670   44.9250 C   0  0  0  0  0  0  0  0  0  0  0  0
   29.4690   31.2420   44.3200 C   0  0  0  0  0  0  0  0  0  0  0  0
   28.5150   30.8250   44.0010 H   0  0  0  0  0  0  0  0  0  0  0  0
   29.6290   32.5920   44.0820 C   0  0  0  0  0  0  0  0  0  0  0  0
   30.8090   33.2000   44.4540 C   0  0  0  0  0  0  0  0  0  0  0  0
   30.9860   34.2650   44.2900 H   0  0  0  0  0  0  0  0  0  0  0  0
   31.7860   32.4450   45.0490 C   0  0  0  0  0  0  0  0  0  0  0  0
   32.7120   32.8720   45.3510 H   0  0  0  0  0  0  0  0  0  0  0  0
   31.6440   31.0770   45.2970 C   0  0  0  0  0  0  0  0  0  0  0  0
   34.4740   29.1360   49.5630 O   0  0  0  0  0  0  0  0  0  0  0  0
   37.2800   29.9770   51.6710 C   0  0  0  0  0  0  0  0  0  0  0  0
   38.0940   30.6660   50.7430 C   0  0  0  0  0  0  0  0  0  0  0  0
   37.6200   30.7980   49.4380 C   0  0  0  0  0  0  0  0  0  0  0  0
   36.4020   30.2400   49.1900 N   0  0  0  0  0  0  0  0  0  0  0  0
   35.6400   29.5910   50.0710 C   0  0  0  0  0  0  0  0  0  0  0  0
   36.1000   29.4650   51.3350 N   0  0  0  0  0  0  0  0  0  0  0  0
   37.6830   29.8970   52.6680 H   0  0  0  0  0  0  0  0  0  0  0  0
   39.0470   31.1010   50.9450 H   0  0  0  0  0  0  0  0  0  0  0  0
   38.8160   33.4290   49.4410 F   0  0  0  0  0  0  0  0  0  0  0  0
   38.8710   32.6820   48.3350 C   0  0  0  0  0  0  0  0  0  0  0  0
   38.3100   31.4660   48.3590 C   0  0  0  0  0  0  0  0  0  0  0  0
   38.4240   30.7670   47.1550 C   0  0  0  0  0  0  0  0  0  0  0  0
   39.0520   31.2810   46.0520 C   0  0  0  0  0  0  0  0  0  0  0  0
   39.6130   32.5360   46.0810 C   0  0  0  0  0  0  0  0  0  0  0  0
   39.5150   33.2400   47.2490 C   0  0  0  0  0  0  0  0  0  0  0  0
   38.0170   29.7660   47.0200 H   0  0  0  0  0  0  0  0  0  0  0  0
   39.1340   30.7310   45.1240 H   0  0  0  0  0  0  0  0  0  0  0  0
   40.1150   32.9600   45.2170 H   0  0  0  0  0  0  0  0  0  0  0  0
   39.9500   34.2310   47.2920 H   0  0  0  0  0  0  0  0  0  0  0  0
  1  4  1  0  0  0  0
  1 27  1  0  0  0  0
  2  1  1  0  0  0  0
  3  1  1  0  0  0  0
  4  6  1  0  0  0  0
  5  4  1  0  0  0  0
  7  4  1  0  0  0  0
  7  8  1  0  0  0  0
  8 13  1  0  0  0  0
  9  8  2  0  0  0  0
  9 14  1  0  0  0  0
 10  9  1  0  0  0  0
 11 12  1  0  0  0  0
 11 10  2  0  0  0  0
 12  7  2  0  0  0  0
 15 11  1  0  0  0  0
 16 15  1  0  0  0  0
 17 15  1  0  0  0  0
 18 15  1  0  0  0  0
 18 26  1  0  0  0  0
 19 18  2  0  0  0  0
 20 19  1  0  0  0  0
 21 19  1  0  0  0  0
 21 22  2  0  0  0  0
 22 24  1  0  0  0  0
 23 22  1  0  0  0  0
 24 26  2  0  0  0  0
 24 25  1  0  0  0  0
 27 32  1  0  0  0  0
 28 34  1  0  0  0  0
 29 35  1  0  0  0  0
 29 28  2  0  0  0  0
 30 29  1  0  0  0  0
 31 30  2  0  0  0  0
 31 32  1  0  0  0  0
 32 33  2  0  0  0  0
 33 28  1  0  0  0  0
 37 38  1  0  0  0  0
 37 36  1  0  0  0  0
 38 30  1  0  0  0  0
 39 38  2  0  0  0  0
 40 41  2  0  0  0  0
 40 39  1  0  0  0  0
 41 42  1  0  0  0  0
 42 46  1  0  0  0  0
 42 37  2  0  0  0  0
 43 39  1  0  0  0  0
 44 40  1  0  0  0  0
 45 41  1  0  0  0  0
M  END
>  <minimizedAffinity>
-6.45745087

>  <minimizedRMSD>
1.18594825

$$$$
