
 OpenBabel03272509583D

 46 49  0  0  0  0  0  0  0  0999 V2000
   33.5010   30.0340   46.5650 C   0  0  0  0  0  0  0  0  0  0  0  0
   33.6500   31.1370   46.4210 H   0  0  0  0  0  0  0  0  0  0  0  0
   33.7350   29.8730   47.6440 H   0  0  0  0  0  0  0  0  0  0  0  0
   32.1100   29.6080   46.1900 C   0  0  0  0  0  0  0  0  0  0  0  0
   32.2040   28.7790   45.4390 H   0  0  0  0  0  0  0  0  0  0  0  0
   31.5150   29.1940   47.0150 H   0  0  0  0  0  0  0  0  0  0  0  0
   31.3420   30.6840   45.5020 C   0  0  0  0  0  0  0  0  0  0  0  0
   30.0080   30.4410   45.2240 C   0  0  0  0  0  0  0  0  0  0  0  0
   29.2210   31.3740   44.5930 C   0  0  0  0  0  0  0  0  0  0  0  0
   29.7580   32.5450   44.2380 N   0  0  0  0  0  0  0  0  0  0  0  0
   31.0740   32.7650   44.5200 C   0  0  0  0  0  0  0  0  0  0  0  0
   31.8580   31.8710   45.1340 N   0  0  0  0  0  0  0  0  0  0  0  0
   29.5710   29.4880   45.5120 H   0  0  0  0  0  0  0  0  0  0  0  0
   28.1650   31.1400   44.3910 H   0  0  0  0  0  0  0  0  0  0  0  0
   31.6220   34.0900   44.1020 C   0  0  0  0  0  0  0  0  0  0  0  0
   32.1460   34.5280   44.9770 H   0  0  0  0  0  0  0  0  0  0  0  0
   30.7160   34.7470   43.9690 H   0  0  0  0  0  0  0  0  0  0  0  0
   32.4560   34.0360   42.8950 C   0  0  0  0  0  0  0  0  0  0  0  0
   33.6850   34.7000   42.9490 C   0  0  0  0  0  0  0  0  0  0  0  0
   34.0210   35.2360   43.8350 H   0  0  0  0  0  0  0  0  0  0  0  0
   34.5590   34.7220   41.8820 C   0  0  0  0  0  3  0  0  0  0  0  0
   34.2110   34.0680   40.7210 C   0  0  0  0  0  0  0  0  0  0  0  0
   34.8670   34.0550   39.8470 H   0  0  0  0  0  0  0  0  0  0  0  0
   33.0070   33.4140   40.6620 C   0  0  0  0  0  0  0  0  0  0  0  0
   32.6980   32.8960   39.7870 H   0  0  0  0  0  0  0  0  0  0  0  0
   32.1090   33.3800   41.7310 C   0  0  0  0  0  3  0  0  0  0  0  0
   34.4610   29.3710   45.7560 O   0  0  0  0  0  0  0  0  0  0  0  0
   35.1640   31.0310   42.6300 C   0  0  0  0  0  0  0  0  0  0  0  0
   36.4900   31.4630   42.8660 C   0  0  0  0  0  0  0  0  0  0  0  0
   37.0630   31.1510   44.1000 C   0  0  0  0  0  0  0  0  0  0  0  0
   36.2710   30.4520   44.9610 N   0  0  0  0  0  0  0  0  0  0  0  0
   35.0210   30.0490   44.7300 C   0  0  0  0  0  0  0  0  0  0  0  0
   34.4680   30.3510   43.5350 N   0  0  0  0  0  0  0  0  0  0  0  0
   34.7590   31.2930   41.6650 H   0  0  0  0  0  0  0  0  0  0  0  0
   37.1030   32.0100   42.1860 H   0  0  0  0  0  0  0  0  0  0  0  0
   39.2100   29.3920   44.9050 F   0  0  0  0  0  0  0  0  0  0  0  0
   39.4090   30.7130   44.8950 C   0  0  0  0  0  0  0  0  0  0  0  0
   38.3980   31.5070   44.5170 C   0  0  0  0  0  0  0  0  0  0  0  0
   38.7100   32.8690   44.5410 C   0  0  0  0  0  0  0  0  0  0  0  0
   39.9370   33.3460   44.9160 C   0  0  0  0  0  0  0  0  0  0  0  0
   40.9410   32.4860   45.2950 C   0  0  0  0  0  0  0  0  0  0  0  0
   40.6610   31.1480   45.2800 C   0  0  0  0  0  0  0  0  0  0  0  0
   37.9910   33.6370   44.2600 H   0  0  0  0  0  0  0  0  0  0  0  0
   40.1670   34.4030   44.9310 H   0  0  0  0  0  0  0  0  0  0  0  0
   41.9210   32.8460   45.5960 H   0  0  0  0  0  0  0  0  0  0  0  0
   41.4390   30.4550   45.5760 H   0  0  0  0  0  0  0  0  0  0  0  0
  1  3  1  0  0  0  0
  2  1  1  0  0  0  0
  4  1  1  0  0  0  0
  4  6  1  0  0  0  0
  5  4  1  0  0  0  0
  7  4  1  0  0  0  0
  8  7  1  0  0  0  0
  8 13  1  0  0  0  0
  9  8  2  0  0  0  0
 10 11  2  0  0  0  0
 10  9  1  0  0  0  0
 11 12  1  0  0  0  0
 12  7  2  0  0  0  0
 14  9  1  0  0  0  0
 15 11  1  0  0  0  0
 15 16  1  0  0  0  0
 17 15  1  0  0  0  0
 18 19  1  0  0  0  0
 18 15  1  0  0  0  0
 19 20  1  0  0  0  0
 21 19  2  0  0  0  0
 22 21  1  0  0  0  0
 23 22  1  0  0  0  0
 24 22  2  0  0  0  0
 24 26  1  0  0  0  0
 25 24  1  0  0  0  0
 26 18  2  0  0  0  0
 27  1  1  0  0  0  0
 28 29  2  0  0  0  0
 28 33  1  0  0  0  0
 29 30  1  0  0  0  0
 30 38  1  0  0  0  0
 30 31  2  0  0  0  0
 32 31  1  0  0  0  0
 32 27  1  0  0  0  0
 33 32  2  0  0  0  0
 34 28  1  0  0  0  0
 35 29  1  0  0  0  0
 37 36  1  0  0  0  0
 37 42  1  0  0  0  0
 38 39  1  0  0  0  0
 38 37  2  0  0  0  0
 39 40  2  0  0  0  0
 40 44  1  0  0  0  0
 40 41  1  0  0  0  0
 41 45  1  0  0  0  0
 42 41  2  0  0  0  0
 42 46  1  0  0  0  0
 43 39  1  0  0  0  0
M  END
>  <minimizedAffinity>
-4.92711353

>  <minimizedRMSD>
5.32450628

$$$$
