
 OpenBabel03272510123D

 35 38  0  0  0  0  0  0  0  0999 V2000
   36.3550   23.0110   32.1280 C   0  0  0  0  0  0  0  0  0  0  0  0
   35.7200   23.9030   31.3390 C   0  0  0  0  0  0  0  0  0  0  0  0
   36.0200   25.2460   31.2570 C   0  0  0  0  0  0  0  0  0  0  0  0
   37.0320   25.7560   32.0170 C   0  0  0  0  0  0  0  0  0  0  0  0
   37.7010   24.8450   32.8390 C   0  0  0  0  0  0  0  0  0  0  0  0
   37.3630   23.5420   32.8770 N   0  0  0  0  0  0  0  0  0  0  0  0
   34.9010   23.5920   30.6990 H   0  0  0  0  0  0  0  0  0  0  0  0
   35.5000   25.9560   30.6170 H   0  0  0  0  0  0  0  0  0  0  0  0
   38.5170   25.1800   33.4720 H   0  0  0  0  0  0  0  0  0  0  0  0
   35.7190   20.9480   33.3960 C   0  0  0  0  0  0  0  0  0  0  0  0
   36.0350   21.6180   32.2050 C   0  0  0  0  0  0  0  0  0  0  0  0
   36.0280   20.8550   31.0470 C   0  0  0  0  0  0  0  0  0  0  0  0
   35.7190   19.5210   31.1290 N   0  0  0  0  0  0  0  0  0  0  0  0
   35.4250   18.9400   32.3070 C   0  0  0  0  0  0  0  0  0  0  0  0
   35.4210   19.6410   33.4420 N   0  0  0  0  0  0  0  0  0  0  0  0
   35.7150   21.5140   34.3180 H   0  0  0  0  0  0  0  0  0  0  0  0
   36.2660   21.3370   30.1080 H   0  0  0  0  0  0  0  0  0  0  0  0
   35.1990   17.8830   32.2370 H   0  0  0  0  0  0  0  0  0  0  0  0
   37.4590   27.0810   32.0510 O   0  0  0  0  0  0  0  0  0  0  0  0
   36.6090   28.1010   32.4740 C   0  0  0  0  0  0  0  0  0  0  0  0
   35.9450   28.7720   31.4370 C   0  0  0  0  0  0  0  0  0  0  0  0
   35.1450   29.7470   32.0030 C   0  0  0  0  0  0  0  0  0  0  0  0
   35.3380   29.6440   33.3240 N   0  0  0  0  0  0  0  0  0  0  0  0
   36.1880   28.6890   33.6080 N   0  0  0  0  0  0  0  0  0  0  0  0
   35.9390   28.6800   30.3460 H   0  0  0  0  0  0  0  0  0  0  0  0
   34.4640   30.5020   31.6690 H   0  0  0  0  0  0  0  0  0  0  0  0
   34.8530   30.3130   34.5090 C   0  0  0  0  0  0  0  0  0  0  0  0
   33.5180   30.1800   34.9180 C   0  0  0  0  0  0  0  0  0  0  0  0
   32.8370   29.5770   34.3520 H   0  0  0  0  0  0  0  0  0  0  0  0
   33.1380   30.8550   36.0650 C   0  0  0  0  0  3  0  0  0  0  0  0
   33.9840   31.6410   36.8210 C   0  0  0  0  0  0  0  0  0  0  0  0
   33.6580   32.1560   37.7140 H   0  0  0  0  0  0  0  0  0  0  0  0
   35.3150   31.7710   36.4120 C   0  0  0  0  0  0  0  0  0  0  0  0
   36.0060   32.3790   36.9800 H   0  0  0  0  0  0  0  0  0  0  0  0
   35.7100   31.1030   35.2680 C   0  0  0  0  0  3  0  0  0  0  0  0
  1 11  1  0  0  0  0
  1  6  1  0  0  0  0
  2  1  2  0  0  0  0
  3  2  1  0  0  0  0
  3  4  2  0  0  0  0
  4 19  1  0  0  0  0
  4  5  1  0  0  0  0
  5  6  2  0  0  0  0
  5  9  1  0  0  0  0
  7  2  1  0  0  0  0
  8  3  1  0  0  0  0
 10 15  1  0  0  0  0
 10 16  1  0  0  0  0
 11 10  2  0  0  0  0
 12 13  2  0  0  0  0
 12 11  1  0  0  0  0
 13 14  1  0  0  0  0
 14 15  2  0  0  0  0
 17 12  1  0  0  0  0
 18 14  1  0  0  0  0
 19 20  1  0  0  0  0
 20 24  2  0  0  0  0
 21 22  2  0  0  0  0
 21 20  1  0  0  0  0
 22 23  1  0  0  0  0
 23 24  1  0  0  0  0
 23 27  1  0  0  0  0
 25 21  1  0  0  0  0
 26 22  1  0  0  0  0
 27 28  2  0  0  0  0
 27 35  1  0  0  0  0
 28 30  1  0  0  0  0
 29 28  1  0  0  0  0
 30 31  2  0  0  0  0
 31 32  1  0  0  0  0
 33 31  1  0  0  0  0
 33 34  1  0  0  0  0
 35 33  2  0  0  0  0
M  END
>  <minimizedAffinity>
-5.94046164

$$$$

 OpenBabel03272510123D

 35 38  0  0  0  0  0  0  0  0999 V2000
   39.1920   24.9360   34.9350 C   0  0  0  0  0  0  0  0  0  0  0  0
   39.6280   26.2000   34.7490 C   0  0  0  0  0  0  0  0  0  0  0  0
   39.0390   27.1290   33.9170 C   0  0  0  0  0  0  0  0  0  0  0  0
   37.9260   26.7850   33.2070 C   0  0  0  0  0  0  0  0  0  0  0  0
   37.4620   25.4790   33.3890 C   0  0  0  0  0  0  0  0  0  0  0  0
   38.0790   24.6150   34.2160 N   0  0  0  0  0  0  0  0  0  0  0  0
   40.5060   26.5650   35.2710 H   0  0  0  0  0  0  0  0  0  0  0  0
   39.4000   28.1460   33.7760 H   0  0  0  0  0  0  0  0  0  0  0  0
   36.5800   25.1360   32.8550 H   0  0  0  0  0  0  0  0  0  0  0  0
   41.1130   23.4860   35.6260 C   0  0  0  0  0  0  0  0  0  0  0  0
   39.8110   23.9800   35.8010 C   0  0  0  0  0  0  0  0  0  0  0  0
   39.1080   23.4910   36.8920 C   0  0  0  0  0  0  0  0  0  0  0  0
   39.7090   22.5750   37.7180 N   0  0  0  0  0  0  0  0  0  0  0  0
   40.9630   22.1420   37.4910 C   0  0  0  0  0  0  0  0  0  0  0  0
   41.6720   22.5890   36.4530 N   0  0  0  0  0  0  0  0  0  0  0  0
   41.6890   23.8470   34.7850 H   0  0  0  0  0  0  0  0  0  0  0  0
   38.1010   23.8490   37.0610 H   0  0  0  0  0  0  0  0  0  0  0  0
   41.3220   21.4210   38.2140 H   0  0  0  0  0  0  0  0  0  0  0  0
   37.2170   27.6000   32.3290 O   0  0  0  0  0  0  0  0  0  0  0  0
   36.4020   28.6280   32.8000 C   0  0  0  0  0  0  0  0  0  0  0  0
   35.8720   29.4540   31.7990 C   0  0  0  0  0  0  0  0  0  0  0  0
   35.0930   30.4200   32.4100 C   0  0  0  0  0  0  0  0  0  0  0  0
   35.1690   30.1600   33.7230 N   0  0  0  0  0  0  0  0  0  0  0  0
   35.9280   29.1200   33.9590 N   0  0  0  0  0  0  0  0  0  0  0  0
   35.9500   29.4820   30.7070 H   0  0  0  0  0  0  0  0  0  0  0  0
   34.4920   31.2540   32.1140 H   0  0  0  0  0  0  0  0  0  0  0  0
   34.6310   30.7300   34.9360 C   0  0  0  0  0  0  0  0  0  0  0  0
   35.4230   31.5310   35.7710 C   0  0  0  0  0  0  0  0  0  0  0  0
   36.4450   31.7300   35.5180 H   0  0  0  0  0  0  0  0  0  0  0  0
   34.8280   32.0360   36.9130 C   0  0  0  0  0  3  0  0  0  0  0  0
   33.5160   31.8020   37.2750 C   0  0  0  0  0  0  0  0  0  0  0  0
   33.0780   32.2120   38.1740 H   0  0  0  0  0  0  0  0  0  0  0  0
   32.7280   31.0050   36.4400 C   0  0  0  0  0  0  0  0  0  0  0  0
   31.6960   30.8010   36.6920 H   0  0  0  0  0  0  0  0  0  0  0  0
   33.3080   30.4920   35.2950 C   0  0  0  0  0  3  0  0  0  0  0  0
  1 11  1  0  0  0  0
  2  1  1  0  0  0  0
  2  7  1  0  0  0  0
  3  2  2  0  0  0  0
  4  5  2  0  0  0  0
  4  3  1  0  0  0  0
  5  6  1  0  0  0  0
  6  1  2  0  0  0  0
  8  3  1  0  0  0  0
  9  5  1  0  0  0  0
 10 11  2  0  0  0  0
 10 15  1  0  0  0  0
 11 12  1  0  0  0  0
 12 17  1  0  0  0  0
 12 13  2  0  0  0  0
 14 13  1  0  0  0  0
 14 18  1  0  0  0  0
 15 14  2  0  0  0  0
 16 10  1  0  0  0  0
 19 20  1  0  0  0  0
 19  4  1  0  0  0  0
 20 24  2  0  0  0  0
 21 22  2  0  0  0  0
 21 20  1  0  0  0  0
 22 23  1  0  0  0  0
 23 24  1  0  0  0  0
 23 27  1  0  0  0  0
 25 21  1  0  0  0  0
 26 22  1  0  0  0  0
 27 35  2  0  0  0  0
 27 28  1  0  0  0  0
 28 30  2  0  0  0  0
 29 28  1  0  0  0  0
 30 31  1  0  0  0  0
 31 32  1  0  0  0  0
 33 34  1  0  0  0  0
 33 31  2  0  0  0  0
 35 33  1  0  0  0  0
M  END
>  <minimizedAffinity>
-5.81905985

$$$$

 OpenBabel03272510123D

 35 38  0  0  0  0  0  0  0  0999 V2000
   35.6520   30.2350   34.1120 C   0  0  0  0  0  0  0  0  0  0  0  0
   35.7570   30.1290   32.7700 C   0  0  0  0  0  0  0  0  0  0  0  0
   36.2450   29.0290   32.0960 C   0  0  0  0  0  0  0  0  0  0  0  0
   36.6640   27.9390   32.8020 C   0  0  0  0  0  0  0  0  0  0  0  0
   36.5600   28.0330   34.1930 C   0  0  0  0  0  0  0  0  0  0  0  0
   36.0760   29.1350   34.7960 N   0  0  0  0  0  0  0  0  0  0  0  0
   35.4490   30.9440   32.1240 H   0  0  0  0  0  0  0  0  0  0  0  0
   36.3250   28.9560   31.0130 H   0  0  0  0  0  0  0  0  0  0  0  0
   36.8760   27.2040   34.8190 H   0  0  0  0  0  0  0  0  0  0  0  0
   34.1400   32.2220   34.2960 C   0  0  0  0  0  0  0  0  0  0  0  0
   35.1440   31.3820   34.8010 C   0  0  0  0  0  0  0  0  0  0  0  0
   35.6560   31.7110   36.0470 C   0  0  0  0  0  0  0  0  0  0  0  0
   35.1640   32.8130   36.7010 N   0  0  0  0  0  0  0  0  0  0  0  0
   34.1980   33.5770   36.1580 C   0  0  0  0  0  0  0  0  0  0  0  0
   33.6810   33.2930   34.9620 N   0  0  0  0  0  0  0  0  0  0  0  0
   33.7200   31.9940   33.3260 H   0  0  0  0  0  0  0  0  0  0  0  0
   36.4310   31.0860   36.4700 H   0  0  0  0  0  0  0  0  0  0  0  0
   33.8970   34.4150   36.7730 H   0  0  0  0  0  0  0  0  0  0  0  0
   37.1780   26.7570   32.2770 O   0  0  0  0  0  0  0  0  0  0  0  0
   37.5100   25.6860   33.1050 C   0  0  0  0  0  0  0  0  0  0  0  0
   37.4830   24.4340   32.4750 C   0  0  0  0  0  0  0  0  0  0  0  0
   37.8310   23.4780   33.4110 C   0  0  0  0  0  0  0  0  0  0  0  0
   38.0530   24.1540   34.5460 N   0  0  0  0  0  0  0  0  0  0  0  0
   37.8690   25.4400   34.3780 N   0  0  0  0  0  0  0  0  0  0  0  0
   37.2560   24.0920   31.4600 H   0  0  0  0  0  0  0  0  0  0  0  0
   37.9560   22.4150   33.4460 H   0  0  0  0  0  0  0  0  0  0  0  0
   38.4410   23.8300   35.9000 C   0  0  0  0  0  0  0  0  0  0  0  0
   37.6630   24.2400   36.9920 C   0  0  0  0  0  0  0  0  0  0  0  0
   36.7640   24.8020   36.8350 H   0  0  0  0  0  0  0  0  0  0  0  0
   38.1080   23.8870   38.2530 C   0  0  0  0  0  3  0  0  0  0  0  0
   39.2580   23.1640   38.4980 C   0  0  0  0  0  0  0  0  0  0  0  0
   39.5810   22.9030   39.4960 H   0  0  0  0  0  0  0  0  0  0  0  0
   40.0330   22.7570   37.4070 C   0  0  0  0  0  0  0  0  0  0  0  0
   40.9400   22.1890   37.5610 H   0  0  0  0  0  0  0  0  0  0  0  0
   39.6010   23.1020   36.1400 C   0  0  0  0  0  3  0  0  0  0  0  0
  1  6  1  0  0  0  0
  1 11  1  0  0  0  0
  2  1  2  0  0  0  0
  3  2  1  0  0  0  0
  3  4  2  0  0  0  0
  4  5  1  0  0  0  0
  5  6  2  0  0  0  0
  5  9  1  0  0  0  0
  7  2  1  0  0  0  0
  8  3  1  0  0  0  0
 10 11  2  0  0  0  0
 10 15  1  0  0  0  0
 11 12  1  0  0  0  0
 12 17  1  0  0  0  0
 12 13  2  0  0  0  0
 14 13  1  0  0  0  0
 14 18  1  0  0  0  0
 15 14  2  0  0  0  0
 16 10  1  0  0  0  0
 19  4  1  0  0  0  0
 19 20  1  0  0  0  0
 20 24  2  0  0  0  0
 21 20  1  0  0  0  0
 21 22  2  0  0  0  0
 22 26  1  0  0  0  0
 22 23  1  0  0  0  0
 23 27  1  0  0  0  0
 24 23  1  0  0  0  0
 25 21  1  0  0  0  0
 27 35  2  0  0  0  0
 27 28  1  0  0  0  0
 28 30  2  0  0  0  0
 29 28  1  0  0  0  0
 30 31  1  0  0  0  0
 31 32  1  0  0  0  0
 33 34  1  0  0  0  0
 33 31  2  0  0  0  0
 35 33  1  0  0  0  0
M  END
>  <minimizedAffinity>
-5.75045586

$$$$

 OpenBabel03272510123D

 35 38  0  0  0  0  0  0  0  0999 V2000
   35.8590   29.4020   34.2020 C   0  0  0  0  0  0  0  0  0  0  0  0
   35.9740   29.4440   32.8570 C   0  0  0  0  0  0  0  0  0  0  0  0
   36.5230   28.4490   32.0760 C   0  0  0  0  0  0  0  0  0  0  0  0
   37.0010   27.3160   32.6660 C   0  0  0  0  0  0  0  0  0  0  0  0
   36.8890   27.2570   34.0590 C   0  0  0  0  0  0  0  0  0  0  0  0
   36.3420   28.2610   34.7700 N   0  0  0  0  0  0  0  0  0  0  0  0
   35.6220   30.3040   32.2980 H   0  0  0  0  0  0  0  0  0  0  0  0
   36.6100   28.4950   30.9910 H   0  0  0  0  0  0  0  0  0  0  0  0
   37.2480   26.3850   34.5970 H   0  0  0  0  0  0  0  0  0  0  0  0
   36.0360   31.3500   35.7650 C   0  0  0  0  0  0  0  0  0  0  0  0
   35.2870   30.4400   35.0030 C   0  0  0  0  0  0  0  0  0  0  0  0
   33.9080   30.5840   35.0510 C   0  0  0  0  0  0  0  0  0  0  0  0
   33.3680   31.5820   35.8220 N   0  0  0  0  0  0  0  0  0  0  0  0
   34.1460   32.4220   36.5290 C   0  0  0  0  0  0  0  0  0  0  0  0
   35.4760   32.3150   36.5080 N   0  0  0  0  0  0  0  0  0  0  0  0
   37.1140   31.2660   35.7500 H   0  0  0  0  0  0  0  0  0  0  0  0
   33.2970   29.9010   34.4760 H   0  0  0  0  0  0  0  0  0  0  0  0
   33.5990   33.1640   37.0950 H   0  0  0  0  0  0  0  0  0  0  0  0
   37.5810   26.2260   32.0250 O   0  0  0  0  0  0  0  0  0  0  0  0
   36.8700   25.0430   31.8280 C   0  0  0  0  0  0  0  0  0  0  0  0
   35.6440   25.2050   31.1700 C   0  0  0  0  0  0  0  0  0  0  0  0
   35.0580   23.9580   31.0470 C   0  0  0  0  0  0  0  0  0  0  0  0
   35.9180   23.1030   31.6150 N   0  0  0  0  0  0  0  0  0  0  0  0
   36.9760   23.7240   32.0720 N   0  0  0  0  0  0  0  0  0  0  0  0
   35.0990   26.0640   30.7650 H   0  0  0  0  0  0  0  0  0  0  0  0
   34.1580   23.5450   30.6410 H   0  0  0  0  0  0  0  0  0  0  0  0
   35.9770   21.6790   31.8510 C   0  0  0  0  0  0  0  0  0  0  0  0
   35.4720   21.1210   33.0330 C   0  0  0  0  0  0  0  0  0  0  0  0
   35.0330   21.7480   33.7830 H   0  0  0  0  0  0  0  0  0  0  0  0
   35.5700   19.7480   33.1770 C   0  0  0  0  0  3  0  0  0  0  0  0
   36.1280   18.9060   32.2370 C   0  0  0  0  0  0  0  0  0  0  0  0
   36.1900   17.8360   32.3770 H   0  0  0  0  0  0  0  0  0  0  0  0
   36.6310   19.4640   31.0580 C   0  0  0  0  0  0  0  0  0  0  0  0
   37.0750   18.8350   30.2990 H   0  0  0  0  0  0  0  0  0  0  0  0
   36.5400   20.8350   30.8990 C   0  0  0  0  0  3  0  0  0  0  0  0
  1  6  1  0  0  0  0
  1 11  1  0  0  0  0
  2  1  2  0  0  0  0
  3  4  2  0  0  0  0
  3  2  1  0  0  0  0
  4  5  1  0  0  0  0
  5  9  1  0  0  0  0
  5  6  2  0  0  0  0
  7  2  1  0  0  0  0
  8  3  1  0  0  0  0
 10 15  1  0  0  0  0
 11 12  1  0  0  0  0
 11 10  2  0  0  0  0
 12 13  2  0  0  0  0
 13 14  1  0  0  0  0
 14 18  1  0  0  0  0
 15 14  2  0  0  0  0
 16 10  1  0  0  0  0
 17 12  1  0  0  0  0
 19  4  1  0  0  0  0
 20 19  1  0  0  0  0
 20 24  2  0  0  0  0
 21 20  1  0  0  0  0
 22 21  2  0  0  0  0
 22 23  1  0  0  0  0
 23 27  1  0  0  0  0
 23 24  1  0  0  0  0
 25 21  1  0  0  0  0
 26 22  1  0  0  0  0
 27 28  1  0  0  0  0
 28 30  2  0  0  0  0
 28 29  1  0  0  0  0
 31 32  1  0  0  0  0
 31 30  1  0  0  0  0
 33 31  2  0  0  0  0
 34 33  1  0  0  0  0
 35 33  1  0  0  0  0
 35 27  2  0  0  0  0
M  END
>  <minimizedAffinity>
-5.74081612

$$$$

 OpenBabel03272510123D

 35 38  0  0  0  0  0  0  0  0999 V2000
   35.5890   29.9300   34.3150 C   0  0  0  0  0  0  0  0  0  0  0  0
   35.6920   30.1490   32.9870 C   0  0  0  0  0  0  0  0  0  0  0  0
   36.2390   29.2680   32.0770 C   0  0  0  0  0  0  0  0  0  0  0  0
   36.7270   28.0700   32.5110 C   0  0  0  0  0  0  0  0  0  0  0  0
   36.6260   27.8290   33.8840 C   0  0  0  0  0  0  0  0  0  0  0  0
   36.0810   28.7280   34.7250 N   0  0  0  0  0  0  0  0  0  0  0  0
   35.3330   31.0740   32.5480 H   0  0  0  0  0  0  0  0  0  0  0  0
   36.3180   29.4560   31.0080 H   0  0  0  0  0  0  0  0  0  0  0  0
   36.9940   26.8950   34.3010 H   0  0  0  0  0  0  0  0  0  0  0  0
   33.6590   30.8810   35.5960 C   0  0  0  0  0  0  0  0  0  0  0  0
   35.0190   30.8520   35.2490 C   0  0  0  0  0  0  0  0  0  0  0  0
   35.8340   31.7870   35.8690 C   0  0  0  0  0  0  0  0  0  0  0  0
   35.2790   32.6670   36.7640 N   0  0  0  0  0  0  0  0  0  0  0  0
   33.9650   32.6410   37.0510 C   0  0  0  0  0  0  0  0  0  0  0  0
   33.1490   31.7560   36.4760 N   0  0  0  0  0  0  0  0  0  0  0  0
   32.9960   30.1660   35.1300 H   0  0  0  0  0  0  0  0  0  0  0  0
   36.8880   31.7950   35.6280 H   0  0  0  0  0  0  0  0  0  0  0  0
   33.6520   33.3850   37.7720 H   0  0  0  0  0  0  0  0  0  0  0  0
   37.3070   27.0770   31.7280 O   0  0  0  0  0  0  0  0  0  0  0  0
   36.6960   25.8340   31.5710 C   0  0  0  0  0  0  0  0  0  0  0  0
   35.4130   25.8830   31.0100 C   0  0  0  0  0  0  0  0  0  0  0  0
   34.9370   24.5870   30.9180 C   0  0  0  0  0  0  0  0  0  0  0  0
   35.9140   23.8130   31.4080 N   0  0  0  0  0  0  0  0  0  0  0  0
   36.9420   24.5290   31.7910 N   0  0  0  0  0  0  0  0  0  0  0  0
   34.7610   26.6890   30.6570 H   0  0  0  0  0  0  0  0  0  0  0  0
   34.0510   24.0940   30.5760 H   0  0  0  0  0  0  0  0  0  0  0  0
   36.1230   22.4000   31.6220 C   0  0  0  0  0  0  0  0  0  0  0  0
   37.3020   21.7720   31.1960 C   0  0  0  0  0  0  0  0  0  0  0  0
   38.0670   22.3360   30.7020 H   0  0  0  0  0  0  0  0  0  0  0  0
   37.4190   20.4150   31.4420 C   0  0  0  0  0  3  0  0  0  0  0  0
   36.4570   19.6530   32.0740 C   0  0  0  0  0  0  0  0  0  0  0  0
   36.5780   18.5940   32.2520 H   0  0  0  0  0  0  0  0  0  0  0  0
   35.2830   20.2820   32.4990 C   0  0  0  0  0  0  0  0  0  0  0  0
   34.5080   19.7170   32.9980 H   0  0  0  0  0  0  0  0  0  0  0  0
   35.1510   21.6380   32.2610 C   0  0  0  0  0  3  0  0  0  0  0  0
  1  6  1  0  0  0  0
  1 11  1  0  0  0  0
  2  1  2  0  0  0  0
  3  4  2  0  0  0  0
  3  2  1  0  0  0  0
  4  5  1  0  0  0  0
  5  9  1  0  0  0  0
  5  6  2  0  0  0  0
  7  2  1  0  0  0  0
  8  3  1  0  0  0  0
 10 15  1  0  0  0  0
 11 10  2  0  0  0  0
 11 12  1  0  0  0  0
 12 13  2  0  0  0  0
 13 14  1  0  0  0  0
 14 18  1  0  0  0  0
 15 14  2  0  0  0  0
 16 10  1  0  0  0  0
 17 12  1  0  0  0  0
 19  4  1  0  0  0  0
 20 19  1  0  0  0  0
 20 24  2  0  0  0  0
 21 20  1  0  0  0  0
 22 21  2  0  0  0  0
 22 23  1  0  0  0  0
 23 27  1  0  0  0  0
 23 24  1  0  0  0  0
 25 21  1  0  0  0  0
 26 22  1  0  0  0  0
 27 35  1  0  0  0  0
 28 30  1  0  0  0  0
 28 27  2  0  0  0  0
 29 28  1  0  0  0  0
 30 31  2  0  0  0  0
 31 32  1  0  0  0  0
 31 33  1  0  0  0  0
 33 34  1  0  0  0  0
 35 33  2  0  0  0  0
M  END
>  <minimizedAffinity>
-5.69347906

$$$$

 OpenBabel03272510123D

 35 38  0  0  0  0  0  0  0  0999 V2000
   35.5680   29.3670   34.0190 C   0  0  0  0  0  0  0  0  0  0  0  0
   36.3790   28.3310   34.3220 C   0  0  0  0  0  0  0  0  0  0  0  0
   36.8510   27.4010   33.4200 C   0  0  0  0  0  0  0  0  0  0  0  0
   36.4950   27.4990   32.1060 C   0  0  0  0  0  0  0  0  0  0  0  0
   35.6560   28.5680   31.7760 C   0  0  0  0  0  0  0  0  0  0  0  0
   35.2260   29.4450   32.7020 N   0  0  0  0  0  0  0  0  0  0  0  0
   36.7150   28.1700   35.3410 H   0  0  0  0  0  0  0  0  0  0  0  0
   37.5040   26.5700   33.6760 H   0  0  0  0  0  0  0  0  0  0  0  0
   35.3320   28.7080   30.7490 H   0  0  0  0  0  0  0  0  0  0  0  0
   35.9080   31.1930   35.6980 C   0  0  0  0  0  0  0  0  0  0  0  0
   35.0840   30.3250   34.9650 C   0  0  0  0  0  0  0  0  0  0  0  0
   33.7200   30.4290   35.1950 C   0  0  0  0  0  0  0  0  0  0  0  0
   33.2650   31.3510   36.1040 N   0  0  0  0  0  0  0  0  0  0  0  0
   34.1120   32.1540   36.7740 C   0  0  0  0  0  0  0  0  0  0  0  0
   35.4300   32.0840   36.5800 N   0  0  0  0  0  0  0  0  0  0  0  0
   36.9770   31.1390   35.5430 H   0  0  0  0  0  0  0  0  0  0  0  0
   33.0530   29.7770   34.6480 H   0  0  0  0  0  0  0  0  0  0  0  0
   33.6280   32.8360   37.4600 H   0  0  0  0  0  0  0  0  0  0  0  0
   36.8830   26.6480   31.0750 O   0  0  0  0  0  0  0  0  0  0  0  0
   37.0640   25.2840   31.2960 C   0  0  0  0  0  0  0  0  0  0  0  0
   38.3720   24.8290   31.0770 C   0  0  0  0  0  0  0  0  0  0  0  0
   38.3990   23.4700   31.3330 C   0  0  0  0  0  0  0  0  0  0  0  0
   37.1480   23.1500   31.6890 N   0  0  0  0  0  0  0  0  0  0  0  0
   36.3640   24.1990   31.6710 N   0  0  0  0  0  0  0  0  0  0  0  0
   39.3070   25.3050   30.7650 H   0  0  0  0  0  0  0  0  0  0  0  0
   39.1180   22.6770   31.3180 H   0  0  0  0  0  0  0  0  0  0  0  0
   36.4460   21.9510   32.0860 C   0  0  0  0  0  0  0  0  0  0  0  0
   35.7410   21.1830   31.1490 C   0  0  0  0  0  0  0  0  0  0  0  0
   35.7140   21.4770   30.1190 H   0  0  0  0  0  0  0  0  0  0  0  0
   35.0970   20.0500   31.6150 C   0  0  0  0  0  3  0  0  0  0  0  0
   35.1080   19.6370   32.9320 C   0  0  0  0  0  0  0  0  0  0  0  0
   34.5950   18.7460   33.2670 H   0  0  0  0  0  0  0  0  0  0  0  0
   35.8120   20.4040   33.8650 C   0  0  0  0  0  0  0  0  0  0  0  0
   35.8420   20.1100   34.9050 H   0  0  0  0  0  0  0  0  0  0  0  0
   36.4600   21.5390   33.4140 C   0  0  0  0  0  3  0  0  0  0  0  0
  1  2  1  0  0  0  0
  1 11  1  0  0  0  0
  2  7  1  0  0  0  0
  3  8  1  0  0  0  0
  3  2  2  0  0  0  0
  4  3  1  0  0  0  0
  5  4  2  0  0  0  0
  5  6  1  0  0  0  0
  6  1  2  0  0  0  0
  9  5  1  0  0  0  0
 10 15  1  0  0  0  0
 11 12  1  0  0  0  0
 11 10  2  0  0  0  0
 12 13  2  0  0  0  0
 13 14  1  0  0  0  0
 14 18  1  0  0  0  0
 15 14  2  0  0  0  0
 16 10  1  0  0  0  0
 17 12  1  0  0  0  0
 19 20  1  0  0  0  0
 19  4  1  0  0  0  0
 20 24  2  0  0  0  0
 21 20  1  0  0  0  0
 21 22  2  0  0  0  0
 22 23  1  0  0  0  0
 23 27  1  0  0  0  0
 24 23  1  0  0  0  0
 25 21  1  0  0  0  0
 26 22  1  0  0  0  0
 27 35  1  0  0  0  0
 28 30  1  0  0  0  0
 28 27  2  0  0  0  0
 29 28  1  0  0  0  0
 30 31  2  0  0  0  0
 31 32  1  0  0  0  0
 31 33  1  0  0  0  0
 33 34  1  0  0  0  0
 35 33  2  0  0  0  0
M  END
>  <minimizedAffinity>
-5.67018747

$$$$

 OpenBabel03272510123D

 35 38  0  0  0  0  0  0  0  0999 V2000
   36.4240   23.7620   31.7570 C   0  0  0  0  0  0  0  0  0  0  0  0
   35.5400   24.6540   31.2620 C   0  0  0  0  0  0  0  0  0  0  0  0
   35.7090   26.0230   31.2600 C   0  0  0  0  0  0  0  0  0  0  0  0
   36.8460   26.5600   31.7890 C   0  0  0  0  0  0  0  0  0  0  0  0
   37.7720   25.6490   32.3050 C   0  0  0  0  0  0  0  0  0  0  0  0
   37.5520   24.3210   32.2800 N   0  0  0  0  0  0  0  0  0  0  0  0
   34.6070   24.3220   30.8200 H   0  0  0  0  0  0  0  0  0  0  0  0
   34.9880   26.7320   30.8570 H   0  0  0  0  0  0  0  0  0  0  0  0
   38.7000   26.0060   32.7440 H   0  0  0  0  0  0  0  0  0  0  0  0
   37.1690   21.4280   31.2390 C   0  0  0  0  0  0  0  0  0  0  0  0
   36.2380   22.3430   31.7530 C   0  0  0  0  0  0  0  0  0  0  0  0
   35.0740   21.8070   32.2850 C   0  0  0  0  0  0  0  0  0  0  0  0
   34.9040   20.4450   32.2780 N   0  0  0  0  0  0  0  0  0  0  0  0
   35.8390   19.6230   31.7670 C   0  0  0  0  0  0  0  0  0  0  0  0
   36.9710   20.1010   31.2470 N   0  0  0  0  0  0  0  0  0  0  0  0
   38.0870   21.8130   30.8170 H   0  0  0  0  0  0  0  0  0  0  0  0
   34.3330   22.4810   32.6920 H   0  0  0  0  0  0  0  0  0  0  0  0
   35.5850   18.5730   31.8220 H   0  0  0  0  0  0  0  0  0  0  0  0
   37.1690   27.9120   31.8640 O   0  0  0  0  0  0  0  0  0  0  0  0
   36.2900   28.8320   32.4330 C   0  0  0  0  0  0  0  0  0  0  0  0
   35.5720   29.6010   31.5070 C   0  0  0  0  0  0  0  0  0  0  0  0
   34.7490   30.4610   32.2120 C   0  0  0  0  0  0  0  0  0  0  0  0
   34.9830   30.1980   33.5040 N   0  0  0  0  0  0  0  0  0  0  0  0
   35.8780   29.2510   33.6440 N   0  0  0  0  0  0  0  0  0  0  0  0
   35.5390   29.6490   30.4140 H   0  0  0  0  0  0  0  0  0  0  0  0
   34.0300   31.2220   31.9930 H   0  0  0  0  0  0  0  0  0  0  0  0
   34.5040   30.6870   34.7760 C   0  0  0  0  0  0  0  0  0  0  0  0
   35.3140   31.4880   35.5930 C   0  0  0  0  0  0  0  0  0  0  0  0
   36.3060   31.7490   35.2830 H   0  0  0  0  0  0  0  0  0  0  0  0
   34.7750   31.9130   36.7950 C   0  0  0  0  0  3  0  0  0  0  0  0
   33.5040   31.6000   37.2310 C   0  0  0  0  0  0  0  0  0  0  0  0
   33.1100   31.9480   38.1760 H   0  0  0  0  0  0  0  0  0  0  0  0
   32.6980   30.8020   36.4150 C   0  0  0  0  0  0  0  0  0  0  0  0
   31.6960   30.5370   36.7240 H   0  0  0  0  0  0  0  0  0  0  0  0
   33.2210   30.3690   35.2100 C   0  0  0  0  0  3  0  0  0  0  0  0
  1  6  1  0  0  0  0
  2  1  2  0  0  0  0
  3  2  1  0  0  0  0
  3  4  2  0  0  0  0
  4 19  1  0  0  0  0
  4  5  1  0  0  0  0
  5  9  1  0  0  0  0
  6  5  2  0  0  0  0
  7  2  1  0  0  0  0
  8  3  1  0  0  0  0
 10 15  2  0  0  0  0
 10 11  1  0  0  0  0
 11  1  1  0  0  0  0
 11 12  2  0  0  0  0
 12 17  1  0  0  0  0
 13 12  1  0  0  0  0
 14 18  1  0  0  0  0
 14 13  2  0  0  0  0
 15 14  1  0  0  0  0
 16 10  1  0  0  0  0
 19 20  1  0  0  0  0
 20 24  2  0  0  0  0
 21 22  2  0  0  0  0
 21 20  1  0  0  0  0
 22 23  1  0  0  0  0
 23 24  1  0  0  0  0
 23 27  1  0  0  0  0
 25 21  1  0  0  0  0
 26 22  1  0  0  0  0
 27 35  2  0  0  0  0
 27 28  1  0  0  0  0
 28 30  2  0  0  0  0
 29 28  1  0  0  0  0
 30 31  1  0  0  0  0
 31 32  1  0  0  0  0
 33 34  1  0  0  0  0
 33 31  2  0  0  0  0
 35 33  1  0  0  0  0
M  END
>  <minimizedAffinity>
-5.64907408

$$$$

 OpenBabel03272510123D

 35 38  0  0  0  0  0  0  0  0999 V2000
   38.2760   25.5020   35.3490 C   0  0  0  0  0  0  0  0  0  0  0  0
   38.0780   26.7690   35.7720 C   0  0  0  0  0  0  0  0  0  0  0  0
   37.4470   27.7570   35.0470 C   0  0  0  0  0  0  0  0  0  0  0  0
   36.9680   27.4760   33.8010 C   0  0  0  0  0  0  0  0  0  0  0  0
   37.1650   26.1680   33.3490 C   0  0  0  0  0  0  0  0  0  0  0  0
   37.7900   25.2430   34.1030 N   0  0  0  0  0  0  0  0  0  0  0  0
   38.4240   27.0870   36.7490 H   0  0  0  0  0  0  0  0  0  0  0  0
   37.2930   28.7760   35.3980 H   0  0  0  0  0  0  0  0  0  0  0  0
   36.8110   25.8720   32.3660 H   0  0  0  0  0  0  0  0  0  0  0  0
   40.0930   23.8130   35.6920 C   0  0  0  0  0  0  0  0  0  0  0  0
   38.9330   24.4830   36.1100 C   0  0  0  0  0  0  0  0  0  0  0  0
   38.4170   24.1120   37.3430 C   0  0  0  0  0  0  0  0  0  0  0  0
   39.0530   23.1350   38.0660 N   0  0  0  0  0  0  0  0  0  0  0  0
   40.1640   22.5320   37.6050 C   0  0  0  0  0  0  0  0  0  0  0  0
   40.6910   22.8610   36.4240 N   0  0  0  0  0  0  0  0  0  0  0  0
   40.5220   24.0790   34.7350 H   0  0  0  0  0  0  0  0  0  0  0  0
   37.5240   24.6070   37.7000 H   0  0  0  0  0  0  0  0  0  0  0  0
   40.5700   21.7790   38.2690 H   0  0  0  0  0  0  0  0  0  0  0  0
   36.3110   28.3560   32.9450 O   0  0  0  0  0  0  0  0  0  0  0  0
   35.3700   29.2630   33.4280 C   0  0  0  0  0  0  0  0  0  0  0  0
   34.0990   29.1460   32.8490 C   0  0  0  0  0  0  0  0  0  0  0  0
   33.2790   30.1010   33.4220 C   0  0  0  0  0  0  0  0  0  0  0  0
   34.0500   30.7500   34.3050 N   0  0  0  0  0  0  0  0  0  0  0  0
   35.2680   30.2690   34.3160 N   0  0  0  0  0  0  0  0  0  0  0  0
   33.6610   28.4930   32.0870 H   0  0  0  0  0  0  0  0  0  0  0  0
   32.2610   30.4220   33.3390 H   0  0  0  0  0  0  0  0  0  0  0  0
   33.8840   31.8370   35.2410 C   0  0  0  0  0  0  0  0  0  0  0  0
   33.0090   32.8970   34.9690 C   0  0  0  0  0  0  0  0  0  0  0  0
   32.4480   32.9150   34.0560 H   0  0  0  0  0  0  0  0  0  0  0  0
   32.9100   33.8960   35.9220 C   0  0  0  0  0  3  0  0  0  0  0  0
   33.6140   33.9100   37.1090 C   0  0  0  0  0  0  0  0  0  0  0  0
   33.5160   34.7060   37.8350 H   0  0  0  0  0  0  0  0  0  0  0  0
   34.4860   32.8520   37.3780 C   0  0  0  0  0  0  0  0  0  0  0  0
   35.0530   32.8290   38.2990 H   0  0  0  0  0  0  0  0  0  0  0  0
   34.5950   31.8450   36.4370 C   0  0  0  0  0  3  0  0  0  0  0  0
  1  2  1  0  0  0  0
  1 11  1  0  0  0  0
  2  7  1  0  0  0  0
  3  8  1  0  0  0  0
  3  2  2  0  0  0  0
  4  3  1  0  0  0  0
  5  4  2  0  0  0  0
  5  6  1  0  0  0  0
  6  1  2  0  0  0  0
  9  5  1  0  0  0  0
 10 11  2  0  0  0  0
 10 15  1  0  0  0  0
 11 12  1  0  0  0  0
 12 17  1  0  0  0  0
 12 13  2  0  0  0  0
 14 13  1  0  0  0  0
 14 18  1  0  0  0  0
 15 14  2  0  0  0  0
 16 10  1  0  0  0  0
 19 20  1  0  0  0  0
 19  4  1  0  0  0  0
 20 24  2  0  0  0  0
 21 22  2  0  0  0  0
 21 20  1  0  0  0  0
 22 23  1  0  0  0  0
 23 24  1  0  0  0  0
 23 27  1  0  0  0  0
 25 21  1  0  0  0  0
 26 22  1  0  0  0  0
 27 35  1  0  0  0  0
 28 27  2  0  0  0  0
 28 30  1  0  0  0  0
 29 28  1  0  0  0  0
 30 31  2  0  0  0  0
 31 33  1  0  0  0  0
 31 32  1  0  0  0  0
 33 34  1  0  0  0  0
 35 33  2  0  0  0  0
M  END
>  <minimizedAffinity>
-5.53677559

$$$$

 OpenBabel03272510123D

 35 38  0  0  0  0  0  0  0  0999 V2000
   38.1580   25.6240   35.3140 C   0  0  0  0  0  0  0  0  0  0  0  0
   37.9710   26.9140   35.6670 C   0  0  0  0  0  0  0  0  0  0  0  0
   37.4300   27.8880   34.8550 C   0  0  0  0  0  0  0  0  0  0  0  0
   37.0390   27.5670   33.5880 C   0  0  0  0  0  0  0  0  0  0  0  0
   37.2260   26.2350   33.2080 C   0  0  0  0  0  0  0  0  0  0  0  0
   37.7610   25.3260   34.0450 N   0  0  0  0  0  0  0  0  0  0  0  0
   38.2510   27.2640   36.6550 H   0  0  0  0  0  0  0  0  0  0  0  0
   37.2840   28.9260   35.1510 H   0  0  0  0  0  0  0  0  0  0  0  0
   36.9380   25.9070   32.2130 H   0  0  0  0  0  0  0  0  0  0  0  0
   39.8630   23.8700   35.8490 C   0  0  0  0  0  0  0  0  0  0  0  0
   38.7210   24.6210   36.1660 C   0  0  0  0  0  0  0  0  0  0  0  0
   38.1240   24.3490   37.3880 C   0  0  0  0  0  0  0  0  0  0  0  0
   38.6700   23.3860   38.1980 N   0  0  0  0  0  0  0  0  0  0  0  0
   39.7690   22.7020   37.8320 C   0  0  0  0  0  0  0  0  0  0  0  0
   40.3720   22.9350   36.6640 N   0  0  0  0  0  0  0  0  0  0  0  0
   40.3540   24.0570   34.9030 H   0  0  0  0  0  0  0  0  0  0  0  0
   37.2410   24.9080   37.6680 H   0  0  0  0  0  0  0  0  0  0  0  0
   40.1000   21.9710   38.5580 H   0  0  0  0  0  0  0  0  0  0  0  0
   36.4790   28.4280   32.6480 O   0  0  0  0  0  0  0  0  0  0  0  0
   35.3040   29.1260   32.9210 C   0  0  0  0  0  0  0  0  0  0  0  0
   34.9130   30.0210   31.9160 C   0  0  0  0  0  0  0  0  0  0  0  0
   33.7430   30.6360   32.3230 C   0  0  0  0  0  0  0  0  0  0  0  0
   33.4650   30.1130   33.5250 N   0  0  0  0  0  0  0  0  0  0  0  0
   34.3680   29.2340   33.8810 N   0  0  0  0  0  0  0  0  0  0  0  0
   35.3240   30.3070   30.9420 H   0  0  0  0  0  0  0  0  0  0  0  0
   33.0610   31.3670   31.9420 H   0  0  0  0  0  0  0  0  0  0  0  0
   32.4320   30.2700   34.5220 C   0  0  0  0  0  0  0  0  0  0  0  0
   31.0840   30.0450   34.2070 C   0  0  0  0  0  0  0  0  0  0  0  0
   30.8020   29.7510   33.2160 H   0  0  0  0  0  0  0  0  0  0  0  0
   30.1610   30.2180   35.2230 C   0  0  0  0  0  3  0  0  0  0  0  0
   30.4830   30.5940   36.5110 C   0  0  0  0  0  0  0  0  0  0  0  0
   29.7380   30.7210   37.2840 H   0  0  0  0  0  0  0  0  0  0  0  0
   31.8270   30.8180   36.8230 C   0  0  0  0  0  0  0  0  0  0  0  0
   32.1160   31.1130   37.8220 H   0  0  0  0  0  0  0  0  0  0  0  0
   32.7630   30.6490   35.8180 C   0  0  0  0  0  3  0  0  0  0  0  0
  1  2  1  0  0  0  0
  1 11  1  0  0  0  0
  2  7  1  0  0  0  0
  3  8  1  0  0  0  0
  3  2  2  0  0  0  0
  4  3  1  0  0  0  0
  5  4  2  0  0  0  0
  5  6  1  0  0  0  0
  6  1  2  0  0  0  0
  9  5  1  0  0  0  0
 10 11  2  0  0  0  0
 10 15  1  0  0  0  0
 11 12  1  0  0  0  0
 12 17  1  0  0  0  0
 12 13  2  0  0  0  0
 14 13  1  0  0  0  0
 14 18  1  0  0  0  0
 15 14  2  0  0  0  0
 16 10  1  0  0  0  0
 19 20  1  0  0  0  0
 19  4  1  0  0  0  0
 20 24  2  0  0  0  0
 21 22  2  0  0  0  0
 21 20  1  0  0  0  0
 22 23  1  0  0  0  0
 23 24  1  0  0  0  0
 23 27  1  0  0  0  0
 25 21  1  0  0  0  0
 26 22  1  0  0  0  0
 27 35  1  0  0  0  0
 28 27  2  0  0  0  0
 28 30  1  0  0  0  0
 29 28  1  0  0  0  0
 30 31  2  0  0  0  0
 31 33  1  0  0  0  0
 31 32  1  0  0  0  0
 33 34  1  0  0  0  0
 35 33  2  0  0  0  0
M  END
>  <minimizedAffinity>
-5.48276854

$$$$
