
 OpenBabel03272507173D

 26 28  0  0  1  0  0  0  0  0999 V2000
   37.8980   22.2650   34.6270 C   0  0  1  0  0  0  0  0  0  0  0  0
   38.2510   23.1020   33.4990 C   0  0  2  0  0  0  0  0  0  0  0  0
   38.9740   21.7810   33.6500 C   0  0  0  0  0  0  0  0  0  0  0  0
   36.9540   21.6850   34.6350 H   0  0  0  0  0  0  0  0  0  0  0  0
   37.5620   23.1010   32.6350 H   0  0  0  0  0  0  0  0  0  0  0  0
   38.6620   20.9090   33.0430 H   0  0  0  0  0  0  0  0  0  0  0  0
   40.0260   21.7690   33.9630 H   0  0  0  0  0  0  0  0  0  0  0  0
   38.4560   22.5370   35.9990 C   0  0  0  0  0  0  0  0  0  0  0  0
   37.5870   23.1730   36.8870 C   0  0  0  0  0  0  0  0  0  0  0  0
   38.1220   23.4550   38.1530 C   0  0  0  0  0  0  0  0  0  0  0  0
   39.4230   23.1070   38.4550 N   0  0  0  0  0  0  0  0  0  0  0  0
   40.2190   22.4870   37.5410 C   0  0  0  0  0  0  0  0  0  0  0  0
   39.7180   22.2030   36.3020 N   0  0  0  0  0  0  0  0  0  0  0  0
   36.5700   23.4390   36.6380 H   0  0  0  0  0  0  0  0  0  0  0  0
   37.4990   23.9470   38.8890 H   0  0  0  0  0  0  0  0  0  0  0  0
   41.2280   22.2430   37.8440 H   0  0  0  0  0  0  0  0  0  0  0  0
   39.0200   24.2450   33.7140 O   0  0  0  0  0  0  0  0  0  0  0  0
   38.4270   25.4190   34.1280 C   0  0  0  0  0  0  0  0  0  0  0  0
   37.2780   26.0840   33.7570 C   0  0  0  0  0  0  0  0  0  0  0  0
   36.7550   25.5660   32.9910 H   0  0  0  0  0  0  0  0  0  0  0  0
   36.9420   27.2670   34.3660 C   0  0  0  0  0  3  0  0  0  0  0  0
   37.7160   27.8430   35.3610 C   0  0  0  0  0  0  0  0  0  0  0  0
   37.3830   28.7880   35.8010 H   0  0  0  0  0  0  0  0  0  0  0  0
   38.8710   27.1920   35.7460 C   0  0  0  0  0  0  0  0  0  0  0  0
   39.4190   27.6860   36.5130 H   0  0  0  0  0  0  0  0  0  0  0  0
   39.2170   25.9910   35.1310 C   0  0  0  0  0  3  0  0  0  0  0  0
  1  4  1  6  0  0  0
  1  8  1  0  0  0  0
  2  5  1  6  0  0  0
  2  3  1  0  0  0  0
  2 17  1  0  0  0  0
  2  1  1  0  0  0  0
  3  7  1  0  0  0  0
  3  1  1  0  0  0  0
  6  3  1  0  0  0  0
  8 13  2  0  0  0  0
  8  9  1  0  0  0  0
  9 10  2  0  0  0  0
 10 11  1  0  0  0  0
 10 15  1  0  0  0  0
 12 16  1  0  0  0  0
 12 11  2  0  0  0  0
 13 12  1  0  0  0  0
 14  9  1  0  0  0  0
 17 18  1  0  0  0  0
 18 26  1  0  0  0  0
 19 18  2  0  0  0  0
 19 21  1  0  0  0  0
 20 19  1  0  0  0  0
 21 22  2  0  0  0  0
 22 24  1  0  0  0  0
 22 23  1  0  0  0  0
 24 25  1  0  0  0  0
 26 24  2  0  0  0  0
M  END
>  <minimizedAffinity>
-4.66085148

$$$$

 OpenBabel03272507173D

 26 28  0  0  1  0  0  0  0  0999 V2000
   37.8150   22.8940   32.3610 C   0  0  1  0  0  0  0  0  0  0  0  0
   38.4720   22.7230   33.6400 C   0  0  2  0  0  0  0  0  0  0  0  0
   37.1570   22.0080   33.4230 C   0  0  0  0  0  0  0  0  0  0  0  0
   38.1840   22.3740   31.4560 H   0  0  0  0  0  0  0  0  0  0  0  0
   39.3260   22.0220   33.6800 H   0  0  0  0  0  0  0  0  0  0  0  0
   37.1520   20.9310   33.1610 H   0  0  0  0  0  0  0  0  0  0  0  0
   36.2550   22.3580   33.9400 H   0  0  0  0  0  0  0  0  0  0  0  0
   37.0020   24.1260   32.0650 C   0  0  0  0  0  0  0  0  0  0  0  0
   35.8740   23.9260   31.2670 C   0  0  0  0  0  0  0  0  0  0  0  0
   35.1380   25.0820   30.9650 C   0  0  0  0  0  0  0  0  0  0  0  0
   35.5400   26.3110   31.4480 N   0  0  0  0  0  0  0  0  0  0  0  0
   36.6520   26.4370   32.2230 C   0  0  0  0  0  0  0  0  0  0  0  0
   37.3840   25.3240   32.5290 N   0  0  0  0  0  0  0  0  0  0  0  0
   35.5710   22.9580   30.8970 H   0  0  0  0  0  0  0  0  0  0  0  0
   34.2520   24.9950   30.3510 H   0  0  0  0  0  0  0  0  0  0  0  0
   36.9080   27.4300   32.5670 H   0  0  0  0  0  0  0  0  0  0  0  0
   38.4510   23.7700   34.5610 O   0  0  0  0  0  0  0  0  0  0  0  0
   38.7650   23.5450   35.8850 C   0  0  0  0  0  0  0  0  0  0  0  0
   39.8060   22.8980   36.5160 C   0  0  0  0  0  0  0  0  0  0  0  0
   40.5000   22.4970   35.8180 H   0  0  0  0  0  0  0  0  0  0  0  0
   39.8470   22.8370   37.8860 C   0  0  0  0  0  3  0  0  0  0  0  0
   38.8720   23.4060   38.6900 C   0  0  0  0  0  0  0  0  0  0  0  0
   38.9730   23.3160   39.7760 H   0  0  0  0  0  0  0  0  0  0  0  0
   37.8210   24.0580   38.0760 C   0  0  0  0  0  0  0  0  0  0  0  0
   37.1080   24.4720   38.7500 H   0  0  0  0  0  0  0  0  0  0  0  0
   37.7750   24.1230   36.6860 C   0  0  0  0  0  3  0  0  0  0  0  0
  1  4  1  6  0  0  0
  1  3  1  0  0  0  0
  1  2  1  0  0  0  0
  2  5  1  1  0  0  0
  2 17  1  0  0  0  0
  3  2  1  0  0  0  0
  3  7  1  0  0  0  0
  6  3  1  0  0  0  0
  8  1  1  0  0  0  0
  8 13  1  0  0  0  0
  9  8  2  0  0  0  0
 10  9  1  0  0  0  0
 10 11  2  0  0  0  0
 11 12  1  0  0  0  0
 12 13  2  0  0  0  0
 12 16  1  0  0  0  0
 14  9  1  0  0  0  0
 15 10  1  0  0  0  0
 17 18  1  0  0  0  0
 18 19  2  0  0  0  0
 18 26  1  0  0  0  0
 19 21  1  0  0  0  0
 20 19  1  0  0  0  0
 21 22  2  0  0  0  0
 22 23  1  0  0  0  0
 24 22  1  0  0  0  0
 24 25  1  0  0  0  0
 26 24  2  0  0  0  0
M  END
>  <minimizedAffinity>
-4.6371727

$$$$

 OpenBabel03272507173D

 26 28  0  0  1  0  0  0  0  0999 V2000
   38.3670   23.3350   36.2760 C   0  0  1  0  0  0  0  0  0  0  0  0
   37.9020   22.3540   35.3160 C   0  0  2  0  0  0  0  0  0  0  0  0
   39.2830   22.1640   35.9060 C   0  0  0  0  0  0  0  0  0  0  0  0
   37.9840   23.3410   37.3150 H   0  0  0  0  0  0  0  0  0  0  0  0
   37.1870   21.5930   35.6770 H   0  0  0  0  0  0  0  0  0  0  0  0
   39.4340   21.4410   36.7320 H   0  0  0  0  0  0  0  0  0  0  0  0
   40.1700   22.3440   35.2850 H   0  0  0  0  0  0  0  0  0  0  0  0
   38.9250   24.6580   35.8250 C   0  0  0  0  0  0  0  0  0  0  0  0
   38.1050   25.7660   36.0500 C   0  0  0  0  0  0  0  0  0  0  0  0
   38.6140   26.9930   35.5980 C   0  0  0  0  0  0  0  0  0  0  0  0
   39.8470   27.0520   34.9780 N   0  0  0  0  0  0  0  0  0  0  0  0
   40.5970   25.9310   34.7900 C   0  0  0  0  0  0  0  0  0  0  0  0
   40.1200   24.7260   35.2230 N   0  0  0  0  0  0  0  0  0  0  0  0
   37.1430   25.7050   36.5370 H   0  0  0  0  0  0  0  0  0  0  0  0
   38.0280   27.8900   35.7430 H   0  0  0  0  0  0  0  0  0  0  0  0
   41.5520   26.0510   34.2980 H   0  0  0  0  0  0  0  0  0  0  0  0
   37.8600   22.6930   33.9640 O   0  0  0  0  0  0  0  0  0  0  0  0
   36.9340   22.1110   33.1240 C   0  0  0  0  0  0  0  0  0  0  0  0
   36.5160   22.3830   31.8390 C   0  0  0  0  0  0  0  0  0  0  0  0
   37.0270   23.2190   31.4280 H   0  0  0  0  0  0  0  0  0  0  0  0
   35.5500   21.6050   31.2530 C   0  0  0  0  0  3  0  0  0  0  0  0
   34.9550   20.5340   31.9000 C   0  0  0  0  0  0  0  0  0  0  0  0
   34.1910   19.9600   31.3670 H   0  0  0  0  0  0  0  0  0  0  0  0
   35.3610   20.2460   33.1880 C   0  0  0  0  0  0  0  0  0  0  0  0
   34.8660   19.4120   33.6280 H   0  0  0  0  0  0  0  0  0  0  0  0
   36.3420   21.0320   33.7890 C   0  0  0  0  0  3  0  0  0  0  0  0
  1  4  1  1  0  0  0
  2  5  1  1  0  0  0
  2  3  1  0  0  0  0
  2  1  1  0  0  0  0
  3  1  1  0  0  0  0
  3  6  1  0  0  0  0
  7  3  1  0  0  0  0
  8  9  1  0  0  0  0
  8  1  1  0  0  0  0
  9 14  1  0  0  0  0
 10 15  1  0  0  0  0
 10  9  2  0  0  0  0
 11 10  1  0  0  0  0
 12 11  2  0  0  0  0
 12 13  1  0  0  0  0
 13  8  2  0  0  0  0
 16 12  1  0  0  0  0
 17  2  1  0  0  0  0
 18 26  1  0  0  0  0
 18 17  1  0  0  0  0
 19 18  2  0  0  0  0
 20 19  1  0  0  0  0
 21 19  1  0  0  0  0
 21 22  2  0  0  0  0
 22 24  1  0  0  0  0
 23 22  1  0  0  0  0
 24 25  1  0  0  0  0
 24 26  2  0  0  0  0
M  END
>  <minimizedAffinity>
-4.56582499

$$$$

 OpenBabel03272507173D

 26 28  0  0  1  0  0  0  0  0999 V2000
   37.7790   27.3400   34.5890 C   0  0  1  0  0  0  0  0  0  0  0  0
   37.7610   26.4140   35.7030 C   0  0  2  0  0  0  0  0  0  0  0  0
   39.0470   27.1630   35.4310 C   0  0  0  0  0  0  0  0  0  0  0  0
   37.2840   28.3280   34.6610 H   0  0  0  0  0  0  0  0  0  0  0  0
   37.2710   26.7530   36.6340 H   0  0  0  0  0  0  0  0  0  0  0  0
   39.3040   28.0530   36.0370 H   0  0  0  0  0  0  0  0  0  0  0  0
   39.9090   26.6300   35.0090 H   0  0  0  0  0  0  0  0  0  0  0  0
   37.9610   26.8520   33.1770 C   0  0  0  0  0  0  0  0  0  0  0  0
   39.1710   27.1960   32.5720 C   0  0  0  0  0  0  0  0  0  0  0  0
   39.3230   26.7690   31.2440 C   0  0  0  0  0  0  0  0  0  0  0  0
   38.3170   26.0580   30.6200 N   0  0  0  0  0  0  0  0  0  0  0  0
   37.1590   25.7540   31.2690 C   0  0  0  0  0  0  0  0  0  0  0  0
   36.9910   26.1610   32.5630 N   0  0  0  0  0  0  0  0  0  0  0  0
   39.9500   27.7520   33.0720 H   0  0  0  0  0  0  0  0  0  0  0  0
   40.2380   27.0030   30.7180 H   0  0  0  0  0  0  0  0  0  0  0  0
   36.4140   25.1950   30.7200 H   0  0  0  0  0  0  0  0  0  0  0  0
   37.7890   25.0440   35.4480 O   0  0  0  0  0  0  0  0  0  0  0  0
   38.7010   24.2310   36.0880 C   0  0  0  0  0  0  0  0  0  0  0  0
   39.8670   23.6130   35.6860 C   0  0  0  0  0  0  0  0  0  0  0  0
   40.0910   23.8200   34.6690 H   0  0  0  0  0  0  0  0  0  0  0  0
   40.5770   22.8450   36.5740 C   0  0  0  0  0  3  0  0  0  0  0  0
   40.1750   22.6520   37.8860 C   0  0  0  0  0  0  0  0  0  0  0  0
   40.7950   22.0250   38.5350 H   0  0  0  0  0  0  0  0  0  0  0  0
   39.0100   23.2620   38.3060 C   0  0  0  0  0  0  0  0  0  0  0  0
   38.7580   23.0730   39.3230 H   0  0  0  0  0  0  0  0  0  0  0  0
   38.2850   24.0430   37.4100 C   0  0  0  0  0  3  0  0  0  0  0  0
  1  4  1  1  0  0  0
  1  3  1  0  0  0  0
  1  2  1  0  0  0  0
  2  5  1  1  0  0  0
  3  2  1  0  0  0  0
  3  6  1  0  0  0  0
  7  3  1  0  0  0  0
  8  1  1  0  0  0  0
  9 14  1  0  0  0  0
  9  8  1  0  0  0  0
 10  9  2  0  0  0  0
 11 10  1  0  0  0  0
 11 12  2  0  0  0  0
 12 13  1  0  0  0  0
 13  8  2  0  0  0  0
 15 10  1  0  0  0  0
 16 12  1  0  0  0  0
 17  2  1  0  0  0  0
 17 18  1  0  0  0  0
 18 26  1  0  0  0  0
 19 18  2  0  0  0  0
 19 21  1  0  0  0  0
 20 19  1  0  0  0  0
 21 22  2  0  0  0  0
 22 24  1  0  0  0  0
 22 23  1  0  0  0  0
 24 25  1  0  0  0  0
 26 24  2  0  0  0  0
M  END
>  <minimizedAffinity>
-4.53697062

$$$$

 OpenBabel03272507173D

 26 28  0  0  1  0  0  0  0  0999 V2000
   37.6070   27.3770   34.7190 C   0  0  1  0  0  0  0  0  0  0  0  0
   37.6950   26.3110   35.6960 C   0  0  2  0  0  0  0  0  0  0  0  0
   38.8550   27.2780   35.6020 C   0  0  0  0  0  0  0  0  0  0  0  0
   36.9590   28.2580   34.8930 H   0  0  0  0  0  0  0  0  0  0  0  0
   37.1240   26.4380   36.6350 H   0  0  0  0  0  0  0  0  0  0  0  0
   38.9460   28.1020   36.3360 H   0  0  0  0  0  0  0  0  0  0  0  0
   39.8050   26.9460   35.1630 H   0  0  0  0  0  0  0  0  0  0  0  0
   37.9150   27.1260   33.2670 C   0  0  0  0  0  0  0  0  0  0  0  0
   36.8320   26.7250   32.4820 C   0  0  0  0  0  0  0  0  0  0  0  0
   37.1300   26.4590   31.1370 C   0  0  0  0  0  0  0  0  0  0  0  0
   38.4210   26.5980   30.6670 N   0  0  0  0  0  0  0  0  0  0  0  0
   39.4330   26.9940   31.4880 C   0  0  0  0  0  0  0  0  0  0  0  0
   39.1650   27.2580   32.8020 N   0  0  0  0  0  0  0  0  0  0  0  0
   35.8270   26.6210   32.8630 H   0  0  0  0  0  0  0  0  0  0  0  0
   36.3350   26.1460   30.4750 H   0  0  0  0  0  0  0  0  0  0  0  0
   40.4190   27.0820   31.0540 H   0  0  0  0  0  0  0  0  0  0  0  0
   37.9490   25.0110   35.2630 O   0  0  0  0  0  0  0  0  0  0  0  0
   38.8450   24.2090   35.9400 C   0  0  0  0  0  0  0  0  0  0  0  0
   40.0500   23.6350   35.5970 C   0  0  0  0  0  0  0  0  0  0  0  0
   40.3290   23.8730   34.6000 H   0  0  0  0  0  0  0  0  0  0  0  0
   40.7280   22.8670   36.5090 C   0  0  0  0  0  3  0  0  0  0  0  0
   40.2540   22.6310   37.7900 C   0  0  0  0  0  0  0  0  0  0  0  0
   40.8520   22.0080   38.4620 H   0  0  0  0  0  0  0  0  0  0  0  0
   39.0480   23.1980   38.1510 C   0  0  0  0  0  0  0  0  0  0  0  0
   38.7410   22.9780   39.1470 H   0  0  0  0  0  0  0  0  0  0  0  0
   38.3550   23.9790   37.2290 C   0  0  0  0  0  3  0  0  0  0  0  0
  1  4  1  1  0  0  0
  1  3  1  0  0  0  0
  1  2  1  0  0  0  0
  2  5  1  1  0  0  0
  3  2  1  0  0  0  0
  3  6  1  0  0  0  0
  7  3  1  0  0  0  0
  8  1  1  0  0  0  0
  9 14  1  0  0  0  0
  9  8  2  0  0  0  0
 10  9  1  0  0  0  0
 11 10  2  0  0  0  0
 11 12  1  0  0  0  0
 12 13  2  0  0  0  0
 13  8  1  0  0  0  0
 15 10  1  0  0  0  0
 16 12  1  0  0  0  0
 17  2  1  0  0  0  0
 17 18  1  0  0  0  0
 18 26  1  0  0  0  0
 19 18  2  0  0  0  0
 19 21  1  0  0  0  0
 20 19  1  0  0  0  0
 21 22  2  0  0  0  0
 22 24  1  0  0  0  0
 22 23  1  0  0  0  0
 24 25  1  0  0  0  0
 26 24  2  0  0  0  0
M  END
>  <minimizedAffinity>
-4.53220844

$$$$

 OpenBabel03272507173D

 26 28  0  0  1  0  0  0  0  0999 V2000
   39.1900   24.7220   34.4970 C   0  0  1  0  0  0  0  0  0  0  0  0
   38.7650   23.9160   33.3710 C   0  0  2  0  0  0  0  0  0  0  0  0
   37.8250   24.9970   33.8590 C   0  0  0  0  0  0  0  0  0  0  0  0
   39.9510   25.5170   34.3750 H   0  0  0  0  0  0  0  0  0  0  0  0
   39.2000   24.1580   32.3840 H   0  0  0  0  0  0  0  0  0  0  0  0
   37.7730   25.9650   33.3230 H   0  0  0  0  0  0  0  0  0  0  0  0
   36.9080   24.7200   34.3960 H   0  0  0  0  0  0  0  0  0  0  0  0
   39.0660   24.2110   35.9080 C   0  0  0  0  0  0  0  0  0  0  0  0
   40.0420   23.2950   36.3050 C   0  0  0  0  0  0  0  0  0  0  0  0
   39.9030   22.7950   37.6090 C   0  0  0  0  0  0  0  0  0  0  0  0
   38.8560   23.2100   38.4080 N   0  0  0  0  0  0  0  0  0  0  0  0
   37.9370   24.1090   37.9580 C   0  0  0  0  0  0  0  0  0  0  0  0
   38.0540   24.6080   36.6920 N   0  0  0  0  0  0  0  0  0  0  0  0
   40.8550   22.9790   35.6690 H   0  0  0  0  0  0  0  0  0  0  0  0
   40.6270   22.0820   37.9770 H   0  0  0  0  0  0  0  0  0  0  0  0
   37.1440   24.3900   38.6380 H   0  0  0  0  0  0  0  0  0  0  0  0
   38.3500   22.6040   33.5920 O   0  0  0  0  0  0  0  0  0  0  0  0
   37.2490   22.0960   32.9340 C   0  0  0  0  0  0  0  0  0  0  0  0
   36.7320   22.2810   31.6700 C   0  0  0  0  0  0  0  0  0  0  0  0
   37.3200   22.9590   31.1000 H   0  0  0  0  0  0  0  0  0  0  0  0
   35.5900   21.6200   31.2920 C   0  0  0  0  0  3  0  0  0  0  0  0
   34.9120   20.7550   32.1360 C   0  0  0  0  0  0  0  0  0  0  0  0
   34.0080   20.2640   31.7630 H   0  0  0  0  0  0  0  0  0  0  0  0
   35.4150   20.5570   33.4060 C   0  0  0  0  0  0  0  0  0  0  0  0
   34.8480   19.8820   34.0030 H   0  0  0  0  0  0  0  0  0  0  0  0
   36.5740   21.2250   33.7950 C   0  0  0  0  0  3  0  0  0  0  0  0
  1  4  1  6  0  0  0
  1  8  1  0  0  0  0
  2  5  1  6  0  0  0
  2 17  1  0  0  0  0
  2  3  1  0  0  0  0
  2  1  1  0  0  0  0
  3  7  1  0  0  0  0
  3  1  1  0  0  0  0
  6  3  1  0  0  0  0
  8  9  2  0  0  0  0
  8 13  1  0  0  0  0
  9 10  1  0  0  0  0
 10 15  1  0  0  0  0
 10 11  2  0  0  0  0
 12 11  1  0  0  0  0
 12 16  1  0  0  0  0
 13 12  2  0  0  0  0
 14  9  1  0  0  0  0
 18 17  1  0  0  0  0
 18 26  1  0  0  0  0
 19 18  2  0  0  0  0
 20 19  1  0  0  0  0
 21 19  1  0  0  0  0
 21 22  2  0  0  0  0
 22 24  1  0  0  0  0
 23 22  1  0  0  0  0
 24 26  2  0  0  0  0
 24 25  1  0  0  0  0
M  END
>  <minimizedAffinity>
-4.49997997

$$$$

 OpenBabel03272507173D

 26 28  0  0  1  0  0  0  0  0999 V2000
   38.1180   27.3220   34.5460 C   0  0  1  0  0  0  0  0  0  0  0  0
   37.4810   26.2330   35.2590 C   0  0  2  0  0  0  0  0  0  0  0  0
   38.3980   27.1480   36.0420 C   0  0  0  0  0  0  0  0  0  0  0  0
   37.5480   28.2280   34.2620 H   0  0  0  0  0  0  0  0  0  0  0  0
   36.4210   26.3660   35.5420 H   0  0  0  0  0  0  0  0  0  0  0  0
   37.9680   27.9520   36.6700 H   0  0  0  0  0  0  0  0  0  0  0  0
   39.3790   26.7820   36.3720 H   0  0  0  0  0  0  0  0  0  0  0  0
   39.3450   27.0860   33.7060 C   0  0  0  0  0  0  0  0  0  0  0  0
   39.1090   26.8410   32.3520 C   0  0  0  0  0  0  0  0  0  0  0  0
   40.2530   26.5890   31.5790 C   0  0  0  0  0  0  0  0  0  0  0  0
   41.5040   26.5930   32.1610 N   0  0  0  0  0  0  0  0  0  0  0  0
   41.6640   26.8410   33.4910 C   0  0  0  0  0  0  0  0  0  0  0  0
   40.5640   27.0890   34.2620 N   0  0  0  0  0  0  0  0  0  0  0  0
   38.1240   26.8410   31.9090 H   0  0  0  0  0  0  0  0  0  0  0  0
   40.1390   26.3920   30.5220 H   0  0  0  0  0  0  0  0  0  0  0  0
   42.6730   26.8290   33.8800 H   0  0  0  0  0  0  0  0  0  0  0  0
   37.9410   24.9320   35.0650 O   0  0  0  0  0  0  0  0  0  0  0  0
   38.5180   24.2300   36.1030 C   0  0  0  0  0  0  0  0  0  0  0  0
   38.1160   23.9380   37.3890 C   0  0  0  0  0  0  0  0  0  0  0  0
   37.1600   24.3490   37.6040 H   0  0  0  0  0  0  0  0  0  0  0  0
   38.9280   23.1980   38.2100 C   0  0  0  0  0  3  0  0  0  0  0  0
   40.1630   22.7160   37.8060 C   0  0  0  0  0  0  0  0  0  0  0  0
   40.7540   22.1330   38.5180 H   0  0  0  0  0  0  0  0  0  0  0  0
   40.5820   22.9980   36.5220 C   0  0  0  0  0  0  0  0  0  0  0  0
   41.5380   22.5990   36.2750 H   0  0  0  0  0  0  0  0  0  0  0  0
   39.7620   23.7490   35.6830 C   0  0  0  0  0  3  0  0  0  0  0  0
  1  4  1  6  0  0  0
  1  2  1  0  0  0  0
  1  3  1  0  0  0  0
  2  5  1  1  0  0  0
  2  3  1  0  0  0  0
  3  7  1  0  0  0  0
  3  6  1  0  0  0  0
  8 13  1  0  0  0  0
  8  1  1  0  0  0  0
  9  8  2  0  0  0  0
 10 11  2  0  0  0  0
 10  9  1  0  0  0  0
 11 12  1  0  0  0  0
 12 16  1  0  0  0  0
 12 13  2  0  0  0  0
 14  9  1  0  0  0  0
 15 10  1  0  0  0  0
 17  2  1  0  0  0  0
 17 18  1  0  0  0  0
 18 19  1  0  0  0  0
 19 20  1  0  0  0  0
 19 21  2  0  0  0  0
 22 21  1  0  0  0  0
 22 23  1  0  0  0  0
 24 22  2  0  0  0  0
 25 24  1  0  0  0  0
 26 18  2  0  0  0  0
 26 24  1  0  0  0  0
M  END
>  <minimizedAffinity>
-4.47534275

$$$$

 OpenBabel03272507173D

 26 28  0  0  1  0  0  0  0  0999 V2000
   38.1340   23.0720   34.5180 C   0  0  1  0  0  0  0  0  0  0  0  0
   38.0400   24.2300   33.6530 C   0  0  2  0  0  0  0  0  0  0  0  0
   39.3260   23.4330   33.6260 C   0  0  0  0  0  0  0  0  0  0  0  0
   37.6090   22.1290   34.2690 H   0  0  0  0  0  0  0  0  0  0  0  0
   37.4600   24.1160   32.7180 H   0  0  0  0  0  0  0  0  0  0  0  0
   39.5050   22.7050   32.8100 H   0  0  0  0  0  0  0  0  0  0  0  0
   40.2350   23.8510   34.0760 H   0  0  0  0  0  0  0  0  0  0  0  0
   38.4540   23.2220   35.9820 C   0  0  0  0  0  0  0  0  0  0  0  0
   39.6350   22.6100   36.4060 C   0  0  0  0  0  0  0  0  0  0  0  0
   39.9120   22.7220   37.7770 C   0  0  0  0  0  0  0  0  0  0  0  0
   39.0460   23.4020   38.6110 N   0  0  0  0  0  0  0  0  0  0  0  0
   37.9090   23.9770   38.1310 C   0  0  0  0  0  0  0  0  0  0  0  0
   37.6200   23.8800   36.7990 N   0  0  0  0  0  0  0  0  0  0  0  0
   40.3030   22.0820   35.7420 H   0  0  0  0  0  0  0  0  0  0  0  0
   40.8130   22.2710   38.1690 H   0  0  0  0  0  0  0  0  0  0  0  0
   37.2770   24.4940   38.8400 H   0  0  0  0  0  0  0  0  0  0  0  0
   38.1250   25.5040   34.2110 O   0  0  0  0  0  0  0  0  0  0  0  0
   37.4160   26.5560   33.6680 C   0  0  0  0  0  0  0  0  0  0  0  0
   37.0890   26.9140   32.3780 C   0  0  0  0  0  0  0  0  0  0  0  0
   37.4740   26.2220   31.6690 H   0  0  0  0  0  0  0  0  0  0  0  0
   36.3520   28.0480   32.1460 C   0  0  0  0  0  3  0  0  0  0  0  0
   35.9070   28.8730   33.1660 C   0  0  0  0  0  0  0  0  0  0  0  0
   35.3230   29.7600   32.9030 H   0  0  0  0  0  0  0  0  0  0  0  0
   36.2240   28.5310   34.4650 C   0  0  0  0  0  0  0  0  0  0  0  0
   35.8530   29.2060   35.2000 H   0  0  0  0  0  0  0  0  0  0  0  0
   36.9730   27.3810   34.7070 C   0  0  0  0  0  3  0  0  0  0  0  0
  1  4  1  6  0  0  0
  1  8  1  0  0  0  0
  2  5  1  6  0  0  0
  2 17  1  0  0  0  0
  2  1  1  0  0  0  0
  3  2  1  0  0  0  0
  3  7  1  0  0  0  0
  3  1  1  0  0  0  0
  6  3  1  0  0  0  0
  8  9  2  0  0  0  0
  8 13  1  0  0  0  0
  9 10  1  0  0  0  0
 10 15  1  0  0  0  0
 10 11  2  0  0  0  0
 12 11  1  0  0  0  0
 12 16  1  0  0  0  0
 13 12  2  0  0  0  0
 14  9  1  0  0  0  0
 18 17  1  0  0  0  0
 18 26  1  0  0  0  0
 19 18  2  0  0  0  0
 20 19  1  0  0  0  0
 21 19  1  0  0  0  0
 21 22  2  0  0  0  0
 22 24  1  0  0  0  0
 23 22  1  0  0  0  0
 24 26  2  0  0  0  0
 24 25  1  0  0  0  0
M  END
>  <minimizedAffinity>
-4.40759087

$$$$

 OpenBabel03272507173D

 26 28  0  0  1  0  0  0  0  0999 V2000
   36.9200   24.9870   31.3420 C   0  0  1  0  0  0  0  0  0  0  0  0
   35.9720   23.9540   30.9770 C   0  0  2  0  0  0  0  0  0  0  0  0
   35.4780   25.3840   31.0130 C   0  0  0  0  0  0  0  0  0  0  0  0
   37.6930   25.3310   30.6270 H   0  0  0  0  0  0  0  0  0  0  0  0
   36.0270   23.5600   29.9460 H   0  0  0  0  0  0  0  0  0  0  0  0
   35.3790   25.9570   30.0700 H   0  0  0  0  0  0  0  0  0  0  0  0
   34.8060   25.7080   31.8190 H   0  0  0  0  0  0  0  0  0  0  0  0
   37.2680   25.2470   32.7840 C   0  0  0  0  0  0  0  0  0  0  0  0
   37.9590   24.2220   33.4310 C   0  0  0  0  0  0  0  0  0  0  0  0
   38.2510   24.4540   34.7840 C   0  0  0  0  0  0  0  0  0  0  0  0
   37.8620   25.6320   35.3900 N   0  0  0  0  0  0  0  0  0  0  0  0
   37.1880   26.5930   34.6990 C   0  0  0  0  0  0  0  0  0  0  0  0
   36.8940   26.3870   33.3810 N   0  0  0  0  0  0  0  0  0  0  0  0
   38.2580   23.3060   32.9440 H   0  0  0  0  0  0  0  0  0  0  0  0
   38.7860   23.6990   35.3420 H   0  0  0  0  0  0  0  0  0  0  0  0
   36.9140   27.4900   35.2370 H   0  0  0  0  0  0  0  0  0  0  0  0
   35.4700   23.1120   31.9680 O   0  0  0  0  0  0  0  0  0  0  0  0
   35.5120   21.7420   31.8110 C   0  0  0  0  0  0  0  0  0  0  0  0
   34.7270   20.7090   32.2770 C   0  0  0  0  0  0  0  0  0  0  0  0
   33.9280   21.0650   32.8800 H   0  0  0  0  0  0  0  0  0  0  0  0
   35.0280   19.4140   31.9410 C   0  0  0  0  0  3  0  0  0  0  0  0
   36.1070   19.0790   31.1390 C   0  0  0  0  0  0  0  0  0  0  0  0
   36.2830   18.0220   30.9140 H   0  0  0  0  0  0  0  0  0  0  0  0
   36.9050   20.1000   30.6630 C   0  0  0  0  0  0  0  0  0  0  0  0
   37.7160   19.7750   30.0530 H   0  0  0  0  0  0  0  0  0  0  0  0
   36.6050   21.4170   30.9990 C   0  0  0  0  0  3  0  0  0  0  0  0
  1  4  1  6  0  0  0
  1  8  1  0  0  0  0
  2  5  1  6  0  0  0
  2  3  1  0  0  0  0
  2  1  1  0  0  0  0
  2 17  1  0  0  0  0
  3  1  1  0  0  0  0
  3  7  1  0  0  0  0
  6  3  1  0  0  0  0
  8 13  2  0  0  0  0
  8  9  1  0  0  0  0
  9 10  2  0  0  0  0
 10 15  1  0  0  0  0
 10 11  1  0  0  0  0
 12 16  1  0  0  0  0
 12 11  2  0  0  0  0
 13 12  1  0  0  0  0
 14  9  1  0  0  0  0
 18 17  1  0  0  0  0
 18 19  1  0  0  0  0
 19 20  1  0  0  0  0
 21 19  2  0  0  0  0
 22 21  1  0  0  0  0
 23 22  1  0  0  0  0
 24 26  1  0  0  0  0
 24 22  2  0  0  0  0
 25 24  1  0  0  0  0
 26 18  2  0  0  0  0
M  END
>  <minimizedAffinity>
-4.3684473

$$$$
