
 OpenBabel03272509583D

 46 49  0  0  0  0  0  0  0  0999 V2000
   34.5420   29.3960   43.5200 C   0  0  0  0  0  0  0  0  0  0  0  0
   35.6390   29.2420   43.7000 H   0  0  0  0  0  0  0  0  0  0  0  0
   34.5080   30.2400   42.7910 H   0  0  0  0  0  0  0  0  0  0  0  0
   33.8840   28.1460   43.0100 C   0  0  0  0  0  0  0  0  0  0  0  0
   32.7880   28.2250   43.2420 H   0  0  0  0  0  0  0  0  0  0  0  0
   33.9460   28.0000   41.9230 H   0  0  0  0  0  0  0  0  0  0  0  0
   34.3520   26.9180   43.7130 C   0  0  0  0  0  0  0  0  0  0  0  0
   35.3280   26.1580   43.0920 C   0  0  0  0  0  0  0  0  0  0  0  0
   35.8210   25.0100   43.6640 C   0  0  0  0  0  0  0  0  0  0  0  0
   35.3460   24.6180   44.8490 N   0  0  0  0  0  0  0  0  0  0  0  0
   34.3830   25.3790   45.4440 C   0  0  0  0  0  0  0  0  0  0  0  0
   33.8900   26.5000   44.9050 N   0  0  0  0  0  0  0  0  0  0  0  0
   35.7160   26.4760   42.1270 H   0  0  0  0  0  0  0  0  0  0  0  0
   36.5980   24.4360   43.1360 H   0  0  0  0  0  0  0  0  0  0  0  0
   33.8880   24.8950   46.7670 C   0  0  0  0  0  0  0  0  0  0  0  0
   34.7660   24.5330   47.3420 H   0  0  0  0  0  0  0  0  0  0  0  0
   33.3100   23.9560   46.5320 H   0  0  0  0  0  0  0  0  0  0  0  0
   33.0830   25.8800   47.4990 C   0  0  0  0  0  0  0  0  0  0  0  0
   31.7040   25.6540   47.5500 C   0  0  0  0  0  0  0  0  0  0  0  0
   31.2350   24.7930   47.0750 H   0  0  0  0  0  0  0  0  0  0  0  0
   30.8410   26.5070   48.2060 C   0  0  0  0  0  3  0  0  0  0  0  0
   31.3510   27.6210   48.8330 C   0  0  0  0  0  0  0  0  0  0  0  0
   30.7110   28.3280   49.3670 H   0  0  0  0  0  0  0  0  0  0  0  0
   32.7030   27.8490   48.7870 C   0  0  0  0  0  0  0  0  0  0  0  0
   33.1410   28.6950   49.2560 H   0  0  0  0  0  0  0  0  0  0  0  0
   33.5940   26.9970   48.1280 C   0  0  0  0  0  3  0  0  0  0  0  0
   33.9660   29.7970   44.7540 O   0  0  0  0  0  0  0  0  0  0  0  0
   35.4110   30.4660   47.9930 C   0  0  0  0  0  0  0  0  0  0  0  0
   36.7560   30.7020   47.6250 C   0  0  0  0  0  0  0  0  0  0  0  0
   37.0820   30.6140   46.2710 C   0  0  0  0  0  0  0  0  0  0  0  0
   36.0540   30.3050   45.4320 N   0  0  0  0  0  0  0  0  0  0  0  0
   34.7880   30.0840   45.7870 C   0  0  0  0  0  0  0  0  0  0  0  0
   34.4730   30.1700   47.0990 N   0  0  0  0  0  0  0  0  0  0  0  0
   35.2010   30.5440   49.0480 H   0  0  0  0  0  0  0  0  0  0  0  0
   37.5560   30.9430   48.2880 H   0  0  0  0  0  0  0  0  0  0  0  0
   39.3720   31.8690   47.5090 F   0  0  0  0  0  0  0  0  0  0  0  0
   39.4720   31.3990   46.2620 C   0  0  0  0  0  0  0  0  0  0  0  0
   38.3970   30.8210   45.7110 C   0  0  0  0  0  0  0  0  0  0  0  0
   38.6070   30.3630   44.4080 C   0  0  0  0  0  0  0  0  0  0  0  0
   39.8030   30.4950   43.7560 C   0  0  0  0  0  0  0  0  0  0  0  0
   40.8780   31.0960   44.3690 C   0  0  0  0  0  0  0  0  0  0  0  0
   40.6970   31.5530   45.6440 C   0  0  0  0  0  0  0  0  0  0  0  0
   37.8260   29.8720   43.8290 H   0  0  0  0  0  0  0  0  0  0  0  0
   39.9550   30.1360   42.7460 H   0  0  0  0  0  0  0  0  0  0  0  0
   41.8340   31.2090   43.8680 H   0  0  0  0  0  0  0  0  0  0  0  0
   41.5310   32.0300   46.1440 H   0  0  0  0  0  0  0  0  0  0  0  0
  1  2  1  0  0  0  0
  1 27  1  0  0  0  0
  3  1  1  0  0  0  0
  4  5  1  0  0  0  0
  4  1  1  0  0  0  0
  4  7  1  0  0  0  0
  6  4  1  0  0  0  0
  7 12  1  0  0  0  0
  8  9  1  0  0  0  0
  8  7  2  0  0  0  0
  9 10  2  0  0  0  0
 10 11  1  0  0  0  0
 11 15  1  0  0  0  0
 12 11  2  0  0  0  0
 13  8  1  0  0  0  0
 14  9  1  0  0  0  0
 15 16  1  0  0  0  0
 15 18  1  0  0  0  0
 17 15  1  0  0  0  0
 18 19  2  0  0  0  0
 18 26  1  0  0  0  0
 19 21  1  0  0  0  0
 20 19  1  0  0  0  0
 21 22  2  0  0  0  0
 22 23  1  0  0  0  0
 24 22  1  0  0  0  0
 24 25  1  0  0  0  0
 26 24  2  0  0  0  0
 27 32  1  0  0  0  0
 28 34  1  0  0  0  0
 29 28  1  0  0  0  0
 29 35  1  0  0  0  0
 30 29  2  0  0  0  0
 31 32  2  0  0  0  0
 31 30  1  0  0  0  0
 32 33  1  0  0  0  0
 33 28  2  0  0  0  0
 37 36  1  0  0  0  0
 38 37  1  0  0  0  0
 38 30  1  0  0  0  0
 39 38  2  0  0  0  0
 40 41  2  0  0  0  0
 40 39  1  0  0  0  0
 41 42  1  0  0  0  0
 42 46  1  0  0  0  0
 42 37  2  0  0  0  0
 43 39  1  0  0  0  0
 44 40  1  0  0  0  0
 45 41  1  0  0  0  0
M  END
>  <minimizedAffinity>
-5.0423646

>  <minimizedRMSD>
5.1442523

$$$$
