
 OpenBabel03272510123D

 35 38  0  0  0  0  0  0  0  0999 V2000
   33.4100   28.3860   49.0290 C   0  0  0  0  0  0  0  0  0  0  0  0
   33.7030   28.9140   50.2360 C   0  0  0  0  0  0  0  0  0  0  0  0
   34.9290   29.4280   50.6020 C   0  0  0  0  0  0  0  0  0  0  0  0
   35.9560   29.4220   49.7030 C   0  0  0  0  0  0  0  0  0  0  0  0
   35.6680   28.8790   48.4480 C   0  0  0  0  0  0  0  0  0  0  0  0
   34.4500   28.3910   48.1470 N   0  0  0  0  0  0  0  0  0  0  0  0
   32.9510   28.9610   51.0170 H   0  0  0  0  0  0  0  0  0  0  0  0
   35.1530   29.8510   51.5800 H   0  0  0  0  0  0  0  0  0  0  0  0
   36.4370   28.8420   47.6820 H   0  0  0  0  0  0  0  0  0  0  0  0
   30.9880   27.9300   49.4660 C   0  0  0  0  0  0  0  0  0  0  0  0
   32.1340   27.8550   48.6600 C   0  0  0  0  0  0  0  0  0  0  0  0
   31.9860   27.2200   47.4360 C   0  0  0  0  0  0  0  0  0  0  0  0
   30.7580   26.7140   47.0900 N   0  0  0  0  0  0  0  0  0  0  0  0
   29.6980   26.8210   47.9130 C   0  0  0  0  0  0  0  0  0  0  0  0
   29.8010   27.4240   49.0980 N   0  0  0  0  0  0  0  0  0  0  0  0
   31.0680   28.4190   50.4280 H   0  0  0  0  0  0  0  0  0  0  0  0
   32.8470   27.1430   46.7860 H   0  0  0  0  0  0  0  0  0  0  0  0
   28.7880   26.3820   47.5250 H   0  0  0  0  0  0  0  0  0  0  0  0
   37.2460   29.9000   49.9130 O   0  0  0  0  0  0  0  0  0  0  0  0
   37.7990   30.8710   49.0800 C   0  0  0  0  0  0  0  0  0  0  0  0
   38.2360   32.0260   49.7430 C   0  0  0  0  0  0  0  0  0  0  0  0
   38.7560   32.8910   48.7970 C   0  0  0  0  0  0  0  0  0  0  0  0
   38.6260   32.2560   47.6250 N   0  0  0  0  0  0  0  0  0  0  0  0
   38.0700   31.0800   47.7790 N   0  0  0  0  0  0  0  0  0  0  0  0
   38.2440   32.3530   50.7880 H   0  0  0  0  0  0  0  0  0  0  0  0
   39.2010   33.8630   48.7760 H   0  0  0  0  0  0  0  0  0  0  0  0
   38.9380   32.5350   46.2420 C   0  0  0  0  0  0  0  0  0  0  0  0
   40.1750   33.0830   45.8770 C   0  0  0  0  0  0  0  0  0  0  0  0
   40.9090   33.3050   46.6250 H   0  0  0  0  0  0  0  0  0  0  0  0
   40.3910   33.3180   44.5310 C   0  0  0  0  0  3  0  0  0  0  0  0
   39.4720   33.0460   43.5380 C   0  0  0  0  0  0  0  0  0  0  0  0
   39.6690   33.2400   42.4920 H   0  0  0  0  0  0  0  0  0  0  0  0
   38.2390   32.4990   43.9040 C   0  0  0  0  0  0  0  0  0  0  0  0
   37.4940   32.2740   43.1520 H   0  0  0  0  0  0  0  0  0  0  0  0
   38.0080   32.2590   45.2460 C   0  0  0  0  0  3  0  0  0  0  0  0
  1  2  1  0  0  0  0
  2  3  2  0  0  0  0
  2  7  1  0  0  0  0
  3  8  1  0  0  0  0
  4 19  1  0  0  0  0
  4  3  1  0  0  0  0
  5  4  2  0  0  0  0
  6  5  1  0  0  0  0
  6  1  2  0  0  0  0
  9  5  1  0  0  0  0
 10 16  1  0  0  0  0
 11  1  1  0  0  0  0
 11 10  2  0  0  0  0
 12 11  1  0  0  0  0
 13 12  2  0  0  0  0
 13 14  1  0  0  0  0
 14 15  2  0  0  0  0
 15 10  1  0  0  0  0
 17 12  1  0  0  0  0
 18 14  1  0  0  0  0
 20 21  1  0  0  0  0
 20 19  1  0  0  0  0
 21 25  1  0  0  0  0
 22 21  2  0  0  0  0
 23 24  1  0  0  0  0
 23 22  1  0  0  0  0
 24 20  2  0  0  0  0
 26 22  1  0  0  0  0
 27 23  1  0  0  0  0
 28 27  1  0  0  0  0
 28 29  1  0  0  0  0
 30 28  2  0  0  0  0
 31 33  2  0  0  0  0
 31 30  1  0  0  0  0
 32 31  1  0  0  0  0
 33 35  1  0  0  0  0
 34 33  1  0  0  0  0
 35 27  2  0  0  0  0
M  END
>  <minimizedAffinity>
-6.19158745

>  <minimizedRMSD>
1.47745252

$$$$
