
 OpenBabel03272508193D

 31 33  0  0  0  0  0  0  0  0999 V2000
   33.5680   28.6460   47.5320 C   0  0  0  0  0  0  0  0  0  0  0  0
   34.7800   29.0800   48.0850 C   0  0  0  0  0  0  0  0  0  0  0  0
   35.5520   29.7990   47.2210 C   0  0  0  0  0  0  0  0  0  0  0  0
   35.1740   30.0680   45.9420 N   0  0  0  0  0  0  0  0  0  0  0  0
   34.0030   29.6360   45.4430 C   0  0  0  0  0  0  0  0  0  0  0  0
   33.1930   28.9210   46.2380 N   0  0  0  0  0  0  0  0  0  0  0  0
   36.5200   30.2110   47.4000 H   0  0  0  0  0  0  0  0  0  0  0  0
   33.6380   29.8090   44.4420 H   0  0  0  0  0  0  0  0  0  0  0  0
   32.6330   27.8920   48.4640 C   0  0  0  0  0  0  0  0  0  0  0  0
   31.2840   27.6310   48.1150 C   0  0  0  0  0  0  0  0  0  0  0  0
   32.2660   26.5220   47.7950 C   0  0  0  0  0  0  0  0  0  0  0  0
   33.1140   27.6170   49.4350 H   0  0  0  0  0  0  0  0  0  0  0  0
   30.8190   28.0750   47.2060 H   0  0  0  0  0  0  0  0  0  0  0  0
   30.5600   27.3840   48.9210 H   0  0  0  0  0  0  0  0  0  0  0  0
   32.5550   26.3530   46.7640 H   0  0  0  0  0  0  0  0  0  0  0  0
   32.2390   25.6370   48.4220 H   0  0  0  0  0  0  0  0  0  0  0  0
   35.2160   28.7640   49.4230 C   0  0  0  0  0  0  0  0  0  0  0  0
   34.9140   27.7330   49.6820 H   0  0  0  0  0  0  0  0  0  0  0  0
   34.5950   29.3970   50.1510 H   0  0  0  0  0  0  0  0  0  0  0  0
   36.6020   29.0090   49.8280 C   0  0  0  0  0  0  0  0  0  0  0  0
   36.6120   29.0770   50.9540 H   0  0  0  0  0  0  0  0  0  0  0  0
   37.2490   28.1000   49.6040 H   0  0  0  0  0  0  0  0  0  0  0  0
   37.2780   30.2010   49.2920 C   0  0  0  0  0  0  0  0  0  0  0  0
   38.1040   30.5350   48.2490 C   0  0  0  0  0  0  0  0  0  0  0  0
   38.3800   29.6810   47.6650 H   0  0  0  0  0  0  0  0  0  0  0  0
   38.5640   31.7840   47.9600 C   0  0  0  0  0  0  0  0  0  0  0  0
   38.2180   32.8510   48.7360 C   0  0  0  0  0  0  0  0  0  0  0  0
   38.6420   33.7890   48.4110 H   0  0  0  0  0  0  0  0  0  0  0  0
   37.3940   32.6260   49.8090 C   0  0  0  0  0  0  0  0  0  0  0  0
   37.1450   33.4860   50.3920 H   0  0  0  0  0  0  0  0  0  0  0  0
   36.9550   31.3240   50.0520 C   0  0  0  0  0  0  0  0  0  0  0  0
  1  2  1  0  0  0  0
  1  9  1  0  0  0  0
  2 17  1  0  0  0  0
  3  7  1  0  0  0  0
  3  2  2  0  0  0  0
  4  3  1  0  0  0  0
  5  4  2  0  0  0  0
  5  6  1  0  0  0  0
  6  1  2  0  0  0  0
  8  5  1  0  0  0  0
  9 12  1  0  0  0  0
 10  9  1  0  0  0  0
 10 14  1  0  0  0  0
 11 10  1  0  0  0  0
 11 16  1  0  0  0  0
 11  9  1  0  0  0  0
 13 10  1  0  0  0  0
 15 11  1  0  0  0  0
 17 18  1  0  0  0  0
 17 20  1  0  0  0  0
 17 19  1  0  0  0  0
 20 21  1  0  0  0  0
 22 20  1  0  0  0  0
 23 20  1  0  0  0  0
 23 31  1  0  0  0  0
 24 23  2  0  0  0  0
 25 24  1  0  0  0  0
 26 24  1  0  0  0  0
 26 27  2  0  0  0  0
 27 29  1  0  0  0  0
 28 27  1  0  0  0  0
 29 31  2  0  0  0  0
 29 30  1  0  0  0  0
M  END
>  <minimizedAffinity>
-5.33075476

>  <minimizedRMSD>
4.97139835

$$$$
