
 OpenBabel03272506393D

 37 39  0  0  1  0  0  0  0  0999 V2000
   34.6960   28.3010   49.7880 O   0  0  0  0  0  0  0  0  0  0  0  0
   34.4400   28.8440   48.7050 C   0  0  0  0  0  0  0  0  0  0  0  0
   35.1650   30.0080   48.2450 C   0  0  2  0  0  0  0  0  0  0  0  0
   34.6000   30.1680   46.8010 C   0  0  0  0  0  0  0  0  0  0  0  0
   33.2540   29.5350   46.8800 C   0  0  0  0  0  0  0  0  0  0  0  0
   33.4250   28.4080   47.7890 N   0  0  0  0  0  0  0  0  0  0  0  0
   34.9670   30.9360   48.7970 H   0  0  0  0  0  0  0  0  0  0  0  0
   34.4830   31.2570   46.6570 H   0  0  0  0  0  0  0  0  0  0  0  0
   35.2750   29.7130   46.0710 H   0  0  0  0  0  0  0  0  0  0  0  0
   32.9960   29.1220   45.8740 H   0  0  0  0  0  0  0  0  0  0  0  0
   32.4480   30.2010   47.1810 H   0  0  0  0  0  0  0  0  0  0  0  0
   32.7130   27.1380   47.7560 C   0  0  0  0  0  0  0  0  0  0  0  0
   31.7290   27.3450   47.2860 H   0  0  0  0  0  0  0  0  0  0  0  0
   32.5620   26.6790   48.7330 H   0  0  0  0  0  0  0  0  0  0  0  0
   33.4930   26.2450   46.8290 C   0  0  0  0  0  0  0  0  0  0  0  0
   33.9110   25.0080   47.3130 C   0  0  0  0  0  0  0  0  0  0  0  0
   33.6830   24.6980   48.3180 H   0  0  0  0  0  0  0  0  0  0  0  0
   34.6320   24.1060   46.5560 C   0  0  0  0  0  0  0  0  0  0  0  0
   34.9590   24.4450   45.2460 C   0  0  0  0  0  0  0  0  0  0  0  0
   35.5170   23.7860   44.6090 H   0  0  0  0  0  0  0  0  0  0  0  0
   34.5400   25.6700   44.7850 C   0  0  0  0  0  0  0  0  0  0  0  0
   34.8090   25.9160   43.7490 H   0  0  0  0  0  0  0  0  0  0  0  0
   33.8210   26.5760   45.5310 C   0  0  0  0  0  0  0  0  0  0  0  0
   36.5710   29.8070   48.0940 O   0  0  0  0  0  0  0  0  0  0  0  0
   37.3950   30.9260   48.2080 C   0  0  0  0  0  0  0  0  0  0  0  0
   37.5410   31.4680   49.4710 C   0  0  0  0  0  0  0  0  0  0  0  0
   38.3550   32.5810   49.6170 C   0  0  0  0  0  0  0  0  0  0  0  0
   38.9720   33.0900   48.5160 N   0  0  0  0  0  0  0  0  0  0  0  0
   38.8210   32.5530   47.2960 C   0  0  0  0  0  0  0  0  0  0  0  0
   38.0400   31.4850   47.1610 N   0  0  0  0  0  0  0  0  0  0  0  0
   40.3530   32.1880   45.5250 C   0  0  0  0  0  0  0  0  0  0  0  0
   40.5910   30.9850   45.8430 O   0  0  0  0  0  0  0  0  0  0  0  0
   39.4790   33.1130   46.1640 N   0  0  0  0  0  0  0  0  0  0  0  0
   37.0490   31.0610   50.3420 H   0  0  0  0  0  0  0  0  0  0  0  0
   38.4850   33.0240   50.5920 H   0  0  0  0  0  0  0  0  0  0  0  0
   40.9570   32.3890   44.6480 H   0  0  0  0  0  0  0  0  0  0  0  0
   39.4150   34.0720   45.7530 H   0  0  0  0  0  0  0  0  0  0  0  0
  2  1  2  0  0  0  0
  3  2  1  0  0  0  0
  3  7  1  1  0  0  0
  4  5  1  0  0  0  0
  4  3  1  0  0  0  0
  5 11  1  0  0  0  0
  5  6  1  0  0  0  0
  6  2  1  0  0  0  0
  8  4  1  0  0  0  0
  9  4  1  0  0  0  0
 10  5  1  0  0  0  0
 12  6  1  0  0  0  0
 12 14  1  0  0  0  0
 13 12  1  0  0  0  0
 15 16  1  0  0  0  0
 15 12  1  0  0  0  0
 16 17  1  0  0  0  0
 18 16  2  0  0  0  0
 19 18  1  0  0  0  0
 20 19  1  0  0  0  0
 21 19  2  0  0  0  0
 21 23  1  0  0  0  0
 22 21  1  0  0  0  0
 23 15  2  0  0  0  0
 24 25  1  0  0  0  0
 24  3  1  0  0  0  0
 25 26  1  0  0  0  0
 26 27  2  0  0  0  0
 26 34  1  0  0  0  0
 27 35  1  0  0  0  0
 28 27  1  0  0  0  0
 29 28  2  0  0  0  0
 30 29  1  0  0  0  0
 30 25  2  0  0  0  0
 31 32  2  0  0  0  0
 31 33  1  0  0  0  0
 33 29  1  0  0  0  0
 36 31  1  0  0  0  0
 37 33  1  0  0  0  0
M  END
>  <minimizedAffinity>
-5.78081226

>  <minimizedRMSD>
1.0823369

$$$$
