
 OpenBabel03272501193D

 30 32  0  0  0  0  0  0  0  0999 V2000
   37.6780   25.7940   33.0280 C   0  0  0  0  0  0  0  0  0  0  0  0
   36.7460   26.1000   32.0580 C   0  0  0  0  0  0  0  0  0  0  0  0
   36.1310   24.9840   31.4840 C   0  0  0  0  0  0  0  0  0  0  0  0
   36.4470   23.6830   31.8730 C   0  0  0  0  0  0  0  0  0  0  0  0
   37.4080   23.4850   32.8680 C   0  0  0  0  0  0  0  0  0  0  0  0
   38.0370   24.5650   33.4580 C   0  0  0  0  0  0  0  0  0  0  0  0
   35.3890   25.1790   30.7130 H   0  0  0  0  0  0  0  0  0  0  0  0
   35.9180   22.9010   31.3700 H   0  0  0  0  0  0  0  0  0  0  0  0
   37.6120   22.4640   33.1270 H   0  0  0  0  0  0  0  0  0  0  0  0
   37.0140   27.9670   30.4820 C   0  0  0  0  0  0  0  0  0  0  0  0
   36.4110   27.4380   31.6470 C   0  0  0  0  0  0  0  0  0  0  0  0
   35.5150   28.2290   32.3550 C   0  0  0  0  0  0  0  0  0  0  0  0
   35.2670   29.4870   31.8770 N   0  0  0  0  0  0  0  0  0  0  0  0
   35.8580   29.9730   30.7560 C   0  0  0  0  0  0  0  0  0  0  0  0
   36.7350   29.2060   30.0570 N   0  0  0  0  0  0  0  0  0  0  0  0
   37.7080   27.3370   29.9430 H   0  0  0  0  0  0  0  0  0  0  0  0
   35.0580   27.8390   33.2340 H   0  0  0  0  0  0  0  0  0  0  0  0
   35.5850   30.9700   30.4820 H   0  0  0  0  0  0  0  0  0  0  0  0
   38.3450   26.8570   33.6590 O   0  0  0  0  0  0  0  0  0  0  0  0
   38.3890   26.9350   34.6670 H   0  0  0  0  0  0  0  0  0  0  0  0
   38.9690   24.3040   34.4270 O   0  0  0  0  0  0  0  0  0  0  0  0
   38.7870   24.0950   35.7590 C   0  0  0  0  0  0  0  0  0  0  0  0
   37.8450   24.5750   36.6490 C   0  0  0  0  0  0  0  0  0  0  0  0
   37.1370   25.2350   36.1670 H   0  0  0  0  0  0  0  0  0  0  0  0
   37.8690   24.2100   37.9790 C   0  0  0  0  0  3  0  0  0  0  0  0
   38.8220   23.3570   38.4910 C   0  0  0  0  0  0  0  0  0  0  0  0
   38.7690   23.1220   39.5450 H   0  0  0  0  0  0  0  0  0  0  0  0
   39.7750   22.8650   37.6220 C   0  0  0  0  0  0  0  0  0  0  0  0
   40.5170   22.1970   38.0350 H   0  0  0  0  0  0  0  0  0  0  0  0
   39.7620   23.2270   36.2700 C   0  0  0  0  0  3  0  0  0  0  0  0
  1  6  1  0  0  0  0
  1 19  1  0  0  0  0
  2  1  2  0  0  0  0
  3  4  2  0  0  0  0
  3  2  1  0  0  0  0
  4  5  1  0  0  0  0
  5  9  1  0  0  0  0
  5  6  2  0  0  0  0
  6 21  1  0  0  0  0
  7  3  1  0  0  0  0
  8  4  1  0  0  0  0
 10 11  1  0  0  0  0
 11  2  1  0  0  0  0
 11 12  2  0  0  0  0
 12 17  1  0  0  0  0
 13 12  1  0  0  0  0
 14 13  2  0  0  0  0
 15 10  2  0  0  0  0
 15 14  1  0  0  0  0
 16 10  1  0  0  0  0
 18 14  1  0  0  0  0
 19 20  1  0  0  0  0
 21 22  1  0  0  0  0
 22 30  2  0  0  0  0
 22 23  1  0  0  0  0
 23 25  2  0  0  0  0
 24 23  1  0  0  0  0
 25 26  1  0  0  0  0
 26 27  1  0  0  0  0
 28 29  1  0  0  0  0
 28 26  2  0  0  0  0
 30 28  1  0  0  0  0
M  END
>  <minimizedAffinity>
-5.30071878

$$$$

 OpenBabel03272501193D

 30 32  0  0  0  0  0  0  0  0999 V2000
   37.6430   22.8120   33.2330 C   0  0  0  0  0  0  0  0  0  0  0  0
   36.7450   22.5040   32.2320 C   0  0  0  0  0  0  0  0  0  0  0  0
   36.1640   23.6200   31.6230 C   0  0  0  0  0  0  0  0  0  0  0  0
   36.4800   24.9230   32.0090 C   0  0  0  0  0  0  0  0  0  0  0  0
   37.4070   25.1210   33.0370 C   0  0  0  0  0  0  0  0  0  0  0  0
   38.0000   24.0410   33.6620 C   0  0  0  0  0  0  0  0  0  0  0  0
   35.4480   23.4250   30.8280 H   0  0  0  0  0  0  0  0  0  0  0  0
   35.9790   25.7040   31.4780 H   0  0  0  0  0  0  0  0  0  0  0  0
   37.6110   26.1420   33.2930 H   0  0  0  0  0  0  0  0  0  0  0  0
   35.4500   20.4430   32.5710 C   0  0  0  0  0  0  0  0  0  0  0  0
   36.4090   21.1650   31.8240 C   0  0  0  0  0  0  0  0  0  0  0  0
   36.9950   20.5580   30.7210 C   0  0  0  0  0  0  0  0  0  0  0  0
   36.6050   19.2810   30.4200 N   0  0  0  0  0  0  0  0  0  0  0  0
   35.6810   18.6080   31.1520 C   0  0  0  0  0  0  0  0  0  0  0  0
   35.1030   19.1950   32.2330 N   0  0  0  0  0  0  0  0  0  0  0  0
   35.0040   20.9320   33.4260 H   0  0  0  0  0  0  0  0  0  0  0  0
   37.7190   21.0950   30.1540 H   0  0  0  0  0  0  0  0  0  0  0  0
   35.4580   17.6160   30.8190 H   0  0  0  0  0  0  0  0  0  0  0  0
   38.2750   21.7480   33.8990 O   0  0  0  0  0  0  0  0  0  0  0  0
   39.2800   21.7070   34.0040 H   0  0  0  0  0  0  0  0  0  0  0  0
   38.8990   24.3030   34.6620 O   0  0  0  0  0  0  0  0  0  0  0  0
   38.7740   24.1050   36.0020 C   0  0  0  0  0  0  0  0  0  0  0  0
   37.8740   24.5980   36.9290 C   0  0  0  0  0  0  0  0  0  0  0  0
   37.1510   25.2590   36.4740 H   0  0  0  0  0  0  0  0  0  0  0  0
   37.9540   24.2410   38.2590 C   0  0  0  0  0  3  0  0  0  0  0  0
   38.9240   23.3860   38.7350 C   0  0  0  0  0  0  0  0  0  0  0  0
   38.9150   23.1580   39.7920 H   0  0  0  0  0  0  0  0  0  0  0  0
   39.8340   22.8810   37.8290 C   0  0  0  0  0  0  0  0  0  0  0  0
   40.5890   22.2110   38.2140 H   0  0  0  0  0  0  0  0  0  0  0  0
   39.7650   23.2330   36.4760 C   0  0  0  0  0  3  0  0  0  0  0  0
  1  6  1  0  0  0  0
  1 19  1  0  0  0  0
  2  1  2  0  0  0  0
  3  4  2  0  0  0  0
  3  2  1  0  0  0  0
  4  5  1  0  0  0  0
  5  9  1  0  0  0  0
  5  6  2  0  0  0  0
  6 21  1  0  0  0  0
  7  3  1  0  0  0  0
  8  4  1  0  0  0  0
 10 16  1  0  0  0  0
 11  2  1  0  0  0  0
 11 10  2  0  0  0  0
 12 11  1  0  0  0  0
 13 12  2  0  0  0  0
 13 14  1  0  0  0  0
 14 15  2  0  0  0  0
 15 10  1  0  0  0  0
 17 12  1  0  0  0  0
 18 14  1  0  0  0  0
 19 20  1  0  0  0  0
 21 22  1  0  0  0  0
 22 30  2  0  0  0  0
 22 23  1  0  0  0  0
 23 25  2  0  0  0  0
 24 23  1  0  0  0  0
 25 26  1  0  0  0  0
 26 27  1  0  0  0  0
 28 29  1  0  0  0  0
 28 26  2  0  0  0  0
 30 28  1  0  0  0  0
M  END
>  <minimizedAffinity>
-5.26847458

$$$$

 OpenBabel03272501193D

 30 32  0  0  0  0  0  0  0  0999 V2000
   35.9950   25.0770   31.3280 C   0  0  0  0  0  0  0  0  0  0  0  0
   36.6210   26.1820   31.8670 C   0  0  0  0  0  0  0  0  0  0  0  0
   37.6170   25.8760   32.8000 C   0  0  0  0  0  0  0  0  0  0  0  0
   37.9330   24.5600   33.1400 C   0  0  0  0  0  0  0  0  0  0  0  0
   37.2340   23.5140   32.5310 C   0  0  0  0  0  0  0  0  0  0  0  0
   36.2430   23.7790   31.6050 C   0  0  0  0  0  0  0  0  0  0  0  0
   38.1370   26.7160   33.2510 H   0  0  0  0  0  0  0  0  0  0  0  0
   38.7110   24.4370   33.8640 H   0  0  0  0  0  0  0  0  0  0  0  0
   37.5180   22.5240   32.8310 H   0  0  0  0  0  0  0  0  0  0  0  0
   36.9390   28.1330   30.4080 C   0  0  0  0  0  0  0  0  0  0  0  0
   36.3050   27.5430   31.5260 C   0  0  0  0  0  0  0  0  0  0  0  0
   35.3970   28.2990   32.2550 C   0  0  0  0  0  0  0  0  0  0  0  0
   35.1690   29.5840   31.8450 N   0  0  0  0  0  0  0  0  0  0  0  0
   35.7900   30.1290   30.7680 C   0  0  0  0  0  0  0  0  0  0  0  0
   36.6800   29.3960   30.0480 N   0  0  0  0  0  0  0  0  0  0  0  0
   37.6430   27.5300   29.8500 H   0  0  0  0  0  0  0  0  0  0  0  0
   34.9150   27.8630   33.0990 H   0  0  0  0  0  0  0  0  0  0  0  0
   35.5300   31.1420   30.5450 H   0  0  0  0  0  0  0  0  0  0  0  0
   34.9800   25.2940   30.3810 O   0  0  0  0  0  0  0  0  0  0  0  0
   34.9830   24.8300   29.4820 H   0  0  0  0  0  0  0  0  0  0  0  0
   35.5960   22.7100   31.0460 O   0  0  0  0  0  0  0  0  0  0  0  0
   35.5900   21.4080   31.4420 C   0  0  0  0  0  0  0  0  0  0  0  0
   35.0190   20.7760   32.5300 C   0  0  0  0  0  0  0  0  0  0  0  0
   34.4870   21.4710   33.1640 H   0  0  0  0  0  0  0  0  0  0  0  0
   35.1550   19.4160   32.7180 C   0  0  0  0  0  3  0  0  0  0  0  0
   35.8600   18.6200   31.8420 C   0  0  0  0  0  0  0  0  0  0  0  0
   35.9180   17.5620   32.0630 H   0  0  0  0  0  0  0  0  0  0  0  0
   36.4400   19.2280   30.7470 C   0  0  0  0  0  0  0  0  0  0  0  0
   36.9900   18.5930   30.0680 H   0  0  0  0  0  0  0  0  0  0  0  0
   36.3100   20.6060   30.5440 C   0  0  0  0  0  3  0  0  0  0  0  0
  1  6  2  0  0  0  0
  1  2  1  0  0  0  0
  2  3  2  0  0  0  0
  3  4  1  0  0  0  0
  3  7  1  0  0  0  0
  4  8  1  0  0  0  0
  5  9  1  0  0  0  0
  5  4  2  0  0  0  0
  6  5  1  0  0  0  0
 10 11  1  0  0  0  0
 11  2  1  0  0  0  0
 11 12  2  0  0  0  0
 12 17  1  0  0  0  0
 13 12  1  0  0  0  0
 14 13  2  0  0  0  0
 15 10  2  0  0  0  0
 15 14  1  0  0  0  0
 16 10  1  0  0  0  0
 18 14  1  0  0  0  0
 19  1  1  0  0  0  0
 20 19  1  0  0  0  0
 21 22  1  0  0  0  0
 21  6  1  0  0  0  0
 22 23  1  0  0  0  0
 23 25  2  0  0  0  0
 23 24  1  0  0  0  0
 26 27  1  0  0  0  0
 26 25  1  0  0  0  0
 28 26  2  0  0  0  0
 29 28  1  0  0  0  0
 30 28  1  0  0  0  0
 30 22  2  0  0  0  0
M  END
>  <minimizedAffinity>
-5.23531723

$$$$

 OpenBabel03272501193D

 30 32  0  0  0  0  0  0  0  0999 V2000
   36.2030   28.8510   33.4490 C   0  0  0  0  0  0  0  0  0  0  0  0
   35.6350   30.1060   33.5190 C   0  0  0  0  0  0  0  0  0  0  0  0
   35.6340   30.8020   32.3070 C   0  0  0  0  0  0  0  0  0  0  0  0
   36.1670   30.2560   31.1390 C   0  0  0  0  0  0  0  0  0  0  0  0
   36.7200   28.9720   31.1800 C   0  0  0  0  0  0  0  0  0  0  0  0
   36.7380   28.2550   32.3620 C   0  0  0  0  0  0  0  0  0  0  0  0
   35.1960   31.7970   32.3160 H   0  0  0  0  0  0  0  0  0  0  0  0
   36.1160   30.8720   30.2670 H   0  0  0  0  0  0  0  0  0  0  0  0
   37.1150   28.6030   30.2540 H   0  0  0  0  0  0  0  0  0  0  0  0
   33.7040   30.5090   34.9850 C   0  0  0  0  0  0  0  0  0  0  0  0
   35.0820   30.6820   34.7170 C   0  0  0  0  0  0  0  0  0  0  0  0
   35.8550   31.4010   35.6190 C   0  0  0  0  0  0  0  0  0  0  0  0
   35.2290   31.9060   36.7260 N   0  0  0  0  0  0  0  0  0  0  0  0
   33.9040   31.7270   36.9630 C   0  0  0  0  0  0  0  0  0  0  0  0
   33.1410   31.0250   36.0850 N   0  0  0  0  0  0  0  0  0  0  0  0
   33.1180   29.9460   34.2720 H   0  0  0  0  0  0  0  0  0  0  0  0
   36.8930   31.5360   35.4240 H   0  0  0  0  0  0  0  0  0  0  0  0
   33.5290   32.1700   37.8620 H   0  0  0  0  0  0  0  0  0  0  0  0
   36.2460   28.0810   34.6230 O   0  0  0  0  0  0  0  0  0  0  0  0
   35.9010   27.1310   34.6490 H   0  0  0  0  0  0  0  0  0  0  0  0
   37.2940   27.0040   32.3340 O   0  0  0  0  0  0  0  0  0  0  0  0
   36.7170   25.8160   32.0060 C   0  0  0  0  0  0  0  0  0  0  0  0
   35.5970   25.5090   31.2570 C   0  0  0  0  0  0  0  0  0  0  0  0
   35.1120   26.3960   30.8770 H   0  0  0  0  0  0  0  0  0  0  0  0
   35.2070   24.2000   31.0620 C   0  0  0  0  0  3  0  0  0  0  0  0
   35.9030   23.1370   31.5960 C   0  0  0  0  0  0  0  0  0  0  0  0
   35.5290   22.1420   31.3950 H   0  0  0  0  0  0  0  0  0  0  0  0
   37.0250   23.4190   32.3480 C   0  0  0  0  0  0  0  0  0  0  0  0
   37.5620   22.5770   32.7620 H   0  0  0  0  0  0  0  0  0  0  0  0
   37.4320   24.7410   32.5540 C   0  0  0  0  0  3  0  0  0  0  0  0
  1  2  1  0  0  0  0
  1 19  1  0  0  0  0
  2 11  1  0  0  0  0
  3  7  1  0  0  0  0
  3  2  2  0  0  0  0
  4  5  2  0  0  0  0
  4  3  1  0  0  0  0
  5  6  1  0  0  0  0
  6  1  2  0  0  0  0
  8  4  1  0  0  0  0
  9  5  1  0  0  0  0
 10 15  1  0  0  0  0
 11 10  2  0  0  0  0
 11 12  1  0  0  0  0
 12 13  2  0  0  0  0
 13 14  1  0  0  0  0
 14 18  1  0  0  0  0
 15 14  2  0  0  0  0
 16 10  1  0  0  0  0
 17 12  1  0  0  0  0
 19 20  1  0  0  0  0
 21  6  1  0  0  0  0
 22 21  1  0  0  0  0
 22 30  1  0  0  0  0
 23 22  2  0  0  0  0
 24 23  1  0  0  0  0
 25 23  1  0  0  0  0
 25 26  2  0  0  0  0
 26 28  1  0  0  0  0
 27 26  1  0  0  0  0
 28 30  2  0  0  0  0
 28 29  1  0  0  0  0
M  END
>  <minimizedAffinity>
-5.18480682

$$$$

 OpenBabel03272501193D

 30 32  0  0  0  0  0  0  0  0999 V2000
   37.7400   25.6670   33.7980 C   0  0  0  0  0  0  0  0  0  0  0  0
   37.5480   27.0270   33.9240 C   0  0  0  0  0  0  0  0  0  0  0  0
   37.8830   27.5380   35.1810 C   0  0  0  0  0  0  0  0  0  0  0  0
   38.3680   26.7240   36.2050 C   0  0  0  0  0  0  0  0  0  0  0  0
   38.5250   25.3550   35.9690 C   0  0  0  0  0  0  0  0  0  0  0  0
   38.2040   24.8150   34.7380 C   0  0  0  0  0  0  0  0  0  0  0  0
   37.7460   28.6060   35.3260 H   0  0  0  0  0  0  0  0  0  0  0  0
   38.5930   27.2160   37.1280 H   0  0  0  0  0  0  0  0  0  0  0  0
   38.9010   24.7780   36.7920 H   0  0  0  0  0  0  0  0  0  0  0  0
   35.7970   28.5140   33.0500 C   0  0  0  0  0  0  0  0  0  0  0  0
   37.0480   27.8770   32.8760 C   0  0  0  0  0  0  0  0  0  0  0  0
   37.7520   28.0950   31.6990 C   0  0  0  0  0  0  0  0  0  0  0  0
   37.1860   28.9220   30.7670 N   0  0  0  0  0  0  0  0  0  0  0  0
   35.9830   29.5230   30.9570 C   0  0  0  0  0  0  0  0  0  0  0  0
   35.2880   29.3150   32.1060 N   0  0  0  0  0  0  0  0  0  0  0  0
   35.2630   28.3340   33.9730 H   0  0  0  0  0  0  0  0  0  0  0  0
   38.6940   27.6190   31.5590 H   0  0  0  0  0  0  0  0  0  0  0  0
   35.6440   30.1470   30.1570 H   0  0  0  0  0  0  0  0  0  0  0  0
   37.4290   25.0700   32.5650 O   0  0  0  0  0  0  0  0  0  0  0  0
   38.0890   24.4760   32.0790 H   0  0  0  0  0  0  0  0  0  0  0  0
   38.3810   23.4680   34.5720 O   0  0  0  0  0  0  0  0  0  0  0  0
   37.4780   22.4600   34.7150 C   0  0  0  0  0  0  0  0  0  0  0  0
   36.9000   21.8890   35.8320 C   0  0  0  0  0  0  0  0  0  0  0  0
   37.2500   22.3490   36.7450 H   0  0  0  0  0  0  0  0  0  0  0  0
   35.9910   20.8570   35.7170 C   0  0  0  0  0  3  0  0  0  0  0  0
   35.6130   20.3420   34.4960 C   0  0  0  0  0  0  0  0  0  0  0  0
   34.8950   19.5330   34.4950 H   0  0  0  0  0  0  0  0  0  0  0  0
   36.1770   20.8960   33.3650 C   0  0  0  0  0  0  0  0  0  0  0  0
   35.8730   20.4840   32.4130 H   0  0  0  0  0  0  0  0  0  0  0  0
   37.1000   21.9430   33.4670 C   0  0  0  0  0  3  0  0  0  0  0  0
  1  2  2  0  0  0  0
  1  6  1  0  0  0  0
  2  3  1  0  0  0  0
  3  7  1  0  0  0  0
  3  4  2  0  0  0  0
  4  8  1  0  0  0  0
  5  4  1  0  0  0  0
  5  9  1  0  0  0  0
  6  5  2  0  0  0  0
 10 16  1  0  0  0  0
 11 10  1  0  0  0  0
 11  2  1  0  0  0  0
 12 11  2  0  0  0  0
 13 14  2  0  0  0  0
 13 12  1  0  0  0  0
 14 15  1  0  0  0  0
 15 10  2  0  0  0  0
 17 12  1  0  0  0  0
 18 14  1  0  0  0  0
 19  1  1  0  0  0  0
 20 19  1  0  0  0  0
 21 22  1  0  0  0  0
 21  6  1  0  0  0  0
 22 23  1  0  0  0  0
 23 24  1  0  0  0  0
 25 23  2  0  0  0  0
 26 25  1  0  0  0  0
 27 26  1  0  0  0  0
 28 30  1  0  0  0  0
 28 26  2  0  0  0  0
 29 28  1  0  0  0  0
 30 22  2  0  0  0  0
M  END
>  <minimizedAffinity>
-5.07416058

$$$$

 OpenBabel03272501193D

 30 32  0  0  0  0  0  0  0  0999 V2000
   36.2840   26.2550   31.5110 C   0  0  0  0  0  0  0  0  0  0  0  0
   36.3470   27.3930   32.2890 C   0  0  0  0  0  0  0  0  0  0  0  0
   37.0500   27.2290   33.4860 C   0  0  0  0  0  0  0  0  0  0  0  0
   37.6310   26.0120   33.8430 C   0  0  0  0  0  0  0  0  0  0  0  0
   37.5070   24.9200   32.9780 C   0  0  0  0  0  0  0  0  0  0  0  0
   36.8180   25.0450   31.7860 C   0  0  0  0  0  0  0  0  0  0  0  0
   37.1240   28.1000   34.1310 H   0  0  0  0  0  0  0  0  0  0  0  0
   38.1460   25.9950   34.7800 H   0  0  0  0  0  0  0  0  0  0  0  0
   37.9720   24.0100   33.3030 H   0  0  0  0  0  0  0  0  0  0  0  0
   34.5260   29.0250   32.5310 C   0  0  0  0  0  0  0  0  0  0  0  0
   35.7520   28.6540   31.9330 C   0  0  0  0  0  0  0  0  0  0  0  0
   36.3420   29.5210   31.0220 C   0  0  0  0  0  0  0  0  0  0  0  0
   35.6930   30.6950   30.7540 N   0  0  0  0  0  0  0  0  0  0  0  0
   34.5160   31.0300   31.3410 C   0  0  0  0  0  0  0  0  0  0  0  0
   33.9320   30.1880   32.2330 N   0  0  0  0  0  0  0  0  0  0  0  0
   34.0810   28.3380   33.2380 H   0  0  0  0  0  0  0  0  0  0  0  0
   37.2660   29.2490   30.5660 H   0  0  0  0  0  0  0  0  0  0  0  0
   34.1040   31.9740   31.0520 H   0  0  0  0  0  0  0  0  0  0  0  0
   35.5960   26.3310   30.2890 O   0  0  0  0  0  0  0  0  0  0  0  0
   36.0170   26.0260   29.4210 H   0  0  0  0  0  0  0  0  0  0  0  0
   36.7330   23.9390   30.9840 O   0  0  0  0  0  0  0  0  0  0  0  0
   36.3540   22.6720   31.3070 C   0  0  0  0  0  0  0  0  0  0  0  0
   35.2290   22.1770   31.9390 C   0  0  0  0  0  0  0  0  0  0  0  0
   34.5440   22.9660   32.2150 H   0  0  0  0  0  0  0  0  0  0  0  0
   35.0710   20.8240   32.1560 C   0  0  0  0  0  3  0  0  0  0  0  0
   36.0130   19.9000   31.7620 C   0  0  0  0  0  0  0  0  0  0  0  0
   35.8110   18.8580   31.9700 H   0  0  0  0  0  0  0  0  0  0  0  0
   37.1460   20.3700   31.1290 C   0  0  0  0  0  0  0  0  0  0  0  0
   37.8780   19.6360   30.8240 H   0  0  0  0  0  0  0  0  0  0  0  0
   37.3200   21.7400   30.9020 C   0  0  0  0  0  3  0  0  0  0  0  0
  1  6  2  0  0  0  0
  1  2  1  0  0  0  0
  2  3  2  0  0  0  0
  3  4  1  0  0  0  0
  3  7  1  0  0  0  0
  4  8  1  0  0  0  0
  5  9  1  0  0  0  0
  5  4  2  0  0  0  0
  6  5  1  0  0  0  0
 10 16  1  0  0  0  0
 11  2  1  0  0  0  0
 11 10  2  0  0  0  0
 12 11  1  0  0  0  0
 13 12  2  0  0  0  0
 13 14  1  0  0  0  0
 14 15  2  0  0  0  0
 15 10  1  0  0  0  0
 17 12  1  0  0  0  0
 18 14  1  0  0  0  0
 19  1  1  0  0  0  0
 20 19  1  0  0  0  0
 21 22  1  0  0  0  0
 21  6  1  0  0  0  0
 22 23  1  0  0  0  0
 23 25  2  0  0  0  0
 23 24  1  0  0  0  0
 26 27  1  0  0  0  0
 26 25  1  0  0  0  0
 28 26  2  0  0  0  0
 29 28  1  0  0  0  0
 30 28  1  0  0  0  0
 30 22  2  0  0  0  0
M  END
>  <minimizedAffinity>
-5.02991104

$$$$

 OpenBabel03272501193D

 30 32  0  0  0  0  0  0  0  0999 V2000
   38.1370   22.9730   33.8240 C   0  0  0  0  0  0  0  0  0  0  0  0
   38.4870   23.9750   34.7050 C   0  0  0  0  0  0  0  0  0  0  0  0
   38.6710   25.2240   34.1040 C   0  0  0  0  0  0  0  0  0  0  0  0
   38.5080   25.4180   32.7330 C   0  0  0  0  0  0  0  0  0  0  0  0
   38.1510   24.3290   31.9310 C   0  0  0  0  0  0  0  0  0  0  0  0
   37.9620   23.0800   32.4900 C   0  0  0  0  0  0  0  0  0  0  0  0
   38.9490   26.0450   34.7610 H   0  0  0  0  0  0  0  0  0  0  0  0
   38.6720   26.4120   32.3760 H   0  0  0  0  0  0  0  0  0  0  0  0
   38.0410   24.5360   30.8840 H   0  0  0  0  0  0  0  0  0  0  0  0
   37.6970   24.3340   37.0030 C   0  0  0  0  0  0  0  0  0  0  0  0
   38.6590   23.7900   36.1220 C   0  0  0  0  0  0  0  0  0  0  0  0
   39.7360   23.0940   36.6530 C   0  0  0  0  0  0  0  0  0  0  0  0
   39.8040   22.9760   38.0150 N   0  0  0  0  0  0  0  0  0  0  0  0
   38.8680   23.5080   38.8420 C   0  0  0  0  0  0  0  0  0  0  0  0
   37.8100   24.1900   38.3300 N   0  0  0  0  0  0  0  0  0  0  0  0
   36.8630   24.8730   36.5720 H   0  0  0  0  0  0  0  0  0  0  0  0
   40.4660   22.6810   35.9960 H   0  0  0  0  0  0  0  0  0  0  0  0
   39.0280   23.3500   39.8880 H   0  0  0  0  0  0  0  0  0  0  0  0
   37.9330   21.6830   34.3440 O   0  0  0  0  0  0  0  0  0  0  0  0
   37.0910   21.1570   34.1470 H   0  0  0  0  0  0  0  0  0  0  0  0
   37.6130   22.0560   31.6500 O   0  0  0  0  0  0  0  0  0  0  0  0
   36.6170   21.1380   31.7830 C   0  0  0  0  0  0  0  0  0  0  0  0
   35.2590   21.2730   31.9980 C   0  0  0  0  0  0  0  0  0  0  0  0
   34.9650   22.3110   32.0690 H   0  0  0  0  0  0  0  0  0  0  0  0
   34.4390   20.1680   32.0980 C   0  0  0  0  0  3  0  0  0  0  0  0
   34.9220   18.8820   31.9930 C   0  0  0  0  0  0  0  0  0  0  0  0
   34.2120   18.0720   32.0840 H   0  0  0  0  0  0  0  0  0  0  0  0
   36.2760   18.7210   31.7790 C   0  0  0  0  0  0  0  0  0  0  0  0
   36.6430   17.7080   31.6980 H   0  0  0  0  0  0  0  0  0  0  0  0
   37.1190   19.8330   31.6750 C   0  0  0  0  0  3  0  0  0  0  0  0
  1 19  1  0  0  0  0
  1  2  1  0  0  0  0
  2 11  1  0  0  0  0
  3  2  2  0  0  0  0
  3  7  1  0  0  0  0
  4  3  1  0  0  0  0
  5  6  1  0  0  0  0
  5  4  2  0  0  0  0
  6  1  2  0  0  0  0
  8  4  1  0  0  0  0
  9  5  1  0  0  0  0
 10 15  1  0  0  0  0
 11 12  1  0  0  0  0
 11 10  2  0  0  0  0
 12 13  2  0  0  0  0
 13 14  1  0  0  0  0
 14 18  1  0  0  0  0
 15 14  2  0  0  0  0
 16 10  1  0  0  0  0
 17 12  1  0  0  0  0
 20 19  1  0  0  0  0
 21 22  1  0  0  0  0
 21  6  1  0  0  0  0
 22 23  1  0  0  0  0
 23 24  1  0  0  0  0
 23 25  2  0  0  0  0
 26 27  1  0  0  0  0
 26 25  1  0  0  0  0
 28 26  2  0  0  0  0
 29 28  1  0  0  0  0
 30 28  1  0  0  0  0
 30 22  2  0  0  0  0
M  END
>  <minimizedAffinity>
-5.02738667

$$$$

 OpenBabel03272501193D

 30 32  0  0  0  0  0  0  0  0999 V2000
   38.0300   25.3720   34.1400 C   0  0  0  0  0  0  0  0  0  0  0  0
   37.8570   26.7110   33.8560 C   0  0  0  0  0  0  0  0  0  0  0  0
   37.9830   27.5510   34.9670 C   0  0  0  0  0  0  0  0  0  0  0  0
   38.2620   27.0570   36.2410 C   0  0  0  0  0  0  0  0  0  0  0  0
   38.4190   25.6790   36.4160 C   0  0  0  0  0  0  0  0  0  0  0  0
   38.3000   24.8180   35.3410 C   0  0  0  0  0  0  0  0  0  0  0  0
   37.8530   28.6160   34.7900 H   0  0  0  0  0  0  0  0  0  0  0  0
   38.3380   27.7850   37.0210 H   0  0  0  0  0  0  0  0  0  0  0  0
   38.6310   25.3550   37.4170 H   0  0  0  0  0  0  0  0  0  0  0  0
   38.6440   27.5280   31.6770 C   0  0  0  0  0  0  0  0  0  0  0  0
   37.5690   27.2340   32.5470 C   0  0  0  0  0  0  0  0  0  0  0  0
   36.2710   27.4600   32.1080 C   0  0  0  0  0  0  0  0  0  0  0  0
   36.1090   27.9610   30.8440 N   0  0  0  0  0  0  0  0  0  0  0  0
   37.1570   28.2360   30.0270 C   0  0  0  0  0  0  0  0  0  0  0  0
   38.4300   28.0170   30.4490 N   0  0  0  0  0  0  0  0  0  0  0  0
   39.6480   27.3460   32.0350 H   0  0  0  0  0  0  0  0  0  0  0  0
   35.4560   27.2420   32.7570 H   0  0  0  0  0  0  0  0  0  0  0  0
   36.9050   28.6230   29.0620 H   0  0  0  0  0  0  0  0  0  0  0  0
   37.9200   24.4560   33.0800 O   0  0  0  0  0  0  0  0  0  0  0  0
   38.6370   23.7670   32.8950 H   0  0  0  0  0  0  0  0  0  0  0  0
   38.4660   23.4800   35.5800 O   0  0  0  0  0  0  0  0  0  0  0  0
   39.5700   22.8170   36.0190 C   0  0  0  0  0  0  0  0  0  0  0  0
   39.9890   22.4590   37.2870 C   0  0  0  0  0  0  0  0  0  0  0  0
   39.2900   22.7790   38.0460 H   0  0  0  0  0  0  0  0  0  0  0  0
   41.1710   21.7750   37.4800 C   0  0  0  0  0  3  0  0  0  0  0  0
   41.9930   21.4150   36.4340 C   0  0  0  0  0  0  0  0  0  0  0  0
   42.9020   20.8810   36.6730 H   0  0  0  0  0  0  0  0  0  0  0  0
   41.5960   21.7620   35.1590 C   0  0  0  0  0  0  0  0  0  0  0  0
   42.2480   21.4740   34.3470 H   0  0  0  0  0  0  0  0  0  0  0  0
   40.3990   22.4560   34.9470 C   0  0  0  0  0  3  0  0  0  0  0  0
  1  6  1  0  0  0  0
  2  1  2  0  0  0  0
  2  3  1  0  0  0  0
  3  4  2  0  0  0  0
  4  5  1  0  0  0  0
  4  8  1  0  0  0  0
  5  9  1  0  0  0  0
  6 21  1  0  0  0  0
  6  5  2  0  0  0  0
  7  3  1  0  0  0  0
 10 16  1  0  0  0  0
 10 11  1  0  0  0  0
 11  2  1  0  0  0  0
 12 11  2  0  0  0  0
 12 17  1  0  0  0  0
 13 12  1  0  0  0  0
 14 15  1  0  0  0  0
 14 13  2  0  0  0  0
 15 10  2  0  0  0  0
 18 14  1  0  0  0  0
 19  1  1  0  0  0  0
 20 19  1  0  0  0  0
 21 22  1  0  0  0  0
 22 23  1  0  0  0  0
 23 25  2  0  0  0  0
 23 24  1  0  0  0  0
 26 27  1  0  0  0  0
 26 25  1  0  0  0  0
 28 26  2  0  0  0  0
 29 28  1  0  0  0  0
 30 28  1  0  0  0  0
 30 22  2  0  0  0  0
M  END
>  <minimizedAffinity>
-5.0057478

$$$$

 OpenBabel03272501193D

 30 32  0  0  0  0  0  0  0  0999 V2000
   37.2380   25.6430   32.5840 C   0  0  0  0  0  0  0  0  0  0  0  0
   37.1270   26.9220   33.0890 C   0  0  0  0  0  0  0  0  0  0  0  0
   37.5360   27.0480   34.4200 C   0  0  0  0  0  0  0  0  0  0  0  0
   38.0130   25.9620   35.1540 C   0  0  0  0  0  0  0  0  0  0  0  0
   38.0840   24.7070   34.5420 C   0  0  0  0  0  0  0  0  0  0  0  0
   37.6870   24.5450   33.2280 C   0  0  0  0  0  0  0  0  0  0  0  0
   37.4650   28.0390   34.8600 H   0  0  0  0  0  0  0  0  0  0  0  0
   38.2990   26.1680   36.1640 H   0  0  0  0  0  0  0  0  0  0  0  0
   38.4570   23.9080   35.1540 H   0  0  0  0  0  0  0  0  0  0  0  0
   37.4570   28.6130   31.3370 C   0  0  0  0  0  0  0  0  0  0  0  0
   36.6370   28.0510   32.3430 C   0  0  0  0  0  0  0  0  0  0  0  0
   35.3860   28.6070   32.5760 C   0  0  0  0  0  0  0  0  0  0  0  0
   35.0180   29.6800   31.8100 N   0  0  0  0  0  0  0  0  0  0  0  0
   35.8230   30.2030   30.8500 C   0  0  0  0  0  0  0  0  0  0  0  0
   37.0470   29.6640   30.6150 N   0  0  0  0  0  0  0  0  0  0  0  0
   38.4270   28.1670   31.1690 H   0  0  0  0  0  0  0  0  0  0  0  0
   34.7630   28.1900   33.3320 H   0  0  0  0  0  0  0  0  0  0  0  0
   35.4250   31.0410   30.3170 H   0  0  0  0  0  0  0  0  0  0  0  0
   36.8480   25.4260   31.2520 O   0  0  0  0  0  0  0  0  0  0  0  0
   37.4550   24.9630   30.5880 H   0  0  0  0  0  0  0  0  0  0  0  0
   37.7820   23.2900   32.6880 O   0  0  0  0  0  0  0  0  0  0  0  0
   36.9050   22.2530   32.7680 C   0  0  0  0  0  0  0  0  0  0  0  0
   36.6040   21.3740   33.7920 C   0  0  0  0  0  0  0  0  0  0  0  0
   37.1910   21.5730   34.6770 H   0  0  0  0  0  0  0  0  0  0  0  0
   35.6560   20.3860   33.6280 C   0  0  0  0  0  3  0  0  0  0  0  0
   34.9630   20.2200   32.4480 C   0  0  0  0  0  0  0  0  0  0  0  0
   34.2360   19.4200   32.4030 H   0  0  0  0  0  0  0  0  0  0  0  0
   35.2460   21.0850   31.4110 C   0  0  0  0  0  0  0  0  0  0  0  0
   34.6960   20.9450   30.4910 H   0  0  0  0  0  0  0  0  0  0  0  0
   36.2060   22.0920   31.5630 C   0  0  0  0  0  3  0  0  0  0  0  0
  1  2  2  0  0  0  0
  1  6  1  0  0  0  0
  2  3  1  0  0  0  0
  3  7  1  0  0  0  0
  3  4  2  0  0  0  0
  4  8  1  0  0  0  0
  5  4  1  0  0  0  0
  5  9  1  0  0  0  0
  6  5  2  0  0  0  0
 10 11  1  0  0  0  0
 11 12  2  0  0  0  0
 11  2  1  0  0  0  0
 12 17  1  0  0  0  0
 13 12  1  0  0  0  0
 14 13  2  0  0  0  0
 15 14  1  0  0  0  0
 15 10  2  0  0  0  0
 16 10  1  0  0  0  0
 18 14  1  0  0  0  0
 19  1  1  0  0  0  0
 20 19  1  0  0  0  0
 21 22  1  0  0  0  0
 21  6  1  0  0  0  0
 22 23  1  0  0  0  0
 23 24  1  0  0  0  0
 25 23  2  0  0  0  0
 26 25  1  0  0  0  0
 27 26  1  0  0  0  0
 28 30  1  0  0  0  0
 28 26  2  0  0  0  0
 29 28  1  0  0  0  0
 30 22  2  0  0  0  0
M  END
>  <minimizedAffinity>
-4.99928951

$$$$
