
 OpenBabel03272509583D

 46 49  0  0  0  0  0  0  0  0999 V2000
   33.9510   27.8440   45.3480 C   0  0  0  0  0  0  0  0  0  0  0  0
   35.0170   27.5350   45.5170 H   0  0  0  0  0  0  0  0  0  0  0  0
   33.3960   26.8760   45.3170 H   0  0  0  0  0  0  0  0  0  0  0  0
   33.4660   28.7710   46.4240 C   0  0  0  0  0  0  0  0  0  0  0  0
   33.5600   28.2290   47.4030 H   0  0  0  0  0  0  0  0  0  0  0  0
   34.0510   29.6940   46.5400 H   0  0  0  0  0  0  0  0  0  0  0  0
   32.0190   29.1040   46.2910 C   0  0  0  0  0  0  0  0  0  0  0  0
   31.1210   28.3730   47.0500 C   0  0  0  0  0  0  0  0  0  0  0  0
   29.7690   28.6080   46.9930 C   0  0  0  0  0  0  0  0  0  0  0  0
   29.3090   29.5680   46.1850 N   0  0  0  0  0  0  0  0  0  0  0  0
   30.2090   30.2760   45.4450 C   0  0  0  0  0  0  0  0  0  0  0  0
   31.5300   30.0630   45.4850 N   0  0  0  0  0  0  0  0  0  0  0  0
   31.4950   27.5920   47.7080 H   0  0  0  0  0  0  0  0  0  0  0  0
   29.0900   28.0040   47.6140 H   0  0  0  0  0  0  0  0  0  0  0  0
   29.6410   31.3360   44.5590 C   0  0  0  0  0  0  0  0  0  0  0  0
   28.8800   31.8920   45.1460 H   0  0  0  0  0  0  0  0  0  0  0  0
   29.0360   30.7750   43.7900 H   0  0  0  0  0  0  0  0  0  0  0  0
   30.6520   32.2080   43.9490 C   0  0  0  0  0  0  0  0  0  0  0  0
   30.9550   33.3920   44.6280 C   0  0  0  0  0  0  0  0  0  0  0  0
   30.4720   33.6670   45.5650 H   0  0  0  0  0  0  0  0  0  0  0  0
   31.8870   34.2940   44.1590 C   0  0  0  0  0  3  0  0  0  0  0  0
   32.5440   34.0210   42.9790 C   0  0  0  0  0  0  0  0  0  0  0  0
   33.2920   34.7020   42.5640 H   0  0  0  0  0  0  0  0  0  0  0  0
   32.2520   32.8620   42.3080 C   0  0  0  0  0  0  0  0  0  0  0  0
   32.7340   32.6110   41.3960 H   0  0  0  0  0  0  0  0  0  0  0  0
   31.3110   31.9360   42.7680 C   0  0  0  0  0  3  0  0  0  0  0  0
   33.8930   28.4770   44.0790 O   0  0  0  0  0  0  0  0  0  0  0  0
   36.5880   28.9310   41.7210 C   0  0  0  0  0  0  0  0  0  0  0  0
   37.5350   29.5850   42.5440 C   0  0  0  0  0  0  0  0  0  0  0  0
   37.1800   29.8290   43.8710 C   0  0  0  0  0  0  0  0  0  0  0  0
   35.9390   29.4060   44.2410 N   0  0  0  0  0  0  0  0  0  0  0  0
   35.0520   28.7900   43.4590 C   0  0  0  0  0  0  0  0  0  0  0  0
   35.3970   28.5530   42.1740 N   0  0  0  0  0  0  0  0  0  0  0  0
   36.9010   28.7610   40.7030 H   0  0  0  0  0  0  0  0  0  0  0  0
   38.5050   29.9130   42.2470 H   0  0  0  0  0  0  0  0  0  0  0  0
   40.0640   30.0250   43.9210 F   0  0  0  0  0  0  0  0  0  0  0  0
   39.3480   30.5860   44.9000 C   0  0  0  0  0  0  0  0  0  0  0  0
   38.0130   30.4810   44.8540 C   0  0  0  0  0  0  0  0  0  0  0  0
   37.3600   31.1020   45.9220 C   0  0  0  0  0  0  0  0  0  0  0  0
   38.0260   31.7560   46.9230 C   0  0  0  0  0  0  0  0  0  0  0  0
   39.3990   31.8350   46.9220 C   0  0  0  0  0  0  0  0  0  0  0  0
   40.0610   31.2350   45.8880 C   0  0  0  0  0  0  0  0  0  0  0  0
   36.2760   31.1030   46.0220 H   0  0  0  0  0  0  0  0  0  0  0  0
   37.5100   32.2340   47.7460 H   0  0  0  0  0  0  0  0  0  0  0  0
   39.9450   32.3490   47.7080 H   0  0  0  0  0  0  0  0  0  0  0  0
   41.1430   31.2850   45.8690 H   0  0  0  0  0  0  0  0  0  0  0  0
  1  2  1  0  0  0  0
  1  4  1  0  0  0  0
  3  1  1  0  0  0  0
  4  6  1  0  0  0  0
  4  5  1  0  0  0  0
  7  4  1  0  0  0  0
  7  8  1  0  0  0  0
  8 13  1  0  0  0  0
  9  8  2  0  0  0  0
  9 14  1  0  0  0  0
 10  9  1  0  0  0  0
 11 12  1  0  0  0  0
 11 10  2  0  0  0  0
 12  7  2  0  0  0  0
 15 16  1  0  0  0  0
 15 11  1  0  0  0  0
 17 15  1  0  0  0  0
 18 15  1  0  0  0  0
 18 19  1  0  0  0  0
 19 20  1  0  0  0  0
 21 19  2  0  0  0  0
 22 21  1  0  0  0  0
 23 22  1  0  0  0  0
 24 26  1  0  0  0  0
 24 22  2  0  0  0  0
 25 24  1  0  0  0  0
 26 18  2  0  0  0  0
 27  1  1  0  0  0  0
 28 33  2  0  0  0  0
 28 29  1  0  0  0  0
 29 30  2  0  0  0  0
 30 31  1  0  0  0  0
 30 38  1  0  0  0  0
 32 27  1  0  0  0  0
 32 31  2  0  0  0  0
 33 32  1  0  0  0  0
 34 28  1  0  0  0  0
 35 29  1  0  0  0  0
 36 37  1  0  0  0  0
 37 42  1  0  0  0  0
 38 37  2  0  0  0  0
 38 39  1  0  0  0  0
 39 43  1  0  0  0  0
 39 40  2  0  0  0  0
 40 44  1  0  0  0  0
 41 40  1  0  0  0  0
 41 45  1  0  0  0  0
 42 41  2  0  0  0  0
 46 42  1  0  0  0  0
M  END
>  <minimizedAffinity>
-4.34759235

>  <minimizedRMSD>
4.47815275

$$$$
