
 OpenBabel03272501453D

 34 37  0  0  0  0  0  0  0  0999 V2000
   37.9410   27.1420   35.7750 C   0  0  0  0  0  0  0  0  0  0  0  0
   37.9950   25.9130   35.0530 C   0  0  0  0  0  0  0  0  0  0  0  0
   37.3580   25.8660   33.8170 C   0  0  0  0  0  0  0  0  0  0  0  0
   36.7280   26.9700   33.3690 N   0  0  0  0  0  0  0  0  0  0  0  0
   36.6910   28.1320   34.0760 C   0  0  0  0  0  0  0  0  0  0  0  0
   37.3000   28.2090   35.2790 N   0  0  0  0  0  0  0  0  0  0  0  0
   38.3550   27.3950   36.7370 H   0  0  0  0  0  0  0  0  0  0  0  0
   37.4280   24.9210   33.3150 H   0  0  0  0  0  0  0  0  0  0  0  0
   38.2280   24.3730   36.9200 C   0  0  0  0  0  0  0  0  0  0  0  0
   38.7260   24.8710   35.7310 C   0  0  0  0  0  0  0  0  0  0  0  0
   39.9140   24.3220   35.2510 C   0  0  0  0  0  0  0  0  0  0  0  0
   40.5340   23.3070   35.9900 C   0  0  0  0  0  0  0  0  0  0  0  0
   41.6610   22.5980   35.7950 N   0  0  0  0  0  0  0  0  0  0  0  0
   41.8290   21.7330   36.7970 C   0  0  0  0  0  0  0  0  0  0  0  0
   40.7930   21.8810   37.6630 N   0  0  0  0  0  0  0  0  0  0  0  0
   40.0120   22.8420   37.1610 C   0  0  0  0  0  0  0  0  0  0  0  0
   38.8470   23.3770   37.6360 C   0  0  0  0  0  0  0  0  0  0  0  0
   37.3040   24.7180   37.4140 H   0  0  0  0  0  0  0  0  0  0  0  0
   40.3240   24.6870   34.3310 H   0  0  0  0  0  0  0  0  0  0  0  0
   42.3060   22.7160   34.9690 H   0  0  0  0  0  0  0  0  0  0  0  0
   42.6090   21.0130   36.9700 H   0  0  0  0  0  0  0  0  0  0  0  0
   38.4500   22.9820   38.5830 H   0  0  0  0  0  0  0  0  0  0  0  0
   35.9630   29.2990   33.4820 C   0  0  0  0  0  0  0  0  0  0  0  0
   36.6720   29.9150   32.9020 H   0  0  0  0  0  0  0  0  0  0  0  0
   35.1520   28.8840   32.8530 H   0  0  0  0  0  0  0  0  0  0  0  0
   35.3010   30.0980   34.5700 C   0  0  0  0  0  0  0  0  0  0  0  0
   33.9410   29.8980   34.8190 C   0  0  0  0  0  0  0  0  0  0  0  0
   33.4260   29.1680   34.2070 H   0  0  0  0  0  0  0  0  0  0  0  0
   33.2210   30.5630   35.7810 C   0  0  0  0  0  3  0  0  0  0  0  0
   33.8900   31.4890   36.5520 C   0  0  0  0  0  0  0  0  0  0  0  0
   33.3550   32.0270   37.3150 H   0  0  0  0  0  0  0  0  0  0  0  0
   35.2330   31.7070   36.3290 C   0  0  0  0  0  0  0  0  0  0  0  0
   35.7500   32.4410   36.9450 H   0  0  0  0  0  0  0  0  0  0  0  0
   35.9620   31.0410   35.3620 C   0  0  0  0  0  3  0  0  0  0  0  0
  1  7  1  0  0  0  0
  2 10  1  0  0  0  0
  2  1  2  0  0  0  0
  3  2  1  0  0  0  0
  4  3  2  0  0  0  0
  4  5  1  0  0  0  0
  5  6  2  0  0  0  0
  6  1  1  0  0  0  0
  8  3  1  0  0  0  0
  9 18  1  0  0  0  0
  9 17  1  0  0  0  0
 10  9  2  0  0  0  0
 11 10  1  0  0  0  0
 11 12  2  0  0  0  0
 12 16  1  0  0  0  0
 13 12  1  0  0  0  0
 13 14  1  0  0  0  0
 14 21  1  0  0  0  0
 14 15  2  0  0  0  0
 16 17  2  0  0  0  0
 16 15  1  0  0  0  0
 17 22  1  0  0  0  0
 19 11  1  0  0  0  0
 20 13  1  0  0  0  0
 23  5  1  0  0  0  0
 23 26  1  0  0  0  0
 24 23  1  0  0  0  0
 25 23  1  0  0  0  0
 26 27  2  0  0  0  0
 26 34  1  0  0  0  0
 27 29  1  0  0  0  0
 28 27  1  0  0  0  0
 29 30  2  0  0  0  0
 30 31  1  0  0  0  0
 32 30  1  0  0  0  0
 32 33  1  0  0  0  0
 34 32  2  0  0  0  0
M  END
>  <minimizedAffinity>
-6.08030891

$$$$

 OpenBabel03272501453D

 34 37  0  0  0  0  0  0  0  0999 V2000
   35.6300   29.0710   32.4150 C   0  0  0  0  0  0  0  0  0  0  0  0
   35.8350   28.9050   33.8160 C   0  0  0  0  0  0  0  0  0  0  0  0
   36.7030   27.8970   34.2220 C   0  0  0  0  0  0  0  0  0  0  0  0
   37.3020   27.1370   33.2830 N   0  0  0  0  0  0  0  0  0  0  0  0
   37.0910   27.3160   31.9510 C   0  0  0  0  0  0  0  0  0  0  0  0
   36.2530   28.2860   31.5250 N   0  0  0  0  0  0  0  0  0  0  0  0
   35.0070   29.7760   31.8870 H   0  0  0  0  0  0  0  0  0  0  0  0
   36.8230   27.8120   35.2850 H   0  0  0  0  0  0  0  0  0  0  0  0
   33.7100   29.8270   34.5530 C   0  0  0  0  0  0  0  0  0  0  0  0
   35.0900   29.8340   34.6290 C   0  0  0  0  0  0  0  0  0  0  0  0
   35.6820   30.7450   35.5020 C   0  0  0  0  0  0  0  0  0  0  0  0
   34.8580   31.5970   36.2480 C   0  0  0  0  0  0  0  0  0  0  0  0
   35.1230   32.5590   37.1510 N   0  0  0  0  0  0  0  0  0  0  0  0
   33.9820   33.0940   37.5880 C   0  0  0  0  0  0  0  0  0  0  0  0
   32.9520   32.4690   36.9590 N   0  0  0  0  0  0  0  0  0  0  0  0
   33.4980   31.5610   36.1460 C   0  0  0  0  0  0  0  0  0  0  0  0
   32.9120   30.6690   35.2910 C   0  0  0  0  0  0  0  0  0  0  0  0
   33.1130   29.1650   33.9030 H   0  0  0  0  0  0  0  0  0  0  0  0
   36.7500   30.7730   35.5820 H   0  0  0  0  0  0  0  0  0  0  0  0
   36.0920   32.8390   37.4580 H   0  0  0  0  0  0  0  0  0  0  0  0
   33.8110   33.8770   38.3050 H   0  0  0  0  0  0  0  0  0  0  0  0
   31.8140   30.6630   35.2300 H   0  0  0  0  0  0  0  0  0  0  0  0
   37.8080   26.4150   30.9940 C   0  0  0  0  0  0  0  0  0  0  0  0
   37.7220   26.8250   29.9720 H   0  0  0  0  0  0  0  0  0  0  0  0
   38.8590   26.3550   31.3360 H   0  0  0  0  0  0  0  0  0  0  0  0
   37.2440   25.0230   31.0780 C   0  0  0  0  0  0  0  0  0  0  0  0
   38.1220   23.9380   31.0190 C   0  0  0  0  0  0  0  0  0  0  0  0
   39.1770   24.1570   30.9140 H   0  0  0  0  0  0  0  0  0  0  0  0
   37.7340   22.6220   31.0850 C   0  0  0  0  0  3  0  0  0  0  0  0
   36.3880   22.3580   31.2180 C   0  0  0  0  0  0  0  0  0  0  0  0
   36.0520   21.3390   31.2720 H   0  0  0  0  0  0  0  0  0  0  0  0
   35.4990   23.4110   31.2790 C   0  0  0  0  0  0  0  0  0  0  0  0
   34.4390   23.1890   31.3850 H   0  0  0  0  0  0  0  0  0  0  0  0
   35.8840   24.7360   31.2130 C   0  0  0  0  0  3  0  0  0  0  0  0
  1  2  1  0  0  0  0
  2  3  2  0  0  0  0
  2 10  1  0  0  0  0
  3  8  1  0  0  0  0
  4  3  1  0  0  0  0
  5  4  2  0  0  0  0
  6  5  1  0  0  0  0
  6  1  2  0  0  0  0
  7  1  1  0  0  0  0
  9 10  2  0  0  0  0
  9 17  1  0  0  0  0
 10 11  1  0  0  0  0
 11 19  1  0  0  0  0
 11 12  2  0  0  0  0
 12 13  1  0  0  0  0
 13 20  1  0  0  0  0
 13 14  1  0  0  0  0
 14 21  1  0  0  0  0
 15 14  2  0  0  0  0
 16 12  1  0  0  0  0
 16 15  1  0  0  0  0
 17 16  2  0  0  0  0
 18  9  1  0  0  0  0
 22 17  1  0  0  0  0
 23 26  1  0  0  0  0
 23 25  1  0  0  0  0
 23  5  1  0  0  0  0
 24 23  1  0  0  0  0
 26 34  1  0  0  0  0
 27 26  2  0  0  0  0
 27 29  1  0  0  0  0
 28 27  1  0  0  0  0
 29 30  2  0  0  0  0
 30 31  1  0  0  0  0
 30 32  1  0  0  0  0
 32 33  1  0  0  0  0
 34 32  2  0  0  0  0
M  END
>  <minimizedAffinity>
-5.59987736

$$$$

 OpenBabel03272501453D

 34 37  0  0  0  0  0  0  0  0999 V2000
   38.0520   25.0200   33.9090 C   0  0  0  0  0  0  0  0  0  0  0  0
   37.8210   26.3430   34.3890 C   0  0  0  0  0  0  0  0  0  0  0  0
   38.0030   26.5720   35.7490 C   0  0  0  0  0  0  0  0  0  0  0  0
   38.3840   25.5470   36.5360 N   0  0  0  0  0  0  0  0  0  0  0  0
   38.6000   24.2930   36.0530 C   0  0  0  0  0  0  0  0  0  0  0  0
   38.4320   24.0380   34.7370 N   0  0  0  0  0  0  0  0  0  0  0  0
   37.9690   24.6250   32.9090 H   0  0  0  0  0  0  0  0  0  0  0  0
   37.8160   27.5820   36.0600 H   0  0  0  0  0  0  0  0  0  0  0  0
   36.4250   28.1890   33.6450 C   0  0  0  0  0  0  0  0  0  0  0  0
   37.4210   27.2740   33.3630 C   0  0  0  0  0  0  0  0  0  0  0  0
   37.9900   27.3140   32.0910 C   0  0  0  0  0  0  0  0  0  0  0  0
   37.5280   28.2670   31.1760 C   0  0  0  0  0  0  0  0  0  0  0  0
   37.8670   28.5480   29.9040 N   0  0  0  0  0  0  0  0  0  0  0  0
   37.1270   29.5620   29.4530 C   0  0  0  0  0  0  0  0  0  0  0  0
   36.2880   29.9500   30.4480 N   0  0  0  0  0  0  0  0  0  0  0  0
   36.5410   29.1550   31.4910 C   0  0  0  0  0  0  0  0  0  0  0  0
   35.9800   29.1200   32.7380 C   0  0  0  0  0  0  0  0  0  0  0  0
   35.8880   28.2660   34.6050 H   0  0  0  0  0  0  0  0  0  0  0  0
   38.7650   26.6170   31.8430 H   0  0  0  0  0  0  0  0  0  0  0  0
   38.6090   28.0360   29.3570 H   0  0  0  0  0  0  0  0  0  0  0  0
   37.1260   30.0480   28.4940 H   0  0  0  0  0  0  0  0  0  0  0  0
   35.1870   29.8470   32.9630 H   0  0  0  0  0  0  0  0  0  0  0  0
   39.0220   23.2270   37.0170 C   0  0  0  0  0  0  0  0  0  0  0  0
   38.8780   23.5900   38.0500 H   0  0  0  0  0  0  0  0  0  0  0  0
   38.4080   22.3330   36.7950 H   0  0  0  0  0  0  0  0  0  0  0  0
   40.4540   22.8430   36.7630 C   0  0  0  0  0  0  0  0  0  0  0  0
   40.9450   21.6660   37.3340 C   0  0  0  0  0  0  0  0  0  0  0  0
   40.2610   21.0830   37.9380 H   0  0  0  0  0  0  0  0  0  0  0  0
   42.2300   21.2060   37.1790 C   0  0  0  0  0  3  0  0  0  0  0  0
   43.0890   21.9580   36.4080 C   0  0  0  0  0  0  0  0  0  0  0  0
   44.1020   21.6250   36.2670 H   0  0  0  0  0  0  0  0  0  0  0  0
   42.6310   23.1240   35.8320 C   0  0  0  0  0  0  0  0  0  0  0  0
   43.3190   23.7090   35.2240 H   0  0  0  0  0  0  0  0  0  0  0  0
   41.3390   23.5920   35.9850 C   0  0  0  0  0  3  0  0  0  0  0  0
  1  2  2  0  0  0  0
  1  6  1  0  0  0  0
  2  3  1  0  0  0  0
  3  8  1  0  0  0  0
  3  4  2  0  0  0  0
  5  4  1  0  0  0  0
  5 23  1  0  0  0  0
  6  5  2  0  0  0  0
  7  1  1  0  0  0  0
  9 18  1  0  0  0  0
 10  9  1  0  0  0  0
 10  2  1  0  0  0  0
 11 10  2  0  0  0  0
 12 16  2  0  0  0  0
 12 11  1  0  0  0  0
 13 12  1  0  0  0  0
 14 13  1  0  0  0  0
 14 15  2  0  0  0  0
 15 16  1  0  0  0  0
 16 17  1  0  0  0  0
 17 22  1  0  0  0  0
 17  9  2  0  0  0  0
 19 11  1  0  0  0  0
 20 13  1  0  0  0  0
 21 14  1  0  0  0  0
 23 24  1  0  0  0  0
 25 23  1  0  0  0  0
 26 23  1  0  0  0  0
 26 27  1  0  0  0  0
 27 28  1  0  0  0  0
 29 27  2  0  0  0  0
 30 29  1  0  0  0  0
 31 30  1  0  0  0  0
 32 34  1  0  0  0  0
 32 30  2  0  0  0  0
 33 32  1  0  0  0  0
 34 26  2  0  0  0  0
M  END
>  <minimizedAffinity>
-5.58724308

$$$$

 OpenBabel03272501453D

 34 37  0  0  0  0  0  0  0  0999 V2000
   37.5390   24.5300   31.4130 C   0  0  0  0  0  0  0  0  0  0  0  0
   36.2630   23.8950   31.3640 C   0  0  0  0  0  0  0  0  0  0  0  0
   35.1560   24.6990   31.1150 C   0  0  0  0  0  0  0  0  0  0  0  0
   35.3410   26.0220   30.9330 N   0  0  0  0  0  0  0  0  0  0  0  0
   36.5690   26.6040   30.9840 C   0  0  0  0  0  0  0  0  0  0  0  0
   37.6640   25.8510   31.2250 N   0  0  0  0  0  0  0  0  0  0  0  0
   38.5140   24.1060   31.5940 H   0  0  0  0  0  0  0  0  0  0  0  0
   34.2210   24.1750   31.0880 H   0  0  0  0  0  0  0  0  0  0  0  0
   37.5430   21.8630   31.7420 C   0  0  0  0  0  0  0  0  0  0  0  0
   36.3120   22.4710   31.5870 C   0  0  0  0  0  0  0  0  0  0  0  0
   35.1790   21.6620   31.6630 C   0  0  0  0  0  0  0  0  0  0  0  0
   35.3460   20.2900   31.8890 C   0  0  0  0  0  0  0  0  0  0  0  0
   34.4710   19.2740   32.0100 N   0  0  0  0  0  0  0  0  0  0  0  0
   35.1300   18.1340   32.2220 C   0  0  0  0  0  0  0  0  0  0  0  0
   36.4600   18.4100   32.2410 N   0  0  0  0  0  0  0  0  0  0  0  0
   36.5780   19.7250   32.0370 C   0  0  0  0  0  0  0  0  0  0  0  0
   37.6920   20.5150   31.9640 C   0  0  0  0  0  0  0  0  0  0  0  0
   38.5160   22.3800   31.7000 H   0  0  0  0  0  0  0  0  0  0  0  0
   34.2110   22.1050   31.5470 H   0  0  0  0  0  0  0  0  0  0  0  0
   33.4240   19.3770   31.9430 H   0  0  0  0  0  0  0  0  0  0  0  0
   34.7600   17.1340   32.3650 H   0  0  0  0  0  0  0  0  0  0  0  0
   38.6730   20.0310   32.0860 H   0  0  0  0  0  0  0  0  0  0  0  0
   36.6600   28.0840   30.7670 C   0  0  0  0  0  0  0  0  0  0  0  0
   37.7180   28.3680   30.6260 H   0  0  0  0  0  0  0  0  0  0  0  0
   36.0400   28.3170   29.8810 H   0  0  0  0  0  0  0  0  0  0  0  0
   36.0450   28.8120   31.9300 C   0  0  0  0  0  0  0  0  0  0  0  0
   36.3780   28.4100   33.2260 C   0  0  0  0  0  0  0  0  0  0  0  0
   37.0710   27.5840   33.3290 H   0  0  0  0  0  0  0  0  0  0  0  0
   35.8850   28.9900   34.3700 C   0  0  0  0  0  3  0  0  0  0  0  0
   35.0050   30.0400   34.2250 C   0  0  0  0  0  0  0  0  0  0  0  0
   34.6010   30.5170   35.1000 H   0  0  0  0  0  0  0  0  0  0  0  0
   34.6590   30.4580   32.9570 C   0  0  0  0  0  0  0  0  0  0  0  0
   33.9620   31.2890   32.8560 H   0  0  0  0  0  0  0  0  0  0  0  0
   35.1510   29.8770   31.8030 C   0  0  0  0  0  3  0  0  0  0  0  0
  1  7  1  0  0  0  0
  2  1  1  0  0  0  0
  2 10  1  0  0  0  0
  3  2  2  0  0  0  0
  4  5  2  0  0  0  0
  4  3  1  0  0  0  0
  5  6  1  0  0  0  0
  6  1  2  0  0  0  0
  8  3  1  0  0  0  0
  9 17  1  0  0  0  0
 10 11  1  0  0  0  0
 10  9  2  0  0  0  0
 11 12  2  0  0  0  0
 12 13  1  0  0  0  0
 12 16  1  0  0  0  0
 13 14  1  0  0  0  0
 14 15  2  0  0  0  0
 14 21  1  0  0  0  0
 16 15  1  0  0  0  0
 17 16  2  0  0  0  0
 17 22  1  0  0  0  0
 18  9  1  0  0  0  0
 19 11  1  0  0  0  0
 20 13  1  0  0  0  0
 23  5  1  0  0  0  0
 23 26  1  0  0  0  0
 24 23  1  0  0  0  0
 25 23  1  0  0  0  0
 26 27  1  0  0  0  0
 27 28  1  0  0  0  0
 27 29  2  0  0  0  0
 30 29  1  0  0  0  0
 30 31  1  0  0  0  0
 32 30  2  0  0  0  0
 33 32  1  0  0  0  0
 34 26  2  0  0  0  0
 34 32  1  0  0  0  0
M  END
>  <minimizedAffinity>
-5.5788126

$$$$

 OpenBabel03272501453D

 34 37  0  0  0  0  0  0  0  0999 V2000
   36.6710   28.0100   34.4270 C   0  0  0  0  0  0  0  0  0  0  0  0
   35.7990   28.9260   33.7690 C   0  0  0  0  0  0  0  0  0  0  0  0
   35.6540   28.7970   32.3920 C   0  0  0  0  0  0  0  0  0  0  0  0
   36.3350   27.8240   31.7550 N   0  0  0  0  0  0  0  0  0  0  0  0
   37.1600   26.9610   32.4060 C   0  0  0  0  0  0  0  0  0  0  0  0
   37.3240   27.0610   33.7430 N   0  0  0  0  0  0  0  0  0  0  0  0
   36.9310   27.9330   35.4710 H   0  0  0  0  0  0  0  0  0  0  0  0
   34.9870   29.5090   31.9440 H   0  0  0  0  0  0  0  0  0  0  0  0
   35.9840   30.7360   35.3820 C   0  0  0  0  0  0  0  0  0  0  0  0
   35.1790   29.8790   34.6550 C   0  0  0  0  0  0  0  0  0  0  0  0
   33.7990   29.9960   34.8210 C   0  0  0  0  0  0  0  0  0  0  0  0
   33.3070   30.9640   35.7060 C   0  0  0  0  0  0  0  0  0  0  0  0
   32.0600   31.3120   36.0720 N   0  0  0  0  0  0  0  0  0  0  0  0
   32.1110   32.3080   36.9570 C   0  0  0  0  0  0  0  0  0  0  0  0
   33.4160   32.6170   37.1730 N   0  0  0  0  0  0  0  0  0  0  0  0
   34.1330   31.7920   36.4070 C   0  0  0  0  0  0  0  0  0  0  0  0
   35.4870   31.6820   36.2470 C   0  0  0  0  0  0  0  0  0  0  0  0
   37.0860   30.7490   35.3520 H   0  0  0  0  0  0  0  0  0  0  0  0
   33.1500   29.3470   34.2710 H   0  0  0  0  0  0  0  0  0  0  0  0
   31.1810   30.8570   35.7070 H   0  0  0  0  0  0  0  0  0  0  0  0
   31.3170   32.8330   37.4600 H   0  0  0  0  0  0  0  0  0  0  0  0
   36.1290   32.3620   36.8260 H   0  0  0  0  0  0  0  0  0  0  0  0
   37.8690   25.9160   31.5990 C   0  0  0  0  0  0  0  0  0  0  0  0
   37.8810   26.2200   30.5370 H   0  0  0  0  0  0  0  0  0  0  0  0
   38.8880   25.8220   32.0210 H   0  0  0  0  0  0  0  0  0  0  0  0
   37.1990   24.5830   31.7830 C   0  0  0  0  0  0  0  0  0  0  0  0
   37.7790   23.6530   32.6490 C   0  0  0  0  0  0  0  0  0  0  0  0
   38.6950   23.9430   33.1490 H   0  0  0  0  0  0  0  0  0  0  0  0
   37.2680   22.4030   32.9030 C   0  0  0  0  0  3  0  0  0  0  0  0
   36.1020   22.0480   32.2590 C   0  0  0  0  0  0  0  0  0  0  0  0
   35.6760   21.0770   32.4370 H   0  0  0  0  0  0  0  0  0  0  0  0
   35.5070   22.9460   31.3990 C   0  0  0  0  0  0  0  0  0  0  0  0
   34.5870   22.6530   30.8980 H   0  0  0  0  0  0  0  0  0  0  0  0
   36.0180   24.2040   31.1400 C   0  0  0  0  0  3  0  0  0  0  0  0
  1  7  1  0  0  0  0
  2  1  1  0  0  0  0
  2 10  1  0  0  0  0
  3  2  2  0  0  0  0
  4  3  1  0  0  0  0
  4  5  2  0  0  0  0
  5  6  1  0  0  0  0
  6  1  2  0  0  0  0
  8  3  1  0  0  0  0
  9 17  1  0  0  0  0
 10 11  1  0  0  0  0
 10  9  2  0  0  0  0
 11 12  2  0  0  0  0
 12 13  1  0  0  0  0
 12 16  1  0  0  0  0
 13 14  1  0  0  0  0
 14 15  2  0  0  0  0
 14 21  1  0  0  0  0
 16 15  1  0  0  0  0
 17 16  2  0  0  0  0
 17 22  1  0  0  0  0
 18  9  1  0  0  0  0
 19 11  1  0  0  0  0
 20 13  1  0  0  0  0
 23 26  1  0  0  0  0
 23 25  1  0  0  0  0
 23  5  1  0  0  0  0
 24 23  1  0  0  0  0
 26 27  1  0  0  0  0
 27 29  2  0  0  0  0
 27 28  1  0  0  0  0
 30 31  1  0  0  0  0
 30 29  1  0  0  0  0
 32 30  2  0  0  0  0
 33 32  1  0  0  0  0
 34 32  1  0  0  0  0
 34 26  2  0  0  0  0
M  END
>  <minimizedAffinity>
-5.53956223

$$$$

 OpenBabel03272501453D

 34 37  0  0  0  0  0  0  0  0999 V2000
   38.0900   27.0890   34.0100 C   0  0  0  0  0  0  0  0  0  0  0  0
   37.0490   27.0610   33.0360 C   0  0  0  0  0  0  0  0  0  0  0  0
   36.7030   25.8240   32.5010 C   0  0  0  0  0  0  0  0  0  0  0  0
   37.3610   24.7270   32.9250 N   0  0  0  0  0  0  0  0  0  0  0  0
   38.3500   24.7790   33.8570 C   0  0  0  0  0  0  0  0  0  0  0  0
   38.7090   25.9650   34.3950 N   0  0  0  0  0  0  0  0  0  0  0  0
   38.5130   27.9250   34.5440 H   0  0  0  0  0  0  0  0  0  0  0  0
   35.9160   25.8570   31.7740 H   0  0  0  0  0  0  0  0  0  0  0  0
   35.9210   29.0870   33.7680 C   0  0  0  0  0  0  0  0  0  0  0  0
   36.4910   28.3580   32.7420 C   0  0  0  0  0  0  0  0  0  0  0  0
   36.4980   28.9320   31.4710 C   0  0  0  0  0  0  0  0  0  0  0  0
   35.9330   30.2030   31.3030 C   0  0  0  0  0  0  0  0  0  0  0  0
   35.7910   31.0000   30.2290 N   0  0  0  0  0  0  0  0  0  0  0  0
   35.1770   32.1300   30.5840 C   0  0  0  0  0  0  0  0  0  0  0  0
   34.9150   32.0690   31.9150 N   0  0  0  0  0  0  0  0  0  0  0  0
   35.3790   30.8920   32.3410 C   0  0  0  0  0  0  0  0  0  0  0  0
   35.3700   30.3330   33.5890 C   0  0  0  0  0  0  0  0  0  0  0  0
   35.8430   28.7530   34.8160 H   0  0  0  0  0  0  0  0  0  0  0  0
   36.9340   28.3910   30.6560 H   0  0  0  0  0  0  0  0  0  0  0  0
   36.1190   30.7570   29.2570 H   0  0  0  0  0  0  0  0  0  0  0  0
   34.9020   32.9860   29.9940 H   0  0  0  0  0  0  0  0  0  0  0  0
   34.9160   30.9120   34.4070 H   0  0  0  0  0  0  0  0  0  0  0  0
   39.0150   23.4970   34.2560 C   0  0  0  0  0  0  0  0  0  0  0  0
   38.4820   22.6490   33.7890 H   0  0  0  0  0  0  0  0  0  0  0  0
   40.0690   23.5660   33.9240 H   0  0  0  0  0  0  0  0  0  0  0  0
   39.0390   23.3760   35.7540 C   0  0  0  0  0  0  0  0  0  0  0  0
   37.8820   23.6870   36.4720 C   0  0  0  0  0  0  0  0  0  0  0  0
   37.0150   24.0050   35.9050 H   0  0  0  0  0  0  0  0  0  0  0  0
   37.7750   23.6180   37.8400 C   0  0  0  0  0  3  0  0  0  0  0  0
   38.8850   23.2130   38.5480 C   0  0  0  0  0  0  0  0  0  0  0  0
   38.8340   23.1480   39.6200 H   0  0  0  0  0  0  0  0  0  0  0  0
   40.0410   22.8980   37.8650 C   0  0  0  0  0  0  0  0  0  0  0  0
   40.9110   22.5790   38.4360 H   0  0  0  0  0  0  0  0  0  0  0  0
   40.1550   22.9670   36.4890 C   0  0  0  0  0  3  0  0  0  0  0  0
  1  6  1  0  0  0  0
  1  7  1  0  0  0  0
  2  1  2  0  0  0  0
  3  4  2  0  0  0  0
  3  2  1  0  0  0  0
  4  5  1  0  0  0  0
  5 23  1  0  0  0  0
  5  6  2  0  0  0  0
  8  3  1  0  0  0  0
  9 18  1  0  0  0  0
 10  2  1  0  0  0  0
 10  9  2  0  0  0  0
 11 10  1  0  0  0  0
 12 11  2  0  0  0  0
 12 16  1  0  0  0  0
 13 14  1  0  0  0  0
 13 12  1  0  0  0  0
 14 15  2  0  0  0  0
 15 16  1  0  0  0  0
 16 17  2  0  0  0  0
 17  9  1  0  0  0  0
 17 22  1  0  0  0  0
 19 11  1  0  0  0  0
 20 13  1  0  0  0  0
 21 14  1  0  0  0  0
 23 26  1  0  0  0  0
 24 23  1  0  0  0  0
 25 23  1  0  0  0  0
 26 27  2  0  0  0  0
 26 34  1  0  0  0  0
 27 29  1  0  0  0  0
 28 27  1  0  0  0  0
 29 30  2  0  0  0  0
 30 31  1  0  0  0  0
 32 33  1  0  0  0  0
 32 30  1  0  0  0  0
 34 32  2  0  0  0  0
M  END
>  <minimizedAffinity>
-5.50591707

$$$$

 OpenBabel03272501453D

 34 37  0  0  0  0  0  0  0  0999 V2000
   37.8110   26.5810   35.3510 C   0  0  0  0  0  0  0  0  0  0  0  0
   37.6180   26.2000   33.9900 C   0  0  0  0  0  0  0  0  0  0  0  0
   37.8380   24.8670   33.6600 C   0  0  0  0  0  0  0  0  0  0  0  0
   38.2170   24.0110   34.6290 N   0  0  0  0  0  0  0  0  0  0  0  0
   38.3930   24.3990   35.9210 C   0  0  0  0  0  0  0  0  0  0  0  0
   38.1880   25.6870   36.2740 N   0  0  0  0  0  0  0  0  0  0  0  0
   37.7020   27.5460   35.8190 H   0  0  0  0  0  0  0  0  0  0  0  0
   37.6800   24.6310   32.6250 H   0  0  0  0  0  0  0  0  0  0  0  0
   37.7290   27.3550   31.8540 C   0  0  0  0  0  0  0  0  0  0  0  0
   37.2110   27.2860   33.1330 C   0  0  0  0  0  0  0  0  0  0  0  0
   36.3100   28.2780   33.5170 C   0  0  0  0  0  0  0  0  0  0  0  0
   35.9820   29.2820   32.5970 C   0  0  0  0  0  0  0  0  0  0  0  0
   35.1660   30.3500   32.6680 N   0  0  0  0  0  0  0  0  0  0  0  0
   35.1920   31.0150   31.5130 C   0  0  0  0  0  0  0  0  0  0  0  0
   36.0400   30.3700   30.6710 N   0  0  0  0  0  0  0  0  0  0  0  0
   36.5150   29.3180   31.3430 C   0  0  0  0  0  0  0  0  0  0  0  0
   37.3990   28.3460   30.9610 C   0  0  0  0  0  0  0  0  0  0  0  0
   38.4530   26.6430   31.4230 H   0  0  0  0  0  0  0  0  0  0  0  0
   35.8910   28.2510   34.5020 H   0  0  0  0  0  0  0  0  0  0  0  0
   34.5960   30.6110   33.5170 H   0  0  0  0  0  0  0  0  0  0  0  0
   34.6700   31.9070   31.2120 H   0  0  0  0  0  0  0  0  0  0  0  0
   37.8130   28.4010   29.9440 H   0  0  0  0  0  0  0  0  0  0  0  0
   38.8160   23.3640   36.9190 C   0  0  0  0  0  0  0  0  0  0  0  0
   38.6510   23.7520   37.9400 H   0  0  0  0  0  0  0  0  0  0  0  0
   38.2180   22.4560   36.7120 H   0  0  0  0  0  0  0  0  0  0  0  0
   40.2560   22.9950   36.6970 C   0  0  0  0  0  0  0  0  0  0  0  0
   40.7660   21.8630   37.3370 C   0  0  0  0  0  0  0  0  0  0  0  0
   40.0890   21.3020   37.9710 H   0  0  0  0  0  0  0  0  0  0  0  0
   42.0610   21.4200   37.2180 C   0  0  0  0  0  3  0  0  0  0  0  0
   42.9110   22.1430   36.4090 C   0  0  0  0  0  0  0  0  0  0  0  0
   43.9310   21.8230   36.2940 H   0  0  0  0  0  0  0  0  0  0  0  0
   42.4340   23.2650   35.7640 C   0  0  0  0  0  0  0  0  0  0  0  0
   43.1160   23.8270   35.1280 H   0  0  0  0  0  0  0  0  0  0  0  0
   41.1330   23.7150   35.8820 C   0  0  0  0  0  3  0  0  0  0  0  0
  1  7  1  0  0  0  0
  1  6  1  0  0  0  0
  2  1  2  0  0  0  0
  3  2  1  0  0  0  0
  3  4  2  0  0  0  0
  4  5  1  0  0  0  0
  5  6  2  0  0  0  0
  5 23  1  0  0  0  0
  8  3  1  0  0  0  0
  9 10  1  0  0  0  0
 10 11  2  0  0  0  0
 10  2  1  0  0  0  0
 11 19  1  0  0  0  0
 12 13  1  0  0  0  0
 12 11  1  0  0  0  0
 13 20  1  0  0  0  0
 14 13  1  0  0  0  0
 15 16  1  0  0  0  0
 15 14  2  0  0  0  0
 16 12  2  0  0  0  0
 17 16  1  0  0  0  0
 17  9  2  0  0  0  0
 18  9  1  0  0  0  0
 21 14  1  0  0  0  0
 22 17  1  0  0  0  0
 23 24  1  0  0  0  0
 25 23  1  0  0  0  0
 26 23  1  0  0  0  0
 26 27  1  0  0  0  0
 27 28  1  0  0  0  0
 29 27  2  0  0  0  0
 30 29  1  0  0  0  0
 31 30  1  0  0  0  0
 32 34  1  0  0  0  0
 32 30  2  0  0  0  0
 33 32  1  0  0  0  0
 34 26  2  0  0  0  0
M  END
>  <minimizedAffinity>
-5.50394869

$$$$

 OpenBabel03272501453D

 34 37  0  0  0  0  0  0  0  0999 V2000
   36.6120   26.5880   32.8600 C   0  0  0  0  0  0  0  0  0  0  0  0
   36.8400   27.7290   33.6830 C   0  0  0  0  0  0  0  0  0  0  0  0
   37.7230   27.5850   34.7480 C   0  0  0  0  0  0  0  0  0  0  0  0
   38.3120   26.3890   34.9470 N   0  0  0  0  0  0  0  0  0  0  0  0
   38.0780   25.3150   34.1460 C   0  0  0  0  0  0  0  0  0  0  0  0
   37.2260   25.4230   33.1030 N   0  0  0  0  0  0  0  0  0  0  0  0
   35.9740   26.4760   31.9970 H   0  0  0  0  0  0  0  0  0  0  0  0
   37.8610   28.4710   35.3370 H   0  0  0  0  0  0  0  0  0  0  0  0
   35.9950   29.1860   31.9300 C   0  0  0  0  0  0  0  0  0  0  0  0
   36.1010   28.8990   33.2770 C   0  0  0  0  0  0  0  0  0  0  0  0
   35.4720   29.7650   34.1710 C   0  0  0  0  0  0  0  0  0  0  0  0
   34.7750   30.8680   33.6630 C   0  0  0  0  0  0  0  0  0  0  0  0
   34.0830   31.8590   34.2550 N   0  0  0  0  0  0  0  0  0  0  0  0
   33.5950   32.6840   33.3280 C   0  0  0  0  0  0  0  0  0  0  0  0
   33.9750   32.2240   32.1080 N   0  0  0  0  0  0  0  0  0  0  0  0
   34.6920   31.1190   32.3250 C   0  0  0  0  0  0  0  0  0  0  0  0
   35.3070   30.2720   31.4440 C   0  0  0  0  0  0  0  0  0  0  0  0
   36.4450   28.5910   31.1170 H   0  0  0  0  0  0  0  0  0  0  0  0
   35.5360   29.5680   35.2220 H   0  0  0  0  0  0  0  0  0  0  0  0
   33.9540   31.9570   35.2970 H   0  0  0  0  0  0  0  0  0  0  0  0
   33.0000   33.5740   33.4340 H   0  0  0  0  0  0  0  0  0  0  0  0
   35.2240   30.5000   30.3710 H   0  0  0  0  0  0  0  0  0  0  0  0
   38.7870   24.0320   34.4570 C   0  0  0  0  0  0  0  0  0  0  0  0
   38.3050   23.2050   33.9070 H   0  0  0  0  0  0  0  0  0  0  0  0
   39.8460   24.1720   34.1640 H   0  0  0  0  0  0  0  0  0  0  0  0
   38.7770   23.7870   35.9400 C   0  0  0  0  0  0  0  0  0  0  0  0
   39.8820   23.1660   36.5260 C   0  0  0  0  0  0  0  0  0  0  0  0
   40.7010   22.8880   35.8740 H   0  0  0  0  0  0  0  0  0  0  0  0
   39.9960   22.8860   37.8660 C   0  0  0  0  0  3  0  0  0  0  0  0
   38.9470   23.2440   38.6850 C   0  0  0  0  0  0  0  0  0  0  0  0
   39.0040   23.0390   39.7390 H   0  0  0  0  0  0  0  0  0  0  0  0
   37.8420   23.8590   38.1330 C   0  0  0  0  0  0  0  0  0  0  0  0
   37.0210   24.1380   38.7910 H   0  0  0  0  0  0  0  0  0  0  0  0
   37.7230   24.1430   36.7860 C   0  0  0  0  0  3  0  0  0  0  0  0
  1  6  2  0  0  0  0
  1  2  1  0  0  0  0
  2  3  2  0  0  0  0
  3  4  1  0  0  0  0
  3  8  1  0  0  0  0
  5 23  1  0  0  0  0
  5  4  2  0  0  0  0
  6  5  1  0  0  0  0
  7  1  1  0  0  0  0
  9 10  1  0  0  0  0
 10  2  1  0  0  0  0
 10 11  2  0  0  0  0
 11 19  1  0  0  0  0
 12 11  1  0  0  0  0
 12 13  1  0  0  0  0
 13 20  1  0  0  0  0
 14 21  1  0  0  0  0
 14 13  1  0  0  0  0
 15 16  1  0  0  0  0
 15 14  2  0  0  0  0
 16 12  2  0  0  0  0
 17  9  2  0  0  0  0
 17 16  1  0  0  0  0
 18  9  1  0  0  0  0
 22 17  1  0  0  0  0
 23 26  1  0  0  0  0
 24 23  1  0  0  0  0
 25 23  1  0  0  0  0
 26 27  2  0  0  0  0
 26 34  1  0  0  0  0
 27 29  1  0  0  0  0
 28 27  1  0  0  0  0
 29 30  2  0  0  0  0
 30 31  1  0  0  0  0
 32 30  1  0  0  0  0
 32 33  1  0  0  0  0
 34 32  2  0  0  0  0
M  END
>  <minimizedAffinity>
-5.49339771

$$$$

 OpenBabel03272501453D

 34 37  0  0  0  0  0  0  0  0999 V2000
   37.5380   25.7550   33.1490 C   0  0  0  0  0  0  0  0  0  0  0  0
   37.9950   26.1150   34.4510 C   0  0  0  0  0  0  0  0  0  0  0  0
   37.4970   27.2910   35.0030 C   0  0  0  0  0  0  0  0  0  0  0  0
   36.6190   28.0230   34.2890 N   0  0  0  0  0  0  0  0  0  0  0  0
   36.1970   27.6570   33.0490 C   0  0  0  0  0  0  0  0  0  0  0  0
   36.6620   26.5210   32.4850 N   0  0  0  0  0  0  0  0  0  0  0  0
   37.7920   24.9020   32.5410 H   0  0  0  0  0  0  0  0  0  0  0  0
   37.8710   27.5180   35.9820 H   0  0  0  0  0  0  0  0  0  0  0  0
   40.2390   25.1870   34.5690 C   0  0  0  0  0  0  0  0  0  0  0  0
   38.9330   25.1790   35.0200 C   0  0  0  0  0  0  0  0  0  0  0  0
   38.6010   24.2600   36.0140 C   0  0  0  0  0  0  0  0  0  0  0  0
   39.5960   23.4020   36.4980 C   0  0  0  0  0  0  0  0  0  0  0  0
   39.5870   22.4320   37.4310 N   0  0  0  0  0  0  0  0  0  0  0  0
   40.8030   21.8930   37.5330 C   0  0  0  0  0  0  0  0  0  0  0  0
   41.6220   22.5230   36.6510 N   0  0  0  0  0  0  0  0  0  0  0  0
   40.8760   23.4390   36.0270 C   0  0  0  0  0  0  0  0  0  0  0  0
   41.2060   24.3390   35.0520 C   0  0  0  0  0  0  0  0  0  0  0  0
   40.6360   25.8540   33.7860 H   0  0  0  0  0  0  0  0  0  0  0  0
   37.5960   24.2310   36.3840 H   0  0  0  0  0  0  0  0  0  0  0  0
   38.7390   22.1490   37.9900 H   0  0  0  0  0  0  0  0  0  0  0  0
   41.1620   21.1030   38.1690 H   0  0  0  0  0  0  0  0  0  0  0  0
   42.2450   24.3450   34.6920 H   0  0  0  0  0  0  0  0  0  0  0  0
   35.2170   28.5450   32.3440 C   0  0  0  0  0  0  0  0  0  0  0  0
   34.6650   27.9540   31.5920 H   0  0  0  0  0  0  0  0  0  0  0  0
   34.5500   28.9660   33.1210 H   0  0  0  0  0  0  0  0  0  0  0  0
   35.9360   29.7050   31.7150 C   0  0  0  0  0  0  0  0  0  0  0  0
   36.6750   29.4860   30.5500 C   0  0  0  0  0  0  0  0  0  0  0  0
   36.6930   28.4770   30.1550 H   0  0  0  0  0  0  0  0  0  0  0  0
   37.3760   30.4590   29.8800 C   0  0  0  0  0  3  0  0  0  0  0  0
   37.3450   31.7370   30.3940 C   0  0  0  0  0  0  0  0  0  0  0  0
   37.8820   32.5220   29.8930 H   0  0  0  0  0  0  0  0  0  0  0  0
   36.6220   31.9830   31.5430 C   0  0  0  0  0  0  0  0  0  0  0  0
   36.6060   32.9970   31.9390 H   0  0  0  0  0  0  0  0  0  0  0  0
   35.9170   31.0070   32.2210 C   0  0  0  0  0  3  0  0  0  0  0  0
  1  2  1  0  0  0  0
  2  3  2  0  0  0  0
  2 10  1  0  0  0  0
  3  8  1  0  0  0  0
  4  3  1  0  0  0  0
  5  4  2  0  0  0  0
  6  5  1  0  0  0  0
  6  1  2  0  0  0  0
  7  1  1  0  0  0  0
  9 10  2  0  0  0  0
  9 17  1  0  0  0  0
 10 11  1  0  0  0  0
 11 19  1  0  0  0  0
 11 12  2  0  0  0  0
 12 13  1  0  0  0  0
 13 14  1  0  0  0  0
 13 20  1  0  0  0  0
 14 21  1  0  0  0  0
 15 14  2  0  0  0  0
 16 12  1  0  0  0  0
 16 15  1  0  0  0  0
 17 16  2  0  0  0  0
 18  9  1  0  0  0  0
 22 17  1  0  0  0  0
 23  5  1  0  0  0  0
 23 25  1  0  0  0  0
 24 23  1  0  0  0  0
 26 34  1  0  0  0  0
 26 23  1  0  0  0  0
 27 26  2  0  0  0  0
 28 27  1  0  0  0  0
 29 30  2  0  0  0  0
 29 27  1  0  0  0  0
 30 32  1  0  0  0  0
 31 30  1  0  0  0  0
 32 33  1  0  0  0  0
 32 34  2  0  0  0  0
M  END
>  <minimizedAffinity>
-5.4399395

$$$$
