
 OpenBabel03262523503D

 21 22  0  0  0  0  0  0  0  0999 V2000
   37.9620   27.1700   31.6570 C   0  0  0  0  0  0  0  0  0  0  0  0
   37.5230   28.1380   31.3710 H   0  0  0  0  0  0  0  0  0  0  0  0
   38.8970   27.0020   31.0490 H   0  0  0  0  0  0  0  0  0  0  0  0
   37.0210   26.0690   31.3560 C   0  0  0  0  0  0  0  0  0  0  0  0
   37.5120   24.7630   31.3340 C   0  0  0  0  0  0  0  0  0  0  0  0
   36.6130   23.7200   31.0480 C   0  0  0  0  0  0  0  0  0  0  0  0
   35.2970   24.0410   30.8030 N   0  0  0  0  0  0  0  0  0  0  0  0
   34.8690   25.3090   30.8330 C   0  0  0  0  0  0  0  0  0  0  0  0
   35.7170   26.3110   31.1060 N   0  0  0  0  0  0  0  0  0  0  0  0
   38.5410   24.4900   31.5250 H   0  0  0  0  0  0  0  0  0  0  0  0
   36.8840   22.6960   31.0070 H   0  0  0  0  0  0  0  0  0  0  0  0
   33.8320   25.5640   30.6400 H   0  0  0  0  0  0  0  0  0  0  0  0
   38.3490   27.1710   33.0920 C   0  0  0  0  0  0  0  0  0  0  0  0
   39.6210   26.9130   33.5610 C   0  0  0  0  0  0  0  0  0  0  0  0
   40.4040   26.6910   32.8200 H   0  0  0  0  0  0  0  0  0  0  0  0
   39.9500   26.9210   34.8990 C   0  0  0  0  0  3  0  0  0  0  0  0
   38.9600   27.2030   35.8470 C   0  0  0  0  0  0  0  0  0  0  0  0
   39.1600   27.2250   36.9160 H   0  0  0  0  0  0  0  0  0  0  0  0
   37.6730   27.4680   35.4140 C   0  0  0  0  0  0  0  0  0  0  0  0
   36.8670   27.6930   36.1280 H   0  0  0  0  0  0  0  0  0  0  0  0
   37.3840   27.4490   34.0650 C   0  0  0  0  0  3  0  0  0  0  0  0
  1 13  1  0  0  0  0
  2  1  1  0  0  0  0
  3  1  1  0  0  0  0
  4  1  1  0  0  0  0
  5  4  1  0  0  0  0
  5 10  1  0  0  0  0
  6  5  2  0  0  0  0
  7  8  2  0  0  0  0
  7  6  1  0  0  0  0
  8  9  1  0  0  0  0
  9  4  2  0  0  0  0
 11  6  1  0  0  0  0
 12  8  1  0  0  0  0
 13 14  2  0  0  0  0
 13 21  1  0  0  0  0
 14 16  1  0  0  0  0
 15 14  1  0  0  0  0
 16 17  2  0  0  0  0
 17 18  1  0  0  0  0
 19 17  1  0  0  0  0
 19 20  1  0  0  0  0
 21 19  2  0  0  0  0
M  END
>  <minimizedAffinity>
-4.20492458

$$$$

 OpenBabel03262523503D

 21 22  0  0  0  0  0  0  0  0999 V2000
   39.1690   26.3890   35.2950 C   0  0  0  0  0  0  0  0  0  0  0  0
   40.2000   26.2970   34.9200 H   0  0  0  0  0  0  0  0  0  0  0  0
   39.1780   27.0160   36.2330 H   0  0  0  0  0  0  0  0  0  0  0  0
   38.6280   25.0570   35.6460 C   0  0  0  0  0  0  0  0  0  0  0  0
   38.1230   24.8620   36.9320 C   0  0  0  0  0  0  0  0  0  0  0  0
   37.6110   23.5940   37.2600 C   0  0  0  0  0  0  0  0  0  0  0  0
   37.6350   22.6110   36.2960 N   0  0  0  0  0  0  0  0  0  0  0  0
   38.1290   22.8420   35.0740 C   0  0  0  0  0  0  0  0  0  0  0  0
   38.6200   24.0470   34.7510 N   0  0  0  0  0  0  0  0  0  0  0  0
   38.0950   25.6220   37.7020 H   0  0  0  0  0  0  0  0  0  0  0  0
   37.2060   23.3440   38.2060 H   0  0  0  0  0  0  0  0  0  0  0  0
   38.1490   22.0690   34.3140 H   0  0  0  0  0  0  0  0  0  0  0  0
   38.3050   27.0760   34.3010 C   0  0  0  0  0  0  0  0  0  0  0  0
   38.5850   27.1710   32.9520 C   0  0  0  0  0  0  0  0  0  0  0  0
   39.5120   26.7030   32.5890 H   0  0  0  0  0  0  0  0  0  0  0  0
   37.7630   27.8150   32.0530 C   0  0  0  0  0  3  0  0  0  0  0  0
   36.5810   28.4120   32.5080 C   0  0  0  0  0  0  0  0  0  0  0  0
   35.8940   28.9330   31.8460 H   0  0  0  0  0  0  0  0  0  0  0  0
   36.2680   28.3370   33.8540 C   0  0  0  0  0  0  0  0  0  0  0  0
   35.3490   28.7930   34.2500 H   0  0  0  0  0  0  0  0  0  0  0  0
   37.1170   27.6820   34.7220 C   0  0  0  0  0  3  0  0  0  0  0  0
  1  4  1  0  0  0  0
  1  3  1  0  0  0  0
  2  1  1  0  0  0  0
  4  5  1  0  0  0  0
  5  6  2  0  0  0  0
  5 10  1  0  0  0  0
  6 11  1  0  0  0  0
  7  6  1  0  0  0  0
  8  7  2  0  0  0  0
  9  8  1  0  0  0  0
  9  4  2  0  0  0  0
 12  8  1  0  0  0  0
 13 21  1  0  0  0  0
 13  1  1  0  0  0  0
 14 13  2  0  0  0  0
 15 14  1  0  0  0  0
 16 17  2  0  0  0  0
 16 14  1  0  0  0  0
 17 19  1  0  0  0  0
 18 17  1  0  0  0  0
 19 20  1  0  0  0  0
 19 21  2  0  0  0  0
M  END
>  <minimizedAffinity>
-4.05308437

$$$$

 OpenBabel03262523503D

 21 22  0  0  0  0  0  0  0  0999 V2000
   39.5740   24.7150   34.4360 C   0  0  0  0  0  0  0  0  0  0  0  0
   39.9160   25.7620   34.4330 H   0  0  0  0  0  0  0  0  0  0  0  0
   40.4060   24.0610   34.0470 H   0  0  0  0  0  0  0  0  0  0  0  0
   38.4100   24.5520   33.5380 C   0  0  0  0  0  0  0  0  0  0  0  0
   38.0530   23.2620   33.1410 C   0  0  0  0  0  0  0  0  0  0  0  0
   36.9460   23.1120   32.2870 C   0  0  0  0  0  0  0  0  0  0  0  0
   36.2730   24.2440   31.8860 N   0  0  0  0  0  0  0  0  0  0  0  0
   36.6500   25.4630   32.2910 C   0  0  0  0  0  0  0  0  0  0  0  0
   37.7040   25.6180   33.1050 N   0  0  0  0  0  0  0  0  0  0  0  0
   38.5690   22.3610   33.4450 H   0  0  0  0  0  0  0  0  0  0  0  0
   36.5940   22.1790   31.9290 H   0  0  0  0  0  0  0  0  0  0  0  0
   36.1210   26.3560   31.9760 H   0  0  0  0  0  0  0  0  0  0  0  0
   39.2560   24.2690   35.8170 C   0  0  0  0  0  0  0  0  0  0  0  0
   38.2150   24.7590   36.5790 C   0  0  0  0  0  0  0  0  0  0  0  0
   37.5750   25.5340   36.1320 H   0  0  0  0  0  0  0  0  0  0  0  0
   37.9440   24.3250   37.8580 C   0  0  0  0  0  3  0  0  0  0  0  0
   38.7540   23.3380   38.4340 C   0  0  0  0  0  0  0  0  0  0  0  0
   38.5900   22.9560   39.4390 H   0  0  0  0  0  0  0  0  0  0  0  0
   39.8080   22.8240   37.7000 C   0  0  0  0  0  0  0  0  0  0  0  0
   40.4670   22.0480   38.1170 H   0  0  0  0  0  0  0  0  0  0  0  0
   40.0460   23.2850   36.4220 C   0  0  0  0  0  3  0  0  0  0  0  0
  1 13  1  0  0  0  0
  2  1  1  0  0  0  0
  3  1  1  0  0  0  0
  4  1  1  0  0  0  0
  5 10  1  0  0  0  0
  5  4  1  0  0  0  0
  6  5  2  0  0  0  0
  7  6  1  0  0  0  0
  7  8  2  0  0  0  0
  8  9  1  0  0  0  0
  9  4  2  0  0  0  0
 11  6  1  0  0  0  0
 12  8  1  0  0  0  0
 13 21  2  0  0  0  0
 13 14  1  0  0  0  0
 14 16  2  0  0  0  0
 15 14  1  0  0  0  0
 16 17  1  0  0  0  0
 17 18  1  0  0  0  0
 19 20  1  0  0  0  0
 19 17  2  0  0  0  0
 21 19  1  0  0  0  0
M  END
>  <minimizedAffinity>
-3.93197083

$$$$

 OpenBabel03262523503D

 21 22  0  0  0  0  0  0  0  0999 V2000
   38.1120   26.7240   35.7360 C   0  0  0  0  0  0  0  0  0  0  0  0
   38.3060   27.4440   36.5460 H   0  0  0  0  0  0  0  0  0  0  0  0
   37.0920   26.9340   35.3010 H   0  0  0  0  0  0  0  0  0  0  0  0
   38.1030   25.3430   36.2660 C   0  0  0  0  0  0  0  0  0  0  0  0
   38.1050   24.2830   35.3580 C   0  0  0  0  0  0  0  0  0  0  0  0
   38.0970   22.9720   35.8670 C   0  0  0  0  0  0  0  0  0  0  0  0
   38.0850   22.8020   37.2330 N   0  0  0  0  0  0  0  0  0  0  0  0
   38.0820   23.8480   38.0680 C   0  0  0  0  0  0  0  0  0  0  0  0
   38.0910   25.1020   37.5940 N   0  0  0  0  0  0  0  0  0  0  0  0
   38.1150   24.3960   34.2820 H   0  0  0  0  0  0  0  0  0  0  0  0
   38.0980   22.1010   35.2640 H   0  0  0  0  0  0  0  0  0  0  0  0
   38.0730   23.7160   39.1450 H   0  0  0  0  0  0  0  0  0  0  0  0
   39.1090   26.8770   34.6460 C   0  0  0  0  0  0  0  0  0  0  0  0
   40.4770   26.8320   34.8230 C   0  0  0  0  0  0  0  0  0  0  0  0
   40.8560   26.6710   35.8430 H   0  0  0  0  0  0  0  0  0  0  0  0
   41.3790   26.9770   33.7900 C   0  0  0  0  0  3  0  0  0  0  0  0
   40.9050   27.1810   32.4890 C   0  0  0  0  0  0  0  0  0  0  0  0
   41.5670   27.3020   31.6350 H   0  0  0  0  0  0  0  0  0  0  0  0
   39.5390   27.2320   32.2740 C   0  0  0  0  0  0  0  0  0  0  0  0
   39.1270   27.3910   31.2660 H   0  0  0  0  0  0  0  0  0  0  0  0
   38.6690   27.0820   33.3340 C   0  0  0  0  0  3  0  0  0  0  0  0
  1  4  1  0  0  0  0
  1  2  1  0  0  0  0
  3  1  1  0  0  0  0
  4  9  1  0  0  0  0
  5  6  1  0  0  0  0
  5  4  2  0  0  0  0
  6  7  2  0  0  0  0
  7  8  1  0  0  0  0
  8 12  1  0  0  0  0
  9  8  2  0  0  0  0
 10  5  1  0  0  0  0
 11  6  1  0  0  0  0
 13 14  1  0  0  0  0
 13  1  1  0  0  0  0
 14 15  1  0  0  0  0
 16 14  2  0  0  0  0
 17 16  1  0  0  0  0
 18 17  1  0  0  0  0
 19 17  2  0  0  0  0
 19 21  1  0  0  0  0
 20 19  1  0  0  0  0
 21 13  2  0  0  0  0
M  END
>  <minimizedAffinity>
-3.91713405

$$$$

 OpenBabel03262523503D

 21 22  0  0  0  0  0  0  0  0999 V2000
   38.2610   23.5170   34.4550 C   0  0  0  0  0  0  0  0  0  0  0  0
   38.9980   22.8670   33.9600 H   0  0  0  0  0  0  0  0  0  0  0  0
   37.2280   23.1060   34.2630 H   0  0  0  0  0  0  0  0  0  0  0  0
   38.3170   24.8830   33.8900 C   0  0  0  0  0  0  0  0  0  0  0  0
   39.5100   25.5980   33.9980 C   0  0  0  0  0  0  0  0  0  0  0  0
   39.5590   26.8970   33.4600 C   0  0  0  0  0  0  0  0  0  0  0  0
   38.4270   27.3950   32.8550 N   0  0  0  0  0  0  0  0  0  0  0  0
   37.3020   26.6740   32.7740 C   0  0  0  0  0  0  0  0  0  0  0  0
   37.2450   25.4360   33.2840 N   0  0  0  0  0  0  0  0  0  0  0  0
   40.4100   25.2240   34.4690 H   0  0  0  0  0  0  0  0  0  0  0  0
   40.4150   27.5200   33.4900 H   0  0  0  0  0  0  0  0  0  0  0  0
   36.4090   27.0650   32.2980 H   0  0  0  0  0  0  0  0  0  0  0  0
   38.4750   23.5320   35.9250 C   0  0  0  0  0  0  0  0  0  0  0  0
   37.6740   24.2020   36.8280 C   0  0  0  0  0  0  0  0  0  0  0  0
   36.8150   24.7630   36.4300 H   0  0  0  0  0  0  0  0  0  0  0  0
   37.8980   24.1970   38.1870 C   0  0  0  0  0  3  0  0  0  0  0  0
   38.9890   23.4840   38.7000 C   0  0  0  0  0  0  0  0  0  0  0  0
   39.2160   23.4440   39.7630 H   0  0  0  0  0  0  0  0  0  0  0  0
   39.8140   22.8010   37.8250 C   0  0  0  0  0  0  0  0  0  0  0  0
   40.6810   22.2300   38.1890 H   0  0  0  0  0  0  0  0  0  0  0  0
   39.5550   22.8300   36.4710 C   0  0  0  0  0  3  0  0  0  0  0  0
  1 13  1  0  0  0  0
  2  1  1  0  0  0  0
  3  1  1  0  0  0  0
  4  5  1  0  0  0  0
  4  1  1  0  0  0  0
  5 10  1  0  0  0  0
  6 11  1  0  0  0  0
  6  5  2  0  0  0  0
  7  6  1  0  0  0  0
  8  7  2  0  0  0  0
  8  9  1  0  0  0  0
  9  4  2  0  0  0  0
 12  8  1  0  0  0  0
 13 21  2  0  0  0  0
 13 14  1  0  0  0  0
 14 16  2  0  0  0  0
 15 14  1  0  0  0  0
 16 17  1  0  0  0  0
 17 18  1  0  0  0  0
 19 20  1  0  0  0  0
 19 17  2  0  0  0  0
 21 19  1  0  0  0  0
M  END
>  <minimizedAffinity>
-3.89696646

$$$$

 OpenBabel03262523503D

 21 22  0  0  0  0  0  0  0  0999 V2000
   36.3410   27.2290   32.2070 C   0  0  0  0  0  0  0  0  0  0  0  0
   36.3260   26.2650   31.6760 H   0  0  0  0  0  0  0  0  0  0  0  0
   35.3250   27.4080   32.6630 H   0  0  0  0  0  0  0  0  0  0  0  0
   36.6150   28.3330   31.2610 C   0  0  0  0  0  0  0  0  0  0  0  0
   36.3880   29.6430   31.6850 C   0  0  0  0  0  0  0  0  0  0  0  0
   36.6490   30.6890   30.7820 C   0  0  0  0  0  0  0  0  0  0  0  0
   37.1150   30.3660   29.5270 N   0  0  0  0  0  0  0  0  0  0  0  0
   37.3180   29.0940   29.1610 C   0  0  0  0  0  0  0  0  0  0  0  0
   37.0720   28.0900   30.0150 N   0  0  0  0  0  0  0  0  0  0  0  0
   36.0230   29.9170   32.6660 H   0  0  0  0  0  0  0  0  0  0  0  0
   36.5110   31.7150   31.0050 H   0  0  0  0  0  0  0  0  0  0  0  0
   37.6850   28.8390   28.1730 H   0  0  0  0  0  0  0  0  0  0  0  0
   37.3340   27.2070   33.3120 C   0  0  0  0  0  0  0  0  0  0  0  0
   37.0330   27.4230   34.6410 C   0  0  0  0  0  0  0  0  0  0  0  0
   35.9840   27.6250   34.9020 H   0  0  0  0  0  0  0  0  0  0  0  0
   37.9770   27.3950   35.6450 C   0  0  0  0  0  3  0  0  0  0  0  0
   39.3160   27.1390   35.3210 C   0  0  0  0  0  0  0  0  0  0  0  0
   40.1040   27.1050   36.0700 H   0  0  0  0  0  0  0  0  0  0  0  0
   39.6540   26.9180   33.9980 C   0  0  0  0  0  0  0  0  0  0  0  0
   40.6940   26.7130   33.7040 H   0  0  0  0  0  0  0  0  0  0  0  0
   38.6790   26.9530   33.0230 C   0  0  0  0  0  3  0  0  0  0  0  0
  1  3  1  0  0  0  0
  1 13  1  0  0  0  0
  2  1  1  0  0  0  0
  4  5  1  0  0  0  0
  4  1  1  0  0  0  0
  5 10  1  0  0  0  0
  6 11  1  0  0  0  0
  6  5  2  0  0  0  0
  7  6  1  0  0  0  0
  8  7  2  0  0  0  0
  8  9  1  0  0  0  0
  9  4  2  0  0  0  0
 12  8  1  0  0  0  0
 13 14  1  0  0  0  0
 14 15  1  0  0  0  0
 14 16  2  0  0  0  0
 17 16  1  0  0  0  0
 17 18  1  0  0  0  0
 19 17  2  0  0  0  0
 20 19  1  0  0  0  0
 21 13  2  0  0  0  0
 21 19  1  0  0  0  0
M  END
>  <minimizedAffinity>
-3.89237046

$$$$

 OpenBabel03262523503D

 21 22  0  0  0  0  0  0  0  0999 V2000
   38.7770   22.9180   33.8350 C   0  0  0  0  0  0  0  0  0  0  0  0
   39.6220   22.2810   33.5300 H   0  0  0  0  0  0  0  0  0  0  0  0
   38.8850   23.9260   33.3410 H   0  0  0  0  0  0  0  0  0  0  0  0
   38.7920   23.1260   35.3000 C   0  0  0  0  0  0  0  0  0  0  0  0
   39.7240   22.4200   36.0620 C   0  0  0  0  0  0  0  0  0  0  0  0
   39.7340   22.6220   37.4540 C   0  0  0  0  0  0  0  0  0  0  0  0
   38.8240   23.5040   37.9920 N   0  0  0  0  0  0  0  0  0  0  0  0
   37.9460   24.1600   37.2230 C   0  0  0  0  0  0  0  0  0  0  0  0
   37.9280   23.9760   35.8960 N   0  0  0  0  0  0  0  0  0  0  0  0
   40.4470   21.7240   35.6580 H   0  0  0  0  0  0  0  0  0  0  0  0
   40.4000   22.1360   38.1200 H   0  0  0  0  0  0  0  0  0  0  0  0
   37.2290   24.8550   37.6460 H   0  0  0  0  0  0  0  0  0  0  0  0
   37.4870   22.3310   33.3880 C   0  0  0  0  0  0  0  0  0  0  0  0
   36.8560   21.2670   33.9980 C   0  0  0  0  0  0  0  0  0  0  0  0
   37.3420   20.8210   34.8800 H   0  0  0  0  0  0  0  0  0  0  0  0
   35.6590   20.7450   33.5600 C   0  0  0  0  0  3  0  0  0  0  0  0
   35.0340   21.3060   32.4390 C   0  0  0  0  0  0  0  0  0  0  0  0
   34.0890   20.9370   32.0470 H   0  0  0  0  0  0  0  0  0  0  0  0
   35.6380   22.3750   31.8020 C   0  0  0  0  0  0  0  0  0  0  0  0
   35.1790   22.8430   30.9180 H   0  0  0  0  0  0  0  0  0  0  0  0
   36.8370   22.8690   32.2720 C   0  0  0  0  0  3  0  0  0  0  0  0
  1  4  1  0  0  0  0
  2  1  1  0  0  0  0
  3  1  1  0  0  0  0
  4  9  2  0  0  0  0
  4  5  1  0  0  0  0
  5  6  2  0  0  0  0
  6  7  1  0  0  0  0
  6 11  1  0  0  0  0
  8 12  1  0  0  0  0
  8  7  2  0  0  0  0
  9  8  1  0  0  0  0
 10  5  1  0  0  0  0
 13  1  1  0  0  0  0
 13 14  1  0  0  0  0
 14 15  1  0  0  0  0
 16 14  2  0  0  0  0
 17 16  1  0  0  0  0
 18 17  1  0  0  0  0
 19 21  1  0  0  0  0
 19 17  2  0  0  0  0
 20 19  1  0  0  0  0
 21 13  2  0  0  0  0
M  END
>  <minimizedAffinity>
-3.81108212

$$$$

 OpenBabel03262523503D

 21 22  0  0  0  0  0  0  0  0999 V2000
   35.5670   28.7710   34.4400 C   0  0  0  0  0  0  0  0  0  0  0  0
   34.8810   28.4880   33.6270 H   0  0  0  0  0  0  0  0  0  0  0  0
   35.1190   28.4460   35.4230 H   0  0  0  0  0  0  0  0  0  0  0  0
   35.7380   30.2400   34.4830 C   0  0  0  0  0  0  0  0  0  0  0  0
   35.6330   30.9560   33.2900 C   0  0  0  0  0  0  0  0  0  0  0  0
   35.7960   32.3520   33.3360 C   0  0  0  0  0  0  0  0  0  0  0  0
   36.0510   32.9390   34.5550 N   0  0  0  0  0  0  0  0  0  0  0  0
   36.1440   32.2130   35.6760 C   0  0  0  0  0  0  0  0  0  0  0  0
   35.9910   30.8820   35.6430 N   0  0  0  0  0  0  0  0  0  0  0  0
   35.4320   30.5130   32.3230 H   0  0  0  0  0  0  0  0  0  0  0  0
   35.7350   32.9850   32.4890 H   0  0  0  0  0  0  0  0  0  0  0  0
   36.3460   32.6740   36.6360 H   0  0  0  0  0  0  0  0  0  0  0  0
   36.8750   28.0800   34.2890 C   0  0  0  0  0  0  0  0  0  0  0  0
   37.4090   27.6680   33.0850 C   0  0  0  0  0  0  0  0  0  0  0  0
   36.8270   27.8660   32.1730 H   0  0  0  0  0  0  0  0  0  0  0  0
   38.6260   27.0300   32.9770 C   0  0  0  0  0  3  0  0  0  0  0  0
   39.3730   26.7760   34.1330 C   0  0  0  0  0  0  0  0  0  0  0  0
   40.3390   26.2770   34.1100 H   0  0  0  0  0  0  0  0  0  0  0  0
   38.8680   27.1750   35.3580 C   0  0  0  0  0  0  0  0  0  0  0  0
   39.4250   26.9930   36.2890 H   0  0  0  0  0  0  0  0  0  0  0  0
   37.6460   27.8110   35.4250 C   0  0  0  0  0  3  0  0  0  0  0  0
  1  4  1  0  0  0  0
  1  3  1  0  0  0  0
  2  1  1  0  0  0  0
  4  9  1  0  0  0  0
  5  6  1  0  0  0  0
  5  4  2  0  0  0  0
  6  7  2  0  0  0  0
  7  8  1  0  0  0  0
  8 12  1  0  0  0  0
  9  8  2  0  0  0  0
 10  5  1  0  0  0  0
 11  6  1  0  0  0  0
 13  1  1  0  0  0  0
 13 21  1  0  0  0  0
 14 13  2  0  0  0  0
 15 14  1  0  0  0  0
 16 14  1  0  0  0  0
 16 17  2  0  0  0  0
 17 19  1  0  0  0  0
 18 17  1  0  0  0  0
 19 21  2  0  0  0  0
 19 20  1  0  0  0  0
M  END
>  <minimizedAffinity>
-3.78971219

$$$$

 OpenBabel03262523503D

 21 22  0  0  0  0  0  0  0  0999 V2000
   37.6890   22.7790   31.9790 C   0  0  0  0  0  0  0  0  0  0  0  0
   38.3640   22.9140   32.8390 H   0  0  0  0  0  0  0  0  0  0  0  0
   38.3110   22.6110   31.0530 H   0  0  0  0  0  0  0  0  0  0  0  0
   36.8790   23.9980   31.7660 C   0  0  0  0  0  0  0  0  0  0  0  0
   37.3090   25.1930   32.3450 C   0  0  0  0  0  0  0  0  0  0  0  0
   36.5350   26.3480   32.1400 C   0  0  0  0  0  0  0  0  0  0  0  0
   35.3920   26.2420   31.3780 N   0  0  0  0  0  0  0  0  0  0  0  0
   35.0160   25.0740   30.8400 C   0  0  0  0  0  0  0  0  0  0  0  0
   35.7470   23.9670   31.0300 N   0  0  0  0  0  0  0  0  0  0  0  0
   38.2030   25.2970   32.9460 H   0  0  0  0  0  0  0  0  0  0  0  0
   36.7740   27.3020   32.5350 H   0  0  0  0  0  0  0  0  0  0  0  0
   34.1170   24.9890   30.2400 H   0  0  0  0  0  0  0  0  0  0  0  0
   36.8270   21.5850   32.1690 C   0  0  0  0  0  0  0  0  0  0  0  0
   36.2300   21.2290   33.3620 C   0  0  0  0  0  0  0  0  0  0  0  0
   36.4060   21.8770   34.2340 H   0  0  0  0  0  0  0  0  0  0  0  0
   35.4340   20.1140   33.5070 C   0  0  0  0  0  3  0  0  0  0  0  0
   35.2060   19.2850   32.4010 C   0  0  0  0  0  0  0  0  0  0  0  0
   34.5870   18.3920   32.4550 H   0  0  0  0  0  0  0  0  0  0  0  0
   35.7870   19.6110   31.1890 C   0  0  0  0  0  0  0  0  0  0  0  0
   35.6320   18.9850   30.2970 H   0  0  0  0  0  0  0  0  0  0  0  0
   36.5780   20.7360   31.0850 C   0  0  0  0  0  3  0  0  0  0  0  0
  1 13  1  0  0  0  0
  1  2  1  0  0  0  0
  3  1  1  0  0  0  0
  4  1  1  0  0  0  0
  4  5  1  0  0  0  0
  5 10  1  0  0  0  0
  6  5  2  0  0  0  0
  6 11  1  0  0  0  0
  7  6  1  0  0  0  0
  8  9  1  0  0  0  0
  8  7  2  0  0  0  0
  9  4  2  0  0  0  0
 12  8  1  0  0  0  0
 13 14  1  0  0  0  0
 14 16  2  0  0  0  0
 14 15  1  0  0  0  0
 17 18  1  0  0  0  0
 17 16  1  0  0  0  0
 19 17  2  0  0  0  0
 20 19  1  0  0  0  0
 21 19  1  0  0  0  0
 21 13  2  0  0  0  0
M  END
>  <minimizedAffinity>
-3.78234863

$$$$
