
 OpenBabel03272506453D

 32 34  0  0  1  0  0  0  0  0999 V2000
   37.8460   24.9650   32.4360 C   0  0  2  0  0  0  0  0  0  0  0  0
   37.5950   23.9010   31.3800 C   0  0  1  0  0  0  0  0  0  0  0  0
   38.3870   22.8280   31.6700 O   0  0  0  0  0  0  0  0  0  0  0  0
   38.9770   23.0190   32.8990 C   0  0  0  0  0  0  0  0  0  0  0  0
   38.1210   24.0670   33.6330 C   0  0  1  0  0  0  0  0  0  0  0  0
   38.7150   25.5740   32.1850 H   0  0  0  0  0  0  0  0  0  0  0  0
   37.7020   24.3010   30.3500 H   0  0  0  0  0  0  0  0  0  0  0  0
   38.9760   22.0540   33.4810 H   0  0  0  0  0  0  0  0  0  0  0  0
   40.0080   23.4110   32.7770 H   0  0  0  0  0  0  0  0  0  0  0  0
   37.1970   23.5880   33.9440 H   0  0  0  0  0  0  0  0  0  0  0  0
   36.7050   25.7530   32.6440 O   0  0  0  0  0  0  0  0  0  0  0  0
   36.1840   25.4270   33.4140 H   0  0  0  0  0  0  0  0  0  0  0  0
   35.8570   23.3940   31.5700 S   0  0  0  0  0  0  0  0  0  0  0  0
   35.5270   19.9530   33.4960 C   0  0  0  0  0  0  0  0  0  0  0  0
   35.6530   18.9680   32.5110 C   0  0  0  0  0  0  0  0  0  0  0  0
   35.8500   19.3900   31.1900 C   0  0  0  0  0  0  0  0  0  0  0  0
   35.9070   20.7210   30.9450 N   0  0  0  0  0  0  0  0  0  0  0  0
   35.7820   21.6480   31.9100 C   0  0  0  0  0  0  0  0  0  0  0  0
   35.5930   21.2700   33.1820 N   0  0  0  0  0  0  0  0  0  0  0  0
   35.3740   19.6090   34.5120 H   0  0  0  0  0  0  0  0  0  0  0  0
   35.6060   17.9200   32.7260 H   0  0  0  0  0  0  0  0  0  0  0  0
   35.9550   18.6650   30.3850 H   0  0  0  0  0  0  0  0  0  0  0  0
   38.8680   24.6820   34.6000 O   0  0  0  0  0  0  0  0  0  0  0  0
   38.9920   24.1330   35.8620 C   0  0  0  0  0  0  0  0  0  0  0  0
   37.9890   24.6580   36.6870 C   0  0  0  0  0  0  0  0  0  0  0  0
   37.2140   25.3820   36.4260 H   0  0  0  0  0  0  0  0  0  0  0  0
   37.8730   24.2820   38.0190 C   0  0  0  0  0  3  0  0  0  0  0  0
   38.7520   23.3740   38.5590 C   0  0  0  0  0  0  0  0  0  0  0  0
   38.7690   23.0030   39.5710 H   0  0  0  0  0  0  0  0  0  0  0  0
   39.7340   22.8650   37.7390 C   0  0  0  0  0  0  0  0  0  0  0  0
   40.4780   22.1450   38.0590 H   0  0  0  0  0  0  0  0  0  0  0  0
   39.8660   23.2250   36.4210 C   0  0  0  0  0  3  0  0  0  0  0  0
  1  6  1  6  0  0  0
  1 11  1  0  0  0  0
  1  5  1  0  0  0  0
  2  7  1  6  0  0  0
  2 13  1  0  0  0  0
  2  3  1  0  0  0  0
  2  1  1  0  0  0  0
  3  4  1  0  0  0  0
  4  8  1  0  0  0  0
  4  5  1  0  0  0  0
  5 10  1  1  0  0  0
  5 23  1  0  0  0  0
  9  4  1  0  0  0  0
 11 12  1  0  0  0  0
 13 18  1  0  0  0  0
 14 20  1  0  0  0  0
 15 21  1  0  0  0  0
 15 14  2  0  0  0  0
 16 15  1  0  0  0  0
 17 16  2  0  0  0  0
 17 18  1  0  0  0  0
 18 19  2  0  0  0  0
 19 14  1  0  0  0  0
 22 16  1  0  0  0  0
 23 24  1  0  0  0  0
 24 32  2  0  0  0  0
 24 25  1  0  0  0  0
 25 27  2  0  0  0  0
 26 25  1  0  0  0  0
 27 28  1  0  0  0  0
 28 29  1  0  0  0  0
 30 31  1  0  0  0  0
 30 28  2  0  0  0  0
 32 30  1  0  0  0  0
M  END
>  <minimizedAffinity>
-5.1399827

$$$$

 OpenBabel03272506453D

 32 34  0  0  1  0  0  0  0  0999 V2000
   38.4450   23.1950   36.1160 C   0  0  2  0  0  0  0  0  0  0  0  0
   37.5970   24.3420   36.6410 C   0  0  1  0  0  0  0  0  0  0  0  0
   37.6500   24.3130   38.0040 O   0  0  0  0  0  0  0  0  0  0  0  0
   38.5880   23.3860   38.4010 C   0  0  0  0  0  0  0  0  0  0  0  0
   39.5180   23.1660   37.1940 C   0  0  1  0  0  0  0  0  0  0  0  0
   37.8790   22.2640   36.0890 H   0  0  0  0  0  0  0  0  0  0  0  0
   36.5740   24.3370   36.2090 H   0  0  0  0  0  0  0  0  0  0  0  0
   39.1840   23.7890   39.2700 H   0  0  0  0  0  0  0  0  0  0  0  0
   38.0980   22.4260   38.6630 H   0  0  0  0  0  0  0  0  0  0  0  0
   40.1530   24.0420   37.0950 H   0  0  0  0  0  0  0  0  0  0  0  0
   38.9930   23.5030   34.8620 O   0  0  0  0  0  0  0  0  0  0  0  0
   39.9120   23.8490   34.9520 H   0  0  0  0  0  0  0  0  0  0  0  0
   38.4010   25.8730   36.0730 S   0  0  0  0  0  0  0  0  0  0  0  0
   36.3160   28.2570   33.7000 C   0  0  0  0  0  0  0  0  0  0  0  0
   36.1820   27.5530   32.5000 C   0  0  0  0  0  0  0  0  0  0  0  0
   36.7630   26.2810   32.4230 C   0  0  0  0  0  0  0  0  0  0  0  0
   37.4180   25.8100   33.5100 N   0  0  0  0  0  0  0  0  0  0  0  0
   37.5340   26.5080   34.6530 C   0  0  0  0  0  0  0  0  0  0  0  0
   36.9870   27.7270   34.7530 N   0  0  0  0  0  0  0  0  0  0  0  0
   35.8620   29.2400   33.7430 H   0  0  0  0  0  0  0  0  0  0  0  0
   35.6590   27.9440   31.6510 H   0  0  0  0  0  0  0  0  0  0  0  0
   36.6870   25.6900   31.5120 H   0  0  0  0  0  0  0  0  0  0  0  0
   40.1340   21.9490   37.2990 O   0  0  0  0  0  0  0  0  0  0  0  0
   41.4600   21.7880   36.9420 C   0  0  0  0  0  0  0  0  0  0  0  0
   42.0100   23.0450   36.6560 C   0  0  0  0  0  0  0  0  0  0  0  0
   41.5170   24.0190   36.6940 H   0  0  0  0  0  0  0  0  0  0  0  0
   43.3360   23.1860   36.2670 C   0  0  0  0  0  3  0  0  0  0  0  0
   44.1430   22.0800   36.1540 C   0  0  0  0  0  0  0  0  0  0  0  0
   45.1810   22.0560   35.8640 H   0  0  0  0  0  0  0  0  0  0  0  0
   43.5930   20.8500   36.4380 C   0  0  0  0  0  0  0  0  0  0  0  0
   44.1370   19.9150   36.3820 H   0  0  0  0  0  0  0  0  0  0  0  0
   42.2850   20.6910   36.8230 C   0  0  0  0  0  3  0  0  0  0  0  0
  1  6  1  6  0  0  0
  1  2  1  0  0  0  0
  1  5  1  0  0  0  0
  2  7  1  6  0  0  0
  2  3  1  0  0  0  0
  3  4  1  0  0  0  0
  4  9  1  0  0  0  0
  4  8  1  0  0  0  0
  5 10  1  6  0  0  0
  5 23  1  0  0  0  0
  5  4  1  0  0  0  0
 11 12  1  0  0  0  0
 11  1  1  0  0  0  0
 13  2  1  0  0  0  0
 14 20  1  0  0  0  0
 14 19  1  0  0  0  0
 15 14  2  0  0  0  0
 16 15  1  0  0  0  0
 16 17  2  0  0  0  0
 17 18  1  0  0  0  0
 18 19  2  0  0  0  0
 18 13  1  0  0  0  0
 21 15  1  0  0  0  0
 22 16  1  0  0  0  0
 24 23  1  0  0  0  0
 25 26  1  0  0  0  0
 25 24  2  0  0  0  0
 27 25  1  0  0  0  0
 28 27  2  0  0  0  0
 28 30  1  0  0  0  0
 29 28  1  0  0  0  0
 30 32  2  0  0  0  0
 31 30  1  0  0  0  0
 32 24  1  0  0  0  0
M  END
>  <minimizedAffinity>
-4.92784309

$$$$

 OpenBabel03272506453D

 32 34  0  0  1  0  0  0  0  0999 V2000
   36.6280   29.0210   32.0790 C   0  0  2  0  0  0  0  0  0  0  0  0
   37.0290   27.5620   32.2140 C   0  0  1  0  0  0  0  0  0  0  0  0
   37.0160   27.2430   33.5410 O   0  0  0  0  0  0  0  0  0  0  0  0
   36.4700   28.2890   34.2510 C   0  0  0  0  0  0  0  0  0  0  0  0
   35.6540   29.1190   33.2440 C   0  0  1  0  0  0  0  0  0  0  0  0
   37.4840   29.6810   32.2170 H   0  0  0  0  0  0  0  0  0  0  0  0
   37.9800   27.3390   31.6860 H   0  0  0  0  0  0  0  0  0  0  0  0
   35.7880   27.8920   35.0560 H   0  0  0  0  0  0  0  0  0  0  0  0
   37.2710   28.9240   34.6830 H   0  0  0  0  0  0  0  0  0  0  0  0
   34.7500   28.5650   33.0060 H   0  0  0  0  0  0  0  0  0  0  0  0
   35.9830   29.2590   30.8570 O   0  0  0  0  0  0  0  0  0  0  0  0
   35.0030   29.2290   30.9610 H   0  0  0  0  0  0  0  0  0  0  0  0
   35.7280   26.5950   31.3840 S   0  0  0  0  0  0  0  0  0  0  0  0
   35.7130   22.6390   31.4180 C   0  0  0  0  0  0  0  0  0  0  0  0
   36.9960   22.2640   31.0070 C   0  0  0  0  0  0  0  0  0  0  0  0
   37.9070   23.2840   30.7060 C   0  0  0  0  0  0  0  0  0  0  0  0
   37.4940   24.5680   30.8300 N   0  0  0  0  0  0  0  0  0  0  0  0
   36.2550   24.9020   31.2270 C   0  0  0  0  0  0  0  0  0  0  0  0
   35.3640   23.9450   31.5210 N   0  0  0  0  0  0  0  0  0  0  0  0
   35.0200   21.8370   31.6450 H   0  0  0  0  0  0  0  0  0  0  0  0
   37.3020   21.2420   30.9150 H   0  0  0  0  0  0  0  0  0  0  0  0
   38.9190   23.0470   30.3820 H   0  0  0  0  0  0  0  0  0  0  0  0
   35.5060   30.3970   33.7080 O   0  0  0  0  0  0  0  0  0  0  0  0
   34.6730   30.6770   34.7750 C   0  0  0  0  0  0  0  0  0  0  0  0
   35.3380   31.5380   35.6580 C   0  0  0  0  0  0  0  0  0  0  0  0
   36.3460   31.9490   35.5650 H   0  0  0  0  0  0  0  0  0  0  0  0
   34.7350   31.9860   36.8260 C   0  0  0  0  0  3  0  0  0  0  0  0
   33.4580   31.5890   37.1410 C   0  0  0  0  0  0  0  0  0  0  0  0
   32.8840   31.8650   38.0110 H   0  0  0  0  0  0  0  0  0  0  0  0
   32.8140   30.7430   36.2660 C   0  0  0  0  0  0  0  0  0  0  0  0
   31.8090   30.3680   36.4150 H   0  0  0  0  0  0  0  0  0  0  0  0
   33.3930   30.2880   35.1080 C   0  0  0  0  0  3  0  0  0  0  0  0
  1  2  1  0  0  0  0
  1  6  1  1  0  0  0
  1  5  1  0  0  0  0
  2  7  1  6  0  0  0
  2  3  1  0  0  0  0
  3  4  1  0  0  0  0
  4  9  1  0  0  0  0
  4  8  1  0  0  0  0
  5 10  1  6  0  0  0
  5 23  1  0  0  0  0
  5  4  1  0  0  0  0
 11 12  1  0  0  0  0
 11  1  1  0  0  0  0
 13  2  1  0  0  0  0
 14 19  1  0  0  0  0
 14 20  1  0  0  0  0
 15 14  2  0  0  0  0
 16 17  2  0  0  0  0
 16 15  1  0  0  0  0
 17 18  1  0  0  0  0
 18 13  1  0  0  0  0
 18 19  2  0  0  0  0
 21 15  1  0  0  0  0
 22 16  1  0  0  0  0
 23 24  1  0  0  0  0
 24 32  2  0  0  0  0
 24 25  1  0  0  0  0
 25 27  2  0  0  0  0
 26 25  1  0  0  0  0
 27 28  1  0  0  0  0
 28 29  1  0  0  0  0
 30 31  1  0  0  0  0
 30 28  2  0  0  0  0
 32 30  1  0  0  0  0
M  END
>  <minimizedAffinity>
-4.88671589

$$$$

 OpenBabel03272506453D

 32 34  0  0  1  0  0  0  0  0999 V2000
   38.7180   26.6440   33.9720 C   0  0  2  0  0  0  0  0  0  0  0  0
   37.6420   27.3280   33.1450 C   0  0  1  0  0  0  0  0  0  0  0  0
   36.9410   26.3610   32.4840 O   0  0  0  0  0  0  0  0  0  0  0  0
   37.3350   25.1240   32.9440 C   0  0  0  0  0  0  0  0  0  0  0  0
   37.9830   25.3580   34.3200 C   0  0  1  0  0  0  0  0  0  0  0  0
   39.6080   26.4460   33.3750 H   0  0  0  0  0  0  0  0  0  0  0  0
   38.0560   28.1320   32.5020 H   0  0  0  0  0  0  0  0  0  0  0  0
   36.4370   24.4520   33.0570 H   0  0  0  0  0  0  0  0  0  0  0  0
   38.0850   24.6770   32.2590 H   0  0  0  0  0  0  0  0  0  0  0  0
   37.1910   25.5770   35.0310 H   0  0  0  0  0  0  0  0  0  0  0  0
   39.0200   27.3840   35.1240 O   0  0  0  0  0  0  0  0  0  0  0  0
   38.5190   27.0480   35.9030 H   0  0  0  0  0  0  0  0  0  0  0  0
   36.5190   28.1310   34.3330 S   0  0  0  0  0  0  0  0  0  0  0  0
   33.4800   30.5250   33.5010 C   0  0  0  0  0  0  0  0  0  0  0  0
   33.6980   30.9490   32.1860 C   0  0  0  0  0  0  0  0  0  0  0  0
   34.8380   30.4720   31.5280 C   0  0  0  0  0  0  0  0  0  0  0  0
   35.6590   29.6310   32.2000 N   0  0  0  0  0  0  0  0  0  0  0  0
   35.4280   29.2370   33.4640 C   0  0  0  0  0  0  0  0  0  0  0  0
   34.3440   29.6800   34.1160 N   0  0  0  0  0  0  0  0  0  0  0  0
   32.5940   30.9040   33.9960 H   0  0  0  0  0  0  0  0  0  0  0  0
   33.0350   31.6160   31.6730 H   0  0  0  0  0  0  0  0  0  0  0  0
   35.0540   30.7710   30.5040 H   0  0  0  0  0  0  0  0  0  0  0  0
   38.8290   24.3250   34.6160 O   0  0  0  0  0  0  0  0  0  0  0  0
   39.0020   23.8960   35.9180 C   0  0  0  0  0  0  0  0  0  0  0  0
   37.9590   24.4010   36.7060 C   0  0  0  0  0  0  0  0  0  0  0  0
   37.1250   25.0330   36.3920 H   0  0  0  0  0  0  0  0  0  0  0  0
   37.8780   24.1280   38.0660 C   0  0  0  0  0  3  0  0  0  0  0  0
   38.8320   23.3470   38.6710 C   0  0  0  0  0  0  0  0  0  0  0  0
   38.8810   23.0640   39.7100 H   0  0  0  0  0  0  0  0  0  0  0  0
   39.8520   22.8550   37.8880 C   0  0  0  0  0  0  0  0  0  0  0  0
   40.6550   22.2300   38.2600 H   0  0  0  0  0  0  0  0  0  0  0  0
   39.9500   23.1140   36.5430 C   0  0  0  0  0  3  0  0  0  0  0  0
  1  6  1  6  0  0  0
  1  5  1  0  0  0  0
  1 11  1  0  0  0  0
  2  7  1  6  0  0  0
  2  1  1  0  0  0  0
  2 13  1  0  0  0  0
  3  4  1  0  0  0  0
  3  2  1  0  0  0  0
  4  8  1  0  0  0  0
  4  5  1  0  0  0  0
  5 23  1  0  0  0  0
  5 10  1  1  0  0  0
  9  4  1  0  0  0  0
 11 12  1  0  0  0  0
 14 20  1  0  0  0  0
 14 19  1  0  0  0  0
 15 14  2  0  0  0  0
 16 15  1  0  0  0  0
 16 17  2  0  0  0  0
 17 18  1  0  0  0  0
 18 19  2  0  0  0  0
 18 13  1  0  0  0  0
 21 15  1  0  0  0  0
 22 16  1  0  0  0  0
 23 24  1  0  0  0  0
 24 32  2  0  0  0  0
 24 25  1  0  0  0  0
 25 27  2  0  0  0  0
 26 25  1  0  0  0  0
 27 28  1  0  0  0  0
 28 29  1  0  0  0  0
 30 31  1  0  0  0  0
 30 28  2  0  0  0  0
 32 30  1  0  0  0  0
M  END
>  <minimizedAffinity>
-4.86053896

$$$$

 OpenBabel03272506453D

 32 34  0  0  1  0  0  0  0  0999 V2000
   37.1230   24.4250   30.9400 C   0  0  2  0  0  0  0  0  0  0  0  0
   36.8420   25.8500   31.3850 C   0  0  1  0  0  0  0  0  0  0  0  0
   35.5010   26.0710   31.2640 O   0  0  0  0  0  0  0  0  0  0  0  0
   34.8720   24.8830   30.9660 C   0  0  0  0  0  0  0  0  0  0  0  0
   35.8330   23.7620   31.3990 C   0  0  1  0  0  0  0  0  0  0  0  0
   37.2400   24.3640   29.8580 H   0  0  0  0  0  0  0  0  0  0  0  0
   37.4900   26.5860   30.8660 H   0  0  0  0  0  0  0  0  0  0  0  0
   33.9080   24.8020   31.5450 H   0  0  0  0  0  0  0  0  0  0  0  0
   34.6900   24.8050   29.8740 H   0  0  0  0  0  0  0  0  0  0  0  0
   35.8220   23.7100   32.4850 H   0  0  0  0  0  0  0  0  0  0  0  0
   38.2350   23.8930   31.6100 O   0  0  0  0  0  0  0  0  0  0  0  0
   37.9560   23.3580   32.3900 H   0  0  0  0  0  0  0  0  0  0  0  0
   37.2740   25.9260   33.1530 S   0  0  0  0  0  0  0  0  0  0  0  0
   40.8250   26.6670   34.7330 C   0  0  0  0  0  0  0  0  0  0  0  0
   41.6060   27.1390   33.6740 C   0  0  0  0  0  0  0  0  0  0  0  0
   41.0050   27.2320   32.4120 C   0  0  0  0  0  0  0  0  0  0  0  0
   39.7080   26.8620   32.2930 N   0  0  0  0  0  0  0  0  0  0  0  0
   38.9780   26.4100   33.3280 C   0  0  0  0  0  0  0  0  0  0  0  0
   39.5300   26.3110   34.5450 N   0  0  0  0  0  0  0  0  0  0  0  0
   41.3060   26.6000   35.7020 H   0  0  0  0  0  0  0  0  0  0  0  0
   42.6310   27.4270   33.7890 H   0  0  0  0  0  0  0  0  0  0  0  0
   41.5670   27.5940   31.5540 H   0  0  0  0  0  0  0  0  0  0  0  0
   35.5490   22.6140   30.7100 O   0  0  0  0  0  0  0  0  0  0  0  0
   35.6380   21.3770   31.3190 C   0  0  0  0  0  0  0  0  0  0  0  0
   35.3920   21.5250   32.6900 C   0  0  0  0  0  0  0  0  0  0  0  0
   35.1630   22.4430   33.2370 H   0  0  0  0  0  0  0  0  0  0  0  0
   35.4180   20.4380   33.5540 C   0  0  0  0  0  3  0  0  0  0  0  0
   35.6870   19.1800   33.0730 C   0  0  0  0  0  0  0  0  0  0  0  0
   35.7360   18.2620   33.6360 H   0  0  0  0  0  0  0  0  0  0  0  0
   35.9270   19.0450   31.7240 C   0  0  0  0  0  0  0  0  0  0  0  0
   36.1500   18.1030   31.2380 H   0  0  0  0  0  0  0  0  0  0  0  0
   35.9080   20.1070   30.8540 C   0  0  0  0  0  3  0  0  0  0  0  0
  1  6  1  6  0  0  0
  1  2  1  0  0  0  0
  1  5  1  0  0  0  0
  1 11  1  0  0  0  0
  2  7  1  6  0  0  0
  2 13  1  0  0  0  0
  3  2  1  0  0  0  0
  4  3  1  0  0  0  0
  4  5  1  0  0  0  0
  4  8  1  0  0  0  0
  5 10  1  1  0  0  0
  9  4  1  0  0  0  0
 11 12  1  0  0  0  0
 13 18  1  0  0  0  0
 14 20  1  0  0  0  0
 15 21  1  0  0  0  0
 15 14  2  0  0  0  0
 16 15  1  0  0  0  0
 17 16  2  0  0  0  0
 17 18  1  0  0  0  0
 18 19  2  0  0  0  0
 19 14  1  0  0  0  0
 22 16  1  0  0  0  0
 23 24  1  0  0  0  0
 23  5  1  0  0  0  0
 24 25  1  0  0  0  0
 25 26  1  0  0  0  0
 25 27  2  0  0  0  0
 28 27  1  0  0  0  0
 28 29  1  0  0  0  0
 30 28  2  0  0  0  0
 31 30  1  0  0  0  0
 32 24  2  0  0  0  0
 32 30  1  0  0  0  0
M  END
>  <minimizedAffinity>
-4.81409502

$$$$

 OpenBabel03272506453D

 32 34  0  0  1  0  0  0  0  0999 V2000
   37.6810   23.9590   30.4220 C   0  0  2  0  0  0  0  0  0  0  0  0
   38.1720   25.2850   30.9800 C   0  0  1  0  0  0  0  0  0  0  0  0
   37.1340   25.8700   31.6460 O   0  0  0  0  0  0  0  0  0  0  0  0
   36.0900   24.9770   31.7290 C   0  0  0  0  0  0  0  0  0  0  0  0
   36.6960   23.5780   31.5170 C   0  0  1  0  0  0  0  0  0  0  0  0
   37.1810   24.0950   29.4630 H   0  0  0  0  0  0  0  0  0  0  0  0
   38.6490   25.9160   30.2020 H   0  0  0  0  0  0  0  0  0  0  0  0
   35.6160   25.0340   32.7510 H   0  0  0  0  0  0  0  0  0  0  0  0
   35.3440   25.1760   30.9310 H   0  0  0  0  0  0  0  0  0  0  0  0
   37.2430   23.3090   32.4160 H   0  0  0  0  0  0  0  0  0  0  0  0
   38.7260   23.0280   30.3330 O   0  0  0  0  0  0  0  0  0  0  0  0
   38.7430   22.4370   31.1210 H   0  0  0  0  0  0  0  0  0  0  0  0
   39.4680   24.8790   32.1930 S   0  0  0  0  0  0  0  0  0  0  0  0
   39.0190   27.2570   35.3250 C   0  0  0  0  0  0  0  0  0  0  0  0
   38.2950   26.5040   36.2540 C   0  0  0  0  0  0  0  0  0  0  0  0
   37.9290   25.2010   35.8950 C   0  0  0  0  0  0  0  0  0  0  0  0
   38.2980   24.7480   34.6740 N   0  0  0  0  0  0  0  0  0  0  0  0
   38.9940   25.4910   33.7970 C   0  0  0  0  0  0  0  0  0  0  0  0
   39.3550   26.7410   34.1160 N   0  0  0  0  0  0  0  0  0  0  0  0
   39.2930   28.2630   35.6180 H   0  0  0  0  0  0  0  0  0  0  0  0
   38.0140   26.8820   37.2160 H   0  0  0  0  0  0  0  0  0  0  0  0
   37.3660   24.5730   36.5820 H   0  0  0  0  0  0  0  0  0  0  0  0
   35.7280   22.7130   31.0840 O   0  0  0  0  0  0  0  0  0  0  0  0
   35.7810   21.3690   31.3990 C   0  0  0  0  0  0  0  0  0  0  0  0
   35.3970   21.1990   32.7360 C   0  0  0  0  0  0  0  0  0  0  0  0
   35.0970   21.9670   33.4520 H   0  0  0  0  0  0  0  0  0  0  0  0
   35.3590   19.9420   33.3260 C   0  0  0  0  0  3  0  0  0  0  0  0
   35.7010   18.8270   32.6000 C   0  0  0  0  0  0  0  0  0  0  0  0
   35.7120   17.8040   32.9390 H   0  0  0  0  0  0  0  0  0  0  0  0
   36.0760   19.0060   31.2870 C   0  0  0  0  0  0  0  0  0  0  0  0
   36.3650   18.1990   30.6240 H   0  0  0  0  0  0  0  0  0  0  0  0
   36.1220   20.2390   30.6860 C   0  0  0  0  0  3  0  0  0  0  0  0
  1  6  1  6  0  0  0
  1  2  1  0  0  0  0
  1  5  1  0  0  0  0
  2  7  1  6  0  0  0
  2  3  1  0  0  0  0
  2 13  1  0  0  0  0
  3  4  1  0  0  0  0
  4  8  1  0  0  0  0
  5  4  1  0  0  0  0
  5 10  1  1  0  0  0
  9  4  1  0  0  0  0
 11  1  1  0  0  0  0
 11 12  1  0  0  0  0
 13 18  1  0  0  0  0
 14 20  1  0  0  0  0
 14 15  1  0  0  0  0
 15 21  1  0  0  0  0
 16 15  2  0  0  0  0
 16 22  1  0  0  0  0
 17 16  1  0  0  0  0
 18 19  1  0  0  0  0
 18 17  2  0  0  0  0
 19 14  2  0  0  0  0
 23 24  1  0  0  0  0
 23  5  1  0  0  0  0
 24 25  1  0  0  0  0
 25 27  2  0  0  0  0
 25 26  1  0  0  0  0
 28 29  1  0  0  0  0
 28 27  1  0  0  0  0
 30 28  2  0  0  0  0
 31 30  1  0  0  0  0
 32 30  1  0  0  0  0
 32 24  2  0  0  0  0
M  END
>  <minimizedAffinity>
-4.78912544

$$$$

 OpenBabel03272506453D

 32 34  0  0  1  0  0  0  0  0999 V2000
   38.5010   24.4980   32.2240 C   0  0  2  0  0  0  0  0  0  0  0  0
   39.3230   23.7320   33.2470 C   0  0  1  0  0  0  0  0  0  0  0  0
   39.9340   24.6400   34.0620 O   0  0  0  0  0  0  0  0  0  0  0  0
   39.4430   25.8970   33.7850 C   0  0  0  0  0  0  0  0  0  0  0  0
   38.0920   25.6900   33.0780 C   0  0  1  0  0  0  0  0  0  0  0  0
   39.1130   24.8060   31.3760 H   0  0  0  0  0  0  0  0  0  0  0  0
   40.0030   22.9950   32.7700 H   0  0  0  0  0  0  0  0  0  0  0  0
   39.2850   26.4680   34.7440 H   0  0  0  0  0  0  0  0  0  0  0  0
   40.1310   26.4410   33.1050 H   0  0  0  0  0  0  0  0  0  0  0  0
   37.3690   25.3680   33.8220 H   0  0  0  0  0  0  0  0  0  0  0  0
   37.3830   23.7580   31.8140 O   0  0  0  0  0  0  0  0  0  0  0  0
   36.5800   24.0170   32.3250 H   0  0  0  0  0  0  0  0  0  0  0  0
   38.1350   22.7800   34.2460 S   0  0  0  0  0  0  0  0  0  0  0  0
   39.8100   22.7020   37.8300 C   0  0  0  0  0  0  0  0  0  0  0  0
   38.9820   23.4860   38.6380 C   0  0  0  0  0  0  0  0  0  0  0  0
   37.8530   24.0660   38.0460 C   0  0  0  0  0  0  0  0  0  0  0  0
   37.6300   23.8320   36.7310 N   0  0  0  0  0  0  0  0  0  0  0  0
   38.4430   23.0740   35.9750 C   0  0  0  0  0  0  0  0  0  0  0  0
   39.5290   22.5090   36.5180 N   0  0  0  0  0  0  0  0  0  0  0  0
   40.6800   22.2620   38.3040 H   0  0  0  0  0  0  0  0  0  0  0  0
   39.1760   23.6580   39.6770 H   0  0  0  0  0  0  0  0  0  0  0  0
   37.1750   24.6850   38.6300 H   0  0  0  0  0  0  0  0  0  0  0  0
   37.7820   26.7960   32.3340 O   0  0  0  0  0  0  0  0  0  0  0  0
   37.0250   27.8220   32.8650 C   0  0  0  0  0  0  0  0  0  0  0  0
   36.7630   28.7620   31.8590 C   0  0  0  0  0  0  0  0  0  0  0  0
   37.0800   28.7340   30.8140 H   0  0  0  0  0  0  0  0  0  0  0  0
   36.0180   29.9070   32.1110 C   0  0  0  0  0  3  0  0  0  0  0  0
   35.5170   30.1420   33.3690 C   0  0  0  0  0  0  0  0  0  0  0  0
   34.9290   30.9860   33.6900 H   0  0  0  0  0  0  0  0  0  0  0  0
   35.7810   29.2130   34.3500 C   0  0  0  0  0  0  0  0  0  0  0  0
   35.4360   29.2970   35.3730 H   0  0  0  0  0  0  0  0  0  0  0  0
   36.5160   28.0760   34.1210 C   0  0  0  0  0  3  0  0  0  0  0  0
  1  6  1  6  0  0  0
  1  5  1  0  0  0  0
  1  2  1  0  0  0  0
  2  7  1  6  0  0  0
  2  3  1  0  0  0  0
  2 13  1  0  0  0  0
  4  3  1  0  0  0  0
  4  8  1  0  0  0  0
  5  4  1  0  0  0  0
  5 10  1  1  0  0  0
  9  4  1  0  0  0  0
 11  1  1  0  0  0  0
 11 12  1  0  0  0  0
 13 18  1  0  0  0  0
 14 20  1  0  0  0  0
 14 15  1  0  0  0  0
 15 21  1  0  0  0  0
 16 22  1  0  0  0  0
 16 15  2  0  0  0  0
 17 16  1  0  0  0  0
 18 19  1  0  0  0  0
 18 17  2  0  0  0  0
 19 14  2  0  0  0  0
 23 24  1  0  0  0  0
 23  5  1  0  0  0  0
 24 32  1  0  0  0  0
 25 27  1  0  0  0  0
 25 24  2  0  0  0  0
 26 25  1  0  0  0  0
 27 28  2  0  0  0  0
 28 29  1  0  0  0  0
 28 30  1  0  0  0  0
 30 31  1  0  0  0  0
 32 30  2  0  0  0  0
M  END
>  <minimizedAffinity>
-4.71663332

$$$$

 OpenBabel03272506453D

 32 34  0  0  1  0  0  0  0  0999 V2000
   40.2720   26.7380   34.5200 C   0  0  2  0  0  0  0  0  0  0  0  0
   39.4100   26.9020   33.2800 C   0  0  1  0  0  0  0  0  0  0  0  0
   39.7690   25.9330   32.3880 O   0  0  0  0  0  0  0  0  0  0  0  0
   40.6370   25.0550   32.9990 C   0  0  0  0  0  0  0  0  0  0  0  0
   40.4300   25.2250   34.5150 C   0  0  1  0  0  0  0  0  0  0  0  0
   41.2320   27.2410   34.4040 H   0  0  0  0  0  0  0  0  0  0  0  0
   39.4380   27.9390   32.8850 H   0  0  0  0  0  0  0  0  0  0  0  0
   40.3890   23.9970   32.6990 H   0  0  0  0  0  0  0  0  0  0  0  0
   41.6870   25.3080   32.7440 H   0  0  0  0  0  0  0  0  0  0  0  0
   39.4830   24.7630   34.7790 H   0  0  0  0  0  0  0  0  0  0  0  0
   39.5960   27.1740   35.6690 O   0  0  0  0  0  0  0  0  0  0  0  0
   39.1680   26.4190   36.1370 H   0  0  0  0  0  0  0  0  0  0  0  0
   37.6950   26.5850   33.8040 S   0  0  0  0  0  0  0  0  0  0  0  0
   35.5460   24.8430   30.9750 C   0  0  0  0  0  0  0  0  0  0  0  0
   35.8200   23.4780   31.0950 C   0  0  0  0  0  0  0  0  0  0  0  0
   36.7120   23.0780   32.0980 C   0  0  0  0  0  0  0  0  0  0  0  0
   37.2530   24.0340   32.8900 N   0  0  0  0  0  0  0  0  0  0  0  0
   36.9730   25.3410   32.7540 C   0  0  0  0  0  0  0  0  0  0  0  0
   36.1230   25.7490   31.8020 N   0  0  0  0  0  0  0  0  0  0  0  0
   34.8550   25.1350   30.1930 H   0  0  0  0  0  0  0  0  0  0  0  0
   35.3810   22.7380   30.4580 H   0  0  0  0  0  0  0  0  0  0  0  0
   36.9600   22.0270   32.2350 H   0  0  0  0  0  0  0  0  0  0  0  0
   41.5460   24.8040   35.1850 O   0  0  0  0  0  0  0  0  0  0  0  0
   41.5360   23.6340   35.9210 C   0  0  0  0  0  0  0  0  0  0  0  0
   42.7900   23.0180   35.8120 C   0  0  0  0  0  0  0  0  0  0  0  0
   43.6630   23.3630   35.2520 H   0  0  0  0  0  0  0  0  0  0  0  0
   43.0670   21.8170   36.4530 C   0  0  0  0  0  3  0  0  0  0  0  0
   42.1040   21.2040   37.2160 C   0  0  0  0  0  0  0  0  0  0  0  0
   42.1930   20.2770   37.7600 H   0  0  0  0  0  0  0  0  0  0  0  0
   40.8760   21.8170   37.3170 C   0  0  0  0  0  0  0  0  0  0  0  0
   40.0450   21.4230   37.8910 H   0  0  0  0  0  0  0  0  0  0  0  0
   40.5820   23.0030   36.6900 C   0  0  0  0  0  3  0  0  0  0  0  0
  1  6  1  6  0  0  0
  1 11  1  0  0  0  0
  2  7  1  6  0  0  0
  2 13  1  0  0  0  0
  2  1  1  0  0  0  0
  3  4  1  0  0  0  0
  3  2  1  0  0  0  0
  4  5  1  0  0  0  0
  5  1  1  0  0  0  0
  5 10  1  1  0  0  0
  5 23  1  0  0  0  0
  8  4  1  0  0  0  0
  9  4  1  0  0  0  0
 11 12  1  0  0  0  0
 14 15  2  0  0  0  0
 14 19  1  0  0  0  0
 15 16  1  0  0  0  0
 16 22  1  0  0  0  0
 16 17  2  0  0  0  0
 18 17  1  0  0  0  0
 18 13  1  0  0  0  0
 19 18  2  0  0  0  0
 20 14  1  0  0  0  0
 21 15  1  0  0  0  0
 23 24  1  0  0  0  0
 24 32  1  0  0  0  0
 25 24  2  0  0  0  0
 25 27  1  0  0  0  0
 26 25  1  0  0  0  0
 27 28  2  0  0  0  0
 28 30  1  0  0  0  0
 28 29  1  0  0  0  0
 30 31  1  0  0  0  0
 32 30  2  0  0  0  0
M  END
>  <minimizedAffinity>
-4.62942266

$$$$

 OpenBabel03272506453D

 32 34  0  0  1  0  0  0  0  0999 V2000
   37.3630   24.5400   31.2270 C   0  0  2  0  0  0  0  0  0  0  0  0
   37.8220   23.4060   30.3250 C   0  0  1  0  0  0  0  0  0  0  0  0
   38.8340   23.8770   29.5400 O   0  0  0  0  0  0  0  0  0  0  0  0
   39.1950   25.1340   29.9740 C   0  0  0  0  0  0  0  0  0  0  0  0
   38.6930   25.2540   31.4230 C   0  0  1  0  0  0  0  0  0  0  0  0
   36.6370   25.1780   30.7230 H   0  0  0  0  0  0  0  0  0  0  0  0
   36.9770   22.9420   29.7750 H   0  0  0  0  0  0  0  0  0  0  0  0
   40.3170   25.2410   29.9510 H   0  0  0  0  0  0  0  0  0  0  0  0
   38.7060   25.9130   29.3520 H   0  0  0  0  0  0  0  0  0  0  0  0
   39.3370   24.6480   32.0540 H   0  0  0  0  0  0  0  0  0  0  0  0
   36.8650   24.0510   32.4430 O   0  0  0  0  0  0  0  0  0  0  0  0
   37.5580   24.0700   33.1440 H   0  0  0  0  0  0  0  0  0  0  0  0
   38.5030   22.1240   31.4240 S   0  0  0  0  0  0  0  0  0  0  0  0
   35.6080   20.2080   33.3230 C   0  0  0  0  0  0  0  0  0  0  0  0
   35.2570   19.1480   32.4810 C   0  0  0  0  0  0  0  0  0  0  0  0
   35.9480   19.0220   31.2700 C   0  0  0  0  0  0  0  0  0  0  0  0
   36.9130   19.9290   30.9870 N   0  0  0  0  0  0  0  0  0  0  0  0
   37.2320   20.9390   31.8130 C   0  0  0  0  0  0  0  0  0  0  0  0
   36.5850   21.0820   32.9780 N   0  0  0  0  0  0  0  0  0  0  0  0
   35.0630   20.2920   34.2560 H   0  0  0  0  0  0  0  0  0  0  0  0
   34.4900   18.4420   32.7240 H   0  0  0  0  0  0  0  0  0  0  0  0
   35.7140   18.2150   30.5790 H   0  0  0  0  0  0  0  0  0  0  0  0
   38.5440   26.5730   31.7550 O   0  0  0  0  0  0  0  0  0  0  0  0
   38.2840   26.9550   33.0570 C   0  0  0  0  0  0  0  0  0  0  0  0
   39.4140   26.6930   33.8430 C   0  0  0  0  0  0  0  0  0  0  0  0
   40.3660   26.2600   33.5280 H   0  0  0  0  0  0  0  0  0  0  0  0
   39.4350   26.9790   35.2020 C   0  0  0  0  0  3  0  0  0  0  0  0
   38.3330   27.5320   35.8090 C   0  0  0  0  0  0  0  0  0  0  0  0
   38.2250   27.7990   36.8480 H   0  0  0  0  0  0  0  0  0  0  0  0
   37.2290   27.7860   35.0270 C   0  0  0  0  0  0  0  0  0  0  0  0
   36.3090   28.2200   35.4000 H   0  0  0  0  0  0  0  0  0  0  0  0
   37.1880   27.5100   33.6830 C   0  0  0  0  0  3  0  0  0  0  0  0
  1  6  1  6  0  0  0
  1  5  1  0  0  0  0
  1 11  1  0  0  0  0
  2  7  1  6  0  0  0
  2  1  1  0  0  0  0
  2 13  1  0  0  0  0
  3  4  1  0  0  0  0
  3  2  1  0  0  0  0
  4  5  1  0  0  0  0
  5 23  1  0  0  0  0
  5 10  1  1  0  0  0
  8  4  1  0  0  0  0
  9  4  1  0  0  0  0
 11 12  1  0  0  0  0
 13 18  1  0  0  0  0
 14 20  1  0  0  0  0
 15 21  1  0  0  0  0
 15 14  2  0  0  0  0
 16 15  1  0  0  0  0
 17 16  2  0  0  0  0
 17 18  1  0  0  0  0
 18 19  2  0  0  0  0
 19 14  1  0  0  0  0
 22 16  1  0  0  0  0
 23 24  1  0  0  0  0
 24 32  2  0  0  0  0
 24 25  1  0  0  0  0
 25 27  2  0  0  0  0
 26 25  1  0  0  0  0
 27 28  1  0  0  0  0
 28 29  1  0  0  0  0
 30 31  1  0  0  0  0
 30 28  2  0  0  0  0
 32 30  1  0  0  0  0
M  END
>  <minimizedAffinity>
-4.60676527

$$$$
