
 OpenBabel03272507533D

 32 34  0  0  0  0  0  0  0  0999 V2000
   38.7100   22.5820   33.9940 N   0  0  0  0  0  0  0  0  0  0  0  0
   37.8180   21.6630   33.5760 C   0  0  0  0  0  0  0  0  0  0  0  0
   36.8240   22.0420   32.6750 C   0  0  0  0  0  0  0  0  0  0  0  0
   36.8610   23.3600   32.2950 C   0  0  0  0  0  0  0  0  0  0  0  0
   35.9400   23.6690   31.4740 O   0  0  0  0  0  0  0  0  0  0  0  0
   37.7260   24.2920   32.6870 N   0  0  0  0  0  0  0  0  0  0  0  0
   38.6670   23.8640   33.5620 C   0  0  0  0  0  0  0  0  0  0  0  0
   39.5070   24.7320   33.9540 O   0  0  0  0  0  0  0  0  0  0  0  0
   37.9160   20.6560   33.9660 H   0  0  0  0  0  0  0  0  0  0  0  0
   36.1130   21.3250   32.3380 H   0  0  0  0  0  0  0  0  0  0  0  0
   37.6740   25.6390   32.2280 C   0  0  0  0  0  0  0  0  0  0  0  0
   38.2840   26.1440   31.0940 C   0  0  0  0  0  0  0  0  0  0  0  0
   38.8440   25.4480   30.5110 H   0  0  0  0  0  0  0  0  0  0  0  0
   38.1380   27.4920   30.7790 C   0  0  0  0  0  3  0  0  0  0  0  0
   37.3990   28.3660   31.5650 C   0  0  0  0  0  0  0  0  0  0  0  0
   37.3120   29.4090   31.2850 H   0  0  0  0  0  0  0  0  0  0  0  0
   36.8010   27.8330   32.6930 C   0  0  0  0  0  0  0  0  0  0  0  0
   36.2380   28.5740   33.2630 H   0  0  0  0  0  0  0  0  0  0  0  0
   36.9330   26.4860   33.0270 C   0  0  0  0  0  3  0  0  0  0  0  0
   39.4360   22.3060   36.2860 C   0  0  0  0  0  0  0  0  0  0  0  0
   39.7560   22.2590   34.9230 C   0  0  0  0  0  0  0  0  0  0  0  0
   41.0540   21.9080   34.5470 C   0  0  0  0  0  0  0  0  0  0  0  0
   41.9450   21.6270   35.5220 N   0  0  0  0  0  0  0  0  0  0  0  0
   41.6450   21.6710   36.8100 C   0  0  0  0  0  0  0  0  0  0  0  0
   40.3990   22.0080   37.1990 N   0  0  0  0  0  0  0  0  0  0  0  0
   41.2670   21.8820   33.4900 H   0  0  0  0  0  0  0  0  0  0  0  0
   42.3590   21.4460   37.5950 H   0  0  0  0  0  0  0  0  0  0  0  0
   37.5750   23.8860   37.1890 C   0  0  0  0  0  0  0  0  0  0  0  0
   38.1490   24.9760   37.0080 O   0  0  0  0  0  0  0  0  0  0  0  0
   38.1540   22.6340   36.7900 N   0  0  0  0  0  0  0  0  0  0  0  0
   36.6370   23.9980   37.6610 H   0  0  0  0  0  0  0  0  0  0  0  0
   37.4420   21.8660   36.9180 H   0  0  0  0  0  0  0  0  0  0  0  0
  1 21  1  0  0  0  0
  2  9  1  0  0  0  0
  2  1  1  0  0  0  0
  3  2  2  0  0  0  0
  4  3  1  0  0  0  0
  4  6  1  0  0  0  0
  5  4  2  0  0  0  0
  6  7  1  0  0  0  0
  7  8  2  0  0  0  0
  7  1  1  0  0  0  0
 10  3  1  0  0  0  0
 11  6  1  0  0  0  0
 11 19  1  0  0  0  0
 12 11  2  0  0  0  0
 13 12  1  0  0  0  0
 14 12  1  0  0  0  0
 14 15  2  0  0  0  0
 15 17  1  0  0  0  0
 16 15  1  0  0  0  0
 17 19  2  0  0  0  0
 17 18  1  0  0  0  0
 20 30  1  0  0  0  0
 20 25  1  0  0  0  0
 21 20  2  0  0  0  0
 22 21  1  0  0  0  0
 22 23  2  0  0  0  0
 23 24  1  0  0  0  0
 24 25  2  0  0  0  0
 24 27  1  0  0  0  0
 26 22  1  0  0  0  0
 28 31  1  0  0  0  0
 29 28  2  0  0  0  0
 30 32  1  0  0  0  0
 30 28  1  0  0  0  0
M  END
>  <minimizedAffinity>
-5.21643734

$$$$

 OpenBabel03272507533D

 32 34  0  0  0  0  0  0  0  0999 V2000
   38.1910   24.0200   34.6830 N   0  0  0  0  0  0  0  0  0  0  0  0
   38.2620   25.2590   34.1560 C   0  0  0  0  0  0  0  0  0  0  0  0
   38.0270   25.4290   32.7920 C   0  0  0  0  0  0  0  0  0  0  0  0
   37.7390   24.2760   32.1060 C   0  0  0  0  0  0  0  0  0  0  0  0
   37.5320   24.4710   30.8670 O   0  0  0  0  0  0  0  0  0  0  0  0
   37.6620   23.0420   32.5950 N   0  0  0  0  0  0  0  0  0  0  0  0
   37.8990   22.9390   33.9250 C   0  0  0  0  0  0  0  0  0  0  0  0
   37.8320   21.7710   34.4190 O   0  0  0  0  0  0  0  0  0  0  0  0
   38.5000   26.0760   34.8270 H   0  0  0  0  0  0  0  0  0  0  0  0
   38.0810   26.4030   32.3640 H   0  0  0  0  0  0  0  0  0  0  0  0
   37.3540   21.9070   31.7900 C   0  0  0  0  0  0  0  0  0  0  0  0
   38.2490   21.1640   31.0430 C   0  0  0  0  0  0  0  0  0  0  0  0
   39.2680   21.4770   31.0800 H   0  0  0  0  0  0  0  0  0  0  0  0
   37.7890   20.0770   30.3050 C   0  0  0  0  0  3  0  0  0  0  0  0
   36.4520   19.7010   30.2830 C   0  0  0  0  0  0  0  0  0  0  0  0
   36.1360   18.8490   29.6940 H   0  0  0  0  0  0  0  0  0  0  0  0
   35.5810   20.4630   31.0390 C   0  0  0  0  0  0  0  0  0  0  0  0
   34.5490   20.1140   30.9770 H   0  0  0  0  0  0  0  0  0  0  0  0
   36.0190   21.5560   31.7870 C   0  0  0  0  0  3  0  0  0  0  0  0
   39.6640   23.2240   36.4310 C   0  0  0  0  0  0  0  0  0  0  0  0
   38.4250   23.7740   36.0780 C   0  0  0  0  0  0  0  0  0  0  0  0
   37.4970   24.0470   37.0850 C   0  0  0  0  0  0  0  0  0  0  0  0
   37.8410   23.7680   38.3610 N   0  0  0  0  0  0  0  0  0  0  0  0
   39.0120   23.2490   38.6960 C   0  0  0  0  0  0  0  0  0  0  0  0
   39.9240   22.9750   37.7420 N   0  0  0  0  0  0  0  0  0  0  0  0
   36.5530   24.4700   36.7800 H   0  0  0  0  0  0  0  0  0  0  0  0
   39.2910   23.0230   39.7200 H   0  0  0  0  0  0  0  0  0  0  0  0
   41.6880   23.7360   34.8770 C   0  0  0  0  0  0  0  0  0  0  0  0
   41.8760   24.9240   35.1980 O   0  0  0  0  0  0  0  0  0  0  0  0
   40.6890   22.9170   35.5040 N   0  0  0  0  0  0  0  0  0  0  0  0
   42.3380   23.4190   34.1080 H   0  0  0  0  0  0  0  0  0  0  0  0
   40.7980   21.9210   35.1720 H   0  0  0  0  0  0  0  0  0  0  0  0
  1 21  1  0  0  0  0
  2  1  1  0  0  0  0
  2  9  1  0  0  0  0
  3  2  2  0  0  0  0
  4  6  1  0  0  0  0
  4  3  1  0  0  0  0
  5  4  2  0  0  0  0
  6  7  1  0  0  0  0
  7  8  2  0  0  0  0
  7  1  1  0  0  0  0
 10  3  1  0  0  0  0
 11  6  1  0  0  0  0
 12 13  1  0  0  0  0
 12 11  2  0  0  0  0
 14 12  1  0  0  0  0
 15 14  2  0  0  0  0
 15 17  1  0  0  0  0
 16 15  1  0  0  0  0
 17 19  2  0  0  0  0
 18 17  1  0  0  0  0
 19 11  1  0  0  0  0
 20 25  1  0  0  0  0
 21 20  2  0  0  0  0
 21 22  1  0  0  0  0
 22 23  2  0  0  0  0
 23 24  1  0  0  0  0
 24 27  1  0  0  0  0
 25 24  2  0  0  0  0
 26 22  1  0  0  0  0
 28 29  2  0  0  0  0
 28 30  1  0  0  0  0
 30 20  1  0  0  0  0
 31 28  1  0  0  0  0
 32 30  1  0  0  0  0
M  END
>  <minimizedAffinity>
-5.17078352

$$$$

 OpenBabel03272507533D

 32 34  0  0  0  0  0  0  0  0999 V2000
   39.1700   23.7940   34.2520 N   0  0  0  0  0  0  0  0  0  0  0  0
   38.7250   25.0500   34.0490 C   0  0  0  0  0  0  0  0  0  0  0  0
   37.6220   25.2530   33.2200 C   0  0  0  0  0  0  0  0  0  0  0  0
   37.0880   24.1110   32.6780 C   0  0  0  0  0  0  0  0  0  0  0  0
   36.0850   24.3350   31.9280 O   0  0  0  0  0  0  0  0  0  0  0  0
   37.5020   22.8600   32.8580 N   0  0  0  0  0  0  0  0  0  0  0  0
   38.5760   22.7260   33.6730 C   0  0  0  0  0  0  0  0  0  0  0  0
   38.9930   21.5420   33.8620 O   0  0  0  0  0  0  0  0  0  0  0  0
   39.2520   25.8550   34.5470 H   0  0  0  0  0  0  0  0  0  0  0  0
   37.2620   26.2410   33.0510 H   0  0  0  0  0  0  0  0  0  0  0  0
   36.8710   21.7390   32.2450 C   0  0  0  0  0  0  0  0  0  0  0  0
   37.1740   21.2030   31.0060 C   0  0  0  0  0  0  0  0  0  0  0  0
   37.9600   21.6810   30.4650 H   0  0  0  0  0  0  0  0  0  0  0  0
   36.4620   20.0990   30.5450 C   0  0  0  0  0  3  0  0  0  0  0  0
   35.4450   19.5050   31.2810 C   0  0  0  0  0  0  0  0  0  0  0  0
   34.9160   18.6480   30.8840 H   0  0  0  0  0  0  0  0  0  0  0  0
   35.1650   20.0630   32.5150 C   0  0  0  0  0  0  0  0  0  0  0  0
   34.3580   19.5490   33.0380 H   0  0  0  0  0  0  0  0  0  0  0  0
   35.8650   21.1680   32.9980 C   0  0  0  0  0  3  0  0  0  0  0  0
   40.0390   22.9790   36.3580 C   0  0  0  0  0  0  0  0  0  0  0  0
   40.3010   23.5150   35.0910 C   0  0  0  0  0  0  0  0  0  0  0  0
   41.6260   23.7480   34.7180 C   0  0  0  0  0  0  0  0  0  0  0  0
   42.6000   23.4410   35.6020 N   0  0  0  0  0  0  0  0  0  0  0  0
   42.3540   22.9340   36.8000 C   0  0  0  0  0  0  0  0  0  0  0  0
   41.0830   22.7010   37.1840 N   0  0  0  0  0  0  0  0  0  0  0  0
   41.7930   24.1620   33.7360 H   0  0  0  0  0  0  0  0  0  0  0  0
   43.1340   22.6870   37.5120 H   0  0  0  0  0  0  0  0  0  0  0  0
   37.8220   23.4520   37.6360 C   0  0  0  0  0  0  0  0  0  0  0  0
   38.0220   24.6480   37.9240 O   0  0  0  0  0  0  0  0  0  0  0  0
   38.7420   22.6860   36.8440 N   0  0  0  0  0  0  0  0  0  0  0  0
   36.9160   23.0870   38.0380 H   0  0  0  0  0  0  0  0  0  0  0  0
   38.3090   21.7500   36.6170 H   0  0  0  0  0  0  0  0  0  0  0  0
  1 21  1  0  0  0  0
  2  1  1  0  0  0  0
  2  9  1  0  0  0  0
  3  2  2  0  0  0  0
  4  6  1  0  0  0  0
  4  3  1  0  0  0  0
  5  4  2  0  0  0  0
  6  7  1  0  0  0  0
  7  8  2  0  0  0  0
  7  1  1  0  0  0  0
 10  3  1  0  0  0  0
 11  6  1  0  0  0  0
 11 19  1  0  0  0  0
 12 11  2  0  0  0  0
 13 12  1  0  0  0  0
 14 12  1  0  0  0  0
 14 15  2  0  0  0  0
 15 17  1  0  0  0  0
 16 15  1  0  0  0  0
 17 19  2  0  0  0  0
 17 18  1  0  0  0  0
 20 30  1  0  0  0  0
 20 25  1  0  0  0  0
 21 20  2  0  0  0  0
 22 21  1  0  0  0  0
 22 23  2  0  0  0  0
 23 24  1  0  0  0  0
 24 25  2  0  0  0  0
 24 27  1  0  0  0  0
 26 22  1  0  0  0  0
 28 29  2  0  0  0  0
 28 31  1  0  0  0  0
 30 28  1  0  0  0  0
 32 30  1  0  0  0  0
M  END
>  <minimizedAffinity>
-5.14353895

$$$$

 OpenBabel03272507533D

 32 34  0  0  0  0  0  0  0  0999 V2000
   36.1210   26.4760   31.7290 N   0  0  0  0  0  0  0  0  0  0  0  0
   35.4260   25.5390   31.0550 C   0  0  0  0  0  0  0  0  0  0  0  0
   35.7000   24.1920   31.2880 C   0  0  0  0  0  0  0  0  0  0  0  0
   36.6850   23.9550   32.2130 C   0  0  0  0  0  0  0  0  0  0  0  0
   36.9080   22.7160   32.3990 O   0  0  0  0  0  0  0  0  0  0  0  0
   37.3890   24.8540   32.8950 N   0  0  0  0  0  0  0  0  0  0  0  0
   37.0770   26.1450   32.6260 C   0  0  0  0  0  0  0  0  0  0  0  0
   37.7340   27.0260   33.2630 O   0  0  0  0  0  0  0  0  0  0  0  0
   34.6750   25.8810   30.3530 H   0  0  0  0  0  0  0  0  0  0  0  0
   35.1580   23.4430   30.7600 H   0  0  0  0  0  0  0  0  0  0  0  0
   38.3950   24.4980   33.8390 C   0  0  0  0  0  0  0  0  0  0  0  0
   38.2110   24.2790   35.1920 C   0  0  0  0  0  0  0  0  0  0  0  0
   37.2140   24.3890   35.5550 H   0  0  0  0  0  0  0  0  0  0  0  0
   39.3020   23.9360   35.9850 C   0  0  0  0  0  3  0  0  0  0  0  0
   40.5860   23.8020   35.4720 C   0  0  0  0  0  0  0  0  0  0  0  0
   41.4080   23.5340   36.1250 H   0  0  0  0  0  0  0  0  0  0  0  0
   40.7390   24.0270   34.1160 C   0  0  0  0  0  0  0  0  0  0  0  0
   41.7700   23.9050   33.7810 H   0  0  0  0  0  0  0  0  0  0  0  0
   39.6610   24.3720   33.3020 C   0  0  0  0  0  3  0  0  0  0  0  0
   36.5610   28.4950   30.4700 C   0  0  0  0  0  0  0  0  0  0  0  0
   35.8900   27.8800   31.5350 C   0  0  0  0  0  0  0  0  0  0  0  0
   35.0490   28.6520   32.3380 C   0  0  0  0  0  0  0  0  0  0  0  0
   34.9190   29.9640   32.0470 N   0  0  0  0  0  0  0  0  0  0  0  0
   35.5520   30.5470   31.0410 C   0  0  0  0  0  0  0  0  0  0  0  0
   36.3700   29.8240   30.2520 N   0  0  0  0  0  0  0  0  0  0  0  0
   34.5490   28.1480   33.1490 H   0  0  0  0  0  0  0  0  0  0  0  0
   35.4500   31.6020   30.8060 H   0  0  0  0  0  0  0  0  0  0  0  0
   38.8460   27.5990   29.6040 C   0  0  0  0  0  0  0  0  0  0  0  0
   39.5520   27.9090   30.5820 O   0  0  0  0  0  0  0  0  0  0  0  0
   37.4270   27.8170   29.5790 N   0  0  0  0  0  0  0  0  0  0  0  0
   39.4090   27.1710   28.8200 H   0  0  0  0  0  0  0  0  0  0  0  0
   37.0210   27.3610   28.7170 H   0  0  0  0  0  0  0  0  0  0  0  0
  1  7  1  0  0  0  0
  2  3  2  0  0  0  0
  2  1  1  0  0  0  0
  3  4  1  0  0  0  0
  4  5  2  0  0  0  0
  4  6  1  0  0  0  0
  6 11  1  0  0  0  0
  7  6  1  0  0  0  0
  7  8  2  0  0  0  0
  9  2  1  0  0  0  0
 10  3  1  0  0  0  0
 11 12  1  0  0  0  0
 12 13  1  0  0  0  0
 12 14  2  0  0  0  0
 15 14  1  0  0  0  0
 15 16  1  0  0  0  0
 17 15  2  0  0  0  0
 18 17  1  0  0  0  0
 19 11  2  0  0  0  0
 19 17  1  0  0  0  0
 20 21  1  0  0  0  0
 21  1  1  0  0  0  0
 21 22  2  0  0  0  0
 22 26  1  0  0  0  0
 23 22  1  0  0  0  0
 24 23  2  0  0  0  0
 25 20  2  0  0  0  0
 25 24  1  0  0  0  0
 27 24  1  0  0  0  0
 28 29  2  0  0  0  0
 30 28  1  0  0  0  0
 30 20  1  0  0  0  0
 31 28  1  0  0  0  0
 32 30  1  0  0  0  0
M  END
>  <minimizedAffinity>
-5.12533331

$$$$

 OpenBabel03272507533D

 32 34  0  0  0  0  0  0  0  0999 V2000
   38.1750   25.0430   32.5070 N   0  0  0  0  0  0  0  0  0  0  0  0
   39.4750   24.8950   32.8320 C   0  0  0  0  0  0  0  0  0  0  0  0
   39.9870   23.6120   33.0110 C   0  0  0  0  0  0  0  0  0  0  0  0
   39.0810   22.5970   32.8320 C   0  0  0  0  0  0  0  0  0  0  0  0
   39.5840   21.4420   33.0040 O   0  0  0  0  0  0  0  0  0  0  0  0
   37.7950   22.7070   32.5110 N   0  0  0  0  0  0  0  0  0  0  0  0
   37.3550   23.9790   32.3500 C   0  0  0  0  0  0  0  0  0  0  0  0
   36.1300   24.1150   32.0440 O   0  0  0  0  0  0  0  0  0  0  0  0
   40.0690   25.7950   32.9400 H   0  0  0  0  0  0  0  0  0  0  0  0
   41.0120   23.4830   33.2690 H   0  0  0  0  0  0  0  0  0  0  0  0
   36.9370   21.5820   32.3480 C   0  0  0  0  0  0  0  0  0  0  0  0
   36.6770   20.9140   31.1650 C   0  0  0  0  0  0  0  0  0  0  0  0
   37.1720   21.2830   30.2960 H   0  0  0  0  0  0  0  0  0  0  0  0
   35.8090   19.8250   31.1710 C   0  0  0  0  0  3  0  0  0  0  0  0
   35.1840   19.3740   32.3260 C   0  0  0  0  0  0  0  0  0  0  0  0
   34.5150   18.5220   32.2860 H   0  0  0  0  0  0  0  0  0  0  0  0
   35.4640   20.0620   33.4920 C   0  0  0  0  0  0  0  0  0  0  0  0
   34.9400   19.6550   34.3590 H   0  0  0  0  0  0  0  0  0  0  0  0
   36.3290   21.1550   33.5110 C   0  0  0  0  0  3  0  0  0  0  0  0
   37.0700   26.9820   33.4430 C   0  0  0  0  0  0  0  0  0  0  0  0
   37.5820   26.3360   32.3100 C   0  0  0  0  0  0  0  0  0  0  0  0
   37.4900   26.9730   31.0720 C   0  0  0  0  0  0  0  0  0  0  0  0
   36.9080   28.1910   31.0230 N   0  0  0  0  0  0  0  0  0  0  0  0
   36.4240   28.8030   32.0930 C   0  0  0  0  0  0  0  0  0  0  0  0
   36.5000   28.2080   33.3000 N   0  0  0  0  0  0  0  0  0  0  0  0
   37.8930   26.4480   30.2200 H   0  0  0  0  0  0  0  0  0  0  0  0
   35.9550   29.7810   32.0570 H   0  0  0  0  0  0  0  0  0  0  0  0
   38.0870   26.5740   35.8040 C   0  0  0  0  0  0  0  0  0  0  0  0
   39.0530   27.3570   35.7310 O   0  0  0  0  0  0  0  0  0  0  0  0
   37.1180   26.4460   34.7530 N   0  0  0  0  0  0  0  0  0  0  0  0
   38.0750   26.0330   36.7110 H   0  0  0  0  0  0  0  0  0  0  0  0
   36.3250   25.8320   35.0840 H   0  0  0  0  0  0  0  0  0  0  0  0
  1  2  1  0  0  0  0
  2  9  1  0  0  0  0
  2  3  2  0  0  0  0
  3 10  1  0  0  0  0
  4  5  2  0  0  0  0
  4  3  1  0  0  0  0
  6  4  1  0  0  0  0
  7  1  1  0  0  0  0
  7  6  1  0  0  0  0
  8  7  2  0  0  0  0
 11  6  1  0  0  0  0
 11 19  1  0  0  0  0
 12 14  1  0  0  0  0
 12 11  2  0  0  0  0
 13 12  1  0  0  0  0
 14 15  2  0  0  0  0
 15 17  1  0  0  0  0
 16 15  1  0  0  0  0
 17 19  2  0  0  0  0
 17 18  1  0  0  0  0
 20 30  1  0  0  0  0
 21  1  1  0  0  0  0
 21 20  2  0  0  0  0
 22 21  1  0  0  0  0
 23 22  2  0  0  0  0
 23 24  1  0  0  0  0
 24 25  2  0  0  0  0
 25 20  1  0  0  0  0
 26 22  1  0  0  0  0
 27 24  1  0  0  0  0
 28 31  1  0  0  0  0
 29 28  2  0  0  0  0
 30 32  1  0  0  0  0
 30 28  1  0  0  0  0
M  END
>  <minimizedAffinity>
-5.10680056

$$$$

 OpenBabel03272507533D

 32 34  0  0  0  0  0  0  0  0999 V2000
   38.3110   24.3400   32.4010 N   0  0  0  0  0  0  0  0  0  0  0  0
   37.6500   23.3090   31.8370 C   0  0  0  0  0  0  0  0  0  0  0  0
   37.1820   22.2770   32.6500 C   0  0  0  0  0  0  0  0  0  0  0  0
   37.4550   22.4250   33.9860 C   0  0  0  0  0  0  0  0  0  0  0  0
   37.0140   21.4650   34.6950 O   0  0  0  0  0  0  0  0  0  0  0  0
   38.1030   23.4270   34.5740 N   0  0  0  0  0  0  0  0  0  0  0  0
   38.5330   24.3990   33.7340 C   0  0  0  0  0  0  0  0  0  0  0  0
   39.1560   25.3680   34.2680 O   0  0  0  0  0  0  0  0  0  0  0  0
   37.5100   23.3320   30.7630 H   0  0  0  0  0  0  0  0  0  0  0  0
   36.6590   21.4580   32.2150 H   0  0  0  0  0  0  0  0  0  0  0  0
   38.3330   23.4820   35.9790 C   0  0  0  0  0  0  0  0  0  0  0  0
   37.5420   24.1230   36.9150 C   0  0  0  0  0  0  0  0  0  0  0  0
   36.6760   24.6190   36.5400 H   0  0  0  0  0  0  0  0  0  0  0  0
   37.9040   24.0860   38.2590 C   0  0  0  0  0  3  0  0  0  0  0  0
   39.0410   23.4260   38.7080 C   0  0  0  0  0  0  0  0  0  0  0  0
   39.2870   23.4230   39.7630 H   0  0  0  0  0  0  0  0  0  0  0  0
   39.8120   22.7960   37.7490 C   0  0  0  0  0  0  0  0  0  0  0  0
   40.6880   22.2990   38.1700 H   0  0  0  0  0  0  0  0  0  0  0  0
   39.4690   22.8190   36.3970 C   0  0  0  0  0  3  0  0  0  0  0  0
   37.9830   26.5430   31.4550 C   0  0  0  0  0  0  0  0  0  0  0  0
   38.8210   25.4330   31.6220 C   0  0  0  0  0  0  0  0  0  0  0  0
   40.0860   25.4470   31.0320 C   0  0  0  0  0  0  0  0  0  0  0  0
   40.4450   26.5390   30.3230 N   0  0  0  0  0  0  0  0  0  0  0  0
   39.6550   27.5890   30.1640 C   0  0  0  0  0  0  0  0  0  0  0  0
   38.4290   27.5990   30.7230 N   0  0  0  0  0  0  0  0  0  0  0  0
   40.7060   24.5770   31.1800 H   0  0  0  0  0  0  0  0  0  0  0  0
   39.9410   28.4680   29.5950 H   0  0  0  0  0  0  0  0  0  0  0  0
   35.3970   26.2590   31.5230 C   0  0  0  0  0  0  0  0  0  0  0  0
   35.2530   25.5900   30.4820 O   0  0  0  0  0  0  0  0  0  0  0  0
   36.6880   26.6510   32.0150 N   0  0  0  0  0  0  0  0  0  0  0  0
   34.4750   26.4920   31.9820 H   0  0  0  0  0  0  0  0  0  0  0  0
   36.5770   27.0890   32.9690 H   0  0  0  0  0  0  0  0  0  0  0  0
  1  7  1  0  0  0  0
  2  1  1  0  0  0  0
  2  3  2  0  0  0  0
  3  4  1  0  0  0  0
  4  6  1  0  0  0  0
  4  5  2  0  0  0  0
  6 11  1  0  0  0  0
  7  8  2  0  0  0  0
  7  6  1  0  0  0  0
  9  2  1  0  0  0  0
 10  3  1  0  0  0  0
 11 19  2  0  0  0  0
 11 12  1  0  0  0  0
 12 14  2  0  0  0  0
 13 12  1  0  0  0  0
 14 15  1  0  0  0  0
 15 16  1  0  0  0  0
 17 18  1  0  0  0  0
 17 15  2  0  0  0  0
 19 17  1  0  0  0  0
 20 21  1  0  0  0  0
 20 30  1  0  0  0  0
 21  1  1  0  0  0  0
 22 26  1  0  0  0  0
 22 21  2  0  0  0  0
 23 22  1  0  0  0  0
 24 23  2  0  0  0  0
 24 25  1  0  0  0  0
 25 20  2  0  0  0  0
 27 24  1  0  0  0  0
 28 31  1  0  0  0  0
 28 30  1  0  0  0  0
 29 28  2  0  0  0  0
 30 32  1  0  0  0  0
M  END
>  <minimizedAffinity>
-5.09486103

$$$$

 OpenBabel03272507533D

 32 34  0  0  0  0  0  0  0  0999 V2000
   37.4350   23.0830   32.5950 N   0  0  0  0  0  0  0  0  0  0  0  0
   37.5270   24.2990   32.0220 C   0  0  0  0  0  0  0  0  0  0  0  0
   37.9680   25.3780   32.7870 C   0  0  0  0  0  0  0  0  0  0  0  0
   38.2730   25.0760   34.0900 C   0  0  0  0  0  0  0  0  0  0  0  0
   38.6720   26.0840   34.7560 O   0  0  0  0  0  0  0  0  0  0  0  0
   38.1940   23.8900   34.6860 N   0  0  0  0  0  0  0  0  0  0  0  0
   37.7590   22.8810   33.8930 C   0  0  0  0  0  0  0  0  0  0  0  0
   37.6730   21.7360   34.4360 O   0  0  0  0  0  0  0  0  0  0  0  0
   37.2500   24.3820   30.9780 H   0  0  0  0  0  0  0  0  0  0  0  0
   38.0450   26.3430   32.3440 H   0  0  0  0  0  0  0  0  0  0  0  0
   38.5380   23.6850   36.0540 C   0  0  0  0  0  0  0  0  0  0  0  0
   39.7170   23.1440   36.5310 C   0  0  0  0  0  0  0  0  0  0  0  0
   40.4350   22.8560   35.7960 H   0  0  0  0  0  0  0  0  0  0  0  0
   39.9030   23.0080   37.9040 C   0  0  0  0  0  3  0  0  0  0  0  0
   38.9420   23.3970   38.8290 C   0  0  0  0  0  0  0  0  0  0  0  0
   39.1270   23.2730   39.8900 H   0  0  0  0  0  0  0  0  0  0  0  0
   37.7740   23.9340   38.3220 C   0  0  0  0  0  0  0  0  0  0  0  0
   37.0650   24.2170   39.1020 H   0  0  0  0  0  0  0  0  0  0  0  0
   37.5660   24.0800   36.9510 C   0  0  0  0  0  3  0  0  0  0  0  0
   37.9320   21.2640   31.0780 C   0  0  0  0  0  0  0  0  0  0  0  0
   36.9850   21.9310   31.8660 C   0  0  0  0  0  0  0  0  0  0  0  0
   35.6750   21.4480   31.8990 C   0  0  0  0  0  0  0  0  0  0  0  0
   35.3820   20.3530   31.1650 N   0  0  0  0  0  0  0  0  0  0  0  0
   36.2750   19.7220   30.4200 C   0  0  0  0  0  0  0  0  0  0  0  0
   37.5460   20.1690   30.3710 N   0  0  0  0  0  0  0  0  0  0  0  0
   34.9710   21.9840   32.5150 H   0  0  0  0  0  0  0  0  0  0  0  0
   36.0420   18.8420   29.8290 H   0  0  0  0  0  0  0  0  0  0  0  0
   40.4420   21.3150   31.7650 C   0  0  0  0  0  0  0  0  0  0  0  0
   40.4080   20.4560   32.6670 O   0  0  0  0  0  0  0  0  0  0  0  0
   39.2910   21.6480   30.9750 N   0  0  0  0  0  0  0  0  0  0  0  0
   41.3970   21.7530   31.6630 H   0  0  0  0  0  0  0  0  0  0  0  0
   39.5820   22.2950   30.1930 H   0  0  0  0  0  0  0  0  0  0  0  0
  1  7  1  0  0  0  0
  2  1  1  0  0  0  0
  2  3  2  0  0  0  0
  3  4  1  0  0  0  0
  4  6  1  0  0  0  0
  4  5  2  0  0  0  0
  6 11  1  0  0  0  0
  7  8  2  0  0  0  0
  7  6  1  0  0  0  0
  9  2  1  0  0  0  0
 10  3  1  0  0  0  0
 11 12  2  0  0  0  0
 11 19  1  0  0  0  0
 12 14  1  0  0  0  0
 13 12  1  0  0  0  0
 14 15  2  0  0  0  0
 15 16  1  0  0  0  0
 17 15  1  0  0  0  0
 17 18  1  0  0  0  0
 19 17  2  0  0  0  0
 20 21  1  0  0  0  0
 21 22  2  0  0  0  0
 21  1  1  0  0  0  0
 22 26  1  0  0  0  0
 23 22  1  0  0  0  0
 24 23  2  0  0  0  0
 25 24  1  0  0  0  0
 25 20  2  0  0  0  0
 27 24  1  0  0  0  0
 28 29  2  0  0  0  0
 30 20  1  0  0  0  0
 30 28  1  0  0  0  0
 31 28  1  0  0  0  0
 32 30  1  0  0  0  0
M  END
>  <minimizedAffinity>
-5.01262379

$$$$

 OpenBabel03272507533D

 32 34  0  0  0  0  0  0  0  0999 V2000
   38.0240   23.3250   34.6280 N   0  0  0  0  0  0  0  0  0  0  0  0
   37.7180   22.2060   33.9410 C   0  0  0  0  0  0  0  0  0  0  0  0
   37.4150   22.3050   32.5840 C   0  0  0  0  0  0  0  0  0  0  0  0
   37.4610   23.5770   32.0720 C   0  0  0  0  0  0  0  0  0  0  0  0
   37.1790   23.6280   30.8330 O   0  0  0  0  0  0  0  0  0  0  0  0
   37.7590   24.7000   32.7200 N   0  0  0  0  0  0  0  0  0  0  0  0
   38.0450   24.5410   34.0350 C   0  0  0  0  0  0  0  0  0  0  0  0
   38.3320   25.5970   34.6790 O   0  0  0  0  0  0  0  0  0  0  0  0
   37.7230   21.2690   34.4840 H   0  0  0  0  0  0  0  0  0  0  0  0
   37.1710   21.4280   32.0310 H   0  0  0  0  0  0  0  0  0  0  0  0
   37.7780   25.9770   32.0890 C   0  0  0  0  0  0  0  0  0  0  0  0
   38.8610   26.5660   31.4620 C   0  0  0  0  0  0  0  0  0  0  0  0
   39.7650   26.0010   31.4530 H   0  0  0  0  0  0  0  0  0  0  0  0
   38.7190   27.8270   30.8890 C   0  0  0  0  0  3  0  0  0  0  0  0
   37.5210   28.5310   30.9220 C   0  0  0  0  0  0  0  0  0  0  0  0
   37.4540   29.5110   30.4640 H   0  0  0  0  0  0  0  0  0  0  0  0
   36.4570   27.9170   31.5550 C   0  0  0  0  0  0  0  0  0  0  0  0
   35.5510   28.5240   31.5440 H   0  0  0  0  0  0  0  0  0  0  0  0
   36.5760   26.6540   32.1350 C   0  0  0  0  0  3  0  0  0  0  0  0
   39.6580   22.9610   36.3750 C   0  0  0  0  0  0  0  0  0  0  0  0
   38.3430   23.2950   36.0270 C   0  0  0  0  0  0  0  0  0  0  0  0
   37.4270   23.5740   37.0430 C   0  0  0  0  0  0  0  0  0  0  0  0
   37.8560   23.5100   38.3220 N   0  0  0  0  0  0  0  0  0  0  0  0
   39.0980   23.1960   38.6520 C   0  0  0  0  0  0  0  0  0  0  0  0
   40.0010   22.9210   37.6900 N   0  0  0  0  0  0  0  0  0  0  0  0
   36.4240   23.8270   36.7410 H   0  0  0  0  0  0  0  0  0  0  0  0
   39.4460   23.1430   39.6790 H   0  0  0  0  0  0  0  0  0  0  0  0
   41.5820   23.5210   34.7130 C   0  0  0  0  0  0  0  0  0  0  0  0
   41.6720   24.7440   34.9350 O   0  0  0  0  0  0  0  0  0  0  0  0
   40.6790   22.6720   35.4370 N   0  0  0  0  0  0  0  0  0  0  0  0
   42.2340   23.2020   33.9470 H   0  0  0  0  0  0  0  0  0  0  0  0
   40.8660   21.6660   35.1780 H   0  0  0  0  0  0  0  0  0  0  0  0
  1 21  1  0  0  0  0
  2  9  1  0  0  0  0
  2  1  1  0  0  0  0
  3  2  2  0  0  0  0
  4  3  1  0  0  0  0
  4  6  1  0  0  0  0
  5  4  2  0  0  0  0
  6  7  1  0  0  0  0
  7  1  1  0  0  0  0
  7  8  2  0  0  0  0
 10  3  1  0  0  0  0
 11 19  1  0  0  0  0
 11  6  1  0  0  0  0
 12 11  2  0  0  0  0
 13 12  1  0  0  0  0
 14 15  2  0  0  0  0
 14 12  1  0  0  0  0
 15 17  1  0  0  0  0
 16 15  1  0  0  0  0
 17 19  2  0  0  0  0
 18 17  1  0  0  0  0
 20 25  1  0  0  0  0
 21 20  2  0  0  0  0
 21 22  1  0  0  0  0
 22 23  2  0  0  0  0
 23 24  1  0  0  0  0
 24 27  1  0  0  0  0
 25 24  2  0  0  0  0
 26 22  1  0  0  0  0
 28 29  2  0  0  0  0
 28 30  1  0  0  0  0
 30 20  1  0  0  0  0
 31 28  1  0  0  0  0
 32 30  1  0  0  0  0
M  END
>  <minimizedAffinity>
-4.97791958

$$$$

 OpenBabel03272507533D

 32 34  0  0  0  0  0  0  0  0999 V2000
   39.3590   23.4870   34.7280 N   0  0  0  0  0  0  0  0  0  0  0  0
   40.2460   24.2740   34.0870 C   0  0  0  0  0  0  0  0  0  0  0  0
   40.4030   24.1350   32.7080 C   0  0  0  0  0  0  0  0  0  0  0  0
   39.6100   23.1770   32.1300 C   0  0  0  0  0  0  0  0  0  0  0  0
   39.7810   23.0790   30.8730 O   0  0  0  0  0  0  0  0  0  0  0  0
   38.7270   22.3850   32.7320 N   0  0  0  0  0  0  0  0  0  0  0  0
   38.6180   22.5660   34.0710 C   0  0  0  0  0  0  0  0  0  0  0  0
   37.7830   21.8230   34.6720 O   0  0  0  0  0  0  0  0  0  0  0  0
   40.8020   24.9890   34.6810 H   0  0  0  0  0  0  0  0  0  0  0  0
   41.1010   24.7510   32.1910 H   0  0  0  0  0  0  0  0  0  0  0  0
   37.9500   21.4170   32.0320 C   0  0  0  0  0  0  0  0  0  0  0  0
   38.3190   20.1130   31.7570 C   0  0  0  0  0  0  0  0  0  0  0  0
   39.2800   19.8110   32.1070 H   0  0  0  0  0  0  0  0  0  0  0  0
   37.4430   19.2860   31.0590 C   0  0  0  0  0  3  0  0  0  0  0  0
   36.1980   19.7190   30.6200 C   0  0  0  0  0  0  0  0  0  0  0  0
   35.5460   19.0430   30.0790 H   0  0  0  0  0  0  0  0  0  0  0  0
   35.8570   21.0270   30.9100 C   0  0  0  0  0  0  0  0  0  0  0  0
   34.8690   21.3000   30.5370 H   0  0  0  0  0  0  0  0  0  0  0  0
   36.7190   21.8730   31.6080 C   0  0  0  0  0  3  0  0  0  0  0  0
   38.2670   24.5640   36.6000 C   0  0  0  0  0  0  0  0  0  0  0  0
   39.1510   23.5760   36.1460 C   0  0  0  0  0  0  0  0  0  0  0  0
   39.7720   22.7460   37.0810 C   0  0  0  0  0  0  0  0  0  0  0  0
   39.4890   22.9350   38.3870 N   0  0  0  0  0  0  0  0  0  0  0  0
   38.6540   23.8670   38.8180 C   0  0  0  0  0  0  0  0  0  0  0  0
   38.0420   24.6820   37.9360 N   0  0  0  0  0  0  0  0  0  0  0  0
   40.4470   21.9970   36.6980 H   0  0  0  0  0  0  0  0  0  0  0  0
   38.4250   24.0210   39.8680 H   0  0  0  0  0  0  0  0  0  0  0  0
   37.8020   26.8280   35.4030 C   0  0  0  0  0  0  0  0  0  0  0  0
   38.8320   27.4370   35.7460 O   0  0  0  0  0  0  0  0  0  0  0  0
   37.5670   25.4550   35.7510 N   0  0  0  0  0  0  0  0  0  0  0  0
   37.1450   27.4330   34.8410 H   0  0  0  0  0  0  0  0  0  0  0  0
   36.7060   25.1110   35.2460 H   0  0  0  0  0  0  0  0  0  0  0  0
  1 21  1  0  0  0  0
  2  9  1  0  0  0  0
  2  1  1  0  0  0  0
  3  2  2  0  0  0  0
  4  3  1  0  0  0  0
  4  6  1  0  0  0  0
  5  4  2  0  0  0  0
  6  7  1  0  0  0  0
  7  8  2  0  0  0  0
  7  1  1  0  0  0  0
 10  3  1  0  0  0  0
 11  6  1  0  0  0  0
 12 11  1  0  0  0  0
 12 13  1  0  0  0  0
 14 12  2  0  0  0  0
 15 17  2  0  0  0  0
 15 14  1  0  0  0  0
 16 15  1  0  0  0  0
 17 19  1  0  0  0  0
 18 17  1  0  0  0  0
 19 11  2  0  0  0  0
 20 25  1  0  0  0  0
 21 20  2  0  0  0  0
 21 22  1  0  0  0  0
 22 23  2  0  0  0  0
 23 24  1  0  0  0  0
 24 27  1  0  0  0  0
 25 24  2  0  0  0  0
 26 22  1  0  0  0  0
 28 29  2  0  0  0  0
 28 30  1  0  0  0  0
 30 20  1  0  0  0  0
 31 28  1  0  0  0  0
 32 30  1  0  0  0  0
M  END
>  <minimizedAffinity>
-4.97217131

$$$$
