
 OpenBabel03262522283D

 46 49  0  0  0  0  0  0  0  0999 V2000
   36.7570   30.2420   49.9010 S   0  0  0  0  0  0  0  0  0  0  0  0
   39.0750   32.8590   47.9000 C   0  0  0  0  0  0  0  0  0  0  0  0
   39.3400   32.1540   46.7320 C   0  0  0  0  0  0  0  0  0  0  0  0
   38.7890   30.9020   46.6160 C   0  0  0  0  0  0  0  0  0  0  0  0
   38.0270   30.4320   47.6410 N   0  0  0  0  0  0  0  0  0  0  0  0
   37.8000   31.1210   48.7230 C   0  0  0  0  0  0  0  0  0  0  0  0
   38.3210   32.3840   48.9050 N   0  0  0  0  0  0  0  0  0  0  0  0
   39.4720   33.8520   48.0710 H   0  0  0  0  0  0  0  0  0  0  0  0
   38.9860   30.3350   45.7060 H   0  0  0  0  0  0  0  0  0  0  0  0
   40.1180   32.7450   45.7930 O   0  0  0  0  0  0  0  0  0  0  0  0
   40.1060   32.2540   44.4950 C   0  0  0  0  0  0  0  0  0  0  0  0
   40.6500   31.0820   44.0140 C   0  0  0  0  0  0  0  0  0  0  0  0
   40.5410   30.7680   42.7150 C   0  0  0  0  0  0  0  0  0  0  0  0
   39.8910   31.6160   41.8850 C   0  0  0  0  0  0  0  0  0  0  0  0
   39.3360   32.8100   42.3680 C   0  0  0  0  0  0  0  0  0  0  0  0
   39.4610   33.1010   43.6780 N   0  0  0  0  0  0  0  0  0  0  0  0
   41.1450   30.4850   44.7710 H   0  0  0  0  0  0  0  0  0  0  0  0
   40.9860   29.8410   42.4040 H   0  0  0  0  0  0  0  0  0  0  0  0
   39.7920   31.3800   40.8290 H   0  0  0  0  0  0  0  0  0  0  0  0
   38.6060   33.7570   41.4240 C   0  0  0  0  0  0  0  0  0  0  0  0
   37.5240   33.5820   41.4800 H   0  0  0  0  0  0  0  0  0  0  0  0
   39.0320   33.6490   40.4240 H   0  0  0  0  0  0  0  0  0  0  0  0
   38.8410   34.7740   41.8260 H   0  0  0  0  0  0  0  0  0  0  0  0
   35.0760   30.8190   49.5460 C   0  0  0  0  0  0  0  0  0  0  0  0
   34.4220   30.8100   50.4400 H   0  0  0  0  0  0  0  0  0  0  0  0
   35.0930   31.8870   49.2140 H   0  0  0  0  0  0  0  0  0  0  0  0
   33.5770   28.6340   50.2700 F   0  0  0  0  0  0  0  0  0  0  0  0
   33.7970   28.8730   48.9460 C   0  0  0  0  0  0  0  0  0  0  0  0
   34.5390   29.9450   48.4630 C   0  0  0  0  0  0  0  0  0  0  0  0
   34.7270   30.1350   47.1240 C   0  0  0  0  0  0  0  0  0  0  0  0
   34.1750   29.2500   46.1940 C   0  0  0  0  0  0  0  0  0  0  0  0
   33.4310   28.1740   46.6600 C   0  0  0  0  0  0  0  0  0  0  0  0
   33.2520   27.9990   48.0110 C   0  0  0  0  0  0  0  0  0  0  0  0
   35.3190   30.9960   46.8210 H   0  0  0  0  0  0  0  0  0  0  0  0
   34.3260   29.4050   45.1460 H   0  0  0  0  0  0  0  0  0  0  0  0
   33.0230   27.5160   45.9030 H   0  0  0  0  0  0  0  0  0  0  0  0
   32.4990   26.9070   48.4150 O   0  0  0  0  0  0  0  0  0  0  0  0
   31.1190   27.0270   48.3640 C   0  0  0  0  0  0  0  0  0  0  0  0
   30.3610   26.5090   47.3340 C   0  0  0  0  0  0  0  0  0  0  0  0
   30.8670   25.9900   46.5380 H   0  0  0  0  0  0  0  0  0  0  0  0
   28.9920   26.6900   47.3900 C   0  0  0  0  0  0  0  0  0  0  0  0
   28.4090   27.3720   48.4510 C   0  0  0  0  0  0  0  0  0  0  0  0
   27.3390   27.4530   48.3900 H   0  0  0  0  0  0  0  0  0  0  0  0
   29.1820   27.8880   49.4810 C   0  0  0  0  0  0  0  0  0  0  0  0
   28.6740   28.4160   50.2910 H   0  0  0  0  0  0  0  0  0  0  0  0
   30.5570   27.7050   49.4230 C   0  0  0  0  0  0  0  0  0  0  0  0
  2  8  1  0  0  0  0
  2  7  1  0  0  0  0
  3  2  2  0  0  0  0
  4  3  1  0  0  0  0
  4  5  2  0  0  0  0
  5  6  1  0  0  0  0
  6  7  2  0  0  0  0
  6  1  1  0  0  0  0
  9  4  1  0  0  0  0
 10  3  1  0  0  0  0
 11 10  1  0  0  0  0
 12 11  1  0  0  0  0
 12 17  1  0  0  0  0
 13 12  2  0  0  0  0
 14 15  2  0  0  0  0
 14 13  1  0  0  0  0
 15 16  1  0  0  0  0
 16 11  2  0  0  0  0
 18 13  1  0  0  0  0
 19 14  1  0  0  0  0
 20 21  1  0  0  0  0
 20 23  1  0  0  0  0
 20 15  1  0  0  0  0
 22 20  1  0  0  0  0
 24  1  1  0  0  0  0
 24 25  1  0  0  0  0
 26 24  1  0  0  0  0
 28 27  1  0  0  0  0
 29 28  1  0  0  0  0
 29 24  1  0  0  0  0
 30 29  2  0  0  0  0
 31 32  2  0  0  0  0
 31 30  1  0  0  0  0
 32 33  1  0  0  0  0
 33 37  1  0  0  0  0
 33 28  2  0  0  0  0
 34 30  1  0  0  0  0
 35 31  1  0  0  0  0
 36 32  1  0  0  0  0
 38 37  1  0  0  0  0
 38 46  1  0  0  0  0
 39 41  1  0  0  0  0
 39 38  2  0  0  0  0
 40 39  1  0  0  0  0
 41 42  2  0  0  0  0
 42 44  1  0  0  0  0
 43 42  1  0  0  0  0
 44 45  1  0  0  0  0
 46 44  2  0  0  0  0
M  END
>  <minimizedAffinity>
-6.39916611

>  <minimizedRMSD>
2.49603319

$$$$
