
 OpenBabel03272501443D

 34 37  0  0  0  0  0  0  0  0999 V2000
   34.9450   29.4110   49.4830 C   0  0  0  0  0  0  0  0  0  0  0  0
   35.4100   30.0430   48.2920 C   0  0  0  0  0  0  0  0  0  0  0  0
   34.8480   29.6310   47.0870 C   0  0  0  0  0  0  0  0  0  0  0  0
   33.9050   28.6690   47.1050 N   0  0  0  0  0  0  0  0  0  0  0  0
   33.4780   28.0820   48.2550 C   0  0  0  0  0  0  0  0  0  0  0  0
   34.0040   28.4590   49.4410 N   0  0  0  0  0  0  0  0  0  0  0  0
   35.2410   29.5690   50.5080 H   0  0  0  0  0  0  0  0  0  0  0  0
   35.2310   30.1360   46.2210 H   0  0  0  0  0  0  0  0  0  0  0  0
   36.5100   31.6300   49.7680 C   0  0  0  0  0  0  0  0  0  0  0  0
   36.4220   31.0440   48.5190 C   0  0  0  0  0  0  0  0  0  0  0  0
   37.3330   31.4570   47.5480 C   0  0  0  0  0  0  0  0  0  0  0  0
   38.2790   32.4340   47.8840 C   0  0  0  0  0  0  0  0  0  0  0  0
   39.2640   33.0250   47.1840 N   0  0  0  0  0  0  0  0  0  0  0  0
   39.9010   33.9060   47.9570 C   0  0  0  0  0  0  0  0  0  0  0  0
   39.3210   33.8900   49.1850 N   0  0  0  0  0  0  0  0  0  0  0  0
   38.3350   32.9910   49.1270 C   0  0  0  0  0  0  0  0  0  0  0  0
   37.4440   32.5880   50.0840 C   0  0  0  0  0  0  0  0  0  0  0  0
   35.8530   31.4030   50.6230 H   0  0  0  0  0  0  0  0  0  0  0  0
   37.2890   31.0200   46.5710 H   0  0  0  0  0  0  0  0  0  0  0  0
   39.4890   32.8150   46.1750 H   0  0  0  0  0  0  0  0  0  0  0  0
   40.7310   34.5530   47.7350 H   0  0  0  0  0  0  0  0  0  0  0  0
   37.5130   33.0550   51.0770 H   0  0  0  0  0  0  0  0  0  0  0  0
   32.4230   27.0220   48.1600 C   0  0  0  0  0  0  0  0  0  0  0  0
   32.5170   26.5010   47.1900 H   0  0  0  0  0  0  0  0  0  0  0  0
   32.5740   26.3420   49.0200 H   0  0  0  0  0  0  0  0  0  0  0  0
   31.0610   27.6370   48.3260 C   0  0  0  0  0  0  0  0  0  0  0  0
   30.4670   27.6210   49.5900 C   0  0  0  0  0  0  0  0  0  0  0  0
   31.0250   27.1610   50.3960 H   0  0  0  0  0  0  0  0  0  0  0  0
   29.2300   28.1470   49.8730 C   0  0  0  0  0  0  0  0  0  0  0  0
   28.5320   28.7290   48.8370 C   0  0  0  0  0  0  0  0  0  0  0  0
   27.5610   29.1510   49.0250 H   0  0  0  0  0  0  0  0  0  0  0  0
   29.0950   28.7590   47.5780 C   0  0  0  0  0  0  0  0  0  0  0  0
   28.5330   29.2220   46.7690 H   0  0  0  0  0  0  0  0  0  0  0  0
   30.3380   28.2310   47.2890 C   0  0  0  0  0  0  0  0  0  0  0  0
  1  7  1  0  0  0  0
  2 10  1  0  0  0  0
  2  1  2  0  0  0  0
  3  4  2  0  0  0  0
  3  2  1  0  0  0  0
  4  5  1  0  0  0  0
  5  6  2  0  0  0  0
  6  1  1  0  0  0  0
  8  3  1  0  0  0  0
  9 17  1  0  0  0  0
  9 18  1  0  0  0  0
 10  9  2  0  0  0  0
 11 12  2  0  0  0  0
 11 10  1  0  0  0  0
 12 16  1  0  0  0  0
 13 12  1  0  0  0  0
 13 14  1  0  0  0  0
 14 15  2  0  0  0  0
 16 15  1  0  0  0  0
 16 17  2  0  0  0  0
 17 22  1  0  0  0  0
 19 11  1  0  0  0  0
 20 13  1  0  0  0  0
 21 14  1  0  0  0  0
 23  5  1  0  0  0  0
 23 26  1  0  0  0  0
 23 25  1  0  0  0  0
 24 23  1  0  0  0  0
 26 27  1  0  0  0  0
 27 29  2  0  0  0  0
 27 28  1  0  0  0  0
 30 31  1  0  0  0  0
 30 29  1  0  0  0  0
 32 30  2  0  0  0  0
 33 32  1  0  0  0  0
 34 32  1  0  0  0  0
 34 26  2  0  0  0  0
M  END
>  <minimizedAffinity>
-6.50382566

>  <minimizedRMSD>
1.80887854

$$$$
