
 OpenBabel03272510043D

 37 39  0  0  0  0  0  0  0  0999 V2000
   34.7960   29.4150   45.4100 C   0  0  0  0  0  0  0  0  0  0  0  0
   34.7200   29.3360   46.7650 C   0  0  0  0  0  0  0  0  0  0  0  0
   33.6340   28.6980   47.3560 C   0  0  0  0  0  0  0  0  0  0  0  0
   32.6110   28.1340   46.6250 C   0  0  0  0  0  0  0  0  0  0  0  0
   32.6540   28.1980   45.2520 C   0  0  0  0  0  0  0  0  0  0  0  0
   33.7400   28.8340   44.6990 C   0  0  0  0  0  0  0  0  0  0  0  0
   33.6040   28.6490   48.4570 H   0  0  0  0  0  0  0  0  0  0  0  0
   31.8330   27.6700   47.1730 H   0  0  0  0  0  0  0  0  0  0  0  0
   31.8440   27.7520   44.7370 H   0  0  0  0  0  0  0  0  0  0  0  0
   33.6580   28.8230   43.6050 H   0  0  0  0  0  0  0  0  0  0  0  0
   37.3570   31.6110   47.9410 C   0  0  0  0  0  0  0  0  0  0  0  0
   36.3770   31.0200   47.1590 C   0  0  0  0  0  0  0  0  0  0  0  0
   35.7090   29.9230   47.6040 C   0  0  0  0  0  0  0  0  0  0  0  0
   36.0440   29.4490   48.8360 N   0  0  0  0  0  0  0  0  0  0  0  0
   36.9860   30.0170   49.5970 C   0  0  0  0  0  0  0  0  0  0  0  0
   37.6380   31.0930   49.1430 N   0  0  0  0  0  0  0  0  0  0  0  0
   37.9730   32.4650   47.7450 H   0  0  0  0  0  0  0  0  0  0  0  0
   36.3280   31.6360   46.2930 H   0  0  0  0  0  0  0  0  0  0  0  0
   37.2040   29.4340   50.9480 C   0  0  0  0  0  0  0  0  0  0  0  0
   37.6740   30.3720   51.8490 F   0  0  0  0  0  0  0  0  0  0  0  0
   35.9160   29.0840   51.5070 F   0  0  0  0  0  0  0  0  0  0  0  0
   37.8860   28.3130   51.0180 F   0  0  0  0  0  0  0  0  0  0  0  0
   36.0960   30.1330   44.5640 S   0  0  0  0  0  0  0  0  0  0  0  0
   35.7510   31.4890   44.0750 O   0  0  0  0  0  0  0  0  0  0  0  0
   35.9290   29.4320   43.2300 O   0  0  0  0  0  0  0  0  0  0  0  0
   37.7210   29.6430   44.4960 C   0  0  0  0  0  0  0  0  0  0  0  0
   37.8850   29.0970   45.5080 H   0  0  0  0  0  0  0  0  0  0  0  0
   37.9130   28.7900   43.8210 H   0  0  0  0  0  0  0  0  0  0  0  0
   38.7390   30.6700   44.5590 C   0  0  0  0  0  0  0  0  0  0  0  0
   39.6440   30.5290   45.5700 C   0  0  0  0  0  0  0  0  0  0  0  0
   39.6270   29.7050   46.3000 H   0  0  0  0  0  0  0  0  0  0  0  0
   40.7040   31.4000   45.8160 C   0  0  0  0  0  3  0  0  0  0  0  0
   40.8360   32.4880   44.9590 C   0  0  0  0  0  0  0  0  0  0  0  0
   41.6540   33.1730   45.1350 H   0  0  0  0  0  0  0  0  0  0  0  0
   39.9270   32.6380   43.9340 C   0  0  0  0  0  0  0  0  0  0  0  0
   40.0340   33.4900   43.2670 H   0  0  0  0  0  0  0  0  0  0  0  0
   38.8930   31.7500   43.7290 C   0  0  0  0  0  3  0  0  0  0  0  0
  1  2  1  0  0  0  0
  2  3  2  0  0  0  0
  2 13  1  0  0  0  0
  3  7  1  0  0  0  0
  4  8  1  0  0  0  0
  4  3  1  0  0  0  0
  5  4  2  0  0  0  0
  6  5  1  0  0  0  0
  6  1  2  0  0  0  0
  9  5  1  0  0  0  0
 10  6  1  0  0  0  0
 11 16  1  0  0  0  0
 12 13  1  0  0  0  0
 12 11  2  0  0  0  0
 13 14  2  0  0  0  0
 14 15  1  0  0  0  0
 15 19  1  0  0  0  0
 16 15  2  0  0  0  0
 17 11  1  0  0  0  0
 18 12  1  0  0  0  0
 19 22  1  0  0  0  0
 19 21  1  0  0  0  0
 19 20  1  0  0  0  0
 23  1  1  0  0  0  0
 24 23  2  0  0  0  0
 25 23  2  0  0  0  0
 26 29  1  0  0  0  0
 26 23  1  0  0  0  0
 26 27  1  0  0  0  0
 28 26  1  0  0  0  0
 29 30  1  0  0  0  0
 30 32  2  0  0  0  0
 30 31  1  0  0  0  0
 33 34  1  0  0  0  0
 33 32  1  0  0  0  0
 35 33  2  0  0  0  0
 36 35  1  0  0  0  0
 37 35  1  0  0  0  0
 37 29  2  0  0  0  0
M  END
>  <minimizedAffinity>
-5.41024685

>  <minimizedRMSD>
3.39212441

$$$$
