
 OpenBabel03272509473D

 25 26  0  0  0  0  0  0  0  0999 V2000
   34.2050   28.3900   48.4820 C   0  0  0  0  0  0  0  0  0  0  0  0
   33.3290   29.0590   48.4400 H   0  0  0  0  0  0  0  0  0  0  0  0
   34.9650   28.8170   47.7840 H   0  0  0  0  0  0  0  0  0  0  0  0
   33.8990   27.0090   47.9510 C   0  0  0  0  0  0  0  0  0  0  0  0
   34.8060   26.3910   47.9860 H   0  0  0  0  0  0  0  0  0  0  0  0
   33.1630   26.5630   48.6780 H   0  0  0  0  0  0  0  0  0  0  0  0
   33.2640   27.0070   46.6300 C   0  0  0  0  0  0  0  0  0  0  0  0
   31.9310   27.4010   46.6590 C   0  0  0  0  0  0  0  0  0  0  0  0
   31.3930   27.6860   47.5560 H   0  0  0  0  0  0  0  0  0  0  0  0
   31.1500   27.4650   45.5010 C   0  0  0  0  0  3  0  0  0  0  0  0
   31.7180   27.1250   44.2800 C   0  0  0  0  0  0  0  0  0  0  0  0
   31.0980   27.1820   43.4050 H   0  0  0  0  0  0  0  0  0  0  0  0
   33.0370   26.7380   44.2830 C   0  0  0  0  0  0  0  0  0  0  0  0
   33.4870   26.4710   43.3280 H   0  0  0  0  0  0  0  0  0  0  0  0
   33.8210   26.6700   45.4150 C   0  0  0  0  0  3  0  0  0  0  0  0
   34.7230   28.3150   49.7950 O   0  0  0  0  0  0  0  0  0  0  0  0
   37.3450   30.2290   51.4030 C   0  0  0  0  0  0  0  0  0  0  0  0
   38.0660   30.6660   50.2970 C   0  0  0  0  0  0  0  0  0  0  0  0
   37.6110   30.2770   49.0440 C   0  0  0  0  0  0  0  0  0  0  0  0
   36.4900   29.4960   48.9970 N   0  0  0  0  0  0  0  0  0  0  0  0
   35.8190   29.0930   50.0990 C   0  0  0  0  0  0  0  0  0  0  0  0
   36.2710   29.4770   51.3030 N   0  0  0  0  0  0  0  0  0  0  0  0
   37.7450   30.5620   52.3510 H   0  0  0  0  0  0  0  0  0  0  0  0
   38.9540   31.2810   50.2600 H   0  0  0  0  0  0  0  0  0  0  0  0
   38.0980   30.5610   48.1010 H   0  0  0  0  0  0  0  0  0  0  0  0
  1 16  1  0  0  0  0
  2  1  1  0  0  0  0
  3  1  1  0  0  0  0
  4  5  1  0  0  0  0
  4  1  1  0  0  0  0
  4  6  1  0  0  0  0
  7  8  1  0  0  0  0
  7  4  1  0  0  0  0
  8  9  1  0  0  0  0
 10  8  2  0  0  0  0
 11 13  2  0  0  0  0
 11 10  1  0  0  0  0
 12 11  1  0  0  0  0
 13 15  1  0  0  0  0
 14 13  1  0  0  0  0
 15  7  2  0  0  0  0
 16 21  1  0  0  0  0
 17 23  1  0  0  0  0
 18 17  2  0  0  0  0
 19 18  1  0  0  0  0
 20 19  2  0  0  0  0
 20 21  1  0  0  0  0
 21 22  2  0  0  0  0
 22 17  1  0  0  0  0
 24 18  1  0  0  0  0
 25 19  1  0  0  0  0
M  END
>  <minimizedAffinity>
-3.75109887

>  <minimizedRMSD>
0.124688894

$$$$
