
 OpenBabel03272509473D

 25 26  0  0  0  0  0  0  0  0999 V2000
   34.2140   28.3900   48.4700 C   0  0  0  0  0  0  0  0  0  0  0  0
   33.3600   29.0870   48.4210 H   0  0  0  0  0  0  0  0  0  0  0  0
   34.9880   28.7850   47.7680 H   0  0  0  0  0  0  0  0  0  0  0  0
   33.8630   27.0150   47.9520 C   0  0  0  0  0  0  0  0  0  0  0  0
   34.7400   26.3580   48.0250 H   0  0  0  0  0  0  0  0  0  0  0  0
   33.0850   26.6150   48.6620 H   0  0  0  0  0  0  0  0  0  0  0  0
   33.2680   27.0180   46.6110 C   0  0  0  0  0  0  0  0  0  0  0  0
   31.9230   26.6660   46.6040 C   0  0  0  0  0  0  0  0  0  0  0  0
   31.3500   26.4110   47.4880 H   0  0  0  0  0  0  0  0  0  0  0  0
   31.1770   26.6110   45.4230 C   0  0  0  0  0  3  0  0  0  0  0  0
   31.7920   26.9160   44.2170 C   0  0  0  0  0  0  0  0  0  0  0  0
   31.1970   26.8660   43.3230 H   0  0  0  0  0  0  0  0  0  0  0  0
   33.1230   27.2600   44.2560 C   0  0  0  0  0  0  0  0  0  0  0  0
   33.6100   27.5000   43.3120 H   0  0  0  0  0  0  0  0  0  0  0  0
   33.8730   27.3200   45.4100 C   0  0  0  0  0  3  0  0  0  0  0  0
   34.7300   28.3110   49.7830 O   0  0  0  0  0  0  0  0  0  0  0  0
   37.3410   30.2280   51.4060 C   0  0  0  0  0  0  0  0  0  0  0  0
   38.0650   30.6670   50.3040 C   0  0  0  0  0  0  0  0  0  0  0  0
   37.6170   30.2790   49.0480 C   0  0  0  0  0  0  0  0  0  0  0  0
   36.4980   29.4960   48.9950 N   0  0  0  0  0  0  0  0  0  0  0  0
   35.8220   29.0900   50.0940 C   0  0  0  0  0  0  0  0  0  0  0  0
   36.2680   29.4740   51.3000 N   0  0  0  0  0  0  0  0  0  0  0  0
   37.7360   30.5600   52.3560 H   0  0  0  0  0  0  0  0  0  0  0  0
   38.9520   31.2840   50.2710 H   0  0  0  0  0  0  0  0  0  0  0  0
   38.1080   30.5650   48.1080 H   0  0  0  0  0  0  0  0  0  0  0  0
  1 16  1  0  0  0  0
  2  1  1  0  0  0  0
  3  1  1  0  0  0  0
  4  5  1  0  0  0  0
  4  1  1  0  0  0  0
  4  6  1  0  0  0  0
  7  4  1  0  0  0  0
  8  7  1  0  0  0  0
  8  9  1  0  0  0  0
 10  8  2  0  0  0  0
 11 13  2  0  0  0  0
 11 10  1  0  0  0  0
 12 11  1  0  0  0  0
 13 15  1  0  0  0  0
 14 13  1  0  0  0  0
 15  7  2  0  0  0  0
 16 21  1  0  0  0  0
 17 23  1  0  0  0  0
 18 17  2  0  0  0  0
 19 18  1  0  0  0  0
 20 19  2  0  0  0  0
 20 21  1  0  0  0  0
 21 22  2  0  0  0  0
 22 17  1  0  0  0  0
 24 18  1  0  0  0  0
 25 19  1  0  0  0  0
M  END
>  <minimizedAffinity>
-3.73686457

>  <minimizedRMSD>
0.258505583

$$$$
