
 OpenBabel03272501583D

 31 33  0  0  0  0  0  0  0  0999 V2000
   32.9190   27.9220   47.8810 C   0  0  0  0  0  0  0  0  0  0  0  0
   32.3110   26.7120   48.0820 C   0  0  0  0  0  0  0  0  0  0  0  0
   30.9500   26.7970   47.8330 C   0  0  0  0  0  0  0  0  0  0  0  0
   30.7750   28.0950   47.4790 N   0  0  0  0  0  0  0  0  0  0  0  0
   31.9190   28.7550   47.5050 N   0  0  0  0  0  0  0  0  0  0  0  0
   32.7550   25.7590   48.3940 H   0  0  0  0  0  0  0  0  0  0  0  0
   30.1250   26.1250   47.8640 H   0  0  0  0  0  0  0  0  0  0  0  0
   29.6480   28.8660   47.0990 C   0  0  0  0  0  0  0  0  0  0  0  0
   28.5570   28.9430   47.9670 C   0  0  0  0  0  0  0  0  0  0  0  0
   28.5910   28.4110   48.9220 H   0  0  0  0  0  0  0  0  0  0  0  0
   27.4590   29.6970   47.5910 C   0  0  0  0  0  0  0  0  0  0  0  0
   27.4990   30.3400   46.3640 C   0  0  0  0  0  0  0  0  0  0  0  0
   26.6750   30.9420   46.0150 H   0  0  0  0  0  0  0  0  0  0  0  0
   28.6000   30.2480   45.5150 C   0  0  0  0  0  0  0  0  0  0  0  0
   28.6370   30.7500   44.5520 H   0  0  0  0  0  0  0  0  0  0  0  0
   29.7050   29.4980   45.8770 C   0  0  0  0  0  0  0  0  0  0  0  0
   34.3890   28.2120   48.0540 C   0  0  0  0  0  0  0  0  0  0  0  0
   34.9440   27.3930   47.5950 H   0  0  0  0  0  0  0  0  0  0  0  0
   34.5720   29.2010   47.5990 H   0  0  0  0  0  0  0  0  0  0  0  0
   34.6320   28.2580   49.5260 C   0  0  0  0  0  0  0  0  0  0  0  0
   34.7290   27.2550   49.9920 H   0  0  0  0  0  0  0  0  0  0  0  0
   33.7840   28.7480   50.0540 H   0  0  0  0  0  0  0  0  0  0  0  0
   37.2300   30.1640   51.3570 C   0  0  0  0  0  0  0  0  0  0  0  0
   38.0150   30.6640   50.2870 C   0  0  0  0  0  0  0  0  0  0  0  0
   37.6480   30.3460   48.9550 C   0  0  0  0  0  0  0  0  0  0  0  0
   36.5560   29.5710   48.7730 N   0  0  0  0  0  0  0  0  0  0  0  0
   35.8340   29.1140   49.8180 C   0  0  0  0  0  0  0  0  0  0  0  0
   36.1640   29.4020   51.0660 N   0  0  0  0  0  0  0  0  0  0  0  0
   37.5560   30.4380   52.3510 H   0  0  0  0  0  0  0  0  0  0  0  0
   38.8790   31.2740   50.3840 H   0  0  0  0  0  0  0  0  0  0  0  0
   38.2360   30.7200   48.1280 H   0  0  0  0  0  0  0  0  0  0  0  0
  1 17  1  0  0  0  0
  1  2  1  0  0  0  0
  2  6  1  0  0  0  0
  3  7  1  0  0  0  0
  3  2  2  0  0  0  0
  4  5  1  0  0  0  0
  4  3  1  0  0  0  0
  5  1  2  0  0  0  0
  8  4  1  0  0  0  0
  8  9  1  0  0  0  0
  9 10  1  0  0  0  0
 11  9  2  0  0  0  0
 12 11  1  0  0  0  0
 13 12  1  0  0  0  0
 14 16  1  0  0  0  0
 14 12  2  0  0  0  0
 15 14  1  0  0  0  0
 16  8  2  0  0  0  0
 17 20  1  0  0  0  0
 18 17  1  0  0  0  0
 19 17  1  0  0  0  0
 20 27  1  0  0  0  0
 20 21  1  0  0  0  0
 20 22  1  0  0  0  0
 23 29  1  0  0  0  0
 24 30  1  0  0  0  0
 24 23  2  0  0  0  0
 25 24  1  0  0  0  0
 26 25  2  0  0  0  0
 26 27  1  0  0  0  0
 27 28  2  0  0  0  0
 28 23  1  0  0  0  0
 31 25  1  0  0  0  0
M  END
>  <minimizedAffinity>
-4.91798592

>  <minimizedRMSD>
1.22100663

$$$$
