
 OpenBabel03272500243D

 31 33  0  0  0  0  0  0  0  0999 V2000
   37.4350   24.1600   32.6370 C   0  0  0  0  0  0  0  0  0  0  0  0
   37.6220   25.5240   32.8470 C   0  0  0  0  0  0  0  0  0  0  0  0
   38.0570   25.6850   34.1350 C   0  0  0  0  0  0  0  0  0  0  0  0
   38.1280   24.4660   34.6780 N   0  0  0  0  0  0  0  0  0  0  0  0
   37.7570   23.5820   33.7800 N   0  0  0  0  0  0  0  0  0  0  0  0
   37.4940   26.4070   32.2200 H   0  0  0  0  0  0  0  0  0  0  0  0
   38.3390   26.5150   34.7780 H   0  0  0  0  0  0  0  0  0  0  0  0
   38.5120   24.0210   35.9760 C   0  0  0  0  0  0  0  0  0  0  0  0
   37.7480   24.4900   37.0240 C   0  0  0  0  0  0  0  0  0  0  0  0
   36.8970   25.1660   36.8600 H   0  0  0  0  0  0  0  0  0  0  0  0
   37.9770   24.1620   38.3580 C   0  0  0  0  0  3  0  0  0  0  0  0
   39.0520   23.3060   38.5990 C   0  0  0  0  0  0  0  0  0  0  0  0
   39.2770   23.0160   39.6180 H   0  0  0  0  0  0  0  0  0  0  0  0
   39.8240   22.8290   37.5560 C   0  0  0  0  0  0  0  0  0  0  0  0
   40.6620   22.1620   37.7390 H   0  0  0  0  0  0  0  0  0  0  0  0
   39.5720   23.1740   36.2440 C   0  0  0  0  0  3  0  0  0  0  0  0
   36.9610   23.6550   31.3230 C   0  0  0  0  0  0  0  0  0  0  0  0
   36.7580   24.5210   30.6190 H   0  0  0  0  0  0  0  0  0  0  0  0
   37.8340   23.1740   30.8600 H   0  0  0  0  0  0  0  0  0  0  0  0
   35.7050   22.8850   31.4100 C   0  0  0  0  0  0  0  0  0  0  0  0
   35.0250   23.0530   30.5210 H   0  0  0  0  0  0  0  0  0  0  0  0
   35.1060   23.3500   32.2510 H   0  0  0  0  0  0  0  0  0  0  0  0
   35.7640   21.4730   31.6600 C   0  0  0  0  0  0  0  0  0  0  0  0
   35.3780   20.9580   32.8680 C   0  0  0  0  0  0  0  0  0  0  0  0
   35.4450   19.5660   33.1150 C   0  0  0  0  0  0  0  0  0  0  0  0
   35.9200   18.7930   32.0630 N   0  0  0  0  0  0  0  0  0  0  0  0
   36.2880   19.3560   30.8910 C   0  0  0  0  0  0  0  0  0  0  0  0
   36.2110   20.6880   30.6920 N   0  0  0  0  0  0  0  0  0  0  0  0
   34.9940   21.4420   33.7480 H   0  0  0  0  0  0  0  0  0  0  0  0
   35.1830   19.0260   33.9900 H   0  0  0  0  0  0  0  0  0  0  0  0
   36.6540   18.7080   30.0990 H   0  0  0  0  0  0  0  0  0  0  0  0
  1  2  1  0  0  0  0
  1  5  2  0  0  0  0
  2  3  2  0  0  0  0
  3  4  1  0  0  0  0
  3  7  1  0  0  0  0
  4  8  1  0  0  0  0
  5  4  1  0  0  0  0
  6  2  1  0  0  0  0
  8 16  2  0  0  0  0
  8  9  1  0  0  0  0
  9 11  2  0  0  0  0
 10  9  1  0  0  0  0
 11 12  1  0  0  0  0
 12 13  1  0  0  0  0
 14 15  1  0  0  0  0
 14 12  2  0  0  0  0
 16 14  1  0  0  0  0
 17 20  1  0  0  0  0
 17  1  1  0  0  0  0
 18 17  1  0  0  0  0
 19 17  1  0  0  0  0
 20 23  1  0  0  0  0
 20 22  1  0  0  0  0
 21 20  1  0  0  0  0
 23 24  1  0  0  0  0
 24 25  2  0  0  0  0
 24 29  1  0  0  0  0
 25 30  1  0  0  0  0
 26 25  1  0  0  0  0
 27 26  2  0  0  0  0
 28 27  1  0  0  0  0
 28 23  2  0  0  0  0
 31 27  1  0  0  0  0
M  END
>  <minimizedAffinity>
-5.20598793

$$$$

 OpenBabel03272500243D

 31 33  0  0  0  0  0  0  0  0999 V2000
   37.2420   25.8680   33.2060 C   0  0  0  0  0  0  0  0  0  0  0  0
   37.0240   26.9670   34.0330 C   0  0  0  0  0  0  0  0  0  0  0  0
   37.4650   26.6330   35.2850 C   0  0  0  0  0  0  0  0  0  0  0  0
   37.9310   25.3820   35.2140 N   0  0  0  0  0  0  0  0  0  0  0  0
   37.7900   24.9500   33.9810 N   0  0  0  0  0  0  0  0  0  0  0  0
   36.6000   27.9590   33.8710 H   0  0  0  0  0  0  0  0  0  0  0  0
   37.5230   27.1130   36.2590 H   0  0  0  0  0  0  0  0  0  0  0  0
   38.5070   24.5220   36.1920 C   0  0  0  0  0  0  0  0  0  0  0  0
   39.6720   23.8830   35.8220 C   0  0  0  0  0  0  0  0  0  0  0  0
   40.1210   24.0340   34.8310 H   0  0  0  0  0  0  0  0  0  0  0  0
   40.3710   23.0070   36.6470 C   0  0  0  0  0  3  0  0  0  0  0  0
   39.8240   22.7940   37.9130 C   0  0  0  0  0  0  0  0  0  0  0  0
   40.3270   22.1220   38.5980 H   0  0  0  0  0  0  0  0  0  0  0  0
   38.6580   23.4290   38.2960 C   0  0  0  0  0  0  0  0  0  0  0  0
   38.2290   23.2660   39.2800 H   0  0  0  0  0  0  0  0  0  0  0  0
   37.9870   24.2920   37.4540 C   0  0  0  0  0  3  0  0  0  0  0  0
   36.8660   25.9150   31.7700 C   0  0  0  0  0  0  0  0  0  0  0  0
   36.3710   26.9060   31.5260 H   0  0  0  0  0  0  0  0  0  0  0  0
   37.8130   25.9800   31.2180 H   0  0  0  0  0  0  0  0  0  0  0  0
   35.9050   24.8640   31.3830 C   0  0  0  0  0  0  0  0  0  0  0  0
   35.2780   25.1520   30.4850 H   0  0  0  0  0  0  0  0  0  0  0  0
   35.1270   24.8270   32.2050 H   0  0  0  0  0  0  0  0  0  0  0  0
   36.3750   23.5230   31.1810 C   0  0  0  0  0  0  0  0  0  0  0  0
   35.5700   22.4490   31.4510 C   0  0  0  0  0  0  0  0  0  0  0  0
   36.0400   21.1270   31.2600 C   0  0  0  0  0  0  0  0  0  0  0  0
   37.3430   21.0170   30.7910 N   0  0  0  0  0  0  0  0  0  0  0  0
   38.0920   22.1130   30.5410 C   0  0  0  0  0  0  0  0  0  0  0  0
   37.6110   23.3580   30.7360 N   0  0  0  0  0  0  0  0  0  0  0  0
   34.5580   22.4020   31.8090 H   0  0  0  0  0  0  0  0  0  0  0  0
   35.5390   20.2070   31.4220 H   0  0  0  0  0  0  0  0  0  0  0  0
   39.1070   21.9730   30.1760 H   0  0  0  0  0  0  0  0  0  0  0  0
  1  5  2  0  0  0  0
  1  2  1  0  0  0  0
  2  3  2  0  0  0  0
  3  7  1  0  0  0  0
  4  3  1  0  0  0  0
  4  8  1  0  0  0  0
  5  4  1  0  0  0  0
  6  2  1  0  0  0  0
  8 16  1  0  0  0  0
  9  8  2  0  0  0  0
  9 11  1  0  0  0  0
 10  9  1  0  0  0  0
 11 12  2  0  0  0  0
 12 14  1  0  0  0  0
 12 13  1  0  0  0  0
 14 15  1  0  0  0  0
 16 14  2  0  0  0  0
 17  1  1  0  0  0  0
 18 17  1  0  0  0  0
 19 17  1  0  0  0  0
 20 17  1  0  0  0  0
 20 22  1  0  0  0  0
 21 20  1  0  0  0  0
 23 20  1  0  0  0  0
 23 24  1  0  0  0  0
 24 29  1  0  0  0  0
 25 30  1  0  0  0  0
 25 24  2  0  0  0  0
 26 25  1  0  0  0  0
 27 28  1  0  0  0  0
 27 26  2  0  0  0  0
 28 23  2  0  0  0  0
 31 27  1  0  0  0  0
M  END
>  <minimizedAffinity>
-5.06552315

$$$$

 OpenBabel03272500243D

 31 33  0  0  0  0  0  0  0  0999 V2000
   37.6850   27.1900   34.0870 C   0  0  0  0  0  0  0  0  0  0  0  0
   37.1960   27.3560   32.7930 C   0  0  0  0  0  0  0  0  0  0  0  0
   36.2470   28.3420   32.8360 C   0  0  0  0  0  0  0  0  0  0  0  0
   36.1680   28.7530   34.1040 N   0  0  0  0  0  0  0  0  0  0  0  0
   37.0220   28.0620   34.8250 N   0  0  0  0  0  0  0  0  0  0  0  0
   37.4190   26.8790   31.8370 H   0  0  0  0  0  0  0  0  0  0  0  0
   35.5870   28.8360   32.1280 H   0  0  0  0  0  0  0  0  0  0  0  0
   35.3630   29.7430   34.7370 C   0  0  0  0  0  0  0  0  0  0  0  0
   36.0410   30.6830   35.4850 C   0  0  0  0  0  0  0  0  0  0  0  0
   37.1350   30.6620   35.5810 H   0  0  0  0  0  0  0  0  0  0  0  0
   35.4190   31.7220   36.1730 C   0  0  0  0  0  3  0  0  0  0  0  0
   34.0290   31.7740   36.0710 C   0  0  0  0  0  0  0  0  0  0  0  0
   33.4920   32.5620   36.5850 H   0  0  0  0  0  0  0  0  0  0  0  0
   33.3380   30.8380   35.3240 C   0  0  0  0  0  0  0  0  0  0  0  0
   32.2560   30.8750   35.2410 H   0  0  0  0  0  0  0  0  0  0  0  0
   33.9840   29.8200   34.6530 C   0  0  0  0  0  3  0  0  0  0  0  0
   38.7370   26.1830   34.3750 C   0  0  0  0  0  0  0  0  0  0  0  0
   39.4010   26.0370   33.4670 H   0  0  0  0  0  0  0  0  0  0  0  0
   39.4180   26.6640   35.0910 H   0  0  0  0  0  0  0  0  0  0  0  0
   38.1970   24.8520   34.7140 C   0  0  0  0  0  0  0  0  0  0  0  0
   38.4370   24.0690   33.9330 H   0  0  0  0  0  0  0  0  0  0  0  0
   37.0710   24.9340   34.6200 H   0  0  0  0  0  0  0  0  0  0  0  0
   38.4770   24.2900   36.0040 C   0  0  0  0  0  0  0  0  0  0  0  0
   37.7470   24.6570   37.1030 C   0  0  0  0  0  0  0  0  0  0  0  0
   38.0310   24.1070   38.3760 C   0  0  0  0  0  0  0  0  0  0  0  0
   39.0770   23.1940   38.4140 N   0  0  0  0  0  0  0  0  0  0  0  0
   39.7640   22.8690   37.2970 C   0  0  0  0  0  0  0  0  0  0  0  0
   39.4650   23.4140   36.1000 N   0  0  0  0  0  0  0  0  0  0  0  0
   36.9230   25.3400   37.2030 H   0  0  0  0  0  0  0  0  0  0  0  0
   37.5590   24.2920   39.3080 H   0  0  0  0  0  0  0  0  0  0  0  0
   40.5740   22.1490   37.3800 H   0  0  0  0  0  0  0  0  0  0  0  0
  1 17  1  0  0  0  0
  1  5  2  0  0  0  0
  2  3  2  0  0  0  0
  2  1  1  0  0  0  0
  3  4  1  0  0  0  0
  4  8  1  0  0  0  0
  4  5  1  0  0  0  0
  6  2  1  0  0  0  0
  7  3  1  0  0  0  0
  8  9  1  0  0  0  0
  9 10  1  0  0  0  0
  9 11  2  0  0  0  0
 12 11  1  0  0  0  0
 12 13  1  0  0  0  0
 14 12  2  0  0  0  0
 15 14  1  0  0  0  0
 16  8  2  0  0  0  0
 16 14  1  0  0  0  0
 17 20  1  0  0  0  0
 17 19  1  0  0  0  0
 18 17  1  0  0  0  0
 20 23  1  0  0  0  0
 21 20  1  0  0  0  0
 22 20  1  0  0  0  0
 23 28  2  0  0  0  0
 23 24  1  0  0  0  0
 24 29  1  0  0  0  0
 24 25  2  0  0  0  0
 25 26  1  0  0  0  0
 25 30  1  0  0  0  0
 27 31  1  0  0  0  0
 27 26  2  0  0  0  0
 28 27  1  0  0  0  0
M  END
>  <minimizedAffinity>
-5.04341412

$$$$

 OpenBabel03272500243D

 31 33  0  0  0  0  0  0  0  0999 V2000
   37.4120   24.5140   32.9470 C   0  0  0  0  0  0  0  0  0  0  0  0
   36.4780   24.9470   32.0080 C   0  0  0  0  0  0  0  0  0  0  0  0
   35.8710   23.8350   31.4910 C   0  0  0  0  0  0  0  0  0  0  0  0
   36.4160   22.7750   32.0940 N   0  0  0  0  0  0  0  0  0  0  0  0
   37.3220   23.1960   32.9470 N   0  0  0  0  0  0  0  0  0  0  0  0
   36.1750   25.9300   31.6460 H   0  0  0  0  0  0  0  0  0  0  0  0
   35.0990   23.6240   30.7540 H   0  0  0  0  0  0  0  0  0  0  0  0
   36.1830   21.3760   31.9600 C   0  0  0  0  0  0  0  0  0  0  0  0
   35.7140   20.7330   33.0860 C   0  0  0  0  0  0  0  0  0  0  0  0
   35.5340   21.2740   34.0250 H   0  0  0  0  0  0  0  0  0  0  0  0
   35.4320   19.3700   33.1400 C   0  0  0  0  0  3  0  0  0  0  0  0
   35.6510   18.6550   31.9620 C   0  0  0  0  0  0  0  0  0  0  0  0
   35.4480   17.5920   31.9450 H   0  0  0  0  0  0  0  0  0  0  0  0
   36.1210   19.2890   30.8260 C   0  0  0  0  0  0  0  0  0  0  0  0
   36.2930   18.7370   29.9070 H   0  0  0  0  0  0  0  0  0  0  0  0
   36.3910   20.6420   30.8060 C   0  0  0  0  0  3  0  0  0  0  0  0
   38.2450   25.4910   33.6920 C   0  0  0  0  0  0  0  0  0  0  0  0
   39.3390   25.1950   33.6400 H   0  0  0  0  0  0  0  0  0  0  0  0
   38.2210   26.4140   33.0960 H   0  0  0  0  0  0  0  0  0  0  0  0
   37.9050   25.5790   35.1250 C   0  0  0  0  0  0  0  0  0  0  0  0
   36.7880   25.6000   35.3110 H   0  0  0  0  0  0  0  0  0  0  0  0
   38.2150   26.6150   35.4610 H   0  0  0  0  0  0  0  0  0  0  0  0
   38.4880   24.6420   36.0420 C   0  0  0  0  0  0  0  0  0  0  0  0
   37.9080   24.3970   37.2580 C   0  0  0  0  0  0  0  0  0  0  0  0
   38.4900   23.4800   38.1660 C   0  0  0  0  0  0  0  0  0  0  0  0
   39.6590   22.8690   37.7310 N   0  0  0  0  0  0  0  0  0  0  0  0
   40.1870   23.1480   36.5190 C   0  0  0  0  0  0  0  0  0  0  0  0
   39.6050   24.0300   35.6810 N   0  0  0  0  0  0  0  0  0  0  0  0
   37.0150   24.7970   37.7040 H   0  0  0  0  0  0  0  0  0  0  0  0
   38.1610   23.1890   39.1310 H   0  0  0  0  0  0  0  0  0  0  0  0
   41.1050   22.6430   36.2260 H   0  0  0  0  0  0  0  0  0  0  0  0
  1 17  1  0  0  0  0
  2  1  1  0  0  0  0
  3  2  2  0  0  0  0
  3  4  1  0  0  0  0
  4  5  1  0  0  0  0
  5  1  2  0  0  0  0
  6  2  1  0  0  0  0
  7  3  1  0  0  0  0
  8  4  1  0  0  0  0
  8  9  1  0  0  0  0
  9 11  2  0  0  0  0
  9 10  1  0  0  0  0
 12 11  1  0  0  0  0
 13 12  1  0  0  0  0
 14 12  2  0  0  0  0
 15 14  1  0  0  0  0
 16 14  1  0  0  0  0
 16  8  2  0  0  0  0
 17 20  1  0  0  0  0
 18 17  1  0  0  0  0
 19 17  1  0  0  0  0
 20 21  1  0  0  0  0
 20 22  1  0  0  0  0
 20 23  1  0  0  0  0
 23 24  1  0  0  0  0
 24 29  1  0  0  0  0
 24 25  2  0  0  0  0
 25 30  1  0  0  0  0
 26 25  1  0  0  0  0
 27 26  2  0  0  0  0
 28 23  2  0  0  0  0
 28 27  1  0  0  0  0
 31 27  1  0  0  0  0
M  END
>  <minimizedAffinity>
-5.03203011

$$$$

 OpenBabel03272500243D

 31 33  0  0  0  0  0  0  0  0999 V2000
   36.6450   27.8990   33.4810 C   0  0  0  0  0  0  0  0  0  0  0  0
   35.9560   28.4150   32.3860 C   0  0  0  0  0  0  0  0  0  0  0  0
   35.2100   29.4720   32.8320 C   0  0  0  0  0  0  0  0  0  0  0  0
   35.4400   29.5880   34.1430 N   0  0  0  0  0  0  0  0  0  0  0  0
   36.2880   28.6510   34.5050 N   0  0  0  0  0  0  0  0  0  0  0  0
   35.9120   28.1470   31.3290 H   0  0  0  0  0  0  0  0  0  0  0  0
   34.5200   30.1930   32.4000 H   0  0  0  0  0  0  0  0  0  0  0  0
   34.9450   30.4960   35.1220 C   0  0  0  0  0  0  0  0  0  0  0  0
   33.5830   30.4620   35.3410 C   0  0  0  0  0  0  0  0  0  0  0  0
   32.9280   29.7750   34.7890 H   0  0  0  0  0  0  0  0  0  0  0  0
   32.9260   31.2780   36.2580 C   0  0  0  0  0  3  0  0  0  0  0  0
   33.7320   32.1640   36.9740 C   0  0  0  0  0  0  0  0  0  0  0  0
   33.2740   32.8220   37.7020 H   0  0  0  0  0  0  0  0  0  0  0  0
   35.0970   32.2060   36.7640 C   0  0  0  0  0  0  0  0  0  0  0  0
   35.7290   32.8930   37.3190 H   0  0  0  0  0  0  0  0  0  0  0  0
   35.7200   31.3840   35.8460 C   0  0  0  0  0  3  0  0  0  0  0  0
   37.5500   26.7320   33.3240 C   0  0  0  0  0  0  0  0  0  0  0  0
   36.9500   25.7950   33.1070 H   0  0  0  0  0  0  0  0  0  0  0  0
   38.0820   26.8960   32.3760 H   0  0  0  0  0  0  0  0  0  0  0  0
   38.3500   26.4450   34.5300 C   0  0  0  0  0  0  0  0  0  0  0  0
   38.2670   27.2560   35.3150 H   0  0  0  0  0  0  0  0  0  0  0  0
   39.4350   26.5340   34.2190 H   0  0  0  0  0  0  0  0  0  0  0  0
   38.1980   25.1780   35.1860 C   0  0  0  0  0  0  0  0  0  0  0  0
   38.0610   25.1030   36.5460 C   0  0  0  0  0  0  0  0  0  0  0  0
   37.9200   23.8510   37.1920 C   0  0  0  0  0  0  0  0  0  0  0  0
   37.9330   22.7420   36.3560 N   0  0  0  0  0  0  0  0  0  0  0  0
   38.0710   22.8750   35.0180 C   0  0  0  0  0  0  0  0  0  0  0  0
   38.2040   24.0850   34.4380 N   0  0  0  0  0  0  0  0  0  0  0  0
   38.0320   25.8760   37.2920 H   0  0  0  0  0  0  0  0  0  0  0  0
   37.8060   23.6370   38.2240 H   0  0  0  0  0  0  0  0  0  0  0  0
   38.0750   21.9750   34.4080 H   0  0  0  0  0  0  0  0  0  0  0  0
  1  5  2  0  0  0  0
  2  3  2  0  0  0  0
  2  1  1  0  0  0  0
  3  4  1  0  0  0  0
  4  5  1  0  0  0  0
  4  8  1  0  0  0  0
  6  2  1  0  0  0  0
  7  3  1  0  0  0  0
  8  9  2  0  0  0  0
  8 16  1  0  0  0  0
  9 11  1  0  0  0  0
 10  9  1  0  0  0  0
 11 12  2  0  0  0  0
 12 13  1  0  0  0  0
 14 12  1  0  0  0  0
 14 15  1  0  0  0  0
 16 14  2  0  0  0  0
 17  1  1  0  0  0  0
 17 20  1  0  0  0  0
 18 17  1  0  0  0  0
 19 17  1  0  0  0  0
 20 23  1  0  0  0  0
 20 21  1  0  0  0  0
 22 20  1  0  0  0  0
 23 24  1  0  0  0  0
 24 25  2  0  0  0  0
 24 29  1  0  0  0  0
 25 30  1  0  0  0  0
 26 25  1  0  0  0  0
 27 26  2  0  0  0  0
 28 27  1  0  0  0  0
 28 23  2  0  0  0  0
 31 27  1  0  0  0  0
M  END
>  <minimizedAffinity>
-5.0023613

$$$$

 OpenBabel03272500243D

 31 33  0  0  0  0  0  0  0  0999 V2000
   37.1740   26.6790   33.7460 C   0  0  0  0  0  0  0  0  0  0  0  0
   37.4340   25.6350   32.8610 C   0  0  0  0  0  0  0  0  0  0  0  0
   37.9450   24.5960   33.5910 C   0  0  0  0  0  0  0  0  0  0  0  0
   37.9910   24.9970   34.8640 N   0  0  0  0  0  0  0  0  0  0  0  0
   37.5330   26.2270   34.9340 N   0  0  0  0  0  0  0  0  0  0  0  0
   37.3120   25.5130   31.7840 H   0  0  0  0  0  0  0  0  0  0  0  0
   38.2980   23.5870   33.3920 H   0  0  0  0  0  0  0  0  0  0  0  0
   38.4260   24.3480   36.0540 C   0  0  0  0  0  0  0  0  0  0  0  0
   37.7570   24.6960   37.2100 C   0  0  0  0  0  0  0  0  0  0  0  0
   36.9410   25.4300   37.2030 H   0  0  0  0  0  0  0  0  0  0  0  0
   38.0470   24.1630   38.4630 C   0  0  0  0  0  3  0  0  0  0  0  0
   39.0810   23.2270   38.5040 C   0  0  0  0  0  0  0  0  0  0  0  0
   39.3500   22.7790   39.4530 H   0  0  0  0  0  0  0  0  0  0  0  0
   39.7580   22.8700   37.3530 C   0  0  0  0  0  0  0  0  0  0  0  0
   40.5630   22.1420   37.3800 H   0  0  0  0  0  0  0  0  0  0  0  0
   39.4470   23.4160   36.1240 C   0  0  0  0  0  3  0  0  0  0  0  0
   36.6090   27.9620   33.2580 C   0  0  0  0  0  0  0  0  0  0  0  0
   37.4240   28.5970   32.7890 H   0  0  0  0  0  0  0  0  0  0  0  0
   35.9860   27.7000   32.3920 H   0  0  0  0  0  0  0  0  0  0  0  0
   36.0070   28.7810   34.3270 C   0  0  0  0  0  0  0  0  0  0  0  0
   36.7420   29.5060   34.7920 H   0  0  0  0  0  0  0  0  0  0  0  0
   35.8020   28.0760   35.1890 H   0  0  0  0  0  0  0  0  0  0  0  0
   34.7910   29.4950   34.0630 C   0  0  0  0  0  0  0  0  0  0  0  0
   34.3350   30.4510   34.9300 C   0  0  0  0  0  0  0  0  0  0  0  0
   33.1300   31.1470   34.6720 C   0  0  0  0  0  0  0  0  0  0  0  0
   32.4710   30.7900   33.5020 N   0  0  0  0  0  0  0  0  0  0  0  0
   32.9680   29.8380   32.6820 C   0  0  0  0  0  0  0  0  0  0  0  0
   34.1200   29.1940   32.9620 N   0  0  0  0  0  0  0  0  0  0  0  0
   34.7480   30.8170   35.8530 H   0  0  0  0  0  0  0  0  0  0  0  0
   32.6560   31.9050   35.2430 H   0  0  0  0  0  0  0  0  0  0  0  0
   32.4140   29.5940   31.7780 H   0  0  0  0  0  0  0  0  0  0  0  0
  1  5  2  0  0  0  0
  2  3  2  0  0  0  0
  2  1  1  0  0  0  0
  3  4  1  0  0  0  0
  4  5  1  0  0  0  0
  4  8  1  0  0  0  0
  6  2  1  0  0  0  0
  7  3  1  0  0  0  0
  8 16  2  0  0  0  0
  8  9  1  0  0  0  0
  9 11  2  0  0  0  0
 10  9  1  0  0  0  0
 11 12  1  0  0  0  0
 12 13  1  0  0  0  0
 14 15  1  0  0  0  0
 14 12  2  0  0  0  0
 16 14  1  0  0  0  0
 17  1  1  0  0  0  0
 17 20  1  0  0  0  0
 18 17  1  0  0  0  0
 19 17  1  0  0  0  0
 20 21  1  0  0  0  0
 20 22  1  0  0  0  0
 23 20  1  0  0  0  0
 23 24  1  0  0  0  0
 24 29  1  0  0  0  0
 25 24  2  0  0  0  0
 25 30  1  0  0  0  0
 26 25  1  0  0  0  0
 27 28  1  0  0  0  0
 27 26  2  0  0  0  0
 28 23  2  0  0  0  0
 31 27  1  0  0  0  0
M  END
>  <minimizedAffinity>
-4.99276304

$$$$

 OpenBabel03272500243D

 31 33  0  0  0  0  0  0  0  0999 V2000
   37.0340   27.0200   33.8310 C   0  0  0  0  0  0  0  0  0  0  0  0
   37.3240   26.0380   32.8870 C   0  0  0  0  0  0  0  0  0  0  0  0
   37.8440   24.9650   33.5580 C   0  0  0  0  0  0  0  0  0  0  0  0
   37.8660   25.2870   34.8540 N   0  0  0  0  0  0  0  0  0  0  0  0
   37.3850   26.5020   34.9940 N   0  0  0  0  0  0  0  0  0  0  0  0
   37.2180   25.9810   31.8030 H   0  0  0  0  0  0  0  0  0  0  0  0
   38.2180   23.9770   33.3030 H   0  0  0  0  0  0  0  0  0  0  0  0
   38.2980   24.5730   36.0080 C   0  0  0  0  0  0  0  0  0  0  0  0
   39.4060   23.7690   35.8390 C   0  0  0  0  0  0  0  0  0  0  0  0
   39.9190   23.6910   34.8710 H   0  0  0  0  0  0  0  0  0  0  0  0
   39.9670   22.9990   36.8550 C   0  0  0  0  0  3  0  0  0  0  0  0
   39.3370   23.0760   38.0980 C   0  0  0  0  0  0  0  0  0  0  0  0
   39.7300   22.4990   38.9250 H   0  0  0  0  0  0  0  0  0  0  0  0
   38.2250   23.8790   38.2790 C   0  0  0  0  0  0  0  0  0  0  0  0
   37.7320   23.9420   39.2440 H   0  0  0  0  0  0  0  0  0  0  0  0
   37.6930   24.6300   37.2510 C   0  0  0  0  0  3  0  0  0  0  0  0
   36.4520   28.3210   33.4150 C   0  0  0  0  0  0  0  0  0  0  0  0
   37.2760   29.0540   33.1510 H   0  0  0  0  0  0  0  0  0  0  0  0
   35.9790   28.1360   32.4400 H   0  0  0  0  0  0  0  0  0  0  0  0
   35.6440   28.9660   34.4690 C   0  0  0  0  0  0  0  0  0  0  0  0
   35.8640   28.5570   35.5010 H   0  0  0  0  0  0  0  0  0  0  0  0
   34.5780   28.6210   34.3060 H   0  0  0  0  0  0  0  0  0  0  0  0
   35.6190   30.3970   34.5560 C   0  0  0  0  0  0  0  0  0  0  0  0
   35.9940   31.0370   35.7070 C   0  0  0  0  0  0  0  0  0  0  0  0
   35.9600   32.4500   35.7940 C   0  0  0  0  0  0  0  0  0  0  0  0
   35.5290   33.1090   34.6500 N   0  0  0  0  0  0  0  0  0  0  0  0
   35.1710   32.4260   33.5400 C   0  0  0  0  0  0  0  0  0  0  0  0
   35.2150   31.0790   33.4950 N   0  0  0  0  0  0  0  0  0  0  0  0
   36.3450   30.6470   36.6450 H   0  0  0  0  0  0  0  0  0  0  0  0
   36.2180   33.0790   36.6070 H   0  0  0  0  0  0  0  0  0  0  0  0
   34.8400   32.9890   32.6710 H   0  0  0  0  0  0  0  0  0  0  0  0
  1  5  2  0  0  0  0
  2  3  2  0  0  0  0
  2  1  1  0  0  0  0
  3  4  1  0  0  0  0
  4  5  1  0  0  0  0
  4  8  1  0  0  0  0
  6  2  1  0  0  0  0
  7  3  1  0  0  0  0
  8 16  1  0  0  0  0
  9  8  2  0  0  0  0
  9 11  1  0  0  0  0
 10  9  1  0  0  0  0
 11 12  2  0  0  0  0
 12 14  1  0  0  0  0
 12 13  1  0  0  0  0
 14 15  1  0  0  0  0
 16 14  2  0  0  0  0
 17  1  1  0  0  0  0
 17 20  1  0  0  0  0
 18 17  1  0  0  0  0
 19 17  1  0  0  0  0
 20 23  1  0  0  0  0
 20 21  1  0  0  0  0
 22 20  1  0  0  0  0
 23 24  1  0  0  0  0
 24 25  2  0  0  0  0
 24 29  1  0  0  0  0
 25 30  1  0  0  0  0
 26 25  1  0  0  0  0
 27 26  2  0  0  0  0
 28 27  1  0  0  0  0
 28 23  2  0  0  0  0
 31 27  1  0  0  0  0
M  END
>  <minimizedAffinity>
-4.97606516

$$$$

 OpenBabel03272500243D

 31 33  0  0  0  0  0  0  0  0999 V2000
   37.0940   26.3980   33.4290 C   0  0  0  0  0  0  0  0  0  0  0  0
   37.2050   27.4980   34.2760 C   0  0  0  0  0  0  0  0  0  0  0  0
   37.7510   27.0560   35.4510 C   0  0  0  0  0  0  0  0  0  0  0  0
   37.9580   25.7430   35.3170 N   0  0  0  0  0  0  0  0  0  0  0  0
   37.5640   25.3750   34.1190 N   0  0  0  0  0  0  0  0  0  0  0  0
   36.9570   28.5550   34.1750 H   0  0  0  0  0  0  0  0  0  0  0  0
   38.0360   27.4930   36.4050 H   0  0  0  0  0  0  0  0  0  0  0  0
   38.4960   24.7670   36.2040 C   0  0  0  0  0  0  0  0  0  0  0  0
   39.6100   24.0900   35.7510 C   0  0  0  0  0  0  0  0  0  0  0  0
   40.0480   24.2980   34.7660 H   0  0  0  0  0  0  0  0  0  0  0  0
   40.2670   23.1030   36.4810 C   0  0  0  0  0  3  0  0  0  0  0  0
   39.7330   22.8160   37.7380 C   0  0  0  0  0  0  0  0  0  0  0  0
   40.2040   22.0580   38.3500 H   0  0  0  0  0  0  0  0  0  0  0  0
   38.6170   23.4890   38.2030 C   0  0  0  0  0  0  0  0  0  0  0  0
   38.1980   23.2690   39.1800 H   0  0  0  0  0  0  0  0  0  0  0  0
   37.9880   24.4620   37.4540 C   0  0  0  0  0  3  0  0  0  0  0  0
   36.5310   26.5490   32.0630 C   0  0  0  0  0  0  0  0  0  0  0  0
   37.3580   26.4960   31.2890 H   0  0  0  0  0  0  0  0  0  0  0  0
   35.9680   25.6250   31.8710 H   0  0  0  0  0  0  0  0  0  0  0  0
   35.8450   27.8380   31.8510 C   0  0  0  0  0  0  0  0  0  0  0  0
   35.6870   28.4150   32.8130 H   0  0  0  0  0  0  0  0  0  0  0  0
   34.7810   27.5860   31.5560 H   0  0  0  0  0  0  0  0  0  0  0  0
   36.3550   28.7500   30.8680 C   0  0  0  0  0  0  0  0  0  0  0  0
   36.1470   30.0980   30.9860 C   0  0  0  0  0  0  0  0  0  0  0  0
   36.6430   30.9950   30.0090 C   0  0  0  0  0  0  0  0  0  0  0  0
   37.3360   30.4110   28.9570 N   0  0  0  0  0  0  0  0  0  0  0  0
   37.5120   29.0720   28.8910 C   0  0  0  0  0  0  0  0  0  0  0  0
   37.0230   28.2480   29.8410 N   0  0  0  0  0  0  0  0  0  0  0  0
   35.6380   30.6670   31.7430 H   0  0  0  0  0  0  0  0  0  0  0  0
   36.5620   32.0520   29.9650 H   0  0  0  0  0  0  0  0  0  0  0  0
   38.0610   28.6640   28.0470 H   0  0  0  0  0  0  0  0  0  0  0  0
  1  5  2  0  0  0  0
  1  2  1  0  0  0  0
  2  3  2  0  0  0  0
  3  7  1  0  0  0  0
  4  3  1  0  0  0  0
  4  8  1  0  0  0  0
  5  4  1  0  0  0  0
  6  2  1  0  0  0  0
  8 16  1  0  0  0  0
  9  8  2  0  0  0  0
  9 11  1  0  0  0  0
 10  9  1  0  0  0  0
 11 12  2  0  0  0  0
 12 14  1  0  0  0  0
 12 13  1  0  0  0  0
 14 15  1  0  0  0  0
 16 14  2  0  0  0  0
 17  1  1  0  0  0  0
 18 17  1  0  0  0  0
 19 17  1  0  0  0  0
 20 17  1  0  0  0  0
 20 21  1  0  0  0  0
 22 20  1  0  0  0  0
 23 24  1  0  0  0  0
 23 20  1  0  0  0  0
 24 29  1  0  0  0  0
 25 24  2  0  0  0  0
 26 25  1  0  0  0  0
 27 26  2  0  0  0  0
 27 28  1  0  0  0  0
 28 23  2  0  0  0  0
 30 25  1  0  0  0  0
 31 27  1  0  0  0  0
M  END
>  <minimizedAffinity>
-4.95604467

$$$$

 OpenBabel03272500243D

 31 33  0  0  0  0  0  0  0  0999 V2000
   36.4570   28.2650   32.9660 C   0  0  0  0  0  0  0  0  0  0  0  0
   36.0120   29.1350   31.9730 C   0  0  0  0  0  0  0  0  0  0  0  0
   35.3530   30.1620   32.5920 C   0  0  0  0  0  0  0  0  0  0  0  0
   35.3990   29.9210   33.9050 N   0  0  0  0  0  0  0  0  0  0  0  0
   36.0530   28.7990   34.1040 N   0  0  0  0  0  0  0  0  0  0  0  0
   36.0910   29.1390   30.8850 H   0  0  0  0  0  0  0  0  0  0  0  0
   34.8360   31.0690   32.2880 H   0  0  0  0  0  0  0  0  0  0  0  0
   34.8880   30.6370   35.0250 C   0  0  0  0  0  0  0  0  0  0  0  0
   33.5470   30.4560   35.2950 C   0  0  0  0  0  0  0  0  0  0  0  0
   32.9200   29.7980   34.6790 H   0  0  0  0  0  0  0  0  0  0  0  0
   32.8780   31.0750   36.3480 C   0  0  0  0  0  3  0  0  0  0  0  0
   33.6490   31.9180   37.1490 C   0  0  0  0  0  0  0  0  0  0  0  0
   33.1800   32.4260   37.9830 H   0  0  0  0  0  0  0  0  0  0  0  0
   34.9930   32.1070   36.8890 C   0  0  0  0  0  0  0  0  0  0  0  0
   35.5970   32.7620   37.5090 H   0  0  0  0  0  0  0  0  0  0  0  0
   35.6280   31.4790   35.8360 C   0  0  0  0  0  3  0  0  0  0  0  0
   37.2150   27.0380   32.6130 C   0  0  0  0  0  0  0  0  0  0  0  0
   38.1790   27.3100   32.0830 H   0  0  0  0  0  0  0  0  0  0  0  0
   37.5770   26.6300   33.5670 H   0  0  0  0  0  0  0  0  0  0  0  0
   36.4800   26.1370   31.7050 C   0  0  0  0  0  0  0  0  0  0  0  0
   36.7270   26.3160   30.6150 H   0  0  0  0  0  0  0  0  0  0  0  0
   35.3940   26.4570   31.7510 H   0  0  0  0  0  0  0  0  0  0  0  0
   36.5170   24.7220   31.9400 C   0  0  0  0  0  0  0  0  0  0  0  0
   35.6270   23.8850   31.3230 C   0  0  0  0  0  0  0  0  0  0  0  0
   35.6600   22.4900   31.5630 C   0  0  0  0  0  0  0  0  0  0  0  0
   36.6390   22.0580   32.4490 N   0  0  0  0  0  0  0  0  0  0  0  0
   37.4920   22.9300   33.0300 C   0  0  0  0  0  0  0  0  0  0  0  0
   37.4300   24.2540   32.7770 N   0  0  0  0  0  0  0  0  0  0  0  0
   34.8360   24.0910   30.6240 H   0  0  0  0  0  0  0  0  0  0  0  0
   35.0440   21.7250   31.1630 H   0  0  0  0  0  0  0  0  0  0  0  0
   38.2410   22.5420   33.7160 H   0  0  0  0  0  0  0  0  0  0  0  0
  1  5  2  0  0  0  0
  2  3  2  0  0  0  0
  2  1  1  0  0  0  0
  3  4  1  0  0  0  0
  4  5  1  0  0  0  0
  4  8  1  0  0  0  0
  6  2  1  0  0  0  0
  7  3  1  0  0  0  0
  8  9  2  0  0  0  0
  8 16  1  0  0  0  0
  9 11  1  0  0  0  0
 10  9  1  0  0  0  0
 11 12  2  0  0  0  0
 12 13  1  0  0  0  0
 14 12  1  0  0  0  0
 14 15  1  0  0  0  0
 16 14  2  0  0  0  0
 17  1  1  0  0  0  0
 17 19  1  0  0  0  0
 18 17  1  0  0  0  0
 20 22  1  0  0  0  0
 20 23  1  0  0  0  0
 20 17  1  0  0  0  0
 21 20  1  0  0  0  0
 23 28  1  0  0  0  0
 24 25  1  0  0  0  0
 24 23  2  0  0  0  0
 25 26  2  0  0  0  0
 26 27  1  0  0  0  0
 27 31  1  0  0  0  0
 28 27  2  0  0  0  0
 29 24  1  0  0  0  0
 30 25  1  0  0  0  0
M  END
>  <minimizedAffinity>
-4.88531208

$$$$
