
 OpenBabel03272509473D

 25 26  0  0  0  0  0  0  0  0999 V2000
   33.8540   28.8150   49.0750 C   0  0  0  0  0  0  0  0  0  0  0  0
   33.4090   29.4680   49.8440 H   0  0  0  0  0  0  0  0  0  0  0  0
   34.0370   29.4570   48.1790 H   0  0  0  0  0  0  0  0  0  0  0  0
   32.9000   27.7380   48.6130 C   0  0  0  0  0  0  0  0  0  0  0  0
   32.6300   27.0950   49.4610 H   0  0  0  0  0  0  0  0  0  0  0  0
   31.9660   28.2810   48.2940 H   0  0  0  0  0  0  0  0  0  0  0  0
   33.3790   26.9760   47.4550 C   0  0  0  0  0  0  0  0  0  0  0  0
   33.4970   27.7410   46.3020 C   0  0  0  0  0  0  0  0  0  0  0  0
   33.2650   28.7990   46.2380 H   0  0  0  0  0  0  0  0  0  0  0  0
   33.9380   27.1970   45.0920 C   0  0  0  0  0  0  0  0  0  0  0  0
   34.2700   25.8500   45.0340 C   0  0  0  0  0  0  0  0  0  0  0  0
   34.6050   25.4550   44.0940 H   0  0  0  0  0  0  0  0  0  0  0  0
   34.1420   25.1190   46.1910 C   0  0  0  0  0  0  0  0  0  0  0  0
   34.4000   24.0620   46.1520 H   0  0  0  0  0  0  0  0  0  0  0  0
   33.7090   25.6390   47.3910 C   0  0  0  0  0  0  0  0  0  0  0  0
   35.0640   28.2460   49.5320 O   0  0  0  0  0  0  0  0  0  0  0  0
   37.4280   30.2930   51.3620 C   0  0  0  0  0  0  0  0  0  0  0  0
   38.1480   30.8580   50.3160 C   0  0  0  0  0  0  0  0  0  0  0  0
   37.7830   30.5040   49.0240 C   0  0  0  0  0  0  0  0  0  0  0  0
   36.7430   29.6280   48.8820 N   0  0  0  0  0  0  0  0  0  0  0  0
   36.0680   29.1010   49.9290 C   0  0  0  0  0  0  0  0  0  0  0  0
   36.4330   29.4530   51.1720 N   0  0  0  0  0  0  0  0  0  0  0  0
   37.7550   30.6040   52.3440 H   0  0  0  0  0  0  0  0  0  0  0  0
   38.9750   31.5530   50.3530 H   0  0  0  0  0  0  0  0  0  0  0  0
   38.2790   30.8870   48.1210 H   0  0  0  0  0  0  0  0  0  0  0  0
  1 16  1  0  0  0  0
  1  2  1  0  0  0  0
  3  1  1  0  0  0  0
  4  1  1  0  0  0  0
  4  5  1  0  0  0  0
  6  4  1  0  0  0  0
  7  4  1  0  0  0  0
  8  7  2  0  0  0  0
  9  8  1  0  0  0  0
 10  8  1  0  0  0  0
 11 10  2  0  0  0  0
 11 13  1  0  0  0  0
 12 11  1  0  0  0  0
 13 15  2  0  0  0  0
 14 13  1  0  0  0  0
 15  7  1  0  0  0  0
 16 21  1  0  0  0  0
 17 23  1  0  0  0  0
 18 24  1  0  0  0  0
 18 17  2  0  0  0  0
 19 18  1  0  0  0  0
 20 19  2  0  0  0  0
 20 21  1  0  0  0  0
 21 22  2  0  0  0  0
 22 17  1  0  0  0  0
 25 19  1  0  0  0  0
M  END
>  <minimizedAffinity>
-4.24060535

>  <minimizedRMSD>
1.36808074

$$$$
