
 OpenBabel03272508293D

 38 41  0  0  1  0  0  0  0  0999 V2000
   35.2870   25.3910   31.1350 C   0  0  2  0  0  0  0  0  0  0  0  0
   36.4720   26.3430   31.1340 C   0  0  2  0  0  0  0  0  0  0  0  0
   37.3460   25.8360   32.0540 O   0  0  0  0  0  0  0  0  0  0  0  0
   37.1530   24.5030   32.2190 C   0  0  0  0  0  0  0  0  0  0  0  0
   36.0390   24.0660   31.2950 C   0  0  1  0  0  0  0  0  0  0  0  0
   34.6250   25.5240   32.0040 H   0  0  0  0  0  0  0  0  0  0  0  0
   36.9210   26.3190   30.1370 H   0  0  0  0  0  0  0  0  0  0  0  0
   37.0310   24.1790   33.2570 H   0  0  0  0  0  0  0  0  0  0  0  0
   38.0850   23.9800   31.8540 H   0  0  0  0  0  0  0  0  0  0  0  0
   36.4350   23.8000   30.3000 H   0  0  0  0  0  0  0  0  0  0  0  0
   36.1740   28.2680   32.8410 C   0  0  1  0  0  0  0  0  0  0  0  0
   35.9570   27.6880   31.5360 C   0  0  1  0  0  0  0  0  0  0  0  0
   36.8500   28.8840   31.6050 C   0  0  0  0  0  0  0  0  0  0  0  0
   36.9230   27.9930   33.6020 H   0  0  0  0  0  0  0  0  0  0  0  0
   34.9490   27.8990   31.0760 H   0  0  0  0  0  0  0  0  0  0  0  0
   36.4680   29.8710   31.2370 H   0  0  0  0  0  0  0  0  0  0  0  0
   37.9360   28.7610   31.4960 H   0  0  0  0  0  0  0  0  0  0  0  0
   35.1510   29.2150   33.4530 C   0  0  0  0  0  0  0  0  0  0  0  0
   35.5720   29.9820   34.5490 C   0  0  0  0  0  0  0  0  0  0  0  0
   34.6150   30.8150   35.0870 C   0  0  0  0  0  0  0  0  0  0  0  0
   33.3470   30.8640   34.5590 N   0  0  0  0  0  0  0  0  0  0  0  0
   32.9860   30.1050   33.5010 C   0  0  0  0  0  0  0  0  0  0  0  0
   33.8970   29.2660   32.9340 N   0  0  0  0  0  0  0  0  0  0  0  0
   36.5770   29.9040   34.9200 H   0  0  0  0  0  0  0  0  0  0  0  0
   34.8630   31.4400   35.9350 H   0  0  0  0  0  0  0  0  0  0  0  0
   31.9930   30.1380   33.0830 H   0  0  0  0  0  0  0  0  0  0  0  0
   34.5470   25.4160   29.9690 O   0  0  0  0  0  0  0  0  0  0  0  0
   35.1920   25.2880   29.2070 H   0  0  0  0  0  0  0  0  0  0  0  0
   35.2350   23.0760   31.7870 O   0  0  0  0  0  0  0  0  0  0  0  0
   35.4770   21.7350   31.9150 C   0  0  0  0  0  0  0  0  0  0  0  0
   35.2740   20.9690   33.0470 C   0  0  0  0  0  0  0  0  0  0  0  0
   34.8870   21.4770   33.9200 H   0  0  0  0  0  0  0  0  0  0  0  0
   35.5480   19.6140   33.0880 C   0  0  0  0  0  3  0  0  0  0  0  0
   36.0390   19.0660   31.9230 C   0  0  0  0  0  0  0  0  0  0  0  0
   36.2560   17.9980   31.9480 H   0  0  0  0  0  0  0  0  0  0  0  0
   36.2690   19.7580   30.7510 C   0  0  0  0  0  0  0  0  0  0  0  0
   36.6600   19.2440   29.8750 H   0  0  0  0  0  0  0  0  0  0  0  0
   35.9720   21.1190   30.7810 C   0  0  0  0  0  3  0  0  0  0  0  0
  1  5  1  0  0  0  0
  1  6  1  1  0  0  0
  2  7  1  6  0  0  0
  2  1  1  0  0  0  0
  2 12  1  0  0  0  0
  2  3  1  0  0  0  0
  3  4  1  0  0  0  0
  4  8  1  0  0  0  0
  5 10  1  6  0  0  0
  5 29  1  0  0  0  0
  5  4  1  0  0  0  0
  9  4  1  0  0  0  0
 11 18  1  0  0  0  0
 11 14  1  1  0  0  0
 12 15  1  6  0  0  0
 12 13  1  0  0  0  0
 12 11  1  0  0  0  0
 13 11  1  0  0  0  0
 16 13  1  0  0  0  0
 17 13  1  0  0  0  0
 18 19  1  0  0  0  0
 19 24  1  0  0  0  0
 19 20  2  0  0  0  0
 20 25  1  0  0  0  0
 21 20  1  0  0  0  0
 22 21  2  0  0  0  0
 23 18  2  0  0  0  0
 23 22  1  0  0  0  0
 26 22  1  0  0  0  0
 27  1  1  0  0  0  0
 28 27  1  0  0  0  0
 29 30  1  0  0  0  0
 30 31  1  0  0  0  0
 31 33  2  0  0  0  0
 31 32  1  0  0  0  0
 34 35  1  0  0  0  0
 34 33  1  0  0  0  0
 36 38  1  0  0  0  0
 36 34  2  0  0  0  0
 37 36  1  0  0  0  0
 38 30  2  0  0  0  0
M  END
>  <minimizedAffinity>
-5.66253424

$$$$

 OpenBabel03272508293D

 38 41  0  0  1  0  0  0  0  0999 V2000
   37.1840   27.6970   34.7300 C   0  0  2  0  0  0  0  0  0  0  0  0
   38.1600   27.1550   33.6990 C   0  0  2  0  0  0  0  0  0  0  0  0
   37.4460   27.0550   32.5390 O   0  0  0  0  0  0  0  0  0  0  0  0
   36.3950   27.9140   32.5450 C   0  0  0  0  0  0  0  0  0  0  0  0
   36.4180   28.6860   33.8450 C   0  0  1  0  0  0  0  0  0  0  0  0
   36.4770   26.9390   35.0990 H   0  0  0  0  0  0  0  0  0  0  0  0
   38.9660   27.8860   33.5830 H   0  0  0  0  0  0  0  0  0  0  0  0
   35.4270   27.4620   32.3070 H   0  0  0  0  0  0  0  0  0  0  0  0
   36.5750   28.6730   31.7280 H   0  0  0  0  0  0  0  0  0  0  0  0
   37.0470   29.5880   33.7540 H   0  0  0  0  0  0  0  0  0  0  0  0
   38.0150   25.1240   35.3000 C   0  0  1  0  0  0  0  0  0  0  0  0
   38.6200   25.8180   34.1870 C   0  0  1  0  0  0  0  0  0  0  0  0
   37.8690   24.5650   33.8750 C   0  0  0  0  0  0  0  0  0  0  0  0
   37.0260   25.2890   35.7600 H   0  0  0  0  0  0  0  0  0  0  0  0
   39.7400   25.7110   34.1030 H   0  0  0  0  0  0  0  0  0  0  0  0
   38.4410   23.6370   33.6160 H   0  0  0  0  0  0  0  0  0  0  0  0
   36.8830   24.6260   33.3960 H   0  0  0  0  0  0  0  0  0  0  0  0
   38.8400   24.2000   36.1840 C   0  0  0  0  0  0  0  0  0  0  0  0
   38.3110   23.8880   37.4460 C   0  0  0  0  0  0  0  0  0  0  0  0
   39.0940   23.0630   38.2240 C   0  0  0  0  0  0  0  0  0  0  0  0
   40.3020   22.5980   37.7640 N   0  0  0  0  0  0  0  0  0  0  0  0
   40.7720   22.9260   36.5400 C   0  0  0  0  0  0  0  0  0  0  0  0
   40.0360   23.7380   35.7330 N   0  0  0  0  0  0  0  0  0  0  0  0
   37.3610   24.2800   37.7540 H   0  0  0  0  0  0  0  0  0  0  0  0
   38.7540   22.7770   39.2110 H   0  0  0  0  0  0  0  0  0  0  0  0
   41.7190   22.5650   36.1740 H   0  0  0  0  0  0  0  0  0  0  0  0
   37.7900   28.3350   35.7950 O   0  0  0  0  0  0  0  0  0  0  0  0
   38.4210   29.0180   35.4100 H   0  0  0  0  0  0  0  0  0  0  0  0
   35.1890   28.9900   34.3590 O   0  0  0  0  0  0  0  0  0  0  0  0
   34.7820   30.0920   35.0600 C   0  0  0  0  0  0  0  0  0  0  0  0
   33.4870   30.3880   35.4440 C   0  0  0  0  0  0  0  0  0  0  0  0
   32.7190   29.6800   35.1640 H   0  0  0  0  0  0  0  0  0  0  0  0
   33.1640   31.5290   36.1540 C   0  0  0  0  0  3  0  0  0  0  0  0
   34.2180   32.3650   36.4600 C   0  0  0  0  0  0  0  0  0  0  0  0
   33.9710   33.2660   37.0190 H   0  0  0  0  0  0  0  0  0  0  0  0
   35.5360   32.1430   36.1160 C   0  0  0  0  0  0  0  0  0  0  0  0
   36.3070   32.8570   36.3990 H   0  0  0  0  0  0  0  0  0  0  0  0
   35.7900   30.9740   35.4010 C   0  0  0  0  0  3  0  0  0  0  0  0
  1  6  1  1  0  0  0
  1 27  1  0  0  0  0
  2  7  1  6  0  0  0
  2 12  1  0  0  0  0
  2  1  1  0  0  0  0
  3  4  1  0  0  0  0
  3  2  1  0  0  0  0
  4  5  1  0  0  0  0
  5 10  1  6  0  0  0
  5 29  1  0  0  0  0
  5  1  1  0  0  0  0
  8  4  1  0  0  0  0
  9  4  1  0  0  0  0
 11 14  1  1  0  0  0
 11 18  1  0  0  0  0
 12 15  1  6  0  0  0
 12 11  1  0  0  0  0
 13 12  1  0  0  0  0
 13 11  1  0  0  0  0
 16 13  1  0  0  0  0
 17 13  1  0  0  0  0
 18 19  1  0  0  0  0
 19 24  1  0  0  0  0
 19 20  2  0  0  0  0
 20 25  1  0  0  0  0
 21 20  1  0  0  0  0
 22 21  2  0  0  0  0
 23 18  2  0  0  0  0
 23 22  1  0  0  0  0
 26 22  1  0  0  0  0
 28 27  1  0  0  0  0
 29 30  1  0  0  0  0
 30 38  2  0  0  0  0
 30 31  1  0  0  0  0
 31 33  2  0  0  0  0
 32 31  1  0  0  0  0
 33 34  1  0  0  0  0
 34 35  1  0  0  0  0
 36 37  1  0  0  0  0
 36 34  2  0  0  0  0
 38 36  1  0  0  0  0
M  END
>  <minimizedAffinity>
-5.44976711

$$$$

 OpenBabel03272508293D

 38 41  0  0  1  0  0  0  0  0999 V2000
   39.0980   23.9340   34.4420 C   0  0  2  0  0  0  0  0  0  0  0  0
   38.9710   24.8910   35.6160 C   0  0  2  0  0  0  0  0  0  0  0  0
   37.9390   24.4070   36.3690 O   0  0  0  0  0  0  0  0  0  0  0  0
   37.7710   23.0760   36.1590 C   0  0  0  0  0  0  0  0  0  0  0  0
   38.8180   22.6150   35.1700 C   0  0  1  0  0  0  0  0  0  0  0  0
   38.3220   24.0820   33.6760 H   0  0  0  0  0  0  0  0  0  0  0  0
   39.9040   24.8480   36.1860 H   0  0  0  0  0  0  0  0  0  0  0  0
   36.7500   22.7730   35.9090 H   0  0  0  0  0  0  0  0  0  0  0  0
   38.0060   22.5500   37.1300 H   0  0  0  0  0  0  0  0  0  0  0  0
   39.7490   22.3310   35.6880 H   0  0  0  0  0  0  0  0  0  0  0  0
   37.3410   26.8170   35.0360 C   0  0  1  0  0  0  0  0  0  0  0  0
   38.6650   26.2420   35.0530 C   0  0  1  0  0  0  0  0  0  0  0  0
   38.4310   27.4260   35.9330 C   0  0  0  0  0  0  0  0  0  0  0  0
   36.4570   26.5320   35.6310 H   0  0  0  0  0  0  0  0  0  0  0  0
   39.3000   26.4660   34.1470 H   0  0  0  0  0  0  0  0  0  0  0  0
   38.8590   28.4190   35.6360 H   0  0  0  0  0  0  0  0  0  0  0  0
   38.3410   27.2900   37.0190 H   0  0  0  0  0  0  0  0  0  0  0  0
   36.9220   27.7760   33.9300 C   0  0  0  0  0  0  0  0  0  0  0  0
   35.9390   28.7250   34.2510 C   0  0  0  0  0  0  0  0  0  0  0  0
   35.5740   29.5640   33.2210 C   0  0  0  0  0  0  0  0  0  0  0  0
   36.1530   29.4510   31.9800 N   0  0  0  0  0  0  0  0  0  0  0  0
   37.0970   28.5200   31.7170 C   0  0  0  0  0  0  0  0  0  0  0  0
   37.4920   27.6670   32.7020 N   0  0  0  0  0  0  0  0  0  0  0  0
   35.5200   28.7690   35.2380 H   0  0  0  0  0  0  0  0  0  0  0  0
   34.8220   30.3240   33.3900 H   0  0  0  0  0  0  0  0  0  0  0  0
   37.5540   28.4250   30.7460 H   0  0  0  0  0  0  0  0  0  0  0  0
   40.3480   23.9320   33.8540 O   0  0  0  0  0  0  0  0  0  0  0  0
   41.0200   23.7900   34.5890 H   0  0  0  0  0  0  0  0  0  0  0  0
   38.4090   21.6320   34.3120 O   0  0  0  0  0  0  0  0  0  0  0  0
   37.4110   21.6480   33.3760 C   0  0  0  0  0  0  0  0  0  0  0  0
   37.4450   22.2940   32.1540 C   0  0  0  0  0  0  0  0  0  0  0  0
   38.3460   22.8410   31.9120 H   0  0  0  0  0  0  0  0  0  0  0  0
   36.3870   22.2580   31.2640 C   0  0  0  0  0  3  0  0  0  0  0  0
   35.2860   21.5330   31.6700 C   0  0  0  0  0  0  0  0  0  0  0  0
   34.4480   21.5000   30.9740 H   0  0  0  0  0  0  0  0  0  0  0  0
   35.1720   20.8600   32.8700 C   0  0  0  0  0  0  0  0  0  0  0  0
   34.2640   20.3120   33.1110 H   0  0  0  0  0  0  0  0  0  0  0  0
   36.2760   20.9400   33.7180 C   0  0  0  0  0  3  0  0  0  0  0  0
  1  6  1  6  0  0  0
  1  5  1  0  0  0  0
  1  2  1  0  0  0  0
  2  7  1  1  0  0  0
  2  3  1  0  0  0  0
  4  3  1  0  0  0  0
  4  9  1  0  0  0  0
  5 10  1  1  0  0  0
  5  4  1  0  0  0  0
  8  4  1  0  0  0  0
 11 12  1  0  0  0  0
 11 14  1  1  0  0  0
 11 13  1  0  0  0  0
 12 15  1  6  0  0  0
 12  2  1  0  0  0  0
 12 13  1  0  0  0  0
 13 17  1  0  0  0  0
 16 13  1  0  0  0  0
 18 19  1  0  0  0  0
 18 11  1  0  0  0  0
 19 24  1  0  0  0  0
 20 25  1  0  0  0  0
 20 19  2  0  0  0  0
 21 20  1  0  0  0  0
 22 21  2  0  0  0  0
 22 23  1  0  0  0  0
 23 18  2  0  0  0  0
 26 22  1  0  0  0  0
 27  1  1  0  0  0  0
 27 28  1  0  0  0  0
 29  5  1  0  0  0  0
 30 38  1  0  0  0  0
 30 29  1  0  0  0  0
 31 30  2  0  0  0  0
 32 31  1  0  0  0  0
 33 34  2  0  0  0  0
 33 31  1  0  0  0  0
 34 36  1  0  0  0  0
 35 34  1  0  0  0  0
 36 37  1  0  0  0  0
 36 38  2  0  0  0  0
M  END
>  <minimizedAffinity>
-5.44950962

$$$$

 OpenBabel03272508293D

 38 41  0  0  1  0  0  0  0  0999 V2000
   36.2120   25.0880   31.3320 C   0  0  2  0  0  0  0  0  0  0  0  0
   37.5970   25.6920   31.1670 C   0  0  2  0  0  0  0  0  0  0  0  0
   38.4520   24.8120   31.7680 O   0  0  0  0  0  0  0  0  0  0  0  0
   37.9180   23.5640   31.7970 C   0  0  0  0  0  0  0  0  0  0  0  0
   36.5640   23.6110   31.1250 C   0  0  1  0  0  0  0  0  0  0  0  0
   35.8040   25.2100   32.3460 H   0  0  0  0  0  0  0  0  0  0  0  0
   37.8120   25.7510   30.0950 H   0  0  0  0  0  0  0  0  0  0  0  0
   37.9160   23.0850   32.7800 H   0  0  0  0  0  0  0  0  0  0  0  0
   38.5660   22.9060   31.1480 H   0  0  0  0  0  0  0  0  0  0  0  0
   36.6600   23.4530   30.0370 H   0  0  0  0  0  0  0  0  0  0  0  0
   36.7080   27.3350   32.9610 C   0  0  1  0  0  0  0  0  0  0  0  0
   37.5850   27.0180   31.8570 C   0  0  1  0  0  0  0  0  0  0  0  0
   38.2240   27.2160   33.1930 C   0  0  0  0  0  0  0  0  0  0  0  0
   36.1540   26.6460   33.6210 H   0  0  0  0  0  0  0  0  0  0  0  0
   37.7730   27.8630   31.1340 H   0  0  0  0  0  0  0  0  0  0  0  0
   38.7980   28.1570   33.3890 H   0  0  0  0  0  0  0  0  0  0  0  0
   38.5920   26.3470   33.7550 H   0  0  0  0  0  0  0  0  0  0  0  0
   36.2160   28.7580   33.1810 C   0  0  0  0  0  0  0  0  0  0  0  0
   36.1550   29.5910   32.0540 C   0  0  0  0  0  0  0  0  0  0  0  0
   35.7200   30.8770   32.2950 C   0  0  0  0  0  0  0  0  0  0  0  0
   35.3790   31.2780   33.5640 N   0  0  0  0  0  0  0  0  0  0  0  0
   35.4540   30.4390   34.6210 C   0  0  0  0  0  0  0  0  0  0  0  0
   35.8780   29.1590   34.4340 N   0  0  0  0  0  0  0  0  0  0  0  0
   36.4340   29.2240   31.0850 H   0  0  0  0  0  0  0  0  0  0  0  0
   35.6450   31.5790   31.4760 H   0  0  0  0  0  0  0  0  0  0  0  0
   35.1880   30.7490   35.6190 H   0  0  0  0  0  0  0  0  0  0  0  0
   35.2950   25.5250   30.3960 O   0  0  0  0  0  0  0  0  0  0  0  0
   35.7100   25.3900   29.4900 H   0  0  0  0  0  0  0  0  0  0  0  0
   35.6230   22.7790   31.6630 O   0  0  0  0  0  0  0  0  0  0  0  0
   35.6720   21.4290   31.8830 C   0  0  0  0  0  0  0  0  0  0  0  0
   35.3930   20.7810   33.0710 C   0  0  0  0  0  0  0  0  0  0  0  0
   35.1070   21.3990   33.9110 H   0  0  0  0  0  0  0  0  0  0  0  0
   35.4680   19.4070   33.2050 C   0  0  0  0  0  3  0  0  0  0  0  0
   35.8420   18.7130   32.0740 C   0  0  0  0  0  0  0  0  0  0  0  0
   35.9040   17.6300   32.1720 H   0  0  0  0  0  0  0  0  0  0  0  0
   36.1370   19.2810   30.8510 C   0  0  0  0  0  0  0  0  0  0  0  0
   36.4250   18.6570   30.0080 H   0  0  0  0  0  0  0  0  0  0  0  0
   36.0410   20.6710   30.7880 C   0  0  0  0  0  3  0  0  0  0  0  0
  1  6  1  1  0  0  0
  2  7  1  6  0  0  0
  2  1  1  0  0  0  0
  2  3  1  0  0  0  0
  2 12  1  0  0  0  0
  3  4  1  0  0  0  0
  4  8  1  0  0  0  0
  5 10  1  6  0  0  0
  5  1  1  0  0  0  0
  5 29  1  0  0  0  0
  5  4  1  0  0  0  0
  9  4  1  0  0  0  0
 11 18  1  0  0  0  0
 11 13  1  0  0  0  0
 11 14  1  1  0  0  0
 12 15  1  6  0  0  0
 12 11  1  0  0  0  0
 12 13  1  0  0  0  0
 13 16  1  0  0  0  0
 13 17  1  0  0  0  0
 18 23  1  0  0  0  0
 19 20  1  0  0  0  0
 19 18  2  0  0  0  0
 20 21  2  0  0  0  0
 21 22  1  0  0  0  0
 22 26  1  0  0  0  0
 23 22  2  0  0  0  0
 24 19  1  0  0  0  0
 25 20  1  0  0  0  0
 27  1  1  0  0  0  0
 28 27  1  0  0  0  0
 29 30  1  0  0  0  0
 30 31  1  0  0  0  0
 31 33  2  0  0  0  0
 31 32  1  0  0  0  0
 34 35  1  0  0  0  0
 34 33  1  0  0  0  0
 36 34  2  0  0  0  0
 37 36  1  0  0  0  0
 38 36  1  0  0  0  0
 38 30  2  0  0  0  0
M  END
>  <minimizedAffinity>
-5.38223982

$$$$

 OpenBabel03272508293D

 38 41  0  0  1  0  0  0  0  0999 V2000
   35.8720   27.6260   31.6990 C   0  0  2  0  0  0  0  0  0  0  0  0
   36.5080   28.3630   32.8650 C   0  0  2  0  0  0  0  0  0  0  0  0
   36.8060   27.3990   33.7860 O   0  0  0  0  0  0  0  0  0  0  0  0
   36.9510   26.1890   33.1880 C   0  0  0  0  0  0  0  0  0  0  0  0
   36.7450   26.3660   31.7010 C   0  0  1  0  0  0  0  0  0  0  0  0
   34.8300   27.3280   31.8900 H   0  0  0  0  0  0  0  0  0  0  0  0
   37.4280   28.8330   32.5040 H   0  0  0  0  0  0  0  0  0  0  0  0
   36.3610   25.3810   33.6320 H   0  0  0  0  0  0  0  0  0  0  0  0
   38.0270   25.8760   33.3200 H   0  0  0  0  0  0  0  0  0  0  0  0
   37.6930   26.6320   31.2020 H   0  0  0  0  0  0  0  0  0  0  0  0
   35.7580   30.2760   34.4410 C   0  0  1  0  0  0  0  0  0  0  0  0
   35.4930   29.3330   33.3800 C   0  0  1  0  0  0  0  0  0  0  0  0
   35.5250   30.7790   33.0060 C   0  0  0  0  0  0  0  0  0  0  0  0
   36.7310   30.6260   34.8260 H   0  0  0  0  0  0  0  0  0  0  0  0
   34.4570   28.8860   33.3800 H   0  0  0  0  0  0  0  0  0  0  0  0
   34.5620   31.3060   32.7870 H   0  0  0  0  0  0  0  0  0  0  0  0
   36.3860   31.1800   32.4550 H   0  0  0  0  0  0  0  0  0  0  0  0
   34.6480   30.7250   35.3810 C   0  0  0  0  0  0  0  0  0  0  0  0
   34.9630   31.7380   36.2990 C   0  0  0  0  0  0  0  0  0  0  0  0
   33.9390   32.1060   37.1440 C   0  0  0  0  0  0  0  0  0  0  0  0
   32.7080   31.5010   37.0640 N   0  0  0  0  0  0  0  0  0  0  0  0
   32.4500   30.5280   36.1610 C   0  0  0  0  0  0  0  0  0  0  0  0
   33.4290   30.1290   35.3040 N   0  0  0  0  0  0  0  0  0  0  0  0
   35.9430   32.1760   36.3170 H   0  0  0  0  0  0  0  0  0  0  0  0
   34.1040   32.8810   37.8800 H   0  0  0  0  0  0  0  0  0  0  0  0
   31.4860   30.0500   36.0940 H   0  0  0  0  0  0  0  0  0  0  0  0
   35.9590   28.2990   30.4950 O   0  0  0  0  0  0  0  0  0  0  0  0
   36.9250   28.5450   30.3630 H   0  0  0  0  0  0  0  0  0  0  0  0
   36.1340   25.3170   31.0730 O   0  0  0  0  0  0  0  0  0  0  0  0
   36.4970   23.9980   31.0190 C   0  0  0  0  0  0  0  0  0  0  0  0
   35.6990   22.9150   31.3320 C   0  0  0  0  0  0  0  0  0  0  0  0
   34.6880   23.1260   31.6520 H   0  0  0  0  0  0  0  0  0  0  0  0
   36.1490   21.6100   31.2490 C   0  0  0  0  0  3  0  0  0  0  0  0
   37.4540   21.4510   30.8310 C   0  0  0  0  0  0  0  0  0  0  0  0
   37.8160   20.4260   30.7630 H   0  0  0  0  0  0  0  0  0  0  0  0
   38.3160   22.4770   30.4990 C   0  0  0  0  0  0  0  0  0  0  0  0
   39.3320   22.2610   30.1780 H   0  0  0  0  0  0  0  0  0  0  0  0
   37.7950   23.7660   30.6070 C   0  0  0  0  0  3  0  0  0  0  0  0
  1  5  1  0  0  0  0
  1  6  1  1  0  0  0
  1  2  1  0  0  0  0
  2  7  1  6  0  0  0
  2 12  1  0  0  0  0
  2  3  1  0  0  0  0
  4  9  1  0  0  0  0
  4  8  1  0  0  0  0
  4  3  1  0  0  0  0
  5 10  1  6  0  0  0
  5  4  1  0  0  0  0
 11 14  1  1  0  0  0
 11 18  1  0  0  0  0
 12 15  1  1  0  0  0
 12 11  1  0  0  0  0
 13 12  1  0  0  0  0
 13 11  1  0  0  0  0
 16 13  1  0  0  0  0
 17 13  1  0  0  0  0
 18 19  1  0  0  0  0
 19 24  1  0  0  0  0
 19 20  2  0  0  0  0
 20 25  1  0  0  0  0
 21 20  1  0  0  0  0
 22 21  2  0  0  0  0
 23 18  2  0  0  0  0
 23 22  1  0  0  0  0
 26 22  1  0  0  0  0
 27  1  1  0  0  0  0
 28 27  1  0  0  0  0
 29  5  1  0  0  0  0
 30 29  1  0  0  0  0
 30 31  1  0  0  0  0
 31 32  1  0  0  0  0
 33 31  2  0  0  0  0
 34 33  1  0  0  0  0
 35 34  1  0  0  0  0
 36 38  1  0  0  0  0
 36 34  2  0  0  0  0
 37 36  1  0  0  0  0
 38 30  2  0  0  0  0
M  END
>  <minimizedAffinity>
-5.30294371

$$$$

 OpenBabel03272508293D

 38 41  0  0  1  0  0  0  0  0999 V2000
   38.6000   25.1670   32.4070 C   0  0  2  0  0  0  0  0  0  0  0  0
   37.5480   25.6030   31.4010 C   0  0  2  0  0  0  0  0  0  0  0  0
   36.7710   26.5140   32.0580 O   0  0  0  0  0  0  0  0  0  0  0  0
   37.4600   27.0900   33.0760 C   0  0  0  0  0  0  0  0  0  0  0  0
   38.8580   26.5150   33.0890 C   0  0  1  0  0  0  0  0  0  0  0  0
   38.2160   24.4630   33.1590 H   0  0  0  0  0  0  0  0  0  0  0  0
   38.0630   26.0850   30.5630 H   0  0  0  0  0  0  0  0  0  0  0  0
   36.9550   27.0690   34.0460 H   0  0  0  0  0  0  0  0  0  0  0  0
   37.5750   28.1850   32.8270 H   0  0  0  0  0  0  0  0  0  0  0  0
   39.5260   27.0890   32.4240 H   0  0  0  0  0  0  0  0  0  0  0  0
   36.1800   23.4810   31.9740 C   0  0  1  0  0  0  0  0  0  0  0  0
   36.7740   24.3840   31.0160 C   0  0  1  0  0  0  0  0  0  0  0  0
   35.2820   24.3470   31.0750 C   0  0  0  0  0  0  0  0  0  0  0  0
   35.9550   23.6570   33.0400 H   0  0  0  0  0  0  0  0  0  0  0  0
   37.2050   23.8940   30.0950 H   0  0  0  0  0  0  0  0  0  0  0  0
   34.7160   23.8360   30.2540 H   0  0  0  0  0  0  0  0  0  0  0  0
   34.7340   25.1780   31.5410 H   0  0  0  0  0  0  0  0  0  0  0  0
   36.0280   21.9990   31.6600 C   0  0  0  0  0  0  0  0  0  0  0  0
   34.9980   21.3120   32.3190 C   0  0  0  0  0  0  0  0  0  0  0  0
   34.9020   19.9700   32.0220 C   0  0  0  0  0  0  0  0  0  0  0  0
   35.7720   19.3800   31.1370 N   0  0  0  0  0  0  0  0  0  0  0  0
   36.7500   20.0830   30.5250 C   0  0  0  0  0  0  0  0  0  0  0  0
   36.8860   21.4130   30.7850 N   0  0  0  0  0  0  0  0  0  0  0  0
   34.3470   21.8240   33.0020 H   0  0  0  0  0  0  0  0  0  0  0  0
   34.1320   19.3710   32.4910 H   0  0  0  0  0  0  0  0  0  0  0  0
   37.4360   19.6260   29.8300 H   0  0  0  0  0  0  0  0  0  0  0  0
   39.7510   24.6640   31.8320 O   0  0  0  0  0  0  0  0  0  0  0  0
   40.0660   25.3410   31.1580 H   0  0  0  0  0  0  0  0  0  0  0  0
   39.4090   26.3640   34.3310 O   0  0  0  0  0  0  0  0  0  0  0  0
   39.1650   25.4160   35.2870 C   0  0  0  0  0  0  0  0  0  0  0  0
   38.0770   25.3730   36.1390 C   0  0  0  0  0  0  0  0  0  0  0  0
   37.3460   26.1640   36.0430 H   0  0  0  0  0  0  0  0  0  0  0  0
   37.9080   24.3730   37.0790 C   0  0  0  0  0  3  0  0  0  0  0  0
   38.8970   23.4130   37.1190 C   0  0  0  0  0  0  0  0  0  0  0  0
   38.7700   22.6220   37.8570 H   0  0  0  0  0  0  0  0  0  0  0  0
   40.0110   23.3820   36.3050 C   0  0  0  0  0  0  0  0  0  0  0  0
   40.7450   22.5850   36.4050 H   0  0  0  0  0  0  0  0  0  0  0  0
   40.1180   24.4210   35.3810 C   0  0  0  0  0  3  0  0  0  0  0  0
  1  5  1  0  0  0  0
  1  6  1  1  0  0  0
  2  7  1  6  0  0  0
  2  3  1  0  0  0  0
  2  1  1  0  0  0  0
  3  4  1  0  0  0  0
  4  5  1  0  0  0  0
  4  8  1  0  0  0  0
  5 10  1  6  0  0  0
  5 29  1  0  0  0  0
  9  4  1  0  0  0  0
 11 14  1  1  0  0  0
 12 15  1  6  0  0  0
 12 13  1  0  0  0  0
 12  2  1  0  0  0  0
 12 11  1  0  0  0  0
 13 17  1  0  0  0  0
 13 11  1  0  0  0  0
 16 13  1  0  0  0  0
 18 11  1  0  0  0  0
 18 19  1  0  0  0  0
 19 24  1  0  0  0  0
 20 19  2  0  0  0  0
 20 25  1  0  0  0  0
 21 20  1  0  0  0  0
 22 23  1  0  0  0  0
 22 21  2  0  0  0  0
 23 18  2  0  0  0  0
 26 22  1  0  0  0  0
 27  1  1  0  0  0  0
 28 27  1  0  0  0  0
 29 30  1  0  0  0  0
 30 38  2  0  0  0  0
 30 31  1  0  0  0  0
 31 33  2  0  0  0  0
 32 31  1  0  0  0  0
 33 34  1  0  0  0  0
 34 35  1  0  0  0  0
 36 37  1  0  0  0  0
 36 34  2  0  0  0  0
 38 36  1  0  0  0  0
M  END
>  <minimizedAffinity>
-5.24768925

$$$$

 OpenBabel03272508293D

 38 41  0  0  1  0  0  0  0  0999 V2000
   37.1960   26.0970   33.3070 C   0  0  2  0  0  0  0  0  0  0  0  0
   37.2990   27.6110   33.2300 C   0  0  2  0  0  0  0  0  0  0  0  0
   37.3270   28.0390   34.5270 O   0  0  0  0  0  0  0  0  0  0  0  0
   37.7850   27.0600   35.3490 C   0  0  0  0  0  0  0  0  0  0  0  0
   38.1170   25.8490   34.5060 C   0  0  1  0  0  0  0  0  0  0  0  0
   36.1860   25.7430   33.5630 H   0  0  0  0  0  0  0  0  0  0  0  0
   38.2420   27.8590   32.7330 H   0  0  0  0  0  0  0  0  0  0  0  0
   37.1480   26.8470   36.2130 H   0  0  0  0  0  0  0  0  0  0  0  0
   38.7640   27.4160   35.7830 H   0  0  0  0  0  0  0  0  0  0  0  0
   39.1530   25.9040   34.1320 H   0  0  0  0  0  0  0  0  0  0  0  0
   35.8110   29.4960   32.2630 C   0  0  1  0  0  0  0  0  0  0  0  0
   36.0850   28.1000   32.5080 C   0  0  1  0  0  0  0  0  0  0  0  0
   36.1470   28.5620   31.0880 C   0  0  0  0  0  0  0  0  0  0  0  0
   36.5060   30.3520   32.2950 H   0  0  0  0  0  0  0  0  0  0  0  0
   35.1810   27.4650   32.7400 H   0  0  0  0  0  0  0  0  0  0  0  0
   35.3180   28.2840   30.3880 H   0  0  0  0  0  0  0  0  0  0  0  0
   37.1210   28.6830   30.5960 H   0  0  0  0  0  0  0  0  0  0  0  0
   34.3790   30.0080   32.1830 C   0  0  0  0  0  0  0  0  0  0  0  0
   33.4470   29.4270   33.0550 C   0  0  0  0  0  0  0  0  0  0  0  0
   32.1590   29.9030   32.9430 C   0  0  0  0  0  0  0  0  0  0  0  0
   31.8460   30.8790   32.0280 N   0  0  0  0  0  0  0  0  0  0  0  0
   32.7790   31.4100   31.2060 C   0  0  0  0  0  0  0  0  0  0  0  0
   34.0660   30.9730   31.2790 N   0  0  0  0  0  0  0  0  0  0  0  0
   33.7470   28.6660   33.7510 H   0  0  0  0  0  0  0  0  0  0  0  0
   31.3820   29.5050   33.5820 H   0  0  0  0  0  0  0  0  0  0  0  0
   32.5400   32.1760   30.4860 H   0  0  0  0  0  0  0  0  0  0  0  0
   37.6520   25.4460   32.1770 O   0  0  0  0  0  0  0  0  0  0  0  0
   38.5750   25.7980   31.9850 H   0  0  0  0  0  0  0  0  0  0  0  0
   37.8690   24.6450   35.1040 O   0  0  0  0  0  0  0  0  0  0  0  0
   38.5190   24.0340   36.1420 C   0  0  0  0  0  0  0  0  0  0  0  0
   38.0740   23.9450   37.4470 C   0  0  0  0  0  0  0  0  0  0  0  0
   37.1200   24.4020   37.6730 H   0  0  0  0  0  0  0  0  0  0  0  0
   38.7970   23.3070   38.4380 C   0  0  0  0  0  3  0  0  0  0  0  0
   40.0000   22.7590   38.0440 C   0  0  0  0  0  0  0  0  0  0  0  0
   40.5750   22.2540   38.8200 H   0  0  0  0  0  0  0  0  0  0  0  0
   40.5150   22.8020   36.7650 C   0  0  0  0  0  0  0  0  0  0  0  0
   41.4750   22.3430   36.5410 H   0  0  0  0  0  0  0  0  0  0  0  0
   39.7330   23.4620   35.8170 C   0  0  0  0  0  3  0  0  0  0  0  0
  1  6  1  1  0  0  0
  1  5  1  0  0  0  0
  2  7  1  6  0  0  0
  2  1  1  0  0  0  0
  2  3  1  0  0  0  0
  3  4  1  0  0  0  0
  4  9  1  0  0  0  0
  4  8  1  0  0  0  0
  5 10  1  6  0  0  0
  5 29  1  0  0  0  0
  5  4  1  0  0  0  0
 11 14  1  1  0  0  0
 11 12  1  0  0  0  0
 12 15  1  1  0  0  0
 12  2  1  0  0  0  0
 13 11  1  0  0  0  0
 13 12  1  0  0  0  0
 16 13  1  0  0  0  0
 17 13  1  0  0  0  0
 18 11  1  0  0  0  0
 18 19  1  0  0  0  0
 19 24  1  0  0  0  0
 20 19  2  0  0  0  0
 20 25  1  0  0  0  0
 21 20  1  0  0  0  0
 22 23  1  0  0  0  0
 22 21  2  0  0  0  0
 23 18  2  0  0  0  0
 26 22  1  0  0  0  0
 27  1  1  0  0  0  0
 28 27  1  0  0  0  0
 29 30  1  0  0  0  0
 30 31  1  0  0  0  0
 31 32  1  0  0  0  0
 31 33  2  0  0  0  0
 34 33  1  0  0  0  0
 34 35  1  0  0  0  0
 36 34  2  0  0  0  0
 37 36  1  0  0  0  0
 38 30  2  0  0  0  0
 38 36  1  0  0  0  0
M  END
>  <minimizedAffinity>
-5.23294783

$$$$

 OpenBabel03272508293D

 38 41  0  0  1  0  0  0  0  0999 V2000
   36.6160   27.5600   33.3690 C   0  0  2  0  0  0  0  0  0  0  0  0
   37.5290   27.3210   32.1780 C   0  0  2  0  0  0  0  0  0  0  0  0
   36.8650   27.8360   31.1010 O   0  0  0  0  0  0  0  0  0  0  0  0
   35.9820   28.7910   31.4900 C   0  0  0  0  0  0  0  0  0  0  0  0
   36.0800   28.9450   32.9910 C   0  0  1  0  0  0  0  0  0  0  0  0
   35.7700   26.8590   33.4140 H   0  0  0  0  0  0  0  0  0  0  0  0
   38.4560   27.8790   32.3480 H   0  0  0  0  0  0  0  0  0  0  0  0
   34.9630   28.6570   31.1160 H   0  0  0  0  0  0  0  0  0  0  0  0
   36.3320   29.7710   31.0520 H   0  0  0  0  0  0  0  0  0  0  0  0
   36.8600   29.6770   33.2610 H   0  0  0  0  0  0  0  0  0  0  0  0
   36.7090   24.9440   31.5630 C   0  0  1  0  0  0  0  0  0  0  0  0
   37.7230   25.8440   32.0600 C   0  0  1  0  0  0  0  0  0  0  0  0
   37.9880   25.1870   30.7440 C   0  0  0  0  0  0  0  0  0  0  0  0
   35.8110   25.1780   30.9680 H   0  0  0  0  0  0  0  0  0  0  0  0
   38.3540   25.4410   32.9040 H   0  0  0  0  0  0  0  0  0  0  0  0
   38.7400   24.3580   30.6900 H   0  0  0  0  0  0  0  0  0  0  0  0
   37.9030   25.7700   29.8170 H   0  0  0  0  0  0  0  0  0  0  0  0
   36.6270   23.5080   32.0650 C   0  0  0  0  0  0  0  0  0  0  0  0
   35.6870   22.6720   31.4450 C   0  0  0  0  0  0  0  0  0  0  0  0
   35.6300   21.3850   31.9360 C   0  0  0  0  0  0  0  0  0  0  0  0
   36.4520   20.9860   32.9620 N   0  0  0  0  0  0  0  0  0  0  0  0
   37.3440   21.8290   33.5290 C   0  0  0  0  0  0  0  0  0  0  0  0
   37.4380   23.1100   33.0790 N   0  0  0  0  0  0  0  0  0  0  0  0
   35.0690   23.0370   30.6460 H   0  0  0  0  0  0  0  0  0  0  0  0
   34.9300   20.6790   31.5090 H   0  0  0  0  0  0  0  0  0  0  0  0
   37.9910   21.5210   34.3340 H   0  0  0  0  0  0  0  0  0  0  0  0
   37.2740   27.5870   34.5830 O   0  0  0  0  0  0  0  0  0  0  0  0
   38.0320   28.2420   34.4940 H   0  0  0  0  0  0  0  0  0  0  0  0
   34.8990   29.2280   33.6200 O   0  0  0  0  0  0  0  0  0  0  0  0
   34.6450   30.0830   34.6580 C   0  0  0  0  0  0  0  0  0  0  0  0
   33.4210   30.2950   35.2630 C   0  0  0  0  0  0  0  0  0  0  0  0
   32.5800   29.7310   34.8820 H   0  0  0  0  0  0  0  0  0  0  0  0
   33.2520   31.1820   36.3110 C   0  0  0  0  0  3  0  0  0  0  0  0
   34.3870   31.8510   36.7190 C   0  0  0  0  0  0  0  0  0  0  0  0
   34.2620   32.5510   37.5440 H   0  0  0  0  0  0  0  0  0  0  0  0
   35.6440   31.6970   36.1700 C   0  0  0  0  0  0  0  0  0  0  0  0
   36.4870   32.2660   36.5550 H   0  0  0  0  0  0  0  0  0  0  0  0
   35.7400   30.7870   35.1190 C   0  0  0  0  0  3  0  0  0  0  0  0
  1  6  1  1  0  0  0
  1 27  1  0  0  0  0
  2  7  1  1  0  0  0
  2  1  1  0  0  0  0
  3  4  1  0  0  0  0
  3  2  1  0  0  0  0
  4  5  1  0  0  0  0
  5 10  1  1  0  0  0
  5  1  1  0  0  0  0
  5 29  1  0  0  0  0
  8  4  1  0  0  0  0
  9  4  1  0  0  0  0
 11 14  1  6  0  0  0
 11 12  1  0  0  0  0
 11 18  1  0  0  0  0
 12  2  1  0  0  0  0
 12 15  1  1  0  0  0
 13 11  1  0  0  0  0
 13 12  1  0  0  0  0
 16 13  1  0  0  0  0
 17 13  1  0  0  0  0
 18 23  1  0  0  0  0
 19 20  1  0  0  0  0
 19 18  2  0  0  0  0
 20 21  2  0  0  0  0
 21 22  1  0  0  0  0
 22 26  1  0  0  0  0
 23 22  2  0  0  0  0
 24 19  1  0  0  0  0
 25 20  1  0  0  0  0
 28 27  1  0  0  0  0
 29 30  1  0  0  0  0
 30 38  2  0  0  0  0
 30 31  1  0  0  0  0
 31 33  2  0  0  0  0
 32 31  1  0  0  0  0
 33 34  1  0  0  0  0
 34 35  1  0  0  0  0
 36 37  1  0  0  0  0
 36 34  2  0  0  0  0
 38 36  1  0  0  0  0
M  END
>  <minimizedAffinity>
-5.16198158

$$$$

 OpenBabel03272508293D

 38 41  0  0  1  0  0  0  0  0999 V2000
   37.8290   26.3300   32.8170 C   0  0  2  0  0  0  0  0  0  0  0  0
   39.0450   27.0770   33.3400 C   0  0  2  0  0  0  0  0  0  0  0  0
   40.0150   26.8980   32.3950 O   0  0  0  0  0  0  0  0  0  0  0  0
   39.4640   26.6390   31.1820 C   0  0  0  0  0  0  0  0  0  0  0  0
   37.9590   26.6640   31.3280 C   0  0  1  0  0  0  0  0  0  0  0  0
   37.9040   25.2400   32.9390 H   0  0  0  0  0  0  0  0  0  0  0  0
   38.7830   28.1370   33.4130 H   0  0  0  0  0  0  0  0  0  0  0  0
   39.8530   25.7490   30.6790 H   0  0  0  0  0  0  0  0  0  0  0  0
   39.7260   27.5010   30.5010 H   0  0  0  0  0  0  0  0  0  0  0  0
   37.5690   27.6870   31.1920 H   0  0  0  0  0  0  0  0  0  0  0  0
   39.6210   25.0340   34.8230 C   0  0  1  0  0  0  0  0  0  0  0  0
   39.4180   26.4520   34.6460 C   0  0  1  0  0  0  0  0  0  0  0  0
   40.8120   26.0000   34.9330 C   0  0  0  0  0  0  0  0  0  0  0  0
   39.8100   24.2630   34.0570 H   0  0  0  0  0  0  0  0  0  0  0  0
   38.9230   26.9800   35.5130 H   0  0  0  0  0  0  0  0  0  0  0  0
   41.2460   26.1820   35.9500 H   0  0  0  0  0  0  0  0  0  0  0  0
   41.5590   25.9910   34.1280 H   0  0  0  0  0  0  0  0  0  0  0  0
   39.3170   24.3620   36.1550 C   0  0  0  0  0  0  0  0  0  0  0  0
   38.2160   24.8500   36.8750 C   0  0  0  0  0  0  0  0  0  0  0  0
   37.9820   24.2280   38.0830 C   0  0  0  0  0  0  0  0  0  0  0  0
   38.7910   23.2070   38.5190 N   0  0  0  0  0  0  0  0  0  0  0  0
   39.8420   22.7700   37.7890 C   0  0  0  0  0  0  0  0  0  0  0  0
   40.1150   23.3520   36.5890 N   0  0  0  0  0  0  0  0  0  0  0  0
   37.6180   25.6510   36.4870 H   0  0  0  0  0  0  0  0  0  0  0  0
   37.1500   24.5480   38.6970 H   0  0  0  0  0  0  0  0  0  0  0  0
   40.4800   21.9700   38.1260 H   0  0  0  0  0  0  0  0  0  0  0  0
   36.6290   26.7820   33.3330 O   0  0  0  0  0  0  0  0  0  0  0  0
   36.6050   27.7780   33.1960 H   0  0  0  0  0  0  0  0  0  0  0  0
   37.2880   25.7700   30.5410 O   0  0  0  0  0  0  0  0  0  0  0  0
   36.9810   24.4570   30.7740 C   0  0  0  0  0  0  0  0  0  0  0  0
   35.7680   23.9650   31.2180 C   0  0  0  0  0  0  0  0  0  0  0  0
   34.9830   24.6870   31.3990 H   0  0  0  0  0  0  0  0  0  0  0  0
   35.5440   22.6170   31.4290 C   0  0  0  0  0  3  0  0  0  0  0  0
   36.6110   21.7830   31.1680 C   0  0  0  0  0  0  0  0  0  0  0  0
   36.4420   20.7200   31.3320 H   0  0  0  0  0  0  0  0  0  0  0  0
   37.8520   22.1920   30.7230 C   0  0  0  0  0  0  0  0  0  0  0  0
   38.6400   21.4650   30.5420 H   0  0  0  0  0  0  0  0  0  0  0  0
   38.0070   23.5640   30.5330 C   0  0  0  0  0  3  0  0  0  0  0  0
  1  6  1  1  0  0  0
  1 27  1  0  0  0  0
  1  2  1  0  0  0  0
  2  7  1  1  0  0  0
  2 12  1  0  0  0  0
  3  2  1  0  0  0  0
  4  5  1  0  0  0  0
  4  3  1  0  0  0  0
  5 10  1  6  0  0  0
  5  1  1  0  0  0  0
  8  4  1  0  0  0  0
  9  4  1  0  0  0  0
 11 14  1  6  0  0  0
 11 13  1  0  0  0  0
 11 18  1  0  0  0  0
 12 11  1  0  0  0  0
 12 13  1  0  0  0  0
 12 15  1  1  0  0  0
 13 16  1  0  0  0  0
 17 13  1  0  0  0  0
 18 23  2  0  0  0  0
 18 19  1  0  0  0  0
 19 20  2  0  0  0  0
 20 21  1  0  0  0  0
 20 25  1  0  0  0  0
 22 26  1  0  0  0  0
 22 21  2  0  0  0  0
 23 22  1  0  0  0  0
 24 19  1  0  0  0  0
 28 27  1  0  0  0  0
 29 30  1  0  0  0  0
 29  5  1  0  0  0  0
 30 31  1  0  0  0  0
 31 32  1  0  0  0  0
 31 33  2  0  0  0  0
 34 35  1  0  0  0  0
 34 33  1  0  0  0  0
 36 34  2  0  0  0  0
 37 36  1  0  0  0  0
 38 36  1  0  0  0  0
 38 30  2  0  0  0  0
M  END
>  <minimizedAffinity>
-5.1294632

$$$$
