
 OpenBabel03272510303D

 28 30  0  0  0  0  0  0  0  0999 V2000
   37.1800   31.3280   49.2000 C   0  0  0  0  0  0  0  0  0  0  0  0
   37.3400   32.5850   49.7830 C   0  0  0  0  0  0  0  0  0  0  0  0
   38.3000   33.3900   49.2210 C   0  0  0  0  0  0  0  0  0  0  0  0
   39.0250   32.9510   48.1620 N   0  0  0  0  0  0  0  0  0  0  0  0
   38.8400   31.7150   47.6190 C   0  0  0  0  0  0  0  0  0  0  0  0
   37.8930   30.8710   48.1450 N   0  0  0  0  0  0  0  0  0  0  0  0
   36.7100   32.8340   50.6200 H   0  0  0  0  0  0  0  0  0  0  0  0
   38.4530   34.3730   49.6470 H   0  0  0  0  0  0  0  0  0  0  0  0
   36.1180   30.4160   49.7610 C   0  0  0  0  0  0  0  0  0  0  0  0
   36.1410   28.9850   49.5930 C   0  0  0  0  0  0  0  0  0  0  0  0
   36.6480   29.5410   50.9100 C   0  0  0  0  0  0  0  0  0  0  0  0
   35.1740   30.9550   49.9930 H   0  0  0  0  0  0  0  0  0  0  0  0
   35.1460   28.4580   49.6490 H   0  0  0  0  0  0  0  0  0  0  0  0
   36.9230   28.4340   49.0330 H   0  0  0  0  0  0  0  0  0  0  0  0
   35.9700   29.4560   51.7830 H   0  0  0  0  0  0  0  0  0  0  0  0
   37.7330   29.5330   51.1140 H   0  0  0  0  0  0  0  0  0  0  0  0
   39.6020   31.2420   46.4690 C   0  0  0  0  0  0  0  0  0  0  0  0
   40.4290   31.9540   46.2630 H   0  0  0  0  0  0  0  0  0  0  0  0
   39.9790   30.2080   46.6110 H   0  0  0  0  0  0  0  0  0  0  0  0
   38.7090   31.2770   45.2760 C   0  0  0  0  0  0  0  0  0  0  0  0
   38.5000   30.1070   44.5440 C   0  0  0  0  0  0  0  0  0  0  0  0
   39.0210   29.2160   44.9040 H   0  0  0  0  0  0  0  0  0  0  0  0
   37.7090   29.9770   43.4250 C   0  0  0  0  0  3  0  0  0  0  0  0
   37.0580   31.1360   42.9910 C   0  0  0  0  0  0  0  0  0  0  0  0
   36.4370   31.0400   42.1150 H   0  0  0  0  0  0  0  0  0  0  0  0
   37.2510   32.3090   43.7030 C   0  0  0  0  0  0  0  0  0  0  0  0
   36.7340   33.2090   43.3500 H   0  0  0  0  0  0  0  0  0  0  0  0
   38.0430   32.4130   44.8140 C   0  0  0  0  0  3  0  0  0  0  0  0
  1  9  1  0  0  0  0
  1  2  1  0  0  0  0
  2  7  1  0  0  0  0
  3  8  1  0  0  0  0
  3  2  2  0  0  0  0
  4  3  1  0  0  0  0
  5  6  1  0  0  0  0
  5  4  2  0  0  0  0
  6  1  2  0  0  0  0
  9 12  1  0  0  0  0
  9 11  1  0  0  0  0
 10 13  1  0  0  0  0
 10  9  1  0  0  0  0
 10 11  1  0  0  0  0
 11 16  1  0  0  0  0
 11 15  1  0  0  0  0
 14 10  1  0  0  0  0
 17 19  1  0  0  0  0
 17  5  1  0  0  0  0
 18 17  1  0  0  0  0
 20 17  1  0  0  0  0
 21 22  1  0  0  0  0
 21 20  2  0  0  0  0
 23 21  1  0  0  0  0
 24 23  2  0  0  0  0
 24 26  1  0  0  0  0
 25 24  1  0  0  0  0
 26 28  2  0  0  0  0
 27 26  1  0  0  0  0
 28 20  1  0  0  0  0
M  END
>  <minimizedAffinity>
-5.34501696

>  <minimizedRMSD>
0.543676019

$$$$
