
 OpenBabel03272506323D

 40 42  0  0  1  0  0  0  0  0999 V2000
   38.2090   26.4110   35.3440 C   0  0  1  0  0  0  0  0  0  0  0  0
   39.4880   26.9100   34.8920 C   0  0  0  0  0  0  0  0  0  0  0  0
   39.7110   26.9820   33.3970 C   0  0  0  0  0  0  0  0  0  0  0  0
   38.5240   27.3890   32.5900 C   0  0  0  0  0  0  0  0  0  0  0  0
   37.1930   26.9240   33.0510 C   0  0  0  0  0  0  0  0  0  0  0  0
   37.0590   26.9510   34.5270 C   0  0  2  0  0  0  0  0  0  0  0  0
   37.9860   26.8350   36.3720 H   0  0  0  0  0  0  0  0  0  0  0  0
   40.3930   26.4800   35.3130 H   0  0  0  0  0  0  0  0  0  0  0  0
   39.5410   28.0030   35.1970 H   0  0  0  0  0  0  0  0  0  0  0  0
   40.0820   25.9860   33.0320 H   0  0  0  0  0  0  0  0  0  0  0  0
   40.5380   27.6970   33.1930 H   0  0  0  0  0  0  0  0  0  0  0  0
   38.5060   28.4870   32.4440 H   0  0  0  0  0  0  0  0  0  0  0  0
   38.6780   26.9650   31.5620 H   0  0  0  0  0  0  0  0  0  0  0  0
   36.4300   27.5800   32.6290 H   0  0  0  0  0  0  0  0  0  0  0  0
   36.9800   25.8900   32.6940 H   0  0  0  0  0  0  0  0  0  0  0  0
   36.0760   26.5560   34.8070 H   0  0  0  0  0  0  0  0  0  0  0  0
   38.3480   23.9920   34.5340 C   0  0  0  0  0  0  0  0  0  0  0  0
   38.0920   24.9570   35.5560 C   0  0  0  0  0  0  0  0  0  0  0  0
   37.7100   24.4450   36.7860 C   0  0  0  0  0  0  0  0  0  0  0  0
   37.6030   23.0840   36.9500 N   0  0  0  0  0  0  0  0  0  0  0  0
   37.8570   22.2280   35.9500 C   0  0  0  0  0  0  0  0  0  0  0  0
   38.2350   22.6900   34.7260 N   0  0  0  0  0  0  0  0  0  0  0  0
   38.6480   24.3660   33.5640 H   0  0  0  0  0  0  0  0  0  0  0  0
   37.4920   25.0730   37.6280 H   0  0  0  0  0  0  0  0  0  0  0  0
   37.7250   21.1960   36.2430 H   0  0  0  0  0  0  0  0  0  0  0  0
   37.0030   28.4570   34.8890 C   0  0  0  0  0  0  0  0  0  0  0  0
   36.8810   28.6090   35.9690 H   0  0  0  0  0  0  0  0  0  0  0  0
   37.9240   28.9740   34.5830 H   0  0  0  0  0  0  0  0  0  0  0  0
   35.8180   29.1210   34.1920 C   0  0  0  0  0  0  0  0  0  0  0  0
   35.0250   28.3850   34.0060 H   0  0  0  0  0  0  0  0  0  0  0  0
   36.1730   29.5990   33.2410 H   0  0  0  0  0  0  0  0  0  0  0  0
   35.2460   30.2190   35.0110 C   0  0  0  0  0  0  0  0  0  0  0  0
   35.9700   31.1580   35.7120 C   0  0  0  0  0  0  0  0  0  0  0  0
   37.0510   31.0850   35.6600 H   0  0  0  0  0  0  0  0  0  0  0  0
   35.3520   32.1480   36.4490 C   0  0  0  0  0  3  0  0  0  0  0  0
   33.9590   32.2050   36.4900 C   0  0  0  0  0  0  0  0  0  0  0  0
   33.4260   32.9640   37.0540 H   0  0  0  0  0  0  0  0  0  0  0  0
   33.1750   31.2780   35.7960 C   0  0  0  0  0  0  0  0  0  0  0  0
   32.1050   31.3180   35.8250 H   0  0  0  0  0  0  0  0  0  0  0  0
   33.8540   30.3200   35.0840 C   0  0  0  0  0  3  0  0  0  0  0  0
  1 18  1  0  0  0  0
  1  7  1  1  0  0  0
  2  9  1  0  0  0  0
  2  8  1  0  0  0  0
  2  1  1  0  0  0  0
  3  2  1  0  0  0  0
  4  5  1  0  0  0  0
  4  3  1  0  0  0  0
  5  6  1  0  0  0  0
  6 16  1  1  0  0  0
  6 26  1  0  0  0  0
  6  1  1  0  0  0  0
 10  3  1  0  0  0  0
 11  3  1  0  0  0  0
 12  4  1  0  0  0  0
 13  4  1  0  0  0  0
 14  5  1  0  0  0  0
 15  5  1  0  0  0  0
 17 22  2  0  0  0  0
 17 18  1  0  0  0  0
 18 19  2  0  0  0  0
 19 20  1  0  0  0  0
 19 24  1  0  0  0  0
 21 25  1  0  0  0  0
 21 20  2  0  0  0  0
 22 21  1  0  0  0  0
 23 17  1  0  0  0  0
 26 27  1  0  0  0  0
 28 26  1  0  0  0  0
 29 26  1  0  0  0  0
 29 32  1  0  0  0  0
 30 29  1  0  0  0  0
 31 29  1  0  0  0  0
 32 40  2  0  0  0  0
 32 33  1  0  0  0  0
 33 35  2  0  0  0  0
 34 33  1  0  0  0  0
 35 36  1  0  0  0  0
 36 37  1  0  0  0  0
 38 39  1  0  0  0  0
 38 36  2  0  0  0  0
 40 38  1  0  0  0  0
M  END
>  <minimizedAffinity>
-5.65943003

$$$$

 OpenBabel03272506323D

 40 42  0  0  1  0  0  0  0  0999 V2000
   37.3110   26.9050   33.5720 C   0  0  1  0  0  0  0  0  0  0  0  0
   38.4340   26.6420   32.7010 C   0  0  0  0  0  0  0  0  0  0  0  0
   39.7970   27.0990   33.1760 C   0  0  0  0  0  0  0  0  0  0  0  0
   40.0500   26.9490   34.6380 C   0  0  0  0  0  0  0  0  0  0  0  0
   38.9070   27.1750   35.5560 C   0  0  0  0  0  0  0  0  0  0  0  0
   37.6320   26.6360   35.0240 C   0  0  2  0  0  0  0  0  0  0  0  0
   36.4950   26.1450   33.3670 H   0  0  0  0  0  0  0  0  0  0  0  0
   38.3630   26.9360   31.6580 H   0  0  0  0  0  0  0  0  0  0  0  0
   38.5590   25.5150   32.6560 H   0  0  0  0  0  0  0  0  0  0  0  0
   39.9470   28.1730   32.8830 H   0  0  0  0  0  0  0  0  0  0  0  0
   40.5760   26.5310   32.6230 H   0  0  0  0  0  0  0  0  0  0  0  0
   40.5170   25.9680   34.8580 H   0  0  0  0  0  0  0  0  0  0  0  0
   40.8350   27.7060   34.9050 H   0  0  0  0  0  0  0  0  0  0  0  0
   39.1160   26.6750   36.5030 H   0  0  0  0  0  0  0  0  0  0  0  0
   38.7710   28.2590   35.7730 H   0  0  0  0  0  0  0  0  0  0  0  0
   36.8220   26.8720   35.7210 H   0  0  0  0  0  0  0  0  0  0  0  0
   35.9310   28.8650   34.4590 C   0  0  0  0  0  0  0  0  0  0  0  0
   36.6120   28.1910   33.3980 C   0  0  0  0  0  0  0  0  0  0  0  0
   36.5740   28.8200   32.1640 C   0  0  0  0  0  0  0  0  0  0  0  0
   35.9080   30.0160   32.0320 N   0  0  0  0  0  0  0  0  0  0  0  0
   35.2870   30.5980   33.0670 C   0  0  0  0  0  0  0  0  0  0  0  0
   35.3000   30.0140   34.2970 N   0  0  0  0  0  0  0  0  0  0  0  0
   35.9450   28.3940   35.4340 H   0  0  0  0  0  0  0  0  0  0  0  0
   37.0490   28.4090   31.2940 H   0  0  0  0  0  0  0  0  0  0  0  0
   34.8120   31.5300   32.7950 H   0  0  0  0  0  0  0  0  0  0  0  0
   37.7930   25.0960   35.1020 C   0  0  0  0  0  0  0  0  0  0  0  0
   36.8770   24.5770   34.7950 H   0  0  0  0  0  0  0  0  0  0  0  0
   38.6060   24.7480   34.4510 H   0  0  0  0  0  0  0  0  0  0  0  0
   38.1050   24.6740   36.5370 C   0  0  0  0  0  0  0  0  0  0  0  0
   37.2150   24.2310   37.0040 H   0  0  0  0  0  0  0  0  0  0  0  0
   38.4760   25.5640   37.1090 H   0  0  0  0  0  0  0  0  0  0  0  0
   39.1990   23.6720   36.5870 C   0  0  0  0  0  0  0  0  0  0  0  0
   39.6520   23.0340   37.7220 C   0  0  0  0  0  0  0  0  0  0  0  0
   39.1640   23.2890   38.6570 H   0  0  0  0  0  0  0  0  0  0  0  0
   40.6780   22.1130   37.6760 C   0  0  0  0  0  3  0  0  0  0  0  0
   41.2780   21.8150   36.4520 C   0  0  0  0  0  0  0  0  0  0  0  0
   42.0880   21.0980   36.3620 H   0  0  0  0  0  0  0  0  0  0  0  0
   40.8580   22.4320   35.2700 C   0  0  0  0  0  0  0  0  0  0  0  0
   41.3150   22.2060   34.3270 H   0  0  0  0  0  0  0  0  0  0  0  0
   39.8320   23.3390   35.3870 C   0  0  0  0  0  3  0  0  0  0  0  0
  1  7  1  6  0  0  0
  1  6  1  0  0  0  0
  2  3  1  0  0  0  0
  2  1  1  0  0  0  0
  3  4  1  0  0  0  0
  4 12  1  0  0  0  0
  4 13  1  0  0  0  0
  4  5  1  0  0  0  0
  5 15  1  0  0  0  0
  5 14  1  0  0  0  0
  6 26  1  0  0  0  0
  6  5  1  0  0  0  0
  6 16  1  1  0  0  0
  8  2  1  0  0  0  0
  9  2  1  0  0  0  0
 10  3  1  0  0  0  0
 11  3  1  0  0  0  0
 17 23  1  0  0  0  0
 18  1  1  0  0  0  0
 18 17  2  0  0  0  0
 19 18  1  0  0  0  0
 20 19  2  0  0  0  0
 20 21  1  0  0  0  0
 21 22  2  0  0  0  0
 22 17  1  0  0  0  0
 24 19  1  0  0  0  0
 25 21  1  0  0  0  0
 26 29  1  0  0  0  0
 27 26  1  0  0  0  0
 28 26  1  0  0  0  0
 29 32  1  0  0  0  0
 29 30  1  0  0  0  0
 29 31  1  0  0  0  0
 32 33  1  0  0  0  0
 33 34  1  0  0  0  0
 35 33  2  0  0  0  0
 36 35  1  0  0  0  0
 37 36  1  0  0  0  0
 38 40  1  0  0  0  0
 38 36  2  0  0  0  0
 39 38  1  0  0  0  0
 40 32  2  0  0  0  0
M  END
>  <minimizedAffinity>
-5.39449453

$$$$

 OpenBabel03272506323D

 40 42  0  0  1  0  0  0  0  0999 V2000
   38.2490   26.5370   32.8520 C   0  0  1  0  0  0  0  0  0  0  0  0
   39.0530   26.5580   31.6510 C   0  0  0  0  0  0  0  0  0  0  0  0
   40.3760   27.2910   31.7180 C   0  0  0  0  0  0  0  0  0  0  0  0
   41.1180   27.1580   33.0050 C   0  0  0  0  0  0  0  0  0  0  0  0
   40.3190   27.0960   34.2520 C   0  0  0  0  0  0  0  0  0  0  0  0
   39.0760   26.3030   34.0950 C   0  0  2  0  0  0  0  0  0  0  0  0
   37.5810   25.6210   32.8370 H   0  0  0  0  0  0  0  0  0  0  0  0
   38.5870   26.8590   30.7170 H   0  0  0  0  0  0  0  0  0  0  0  0
   39.3810   25.4880   31.4560 H   0  0  0  0  0  0  0  0  0  0  0  0
   40.2030   28.3810   31.5020 H   0  0  0  0  0  0  0  0  0  0  0  0
   41.0280   26.9280   30.8940 H   0  0  0  0  0  0  0  0  0  0  0  0
   41.8190   26.3000   32.9670 H   0  0  0  0  0  0  0  0  0  0  0  0
   41.7780   28.0630   33.0870 H   0  0  0  0  0  0  0  0  0  0  0  0
   40.9230   26.6280   35.0300 H   0  0  0  0  0  0  0  0  0  0  0  0
   40.0460   28.1160   34.6090 H   0  0  0  0  0  0  0  0  0  0  0  0
   38.5080   26.3320   35.0310 H   0  0  0  0  0  0  0  0  0  0  0  0
   36.9200   28.5430   31.9900 C   0  0  0  0  0  0  0  0  0  0  0  0
   37.2890   27.6400   33.0350 C   0  0  0  0  0  0  0  0  0  0  0  0
   36.6910   27.8670   34.2650 C   0  0  0  0  0  0  0  0  0  0  0  0
   35.8050   28.9100   34.4060 N   0  0  0  0  0  0  0  0  0  0  0  0
   35.4990   29.7220   33.3850 C   0  0  0  0  0  0  0  0  0  0  0  0
   36.0650   29.5340   32.1610 N   0  0  0  0  0  0  0  0  0  0  0  0
   37.3730   28.3880   31.0200 H   0  0  0  0  0  0  0  0  0  0  0  0
   36.8910   27.2560   35.1240 H   0  0  0  0  0  0  0  0  0  0  0  0
   34.7900   30.4890   33.6630 H   0  0  0  0  0  0  0  0  0  0  0  0
   39.5590   24.8370   33.9640 C   0  0  0  0  0  0  0  0  0  0  0  0
   39.7370   24.5610   32.9160 H   0  0  0  0  0  0  0  0  0  0  0  0
   40.4980   24.6760   34.5120 H   0  0  0  0  0  0  0  0  0  0  0  0
   38.5030   23.8840   34.5200 C   0  0  0  0  0  0  0  0  0  0  0  0
   38.6310   22.8820   34.0910 H   0  0  0  0  0  0  0  0  0  0  0  0
   37.4830   24.3020   34.3060 H   0  0  0  0  0  0  0  0  0  0  0  0
   38.5930   23.7680   35.9970 C   0  0  0  0  0  0  0  0  0  0  0  0
   37.7160   24.3260   36.9020 C   0  0  0  0  0  0  0  0  0  0  0  0
   36.8890   24.8990   36.4950 H   0  0  0  0  0  0  0  0  0  0  0  0
   37.8770   24.1660   38.2620 C   0  0  0  0  0  3  0  0  0  0  0  0
   38.9550   23.4210   38.7430 C   0  0  0  0  0  0  0  0  0  0  0  0
   39.1260   23.2660   39.8030 H   0  0  0  0  0  0  0  0  0  0  0  0
   39.8750   22.8330   37.8700 C   0  0  0  0  0  0  0  0  0  0  0  0
   40.7050   22.2600   38.2340 H   0  0  0  0  0  0  0  0  0  0  0  0
   39.6550   23.0320   36.5280 C   0  0  0  0  0  3  0  0  0  0  0  0
  1  7  1  6  0  0  0
  1 18  1  0  0  0  0
  1  6  1  0  0  0  0
  2  3  1  0  0  0  0
  2  1  1  0  0  0  0
  3  4  1  0  0  0  0
  4 13  1  0  0  0  0
  4  5  1  0  0  0  0
  5 15  1  0  0  0  0
  5 14  1  0  0  0  0
  6  5  1  0  0  0  0
  6 16  1  1  0  0  0
  8  2  1  0  0  0  0
  9  2  1  0  0  0  0
 10  3  1  0  0  0  0
 11  3  1  0  0  0  0
 12  4  1  0  0  0  0
 17 22  2  0  0  0  0
 17 18  1  0  0  0  0
 18 19  2  0  0  0  0
 19 20  1  0  0  0  0
 19 24  1  0  0  0  0
 21 25  1  0  0  0  0
 21 20  2  0  0  0  0
 22 21  1  0  0  0  0
 23 17  1  0  0  0  0
 26  6  1  0  0  0  0
 26 28  1  0  0  0  0
 26 29  1  0  0  0  0
 27 26  1  0  0  0  0
 29 32  1  0  0  0  0
 30 29  1  0  0  0  0
 31 29  1  0  0  0  0
 32 40  2  0  0  0  0
 32 33  1  0  0  0  0
 33 35  2  0  0  0  0
 34 33  1  0  0  0  0
 35 36  1  0  0  0  0
 36 37  1  0  0  0  0
 38 39  1  0  0  0  0
 38 36  2  0  0  0  0
 40 38  1  0  0  0  0
M  END
>  <minimizedAffinity>
-5.30057859

$$$$

 OpenBabel03272506323D

 40 42  0  0  1  0  0  0  0  0999 V2000
   38.8530   26.3320   35.3820 C   0  0  1  0  0  0  0  0  0  0  0  0
   39.9320   26.9980   34.6880 C   0  0  0  0  0  0  0  0  0  0  0  0
   39.8600   27.0380   33.1770 C   0  0  0  0  0  0  0  0  0  0  0  0
   38.4960   27.2250   32.6050 C   0  0  0  0  0  0  0  0  0  0  0  0
   37.3620   26.5850   33.3160 C   0  0  0  0  0  0  0  0  0  0  0  0
   37.5010   26.6560   34.7900 C   0  0  2  0  0  0  0  0  0  0  0  0
   38.7610   26.7610   36.4280 H   0  0  0  0  0  0  0  0  0  0  0  0
   40.9550   26.7280   34.9350 H   0  0  0  0  0  0  0  0  0  0  0  0
   39.8690   28.0980   34.9620 H   0  0  0  0  0  0  0  0  0  0  0  0
   40.3080   26.0940   32.7620 H   0  0  0  0  0  0  0  0  0  0  0  0
   40.5130   27.8600   32.8100 H   0  0  0  0  0  0  0  0  0  0  0  0
   38.2790   28.3010   32.4490 H   0  0  0  0  0  0  0  0  0  0  0  0
   38.5200   26.7860   31.5720 H   0  0  0  0  0  0  0  0  0  0  0  0
   36.4410   27.0990   33.0380 H   0  0  0  0  0  0  0  0  0  0  0  0
   37.2510   25.5170   33.0200 H   0  0  0  0  0  0  0  0  0  0  0  0
   36.6620   26.1290   35.2570 H   0  0  0  0  0  0  0  0  0  0  0  0
   37.9620   24.0660   36.1580 C   0  0  0  0  0  0  0  0  0  0  0  0
   39.0070   24.8880   35.6330 C   0  0  0  0  0  0  0  0  0  0  0  0
   40.2060   24.2430   35.3740 C   0  0  0  0  0  0  0  0  0  0  0  0
   40.3200   22.8960   35.6260 N   0  0  0  0  0  0  0  0  0  0  0  0
   39.3020   22.1790   36.1190 C   0  0  0  0  0  0  0  0  0  0  0  0
   38.1060   22.7730   36.3880 N   0  0  0  0  0  0  0  0  0  0  0  0
   37.0140   24.5450   36.3690 H   0  0  0  0  0  0  0  0  0  0  0  0
   41.0620   24.7560   34.9790 H   0  0  0  0  0  0  0  0  0  0  0  0
   39.5560   21.1380   36.2590 H   0  0  0  0  0  0  0  0  0  0  0  0
   37.2790   28.1500   35.1350 C   0  0  0  0  0  0  0  0  0  0  0  0
   37.1950   28.3080   36.2180 H   0  0  0  0  0  0  0  0  0  0  0  0
   38.1110   28.7700   34.7730 H   0  0  0  0  0  0  0  0  0  0  0  0
   35.9850   28.6500   34.4950 C   0  0  0  0  0  0  0  0  0  0  0  0
   35.1160   28.2120   35.0030 H   0  0  0  0  0  0  0  0  0  0  0  0
   35.9970   28.3990   33.4010 H   0  0  0  0  0  0  0  0  0  0  0  0
   35.8710   30.1270   34.5730 C   0  0  0  0  0  0  0  0  0  0  0  0
   36.0670   30.8890   35.7040 C   0  0  0  0  0  0  0  0  0  0  0  0
   36.3280   30.3590   36.6140 H   0  0  0  0  0  0  0  0  0  0  0  0
   35.9400   32.2630   35.6850 C   0  0  0  0  0  3  0  0  0  0  0  0
   35.6030   32.9040   34.4930 C   0  0  0  0  0  0  0  0  0  0  0  0
   35.4910   33.9820   34.4250 H   0  0  0  0  0  0  0  0  0  0  0  0
   35.3930   32.1810   33.3150 C   0  0  0  0  0  0  0  0  0  0  0  0
   35.1340   32.6690   32.3970 H   0  0  0  0  0  0  0  0  0  0  0  0
   35.5350   30.8170   33.4050 C   0  0  0  0  0  3  0  0  0  0  0  0
  1 18  1  0  0  0  0
  1  7  1  1  0  0  0
  2  8  1  0  0  0  0
  2  9  1  0  0  0  0
  2  1  1  0  0  0  0
  3  2  1  0  0  0  0
  4  3  1  0  0  0  0
  4  5  1  0  0  0  0
  5  6  1  0  0  0  0
  6 26  1  0  0  0  0
  6 16  1  1  0  0  0
  6  1  1  0  0  0  0
 10  3  1  0  0  0  0
 11  3  1  0  0  0  0
 12  4  1  0  0  0  0
 13  4  1  0  0  0  0
 14  5  1  0  0  0  0
 15  5  1  0  0  0  0
 17 23  1  0  0  0  0
 17 22  1  0  0  0  0
 18 17  2  0  0  0  0
 19 20  2  0  0  0  0
 19 18  1  0  0  0  0
 20 21  1  0  0  0  0
 21 25  1  0  0  0  0
 21 22  2  0  0  0  0
 24 19  1  0  0  0  0
 26 27  1  0  0  0  0
 28 26  1  0  0  0  0
 29 32  1  0  0  0  0
 29 30  1  0  0  0  0
 29 26  1  0  0  0  0
 31 29  1  0  0  0  0
 32 33  1  0  0  0  0
 33 34  1  0  0  0  0
 35 33  2  0  0  0  0
 36 35  1  0  0  0  0
 37 36  1  0  0  0  0
 38 40  1  0  0  0  0
 38 36  2  0  0  0  0
 39 38  1  0  0  0  0
 40 32  2  0  0  0  0
M  END
>  <minimizedAffinity>
-5.27165842

$$$$

 OpenBabel03272506323D

 40 42  0  0  1  0  0  0  0  0999 V2000
   40.1960   23.1490   35.7460 C   0  0  1  0  0  0  0  0  0  0  0  0
   39.8430   22.3840   36.9210 C   0  0  0  0  0  0  0  0  0  0  0  0
   39.1530   23.1260   38.0450 C   0  0  0  0  0  0  0  0  0  0  0  0
   38.1740   24.1680   37.6200 C   0  0  0  0  0  0  0  0  0  0  0  0
   38.4890   24.9440   36.3960 C   0  0  0  0  0  0  0  0  0  0  0  0
   39.1050   24.1110   35.3350 C   0  0  2  0  0  0  0  0  0  0  0  0
   40.2470   22.4550   34.8510 H   0  0  0  0  0  0  0  0  0  0  0  0
   40.6060   21.7670   37.3880 H   0  0  0  0  0  0  0  0  0  0  0  0
   39.0500   21.6380   36.6010 H   0  0  0  0  0  0  0  0  0  0  0  0
   39.9300   23.5970   38.7070 H   0  0  0  0  0  0  0  0  0  0  0  0
   38.6260   22.3880   38.6890 H   0  0  0  0  0  0  0  0  0  0  0  0
   37.1550   23.7390   37.5380 H   0  0  0  0  0  0  0  0  0  0  0  0
   38.1070   24.9050   38.4640 H   0  0  0  0  0  0  0  0  0  0  0  0
   37.5630   25.3640   36.0020 H   0  0  0  0  0  0  0  0  0  0  0  0
   39.1730   25.7940   36.6220 H   0  0  0  0  0  0  0  0  0  0  0  0
   39.3560   24.7450   34.4790 H   0  0  0  0  0  0  0  0  0  0  0  0
   42.6280   23.3250   36.5120 C   0  0  0  0  0  0  0  0  0  0  0  0
   41.5220   23.7930   35.7370 C   0  0  0  0  0  0  0  0  0  0  0  0
   41.7620   24.9190   34.9650 C   0  0  0  0  0  0  0  0  0  0  0  0
   43.0080   25.5010   34.9850 N   0  0  0  0  0  0  0  0  0  0  0  0
   44.0060   25.0130   35.7340 C   0  0  0  0  0  0  0  0  0  0  0  0
   43.8120   23.9090   36.5070 N   0  0  0  0  0  0  0  0  0  0  0  0
   42.4660   22.4470   37.1250 H   0  0  0  0  0  0  0  0  0  0  0  0
   41.0090   25.3620   34.3430 H   0  0  0  0  0  0  0  0  0  0  0  0
   44.9170   25.5870   35.6360 H   0  0  0  0  0  0  0  0  0  0  0  0
   37.9570   23.1980   34.8360 C   0  0  0  0  0  0  0  0  0  0  0  0
   37.9160   22.2550   35.3960 H   0  0  0  0  0  0  0  0  0  0  0  0
   36.9810   23.6910   34.9440 H   0  0  0  0  0  0  0  0  0  0  0  0
   38.1650   22.8520   33.3630 C   0  0  0  0  0  0  0  0  0  0  0  0
   39.0880   22.2700   33.2360 H   0  0  0  0  0  0  0  0  0  0  0  0
   38.1850   23.7990   32.7620 H   0  0  0  0  0  0  0  0  0  0  0  0
   37.0380   22.0510   32.8240 C   0  0  0  0  0  0  0  0  0  0  0  0
   36.4910   22.1810   31.5660 C   0  0  0  0  0  0  0  0  0  0  0  0
   36.9240   22.9340   30.9170 H   0  0  0  0  0  0  0  0  0  0  0  0
   35.4400   21.3910   31.1460 C   0  0  0  0  0  3  0  0  0  0  0  0
   34.9120   20.4340   32.0140 C   0  0  0  0  0  0  0  0  0  0  0  0
   34.0870   19.7880   31.7320 H   0  0  0  0  0  0  0  0  0  0  0  0
   35.4290   20.2590   33.3010 C   0  0  0  0  0  0  0  0  0  0  0  0
   35.0280   19.5250   33.9710 H   0  0  0  0  0  0  0  0  0  0  0  0
   36.4740   21.0790   33.6540 C   0  0  0  0  0  3  0  0  0  0  0  0
  1  7  1  6  0  0  0
  1  2  1  0  0  0  0
  2  8  1  0  0  0  0
  2  3  1  0  0  0  0
  3 11  1  0  0  0  0
  3 10  1  0  0  0  0
  4  3  1  0  0  0  0
  4 13  1  0  0  0  0
  5 15  1  0  0  0  0
  5  4  1  0  0  0  0
  6 16  1  6  0  0  0
  6  1  1  0  0  0  0
  6  5  1  0  0  0  0
  9  2  1  0  0  0  0
 12  4  1  0  0  0  0
 14  5  1  0  0  0  0
 17 23  1  0  0  0  0
 18  1  1  0  0  0  0
 18 17  2  0  0  0  0
 19 20  2  0  0  0  0
 19 18  1  0  0  0  0
 20 21  1  0  0  0  0
 21 22  2  0  0  0  0
 22 17  1  0  0  0  0
 24 19  1  0  0  0  0
 25 21  1  0  0  0  0
 26 28  1  0  0  0  0
 26  6  1  0  0  0  0
 26 27  1  0  0  0  0
 29 26  1  0  0  0  0
 30 29  1  0  0  0  0
 31 29  1  0  0  0  0
 32 29  1  0  0  0  0
 32 40  1  0  0  0  0
 33 32  2  0  0  0  0
 34 33  1  0  0  0  0
 35 33  1  0  0  0  0
 35 36  2  0  0  0  0
 36 38  1  0  0  0  0
 37 36  1  0  0  0  0
 38 40  2  0  0  0  0
 38 39  1  0  0  0  0
M  END
>  <minimizedAffinity>
-5.20949459

$$$$

 OpenBabel03272506323D

 40 42  0  0  1  0  0  0  0  0999 V2000
   38.9560   23.2370   35.8120 C   0  0  1  0  0  0  0  0  0  0  0  0
   39.3870   23.1420   37.1880 C   0  0  0  0  0  0  0  0  0  0  0  0
   40.4780   22.1410   37.5020 C   0  0  0  0  0  0  0  0  0  0  0  0
   41.5440   22.0090   36.4680 C   0  0  0  0  0  0  0  0  0  0  0  0
   41.1390   22.1400   35.0470 C   0  0  0  0  0  0  0  0  0  0  0  0
   40.1130   23.1890   34.8410 C   0  0  2  0  0  0  0  0  0  0  0  0
   38.5340   24.2730   35.6240 H   0  0  0  0  0  0  0  0  0  0  0  0
   38.6340   23.0220   37.9620 H   0  0  0  0  0  0  0  0  0  0  0  0
   39.8850   24.1300   37.4450 H   0  0  0  0  0  0  0  0  0  0  0  0
   40.0120   21.1340   37.6820 H   0  0  0  0  0  0  0  0  0  0  0  0
   40.9540   22.4220   38.4670 H   0  0  0  0  0  0  0  0  0  0  0  0
   42.3850   22.6990   36.6820 H   0  0  0  0  0  0  0  0  0  0  0  0
   41.9800   20.9810   36.5880 H   0  0  0  0  0  0  0  0  0  0  0  0
   42.0180   22.4050   34.4570 H   0  0  0  0  0  0  0  0  0  0  0  0
   40.7470   21.1760   34.6480 H   0  0  0  0  0  0  0  0  0  0  0  0
   39.8220   23.2070   33.7850 H   0  0  0  0  0  0  0  0  0  0  0  0
   37.6210   21.9810   34.0310 C   0  0  0  0  0  0  0  0  0  0  0  0
   37.8540   22.3530   35.3910 C   0  0  0  0  0  0  0  0  0  0  0  0
   36.9640   21.8330   36.3180 C   0  0  0  0  0  0  0  0  0  0  0  0
   35.9420   21.0170   35.8920 N   0  0  0  0  0  0  0  0  0  0  0  0
   35.7760   20.7050   34.6000 C   0  0  0  0  0  0  0  0  0  0  0  0
   36.6280   21.1940   33.6570 N   0  0  0  0  0  0  0  0  0  0  0  0
   38.3020   22.3740   33.2870 H   0  0  0  0  0  0  0  0  0  0  0  0
   37.0380   22.0420   37.3670 H   0  0  0  0  0  0  0  0  0  0  0  0
   34.9270   20.0560   34.4350 H   0  0  0  0  0  0  0  0  0  0  0  0
   40.8630   24.5250   35.0730 C   0  0  0  0  0  0  0  0  0  0  0  0
   40.5360   25.0190   35.9960 H   0  0  0  0  0  0  0  0  0  0  0  0
   41.9480   24.3640   35.1500 H   0  0  0  0  0  0  0  0  0  0  0  0
   40.5960   25.4850   33.9150 C   0  0  0  0  0  0  0  0  0  0  0  0
   40.4890   24.9270   32.9760 H   0  0  0  0  0  0  0  0  0  0  0  0
   41.4300   26.2350   33.8610 H   0  0  0  0  0  0  0  0  0  0  0  0
   39.3550   26.2700   34.1290 C   0  0  0  0  0  0  0  0  0  0  0  0
   38.3590   26.4670   33.1980 C   0  0  0  0  0  0  0  0  0  0  0  0
   38.4980   26.0070   32.2250 H   0  0  0  0  0  0  0  0  0  0  0  0
   37.2350   27.2140   33.4850 C   0  0  0  0  0  3  0  0  0  0  0  0
   37.0970   27.7880   34.7490 C   0  0  0  0  0  0  0  0  0  0  0  0
   36.2320   28.3840   35.0240 H   0  0  0  0  0  0  0  0  0  0  0  0
   38.0770   27.6200   35.7320 C   0  0  0  0  0  0  0  0  0  0  0  0
   37.9750   28.0590   36.7050 H   0  0  0  0  0  0  0  0  0  0  0  0
   39.1700   26.8660   35.3790 C   0  0  0  0  0  3  0  0  0  0  0  0
  1  7  1  6  0  0  0
  1  2  1  0  0  0  0
  2  9  1  0  0  0  0
  2  3  1  0  0  0  0
  2  8  1  0  0  0  0
  3 10  1  0  0  0  0
  3 11  1  0  0  0  0
  4 13  1  0  0  0  0
  4 12  1  0  0  0  0
  4  3  1  0  0  0  0
  5  4  1  0  0  0  0
  6 16  1  6  0  0  0
  6  5  1  0  0  0  0
  6 26  1  0  0  0  0
  6  1  1  0  0  0  0
 14  5  1  0  0  0  0
 15  5  1  0  0  0  0
 17 18  1  0  0  0  0
 18  1  1  0  0  0  0
 18 19  2  0  0  0  0
 19 24  1  0  0  0  0
 20 19  1  0  0  0  0
 21 20  2  0  0  0  0
 22 17  2  0  0  0  0
 22 21  1  0  0  0  0
 23 17  1  0  0  0  0
 25 21  1  0  0  0  0
 26 28  1  0  0  0  0
 26 27  1  0  0  0  0
 29 32  1  0  0  0  0
 29 26  1  0  0  0  0
 30 29  1  0  0  0  0
 31 29  1  0  0  0  0
 32 40  1  0  0  0  0
 33 35  1  0  0  0  0
 33 32  2  0  0  0  0
 34 33  1  0  0  0  0
 35 36  2  0  0  0  0
 36 37  1  0  0  0  0
 36 38  1  0  0  0  0
 38 39  1  0  0  0  0
 40 38  2  0  0  0  0
M  END
>  <minimizedAffinity>
-5.14858484

$$$$

 OpenBabel03272506323D

 40 42  0  0  1  0  0  0  0  0999 V2000
   38.7600   24.3780   35.0890 C   0  0  1  0  0  0  0  0  0  0  0  0
   37.8070   25.0780   35.9210 C   0  0  0  0  0  0  0  0  0  0  0  0
   38.2300   26.4240   36.4700 C   0  0  0  0  0  0  0  0  0  0  0  0
   39.0410   27.2680   35.5460 C   0  0  0  0  0  0  0  0  0  0  0  0
   40.0010   26.5750   34.6520 C   0  0  0  0  0  0  0  0  0  0  0  0
   39.4650   25.2980   34.1200 C   0  0  2  0  0  0  0  0  0  0  0  0
   38.2020   23.6820   34.3880 H   0  0  0  0  0  0  0  0  0  0  0  0
   37.3470   24.5450   36.7480 H   0  0  0  0  0  0  0  0  0  0  0  0
   36.9300   25.3540   35.2550 H   0  0  0  0  0  0  0  0  0  0  0  0
   38.8010   26.2690   37.4260 H   0  0  0  0  0  0  0  0  0  0  0  0
   37.3190   26.9930   36.7600 H   0  0  0  0  0  0  0  0  0  0  0  0
   38.3890   27.9350   34.9480 H   0  0  0  0  0  0  0  0  0  0  0  0
   39.6430   27.9610   36.1930 H   0  0  0  0  0  0  0  0  0  0  0  0
   40.2230   27.2270   33.8070 H   0  0  0  0  0  0  0  0  0  0  0  0
   40.9620   26.3660   35.1750 H   0  0  0  0  0  0  0  0  0  0  0  0
   40.2320   24.8130   33.5070 H   0  0  0  0  0  0  0  0  0  0  0  0
   39.5820   23.0940   37.1400 C   0  0  0  0  0  0  0  0  0  0  0  0
   39.7040   23.4720   35.7670 C   0  0  0  0  0  0  0  0  0  0  0  0
   40.7900   22.9390   35.0900 C   0  0  0  0  0  0  0  0  0  0  0  0
   41.6580   22.1030   35.7530 N   0  0  0  0  0  0  0  0  0  0  0  0
   41.4880   21.7850   37.0440 C   0  0  0  0  0  0  0  0  0  0  0  0
   40.4350   22.2880   37.7450 N   0  0  0  0  0  0  0  0  0  0  0  0
   38.7430   23.4970   37.6910 H   0  0  0  0  0  0  0  0  0  0  0  0
   40.9860   23.1520   34.0570 H   0  0  0  0  0  0  0  0  0  0  0  0
   42.2570   21.1200   37.4120 H   0  0  0  0  0  0  0  0  0  0  0  0
   38.3610   25.7220   33.1200 C   0  0  0  0  0  0  0  0  0  0  0  0
   37.9280   24.8560   32.6020 H   0  0  0  0  0  0  0  0  0  0  0  0
   37.5400   26.2460   33.6300 H   0  0  0  0  0  0  0  0  0  0  0  0
   38.9440   26.6520   32.0570 C   0  0  0  0  0  0  0  0  0  0  0  0
   39.2010   26.0820   31.1540 H   0  0  0  0  0  0  0  0  0  0  0  0
   39.8360   27.1820   32.4830 H   0  0  0  0  0  0  0  0  0  0  0  0
   37.9830   27.7160   31.6740 C   0  0  0  0  0  0  0  0  0  0  0  0
   38.0210   28.4500   30.5080 C   0  0  0  0  0  0  0  0  0  0  0  0
   38.8250   28.2280   29.8140 H   0  0  0  0  0  0  0  0  0  0  0  0
   37.0830   29.4240   30.2330 C   0  0  0  0  0  3  0  0  0  0  0  0
   36.0660   29.6770   31.1540 C   0  0  0  0  0  0  0  0  0  0  0  0
   35.3050   30.4320   30.9840 H   0  0  0  0  0  0  0  0  0  0  0  0
   35.9790   28.9620   32.3520 C   0  0  0  0  0  0  0  0  0  0  0  0
   35.2000   29.1530   33.0620 H   0  0  0  0  0  0  0  0  0  0  0  0
   36.9450   28.0080   32.5630 C   0  0  0  0  0  3  0  0  0  0  0  0
  1  7  1  6  0  0  0
  1 18  1  0  0  0  0
  1  2  1  0  0  0  0
  2  3  1  0  0  0  0
  2  8  1  0  0  0  0
  3 11  1  0  0  0  0
  3 10  1  0  0  0  0
  4 13  1  0  0  0  0
  4  3  1  0  0  0  0
  5 15  1  0  0  0  0
  5  4  1  0  0  0  0
  6 16  1  6  0  0  0
  6  5  1  0  0  0  0
  6  1  1  0  0  0  0
  9  2  1  0  0  0  0
 12  4  1  0  0  0  0
 14  5  1  0  0  0  0
 17 23  1  0  0  0  0
 17 22  1  0  0  0  0
 18 17  2  0  0  0  0
 19 20  2  0  0  0  0
 19 18  1  0  0  0  0
 20 21  1  0  0  0  0
 21 25  1  0  0  0  0
 21 22  2  0  0  0  0
 24 19  1  0  0  0  0
 26 28  1  0  0  0  0
 26  6  1  0  0  0  0
 27 26  1  0  0  0  0
 29 31  1  0  0  0  0
 29 26  1  0  0  0  0
 30 29  1  0  0  0  0
 32 29  1  0  0  0  0
 32 40  1  0  0  0  0
 33 32  2  0  0  0  0
 34 33  1  0  0  0  0
 35 33  1  0  0  0  0
 35 36  2  0  0  0  0
 36 38  1  0  0  0  0
 37 36  1  0  0  0  0
 38 40  2  0  0  0  0
 38 39  1  0  0  0  0
M  END
>  <minimizedAffinity>
-5.11397457

$$$$

 OpenBabel03272506323D

 40 42  0  0  1  0  0  0  0  0999 V2000
   36.9520   27.4160   31.9520 C   0  0  1  0  0  0  0  0  0  0  0  0
   38.3670   27.6230   32.1640 C   0  0  0  0  0  0  0  0  0  0  0  0
   39.2300   27.8040   30.9340 C   0  0  0  0  0  0  0  0  0  0  0  0
   38.6100   28.5840   29.8240 C   0  0  0  0  0  0  0  0  0  0  0  0
   37.1520   28.4210   29.6060 C   0  0  0  0  0  0  0  0  0  0  0  0
   36.3930   28.3160   30.8750 C   0  0  2  0  0  0  0  0  0  0  0  0
   36.3830   27.7640   32.8690 H   0  0  0  0  0  0  0  0  0  0  0  0
   38.9030   26.9340   32.8110 H   0  0  0  0  0  0  0  0  0  0  0  0
   38.4770   28.6260   32.6860 H   0  0  0  0  0  0  0  0  0  0  0  0
   39.5370   26.7930   30.5480 H   0  0  0  0  0  0  0  0  0  0  0  0
   40.1760   28.3050   31.2320 H   0  0  0  0  0  0  0  0  0  0  0  0
   38.8560   29.6610   29.9160 H   0  0  0  0  0  0  0  0  0  0  0  0
   39.1180   28.2540   28.8790 H   0  0  0  0  0  0  0  0  0  0  0  0
   36.7820   29.2910   29.0620 H   0  0  0  0  0  0  0  0  0  0  0  0
   36.9340   27.5220   28.9860 H   0  0  0  0  0  0  0  0  0  0  0  0
   35.3340   28.1520   30.6500 H   0  0  0  0  0  0  0  0  0  0  0  0
   35.3150   25.6630   31.0680 C   0  0  0  0  0  0  0  0  0  0  0  0
   36.4940   26.0240   31.7910 C   0  0  0  0  0  0  0  0  0  0  0  0
   37.1990   24.9720   32.3550 C   0  0  0  0  0  0  0  0  0  0  0  0
   36.7420   23.6850   32.1930 N   0  0  0  0  0  0  0  0  0  0  0  0
   35.6270   23.4120   31.5030 C   0  0  0  0  0  0  0  0  0  0  0  0
   34.9040   24.4150   30.9320 N   0  0  0  0  0  0  0  0  0  0  0  0
   34.7450   26.4660   30.6180 H   0  0  0  0  0  0  0  0  0  0  0  0
   38.1000   25.1200   32.9200 H   0  0  0  0  0  0  0  0  0  0  0  0
   35.4070   22.3540   31.4710 H   0  0  0  0  0  0  0  0  0  0  0  0
   36.4570   29.7370   31.4910 C   0  0  0  0  0  0  0  0  0  0  0  0
   37.3720   29.8820   32.0800 H   0  0  0  0  0  0  0  0  0  0  0  0
   36.4390   30.5100   30.7100 H   0  0  0  0  0  0  0  0  0  0  0  0
   35.2670   29.9590   32.4220 C   0  0  0  0  0  0  0  0  0  0  0  0
   34.9200   29.0010   32.8300 H   0  0  0  0  0  0  0  0  0  0  0  0
   34.4550   30.4910   31.8590 H   0  0  0  0  0  0  0  0  0  0  0  0
   35.6200   30.8440   33.5600 C   0  0  0  0  0  0  0  0  0  0  0  0
   35.6370   30.4770   34.8880 C   0  0  0  0  0  0  0  0  0  0  0  0
   35.3670   29.4510   35.1180 H   0  0  0  0  0  0  0  0  0  0  0  0
   35.9790   31.3680   35.8840 C   0  0  0  0  0  3  0  0  0  0  0  0
   36.3190   32.6780   35.5440 C   0  0  0  0  0  0  0  0  0  0  0  0
   36.5960   33.4180   36.2890 H   0  0  0  0  0  0  0  0  0  0  0  0
   36.3200   33.1050   34.2130 C   0  0  0  0  0  0  0  0  0  0  0  0
   36.5800   34.1100   33.9470 H   0  0  0  0  0  0  0  0  0  0  0  0
   35.9680   32.1660   33.2730 C   0  0  0  0  0  3  0  0  0  0  0  0
  1  2  1  0  0  0  0
  1  7  1  1  0  0  0
  2  9  1  0  0  0  0
  2  8  1  0  0  0  0
  3 11  1  0  0  0  0
  3  2  1  0  0  0  0
  4 12  1  0  0  0  0
  4  3  1  0  0  0  0
  5  4  1  0  0  0  0
  5  6  1  0  0  0  0
  6 16  1  6  0  0  0
  6 26  1  0  0  0  0
  6  1  1  0  0  0  0
 10  3  1  0  0  0  0
 13  4  1  0  0  0  0
 14  5  1  0  0  0  0
 15  5  1  0  0  0  0
 17 18  1  0  0  0  0
 18  1  1  0  0  0  0
 18 19  2  0  0  0  0
 19 24  1  0  0  0  0
 20 19  1  0  0  0  0
 21 20  2  0  0  0  0
 22 17  2  0  0  0  0
 22 21  1  0  0  0  0
 23 17  1  0  0  0  0
 25 21  1  0  0  0  0
 26 27  1  0  0  0  0
 26 29  1  0  0  0  0
 28 26  1  0  0  0  0
 29 30  1  0  0  0  0
 29 32  1  0  0  0  0
 31 29  1  0  0  0  0
 32 33  1  0  0  0  0
 33 34  1  0  0  0  0
 33 35  2  0  0  0  0
 36 35  1  0  0  0  0
 36 37  1  0  0  0  0
 38 36  2  0  0  0  0
 39 38  1  0  0  0  0
 40 32  2  0  0  0  0
 40 38  1  0  0  0  0
M  END
>  <minimizedAffinity>
-5.07163858

$$$$

 OpenBabel03272506323D

 40 42  0  0  1  0  0  0  0  0999 V2000
   38.2610   24.4630   35.1500 C   0  0  1  0  0  0  0  0  0  0  0  0
   37.8170   25.6160   35.9000 C   0  0  0  0  0  0  0  0  0  0  0  0
   38.6480   26.8760   35.7860 C   0  0  0  0  0  0  0  0  0  0  0  0
   39.2160   27.1500   34.4340 C   0  0  0  0  0  0  0  0  0  0  0  0
   39.6460   25.9840   33.6240 C   0  0  0  0  0  0  0  0  0  0  0  0
   38.7300   24.8260   33.7600 C   0  0  2  0  0  0  0  0  0  0  0  0
   37.3710   23.7950   34.9310 H   0  0  0  0  0  0  0  0  0  0  0  0
   37.5940   25.4950   36.9570 H   0  0  0  0  0  0  0  0  0  0  0  0
   36.8260   25.9390   35.4500 H   0  0  0  0  0  0  0  0  0  0  0  0
   39.4850   26.8340   36.5360 H   0  0  0  0  0  0  0  0  0  0  0  0
   38.0240   27.7440   36.0900 H   0  0  0  0  0  0  0  0  0  0  0  0
   38.5270   27.7840   33.8400 H   0  0  0  0  0  0  0  0  0  0  0  0
   40.1260   27.7880   34.5940 H   0  0  0  0  0  0  0  0  0  0  0  0
   39.6660   26.2780   32.5740 H   0  0  0  0  0  0  0  0  0  0  0  0
   40.6740   25.6570   33.9000 H   0  0  0  0  0  0  0  0  0  0  0  0
   39.1220   23.9860   33.1780 H   0  0  0  0  0  0  0  0  0  0  0  0
   40.1430   22.7340   35.1160 C   0  0  0  0  0  0  0  0  0  0  0  0
   39.2020   23.5480   35.8200 C   0  0  0  0  0  0  0  0  0  0  0  0
   39.2130   23.4220   37.2000 C   0  0  0  0  0  0  0  0  0  0  0  0
   40.0980   22.5540   37.7960 N   0  0  0  0  0  0  0  0  0  0  0  0
   40.9570   21.8170   37.0790 C   0  0  0  0  0  0  0  0  0  0  0  0
   40.9800   21.9100   35.7200 N   0  0  0  0  0  0  0  0  0  0  0  0
   40.1550   22.8130   34.0370 H   0  0  0  0  0  0  0  0  0  0  0  0
   38.5520   23.9820   37.8340 H   0  0  0  0  0  0  0  0  0  0  0  0
   41.5810   21.1870   37.6980 H   0  0  0  0  0  0  0  0  0  0  0  0
   37.4380   25.2570   33.0200 C   0  0  0  0  0  0  0  0  0  0  0  0
   36.5450   24.7960   33.4620 H   0  0  0  0  0  0  0  0  0  0  0  0
   37.3020   26.3470   33.0600 H   0  0  0  0  0  0  0  0  0  0  0  0
   37.5040   24.8290   31.5560 C   0  0  0  0  0  0  0  0  0  0  0  0
   38.5330   24.9060   31.1830 H   0  0  0  0  0  0  0  0  0  0  0  0
   36.7960   25.4610   30.9560 H   0  0  0  0  0  0  0  0  0  0  0  0
   37.0510   23.4270   31.3740 C   0  0  0  0  0  0  0  0  0  0  0  0
   35.7870   22.9500   31.6450 C   0  0  0  0  0  0  0  0  0  0  0  0
   35.0630   23.6640   32.0230 H   0  0  0  0  0  0  0  0  0  0  0  0
   35.4530   21.6260   31.4450 C   0  0  0  0  0  3  0  0  0  0  0  0
   36.4150   20.7420   30.9570 C   0  0  0  0  0  0  0  0  0  0  0  0
   36.2030   19.6920   30.7830 H   0  0  0  0  0  0  0  0  0  0  0  0
   37.7130   21.1720   30.6650 C   0  0  0  0  0  0  0  0  0  0  0  0
   38.4560   20.4960   30.2900 H   0  0  0  0  0  0  0  0  0  0  0  0
   37.9780   22.5020   30.8870 C   0  0  0  0  0  3  0  0  0  0  0  0
  1  7  1  6  0  0  0
  1 18  1  0  0  0  0
  1  2  1  0  0  0  0
  2  8  1  0  0  0  0
  3  2  1  0  0  0  0
  3 11  1  0  0  0  0
  3 10  1  0  0  0  0
  4 13  1  0  0  0  0
  4  3  1  0  0  0  0
  5  6  1  0  0  0  0
  5 15  1  0  0  0  0
  5  4  1  0  0  0  0
  6 16  1  6  0  0  0
  6  1  1  0  0  0  0
  9  2  1  0  0  0  0
 12  4  1  0  0  0  0
 14  5  1  0  0  0  0
 17 22  2  0  0  0  0
 17 18  1  0  0  0  0
 18 19  2  0  0  0  0
 19 20  1  0  0  0  0
 19 24  1  0  0  0  0
 21 25  1  0  0  0  0
 21 20  2  0  0  0  0
 22 21  1  0  0  0  0
 23 17  1  0  0  0  0
 26 28  1  0  0  0  0
 26 27  1  0  0  0  0
 26  6  1  0  0  0  0
 29 26  1  0  0  0  0
 30 29  1  0  0  0  0
 31 29  1  0  0  0  0
 32 29  1  0  0  0  0
 32 33  1  0  0  0  0
 33 34  1  0  0  0  0
 35 33  2  0  0  0  0
 36 35  1  0  0  0  0
 37 36  1  0  0  0  0
 38 40  1  0  0  0  0
 38 36  2  0  0  0  0
 39 38  1  0  0  0  0
 40 32  2  0  0  0  0
M  END
>  <minimizedAffinity>
-5.06935215

$$$$
