
 OpenBabel03272510303D

 28 30  0  0  0  0  0  0  0  0999 V2000
   37.5080   31.4710   49.3900 C   0  0  0  0  0  0  0  0  0  0  0  0
   37.9220   32.7620   49.7220 C   0  0  0  0  0  0  0  0  0  0  0  0
   38.7470   33.3790   48.8140 C   0  0  0  0  0  0  0  0  0  0  0  0
   39.1130   32.7390   47.6760 N   0  0  0  0  0  0  0  0  0  0  0  0
   38.6880   31.4760   47.3860 C   0  0  0  0  0  0  0  0  0  0  0  0
   37.8630   30.8140   48.2610 N   0  0  0  0  0  0  0  0  0  0  0  0
   37.5710   33.1780   50.6500 H   0  0  0  0  0  0  0  0  0  0  0  0
   39.0890   34.3810   49.0380 H   0  0  0  0  0  0  0  0  0  0  0  0
   36.5770   30.7600   50.3380 C   0  0  0  0  0  0  0  0  0  0  0  0
   36.5160   29.3250   50.4510 C   0  0  0  0  0  0  0  0  0  0  0  0
   37.3290   30.0720   51.4900 C   0  0  0  0  0  0  0  0  0  0  0  0
   35.7290   31.4020   50.6620 H   0  0  0  0  0  0  0  0  0  0  0  0
   35.5440   28.8920   50.8270 H   0  0  0  0  0  0  0  0  0  0  0  0
   37.1300   28.6230   49.8510 H   0  0  0  0  0  0  0  0  0  0  0  0
   36.8690   30.1990   52.4900 H   0  0  0  0  0  0  0  0  0  0  0  0
   38.4320   30.0200   51.4470 H   0  0  0  0  0  0  0  0  0  0  0  0
   39.0620   30.7880   46.1570 C   0  0  0  0  0  0  0  0  0  0  0  0
   40.0180   31.2070   45.7810 H   0  0  0  0  0  0  0  0  0  0  0  0
   39.1240   29.6880   46.2930 H   0  0  0  0  0  0  0  0  0  0  0  0
   38.0320   31.0930   45.1240 C   0  0  0  0  0  0  0  0  0  0  0  0
   38.2150   32.1890   44.2770 C   0  0  0  0  0  0  0  0  0  0  0  0
   39.1300   32.7660   44.4320 H   0  0  0  0  0  0  0  0  0  0  0  0
   37.3610   32.5980   43.2800 C   0  0  0  0  0  3  0  0  0  0  0  0
   36.2010   31.8360   43.1080 C   0  0  0  0  0  0  0  0  0  0  0  0
   35.5280   32.1540   42.3270 H   0  0  0  0  0  0  0  0  0  0  0  0
   35.9980   30.7450   43.9390 C   0  0  0  0  0  0  0  0  0  0  0  0
   35.0840   30.1590   43.7910 H   0  0  0  0  0  0  0  0  0  0  0  0
   36.8630   30.3570   44.9240 C   0  0  0  0  0  3  0  0  0  0  0  0
  1  2  1  0  0  0  0
  1  9  1  0  0  0  0
  2  7  1  0  0  0  0
  3  8  1  0  0  0  0
  3  2  2  0  0  0  0
  4  3  1  0  0  0  0
  5  4  2  0  0  0  0
  5  6  1  0  0  0  0
  6  1  2  0  0  0  0
  9 10  1  0  0  0  0
  9 12  1  0  0  0  0
  9 11  1  0  0  0  0
 10 13  1  0  0  0  0
 10 11  1  0  0  0  0
 11 15  1  0  0  0  0
 14 10  1  0  0  0  0
 16 11  1  0  0  0  0
 17 19  1  0  0  0  0
 17  5  1  0  0  0  0
 18 17  1  0  0  0  0
 20 17  1  0  0  0  0
 21 22  1  0  0  0  0
 21 20  2  0  0  0  0
 23 21  1  0  0  0  0
 24 23  2  0  0  0  0
 24 26  1  0  0  0  0
 25 24  1  0  0  0  0
 26 28  2  0  0  0  0
 27 26  1  0  0  0  0
 28 20  1  0  0  0  0
M  END
>  <minimizedAffinity>
-5.21773863

>  <minimizedRMSD>
0.32826525

$$$$
