
 OpenBabel03272510243D

 32 35  0  0  0  0  0  0  0  0999 V2000
   36.0220   30.1170   46.9590 C   0  0  0  0  0  0  0  0  0  0  0  0
   36.9220   30.6690   47.8760 C   0  0  0  0  0  0  0  0  0  0  0  0
   37.9010   31.5340   47.4430 C   0  0  0  0  0  0  0  0  0  0  0  0
   37.9590   31.8320   46.0890 C   0  0  0  0  0  0  0  0  0  0  0  0
   38.8290   32.6500   45.4350 N   0  0  0  0  0  0  0  0  0  0  0  0
   38.4920   32.6180   44.1490 C   0  0  0  0  0  0  0  0  0  0  0  0
   37.4370   31.8100   43.9500 N   0  0  0  0  0  0  0  0  0  0  0  0
   37.0910   31.3090   45.1520 C   0  0  0  0  0  0  0  0  0  0  0  0
   36.0990   30.4290   45.6090 C   0  0  0  0  0  0  0  0  0  0  0  0
   35.2450   29.4340   47.2780 H   0  0  0  0  0  0  0  0  0  0  0  0
   38.6080   31.9680   48.1540 H   0  0  0  0  0  0  0  0  0  0  0  0
   39.6200   33.2010   45.8830 H   0  0  0  0  0  0  0  0  0  0  0  0
   35.4160   30.0170   44.8800 H   0  0  0  0  0  0  0  0  0  0  0  0
   37.4480   30.1390   51.5540 C   0  0  0  0  0  0  0  0  0  0  0  0
   37.7110   30.5560   50.2580 C   0  0  0  0  0  0  0  0  0  0  0  0
   36.7700   30.2880   49.2690 C   0  0  0  0  0  0  0  0  0  0  0  0
   35.6230   29.6230   49.6190 N   0  0  0  0  0  0  0  0  0  0  0  0
   35.4010   29.2290   50.9020 C   0  0  0  0  0  0  0  0  0  0  0  0
   36.3000   29.4860   51.8450 N   0  0  0  0  0  0  0  0  0  0  0  0
   38.2260   30.3850   52.2570 H   0  0  0  0  0  0  0  0  0  0  0  0
   38.5900   31.0700   49.9640 H   0  0  0  0  0  0  0  0  0  0  0  0
   34.4890   28.7060   51.1560 H   0  0  0  0  0  0  0  0  0  0  0  0
   39.1910   33.3580   43.1860 O   0  0  0  0  0  0  0  0  0  0  0  0
   39.0900   33.1060   41.8270 C   0  0  0  0  0  0  0  0  0  0  0  0
   38.4730   33.9880   40.9350 C   0  0  0  0  0  0  0  0  0  0  0  0
   38.0540   34.9130   41.3140 H   0  0  0  0  0  0  0  0  0  0  0  0
   38.3880   33.7090   39.5870 C   0  0  0  0  0  0  0  0  0  0  0  0
   38.9380   32.5170   39.1600 C   0  0  0  0  0  0  0  0  0  0  0  0
   38.9240   32.2050   38.1270 H   0  0  0  0  0  0  0  0  0  0  0  0
   39.5610   31.6100   40.0160 C   0  0  0  0  0  0  0  0  0  0  0  0
   39.9840   30.6840   39.6550 H   0  0  0  0  0  0  0  0  0  0  0  0
   39.6320   31.9210   41.3710 C   0  0  0  0  0  0  0  0  0  0  0  0
  1 10  1  0  0  0  0
  1  2  1  0  0  0  0
  2 16  1  0  0  0  0
  3  2  2  0  0  0  0
  3 11  1  0  0  0  0
  4  3  1  0  0  0  0
  5 12  1  0  0  0  0
  5  4  1  0  0  0  0
  6  5  1  0  0  0  0
  7  6  2  0  0  0  0
  7  8  1  0  0  0  0
  8  9  1  0  0  0  0
  8  4  2  0  0  0  0
  9  1  2  0  0  0  0
 13  9  1  0  0  0  0
 14 19  1  0  0  0  0
 14 20  1  0  0  0  0
 15 14  2  0  0  0  0
 16 17  2  0  0  0  0
 16 15  1  0  0  0  0
 17 18  1  0  0  0  0
 18 22  1  0  0  0  0
 18 19  2  0  0  0  0
 21 15  1  0  0  0  0
 23  6  1  0  0  0  0
 24 23  1  0  0  0  0
 25 26  1  0  0  0  0
 25 24  2  0  0  0  0
 27 25  1  0  0  0  0
 28 27  2  0  0  0  0
 28 30  1  0  0  0  0
 29 28  1  0  0  0  0
 30 32  2  0  0  0  0
 31 30  1  0  0  0  0
 32 24  1  0  0  0  0
M  END
>  <minimizedAffinity>
-5.55504942

>  <minimizedRMSD>
1.57433915

$$$$
