
 OpenBabel03272503003D

 34 36  0  0  1  0  0  0  0  0999 V2000
   38.2080   22.7830   35.9840 N   0  0  0  0  0  0  0  0  0  0  0  0
   39.5920   22.5640   36.3120 C   0  0  0  0  0  0  0  0  0  0  0  0
   39.9610   22.6330   37.7290 C   0  0  0  0  0  0  0  0  0  0  0  0
   39.1350   23.4330   38.6540 C   0  0  0  0  0  0  0  0  0  0  0  0
   37.7360   23.6800   38.1710 C   0  0  0  0  0  0  0  0  0  0  0  0
   37.7480   23.9820   36.6690 C   0  0  1  0  0  0  0  0  0  0  0  0
   39.8960   21.5880   35.8780 H   0  0  0  0  0  0  0  0  0  0  0  0
   40.1800   23.3200   35.7280 H   0  0  0  0  0  0  0  0  0  0  0  0
   41.0190   23.0240   37.8010 H   0  0  0  0  0  0  0  0  0  0  0  0
   40.0470   21.5910   38.1280 H   0  0  0  0  0  0  0  0  0  0  0  0
   39.6090   24.4260   38.8970 H   0  0  0  0  0  0  0  0  0  0  0  0
   39.0420   22.9310   39.6560 H   0  0  0  0  0  0  0  0  0  0  0  0
   37.3130   24.5600   38.6980 H   0  0  0  0  0  0  0  0  0  0  0  0
   37.1050   22.7760   38.3350 H   0  0  0  0  0  0  0  0  0  0  0  0
   36.7440   24.2780   36.3890 H   0  0  0  0  0  0  0  0  0  0  0  0
   37.4090   21.9540   35.1220 C   0  0  0  0  0  0  0  0  0  0  0  0
   36.3000   21.2210   35.5290 C   0  0  0  0  0  0  0  0  0  0  0  0
   35.6340   20.4700   34.5820 C   0  0  0  0  0  0  0  0  0  0  0  0
   36.0860   20.4800   33.3060 N   0  0  0  0  0  0  0  0  0  0  0  0
   37.1630   21.2000   32.9480 C   0  0  0  0  0  0  0  0  0  0  0  0
   37.8170   21.9330   33.8630 N   0  0  0  0  0  0  0  0  0  0  0  0
   36.0260   21.2800   36.5470 H   0  0  0  0  0  0  0  0  0  0  0  0
   34.7730   19.8940   34.8690 H   0  0  0  0  0  0  0  0  0  0  0  0
   37.5240   21.2020   31.9110 H   0  0  0  0  0  0  0  0  0  0  0  0
   38.6590   25.0200   36.5280 O   0  0  0  0  0  0  0  0  0  0  0  0
   38.7950   25.7900   35.3970 C   0  0  0  0  0  0  0  0  0  0  0  0
   37.5580   26.0880   34.8430 C   0  0  0  0  0  0  0  0  0  0  0  0
   36.5840   25.7760   35.2200 H   0  0  0  0  0  0  0  0  0  0  0  0
   37.4050   26.8490   33.7000 C   0  0  0  0  0  3  0  0  0  0  0  0
   38.5460   27.3430   33.0670 C   0  0  0  0  0  0  0  0  0  0  0  0
   38.5570   27.9510   32.1650 H   0  0  0  0  0  0  0  0  0  0  0  0
   39.7820   27.0460   33.6190 C   0  0  0  0  0  0  0  0  0  0  0  0
   40.6750   27.4080   33.1600 H   0  0  0  0  0  0  0  0  0  0  0  0
   39.9100   26.2850   34.7600 C   0  0  0  0  0  3  0  0  0  0  0  0
  1  2  1  0  0  0  0
  1  6  1  0  0  0  0
  2  3  1  0  0  0  0
  3  9  1  0  0  0  0
  3 10  1  0  0  0  0
  3  4  1  0  0  0  0
  4 11  1  0  0  0  0
  4 12  1  0  0  0  0
  5 14  1  0  0  0  0
  5  4  1  0  0  0  0
  5 13  1  0  0  0  0
  6 15  1  6  0  0  0
  6  5  1  0  0  0  0
  7  2  1  0  0  0  0
  8  2  1  0  0  0  0
 16 17  1  0  0  0  0
 16  1  1  0  0  0  0
 17 22  1  0  0  0  0
 18 23  1  0  0  0  0
 18 17  2  0  0  0  0
 19 18  1  0  0  0  0
 20 19  2  0  0  0  0
 20 21  1  0  0  0  0
 21 16  2  0  0  0  0
 24 20  1  0  0  0  0
 25  6  1  0  0  0  0
 26 25  1  0  0  0  0
 27 28  1  0  0  0  0
 27 26  1  0  0  0  0
 29 27  2  0  0  0  0
 30 32  2  0  0  0  0
 30 29  1  0  0  0  0
 31 30  1  0  0  0  0
 32 34  1  0  0  0  0
 33 32  1  0  0  0  0
 34 26  2  0  0  0  0
M  END
>  <minimizedAffinity>
-5.28742933

$$$$

 OpenBabel03272503003D

 34 36  0  0  1  0  0  0  0  0999 V2000
   39.1660   24.3940   35.9210 N   0  0  0  0  0  0  0  0  0  0  0  0
   38.0680   24.9160   36.6910 C   0  0  0  0  0  0  0  0  0  0  0  0
   38.0330   24.5820   38.1170 C   0  0  0  0  0  0  0  0  0  0  0  0
   38.7060   23.3570   38.5900 C   0  0  0  0  0  0  0  0  0  0  0  0
   39.7720   22.8450   37.6670 C   0  0  0  0  0  0  0  0  0  0  0  0
   39.3090   22.9750   36.2120 C   0  0  1  0  0  0  0  0  0  0  0  0
   38.0430   26.0170   36.5490 H   0  0  0  0  0  0  0  0  0  0  0  0
   37.1300   24.5540   36.1920 H   0  0  0  0  0  0  0  0  0  0  0  0
   36.9530   24.5170   38.4410 H   0  0  0  0  0  0  0  0  0  0  0  0
   38.4210   25.4560   38.7000 H   0  0  0  0  0  0  0  0  0  0  0  0
   37.9770   22.5200   38.7890 H   0  0  0  0  0  0  0  0  0  0  0  0
   39.2010   23.5200   39.5870 H   0  0  0  0  0  0  0  0  0  0  0  0
   39.9610   21.7720   37.8760 H   0  0  0  0  0  0  0  0  0  0  0  0
   40.7050   23.4430   37.7850 H   0  0  0  0  0  0  0  0  0  0  0  0
   40.0480   22.4820   35.5910 H   0  0  0  0  0  0  0  0  0  0  0  0
   39.9890   25.1490   35.0150 C   0  0  0  0  0  0  0  0  0  0  0  0
   40.0380   26.5370   34.9550 C   0  0  0  0  0  0  0  0  0  0  0  0
   40.8790   27.1190   34.0290 C   0  0  0  0  0  0  0  0  0  0  0  0
   41.6160   26.3180   33.2240 N   0  0  0  0  0  0  0  0  0  0  0  0
   41.5420   24.9780   33.3090 C   0  0  0  0  0  0  0  0  0  0  0  0
   40.7270   24.4050   34.2070 N   0  0  0  0  0  0  0  0  0  0  0  0
   39.4250   27.0740   35.6270 H   0  0  0  0  0  0  0  0  0  0  0  0
   40.9370   28.1900   33.9620 H   0  0  0  0  0  0  0  0  0  0  0  0
   42.1430   24.3360   32.6520 H   0  0  0  0  0  0  0  0  0  0  0  0
   38.0800   22.3300   36.1770 O   0  0  0  0  0  0  0  0  0  0  0  0
   37.5010   21.8150   35.0420 C   0  0  0  0  0  0  0  0  0  0  0  0
   36.3300   21.1330   35.3420 C   0  0  0  0  0  0  0  0  0  0  0  0
   35.8910   20.9990   36.3300 H   0  0  0  0  0  0  0  0  0  0  0  0
   35.5480   20.5170   34.3850 C   0  0  0  0  0  3  0  0  0  0  0  0
   35.9500   20.5800   33.0490 C   0  0  0  0  0  0  0  0  0  0  0  0
   35.4220   20.1370   32.2080 H   0  0  0  0  0  0  0  0  0  0  0  0
   37.1190   21.2610   32.7480 C   0  0  0  0  0  0  0  0  0  0  0  0
   37.4550   21.3270   31.7380 H   0  0  0  0  0  0  0  0  0  0  0  0
   37.8840   21.8670   33.7210 C   0  0  0  0  0  3  0  0  0  0  0  0
  1  6  1  0  0  0  0
  1  2  1  0  0  0  0
  2  3  1  0  0  0  0
  3  9  1  0  0  0  0
  3  4  1  0  0  0  0
  3 10  1  0  0  0  0
  4 11  1  0  0  0  0
  4 12  1  0  0  0  0
  5 14  1  0  0  0  0
  5 13  1  0  0  0  0
  5  4  1  0  0  0  0
  6 15  1  6  0  0  0
  6  5  1  0  0  0  0
  7  2  1  0  0  0  0
  8  2  1  0  0  0  0
 16  1  1  0  0  0  0
 17 16  1  0  0  0  0
 17 22  1  0  0  0  0
 18 17  2  0  0  0  0
 19 20  2  0  0  0  0
 19 18  1  0  0  0  0
 20 21  1  0  0  0  0
 21 16  2  0  0  0  0
 23 18  1  0  0  0  0
 24 20  1  0  0  0  0
 25  6  1  0  0  0  0
 26 27  1  0  0  0  0
 26 25  1  0  0  0  0
 27 28  1  0  0  0  0
 29 27  2  0  0  0  0
 30 29  1  0  0  0  0
 31 30  1  0  0  0  0
 32 30  2  0  0  0  0
 32 34  1  0  0  0  0
 33 32  1  0  0  0  0
 34 26  2  0  0  0  0
M  END
>  <minimizedAffinity>
-5.21212149

$$$$

 OpenBabel03272503003D

 34 36  0  0  1  0  0  0  0  0999 V2000
   38.3000   26.2960   33.0040 N   0  0  0  0  0  0  0  0  0  0  0  0
   37.0240   26.7560   33.4830 C   0  0  0  0  0  0  0  0  0  0  0  0
   37.0240   27.6100   34.6740 C   0  0  0  0  0  0  0  0  0  0  0  0
   38.1430   27.5140   35.6310 C   0  0  0  0  0  0  0  0  0  0  0  0
   39.4000   26.9340   35.0530 C   0  0  0  0  0  0  0  0  0  0  0  0
   39.0570   25.7620   34.1280 C   0  0  1  0  0  0  0  0  0  0  0  0
   36.5060   27.2630   32.6410 H   0  0  0  0  0  0  0  0  0  0  0  0
   36.4060   25.8390   33.6720 H   0  0  0  0  0  0  0  0  0  0  0  0
   36.0720   27.4160   35.2500 H   0  0  0  0  0  0  0  0  0  0  0  0
   36.9140   28.6760   34.3510 H   0  0  0  0  0  0  0  0  0  0  0  0
   37.8680   26.9220   36.5500 H   0  0  0  0  0  0  0  0  0  0  0  0
   38.4190   28.5250   36.0410 H   0  0  0  0  0  0  0  0  0  0  0  0
   40.0430   26.5530   35.8720 H   0  0  0  0  0  0  0  0  0  0  0  0
   39.9380   27.7020   34.4490 H   0  0  0  0  0  0  0  0  0  0  0  0
   39.9890   25.2950   33.8350 H   0  0  0  0  0  0  0  0  0  0  0  0
   38.7560   26.3530   31.6410 C   0  0  0  0  0  0  0  0  0  0  0  0
   38.8230   27.5110   30.8740 C   0  0  0  0  0  0  0  0  0  0  0  0
   39.2840   27.4060   29.5780 C   0  0  0  0  0  0  0  0  0  0  0  0
   39.6490   26.1890   29.1130 N   0  0  0  0  0  0  0  0  0  0  0  0
   39.5710   25.0900   29.8830 C   0  0  0  0  0  0  0  0  0  0  0  0
   39.1240   25.1830   31.1450 N   0  0  0  0  0  0  0  0  0  0  0  0
   38.5150   28.4130   31.3290 H   0  0  0  0  0  0  0  0  0  0  0  0
   39.3450   28.2860   28.9630 H   0  0  0  0  0  0  0  0  0  0  0  0
   39.8690   24.1060   29.4970 H   0  0  0  0  0  0  0  0  0  0  0  0
   38.2710   24.9210   34.9060 O   0  0  0  0  0  0  0  0  0  0  0  0
   38.7230   24.2270   36.0030 C   0  0  0  0  0  0  0  0  0  0  0  0
   39.8550   23.4860   35.6940 C   0  0  0  0  0  0  0  0  0  0  0  0
   40.3540   23.4320   34.7260 H   0  0  0  0  0  0  0  0  0  0  0  0
   40.5150   22.6950   36.6150 C   0  0  0  0  0  3  0  0  0  0  0  0
   40.0240   22.6340   37.9200 C   0  0  0  0  0  0  0  0  0  0  0  0
   40.4520   22.0510   38.7310 H   0  0  0  0  0  0  0  0  0  0  0  0
   38.8930   23.3740   38.2290 C   0  0  0  0  0  0  0  0  0  0  0  0
   38.4910   23.3500   39.2170 H   0  0  0  0  0  0  0  0  0  0  0  0
   38.2510   24.1560   37.2940 C   0  0  0  0  0  3  0  0  0  0  0  0
  1  2  1  0  0  0  0
  1  6  1  0  0  0  0
  2  8  1  0  0  0  0
  2  3  1  0  0  0  0
  3  9  1  0  0  0  0
  3  4  1  0  0  0  0
  4 12  1  0  0  0  0
  4 11  1  0  0  0  0
  5  4  1  0  0  0  0
  5 13  1  0  0  0  0
  6 15  1  6  0  0  0
  6 25  1  0  0  0  0
  6  5  1  0  0  0  0
  7  2  1  0  0  0  0
 10  3  1  0  0  0  0
 14  5  1  0  0  0  0
 16  1  1  0  0  0  0
 17 22  1  0  0  0  0
 17 16  2  0  0  0  0
 18 17  1  0  0  0  0
 19 18  2  0  0  0  0
 19 20  1  0  0  0  0
 20 21  2  0  0  0  0
 21 16  1  0  0  0  0
 23 18  1  0  0  0  0
 24 20  1  0  0  0  0
 25 26  1  0  0  0  0
 26 34  1  0  0  0  0
 27 26  2  0  0  0  0
 27 29  1  0  0  0  0
 28 27  1  0  0  0  0
 29 30  2  0  0  0  0
 30 32  1  0  0  0  0
 30 31  1  0  0  0  0
 32 33  1  0  0  0  0
 34 32  2  0  0  0  0
M  END
>  <minimizedAffinity>
-5.05802441

$$$$

 OpenBabel03272503003D

 34 36  0  0  1  0  0  0  0  0999 V2000
   39.5290   24.8000   34.8060 N   0  0  0  0  0  0  0  0  0  0  0  0
   40.6700   24.4010   34.0260 C   0  0  0  0  0  0  0  0  0  0  0  0
   41.4980   25.4690   33.4590 C   0  0  0  0  0  0  0  0  0  0  0  0
   40.8970   26.7920   33.2030 C   0  0  0  0  0  0  0  0  0  0  0  0
   39.6570   27.0690   34.0010 C   0  0  0  0  0  0  0  0  0  0  0  0
   38.7860   25.8100   34.0670 C   0  0  1  0  0  0  0  0  0  0  0  0
   41.2880   23.7190   34.6470 H   0  0  0  0  0  0  0  0  0  0  0  0
   40.2790   23.7450   33.2040 H   0  0  0  0  0  0  0  0  0  0  0  0
   41.9300   25.1020   32.4810 H   0  0  0  0  0  0  0  0  0  0  0  0
   42.4040   25.6020   34.1030 H   0  0  0  0  0  0  0  0  0  0  0  0
   40.6590   26.9480   32.1120 H   0  0  0  0  0  0  0  0  0  0  0  0
   41.6180   27.6220   33.4380 H   0  0  0  0  0  0  0  0  0  0  0  0
   39.0700   27.8710   33.5090 H   0  0  0  0  0  0  0  0  0  0  0  0
   39.9250   27.3560   35.0440 H   0  0  0  0  0  0  0  0  0  0  0  0
   37.8500   26.0870   34.5390 H   0  0  0  0  0  0  0  0  0  0  0  0
   39.1790   24.2870   36.1040 C   0  0  0  0  0  0  0  0  0  0  0  0
   38.0830   24.7000   36.8520 C   0  0  0  0  0  0  0  0  0  0  0  0
   37.8780   24.1130   38.0840 C   0  0  0  0  0  0  0  0  0  0  0  0
   38.7470   23.1650   38.5060 N   0  0  0  0  0  0  0  0  0  0  0  0
   39.7970   22.7900   37.7560 C   0  0  0  0  0  0  0  0  0  0  0  0
   40.0040   23.3570   36.5570 N   0  0  0  0  0  0  0  0  0  0  0  0
   37.4630   25.4460   36.4350 H   0  0  0  0  0  0  0  0  0  0  0  0
   37.0380   24.4140   38.6830 H   0  0  0  0  0  0  0  0  0  0  0  0
   40.4970   22.0210   38.1070 H   0  0  0  0  0  0  0  0  0  0  0  0
   38.6130   25.4350   32.7410 O   0  0  0  0  0  0  0  0  0  0  0  0
   37.3980   25.1640   32.1590 C   0  0  0  0  0  0  0  0  0  0  0  0
   36.7730   26.3310   31.7410 C   0  0  0  0  0  0  0  0  0  0  0  0
   37.1580   27.3460   31.8410 H   0  0  0  0  0  0  0  0  0  0  0  0
   35.5380   26.3470   31.1230 C   0  0  0  0  0  3  0  0  0  0  0  0
   34.8810   25.1350   30.9060 C   0  0  0  0  0  0  0  0  0  0  0  0
   33.9100   25.0160   30.4320 H   0  0  0  0  0  0  0  0  0  0  0  0
   35.5050   23.9690   31.3230 C   0  0  0  0  0  0  0  0  0  0  0  0
   35.0300   23.0250   31.1720 H   0  0  0  0  0  0  0  0  0  0  0  0
   36.7370   23.9780   31.9380 C   0  0  0  0  0  3  0  0  0  0  0  0
  1 16  1  0  0  0  0
  2  7  1  0  0  0  0
  2  1  1  0  0  0  0
  3  2  1  0  0  0  0
  3 10  1  0  0  0  0
  4 12  1  0  0  0  0
  4  3  1  0  0  0  0
  4  5  1  0  0  0  0
  5  6  1  0  0  0  0
  5 14  1  0  0  0  0
  6 15  1  1  0  0  0
  6  1  1  0  0  0  0
  8  2  1  0  0  0  0
  9  3  1  0  0  0  0
 11  4  1  0  0  0  0
 13  5  1  0  0  0  0
 16 21  2  0  0  0  0
 16 17  1  0  0  0  0
 17 18  2  0  0  0  0
 18 19  1  0  0  0  0
 18 23  1  0  0  0  0
 20 24  1  0  0  0  0
 20 19  2  0  0  0  0
 21 20  1  0  0  0  0
 22 17  1  0  0  0  0
 25  6  1  0  0  0  0
 26 25  1  0  0  0  0
 27 28  1  0  0  0  0
 27 26  2  0  0  0  0
 29 27  1  0  0  0  0
 30 29  2  0  0  0  0
 30 32  1  0  0  0  0
 31 30  1  0  0  0  0
 32 34  2  0  0  0  0
 33 32  1  0  0  0  0
 34 26  1  0  0  0  0
M  END
>  <minimizedAffinity>
-5.00120974

$$$$

 OpenBabel03272503003D

 34 36  0  0  1  0  0  0  0  0999 V2000
   37.2470   27.5570   33.7380 N   0  0  0  0  0  0  0  0  0  0  0  0
   37.4280   27.3060   35.1430 C   0  0  0  0  0  0  0  0  0  0  0  0
   38.8060   27.2350   35.6370 C   0  0  0  0  0  0  0  0  0  0  0  0
   39.8890   26.8590   34.7090 C   0  0  0  0  0  0  0  0  0  0  0  0
   39.5610   27.0750   33.2610 C   0  0  0  0  0  0  0  0  0  0  0  0
   38.1110   26.6590   32.9860 C   0  0  1  0  0  0  0  0  0  0  0  0
   36.8530   28.0720   35.7050 H   0  0  0  0  0  0  0  0  0  0  0  0
   36.8940   26.3440   35.3650 H   0  0  0  0  0  0  0  0  0  0  0  0
   38.8360   26.5070   36.5010 H   0  0  0  0  0  0  0  0  0  0  0  0
   39.0650   28.2120   36.1190 H   0  0  0  0  0  0  0  0  0  0  0  0
   40.2120   25.7870   34.8430 H   0  0  0  0  0  0  0  0  0  0  0  0
   40.8260   27.4460   34.9130 H   0  0  0  0  0  0  0  0  0  0  0  0
   40.2260   26.4490   32.6320 H   0  0  0  0  0  0  0  0  0  0  0  0
   39.6640   28.1530   32.9980 H   0  0  0  0  0  0  0  0  0  0  0  0
   37.9570   26.7100   31.9150 H   0  0  0  0  0  0  0  0  0  0  0  0
   36.3600   28.5350   33.1680 C   0  0  0  0  0  0  0  0  0  0  0  0
   36.3480   28.9140   31.8300 C   0  0  0  0  0  0  0  0  0  0  0  0
   35.4340   29.8690   31.4330 C   0  0  0  0  0  0  0  0  0  0  0  0
   34.5950   30.3920   32.3570 N   0  0  0  0  0  0  0  0  0  0  0  0
   34.6350   30.0030   33.6430 C   0  0  0  0  0  0  0  0  0  0  0  0
   35.5200   29.0740   34.0380 N   0  0  0  0  0  0  0  0  0  0  0  0
   37.0430   28.4460   31.1870 H   0  0  0  0  0  0  0  0  0  0  0  0
   35.4040   30.1800   30.4040 H   0  0  0  0  0  0  0  0  0  0  0  0
   33.9500   30.4320   34.3860 H   0  0  0  0  0  0  0  0  0  0  0  0
   38.0230   25.3600   33.4670 O   0  0  0  0  0  0  0  0  0  0  0  0
   37.3640   24.3360   32.8300 C   0  0  0  0  0  0  0  0  0  0  0  0
   36.4260   24.8270   31.9330 C   0  0  0  0  0  0  0  0  0  0  0  0
   36.2070   25.8750   31.7290 H   0  0  0  0  0  0  0  0  0  0  0  0
   35.6220   24.0130   31.1590 C   0  0  0  0  0  3  0  0  0  0  0  0
   35.7560   22.6290   31.2800 C   0  0  0  0  0  0  0  0  0  0  0  0
   35.1840   21.8860   30.7280 H   0  0  0  0  0  0  0  0  0  0  0  0
   36.6930   22.1370   32.1750 C   0  0  0  0  0  0  0  0  0  0  0  0
   36.8200   21.0840   32.2930 H   0  0  0  0  0  0  0  0  0  0  0  0
   37.4830   22.9690   32.9380 C   0  0  0  0  0  3  0  0  0  0  0  0
  1  2  1  0  0  0  0
  2  8  1  0  0  0  0
  2  3  1  0  0  0  0
  2  7  1  0  0  0  0
  3 10  1  0  0  0  0
  3  9  1  0  0  0  0
  4 11  1  0  0  0  0
  4 12  1  0  0  0  0
  4  3  1  0  0  0  0
  5  4  1  0  0  0  0
  6 15  1  6  0  0  0
  6  5  1  0  0  0  0
  6 25  1  0  0  0  0
  6  1  1  0  0  0  0
 13  5  1  0  0  0  0
 14  5  1  0  0  0  0
 16  1  1  0  0  0  0
 16 21  1  0  0  0  0
 17 16  2  0  0  0  0
 18 17  1  0  0  0  0
 18 19  2  0  0  0  0
 19 20  1  0  0  0  0
 20 21  2  0  0  0  0
 20 24  1  0  0  0  0
 22 17  1  0  0  0  0
 23 18  1  0  0  0  0
 26 34  1  0  0  0  0
 26 25  1  0  0  0  0
 27 26  2  0  0  0  0
 28 27  1  0  0  0  0
 29 30  2  0  0  0  0
 29 27  1  0  0  0  0
 30 32  1  0  0  0  0
 31 30  1  0  0  0  0
 32 33  1  0  0  0  0
 32 34  2  0  0  0  0
M  END
>  <minimizedAffinity>
-4.9729476

$$$$

 OpenBabel03272503003D

 34 36  0  0  1  0  0  0  0  0999 V2000
   39.9740   24.5600   35.2160 N   0  0  0  0  0  0  0  0  0  0  0  0
   40.5120   25.8110   34.7500 C   0  0  0  0  0  0  0  0  0  0  0  0
   39.7710   27.0270   35.0970 C   0  0  0  0  0  0  0  0  0  0  0  0
   38.3240   26.9390   35.3700 C   0  0  0  0  0  0  0  0  0  0  0  0
   37.8530   25.5680   35.7580 C   0  0  0  0  0  0  0  0  0  0  0  0
   38.5550   24.5120   34.8980 C   0  0  1  0  0  0  0  0  0  0  0  0
   41.5630   25.8830   35.0990 H   0  0  0  0  0  0  0  0  0  0  0  0
   40.5990   25.7230   33.6340 H   0  0  0  0  0  0  0  0  0  0  0  0
   39.9100   27.7770   34.2640 H   0  0  0  0  0  0  0  0  0  0  0  0
   40.2750   27.5170   35.9680 H   0  0  0  0  0  0  0  0  0  0  0  0
   37.7040   27.2940   34.4980 H   0  0  0  0  0  0  0  0  0  0  0  0
   38.0220   27.6270   36.2070 H   0  0  0  0  0  0  0  0  0  0  0  0
   36.7610   25.4880   35.5830 H   0  0  0  0  0  0  0  0  0  0  0  0
   38.1010   25.3620   36.8250 H   0  0  0  0  0  0  0  0  0  0  0  0
   38.0970   23.5550   35.1200 H   0  0  0  0  0  0  0  0  0  0  0  0
   40.7170   23.5260   35.8860 C   0  0  0  0  0  0  0  0  0  0  0  0
   40.1970   22.6770   36.8570 C   0  0  0  0  0  0  0  0  0  0  0  0
   41.0360   21.7320   37.4110 C   0  0  0  0  0  0  0  0  0  0  0  0
   42.3200   21.6720   36.9860 N   0  0  0  0  0  0  0  0  0  0  0  0
   42.7890   22.5090   36.0450 C   0  0  0  0  0  0  0  0  0  0  0  0
   41.9790   23.4320   35.5020 N   0  0  0  0  0  0  0  0  0  0  0  0
   39.1820   22.8040   37.1200 H   0  0  0  0  0  0  0  0  0  0  0  0
   40.6610   21.0630   38.1640 H   0  0  0  0  0  0  0  0  0  0  0  0
   43.8320   22.4540   35.7070 H   0  0  0  0  0  0  0  0  0  0  0  0
   38.3210   24.9150   33.5890 O   0  0  0  0  0  0  0  0  0  0  0  0
   37.3690   24.3660   32.7640 C   0  0  0  0  0  0  0  0  0  0  0  0
   37.4030   22.9790   32.8130 C   0  0  0  0  0  0  0  0  0  0  0  0
   38.0770   22.3660   33.4120 H   0  0  0  0  0  0  0  0  0  0  0  0
   36.5520   22.1750   32.0800 C   0  0  0  0  0  3  0  0  0  0  0  0
   35.6100   22.7810   31.2470 C   0  0  0  0  0  0  0  0  0  0  0  0
   34.8880   22.2600   30.6230 H   0  0  0  0  0  0  0  0  0  0  0  0
   35.5750   24.1660   31.1970 C   0  0  0  0  0  0  0  0  0  0  0  0
   34.8670   24.6610   30.5700 H   0  0  0  0  0  0  0  0  0  0  0  0
   36.4350   24.9480   31.9370 C   0  0  0  0  0  3  0  0  0  0  0  0
  1 16  1  0  0  0  0
  2  3  1  0  0  0  0
  2  7  1  0  0  0  0
  2  1  1  0  0  0  0
  3  4  1  0  0  0  0
  3 10  1  0  0  0  0
  4  5  1  0  0  0  0
  4 12  1  0  0  0  0
  5 14  1  0  0  0  0
  6 15  1  1  0  0  0
  6  1  1  0  0  0  0
  6  5  1  0  0  0  0
  8  2  1  0  0  0  0
  9  3  1  0  0  0  0
 11  4  1  0  0  0  0
 13  5  1  0  0  0  0
 16 17  1  0  0  0  0
 17 22  1  0  0  0  0
 17 18  2  0  0  0  0
 18 23  1  0  0  0  0
 19 18  1  0  0  0  0
 20 19  2  0  0  0  0
 21 16  2  0  0  0  0
 21 20  1  0  0  0  0
 24 20  1  0  0  0  0
 25  6  1  0  0  0  0
 26 27  1  0  0  0  0
 26 25  1  0  0  0  0
 27 28  1  0  0  0  0
 29 27  2  0  0  0  0
 30 29  1  0  0  0  0
 31 30  1  0  0  0  0
 32 30  2  0  0  0  0
 32 34  1  0  0  0  0
 33 32  1  0  0  0  0
 34 26  2  0  0  0  0
M  END
>  <minimizedAffinity>
-4.95468903

$$$$

 OpenBabel03272503003D

 34 36  0  0  1  0  0  0  0  0999 V2000
   38.8990   24.9830   34.8260 N   0  0  0  0  0  0  0  0  0  0  0  0
   39.0740   24.3500   33.5460 C   0  0  0  0  0  0  0  0  0  0  0  0
   40.0020   24.9870   32.6070 C   0  0  0  0  0  0  0  0  0  0  0  0
   40.2650   26.4340   32.7200 C   0  0  0  0  0  0  0  0  0  0  0  0
   39.9600   27.0120   34.0710 C   0  0  0  0  0  0  0  0  0  0  0  0
   38.6640   26.4040   34.6180 C   0  0  1  0  0  0  0  0  0  0  0  0
   39.3660   23.2930   33.7230 H   0  0  0  0  0  0  0  0  0  0  0  0
   38.0540   24.2790   33.0840 H   0  0  0  0  0  0  0  0  0  0  0  0
   39.6320   24.7940   31.5570 H   0  0  0  0  0  0  0  0  0  0  0  0
   40.9770   24.4380   32.6390 H   0  0  0  0  0  0  0  0  0  0  0  0
   39.7050   27.0300   31.9440 H   0  0  0  0  0  0  0  0  0  0  0  0
   41.3440   26.6720   32.5080 H   0  0  0  0  0  0  0  0  0  0  0  0
   39.8190   28.1080   33.9820 H   0  0  0  0  0  0  0  0  0  0  0  0
   40.7800   26.7730   34.7870 H   0  0  0  0  0  0  0  0  0  0  0  0
   38.4150   26.9370   35.5280 H   0  0  0  0  0  0  0  0  0  0  0  0
   38.9480   24.3220   36.1030 C   0  0  0  0  0  0  0  0  0  0  0  0
   39.8640   23.3360   36.4520 C   0  0  0  0  0  0  0  0  0  0  0  0
   39.7840   22.7940   37.7190 C   0  0  0  0  0  0  0  0  0  0  0  0
   38.8240   23.2440   38.5600 N   0  0  0  0  0  0  0  0  0  0  0  0
   37.9540   24.1980   38.1890 C   0  0  0  0  0  0  0  0  0  0  0  0
   38.0250   24.7310   36.9580 N   0  0  0  0  0  0  0  0  0  0  0  0
   40.5750   23.0540   35.7240 H   0  0  0  0  0  0  0  0  0  0  0  0
   40.4800   22.0300   38.0150 H   0  0  0  0  0  0  0  0  0  0  0  0
   37.1790   24.5570   38.8780 H   0  0  0  0  0  0  0  0  0  0  0  0
   37.7280   26.6150   33.6140 O   0  0  0  0  0  0  0  0  0  0  0  0
   36.9770   27.7580   33.4770 C   0  0  0  0  0  0  0  0  0  0  0  0
   36.9960   28.2150   32.1660 C   0  0  0  0  0  0  0  0  0  0  0  0
   37.5230   27.7620   31.3270 H   0  0  0  0  0  0  0  0  0  0  0  0
   36.3230   29.3480   31.7510 C   0  0  0  0  0  3  0  0  0  0  0  0
   35.5850   30.0710   32.6900 C   0  0  0  0  0  0  0  0  0  0  0  0
   35.0150   30.9740   32.4880 H   0  0  0  0  0  0  0  0  0  0  0  0
   35.5640   29.6150   33.9990 C   0  0  0  0  0  0  0  0  0  0  0  0
   35.0110   30.1440   34.7410 H   0  0  0  0  0  0  0  0  0  0  0  0
   36.2450   28.4830   34.3900 C   0  0  0  0  0  3  0  0  0  0  0  0
  1 16  1  0  0  0  0
  2  7  1  0  0  0  0
  2  1  1  0  0  0  0
  3 10  1  0  0  0  0
  3  4  1  0  0  0  0
  3  2  1  0  0  0  0
  4  5  1  0  0  0  0
  5  6  1  0  0  0  0
  5 14  1  0  0  0  0
  6  1  1  0  0  0  0
  6 15  1  1  0  0  0
  8  2  1  0  0  0  0
  9  3  1  0  0  0  0
 11  4  1  0  0  0  0
 12  4  1  0  0  0  0
 13  5  1  0  0  0  0
 16 17  2  0  0  0  0
 16 21  1  0  0  0  0
 17 18  1  0  0  0  0
 18 23  1  0  0  0  0
 18 19  2  0  0  0  0
 20 19  1  0  0  0  0
 20 24  1  0  0  0  0
 21 20  2  0  0  0  0
 22 17  1  0  0  0  0
 25  6  1  0  0  0  0
 26 25  1  0  0  0  0
 26 34  1  0  0  0  0
 27 26  2  0  0  0  0
 28 27  1  0  0  0  0
 29 27  1  0  0  0  0
 29 30  2  0  0  0  0
 30 32  1  0  0  0  0
 31 30  1  0  0  0  0
 32 34  2  0  0  0  0
 32 33  1  0  0  0  0
M  END
>  <minimizedAffinity>
-4.94517183

$$$$

 OpenBabel03272503003D

 34 36  0  0  1  0  0  0  0  0999 V2000
   38.3810   24.9460   34.7070 N   0  0  0  0  0  0  0  0  0  0  0  0
   38.2910   24.2030   33.4780 C   0  0  0  0  0  0  0  0  0  0  0  0
   39.1370   24.6460   32.3660 C   0  0  0  0  0  0  0  0  0  0  0  0
   39.5770   26.0530   32.3080 C   0  0  0  0  0  0  0  0  0  0  0  0
   39.5450   26.7630   33.6300 C   0  0  0  0  0  0  0  0  0  0  0  0
   38.2820   26.3660   34.4040 C   0  0  1  0  0  0  0  0  0  0  0  0
   38.4830   23.1340   33.7090 H   0  0  0  0  0  0  0  0  0  0  0  0
   37.2130   24.2280   33.1700 H   0  0  0  0  0  0  0  0  0  0  0  0
   38.5960   24.4240   31.3990 H   0  0  0  0  0  0  0  0  0  0  0  0
   40.0370   23.9820   32.3130 H   0  0  0  0  0  0  0  0  0  0  0  0
   38.9810   26.6560   31.5660 H   0  0  0  0  0  0  0  0  0  0  0  0
   40.6330   26.1360   31.9290 H   0  0  0  0  0  0  0  0  0  0  0  0
   39.5180   27.8590   33.4620 H   0  0  0  0  0  0  0  0  0  0  0  0
   40.4290   26.4760   34.2450 H   0  0  0  0  0  0  0  0  0  0  0  0
   38.2340   26.9920   35.2870 H   0  0  0  0  0  0  0  0  0  0  0  0
   38.5430   24.3800   36.0190 C   0  0  0  0  0  0  0  0  0  0  0  0
   37.7610   24.7000   37.1240 C   0  0  0  0  0  0  0  0  0  0  0  0
   38.0390   24.0710   38.3210 C   0  0  0  0  0  0  0  0  0  0  0  0
   39.0540   23.1760   38.3660 N   0  0  0  0  0  0  0  0  0  0  0  0
   39.7900   22.8920   37.2780 C   0  0  0  0  0  0  0  0  0  0  0  0
   39.5260   23.4990   36.1100 N   0  0  0  0  0  0  0  0  0  0  0  0
   36.9930   25.4110   36.9860 H   0  0  0  0  0  0  0  0  0  0  0  0
   37.4500   24.3000   39.1900 H   0  0  0  0  0  0  0  0  0  0  0  0
   40.6110   22.1650   37.3240 H   0  0  0  0  0  0  0  0  0  0  0  0
   37.2390   26.6190   33.5230 O   0  0  0  0  0  0  0  0  0  0  0  0
   36.7250   27.8670   33.2610 C   0  0  0  0  0  0  0  0  0  0  0  0
   36.2130   28.4490   34.4120 C   0  0  0  0  0  0  0  0  0  0  0  0
   36.1990   28.0130   35.4110 H   0  0  0  0  0  0  0  0  0  0  0  0
   35.6370   29.7050   34.4320 C   0  0  0  0  0  3  0  0  0  0  0  0
   35.5620   30.4270   33.2400 C   0  0  0  0  0  0  0  0  0  0  0  0
   35.1340   31.4190   33.1270 H   0  0  0  0  0  0  0  0  0  0  0  0
   36.0740   29.8460   32.0900 C   0  0  0  0  0  0  0  0  0  0  0  0
   36.0330   30.3710   31.1620 H   0  0  0  0  0  0  0  0  0  0  0  0
   36.6440   28.5920   32.0940 C   0  0  0  0  0  3  0  0  0  0  0  0
  1 16  1  0  0  0  0
  2  7  1  0  0  0  0
  2  1  1  0  0  0  0
  3  2  1  0  0  0  0
  4  3  1  0  0  0  0
  4  5  1  0  0  0  0
  5 14  1  0  0  0  0
  5  6  1  0  0  0  0
  6  1  1  0  0  0  0
  6 15  1  1  0  0  0
  8  2  1  0  0  0  0
  9  3  1  0  0  0  0
 10  3  1  0  0  0  0
 11  4  1  0  0  0  0
 12  4  1  0  0  0  0
 13  5  1  0  0  0  0
 16 21  2  0  0  0  0
 16 17  1  0  0  0  0
 17 18  2  0  0  0  0
 18 19  1  0  0  0  0
 18 23  1  0  0  0  0
 20 24  1  0  0  0  0
 20 19  2  0  0  0  0
 21 20  1  0  0  0  0
 22 17  1  0  0  0  0
 25  6  1  0  0  0  0
 26 25  1  0  0  0  0
 26 27  1  0  0  0  0
 27 29  2  0  0  0  0
 27 28  1  0  0  0  0
 30 29  1  0  0  0  0
 31 30  1  0  0  0  0
 32 34  1  0  0  0  0
 32 30  2  0  0  0  0
 33 32  1  0  0  0  0
 34 26  2  0  0  0  0
M  END
>  <minimizedAffinity>
-4.92564058

$$$$

 OpenBabel03272503003D

 34 36  0  0  1  0  0  0  0  0999 V2000
   37.7190   24.1260   32.8430 N   0  0  0  0  0  0  0  0  0  0  0  0
   37.0930   25.4210   32.8900 C   0  0  0  0  0  0  0  0  0  0  0  0
   37.9100   26.5740   32.5020 C   0  0  0  0  0  0  0  0  0  0  0  0
   39.3780   26.4960   32.6300 C   0  0  0  0  0  0  0  0  0  0  0  0
   39.9190   25.0970   32.6640 C   0  0  0  0  0  0  0  0  0  0  0  0
   39.0080   24.2050   33.5140 C   0  0  1  0  0  0  0  0  0  0  0  0
   36.1680   25.3760   32.2770 H   0  0  0  0  0  0  0  0  0  0  0  0
   36.7200   25.5550   33.9400 H   0  0  0  0  0  0  0  0  0  0  0  0
   37.5680   27.4690   33.1000 H   0  0  0  0  0  0  0  0  0  0  0  0
   37.6530   26.8570   31.4490 H   0  0  0  0  0  0  0  0  0  0  0  0
   39.7550   27.0450   33.5390 H   0  0  0  0  0  0  0  0  0  0  0  0
   39.8920   27.0150   31.7750 H   0  0  0  0  0  0  0  0  0  0  0  0
   40.9280   25.1010   33.1240 H   0  0  0  0  0  0  0  0  0  0  0  0
   39.9530   24.6710   31.6340 H   0  0  0  0  0  0  0  0  0  0  0  0
   39.4990   23.2440   33.6170 H   0  0  0  0  0  0  0  0  0  0  0  0
   37.1650   22.9480   32.2320 C   0  0  0  0  0  0  0  0  0  0  0  0
   35.9180   22.8810   31.6220 C   0  0  0  0  0  0  0  0  0  0  0  0
   35.5230   21.6750   31.0790 C   0  0  0  0  0  0  0  0  0  0  0  0
   36.3630   20.6170   31.1620 N   0  0  0  0  0  0  0  0  0  0  0  0
   37.5630   20.7180   31.7600 C   0  0  0  0  0  0  0  0  0  0  0  0
   37.9540   21.8870   32.2910 N   0  0  0  0  0  0  0  0  0  0  0  0
   35.3360   23.7630   31.6080 H   0  0  0  0  0  0  0  0  0  0  0  0
   34.5630   21.5960   30.6010 H   0  0  0  0  0  0  0  0  0  0  0  0
   38.2380   19.8550   31.8230 H   0  0  0  0  0  0  0  0  0  0  0  0
   38.9010   24.8710   34.7280 O   0  0  0  0  0  0  0  0  0  0  0  0
   39.0050   24.2690   35.9590 C   0  0  0  0  0  0  0  0  0  0  0  0
   38.0590   24.7710   36.8430 C   0  0  0  0  0  0  0  0  0  0  0  0
   37.3150   25.5380   36.6320 H   0  0  0  0  0  0  0  0  0  0  0  0
   37.9420   24.3390   38.1500 C   0  0  0  0  0  3  0  0  0  0  0  0
   38.8150   23.3520   38.6100 C   0  0  0  0  0  0  0  0  0  0  0  0
   38.8240   22.9310   39.6120 H   0  0  0  0  0  0  0  0  0  0  0  0
   39.7600   22.8500   37.7280 C   0  0  0  0  0  0  0  0  0  0  0  0
   40.4430   22.0950   38.0480 H   0  0  0  0  0  0  0  0  0  0  0  0
   39.8580   23.2970   36.4290 C   0  0  0  0  0  3  0  0  0  0  0  0
  1  2  1  0  0  0  0
  1  6  1  0  0  0  0
  2  8  1  0  0  0  0
  3  4  1  0  0  0  0
  3  2  1  0  0  0  0
  3  9  1  0  0  0  0
  4  5  1  0  0  0  0
  4 11  1  0  0  0  0
  5 13  1  0  0  0  0
  5  6  1  0  0  0  0
  6 15  1  1  0  0  0
  6 25  1  0  0  0  0
  7  2  1  0  0  0  0
 10  3  1  0  0  0  0
 12  4  1  0  0  0  0
 14  5  1  0  0  0  0
 16 21  1  0  0  0  0
 16  1  1  0  0  0  0
 17 16  2  0  0  0  0
 18 19  2  0  0  0  0
 18 17  1  0  0  0  0
 19 20  1  0  0  0  0
 20 24  1  0  0  0  0
 20 21  2  0  0  0  0
 22 17  1  0  0  0  0
 23 18  1  0  0  0  0
 25 26  1  0  0  0  0
 26 34  2  0  0  0  0
 26 27  1  0  0  0  0
 27 29  2  0  0  0  0
 28 27  1  0  0  0  0
 29 30  1  0  0  0  0
 30 31  1  0  0  0  0
 32 33  1  0  0  0  0
 32 30  2  0  0  0  0
 34 32  1  0  0  0  0
M  END
>  <minimizedAffinity>
-4.92257261

$$$$
