
 OpenBabel03272507553D

 23 24  0  0  0  0  0  0  0  0999 V2000
   35.1850   29.8650   50.0070 C   0  0  0  0  0  0  0  0  0  0  0  0
   36.4290   30.3680   49.5320 C   0  0  0  0  0  0  0  0  0  0  0  0
   36.5400   30.7230   48.1960 C   0  0  0  0  0  0  0  0  0  0  0  0
   35.4250   30.5660   47.4050 N   0  0  0  0  0  0  0  0  0  0  0  0
   34.2590   30.0910   47.8740 C   0  0  0  0  0  0  0  0  0  0  0  0
   34.1380   29.7450   49.1520 N   0  0  0  0  0  0  0  0  0  0  0  0
   33.2460   30.0230   46.8940 N   0  0  0  0  0  0  0  0  0  0  0  0
   35.1110   29.5900   51.0530 H   0  0  0  0  0  0  0  0  0  0  0  0
   32.7420   29.0930   46.8290 H   0  0  0  0  0  0  0  0  0  0  0  0
   32.9170   30.7510   46.2230 H   0  0  0  0  0  0  0  0  0  0  0  0
   37.7090   31.2940   47.5640 C   0  0  0  0  0  0  0  0  0  0  0  0
   38.4220   32.4580   47.6400 C   0  0  0  0  0  0  0  0  0  0  0  0
   38.0600   33.1220   48.4030 H   0  0  0  0  0  0  0  0  0  0  0  0
   39.5060   32.7430   46.8490 C   0  0  0  0  0  3  0  0  0  0  0  0
   39.9660   31.8570   45.9010 C   0  0  0  0  0  0  0  0  0  0  0  0
   40.8250   32.2330   45.3670 H   0  0  0  0  0  0  0  0  0  0  0  0
   39.2850   30.6660   45.7830 C   0  0  0  0  0  0  0  0  0  0  0  0
   39.6850   30.0070   45.0270 H   0  0  0  0  0  0  0  0  0  0  0  0
   38.1970   30.4040   46.5900 C   0  0  0  0  0  3  0  0  0  0  0  0
   37.5520   30.5150   50.4940 C   0  0  0  0  0  0  0  0  0  0  0  0
   38.6560   29.8040   50.1100 F   0  0  0  0  0  0  0  0  0  0  0  0
   37.8730   31.8560   50.5700 F   0  0  0  0  0  0  0  0  0  0  0  0
   37.2060   30.1010   51.7710 F   0  0  0  0  0  0  0  0  0  0  0  0
  1  8  1  0  0  0  0
  2  1  1  0  0  0  0
  2 20  1  0  0  0  0
  3  2  2  0  0  0  0
  4  5  2  0  0  0  0
  4  3  1  0  0  0  0
  5  6  1  0  0  0  0
  6  1  2  0  0  0  0
  7  5  1  0  0  0  0
  9  7  1  0  0  0  0
 10  7  1  0  0  0  0
 11 12  1  0  0  0  0
 11  3  1  0  0  0  0
 12 13  1  0  0  0  0
 14 12  2  0  0  0  0
 15 14  1  0  0  0  0
 16 15  1  0  0  0  0
 17 15  2  0  0  0  0
 17 19  1  0  0  0  0
 18 17  1  0  0  0  0
 19 11  2  0  0  0  0
 20 22  1  0  0  0  0
 20 23  1  0  0  0  0
 21 20  1  0  0  0  0
M  END
>  <minimizedAffinity>
-5.79584169

>  <minimizedRMSD>
1.59149861

$$$$
