
 OpenBabel03272505273D

 31 33  0  0  0  0  0  0  0  0999 V2000
   37.4640   31.0680   47.0150 N   0  0  0  0  0  0  0  0  0  0  0  0
   36.9200   30.6540   45.8390 C   0  0  0  0  0  0  0  0  0  0  0  0
   37.4060   31.0760   44.6090 C   0  0  0  0  0  0  0  0  0  0  0  0
   38.4980   31.9620   44.6250 C   0  0  0  0  0  0  0  0  0  0  0  0
   38.9710   32.3700   43.5370 O   0  0  0  0  0  0  0  0  0  0  0  0
   39.0420   32.3770   45.8070 N   0  0  0  0  0  0  0  0  0  0  0  0
   38.4840   31.8980   46.9210 C   0  0  0  0  0  0  0  0  0  0  0  0
   39.0080   32.3010   47.9840 O   0  0  0  0  0  0  0  0  0  0  0  0
   36.0810   29.9730   45.8510 H   0  0  0  0  0  0  0  0  0  0  0  0
   37.2510   29.6680   50.4450 C   0  0  0  0  0  0  0  0  0  0  0  0
   37.7680   30.0920   49.2100 C   0  0  0  0  0  0  0  0  0  0  0  0
   36.9600   30.6380   48.2450 C   0  0  0  0  0  0  0  0  0  0  0  0
   35.6300   30.7590   48.5200 N   0  0  0  0  0  0  0  0  0  0  0  0
   35.1040   30.3530   49.7120 C   0  0  0  0  0  0  0  0  0  0  0  0
   35.9090   29.8120   50.6690 N   0  0  0  0  0  0  0  0  0  0  0  0
   37.8120   29.2370   51.2410 H   0  0  0  0  0  0  0  0  0  0  0  0
   38.8230   29.9080   49.1730 H   0  0  0  0  0  0  0  0  0  0  0  0
   34.0350   30.4730   49.8790 H   0  0  0  0  0  0  0  0  0  0  0  0
   36.8270   30.6360   43.3440 C   0  0  0  0  0  0  0  0  0  0  0  0
   37.2820   29.4340   42.8030 C   0  0  0  0  0  0  0  0  0  0  0  0
   38.0330   28.8250   43.2740 H   0  0  0  0  0  0  0  0  0  0  0  0
   36.7890   28.9390   41.6050 C   0  0  0  0  0  3  0  0  0  0  0  0
   35.8230   29.6510   40.9260 C   0  0  0  0  0  0  0  0  0  0  0  0
   35.4300   29.2600   39.9760 H   0  0  0  0  0  0  0  0  0  0  0  0
   35.3670   30.8520   41.4650 C   0  0  0  0  0  0  0  0  0  0  0  0
   34.6020   31.4290   40.9410 H   0  0  0  0  0  0  0  0  0  0  0  0
   35.8630   31.3280   42.6460 C   0  0  0  0  0  3  0  0  0  0  0  0
   40.1690   33.2870   45.8140 C   0  0  0  0  0  0  0  0  0  0  0  0
   40.0020   34.2400   44.8640 F   0  0  0  0  0  0  0  0  0  0  0  0
   41.3710   32.6540   45.5340 F   0  0  0  0  0  0  0  0  0  0  0  0
   40.2310   33.9090   47.0540 F   0  0  0  0  0  0  0  0  0  0  0  0
  1 12  1  0  0  0  0
  2  9  1  0  0  0  0
  2  1  1  0  0  0  0
  3  4  1  0  0  0  0
  3  2  2  0  0  0  0
  4  6  1  0  0  0  0
  5  4  2  0  0  0  0
  6 28  1  0  0  0  0
  6  7  1  0  0  0  0
  7  1  1  0  0  0  0
  7  8  2  0  0  0  0
 10 15  1  0  0  0  0
 10 16  1  0  0  0  0
 11 10  2  0  0  0  0
 12 13  2  0  0  0  0
 12 11  1  0  0  0  0
 13 14  1  0  0  0  0
 14 18  1  0  0  0  0
 14 15  2  0  0  0  0
 17 11  1  0  0  0  0
 19  3  1  0  0  0  0
 20 21  1  0  0  0  0
 20 19  1  0  0  0  0
 22 20  2  0  0  0  0
 23 25  2  0  0  0  0
 23 22  1  0  0  0  0
 24 23  1  0  0  0  0
 25 27  1  0  0  0  0
 26 25  1  0  0  0  0
 27 19  2  0  0  0  0
 28 31  1  0  0  0  0
 29 28  1  0  0  0  0
 30 28  1  0  0  0  0
M  END
>  <minimizedAffinity>
-6.0555563

>  <minimizedRMSD>
0.569588125

$$$$
