
 OpenBabel03272501413D

 45 49  0  0  1  0  0  0  0  0999 V2000
   35.5780   29.6510   31.5360 C   0  0  0  0  0  0  0  0  0  0  0  0
   36.1420   28.4330   31.8370 C   0  0  0  0  0  0  0  0  0  0  0  0
   36.3810   28.0170   33.1550 C   0  0  0  0  0  0  0  0  0  0  0  0
   36.0400   28.8390   34.1090 N   0  0  0  0  0  0  0  0  0  0  0  0
   35.4770   30.0510   33.7960 C   0  0  0  0  0  0  0  0  0  0  0  0
   35.2540   30.4460   32.5500 N   0  0  0  0  0  0  0  0  0  0  0  0
   35.3970   29.9660   30.5220 H   0  0  0  0  0  0  0  0  0  0  0  0
   36.3950   27.8040   30.9700 H   0  0  0  0  0  0  0  0  0  0  0  0
   35.0700   30.9770   34.8500 C   0  0  0  0  0  0  0  0  0  0  0  0
   35.6980   31.3950   35.9910 C   0  0  0  0  0  0  0  0  0  0  0  0
   35.1260   32.2820   36.8200 C   0  0  0  0  0  0  0  0  0  0  0  0
   33.8570   32.7360   36.4290 C   0  0  0  0  0  0  0  0  0  0  0  0
   33.5300   31.8500   34.8490 S   0  0  0  0  0  0  0  0  0  0  0  0
   36.6840   30.9600   36.1770 H   0  0  0  0  0  0  0  0  0  0  0  0
   35.5340   32.6660   37.7280 H   0  0  0  0  0  0  0  0  0  0  0  0
   32.9220   33.6640   37.0170 C   0  0  0  0  0  0  0  0  0  0  0  0
   33.3950   34.6340   37.8650 C   0  0  0  0  0  0  0  0  0  0  0  0
   34.4480   34.7140   38.0990 H   0  0  0  0  0  0  0  0  0  0  0  0
   32.4230   35.4920   38.3910 C   0  0  0  0  0  3  0  0  0  0  0  0
   31.0750   35.3340   38.0470 C   0  0  0  0  0  0  0  0  0  0  0  0
   30.4120   36.0540   38.5130 H   0  0  0  0  0  0  0  0  0  0  0  0
   30.6640   34.3220   37.1760 C   0  0  0  0  0  0  0  0  0  0  0  0
   29.6070   34.2680   36.9620 H   0  0  0  0  0  0  0  0  0  0  0  0
   31.6190   33.4510   36.6360 C   0  0  0  0  0  3  0  0  0  0  0  0
   37.0700   26.7630   33.2840 C   0  0  1  0  0  0  0  0  0  0  0  0
   38.0780   27.0760   32.7910 H   0  0  0  0  0  0  0  0  0  0  0  0
   37.4260   26.3340   34.6930 C   0  0  2  0  0  0  0  0  0  0  0  0
   38.9120   26.6450   34.8830 C   0  0  0  0  0  0  0  0  0  0  0  0
   38.3610   25.2600   34.9150 C   0  0  1  0  0  0  0  0  0  0  0  0
   36.7380   26.6350   35.4810 H   0  0  0  0  0  0  0  0  0  0  0  0
   39.6050   26.8310   34.0690 H   0  0  0  0  0  0  0  0  0  0  0  0
   39.1400   27.1560   35.8350 H   0  0  0  0  0  0  0  0  0  0  0  0
   38.4510   24.5600   34.0590 H   0  0  0  0  0  0  0  0  0  0  0  0
   38.5810   24.5710   36.1950 C   0  0  0  0  0  0  0  0  0  0  0  0
   37.8040   24.9390   37.2620 C   0  0  0  0  0  0  0  0  0  0  0  0
   38.0140   24.2610   38.4370 C   0  0  0  0  0  0  0  0  0  0  0  0
   38.9500   23.2540   38.5830 C   0  0  0  0  0  0  0  0  0  0  0  0
   39.7130   22.9140   37.4810 C   0  0  0  0  0  0  0  0  0  0  0  0
   39.5180   23.5690   36.3240 N   0  0  0  0  0  0  0  0  0  0  0  0
   37.0700   25.7170   37.1780 H   0  0  0  0  0  0  0  0  0  0  0  0
   37.4270   24.5080   39.3210 H   0  0  0  0  0  0  0  0  0  0  0  0
   39.1480   22.7020   39.4710 H   0  0  0  0  0  0  0  0  0  0  0  0
   40.4830   22.1610   37.4120 H   0  0  0  0  0  0  0  0  0  0  0  0
   36.8560   25.7650   32.4740 O   0  0  0  0  0  0  0  0  0  0  0  0
   36.1280   25.1200   32.6080 H   0  0  0  0  0  0  0  0  0  0  0  0
  1  2  2  0  0  0  0
  1  6  1  0  0  0  0
  2  3  1  0  0  0  0
  3 25  1  0  0  0  0
  3  4  2  0  0  0  0
  5  4  1  0  0  0  0
  5  9  1  0  0  0  0
  6  5  2  0  0  0  0
  7  1  1  0  0  0  0
  8  2  1  0  0  0  0
  9 10  2  0  0  0  0
 10 14  1  0  0  0  0
 10 11  1  0  0  0  0
 11 15  1  0  0  0  0
 12 11  2  0  0  0  0
 12 16  1  0  0  0  0
 13  9  1  0  0  0  0
 13 12  1  0  0  0  0
 16 17  1  0  0  0  0
 17 18  1  0  0  0  0
 17 19  2  0  0  0  0
 20 19  1  0  0  0  0
 20 21  1  0  0  0  0
 22 20  2  0  0  0  0
 23 22  1  0  0  0  0
 24 16  2  0  0  0  0
 24 22  1  0  0  0  0
 25 26  1  6  0  0  0
 25 27  1  0  0  0  0
 27 28  1  0  0  0  0
 27 29  1  0  0  0  0
 27 30  1  1  0  0  0
 28 29  1  0  0  0  0
 28 32  1  0  0  0  0
 29 33  1  6  0  0  0
 29 34  1  0  0  0  0
 31 28  1  0  0  0  0
 34 39  2  0  0  0  0
 34 35  1  0  0  0  0
 35 36  2  0  0  0  0
 36 37  1  0  0  0  0
 36 41  1  0  0  0  0
 37 42  1  0  0  0  0
 38 37  2  0  0  0  0
 39 38  1  0  0  0  0
 40 35  1  0  0  0  0
 43 38  1  0  0  0  0
 44 45  1  0  0  0  0
 44 25  1  0  0  0  0
M  END
>  <minimizedAffinity>
-6.65604925

$$$$

 OpenBabel03272501413D

 45 49  0  0  1  0  0  0  0  0999 V2000
   35.5840   25.0420   30.9090 C   0  0  0  0  0  0  0  0  0  0  0  0
   36.7710   24.4250   31.2310 C   0  0  0  0  0  0  0  0  0  0  0  0
   37.7750   25.0630   31.9730 C   0  0  0  0  0  0  0  0  0  0  0  0
   37.5410   26.2860   32.3620 N   0  0  0  0  0  0  0  0  0  0  0  0
   36.3540   26.8910   32.0350 C   0  0  0  0  0  0  0  0  0  0  0  0
   35.4050   26.2890   31.3300 N   0  0  0  0  0  0  0  0  0  0  0  0
   34.8160   24.5480   30.3380 H   0  0  0  0  0  0  0  0  0  0  0  0
   36.8790   23.3930   30.8660 H   0  0  0  0  0  0  0  0  0  0  0  0
   36.0650   28.2530   32.4760 C   0  0  0  0  0  0  0  0  0  0  0  0
   35.8000   29.4010   31.7810 C   0  0  0  0  0  0  0  0  0  0  0  0
   35.5440   30.5580   32.4120 C   0  0  0  0  0  0  0  0  0  0  0  0
   35.5720   30.4950   33.8130 C   0  0  0  0  0  0  0  0  0  0  0  0
   35.9730   28.7350   34.1770 S   0  0  0  0  0  0  0  0  0  0  0  0
   35.8110   29.3100   30.6910 H   0  0  0  0  0  0  0  0  0  0  0  0
   35.3270   31.5000   31.9610 H   0  0  0  0  0  0  0  0  0  0  0  0
   35.3600   31.4810   34.8450 C   0  0  0  0  0  0  0  0  0  0  0  0
   36.1050   32.6340   34.8240 C   0  0  0  0  0  0  0  0  0  0  0  0
   36.8430   32.8130   34.0540 H   0  0  0  0  0  0  0  0  0  0  0  0
   35.8380   33.5360   35.8590 C   0  0  0  0  0  3  0  0  0  0  0  0
   34.8690   33.2410   36.8250 C   0  0  0  0  0  0  0  0  0  0  0  0
   34.7460   34.0120   37.5780 H   0  0  0  0  0  0  0  0  0  0  0  0
   34.1460   32.0460   36.7850 C   0  0  0  0  0  0  0  0  0  0  0  0
   33.4170   31.8950   37.5680 H   0  0  0  0  0  0  0  0  0  0  0  0
   34.3960   31.1260   35.7580 C   0  0  0  0  0  3  0  0  0  0  0  0
   38.9890   24.3100   32.1300 C   0  0  1  0  0  0  0  0  0  0  0  0
   39.7440   25.1600   31.8760 H   0  0  0  0  0  0  0  0  0  0  0  0
   39.3320   23.8750   33.5400 C   0  0  2  0  0  0  0  0  0  0  0  0
   38.6690   22.5120   33.7520 C   0  0  0  0  0  0  0  0  0  0  0  0
   38.2970   23.7270   34.5320 C   0  0  1  0  0  0  0  0  0  0  0  0
   40.3710   23.9880   33.8450 H   0  0  0  0  0  0  0  0  0  0  0  0
   37.8720   22.1190   33.1290 H   0  0  0  0  0  0  0  0  0  0  0  0
   39.3360   21.7610   34.2110 H   0  0  0  0  0  0  0  0  0  0  0  0
   37.3830   24.3190   34.3170 H   0  0  0  0  0  0  0  0  0  0  0  0
   38.5140   23.5840   35.9780 C   0  0  0  0  0  0  0  0  0  0  0  0
   39.6420   22.9260   36.3950 C   0  0  0  0  0  0  0  0  0  0  0  0
   39.8310   22.8300   37.7510 C   0  0  0  0  0  0  0  0  0  0  0  0
   38.9570   23.3540   38.6850 C   0  0  0  0  0  0  0  0  0  0  0  0
   37.8310   24.0100   38.2220 C   0  0  0  0  0  0  0  0  0  0  0  0
   37.6330   24.1120   36.8970 N   0  0  0  0  0  0  0  0  0  0  0  0
   40.3380   22.5100   35.6920 H   0  0  0  0  0  0  0  0  0  0  0  0
   40.7100   22.3180   38.1430 H   0  0  0  0  0  0  0  0  0  0  0  0
   39.0610   23.3040   39.7430 H   0  0  0  0  0  0  0  0  0  0  0  0
   37.0480   24.4760   38.8000 H   0  0  0  0  0  0  0  0  0  0  0  0
   39.4260   23.4950   31.2120 O   0  0  0  0  0  0  0  0  0  0  0  0
   39.1250   22.5630   31.1440 H   0  0  0  0  0  0  0  0  0  0  0  0
  1  2  2  0  0  0  0
  1  6  1  0  0  0  0
  2  3  1  0  0  0  0
  3 25  1  0  0  0  0
  3  4  2  0  0  0  0
  5  4  1  0  0  0  0
  5  9  1  0  0  0  0
  6  5  2  0  0  0  0
  7  1  1  0  0  0  0
  8  2  1  0  0  0  0
  9 13  1  0  0  0  0
 10 11  1  0  0  0  0
 10  9  2  0  0  0  0
 11 12  2  0  0  0  0
 12 13  1  0  0  0  0
 12 16  1  0  0  0  0
 14 10  1  0  0  0  0
 15 11  1  0  0  0  0
 16 24  1  0  0  0  0
 17 16  2  0  0  0  0
 17 19  1  0  0  0  0
 18 17  1  0  0  0  0
 19 20  2  0  0  0  0
 20 21  1  0  0  0  0
 22 20  1  0  0  0  0
 22 23  1  0  0  0  0
 24 22  2  0  0  0  0
 25 26  1  6  0  0  0
 25 27  1  0  0  0  0
 27 28  1  0  0  0  0
 27 30  1  1  0  0  0
 27 29  1  0  0  0  0
 28 32  1  0  0  0  0
 28 29  1  0  0  0  0
 29 33  1  6  0  0  0
 29 34  1  0  0  0  0
 31 28  1  0  0  0  0
 34 35  2  0  0  0  0
 34 39  1  0  0  0  0
 35 36  1  0  0  0  0
 36 41  1  0  0  0  0
 36 37  2  0  0  0  0
 37 42  1  0  0  0  0
 38 37  1  0  0  0  0
 38 43  1  0  0  0  0
 39 38  2  0  0  0  0
 40 35  1  0  0  0  0
 44 25  1  0  0  0  0
 45 44  1  0  0  0  0
M  END
>  <minimizedAffinity>
-6.44254351

$$$$

 OpenBabel03272501413D

 45 49  0  0  1  0  0  0  0  0999 V2000
   37.6850   28.5500   29.9250 C   0  0  0  0  0  0  0  0  0  0  0  0
   36.7380   29.3940   30.4580 C   0  0  0  0  0  0  0  0  0  0  0  0
   35.8200   28.9790   31.4330 C   0  0  0  0  0  0  0  0  0  0  0  0
   35.8960   27.7380   31.8310 N   0  0  0  0  0  0  0  0  0  0  0  0
   36.8450   26.9060   31.2930 C   0  0  0  0  0  0  0  0  0  0  0  0
   37.7120   27.2980   30.3690 N   0  0  0  0  0  0  0  0  0  0  0  0
   38.3870   28.8740   29.1760 H   0  0  0  0  0  0  0  0  0  0  0  0
   36.7500   30.4220   30.0660 H   0  0  0  0  0  0  0  0  0  0  0  0
   36.9590   25.5200   31.7400 C   0  0  0  0  0  0  0  0  0  0  0  0
   37.8070   24.9120   32.6250 C   0  0  0  0  0  0  0  0  0  0  0  0
   37.7150   23.6010   32.8950 C   0  0  0  0  0  0  0  0  0  0  0  0
   36.7000   22.9180   32.2080 C   0  0  0  0  0  0  0  0  0  0  0  0
   35.8990   24.2170   31.1800 S   0  0  0  0  0  0  0  0  0  0  0  0
   38.5550   25.5620   33.0890 H   0  0  0  0  0  0  0  0  0  0  0  0
   38.3270   23.0400   33.5660 H   0  0  0  0  0  0  0  0  0  0  0  0
   36.2710   21.5400   32.2070 C   0  0  0  0  0  0  0  0  0  0  0  0
   35.7900   20.9940   33.3710 C   0  0  0  0  0  0  0  0  0  0  0  0
   35.7290   21.5730   34.2820 H   0  0  0  0  0  0  0  0  0  0  0  0
   35.3960   19.6550   33.2820 C   0  0  0  0  0  3  0  0  0  0  0  0
   35.5020   18.9610   32.0710 C   0  0  0  0  0  0  0  0  0  0  0  0
   35.1680   17.9310   32.1200 H   0  0  0  0  0  0  0  0  0  0  0  0
   36.0020   19.5820   30.9230 C   0  0  0  0  0  0  0  0  0  0  0  0
   36.0510   18.9770   30.0290 H   0  0  0  0  0  0  0  0  0  0  0  0
   36.4030   20.9230   30.9860 C   0  0  0  0  0  3  0  0  0  0  0  0
   34.8360   29.9590   31.8020 C   0  0  1  0  0  0  0  0  0  0  0  0
   33.8920   29.2800   31.7330 H   0  0  0  0  0  0  0  0  0  0  0  0
   34.8790   30.4450   33.2360 C   0  0  2  0  0  0  0  0  0  0  0  0
   33.7690   29.7040   33.9840 C   0  0  0  0  0  0  0  0  0  0  0  0
   33.7710   31.1820   33.7910 C   0  0  1  0  0  0  0  0  0  0  0  0
   35.8610   30.4960   33.7030 H   0  0  0  0  0  0  0  0  0  0  0  0
   32.9450   29.1910   33.4990 H   0  0  0  0  0  0  0  0  0  0  0  0
   34.0900   29.2870   34.9550 H   0  0  0  0  0  0  0  0  0  0  0  0
   33.1430   31.6870   33.0290 H   0  0  0  0  0  0  0  0  0  0  0  0
   33.7940   31.9380   35.0520 C   0  0  0  0  0  0  0  0  0  0  0  0
   34.7910   31.6570   35.9490 C   0  0  0  0  0  0  0  0  0  0  0  0
   34.8030   32.3950   37.1060 C   0  0  0  0  0  0  0  0  0  0  0  0
   33.8770   33.3810   37.3930 C   0  0  0  0  0  0  0  0  0  0  0  0
   32.8870   33.6330   36.4610 C   0  0  0  0  0  0  0  0  0  0  0  0
   32.8640   32.9180   35.3240 N   0  0  0  0  0  0  0  0  0  0  0  0
   35.5230   30.8970   35.7510 H   0  0  0  0  0  0  0  0  0  0  0  0
   35.5710   32.2180   37.8580 H   0  0  0  0  0  0  0  0  0  0  0  0
   33.8450   33.9780   38.2740 H   0  0  0  0  0  0  0  0  0  0  0  0
   32.0900   34.3580   36.5160 H   0  0  0  0  0  0  0  0  0  0  0  0
   34.3940   30.8510   30.9620 O   0  0  0  0  0  0  0  0  0  0  0  0
   34.8530   31.7040   30.8030 H   0  0  0  0  0  0  0  0  0  0  0  0
  1  6  2  0  0  0  0
  1  2  1  0  0  0  0
  2  3  2  0  0  0  0
  3 25  1  0  0  0  0
  3  4  1  0  0  0  0
  5  9  1  0  0  0  0
  5  4  2  0  0  0  0
  6  5  1  0  0  0  0
  7  1  1  0  0  0  0
  8  2  1  0  0  0  0
  9 10  2  0  0  0  0
 10 11  1  0  0  0  0
 10 14  1  0  0  0  0
 11 15  1  0  0  0  0
 12 11  2  0  0  0  0
 13  9  1  0  0  0  0
 13 12  1  0  0  0  0
 16 12  1  0  0  0  0
 16 17  1  0  0  0  0
 17 18  1  0  0  0  0
 19 17  2  0  0  0  0
 20 21  1  0  0  0  0
 20 19  1  0  0  0  0
 22 24  1  0  0  0  0
 22 20  2  0  0  0  0
 23 22  1  0  0  0  0
 24 16  2  0  0  0  0
 25 26  1  1  0  0  0
 25 27  1  0  0  0  0
 27 30  1  1  0  0  0
 27 29  1  0  0  0  0
 27 28  1  0  0  0  0
 28 32  1  0  0  0  0
 29 33  1  6  0  0  0
 29 28  1  0  0  0  0
 29 34  1  0  0  0  0
 31 28  1  0  0  0  0
 34 39  2  0  0  0  0
 34 35  1  0  0  0  0
 35 36  2  0  0  0  0
 36 37  1  0  0  0  0
 36 41  1  0  0  0  0
 37 42  1  0  0  0  0
 38 43  1  0  0  0  0
 38 37  2  0  0  0  0
 39 38  1  0  0  0  0
 40 35  1  0  0  0  0
 44 25  1  0  0  0  0
 45 44  1  0  0  0  0
M  END
>  <minimizedAffinity>
-6.17734623

$$$$

 OpenBabel03272501413D

 45 49  0  0  1  0  0  0  0  0999 V2000
   36.7880   29.2920   30.0580 C   0  0  0  0  0  0  0  0  0  0  0  0
   36.1320   29.8610   31.1260 C   0  0  0  0  0  0  0  0  0  0  0  0
   35.6580   29.1080   32.2090 C   0  0  0  0  0  0  0  0  0  0  0  0
   35.8670   27.8210   32.1740 N   0  0  0  0  0  0  0  0  0  0  0  0
   36.5230   27.2640   31.1050 C   0  0  0  0  0  0  0  0  0  0  0  0
   36.9680   27.9760   30.0790 N   0  0  0  0  0  0  0  0  0  0  0  0
   37.1490   29.8760   29.2290 H   0  0  0  0  0  0  0  0  0  0  0  0
   36.0050   30.9530   31.0720 H   0  0  0  0  0  0  0  0  0  0  0  0
   36.7830   25.8280   31.0570 C   0  0  0  0  0  0  0  0  0  0  0  0
   37.9140   25.1140   30.7680 C   0  0  0  0  0  0  0  0  0  0  0  0
   37.9220   23.7720   30.8000 C   0  0  0  0  0  0  0  0  0  0  0  0
   36.7010   23.1740   31.1470 C   0  0  0  0  0  0  0  0  0  0  0  0
   35.5640   24.5960   31.4190 S   0  0  0  0  0  0  0  0  0  0  0  0
   38.7970   25.7060   30.5120 H   0  0  0  0  0  0  0  0  0  0  0  0
   38.7490   23.1300   30.5920 H   0  0  0  0  0  0  0  0  0  0  0  0
   36.2870   21.7990   31.2930 C   0  0  0  0  0  0  0  0  0  0  0  0
   37.0210   20.8170   30.6750 C   0  0  0  0  0  0  0  0  0  0  0  0
   37.8950   21.0540   30.0840 H   0  0  0  0  0  0  0  0  0  0  0  0
   36.5520   19.5130   30.8680 C   0  0  0  0  0  3  0  0  0  0  0  0
   35.4120   19.2750   31.6450 C   0  0  0  0  0  0  0  0  0  0  0  0
   35.1420   18.2280   31.7260 H   0  0  0  0  0  0  0  0  0  0  0  0
   34.7140   20.3250   32.2460 C   0  0  0  0  0  0  0  0  0  0  0  0
   33.8450   20.0570   32.8300 H   0  0  0  0  0  0  0  0  0  0  0  0
   35.1630   21.6400   32.0680 C   0  0  0  0  0  3  0  0  0  0  0  0
   34.9080   29.8480   33.1850 C   0  0  1  0  0  0  0  0  0  0  0  0
   34.8940   29.0440   34.0280 H   0  0  0  0  0  0  0  0  0  0  0  0
   35.5970   31.0540   33.7900 C   0  0  2  0  0  0  0  0  0  0  0  0
   35.8360   30.7280   35.2660 C   0  0  0  0  0  0  0  0  0  0  0  0
   34.9440   31.8330   34.8120 C   0  0  1  0  0  0  0  0  0  0  0  0
   36.4230   31.4770   33.2220 H   0  0  0  0  0  0  0  0  0  0  0  0
   35.3280   29.9350   35.8050 H   0  0  0  0  0  0  0  0  0  0  0  0
   36.8570   30.9680   35.6130 H   0  0  0  0  0  0  0  0  0  0  0  0
   33.8380   31.7430   34.8050 H   0  0  0  0  0  0  0  0  0  0  0  0
   35.3710   33.1600   35.2780 C   0  0  0  0  0  0  0  0  0  0  0  0
   36.6910   33.4950   35.1320 C   0  0  0  0  0  0  0  0  0  0  0  0
   37.0560   34.7500   35.5530 C   0  0  0  0  0  0  0  0  0  0  0  0
   36.1720   35.6610   36.1010 C   0  0  0  0  0  0  0  0  0  0  0  0
   34.8490   35.2810   36.2300 C   0  0  0  0  0  0  0  0  0  0  0  0
   34.4770   34.0560   35.8230 N   0  0  0  0  0  0  0  0  0  0  0  0
   37.3990   32.8080   34.7100 H   0  0  0  0  0  0  0  0  0  0  0  0
   38.0930   35.0750   35.4630 H   0  0  0  0  0  0  0  0  0  0  0  0
   36.4070   36.6410   36.4400 H   0  0  0  0  0  0  0  0  0  0  0  0
   34.0280   35.8560   36.6320 H   0  0  0  0  0  0  0  0  0  0  0  0
   33.6110   29.9650   33.1230 O   0  0  0  0  0  0  0  0  0  0  0  0
   33.1670   30.6590   32.5880 H   0  0  0  0  0  0  0  0  0  0  0  0
  1  6  2  0  0  0  0
  1  2  1  0  0  0  0
  2  3  2  0  0  0  0
  3 25  1  0  0  0  0
  4  3  1  0  0  0  0
  5  4  2  0  0  0  0
  6  5  1  0  0  0  0
  7  1  1  0  0  0  0
  8  2  1  0  0  0  0
  9  5  1  0  0  0  0
  9 13  1  0  0  0  0
 10 11  1  0  0  0  0
 10  9  2  0  0  0  0
 11 12  2  0  0  0  0
 12 16  1  0  0  0  0
 12 13  1  0  0  0  0
 14 10  1  0  0  0  0
 15 11  1  0  0  0  0
 16 24  1  0  0  0  0
 17 19  1  0  0  0  0
 17 16  2  0  0  0  0
 18 17  1  0  0  0  0
 19 20  2  0  0  0  0
 20 21  1  0  0  0  0
 20 22  1  0  0  0  0
 22 23  1  0  0  0  0
 24 22  2  0  0  0  0
 25 27  1  0  0  0  0
 25 26  1  1  0  0  0
 27 30  1  6  0  0  0
 27 29  1  0  0  0  0
 27 28  1  0  0  0  0
 28 32  1  0  0  0  0
 28 31  1  0  0  0  0
 29 33  1  1  0  0  0
 29 28  1  0  0  0  0
 29 34  1  0  0  0  0
 34 39  1  0  0  0  0
 35 34  2  0  0  0  0
 35 36  1  0  0  0  0
 36 37  2  0  0  0  0
 37 38  1  0  0  0  0
 37 42  1  0  0  0  0
 38 43  1  0  0  0  0
 39 38  2  0  0  0  0
 40 35  1  0  0  0  0
 41 36  1  0  0  0  0
 44 25  1  0  0  0  0
 45 44  1  0  0  0  0
M  END
>  <minimizedAffinity>
-6.09715843

$$$$

 OpenBabel03272501413D

 45 49  0  0  1  0  0  0  0  0999 V2000
   37.5690   28.2550   29.7580 C   0  0  0  0  0  0  0  0  0  0  0  0
   36.7450   29.2620   30.2050 C   0  0  0  0  0  0  0  0  0  0  0  0
   36.2770   29.3250   31.5250 C   0  0  0  0  0  0  0  0  0  0  0  0
   36.6610   28.3780   32.3370 N   0  0  0  0  0  0  0  0  0  0  0  0
   37.4830   27.3790   31.8810 C   0  0  0  0  0  0  0  0  0  0  0  0
   37.9230   27.3190   30.6310 N   0  0  0  0  0  0  0  0  0  0  0  0
   37.9250   28.2120   28.7430 H   0  0  0  0  0  0  0  0  0  0  0  0
   36.4770   30.0190   29.4530 H   0  0  0  0  0  0  0  0  0  0  0  0
   37.9390   26.3210   32.7790 C   0  0  0  0  0  0  0  0  0  0  0  0
   38.5600   25.1260   32.5410 C   0  0  0  0  0  0  0  0  0  0  0  0
   38.9050   24.3040   33.5440 C   0  0  0  0  0  0  0  0  0  0  0  0
   38.5830   24.7620   34.8310 C   0  0  0  0  0  0  0  0  0  0  0  0
   37.7780   26.3920   34.5400 S   0  0  0  0  0  0  0  0  0  0  0  0
   38.7520   24.8910   31.4890 H   0  0  0  0  0  0  0  0  0  0  0  0
   39.3910   23.3580   33.4600 H   0  0  0  0  0  0  0  0  0  0  0  0
   38.7710   24.2030   36.1470 C   0  0  0  0  0  0  0  0  0  0  0  0
   39.7820   23.2940   36.3430 C   0  0  0  0  0  0  0  0  0  0  0  0
   40.4320   22.9920   35.5350 H   0  0  0  0  0  0  0  0  0  0  0  0
   39.8950   22.8020   37.6480 C   0  0  0  0  0  3  0  0  0  0  0  0
   39.0190   23.2350   38.6500 C   0  0  0  0  0  0  0  0  0  0  0  0
   39.2010   22.7870   39.6210 H   0  0  0  0  0  0  0  0  0  0  0  0
   38.0120   24.1640   38.3790 C   0  0  0  0  0  0  0  0  0  0  0  0
   37.3780   24.4460   39.2070 H   0  0  0  0  0  0  0  0  0  0  0  0
   37.8770   24.6720   37.0800 C   0  0  0  0  0  3  0  0  0  0  0  0
   35.3440   30.3850   31.7930 C   0  0  1  0  0  0  0  0  0  0  0  0
   34.3830   29.8640   31.3910 H   0  0  0  0  0  0  0  0  0  0  0  0
   35.0640   30.6800   33.2520 C   0  0  2  0  0  0  0  0  0  0  0  0
   33.6140   30.2670   33.5130 C   0  0  0  0  0  0  0  0  0  0  0  0
   34.0900   31.6760   33.6220 C   0  0  1  0  0  0  0  0  0  0  0  0
   35.8210   30.3600   33.9670 H   0  0  0  0  0  0  0  0  0  0  0  0
   32.8780   30.1030   32.7320 H   0  0  0  0  0  0  0  0  0  0  0  0
   33.4810   29.6700   34.4320 H   0  0  0  0  0  0  0  0  0  0  0  0
   33.9030   32.4330   32.8340 H   0  0  0  0  0  0  0  0  0  0  0  0
   33.9220   32.2470   34.9660 C   0  0  0  0  0  0  0  0  0  0  0  0
   34.9150   32.0280   35.8840 C   0  0  0  0  0  0  0  0  0  0  0  0
   34.7420   32.5960   37.1220 C   0  0  0  0  0  0  0  0  0  0  0  0
   33.6410   33.3560   37.4690 C   0  0  0  0  0  0  0  0  0  0  0  0
   32.6620   33.5530   36.5120 C   0  0  0  0  0  0  0  0  0  0  0  0
   32.8180   33.0040   35.2960 N   0  0  0  0  0  0  0  0  0  0  0  0
   35.7810   31.4420   35.6420 H   0  0  0  0  0  0  0  0  0  0  0  0
   35.4980   32.4570   37.8950 H   0  0  0  0  0  0  0  0  0  0  0  0
   33.4640   33.8150   38.4120 H   0  0  0  0  0  0  0  0  0  0  0  0
   31.7440   34.1130   36.6050 H   0  0  0  0  0  0  0  0  0  0  0  0
   35.2370   31.4280   31.0200 O   0  0  0  0  0  0  0  0  0  0  0  0
   35.8120   32.2180   31.1120 H   0  0  0  0  0  0  0  0  0  0  0  0
  1  2  2  0  0  0  0
  1  6  1  0  0  0  0
  2  3  1  0  0  0  0
  3 25  1  0  0  0  0
  3  4  2  0  0  0  0
  5  4  1  0  0  0  0
  5  9  1  0  0  0  0
  6  5  2  0  0  0  0
  7  1  1  0  0  0  0
  8  2  1  0  0  0  0
  9 13  1  0  0  0  0
 10  9  2  0  0  0  0
 10 11  1  0  0  0  0
 11 12  2  0  0  0  0
 12 16  1  0  0  0  0
 13 12  1  0  0  0  0
 14 10  1  0  0  0  0
 15 11  1  0  0  0  0
 16 17  2  0  0  0  0
 16 24  1  0  0  0  0
 17 19  1  0  0  0  0
 18 17  1  0  0  0  0
 19 20  2  0  0  0  0
 20 21  1  0  0  0  0
 22 20  1  0  0  0  0
 22 23  1  0  0  0  0
 24 22  2  0  0  0  0
 25 26  1  6  0  0  0
 25 27  1  0  0  0  0
 27 28  1  0  0  0  0
 27 29  1  0  0  0  0
 27 30  1  1  0  0  0
 28 29  1  0  0  0  0
 28 32  1  0  0  0  0
 29 33  1  6  0  0  0
 29 34  1  0  0  0  0
 31 28  1  0  0  0  0
 34 39  2  0  0  0  0
 34 35  1  0  0  0  0
 35 36  2  0  0  0  0
 36 37  1  0  0  0  0
 36 41  1  0  0  0  0
 37 42  1  0  0  0  0
 38 43  1  0  0  0  0
 38 37  2  0  0  0  0
 39 38  1  0  0  0  0
 40 35  1  0  0  0  0
 44 45  1  0  0  0  0
 44 25  1  0  0  0  0
M  END
>  <minimizedAffinity>
-6.0768671

$$$$

 OpenBabel03272501413D

 45 49  0  0  1  0  0  0  0  0999 V2000
   37.8640   26.9340   34.7850 C   0  0  0  0  0  0  0  0  0  0  0  0
   37.6140   26.2290   33.6300 C   0  0  0  0  0  0  0  0  0  0  0  0
   36.6600   26.6380   32.6880 C   0  0  0  0  0  0  0  0  0  0  0  0
   36.0040   27.7370   32.9440 N   0  0  0  0  0  0  0  0  0  0  0  0
   36.2620   28.4320   34.0990 C   0  0  0  0  0  0  0  0  0  0  0  0
   37.1620   28.0430   34.9920 N   0  0  0  0  0  0  0  0  0  0  0  0
   38.5980   26.6150   35.5050 H   0  0  0  0  0  0  0  0  0  0  0  0
   38.2170   25.3180   33.4950 H   0  0  0  0  0  0  0  0  0  0  0  0
   35.5520   29.6730   34.3960 C   0  0  0  0  0  0  0  0  0  0  0  0
   34.3880   30.2000   33.9050 C   0  0  0  0  0  0  0  0  0  0  0  0
   33.9110   31.3740   34.3460 C   0  0  0  0  0  0  0  0  0  0  0  0
   34.6880   32.0050   35.3290 C   0  0  0  0  0  0  0  0  0  0  0  0
   36.1050   30.8590   35.5880 S   0  0  0  0  0  0  0  0  0  0  0  0
   33.8830   29.6040   33.1400 H   0  0  0  0  0  0  0  0  0  0  0  0
   33.0180   31.8630   34.0270 H   0  0  0  0  0  0  0  0  0  0  0  0
   34.5400   33.2460   36.0500 C   0  0  0  0  0  0  0  0  0  0  0  0
   35.1610   34.3720   35.5680 C   0  0  0  0  0  0  0  0  0  0  0  0
   35.7550   34.3440   34.6650 H   0  0  0  0  0  0  0  0  0  0  0  0
   34.9670   35.5310   36.3260 C   0  0  0  0  0  3  0  0  0  0  0  0
   34.1850   35.4980   37.4870 C   0  0  0  0  0  0  0  0  0  0  0  0
   34.1040   36.4530   37.9930 H   0  0  0  0  0  0  0  0  0  0  0  0
   33.5810   34.3150   37.9200 C   0  0  0  0  0  0  0  0  0  0  0  0
   32.9940   34.3740   38.8250 H   0  0  0  0  0  0  0  0  0  0  0  0
   33.7610   33.1400   37.1780 C   0  0  0  0  0  3  0  0  0  0  0  0
   36.4550   25.7310   31.5920 C   0  0  1  0  0  0  0  0  0  0  0  0
   37.4050   26.0010   30.9740 H   0  0  0  0  0  0  0  0  0  0  0  0
   36.5860   24.2550   31.9090 C   0  0  2  0  0  0  0  0  0  0  0  0
   37.5200   23.6610   30.8530 C   0  0  0  0  0  0  0  0  0  0  0  0
   36.0890   23.2640   30.9880 C   0  0  1  0  0  0  0  0  0  0  0  0
   36.7650   23.9960   32.9510 H   0  0  0  0  0  0  0  0  0  0  0  0
   37.7620   24.1450   29.9120 H   0  0  0  0  0  0  0  0  0  0  0  0
   38.3030   23.0060   31.2720 H   0  0  0  0  0  0  0  0  0  0  0  0
   35.2970   23.6400   30.3090 H   0  0  0  0  0  0  0  0  0  0  0  0
   35.9040   21.8370   31.2880 C   0  0  0  0  0  0  0  0  0  0  0  0
   35.0900   21.5040   32.3380 C   0  0  0  0  0  0  0  0  0  0  0  0
   34.9150   20.1640   32.5790 C   0  0  0  0  0  0  0  0  0  0  0  0
   35.5100   19.1670   31.8280 C   0  0  0  0  0  0  0  0  0  0  0  0
   36.3250   19.5470   30.7770 C   0  0  0  0  0  0  0  0  0  0  0  0
   36.5040   20.8550   30.5290 N   0  0  0  0  0  0  0  0  0  0  0  0
   34.6150   22.2560   32.9390 H   0  0  0  0  0  0  0  0  0  0  0  0
   34.2780   19.8360   33.4010 H   0  0  0  0  0  0  0  0  0  0  0  0
   35.4050   18.1190   31.9750 H   0  0  0  0  0  0  0  0  0  0  0  0
   36.8650   18.9130   30.0910 H   0  0  0  0  0  0  0  0  0  0  0  0
   35.6180   25.9850   30.6270 O   0  0  0  0  0  0  0  0  0  0  0  0
   34.6610   25.7730   30.6850 H   0  0  0  0  0  0  0  0  0  0  0  0
  1  6  1  0  0  0  0
  1  7  1  0  0  0  0
  2  1  2  0  0  0  0
  3  4  2  0  0  0  0
  3  2  1  0  0  0  0
  4  5  1  0  0  0  0
  5  9  1  0  0  0  0
  5  6  2  0  0  0  0
  8  2  1  0  0  0  0
  9 13  1  0  0  0  0
 10 11  1  0  0  0  0
 10  9  2  0  0  0  0
 11 12  2  0  0  0  0
 12 13  1  0  0  0  0
 12 16  1  0  0  0  0
 14 10  1  0  0  0  0
 15 11  1  0  0  0  0
 16 24  1  0  0  0  0
 17 16  2  0  0  0  0
 17 19  1  0  0  0  0
 18 17  1  0  0  0  0
 19 20  2  0  0  0  0
 20 22  1  0  0  0  0
 20 21  1  0  0  0  0
 22 23  1  0  0  0  0
 24 22  2  0  0  0  0
 25 26  1  6  0  0  0
 25 27  1  0  0  0  0
 25  3  1  0  0  0  0
 27 30  1  1  0  0  0
 28 29  1  0  0  0  0
 28 32  1  0  0  0  0
 28 27  1  0  0  0  0
 29 33  1  6  0  0  0
 29 34  1  0  0  0  0
 29 27  1  0  0  0  0
 31 28  1  0  0  0  0
 34 35  1  0  0  0  0
 35 36  2  0  0  0  0
 35 40  1  0  0  0  0
 36 41  1  0  0  0  0
 37 42  1  0  0  0  0
 37 36  1  0  0  0  0
 38 37  2  0  0  0  0
 39 38  1  0  0  0  0
 39 34  2  0  0  0  0
 43 38  1  0  0  0  0
 44 45  1  0  0  0  0
 44 25  1  0  0  0  0
M  END
>  <minimizedAffinity>
-6.05618715

$$$$

 OpenBabel03272501413D

 45 49  0  0  1  0  0  0  0  0999 V2000
   37.1970   29.3060   29.7330 C   0  0  0  0  0  0  0  0  0  0  0  0
   36.3470   29.9470   30.6040 C   0  0  0  0  0  0  0  0  0  0  0  0
   35.6340   29.2670   31.6020 C   0  0  0  0  0  0  0  0  0  0  0  0
   35.8100   27.9760   31.6820 N   0  0  0  0  0  0  0  0  0  0  0  0
   36.6600   27.3470   30.8080 C   0  0  0  0  0  0  0  0  0  0  0  0
   37.3320   27.9910   29.8630 N   0  0  0  0  0  0  0  0  0  0  0  0
   37.7410   29.8330   28.9680 H   0  0  0  0  0  0  0  0  0  0  0  0
   36.2640   31.0350   30.4650 H   0  0  0  0  0  0  0  0  0  0  0  0
   36.8850   25.9070   30.8940 C   0  0  0  0  0  0  0  0  0  0  0  0
   38.0220   25.1520   30.7970 C   0  0  0  0  0  0  0  0  0  0  0  0
   37.9900   23.8170   30.9260 C   0  0  0  0  0  0  0  0  0  0  0  0
   36.7200   23.2690   31.1630 C   0  0  0  0  0  0  0  0  0  0  0  0
   35.5990   24.7280   31.1930 S   0  0  0  0  0  0  0  0  0  0  0  0
   38.9460   25.7070   30.6080 H   0  0  0  0  0  0  0  0  0  0  0  0
   38.8180   23.1460   30.8660 H   0  0  0  0  0  0  0  0  0  0  0  0
   36.2540   21.9170   31.3560 C   0  0  0  0  0  0  0  0  0  0  0  0
   35.1640   21.7000   32.1610 C   0  0  0  0  0  0  0  0  0  0  0  0
   34.6530   22.5180   32.6500 H   0  0  0  0  0  0  0  0  0  0  0  0
   34.7780   20.3620   32.2950 C   0  0  0  0  0  3  0  0  0  0  0  0
   35.4850   19.3490   31.6340 C   0  0  0  0  0  0  0  0  0  0  0  0
   35.0970   18.3520   31.8100 H   0  0  0  0  0  0  0  0  0  0  0  0
   36.5880   19.6430   30.8280 C   0  0  0  0  0  0  0  0  0  0  0  0
   37.0770   18.8060   30.3540 H   0  0  0  0  0  0  0  0  0  0  0  0
   36.9930   20.9760   30.6790 C   0  0  0  0  0  3  0  0  0  0  0  0
   34.7150   30.0740   32.3540 C   0  0  1  0  0  0  0  0  0  0  0  0
   34.1860   30.6010   31.4600 H   0  0  0  0  0  0  0  0  0  0  0  0
   33.6180   29.3340   33.0920 C   0  0  2  0  0  0  0  0  0  0  0  0
   32.3050   30.0390   32.7480 C   0  0  0  0  0  0  0  0  0  0  0  0
   32.8630   29.9900   34.1290 C   0  0  1  0  0  0  0  0  0  0  0  0
   33.6420   28.2470   33.0350 H   0  0  0  0  0  0  0  0  0  0  0  0
   32.2420   31.0370   32.3260 H   0  0  0  0  0  0  0  0  0  0  0  0
   31.4890   29.3480   32.4710 H   0  0  0  0  0  0  0  0  0  0  0  0
   33.3910   30.8490   34.5920 H   0  0  0  0  0  0  0  0  0  0  0  0
   31.9790   29.3220   35.0950 C   0  0  0  0  0  0  0  0  0  0  0  0
   31.0150   28.4810   34.6040 C   0  0  0  0  0  0  0  0  0  0  0  0
   30.2210   27.8510   35.5300 C   0  0  0  0  0  0  0  0  0  0  0  0
   30.3510   28.0250   36.8960 C   0  0  0  0  0  0  0  0  0  0  0  0
   31.3370   28.8840   37.3480 C   0  0  0  0  0  0  0  0  0  0  0  0
   32.1220   29.5070   36.4530 N   0  0  0  0  0  0  0  0  0  0  0  0
   30.8910   28.3260   33.5500 H   0  0  0  0  0  0  0  0  0  0  0  0
   29.4360   27.1700   35.2020 H   0  0  0  0  0  0  0  0  0  0  0  0
   29.7610   27.5610   37.6500 H   0  0  0  0  0  0  0  0  0  0  0  0
   31.5800   29.1380   38.3680 H   0  0  0  0  0  0  0  0  0  0  0  0
   35.0790   31.1820   32.9370 O   0  0  0  0  0  0  0  0  0  0  0  0
   35.4780   31.2030   33.8330 H   0  0  0  0  0  0  0  0  0  0  0  0
  1  6  2  0  0  0  0
  1  2  1  0  0  0  0
  2  3  2  0  0  0  0
  3  4  1  0  0  0  0
  3 25  1  0  0  0  0
  5  9  1  0  0  0  0
  5  4  2  0  0  0  0
  6  5  1  0  0  0  0
  7  1  1  0  0  0  0
  8  2  1  0  0  0  0
  9 13  1  0  0  0  0
 10  9  2  0  0  0  0
 10 11  1  0  0  0  0
 11 12  2  0  0  0  0
 12 13  1  0  0  0  0
 12 16  1  0  0  0  0
 14 10  1  0  0  0  0
 15 11  1  0  0  0  0
 16 17  1  0  0  0  0
 17 19  2  0  0  0  0
 17 18  1  0  0  0  0
 20 21  1  0  0  0  0
 20 19  1  0  0  0  0
 22 20  2  0  0  0  0
 23 22  1  0  0  0  0
 24 22  1  0  0  0  0
 24 16  2  0  0  0  0
 25 26  1  6  0  0  0
 25 44  1  0  0  0  0
 25 27  1  0  0  0  0
 27 30  1  6  0  0  0
 27 29  1  0  0  0  0
 28 27  1  0  0  0  0
 28 29  1  0  0  0  0
 29 33  1  1  0  0  0
 29 34  1  0  0  0  0
 31 28  1  0  0  0  0
 32 28  1  0  0  0  0
 34 39  1  0  0  0  0
 35 34  2  0  0  0  0
 35 36  1  0  0  0  0
 36 37  2  0  0  0  0
 37 38  1  0  0  0  0
 37 42  1  0  0  0  0
 38 43  1  0  0  0  0
 39 38  2  0  0  0  0
 40 35  1  0  0  0  0
 41 36  1  0  0  0  0
 44 45  1  0  0  0  0
M  END
>  <minimizedAffinity>
-6.03819513

$$$$

 OpenBabel03272501413D

 45 49  0  0  1  0  0  0  0  0999 V2000
   36.8530   28.4210   30.2710 C   0  0  0  0  0  0  0  0  0  0  0  0
   37.3530   27.2590   30.8120 C   0  0  0  0  0  0  0  0  0  0  0  0
   37.0470   26.8410   32.1150 C   0  0  0  0  0  0  0  0  0  0  0  0
   36.2520   27.6050   32.8130 N   0  0  0  0  0  0  0  0  0  0  0  0
   35.7590   28.7610   32.2630 C   0  0  0  0  0  0  0  0  0  0  0  0
   36.0510   29.1580   31.0310 N   0  0  0  0  0  0  0  0  0  0  0  0
   37.0920   28.7370   29.2700 H   0  0  0  0  0  0  0  0  0  0  0  0
   38.0110   26.6760   30.1510 H   0  0  0  0  0  0  0  0  0  0  0  0
   34.8530   29.6200   33.0200 C   0  0  0  0  0  0  0  0  0  0  0  0
   33.4990   29.8040   32.9530 C   0  0  0  0  0  0  0  0  0  0  0  0
   32.8660   30.6530   33.7770 C   0  0  0  0  0  0  0  0  0  0  0  0
   33.6890   31.3230   34.6940 C   0  0  0  0  0  0  0  0  0  0  0  0
   35.3790   30.6920   34.3270 S   0  0  0  0  0  0  0  0  0  0  0  0
   32.9770   29.2180   32.1900 H   0  0  0  0  0  0  0  0  0  0  0  0
   31.8200   30.8630   33.8010 H   0  0  0  0  0  0  0  0  0  0  0  0
   33.4210   32.2950   35.7260 C   0  0  0  0  0  0  0  0  0  0  0  0
   32.1390   32.7620   35.8810 C   0  0  0  0  0  0  0  0  0  0  0  0
   31.3340   32.4170   35.2470 H   0  0  0  0  0  0  0  0  0  0  0  0
   31.9660   33.7000   36.9040 C   0  0  0  0  0  3  0  0  0  0  0  0
   33.0520   34.1040   37.6900 C   0  0  0  0  0  0  0  0  0  0  0  0
   32.8010   34.8330   38.4510 H   0  0  0  0  0  0  0  0  0  0  0  0
   34.3320   33.5860   37.4760 C   0  0  0  0  0  0  0  0  0  0  0  0
   35.1150   33.9490   38.1250 H   0  0  0  0  0  0  0  0  0  0  0  0
   34.5310   32.6450   36.4570 C   0  0  0  0  0  3  0  0  0  0  0  0
   37.7360   25.6590   32.5560 C   0  0  1  0  0  0  0  0  0  0  0  0
   38.7760   25.8890   32.0850 H   0  0  0  0  0  0  0  0  0  0  0  0
   37.9840   25.5420   34.0450 C   0  0  2  0  0  0  0  0  0  0  0  0
   39.5010   25.5900   34.2420 C   0  0  0  0  0  0  0  0  0  0  0  0
   38.6750   24.3970   34.5830 C   0  0  1  0  0  0  0  0  0  0  0  0
   37.3670   26.1650   34.6910 H   0  0  0  0  0  0  0  0  0  0  0  0
   40.2230   25.4220   33.4510 H   0  0  0  0  0  0  0  0  0  0  0  0
   39.8220   26.2720   35.0490 H   0  0  0  0  0  0  0  0  0  0  0  0
   38.6250   23.4990   33.9340 H   0  0  0  0  0  0  0  0  0  0  0  0
   38.7370   24.0280   36.0050 C   0  0  0  0  0  0  0  0  0  0  0  0
   39.7240   23.1630   36.3990 C   0  0  0  0  0  0  0  0  0  0  0  0
   39.7740   22.8570   37.7360 C   0  0  0  0  0  0  0  0  0  0  0  0
   38.8960   23.3710   38.6720 C   0  0  0  0  0  0  0  0  0  0  0  0
   37.9150   24.2410   38.2320 C   0  0  0  0  0  0  0  0  0  0  0  0
   37.8550   24.5500   36.9260 N   0  0  0  0  0  0  0  0  0  0  0  0
   40.4190   22.7480   35.6940 H   0  0  0  0  0  0  0  0  0  0  0  0
   40.5360   22.1740   38.1110 H   0  0  0  0  0  0  0  0  0  0  0  0
   38.8950   23.1640   39.7160 H   0  0  0  0  0  0  0  0  0  0  0  0
   37.1530   24.7340   38.8150 H   0  0  0  0  0  0  0  0  0  0  0  0
   37.5950   24.5100   31.9580 O   0  0  0  0  0  0  0  0  0  0  0  0
   36.8650   23.8880   32.1700 H   0  0  0  0  0  0  0  0  0  0  0  0
  1  2  2  0  0  0  0
  1  6  1  0  0  0  0
  2  3  1  0  0  0  0
  3 25  1  0  0  0  0
  3  4  2  0  0  0  0
  5  4  1  0  0  0  0
  5  9  1  0  0  0  0
  6  5  2  0  0  0  0
  7  1  1  0  0  0  0
  8  2  1  0  0  0  0
  9 13  1  0  0  0  0
 10  9  2  0  0  0  0
 10 11  1  0  0  0  0
 11 15  1  0  0  0  0
 11 12  2  0  0  0  0
 12 16  1  0  0  0  0
 13 12  1  0  0  0  0
 14 10  1  0  0  0  0
 16 17  2  0  0  0  0
 16 24  1  0  0  0  0
 17 19  1  0  0  0  0
 18 17  1  0  0  0  0
 19 20  2  0  0  0  0
 20 21  1  0  0  0  0
 22 20  1  0  0  0  0
 22 23  1  0  0  0  0
 24 22  2  0  0  0  0
 25 26  1  6  0  0  0
 25 27  1  0  0  0  0
 27 28  1  0  0  0  0
 27 29  1  0  0  0  0
 27 30  1  1  0  0  0
 28 29  1  0  0  0  0
 28 32  1  0  0  0  0
 29 33  1  6  0  0  0
 29 34  1  0  0  0  0
 31 28  1  0  0  0  0
 34 35  2  0  0  0  0
 34 39  1  0  0  0  0
 35 36  1  0  0  0  0
 36 41  1  0  0  0  0
 36 37  2  0  0  0  0
 37 42  1  0  0  0  0
 38 37  1  0  0  0  0
 38 43  1  0  0  0  0
 39 38  2  0  0  0  0
 40 35  1  0  0  0  0
 44 45  1  0  0  0  0
 44 25  1  0  0  0  0
M  END
>  <minimizedAffinity>
-5.92384624

$$$$

 OpenBabel03272501413D

 45 49  0  0  1  0  0  0  0  0999 V2000
   36.6350   29.0630   30.1130 C   0  0  0  0  0  0  0  0  0  0  0  0
   36.0570   29.8750   31.0620 C   0  0  0  0  0  0  0  0  0  0  0  0
   35.6300   29.3940   32.3080 C   0  0  0  0  0  0  0  0  0  0  0  0
   35.8060   28.1230   32.5470 N   0  0  0  0  0  0  0  0  0  0  0  0
   36.3840   27.3230   31.5940 C   0  0  0  0  0  0  0  0  0  0  0  0
   36.7850   27.7780   30.4140 N   0  0  0  0  0  0  0  0  0  0  0  0
   36.9610   29.4370   29.1580 H   0  0  0  0  0  0  0  0  0  0  0  0
   35.9520   30.9320   30.7760 H   0  0  0  0  0  0  0  0  0  0  0  0
   36.6070   25.9030   31.8490 C   0  0  0  0  0  0  0  0  0  0  0  0
   37.4900   25.2490   32.6640 C   0  0  0  0  0  0  0  0  0  0  0  0
   37.5040   23.9100   32.7500 C   0  0  0  0  0  0  0  0  0  0  0  0
   36.5580   23.2490   31.9510 C   0  0  0  0  0  0  0  0  0  0  0  0
   35.6670   24.6090   31.0900 S   0  0  0  0  0  0  0  0  0  0  0  0
   38.1740   25.8860   33.2320 H   0  0  0  0  0  0  0  0  0  0  0  0
   38.1500   23.3120   33.3540 H   0  0  0  0  0  0  0  0  0  0  0  0
   36.2460   21.8540   31.7500 C   0  0  0  0  0  0  0  0  0  0  0  0
   37.1110   21.0800   31.0170 C   0  0  0  0  0  0  0  0  0  0  0  0
   38.0140   21.4940   30.5900 H   0  0  0  0  0  0  0  0  0  0  0  0
   36.7340   19.7410   30.8700 C   0  0  0  0  0  3  0  0  0  0  0  0
   35.5490   19.2690   31.4480 C   0  0  0  0  0  0  0  0  0  0  0  0
   35.3590   18.2170   31.2700 H   0  0  0  0  0  0  0  0  0  0  0  0
   34.7150   20.1150   32.1830 C   0  0  0  0  0  0  0  0  0  0  0  0
   33.8200   19.6730   32.5960 H   0  0  0  0  0  0  0  0  0  0  0  0
   35.0710   21.4600   32.3450 C   0  0  0  0  0  3  0  0  0  0  0  0
   34.9550   30.3560   33.1350 C   0  0  1  0  0  0  0  0  0  0  0  0
   34.5690   29.6260   33.9570 H   0  0  0  0  0  0  0  0  0  0  0  0
   35.8360   31.3520   33.8620 C   0  0  2  0  0  0  0  0  0  0  0  0
   34.9080   32.4380   34.4120 C   0  0  0  0  0  0  0  0  0  0  0  0
   35.9550   32.7070   33.3840 C   0  0  1  0  0  0  0  0  0  0  0  0
   36.5880   30.9380   34.5310 H   0  0  0  0  0  0  0  0  0  0  0  0
   33.8920   32.6020   34.0690 H   0  0  0  0  0  0  0  0  0  0  0  0
   35.1080   32.6990   35.4660 H   0  0  0  0  0  0  0  0  0  0  0  0
   35.7180   32.8240   32.3070 H   0  0  0  0  0  0  0  0  0  0  0  0
   36.9670   33.6800   33.8200 C   0  0  0  0  0  0  0  0  0  0  0  0
   37.2440   33.7590   35.1590 C   0  0  0  0  0  0  0  0  0  0  0  0
   38.2110   34.6580   35.5340 C   0  0  0  0  0  0  0  0  0  0  0  0
   38.8960   35.4620   34.6420 C   0  0  0  0  0  0  0  0  0  0  0  0
   38.5840   35.3510   33.2990 C   0  0  0  0  0  0  0  0  0  0  0  0
   37.6400   34.4740   32.9180 N   0  0  0  0  0  0  0  0  0  0  0  0
   36.7290   33.1470   35.8740 H   0  0  0  0  0  0  0  0  0  0  0  0
   38.4760   34.7660   36.5860 H   0  0  0  0  0  0  0  0  0  0  0  0
   39.6510   36.1720   34.8840 H   0  0  0  0  0  0  0  0  0  0  0  0
   39.0130   35.8930   32.4700 H   0  0  0  0  0  0  0  0  0  0  0  0
   33.7760   30.8230   32.8380 O   0  0  0  0  0  0  0  0  0  0  0  0
   33.6440   31.5870   32.2350 H   0  0  0  0  0  0  0  0  0  0  0  0
  1  6  2  0  0  0  0
  1  2  1  0  0  0  0
  2  3  2  0  0  0  0
  3  4  1  0  0  0  0
  3 25  1  0  0  0  0
  5  9  1  0  0  0  0
  5  4  2  0  0  0  0
  6  5  1  0  0  0  0
  7  1  1  0  0  0  0
  8  2  1  0  0  0  0
  9 10  2  0  0  0  0
 10 11  1  0  0  0  0
 10 14  1  0  0  0  0
 11 15  1  0  0  0  0
 12 11  2  0  0  0  0
 13  9  1  0  0  0  0
 13 12  1  0  0  0  0
 16 12  1  0  0  0  0
 16 24  1  0  0  0  0
 17 16  2  0  0  0  0
 18 17  1  0  0  0  0
 19 17  1  0  0  0  0
 19 20  2  0  0  0  0
 20 22  1  0  0  0  0
 21 20  1  0  0  0  0
 22 24  2  0  0  0  0
 22 23  1  0  0  0  0
 25 27  1  0  0  0  0
 25 26  1  1  0  0  0
 27 28  1  0  0  0  0
 27 30  1  1  0  0  0
 28 32  1  0  0  0  0
 29 33  1  6  0  0  0
 29 34  1  0  0  0  0
 29 27  1  0  0  0  0
 29 28  1  0  0  0  0
 31 28  1  0  0  0  0
 34 35  1  0  0  0  0
 35 36  2  0  0  0  0
 35 40  1  0  0  0  0
 36 41  1  0  0  0  0
 37 42  1  0  0  0  0
 37 36  1  0  0  0  0
 38 37  2  0  0  0  0
 39 38  1  0  0  0  0
 39 34  2  0  0  0  0
 43 38  1  0  0  0  0
 44 25  1  0  0  0  0
 45 44  1  0  0  0  0
M  END
>  <minimizedAffinity>
-5.89304113

$$$$
