
 OpenBabel03272507563D

 23 24  0  0  0  0  0  0  0  0999 V2000
   37.3970   26.6250   33.5420 C   0  0  0  0  0  0  0  0  0  0  0  0
   38.0190   26.0730   34.6970 C   0  0  0  0  0  0  0  0  0  0  0  0
   38.2030   24.7000   34.7650 C   0  0  0  0  0  0  0  0  0  0  0  0
   37.7700   23.9490   33.6960 N   0  0  0  0  0  0  0  0  0  0  0  0
   37.1870   24.4900   32.6140 C   0  0  0  0  0  0  0  0  0  0  0  0
   37.0020   25.8040   32.5340 N   0  0  0  0  0  0  0  0  0  0  0  0
   36.8320   23.5400   31.6340 N   0  0  0  0  0  0  0  0  0  0  0  0
   37.2570   27.6990   33.5000 H   0  0  0  0  0  0  0  0  0  0  0  0
   35.8350   23.6050   31.2810 H   0  0  0  0  0  0  0  0  0  0  0  0
   37.4030   22.7800   31.2020 H   0  0  0  0  0  0  0  0  0  0  0  0
   38.8590   23.9850   35.8380 C   0  0  0  0  0  0  0  0  0  0  0  0
   38.5490   23.5740   37.1050 C   0  0  0  0  0  0  0  0  0  0  0  0
   37.5330   23.7900   37.3770 H   0  0  0  0  0  0  0  0  0  0  0  0
   39.4290   22.9270   37.9340 C   0  0  0  0  0  3  0  0  0  0  0  0
   40.7160   22.6350   37.5420 C   0  0  0  0  0  0  0  0  0  0  0  0
   41.2770   22.1240   38.3100 H   0  0  0  0  0  0  0  0  0  0  0  0
   41.0820   23.0260   36.2730 C   0  0  0  0  0  0  0  0  0  0  0  0
   42.0990   22.7750   36.0150 H   0  0  0  0  0  0  0  0  0  0  0  0
   40.1790   23.6760   35.4590 C   0  0  0  0  0  3  0  0  0  0  0  0
   38.4670   26.9940   35.7730 C   0  0  0  0  0  0  0  0  0  0  0  0
   38.1490   26.5250   37.0190 F   0  0  0  0  0  0  0  0  0  0  0  0
   39.8360   27.1330   35.6710 F   0  0  0  0  0  0  0  0  0  0  0  0
   37.9120   28.2590   35.6460 F   0  0  0  0  0  0  0  0  0  0  0  0
  1  2  1  0  0  0  0
  2  3  2  0  0  0  0
  2 20  1  0  0  0  0
  3 11  1  0  0  0  0
  4  3  1  0  0  0  0
  5  4  2  0  0  0  0
  6  5  1  0  0  0  0
  6  1  2  0  0  0  0
  7  5  1  0  0  0  0
  8  1  1  0  0  0  0
  9  7  1  0  0  0  0
 10  7  1  0  0  0  0
 11 12  1  0  0  0  0
 12 13  1  0  0  0  0
 12 14  2  0  0  0  0
 15 14  1  0  0  0  0
 15 16  1  0  0  0  0
 17 15  2  0  0  0  0
 18 17  1  0  0  0  0
 19 11  2  0  0  0  0
 19 17  1  0  0  0  0
 20 21  1  0  0  0  0
 22 20  1  0  0  0  0
 23 20  1  0  0  0  0
M  END
>  <minimizedAffinity>
-5.22397947

$$$$

 OpenBabel03272507563D

 23 24  0  0  0  0  0  0  0  0999 V2000
   40.0340   22.5120   37.4420 C   0  0  0  0  0  0  0  0  0  0  0  0
   39.2040   23.6270   37.1340 C   0  0  0  0  0  0  0  0  0  0  0  0
   39.5440   24.4350   36.0600 C   0  0  0  0  0  0  0  0  0  0  0  0
   40.6740   24.1040   35.3490 N   0  0  0  0  0  0  0  0  0  0  0  0
   41.4430   23.0450   35.6550 C   0  0  0  0  0  0  0  0  0  0  0  0
   41.1320   22.2610   36.6830 N   0  0  0  0  0  0  0  0  0  0  0  0
   42.5450   22.8840   34.7900 N   0  0  0  0  0  0  0  0  0  0  0  0
   39.7600   21.8870   38.2850 H   0  0  0  0  0  0  0  0  0  0  0  0
   43.4820   22.7590   35.2690 H   0  0  0  0  0  0  0  0  0  0  0  0
   42.5790   22.8680   33.7470 H   0  0  0  0  0  0  0  0  0  0  0  0
   38.7870   25.5720   35.5830 C   0  0  0  0  0  0  0  0  0  0  0  0
   38.5460   26.8570   35.9850 C   0  0  0  0  0  0  0  0  0  0  0  0
   39.0970   27.1290   36.8660 H   0  0  0  0  0  0  0  0  0  0  0  0
   37.7150   27.7220   35.3220 C   0  0  0  0  0  3  0  0  0  0  0  0
   37.0480   27.3530   34.1750 C   0  0  0  0  0  0  0  0  0  0  0  0
   36.4370   28.1490   33.7780 H   0  0  0  0  0  0  0  0  0  0  0  0
   37.2550   26.0680   33.7240 C   0  0  0  0  0  0  0  0  0  0  0  0
   36.7100   25.8290   32.8230 H   0  0  0  0  0  0  0  0  0  0  0  0
   38.0960   25.2170   34.4090 C   0  0  0  0  0  3  0  0  0  0  0  0
   37.9950   23.8640   37.9630 C   0  0  0  0  0  0  0  0  0  0  0  0
   36.8550   23.9220   37.2070 F   0  0  0  0  0  0  0  0  0  0  0  0
   37.8910   22.8280   38.8700 F   0  0  0  0  0  0  0  0  0  0  0  0
   38.0790   25.0420   38.6890 F   0  0  0  0  0  0  0  0  0  0  0  0
  1  8  1  0  0  0  0
  2  1  1  0  0  0  0
  2 20  1  0  0  0  0
  3  2  2  0  0  0  0
  4  5  2  0  0  0  0
  4  3  1  0  0  0  0
  5  6  1  0  0  0  0
  6  1  2  0  0  0  0
  7  9  1  0  0  0  0
  7  5  1  0  0  0  0
 10  7  1  0  0  0  0
 11 12  1  0  0  0  0
 11  3  1  0  0  0  0
 12 13  1  0  0  0  0
 14 12  2  0  0  0  0
 15 14  1  0  0  0  0
 16 15  1  0  0  0  0
 17 15  2  0  0  0  0
 17 19  1  0  0  0  0
 18 17  1  0  0  0  0
 19 11  2  0  0  0  0
 20 23  1  0  0  0  0
 20 22  1  0  0  0  0
 21 20  1  0  0  0  0
M  END
>  <minimizedAffinity>
-5.16073513

$$$$

 OpenBabel03272507563D

 23 24  0  0  0  0  0  0  0  0999 V2000
   38.9200   26.0080   32.5890 C   0  0  0  0  0  0  0  0  0  0  0  0
   39.2360   25.6970   33.9420 C   0  0  0  0  0  0  0  0  0  0  0  0
   38.6770   24.5640   34.5150 C   0  0  0  0  0  0  0  0  0  0  0  0
   37.8440   23.8020   33.7290 N   0  0  0  0  0  0  0  0  0  0  0  0
   37.5600   24.1120   32.4530 C   0  0  0  0  0  0  0  0  0  0  0  0
   38.0870   25.1950   31.8900 N   0  0  0  0  0  0  0  0  0  0  0  0
   36.6940   23.1890   31.8300 N   0  0  0  0  0  0  0  0  0  0  0  0
   39.3620   26.8960   32.1520 H   0  0  0  0  0  0  0  0  0  0  0  0
   35.8590   23.6150   31.3360 H   0  0  0  0  0  0  0  0  0  0  0  0
   36.7510   22.1480   31.7810 H   0  0  0  0  0  0  0  0  0  0  0  0
   38.9300   24.0790   35.8540 C   0  0  0  0  0  0  0  0  0  0  0  0
   39.8370   23.2590   36.4680 C   0  0  0  0  0  0  0  0  0  0  0  0
   40.6040   22.9110   35.8020 H   0  0  0  0  0  0  0  0  0  0  0  0
   39.7950   22.9370   37.8000 C   0  0  0  0  0  3  0  0  0  0  0  0
   38.8170   23.4280   38.6360 C   0  0  0  0  0  0  0  0  0  0  0  0
   38.9280   23.0790   39.6510 H   0  0  0  0  0  0  0  0  0  0  0  0
   37.8770   24.2600   38.0690 C   0  0  0  0  0  0  0  0  0  0  0  0
   37.1330   24.6160   38.7650 H   0  0  0  0  0  0  0  0  0  0  0  0
   37.9400   24.5680   36.7260 C   0  0  0  0  0  3  0  0  0  0  0  0
   40.1710   26.5860   34.6770 C   0  0  0  0  0  0  0  0  0  0  0  0
   41.2650   25.9110   35.1460 F   0  0  0  0  0  0  0  0  0  0  0  0
   40.5820   27.5800   33.8110 F   0  0  0  0  0  0  0  0  0  0  0  0
   39.5640   27.2070   35.7590 F   0  0  0  0  0  0  0  0  0  0  0  0
  1  2  1  0  0  0  0
  2  3  2  0  0  0  0
  2 20  1  0  0  0  0
  3 11  1  0  0  0  0
  4  3  1  0  0  0  0
  5  4  2  0  0  0  0
  6  5  1  0  0  0  0
  6  1  2  0  0  0  0
  7  5  1  0  0  0  0
  8  1  1  0  0  0  0
  9  7  1  0  0  0  0
 10  7  1  0  0  0  0
 11 12  2  0  0  0  0
 11 19  1  0  0  0  0
 12 14  1  0  0  0  0
 13 12  1  0  0  0  0
 14 15  2  0  0  0  0
 15 16  1  0  0  0  0
 17 15  1  0  0  0  0
 17 18  1  0  0  0  0
 19 17  2  0  0  0  0
 20 21  1  0  0  0  0
 20 23  1  0  0  0  0
 22 20  1  0  0  0  0
M  END
>  <minimizedAffinity>
-5.1254282

$$$$

 OpenBabel03272507563D

 23 24  0  0  0  0  0  0  0  0999 V2000
   37.2630   23.9220   32.3990 C   0  0  0  0  0  0  0  0  0  0  0  0
   37.7450   23.3750   33.6210 C   0  0  0  0  0  0  0  0  0  0  0  0
   38.1710   24.2380   34.6190 C   0  0  0  0  0  0  0  0  0  0  0  0
   38.0970   25.5880   34.3620 N   0  0  0  0  0  0  0  0  0  0  0  0
   37.6370   26.0850   33.2010 C   0  0  0  0  0  0  0  0  0  0  0  0
   37.2260   25.2700   32.2350 N   0  0  0  0  0  0  0  0  0  0  0  0
   37.6380   27.4950   33.1550 N   0  0  0  0  0  0  0  0  0  0  0  0
   36.9330   23.2370   31.6260 H   0  0  0  0  0  0  0  0  0  0  0  0
   38.0900   27.9190   32.2960 H   0  0  0  0  0  0  0  0  0  0  0  0
   37.2600   28.1860   33.8400 H   0  0  0  0  0  0  0  0  0  0  0  0
   38.6390   23.8520   35.9320 C   0  0  0  0  0  0  0  0  0  0  0  0
   39.6860   23.1420   36.4540 C   0  0  0  0  0  0  0  0  0  0  0  0
   40.3830   22.8160   35.7060 H   0  0  0  0  0  0  0  0  0  0  0  0
   39.8480   22.8960   37.7930 C   0  0  0  0  0  3  0  0  0  0  0  0
   38.9520   23.3580   38.7300 C   0  0  0  0  0  0  0  0  0  0  0  0
   39.2250   23.0790   39.7370 H   0  0  0  0  0  0  0  0  0  0  0  0
   37.8770   24.0800   38.2590 C   0  0  0  0  0  0  0  0  0  0  0  0
   37.2050   24.4180   39.0330 H   0  0  0  0  0  0  0  0  0  0  0  0
   37.7360   24.3140   36.9070 C   0  0  0  0  0  3  0  0  0  0  0  0
   37.7500   21.8980   33.7870 C   0  0  0  0  0  0  0  0  0  0  0  0
   37.1060   21.5050   34.9280 F   0  0  0  0  0  0  0  0  0  0  0  0
   37.1180   21.3460   32.6900 F   0  0  0  0  0  0  0  0  0  0  0  0
   39.0350   21.3790   33.8280 F   0  0  0  0  0  0  0  0  0  0  0  0
  1  2  1  0  0  0  0
  2 20  1  0  0  0  0
  2  3  2  0  0  0  0
  3 11  1  0  0  0  0
  4  3  1  0  0  0  0
  5  4  2  0  0  0  0
  6  1  2  0  0  0  0
  6  5  1  0  0  0  0
  7  5  1  0  0  0  0
  7 10  1  0  0  0  0
  8  1  1  0  0  0  0
  9  7  1  0  0  0  0
 11 12  2  0  0  0  0
 11 19  1  0  0  0  0
 12 14  1  0  0  0  0
 13 12  1  0  0  0  0
 14 15  2  0  0  0  0
 15 16  1  0  0  0  0
 17 15  1  0  0  0  0
 17 18  1  0  0  0  0
 19 17  2  0  0  0  0
 20 23  1  0  0  0  0
 20 21  1  0  0  0  0
 22 20  1  0  0  0  0
M  END
>  <minimizedAffinity>
-4.67898846

$$$$

 OpenBabel03272507563D

 23 24  0  0  0  0  0  0  0  0999 V2000
   38.2770   24.4360   36.0700 C   0  0  0  0  0  0  0  0  0  0  0  0
   38.2000   25.5180   35.1470 C   0  0  0  0  0  0  0  0  0  0  0  0
   38.0180   25.2360   33.8020 C   0  0  0  0  0  0  0  0  0  0  0  0
   37.9200   23.9120   33.4390 N   0  0  0  0  0  0  0  0  0  0  0  0
   37.9940   22.9060   34.3260 C   0  0  0  0  0  0  0  0  0  0  0  0
   38.1690   23.1600   35.6200 N   0  0  0  0  0  0  0  0  0  0  0  0
   37.8570   21.6300   33.7400 N   0  0  0  0  0  0  0  0  0  0  0  0
   38.4210   24.6690   37.1190 H   0  0  0  0  0  0  0  0  0  0  0  0
   38.6040   20.9280   34.0080 H   0  0  0  0  0  0  0  0  0  0  0  0
   37.1310   21.2720   33.0820 H   0  0  0  0  0  0  0  0  0  0  0  0
   37.8690   26.2120   32.7440 C   0  0  0  0  0  0  0  0  0  0  0  0
   38.6590   27.1300   32.1090 C   0  0  0  0  0  0  0  0  0  0  0  0
   39.6810   27.1010   32.4380 H   0  0  0  0  0  0  0  0  0  0  0  0
   38.2070   27.9800   31.1330 C   0  0  0  0  0  3  0  0  0  0  0  0
   36.8970   27.9700   30.7100 C   0  0  0  0  0  0  0  0  0  0  0  0
   36.7060   28.6990   29.9370 H   0  0  0  0  0  0  0  0  0  0  0  0
   36.0560   27.0630   31.3170 C   0  0  0  0  0  0  0  0  0  0  0  0
   35.0410   27.0950   30.9510 H   0  0  0  0  0  0  0  0  0  0  0  0
   36.5350   26.2190   32.2970 C   0  0  0  0  0  3  0  0  0  0  0  0
   38.2940   26.9060   35.6680 C   0  0  0  0  0  0  0  0  0  0  0  0
   39.4290   27.5400   35.2440 F   0  0  0  0  0  0  0  0  0  0  0  0
   37.1870   27.6010   35.2260 F   0  0  0  0  0  0  0  0  0  0  0  0
   38.2810   26.9480   37.0540 F   0  0  0  0  0  0  0  0  0  0  0  0
  1  8  1  0  0  0  0
  2 20  1  0  0  0  0
  2  1  2  0  0  0  0
  3  2  1  0  0  0  0
  4  3  2  0  0  0  0
  4  5  1  0  0  0  0
  5  6  2  0  0  0  0
  6  1  1  0  0  0  0
  7  9  1  0  0  0  0
  7  5  1  0  0  0  0
 10  7  1  0  0  0  0
 11  3  1  0  0  0  0
 12 13  1  0  0  0  0
 12 11  2  0  0  0  0
 14 12  1  0  0  0  0
 15 14  2  0  0  0  0
 15 17  1  0  0  0  0
 16 15  1  0  0  0  0
 17 19  2  0  0  0  0
 18 17  1  0  0  0  0
 19 11  1  0  0  0  0
 20 23  1  0  0  0  0
 21 20  1  0  0  0  0
 22 20  1  0  0  0  0
M  END
>  <minimizedAffinity>
-4.64459562

$$$$

 OpenBabel03272507563D

 23 24  0  0  0  0  0  0  0  0999 V2000
   41.0250   23.7720   35.5540 C   0  0  0  0  0  0  0  0  0  0  0  0
   39.8130   24.4860   35.3420 C   0  0  0  0  0  0  0  0  0  0  0  0
   39.8800   25.8100   34.9340 C   0  0  0  0  0  0  0  0  0  0  0  0
   41.1310   26.3550   34.7550 N   0  0  0  0  0  0  0  0  0  0  0  0
   42.2640   25.6620   34.9580 C   0  0  0  0  0  0  0  0  0  0  0  0
   42.2160   24.3930   35.3510 N   0  0  0  0  0  0  0  0  0  0  0  0
   43.4320   26.4100   34.7050 N   0  0  0  0  0  0  0  0  0  0  0  0
   40.9600   22.7380   35.8740 H   0  0  0  0  0  0  0  0  0  0  0  0
   44.1610   26.3860   35.4740 H   0  0  0  0  0  0  0  0  0  0  0  0
   43.6890   26.9870   33.8740 H   0  0  0  0  0  0  0  0  0  0  0  0
   38.7510   26.6610   34.6280 C   0  0  0  0  0  0  0  0  0  0  0  0
   37.8240   27.3860   35.3250 C   0  0  0  0  0  0  0  0  0  0  0  0
   37.9920   27.3700   36.3850 H   0  0  0  0  0  0  0  0  0  0  0  0
   36.8030   28.0870   34.7360 C   0  0  0  0  0  3  0  0  0  0  0  0
   36.6350   28.1150   33.3700 C   0  0  0  0  0  0  0  0  0  0  0  0
   35.7870   28.7110   33.0700 H   0  0  0  0  0  0  0  0  0  0  0  0
   37.5420   27.4010   32.6180 C   0  0  0  0  0  0  0  0  0  0  0  0
   37.3660   27.4540   31.5550 H   0  0  0  0  0  0  0  0  0  0  0  0
   38.5590   26.7030   33.2340 C   0  0  0  0  0  3  0  0  0  0  0  0
   38.5240   23.7770   35.5450 C   0  0  0  0  0  0  0  0  0  0  0  0
   37.7830   23.7140   34.3960 F   0  0  0  0  0  0  0  0  0  0  0  0
   38.8070   22.4970   35.9790 F   0  0  0  0  0  0  0  0  0  0  0  0
   37.7400   24.3790   36.5180 F   0  0  0  0  0  0  0  0  0  0  0  0
  1  8  1  0  0  0  0
  2 20  1  0  0  0  0
  2  1  2  0  0  0  0
  3  2  1  0  0  0  0
  4  3  2  0  0  0  0
  4  5  1  0  0  0  0
  5  6  2  0  0  0  0
  6  1  1  0  0  0  0
  7  5  1  0  0  0  0
  7  9  1  0  0  0  0
 10  7  1  0  0  0  0
 11  3  1  0  0  0  0
 11 12  1  0  0  0  0
 12 13  1  0  0  0  0
 14 12  2  0  0  0  0
 15 14  1  0  0  0  0
 16 15  1  0  0  0  0
 17 19  1  0  0  0  0
 17 15  2  0  0  0  0
 18 17  1  0  0  0  0
 19 11  2  0  0  0  0
 20 22  1  0  0  0  0
 20 23  1  0  0  0  0
 21 20  1  0  0  0  0
M  END
>  <minimizedAffinity>
-4.63709116

$$$$

 OpenBabel03272507563D

 23 24  0  0  0  0  0  0  0  0999 V2000
   37.5540   24.8780   32.7200 C   0  0  0  0  0  0  0  0  0  0  0  0
   37.3620   23.4800   32.9010 C   0  0  0  0  0  0  0  0  0  0  0  0
   36.3390   22.8510   32.2080 C   0  0  0  0  0  0  0  0  0  0  0  0
   35.5670   23.6280   31.3750 N   0  0  0  0  0  0  0  0  0  0  0  0
   35.7660   24.9470   31.2160 C   0  0  0  0  0  0  0  0  0  0  0  0
   36.7420   25.5650   31.8760 N   0  0  0  0  0  0  0  0  0  0  0  0
   34.8680   25.5450   30.3080 N   0  0  0  0  0  0  0  0  0  0  0  0
   38.3560   25.3600   33.2690 H   0  0  0  0  0  0  0  0  0  0  0  0
   34.3830   26.4180   30.6600 H   0  0  0  0  0  0  0  0  0  0  0  0
   34.6080   25.2570   29.3380 H   0  0  0  0  0  0  0  0  0  0  0  0
   36.0400   21.4360   32.2380 C   0  0  0  0  0  0  0  0  0  0  0  0
   35.5280   20.5380   33.1350 C   0  0  0  0  0  0  0  0  0  0  0  0
   35.2140   20.9980   34.0530 H   0  0  0  0  0  0  0  0  0  0  0  0
   35.3980   19.1970   32.8830 C   0  0  0  0  0  3  0  0  0  0  0  0
   35.7800   18.6430   31.6810 C   0  0  0  0  0  0  0  0  0  0  0  0
   35.6120   17.5780   31.6440 H   0  0  0  0  0  0  0  0  0  0  0  0
   36.3030   19.5030   30.7400 C   0  0  0  0  0  0  0  0  0  0  0  0
   36.5870   19.0200   29.8170 H   0  0  0  0  0  0  0  0  0  0  0  0
   36.4230   20.8480   31.0180 C   0  0  0  0  0  3  0  0  0  0  0  0
   38.2800   22.7470   33.8100 C   0  0  0  0  0  0  0  0  0  0  0  0
   39.3380   23.5190   34.2080 F   0  0  0  0  0  0  0  0  0  0  0  0
   37.5570   22.3530   34.9180 F   0  0  0  0  0  0  0  0  0  0  0  0
   38.7940   21.6000   33.2240 F   0  0  0  0  0  0  0  0  0  0  0  0
  1  2  1  0  0  0  0
  1  8  1  0  0  0  0
  2 20  1  0  0  0  0
  3 11  1  0  0  0  0
  3  2  2  0  0  0  0
  4  3  1  0  0  0  0
  5  4  2  0  0  0  0
  5  6  1  0  0  0  0
  6  1  2  0  0  0  0
  7  9  1  0  0  0  0
  7  5  1  0  0  0  0
 10  7  1  0  0  0  0
 11 12  1  0  0  0  0
 12 13  1  0  0  0  0
 14 12  2  0  0  0  0
 15 14  1  0  0  0  0
 16 15  1  0  0  0  0
 17 19  1  0  0  0  0
 17 15  2  0  0  0  0
 18 17  1  0  0  0  0
 19 11  2  0  0  0  0
 20 21  1  0  0  0  0
 20 22  1  0  0  0  0
 23 20  1  0  0  0  0
M  END
>  <minimizedAffinity>
-4.63038015

$$$$

 OpenBabel03272507563D

 23 24  0  0  0  0  0  0  0  0999 V2000
   42.2940   23.7730   35.5280 C   0  0  0  0  0  0  0  0  0  0  0  0
   41.3370   24.6590   34.9580 C   0  0  0  0  0  0  0  0  0  0  0  0
   40.0190   24.5820   35.3820 C   0  0  0  0  0  0  0  0  0  0  0  0
   39.7160   23.6430   36.3410 N   0  0  0  0  0  0  0  0  0  0  0  0
   40.6350   22.8170   36.8690 C   0  0  0  0  0  0  0  0  0  0  0  0
   41.9020   22.8780   36.4720 N   0  0  0  0  0  0  0  0  0  0  0  0
   40.1100   21.9430   37.8430 N   0  0  0  0  0  0  0  0  0  0  0  0
   43.3210   23.8410   35.1880 H   0  0  0  0  0  0  0  0  0  0  0  0
   40.3530   20.9200   37.7120 H   0  0  0  0  0  0  0  0  0  0  0  0
   39.5170   22.1510   38.6770 H   0  0  0  0  0  0  0  0  0  0  0  0
   38.9370   25.4360   34.9440 C   0  0  0  0  0  0  0  0  0  0  0  0
   38.0370   25.4670   33.9140 C   0  0  0  0  0  0  0  0  0  0  0  0
   38.1070   24.6080   33.2730 H   0  0  0  0  0  0  0  0  0  0  0  0
   37.1200   26.4690   33.7310 C   0  0  0  0  0  3  0  0  0  0  0  0
   37.0350   27.5410   34.5900 C   0  0  0  0  0  0  0  0  0  0  0  0
   36.2620   28.2390   34.3060 H   0  0  0  0  0  0  0  0  0  0  0  0
   37.9180   27.5610   35.6480 C   0  0  0  0  0  0  0  0  0  0  0  0
   37.8100   28.4210   36.2910 H   0  0  0  0  0  0  0  0  0  0  0  0
   38.8310   26.5410   35.8100 C   0  0  0  0  0  3  0  0  0  0  0  0
   41.7960   25.6460   33.9470 C   0  0  0  0  0  0  0  0  0  0  0  0
   41.0880   25.5560   32.7790 F   0  0  0  0  0  0  0  0  0  0  0  0
   41.6370   26.9080   34.4840 F   0  0  0  0  0  0  0  0  0  0  0  0
   43.1390   25.4960   33.6380 F   0  0  0  0  0  0  0  0  0  0  0  0
  1  6  1  0  0  0  0
  2  3  1  0  0  0  0
  2  1  2  0  0  0  0
  3  4  2  0  0  0  0
  4  5  1  0  0  0  0
  5  7  1  0  0  0  0
  6  5  2  0  0  0  0
  7 10  1  0  0  0  0
  8  1  1  0  0  0  0
  9  7  1  0  0  0  0
 11  3  1  0  0  0  0
 11 19  1  0  0  0  0
 12 11  2  0  0  0  0
 13 12  1  0  0  0  0
 14 12  1  0  0  0  0
 14 15  2  0  0  0  0
 15 17  1  0  0  0  0
 16 15  1  0  0  0  0
 17 19  2  0  0  0  0
 17 18  1  0  0  0  0
 20 22  1  0  0  0  0
 20  2  1  0  0  0  0
 21 20  1  0  0  0  0
 23 20  1  0  0  0  0
M  END
>  <minimizedAffinity>
-4.58885622

$$$$

 OpenBabel03272507563D

 23 24  0  0  0  0  0  0  0  0999 V2000
   37.2340   23.0350   32.3820 C   0  0  0  0  0  0  0  0  0  0  0  0
   37.9310   23.3880   33.5710 C   0  0  0  0  0  0  0  0  0  0  0  0
   37.7780   22.5930   34.6970 C   0  0  0  0  0  0  0  0  0  0  0  0
   36.9530   21.4970   34.5900 N   0  0  0  0  0  0  0  0  0  0  0  0
   36.3040   21.1800   33.4560 C   0  0  0  0  0  0  0  0  0  0  0  0
   36.4400   21.9340   32.3700 N   0  0  0  0  0  0  0  0  0  0  0  0
   35.5220   20.0120   33.5650 N   0  0  0  0  0  0  0  0  0  0  0  0
   37.3610   23.6660   31.5090 H   0  0  0  0  0  0  0  0  0  0  0  0
   34.5210   20.1040   33.2300 H   0  0  0  0  0  0  0  0  0  0  0  0
   35.7790   19.0670   33.9270 H   0  0  0  0  0  0  0  0  0  0  0  0
   38.4490   22.7790   35.9650 C   0  0  0  0  0  0  0  0  0  0  0  0
   39.6590   22.4580   36.5150 C   0  0  0  0  0  0  0  0  0  0  0  0
   40.3220   21.9800   35.8180 H   0  0  0  0  0  0  0  0  0  0  0  0
   40.0080   22.7400   37.8110 C   0  0  0  0  0  3  0  0  0  0  0  0
   39.1460   23.3840   38.6710 C   0  0  0  0  0  0  0  0  0  0  0  0
   39.5740   23.5310   39.6510 H   0  0  0  0  0  0  0  0  0  0  0  0
   37.9120   23.7320   38.1670 C   0  0  0  0  0  0  0  0  0  0  0  0
   37.2750   24.2330   38.8810 H   0  0  0  0  0  0  0  0  0  0  0  0
   37.5850   23.4350   36.8610 C   0  0  0  0  0  3  0  0  0  0  0  0
   38.8140   24.5830   33.5510 C   0  0  0  0  0  0  0  0  0  0  0  0
   40.1250   24.2600   33.7740 F   0  0  0  0  0  0  0  0  0  0  0  0
   38.6930   25.1800   32.3120 F   0  0  0  0  0  0  0  0  0  0  0  0
   38.4450   25.5240   34.5010 F   0  0  0  0  0  0  0  0  0  0  0  0
  1  2  1  0  0  0  0
  2  3  2  0  0  0  0
  3 11  1  0  0  0  0
  4  3  1  0  0  0  0
  5  7  1  0  0  0  0
  5  4  2  0  0  0  0
  6  1  2  0  0  0  0
  6  5  1  0  0  0  0
  7 10  1  0  0  0  0
  8  1  1  0  0  0  0
  9  7  1  0  0  0  0
 11 12  2  0  0  0  0
 11 19  1  0  0  0  0
 12 14  1  0  0  0  0
 13 12  1  0  0  0  0
 14 15  2  0  0  0  0
 15 16  1  0  0  0  0
 17 15  1  0  0  0  0
 17 18  1  0  0  0  0
 19 17  2  0  0  0  0
 20  2  1  0  0  0  0
 20 21  1  0  0  0  0
 20 23  1  0  0  0  0
 22 20  1  0  0  0  0
M  END
>  <minimizedAffinity>
-4.54787493

$$$$
