
 OpenBabel03272507553D

 23 24  0  0  0  0  0  0  0  0999 V2000
   35.1440   28.8070   50.0280 C   0  0  0  0  0  0  0  0  0  0  0  0
   36.2850   29.6380   49.8450 C   0  0  0  0  0  0  0  0  0  0  0  0
   36.3070   30.5150   48.7710 C   0  0  0  0  0  0  0  0  0  0  0  0
   35.2090   30.5280   47.9410 N   0  0  0  0  0  0  0  0  0  0  0  0
   34.1410   29.7360   48.1320 C   0  0  0  0  0  0  0  0  0  0  0  0
   34.1060   28.8890   49.1560 N   0  0  0  0  0  0  0  0  0  0  0  0
   33.1270   29.9200   47.1700 N   0  0  0  0  0  0  0  0  0  0  0  0
   35.1390   28.1240   50.8700 H   0  0  0  0  0  0  0  0  0  0  0  0
   32.7680   29.0330   46.7150 H   0  0  0  0  0  0  0  0  0  0  0  0
   32.6740   30.8000   46.8370 H   0  0  0  0  0  0  0  0  0  0  0  0
   37.3600   31.4610   48.4700 C   0  0  0  0  0  0  0  0  0  0  0  0
   38.3690   31.5800   47.5540 C   0  0  0  0  0  0  0  0  0  0  0  0
   38.3640   30.7920   46.8240 H   0  0  0  0  0  0  0  0  0  0  0  0
   39.2740   32.6090   47.5450 C   0  0  0  0  0  3  0  0  0  0  0  0
   39.2320   33.6220   48.4770 C   0  0  0  0  0  0  0  0  0  0  0  0
   40.0130   34.3520   48.3290 H   0  0  0  0  0  0  0  0  0  0  0  0
   38.2340   33.5520   49.4240 C   0  0  0  0  0  0  0  0  0  0  0  0
   38.2440   34.3690   50.1300 H   0  0  0  0  0  0  0  0  0  0  0  0
   37.3360   32.5060   49.4120 C   0  0  0  0  0  3  0  0  0  0  0  0
   37.3960   29.5490   50.8270 C   0  0  0  0  0  0  0  0  0  0  0  0
   38.6160   29.7660   50.2470 F   0  0  0  0  0  0  0  0  0  0  0  0
   37.1760   30.4990   51.8050 F   0  0  0  0  0  0  0  0  0  0  0  0
   37.4420   28.3130   51.4550 F   0  0  0  0  0  0  0  0  0  0  0  0
  1  8  1  0  0  0  0
  2  1  1  0  0  0  0
  2 20  1  0  0  0  0
  3  2  2  0  0  0  0
  4  5  2  0  0  0  0
  4  3  1  0  0  0  0
  5  6  1  0  0  0  0
  6  1  2  0  0  0  0
  7  5  1  0  0  0  0
  9  7  1  0  0  0  0
 10  7  1  0  0  0  0
 11  3  1  0  0  0  0
 11 19  1  0  0  0  0
 12 11  2  0  0  0  0
 13 12  1  0  0  0  0
 14 12  1  0  0  0  0
 14 15  2  0  0  0  0
 15 17  1  0  0  0  0
 16 15  1  0  0  0  0
 17 18  1  0  0  0  0
 19 17  2  0  0  0  0
 20 23  1  0  0  0  0
 20 22  1  0  0  0  0
 21 20  1  0  0  0  0
M  END
>  <minimizedAffinity>
-6.14269161

>  <minimizedRMSD>
1.53080714

$$$$
