
 OpenBabel03272507553D

 23 24  0  0  0  0  0  0  0  0999 V2000
   35.0840   29.1970   50.4170 C   0  0  0  0  0  0  0  0  0  0  0  0
   36.1490   29.9700   49.8750 C   0  0  0  0  0  0  0  0  0  0  0  0
   36.1900   30.1830   48.5060 C   0  0  0  0  0  0  0  0  0  0  0  0
   35.1850   29.6280   47.7480 N   0  0  0  0  0  0  0  0  0  0  0  0
   34.1870   28.9020   48.2800 C   0  0  0  0  0  0  0  0  0  0  0  0
   34.1340   28.6890   49.5910 N   0  0  0  0  0  0  0  0  0  0  0  0
   33.2590   28.4390   47.3240 N   0  0  0  0  0  0  0  0  0  0  0  0
   35.0630   29.0370   51.4890 H   0  0  0  0  0  0  0  0  0  0  0  0
   33.0360   27.4040   47.3740 H   0  0  0  0  0  0  0  0  0  0  0  0
   32.7560   28.9610   46.5730 H   0  0  0  0  0  0  0  0  0  0  0  0
   37.1690   30.9810   47.8010 C   0  0  0  0  0  0  0  0  0  0  0  0
   38.1270   31.9050   48.1180 C   0  0  0  0  0  0  0  0  0  0  0  0
   38.2250   32.0590   49.1760 H   0  0  0  0  0  0  0  0  0  0  0  0
   38.9040   32.5480   47.1890 C   0  0  0  0  0  3  0  0  0  0  0  0
   38.7760   32.3050   45.8400 C   0  0  0  0  0  0  0  0  0  0  0  0
   39.4610   32.8910   45.2480 H   0  0  0  0  0  0  0  0  0  0  0  0
   37.8260   31.3810   45.4640 C   0  0  0  0  0  0  0  0  0  0  0  0
   37.7660   31.2260   44.3980 H   0  0  0  0  0  0  0  0  0  0  0  0
   37.0560   30.7480   46.4180 C   0  0  0  0  0  3  0  0  0  0  0  0
   37.1610   30.5380   50.8030 C   0  0  0  0  0  0  0  0  0  0  0  0
   38.4390   30.2350   50.4210 F   0  0  0  0  0  0  0  0  0  0  0  0
   36.9990   31.9090   50.8210 F   0  0  0  0  0  0  0  0  0  0  0  0
   36.9920   30.0860   52.1030 F   0  0  0  0  0  0  0  0  0  0  0  0
  1  8  1  0  0  0  0
  2  1  1  0  0  0  0
  2 20  1  0  0  0  0
  3  2  2  0  0  0  0
  4  5  2  0  0  0  0
  4  3  1  0  0  0  0
  5  6  1  0  0  0  0
  6  1  2  0  0  0  0
  7  9  1  0  0  0  0
  7  5  1  0  0  0  0
 10  7  1  0  0  0  0
 11 12  1  0  0  0  0
 11  3  1  0  0  0  0
 12 13  1  0  0  0  0
 14 12  2  0  0  0  0
 15 14  1  0  0  0  0
 16 15  1  0  0  0  0
 17 15  2  0  0  0  0
 17 19  1  0  0  0  0
 18 17  1  0  0  0  0
 19 11  2  0  0  0  0
 20 22  1  0  0  0  0
 20 23  1  0  0  0  0
 21 20  1  0  0  0  0
M  END
>  <minimizedAffinity>
-6.0375495

>  <minimizedRMSD>
1.01508474

$$$$
