
 OpenBabel03272503093D

 45 49  0  0  0  0  0  0  0  0999 V2000
   39.2540   31.9300   44.9530 C   0  0  0  0  0  0  0  0  0  0  0  0
   38.1650   32.5700   45.0850 O   0  0  0  0  0  0  0  0  0  0  0  0
   39.9520   31.6780   46.1730 N   0  0  0  0  0  0  0  0  0  0  0  0
   40.8470   31.1700   46.1260 H   0  0  0  0  0  0  0  0  0  0  0  0
   39.1480   32.2220   42.5850 C   0  0  0  0  0  0  0  0  0  0  0  0
   39.6900   31.5220   43.6500 C   0  0  0  0  0  0  0  0  0  0  0  0
   40.5920   30.5000   43.4780 C   0  0  0  0  0  0  0  0  0  0  0  0
   40.9810   30.1450   42.2020 C   0  0  0  0  0  0  0  0  0  0  0  0
   41.8290   29.2050   41.7330 N   0  0  0  0  0  0  0  0  0  0  0  0
   41.8280   29.3020   40.4030 C   0  0  0  0  0  0  0  0  0  0  0  0
   40.9980   30.2830   40.0230 N   0  0  0  0  0  0  0  0  0  0  0  0
   40.4420   30.8410   41.1360 C   0  0  0  0  0  0  0  0  0  0  0  0
   39.5410   31.8650   41.2890 C   0  0  0  0  0  0  0  0  0  0  0  0
   38.4400   33.0280   42.7000 H   0  0  0  0  0  0  0  0  0  0  0  0
   41.0040   29.9650   44.3280 H   0  0  0  0  0  0  0  0  0  0  0  0
   42.3770   28.5340   42.2970 H   0  0  0  0  0  0  0  0  0  0  0  0
   42.3820   28.7200   39.6700 H   0  0  0  0  0  0  0  0  0  0  0  0
   38.9780   32.5930   40.1450 C   0  0  0  0  0  0  0  0  0  0  0  0
   39.4080   32.3430   38.8400 C   0  0  0  0  0  0  0  0  0  0  0  0
   40.1800   31.5880   38.6680 H   0  0  0  0  0  0  0  0  0  0  0  0
   38.8340   33.0660   37.8130 C   0  0  0  0  0  0  0  0  0  0  0  0
   37.8600   34.0200   38.0190 C   0  0  0  0  0  0  0  0  0  0  0  0
   37.4300   34.5670   37.2110 H   0  0  0  0  0  0  0  0  0  0  0  0
   37.4580   34.2430   39.3290 C   0  0  0  0  0  0  0  0  0  0  0  0
   36.6810   35.0100   39.4510 H   0  0  0  0  0  0  0  0  0  0  0  0
   38.0050   33.5400   40.4070 C   0  0  0  0  0  0  0  0  0  0  0  0
   38.1060   30.1620   47.5010 F   0  0  0  0  0  0  0  0  0  0  0  0
   38.3650   31.3980   47.9990 C   0  0  0  0  0  0  0  0  0  0  0  0
   37.7080   31.8250   49.1190 C   0  0  0  0  0  0  0  0  0  0  0  0
   38.0240   33.0890   49.5660 C   0  0  0  0  0  0  0  0  0  0  0  0
   38.9410   33.9040   48.9480 C   0  0  0  0  0  0  0  0  0  0  0  0
   39.5870   33.4380   47.8160 C   0  0  0  0  0  0  0  0  0  0  0  0
   39.2950   32.1790   47.3440 C   0  0  0  0  0  0  0  0  0  0  0  0
   37.5120   33.4460   50.4540 H   0  0  0  0  0  0  0  0  0  0  0  0
   39.1280   34.8840   49.3670 H   0  0  0  0  0  0  0  0  0  0  0  0
   40.3050   34.0910   47.3430 H   0  0  0  0  0  0  0  0  0  0  0  0
   36.0780   29.3440   51.4550 C   0  0  0  0  0  0  0  0  0  0  0  0
   37.0280   30.1970   50.8740 C   0  0  0  0  0  0  0  0  0  0  0  0
   36.7410   30.9280   49.7460 C   0  0  0  0  0  0  0  0  0  0  0  0
   35.4920   30.7800   49.2240 N   0  0  0  0  0  0  0  0  0  0  0  0
   34.5750   29.9660   49.7710 C   0  0  0  0  0  0  0  0  0  0  0  0
   34.8730   29.2620   50.8690 N   0  0  0  0  0  0  0  0  0  0  0  0
   36.4140   28.8190   52.3400 H   0  0  0  0  0  0  0  0  0  0  0  0
   38.0090   30.3000   51.3010 H   0  0  0  0  0  0  0  0  0  0  0  0
   33.5760   29.8400   49.3630 H   0  0  0  0  0  0  0  0  0  0  0  0
  1  2  2  0  0  0  0
  1  3  1  0  0  0  0
  3 33  1  0  0  0  0
  4  3  1  0  0  0  0
  5 14  1  0  0  0  0
  5  6  1  0  0  0  0
  6  1  1  0  0  0  0
  7  6  2  0  0  0  0
  7 15  1  0  0  0  0
  8  7  1  0  0  0  0
  9  8  1  0  0  0  0
  9 16  1  0  0  0  0
 10  9  1  0  0  0  0
 11 10  2  0  0  0  0
 11 12  1  0  0  0  0
 12 13  1  0  0  0  0
 12  8  2  0  0  0  0
 13  5  2  0  0  0  0
 17 10  1  0  0  0  0
 18 26  1  0  0  0  0
 18 13  1  0  0  0  0
 19 18  2  0  0  0  0
 20 19  1  0  0  0  0
 21 22  2  0  0  0  0
 21 19  1  0  0  0  0
 22 24  1  0  0  0  0
 23 22  1  0  0  0  0
 24 25  1  0  0  0  0
 24 26  2  0  0  0  0
 27 28  1  0  0  0  0
 28 29  1  0  0  0  0
 29 30  2  0  0  0  0
 29 39  1  0  0  0  0
 30 34  1  0  0  0  0
 31 35  1  0  0  0  0
 31 30  1  0  0  0  0
 32 31  2  0  0  0  0
 33 32  1  0  0  0  0
 33 28  2  0  0  0  0
 36 32  1  0  0  0  0
 37 43  1  0  0  0  0
 38 44  1  0  0  0  0
 38 37  1  0  0  0  0
 39 38  2  0  0  0  0
 40 39  1  0  0  0  0
 40 41  2  0  0  0  0
 41 42  1  0  0  0  0
 42 37  2  0  0  0  0
 45 41  1  0  0  0  0
M  END
>  <minimizedAffinity>
-7.58088684

>  <minimizedRMSD>
0.079833746

$$$$
