
 OpenBabel03272506023D

 46 49  0  0  1  0  0  0  0  0999 V2000
   35.2470   30.0610   49.4650 C   0  0  2  0  0  0  0  0  0  0  0  0
   36.1590   31.1460   49.1120 C   0  0  0  0  0  0  0  0  0  0  0  0
   37.6570   30.7120   49.1840 C   0  0  2  0  0  0  0  0  0  0  0  0
   38.0530   30.2280   50.4820 C   0  0  0  0  0  0  0  0  0  0  0  0
   36.9950   29.3600   51.1670 C   0  0  0  0  0  0  0  0  0  0  0  0
   35.9550   28.9060   50.1870 C   0  0  0  0  0  0  0  0  0  0  0  0
   34.5070   30.4170   50.2420 H   0  0  0  0  0  0  0  0  0  0  0  0
   36.1240   31.6550   48.1730 H   0  0  0  0  0  0  0  0  0  0  0  0
   36.1250   31.9740   49.8960 H   0  0  0  0  0  0  0  0  0  0  0  0
   37.8250   29.9840   48.3690 H   0  0  0  0  0  0  0  0  0  0  0  0
   39.0230   29.6940   50.4010 H   0  0  0  0  0  0  0  0  0  0  0  0
   38.2420   31.0530   51.1960 H   0  0  0  0  0  0  0  0  0  0  0  0
   37.5150   28.4520   51.5160 H   0  0  0  0  0  0  0  0  0  0  0  0
   36.5430   29.8320   52.0410 H   0  0  0  0  0  0  0  0  0  0  0  0
   36.4360   28.2420   49.4340 H   0  0  0  0  0  0  0  0  0  0  0  0
   35.2010   28.3290   50.7340 H   0  0  0  0  0  0  0  0  0  0  0  0
   38.5250   30.9340   46.3700 Cl  0  0  0  0  0  0  0  0  0  0  0  0
   38.8790   32.1650   47.5620 C   0  0  0  0  0  0  0  0  0  0  0  0
   38.3840   31.9720   48.8280 C   0  0  0  0  0  0  0  0  0  0  0  0
   38.6790   33.0040   49.6930 C   0  0  0  0  0  0  0  0  0  0  0  0
   39.4030   34.1240   49.3300 C   0  0  0  0  0  0  0  0  0  0  0  0
   39.8710   34.2410   48.0230 C   0  0  0  0  0  0  0  0  0  0  0  0
   39.5990   33.2320   47.1160 C   0  0  0  0  0  0  0  0  0  0  0  0
   38.3210   32.9350   50.7120 H   0  0  0  0  0  0  0  0  0  0  0  0
   39.5870   34.8830   50.0770 H   0  0  0  0  0  0  0  0  0  0  0  0
   40.4400   35.1130   47.7260 H   0  0  0  0  0  0  0  0  0  0  0  0
   40.0640   33.3400   45.7740 N   0  0  0  0  0  0  0  0  0  0  0  0
   39.7080   32.6730   45.0500 H   0  0  0  0  0  0  0  0  0  0  0  0
   40.7530   34.0840   45.5290 H   0  0  0  0  0  0  0  0  0  0  0  0
   34.4970   29.4670   48.3620 C   0  0  0  0  0  0  0  0  0  0  0  0
   34.1880   30.3520   47.3400 C   0  0  0  0  0  0  0  0  0  0  0  0
   33.5010   29.8780   46.2280 C   0  0  0  0  0  0  0  0  0  0  0  0
   33.1530   28.5330   46.1940 N   0  0  0  0  0  0  0  0  0  0  0  0
   33.4660   27.6940   47.2040 C   0  0  0  0  0  0  0  0  0  0  0  0
   34.1280   28.2030   48.2490 N   0  0  0  0  0  0  0  0  0  0  0  0
   34.3130   31.3990   47.0960 H   0  0  0  0  0  0  0  0  0  0  0  0
   33.1510   30.3370   45.3290 H   0  0  0  0  0  0  0  0  0  0  0  0
   33.0940   26.2840   47.1530 C   0  0  0  0  0  0  0  0  0  0  0  0
   34.0630   25.3350   47.4010 C   0  0  0  0  0  0  0  0  0  0  0  0
   35.0740   25.5690   47.6300 H   0  0  0  0  0  0  0  0  0  0  0  0
   33.6850   24.0020   47.3470 C   0  0  0  0  0  3  0  0  0  0  0  0
   32.3780   23.6600   47.0530 C   0  0  0  0  0  0  0  0  0  0  0  0
   32.0280   22.6260   46.9990 H   0  0  0  0  0  0  0  0  0  0  0  0
   31.4440   24.6600   46.8110 C   0  0  0  0  0  0  0  0  0  0  0  0
   30.3990   24.4380   46.5760 H   0  0  0  0  0  0  0  0  0  0  0  0
   31.7650   26.0190   46.8520 C   0  0  0  0  0  3  0  0  0  0  0  0
  1  6  1  0  0  0  0
  1  7  1  1  0  0  0
  2  3  1  0  0  0  0
  2  1  1  0  0  0  0
  2  9  1  0  0  0  0
  3 10  1  6  0  0  0
  3  4  1  0  0  0  0
  4  5  1  0  0  0  0
  4 12  1  0  0  0  0
  5 13  1  0  0  0  0
  5 14  1  0  0  0  0
  6 16  1  0  0  0  0
  6  5  1  0  0  0  0
  8  2  1  0  0  0  0
 11  4  1  0  0  0  0
 15  6  1  0  0  0  0
 17 18  1  0  0  0  0
 18 19  1  0  0  0  0
 19  3  1  0  0  0  0
 19 20  2  0  0  0  0
 20 24  1  0  0  0  0
 21 20  1  0  0  0  0
 21 25  1  0  0  0  0
 22 21  2  0  0  0  0
 23 18  2  0  0  0  0
 23 22  1  0  0  0  0
 26 22  1  0  0  0  0
 27 23  1  0  0  0  0
 28 27  1  0  0  0  0
 29 27  1  0  0  0  0
 30  1  1  0  0  0  0
 31 30  2  0  0  0  0
 32 31  1  0  0  0  0
 33 32  2  0  0  0  0
 33 34  1  0  0  0  0
 34 35  2  0  0  0  0
 35 30  1  0  0  0  0
 36 31  1  0  0  0  0
 37 32  1  0  0  0  0
 38 34  1  0  0  0  0
 38 39  1  0  0  0  0
 39 40  1  0  0  0  0
 41 39  2  0  0  0  0
 42 41  1  0  0  0  0
 43 42  1  0  0  0  0
 44 46  1  0  0  0  0
 44 42  2  0  0  0  0
 45 44  1  0  0  0  0
 46 38  2  0  0  0  0
M  END
>  <minimizedAffinity>
-7.55923843

>  <minimizedRMSD>
1.29900384

$$$$
