
 OpenBabel03272506023D

 46 49  0  0  1  0  0  0  0  0999 V2000
   35.3020   30.2120   49.5920 C   0  0  2  0  0  0  0  0  0  0  0  0
   36.2190   31.2820   49.2080 C   0  0  0  0  0  0  0  0  0  0  0  0
   37.7100   30.8230   49.2230 C   0  0  2  0  0  0  0  0  0  0  0  0
   38.1470   30.3280   50.5050 C   0  0  0  0  0  0  0  0  0  0  0  0
   37.1000   29.4760   51.2260 C   0  0  0  0  0  0  0  0  0  0  0  0
   36.0170   29.0430   50.2850 C   0  0  0  0  0  0  0  0  0  0  0  0
   34.5970   30.5780   50.3970 H   0  0  0  0  0  0  0  0  0  0  0  0
   36.1570   31.7950   48.2720 H   0  0  0  0  0  0  0  0  0  0  0  0
   36.2280   32.1080   49.9950 H   0  0  0  0  0  0  0  0  0  0  0  0
   37.8350   30.0950   48.4000 H   0  0  0  0  0  0  0  0  0  0  0  0
   39.1030   29.7780   50.3860 H   0  0  0  0  0  0  0  0  0  0  0  0
   38.3750   31.1470   51.2130 H   0  0  0  0  0  0  0  0  0  0  0  0
   37.6170   28.5580   51.5530 H   0  0  0  0  0  0  0  0  0  0  0  0
   36.6890   29.9530   52.1180 H   0  0  0  0  0  0  0  0  0  0  0  0
   36.4580   28.3730   49.5130 H   0  0  0  0  0  0  0  0  0  0  0  0
   35.2730   28.4770   50.8570 H   0  0  0  0  0  0  0  0  0  0  0  0
   38.5460   31.0040   46.3970 Cl  0  0  0  0  0  0  0  0  0  0  0  0
   38.9260   32.2450   47.5700 C   0  0  0  0  0  0  0  0  0  0  0  0
   38.4450   32.0720   48.8430 C   0  0  0  0  0  0  0  0  0  0  0  0
   38.7600   33.1110   49.6930 C   0  0  0  0  0  0  0  0  0  0  0  0
   39.4900   34.2190   49.3080 C   0  0  0  0  0  0  0  0  0  0  0  0
   39.9440   34.3160   47.9940 C   0  0  0  0  0  0  0  0  0  0  0  0
   39.6510   33.2990   47.1030 C   0  0  0  0  0  0  0  0  0  0  0  0
   38.4140   33.0580   50.7170 H   0  0  0  0  0  0  0  0  0  0  0  0
   39.6910   34.9850   50.0430 H   0  0  0  0  0  0  0  0  0  0  0  0
   40.5170   35.1800   47.6790 H   0  0  0  0  0  0  0  0  0  0  0  0
   40.1010   33.3870   45.7530 N   0  0  0  0  0  0  0  0  0  0  0  0
   39.7300   32.7150   45.0420 H   0  0  0  0  0  0  0  0  0  0  0  0
   40.7940   34.1210   45.4910 H   0  0  0  0  0  0  0  0  0  0  0  0
   34.5010   29.6340   48.5170 C   0  0  0  0  0  0  0  0  0  0  0  0
   35.0960   29.6980   47.2650 C   0  0  0  0  0  0  0  0  0  0  0  0
   34.4280   29.1470   46.1770 C   0  0  0  0  0  0  0  0  0  0  0  0
   33.1890   28.5560   46.3960 N   0  0  0  0  0  0  0  0  0  0  0  0
   32.6340   28.5090   47.6250 C   0  0  0  0  0  0  0  0  0  0  0  0
   33.3200   29.0540   48.6360 N   0  0  0  0  0  0  0  0  0  0  0  0
   35.9980   30.0780   46.8050 H   0  0  0  0  0  0  0  0  0  0  0  0
   34.6590   29.0660   45.1370 H   0  0  0  0  0  0  0  0  0  0  0  0
   31.3320   27.8840   47.8380 C   0  0  0  0  0  0  0  0  0  0  0  0
   30.8960   27.6910   49.1320 C   0  0  0  0  0  0  0  0  0  0  0  0
   31.4550   27.9720   49.9910 H   0  0  0  0  0  0  0  0  0  0  0  0
   29.6560   27.0970   49.3100 C   0  0  0  0  0  3  0  0  0  0  0  0
   28.9030   26.7200   48.2140 C   0  0  0  0  0  0  0  0  0  0  0  0
   27.9200   26.2470   48.2990 H   0  0  0  0  0  0  0  0  0  0  0  0
   29.3930   26.9390   46.9340 C   0  0  0  0  0  0  0  0  0  0  0  0
   28.8320   26.6570   46.0370 H   0  0  0  0  0  0  0  0  0  0  0  0
   30.6340   27.5340   46.6930 C   0  0  0  0  0  3  0  0  0  0  0  0
  1  6  1  0  0  0  0
  1  7  1  1  0  0  0
  2  3  1  0  0  0  0
  2  1  1  0  0  0  0
  2  9  1  0  0  0  0
  3 10  1  6  0  0  0
  3  4  1  0  0  0  0
  4 12  1  0  0  0  0
  4  5  1  0  0  0  0
  5 13  1  0  0  0  0
  5 14  1  0  0  0  0
  6 16  1  0  0  0  0
  6  5  1  0  0  0  0
  8  2  1  0  0  0  0
 11  4  1  0  0  0  0
 15  6  1  0  0  0  0
 17 18  1  0  0  0  0
 18 19  1  0  0  0  0
 19  3  1  0  0  0  0
 19 20  2  0  0  0  0
 20 24  1  0  0  0  0
 21 20  1  0  0  0  0
 21 25  1  0  0  0  0
 22 21  2  0  0  0  0
 23 18  2  0  0  0  0
 23 22  1  0  0  0  0
 26 22  1  0  0  0  0
 27 23  1  0  0  0  0
 28 27  1  0  0  0  0
 29 27  1  0  0  0  0
 30 35  1  0  0  0  0
 30  1  1  0  0  0  0
 31 30  2  0  0  0  0
 32 33  2  0  0  0  0
 32 31  1  0  0  0  0
 33 34  1  0  0  0  0
 34 38  1  0  0  0  0
 34 35  2  0  0  0  0
 36 31  1  0  0  0  0
 37 32  1  0  0  0  0
 38 39  1  0  0  0  0
 39 41  2  0  0  0  0
 39 40  1  0  0  0  0
 42 43  1  0  0  0  0
 42 41  1  0  0  0  0
 44 42  2  0  0  0  0
 45 44  1  0  0  0  0
 46 44  1  0  0  0  0
 46 38  2  0  0  0  0
M  END
>  <minimizedAffinity>
-7.70370913

>  <minimizedRMSD>
1.29386747

$$$$
