
 OpenBabel03272505283D

 31 33  0  0  0  0  0  0  0  0999 V2000
   38.0540   23.5850   34.3030 N   0  0  0  0  0  0  0  0  0  0  0  0
   38.0420   24.8410   33.7820 C   0  0  0  0  0  0  0  0  0  0  0  0
   37.3840   25.1460   32.5980 C   0  0  0  0  0  0  0  0  0  0  0  0
   36.7200   24.0900   31.9480 C   0  0  0  0  0  0  0  0  0  0  0  0
   36.1110   24.3190   30.8760 O   0  0  0  0  0  0  0  0  0  0  0  0
   36.7330   22.8300   32.4740 N   0  0  0  0  0  0  0  0  0  0  0  0
   37.4020   22.6670   33.6180 C   0  0  0  0  0  0  0  0  0  0  0  0
   37.3930   21.4990   34.0680 O   0  0  0  0  0  0  0  0  0  0  0  0
   38.5600   25.6370   34.2980 H   0  0  0  0  0  0  0  0  0  0  0  0
   38.8630   23.2650   37.9100 C   0  0  0  0  0  0  0  0  0  0  0  0
   38.1800   23.5680   36.7210 C   0  0  0  0  0  0  0  0  0  0  0  0
   38.7250   23.2930   35.4930 C   0  0  0  0  0  0  0  0  0  0  0  0
   39.9590   22.7120   35.4580 N   0  0  0  0  0  0  0  0  0  0  0  0
   40.6420   22.4090   36.6000 C   0  0  0  0  0  0  0  0  0  0  0  0
   40.0980   22.6830   37.8180 N   0  0  0  0  0  0  0  0  0  0  0  0
   38.5070   23.4470   38.8980 H   0  0  0  0  0  0  0  0  0  0  0  0
   37.2390   24.0270   36.9470 H   0  0  0  0  0  0  0  0  0  0  0  0
   41.6230   21.9460   36.5140 H   0  0  0  0  0  0  0  0  0  0  0  0
   37.3680   26.4920   32.0330 C   0  0  0  0  0  0  0  0  0  0  0  0
   36.4190   27.3900   32.5190 C   0  0  0  0  0  0  0  0  0  0  0  0
   35.7070   27.1370   33.2860 H   0  0  0  0  0  0  0  0  0  0  0  0
   36.3310   28.6880   32.0410 C   0  0  0  0  0  3  0  0  0  0  0  0
   37.2020   29.1070   31.0570 C   0  0  0  0  0  0  0  0  0  0  0  0
   37.1340   30.1360   30.6760 H   0  0  0  0  0  0  0  0  0  0  0  0
   38.1500   28.2100   30.5700 C   0  0  0  0  0  0  0  0  0  0  0  0
   38.8480   28.5240   29.7900 H   0  0  0  0  0  0  0  0  0  0  0  0
   38.2250   26.9330   31.0510 C   0  0  0  0  0  3  0  0  0  0  0  0
   36.0430   21.7490   31.8000 C   0  0  0  0  0  0  0  0  0  0  0  0
   35.3170   22.2370   30.7620 F   0  0  0  0  0  0  0  0  0  0  0  0
   35.1520   21.0830   32.6280 F   0  0  0  0  0  0  0  0  0  0  0  0
   36.9870   20.8630   31.2970 F   0  0  0  0  0  0  0  0  0  0  0  0
  1 12  1  0  0  0  0
  2  9  1  0  0  0  0
  2  1  1  0  0  0  0
  3  2  2  0  0  0  0
  4  6  1  0  0  0  0
  4  3  1  0  0  0  0
  5  4  2  0  0  0  0
  6  7  1  0  0  0  0
  7  8  2  0  0  0  0
  7  1  1  0  0  0  0
 10 16  1  0  0  0  0
 11 17  1  0  0  0  0
 11 10  2  0  0  0  0
 12 11  1  0  0  0  0
 13 12  2  0  0  0  0
 13 14  1  0  0  0  0
 14 15  2  0  0  0  0
 15 10  1  0  0  0  0
 18 14  1  0  0  0  0
 19 20  1  0  0  0  0
 19  3  1  0  0  0  0
 20 21  1  0  0  0  0
 22 20  2  0  0  0  0
 23 22  1  0  0  0  0
 24 23  1  0  0  0  0
 25 27  1  0  0  0  0
 25 23  2  0  0  0  0
 26 25  1  0  0  0  0
 27 19  2  0  0  0  0
 28  6  1  0  0  0  0
 28 30  1  0  0  0  0
 29 28  1  0  0  0  0
 31 28  1  0  0  0  0
M  END
>  <minimizedAffinity>
-5.78837061

$$$$

 OpenBabel03272505283D

 31 33  0  0  0  0  0  0  0  0999 V2000
   37.3670   25.2660   32.5990 N   0  0  0  0  0  0  0  0  0  0  0  0
   38.0760   24.9610   33.7190 C   0  0  0  0  0  0  0  0  0  0  0  0
   38.1440   23.6690   34.2240 C   0  0  0  0  0  0  0  0  0  0  0  0
   37.4420   22.6730   33.5230 C   0  0  0  0  0  0  0  0  0  0  0  0
   37.4750   21.4910   33.9410 O   0  0  0  0  0  0  0  0  0  0  0  0
   36.7300   22.9810   32.3980 N   0  0  0  0  0  0  0  0  0  0  0  0
   36.7440   24.2600   32.0160 C   0  0  0  0  0  0  0  0  0  0  0  0
   36.0800   24.5050   30.9830 O   0  0  0  0  0  0  0  0  0  0  0  0
   38.6090   25.7430   34.2420 H   0  0  0  0  0  0  0  0  0  0  0  0
   38.1030   28.3470   30.6670 C   0  0  0  0  0  0  0  0  0  0  0  0
   38.1810   27.0330   31.1580 C   0  0  0  0  0  0  0  0  0  0  0  0
   37.3040   26.5710   32.1060 C   0  0  0  0  0  0  0  0  0  0  0  0
   36.3470   27.4290   32.5620 N   0  0  0  0  0  0  0  0  0  0  0  0
   36.2520   28.7100   32.1010 C   0  0  0  0  0  0  0  0  0  0  0  0
   37.1250   29.1660   31.1580 N   0  0  0  0  0  0  0  0  0  0  0  0
   38.7460   28.7770   29.9330 H   0  0  0  0  0  0  0  0  0  0  0  0
   38.9970   26.5170   30.6940 H   0  0  0  0  0  0  0  0  0  0  0  0
   35.4690   29.3520   32.4990 H   0  0  0  0  0  0  0  0  0  0  0  0
   38.9030   23.3350   35.4250 C   0  0  0  0  0  0  0  0  0  0  0  0
   40.2260   22.9220   35.2660 C   0  0  0  0  0  0  0  0  0  0  0  0
   40.7050   22.8420   34.3050 H   0  0  0  0  0  0  0  0  0  0  0  0
   41.0200   22.5850   36.3500 C   0  0  0  0  0  3  0  0  0  0  0  0
   40.4950   22.6570   37.6230 C   0  0  0  0  0  0  0  0  0  0  0  0
   41.1230   22.3910   38.4840 H   0  0  0  0  0  0  0  0  0  0  0  0
   39.1740   23.0700   37.7830 C   0  0  0  0  0  0  0  0  0  0  0  0
   38.7390   23.1320   38.7850 H   0  0  0  0  0  0  0  0  0  0  0  0
   38.4010   23.3980   36.7050 C   0  0  0  0  0  3  0  0  0  0  0  0
   36.0120   21.9480   31.6810 C   0  0  0  0  0  0  0  0  0  0  0  0
   35.2730   22.5010   30.6870 F   0  0  0  0  0  0  0  0  0  0  0  0
   35.1280   21.2490   32.4890 F   0  0  0  0  0  0  0  0  0  0  0  0
   36.9340   21.0790   31.1110 F   0  0  0  0  0  0  0  0  0  0  0  0
  1  2  1  0  0  0  0
  2  3  2  0  0  0  0
  2  9  1  0  0  0  0
  3 19  1  0  0  0  0
  4  5  2  0  0  0  0
  4  3  1  0  0  0  0
  6  4  1  0  0  0  0
  7  6  1  0  0  0  0
  7  1  1  0  0  0  0
  8  7  2  0  0  0  0
 10 11  2  0  0  0  0
 10 15  1  0  0  0  0
 11 12  1  0  0  0  0
 12 13  2  0  0  0  0
 12  1  1  0  0  0  0
 14 18  1  0  0  0  0
 14 13  1  0  0  0  0
 15 14  2  0  0  0  0
 16 10  1  0  0  0  0
 17 11  1  0  0  0  0
 19 27  1  0  0  0  0
 20 19  2  0  0  0  0
 20 22  1  0  0  0  0
 21 20  1  0  0  0  0
 22 23  2  0  0  0  0
 23 25  1  0  0  0  0
 23 24  1  0  0  0  0
 25 26  1  0  0  0  0
 27 25  2  0  0  0  0
 28  6  1  0  0  0  0
 28 30  1  0  0  0  0
 29 28  1  0  0  0  0
 31 28  1  0  0  0  0
M  END
>  <minimizedAffinity>
-5.78104973

$$$$

 OpenBabel03272505283D

 31 33  0  0  0  0  0  0  0  0999 V2000
   37.4110   25.2230   32.5160 N   0  0  0  0  0  0  0  0  0  0  0  0
   38.0890   24.9270   33.6570 C   0  0  0  0  0  0  0  0  0  0  0  0
   38.1340   23.6410   34.1790 C   0  0  0  0  0  0  0  0  0  0  0  0
   37.4430   22.6410   33.4710 C   0  0  0  0  0  0  0  0  0  0  0  0
   37.4570   21.4640   33.9040 O   0  0  0  0  0  0  0  0  0  0  0  0
   36.7640   22.9410   32.3250 N   0  0  0  0  0  0  0  0  0  0  0  0
   36.7970   24.2150   31.9280 C   0  0  0  0  0  0  0  0  0  0  0  0
   36.1620   24.4520   30.8750 O   0  0  0  0  0  0  0  0  0  0  0  0
   38.6130   25.7110   34.1850 H   0  0  0  0  0  0  0  0  0  0  0  0
   36.4800   28.7740   31.9780 C   0  0  0  0  0  0  0  0  0  0  0  0
   36.5070   27.4690   32.4960 C   0  0  0  0  0  0  0  0  0  0  0  0
   37.3710   26.5230   32.0060 C   0  0  0  0  0  0  0  0  0  0  0  0
   38.2090   26.8880   30.9940 N   0  0  0  0  0  0  0  0  0  0  0  0
   38.2000   28.1490   30.4730 C   0  0  0  0  0  0  0  0  0  0  0  0
   37.3410   29.0870   30.9630 N   0  0  0  0  0  0  0  0  0  0  0  0
   35.8400   29.5610   32.3050 H   0  0  0  0  0  0  0  0  0  0  0  0
   35.7750   27.3680   33.2720 H   0  0  0  0  0  0  0  0  0  0  0  0
   38.8900   28.3860   29.6660 H   0  0  0  0  0  0  0  0  0  0  0  0
   38.8590   23.3160   35.4040 C   0  0  0  0  0  0  0  0  0  0  0  0
   38.2170   23.5460   36.6200 C   0  0  0  0  0  0  0  0  0  0  0  0
   37.2210   23.9480   36.6930 H   0  0  0  0  0  0  0  0  0  0  0  0
   38.8290   23.2680   37.8320 C   0  0  0  0  0  3  0  0  0  0  0  0
   40.1070   22.7500   37.8420 C   0  0  0  0  0  0  0  0  0  0  0  0
   40.5940   22.5280   38.8010 H   0  0  0  0  0  0  0  0  0  0  0  0
   40.7490   22.5200   36.6270 C   0  0  0  0  0  0  0  0  0  0  0  0
   41.7630   22.1100   36.6150 H   0  0  0  0  0  0  0  0  0  0  0  0
   40.1340   22.7990   35.4400 C   0  0  0  0  0  3  0  0  0  0  0  0
   36.0580   21.9040   31.6000 C   0  0  0  0  0  0  0  0  0  0  0  0
   35.2030   22.4620   30.7070 F   0  0  0  0  0  0  0  0  0  0  0  0
   35.2930   21.0970   32.4290 F   0  0  0  0  0  0  0  0  0  0  0  0
   36.9830   21.1380   30.9040 F   0  0  0  0  0  0  0  0  0  0  0  0
  1  2  1  0  0  0  0
  2  3  2  0  0  0  0
  2  9  1  0  0  0  0
  3 19  1  0  0  0  0
  4  5  2  0  0  0  0
  4  3  1  0  0  0  0
  6  4  1  0  0  0  0
  7  6  1  0  0  0  0
  7  1  1  0  0  0  0
  8  7  2  0  0  0  0
 10 16  1  0  0  0  0
 10 11  1  0  0  0  0
 11 17  1  0  0  0  0
 12 11  2  0  0  0  0
 12  1  1  0  0  0  0
 13 12  1  0  0  0  0
 14 15  1  0  0  0  0
 14 13  2  0  0  0  0
 15 10  2  0  0  0  0
 18 14  1  0  0  0  0
 19 27  2  0  0  0  0
 19 20  1  0  0  0  0
 20 21  1  0  0  0  0
 20 22  2  0  0  0  0
 22 23  1  0  0  0  0
 23 24  1  0  0  0  0
 25 23  2  0  0  0  0
 26 25  1  0  0  0  0
 27 25  1  0  0  0  0
 28  6  1  0  0  0  0
 28 30  1  0  0  0  0
 29 28  1  0  0  0  0
 31 28  1  0  0  0  0
M  END
>  <minimizedAffinity>
-5.75072575

$$$$

 OpenBabel03272505283D

 31 33  0  0  0  0  0  0  0  0999 V2000
   36.1070   28.2410   32.1750 N   0  0  0  0  0  0  0  0  0  0  0  0
   35.6400   28.8080   33.3190 C   0  0  0  0  0  0  0  0  0  0  0  0
   35.5140   30.1820   33.4670 C   0  0  0  0  0  0  0  0  0  0  0  0
   35.8920   30.9790   32.3710 C   0  0  0  0  0  0  0  0  0  0  0  0
   35.7940   32.2260   32.4590 O   0  0  0  0  0  0  0  0  0  0  0  0
   36.3610   30.4070   31.2230 N   0  0  0  0  0  0  0  0  0  0  0  0
   36.4360   29.0740   31.2070 C   0  0  0  0  0  0  0  0  0  0  0  0
   36.8700   28.5870   30.1390 O   0  0  0  0  0  0  0  0  0  0  0  0
   35.3550   28.1760   34.1490 H   0  0  0  0  0  0  0  0  0  0  0  0
   37.3330   24.7590   32.5490 C   0  0  0  0  0  0  0  0  0  0  0  0
   37.2210   26.1520   32.6850 C   0  0  0  0  0  0  0  0  0  0  0  0
   36.2340   26.8560   32.0430 C   0  0  0  0  0  0  0  0  0  0  0  0
   35.3580   26.1600   31.2630 N   0  0  0  0  0  0  0  0  0  0  0  0
   35.4480   24.8060   31.1140 C   0  0  0  0  0  0  0  0  0  0  0  0
   36.4300   24.1100   31.7530 N   0  0  0  0  0  0  0  0  0  0  0  0
   38.0700   24.1450   33.0130 H   0  0  0  0  0  0  0  0  0  0  0  0
   37.9980   26.5210   33.3240 H   0  0  0  0  0  0  0  0  0  0  0  0
   34.7230   24.3010   30.4780 H   0  0  0  0  0  0  0  0  0  0  0  0
   35.0140   30.7970   34.6930 C   0  0  0  0  0  0  0  0  0  0  0  0
   33.6470   30.7100   34.9540 C   0  0  0  0  0  0  0  0  0  0  0  0
   32.9530   30.2130   34.2980 H   0  0  0  0  0  0  0  0  0  0  0  0
   33.0840   31.2650   36.0930 C   0  0  0  0  0  3  0  0  0  0  0  0
   33.8930   31.9230   36.9950 C   0  0  0  0  0  0  0  0  0  0  0  0
   33.4500   32.3630   37.8990 H   0  0  0  0  0  0  0  0  0  0  0  0
   35.2590   32.0110   36.7350 C   0  0  0  0  0  0  0  0  0  0  0  0
   35.9170   32.5290   37.4390 H   0  0  0  0  0  0  0  0  0  0  0  0
   35.8000   31.4600   35.6080 C   0  0  0  0  0  3  0  0  0  0  0  0
   36.7460   31.2350   30.0980 C   0  0  0  0  0  0  0  0  0  0  0  0
   35.7850   32.1620   29.8530 F   0  0  0  0  0  0  0  0  0  0  0  0
   36.9020   30.5090   28.9270 F   0  0  0  0  0  0  0  0  0  0  0  0
   37.9240   31.8970   30.4150 F   0  0  0  0  0  0  0  0  0  0  0  0
  1  2  1  0  0  0  0
  2  3  2  0  0  0  0
  2  9  1  0  0  0  0
  3 19  1  0  0  0  0
  4  5  2  0  0  0  0
  4  3  1  0  0  0  0
  6  4  1  0  0  0  0
  7  6  1  0  0  0  0
  7  1  1  0  0  0  0
  8  7  2  0  0  0  0
 10 11  1  0  0  0  0
 10 16  1  0  0  0  0
 11 17  1  0  0  0  0
 12  1  1  0  0  0  0
 12 11  2  0  0  0  0
 13 12  1  0  0  0  0
 14 13  2  0  0  0  0
 14 15  1  0  0  0  0
 15 10  2  0  0  0  0
 18 14  1  0  0  0  0
 19 20  2  0  0  0  0
 19 27  1  0  0  0  0
 20 22  1  0  0  0  0
 21 20  1  0  0  0  0
 22 23  2  0  0  0  0
 23 24  1  0  0  0  0
 25 23  1  0  0  0  0
 25 26  1  0  0  0  0
 27 25  2  0  0  0  0
 28 31  1  0  0  0  0
 28  6  1  0  0  0  0
 29 28  1  0  0  0  0
 30 28  1  0  0  0  0
M  END
>  <minimizedAffinity>
-5.70588255

$$$$

 OpenBabel03272505283D

 31 33  0  0  0  0  0  0  0  0999 V2000
   37.2360   21.7920   33.0050 N   0  0  0  0  0  0  0  0  0  0  0  0
   37.5500   21.9540   34.3180 C   0  0  0  0  0  0  0  0  0  0  0  0
   38.0110   23.1610   34.8260 C   0  0  0  0  0  0  0  0  0  0  0  0
   38.1430   24.2260   33.9170 C   0  0  0  0  0  0  0  0  0  0  0  0
   38.5550   25.3360   34.3320 O   0  0  0  0  0  0  0  0  0  0  0  0
   37.8270   24.0620   32.5990 N   0  0  0  0  0  0  0  0  0  0  0  0
   37.3950   22.8510   32.2360 C   0  0  0  0  0  0  0  0  0  0  0  0
   37.1170   22.7380   31.0210 O   0  0  0  0  0  0  0  0  0  0  0  0
   37.4410   21.1210   34.9990 H   0  0  0  0  0  0  0  0  0  0  0  0
   35.0260   18.9390   32.1420 C   0  0  0  0  0  0  0  0  0  0  0  0
   35.4750   20.1690   32.6520 C   0  0  0  0  0  0  0  0  0  0  0  0
   36.7780   20.5690   32.5070 C   0  0  0  0  0  0  0  0  0  0  0  0
   37.6340   19.7350   31.8510 N   0  0  0  0  0  0  0  0  0  0  0  0
   37.2220   18.5350   31.3480 C   0  0  0  0  0  0  0  0  0  0  0  0
   35.9250   18.1400   31.4920 N   0  0  0  0  0  0  0  0  0  0  0  0
   34.0330   18.5600   32.2140 H   0  0  0  0  0  0  0  0  0  0  0  0
   34.6690   20.6780   33.1410 H   0  0  0  0  0  0  0  0  0  0  0  0
   37.9460   17.9080   30.8330 H   0  0  0  0  0  0  0  0  0  0  0  0
   38.3500   23.3410   36.2340 C   0  0  0  0  0  0  0  0  0  0  0  0
   39.5240   22.7530   36.7020 C   0  0  0  0  0  0  0  0  0  0  0  0
   40.1840   22.1780   36.0750 H   0  0  0  0  0  0  0  0  0  0  0  0
   39.9240   22.8720   38.0240 C   0  0  0  0  0  3  0  0  0  0  0  0
   39.1430   23.5900   38.9050 C   0  0  0  0  0  0  0  0  0  0  0  0
   39.4580   23.6860   39.9530 H   0  0  0  0  0  0  0  0  0  0  0  0
   37.9700   24.1780   38.4390 C   0  0  0  0  0  0  0  0  0  0  0  0
   37.3370   24.7510   39.1230 H   0  0  0  0  0  0  0  0  0  0  0  0
   37.5870   24.0520   37.1330 C   0  0  0  0  0  3  0  0  0  0  0  0
   37.9630   25.1650   31.6710 C   0  0  0  0  0  0  0  0  0  0  0  0
   37.8570   26.3450   32.3320 F   0  0  0  0  0  0  0  0  0  0  0  0
   36.9780   25.1690   30.6950 F   0  0  0  0  0  0  0  0  0  0  0  0
   39.2210   25.1020   31.0850 F   0  0  0  0  0  0  0  0  0  0  0  0
  1  2  1  0  0  0  0
  2  3  2  0  0  0  0
  2  9  1  0  0  0  0
  3 19  1  0  0  0  0
  4  5  2  0  0  0  0
  4  3  1  0  0  0  0
  6  4  1  0  0  0  0
  7  6  1  0  0  0  0
  7  1  1  0  0  0  0
  8  7  2  0  0  0  0
 10 16  1  0  0  0  0
 10 11  1  0  0  0  0
 11 17  1  0  0  0  0
 12 11  2  0  0  0  0
 12  1  1  0  0  0  0
 13 12  1  0  0  0  0
 14 15  1  0  0  0  0
 14 13  2  0  0  0  0
 15 10  2  0  0  0  0
 18 14  1  0  0  0  0
 19 20  2  0  0  0  0
 19 27  1  0  0  0  0
 20 22  1  0  0  0  0
 21 20  1  0  0  0  0
 22 23  2  0  0  0  0
 23 24  1  0  0  0  0
 25 23  1  0  0  0  0
 25 26  1  0  0  0  0
 27 25  2  0  0  0  0
 28 29  1  0  0  0  0
 28  6  1  0  0  0  0
 30 28  1  0  0  0  0
 31 28  1  0  0  0  0
M  END
>  <minimizedAffinity>
-5.69950342

$$$$

 OpenBabel03272505283D

 31 33  0  0  0  0  0  0  0  0999 V2000
   37.5170   22.8300   32.4900 N   0  0  0  0  0  0  0  0  0  0  0  0
   37.8620   22.6700   33.7960 C   0  0  0  0  0  0  0  0  0  0  0  0
   38.1310   23.7480   34.6280 C   0  0  0  0  0  0  0  0  0  0  0  0
   38.0330   25.0320   34.0610 C   0  0  0  0  0  0  0  0  0  0  0  0
   38.2670   26.0360   34.7760 O   0  0  0  0  0  0  0  0  0  0  0  0
   37.6870   25.1900   32.7500 N   0  0  0  0  0  0  0  0  0  0  0  0
   37.4540   24.0740   32.0550 C   0  0  0  0  0  0  0  0  0  0  0  0
   37.1410   24.2580   30.8570 O   0  0  0  0  0  0  0  0  0  0  0  0
   37.9310   21.6740   34.2100 H   0  0  0  0  0  0  0  0  0  0  0  0
   35.7960   19.9820   30.8480 C   0  0  0  0  0  0  0  0  0  0  0  0
   36.0500   21.0790   31.6890 C   0  0  0  0  0  0  0  0  0  0  0  0
   37.2540   21.7350   31.6630 C   0  0  0  0  0  0  0  0  0  0  0  0
   38.2050   21.2910   30.7930 N   0  0  0  0  0  0  0  0  0  0  0  0
   37.9820   20.2270   29.9670 C   0  0  0  0  0  0  0  0  0  0  0  0
   36.7850   19.5770   29.9950 N   0  0  0  0  0  0  0  0  0  0  0  0
   34.8890   19.4230   30.8100 H   0  0  0  0  0  0  0  0  0  0  0  0
   35.1960   21.2730   32.3050 H   0  0  0  0  0  0  0  0  0  0  0  0
   38.7760   19.9140   29.2930 H   0  0  0  0  0  0  0  0  0  0  0  0
   38.5020   23.5830   36.0300 C   0  0  0  0  0  0  0  0  0  0  0  0
   37.5890   24.0010   36.9980 C   0  0  0  0  0  0  0  0  0  0  0  0
   36.6330   24.4330   36.7570 H   0  0  0  0  0  0  0  0  0  0  0  0
   37.8570   23.8830   38.3530 C   0  0  0  0  0  3  0  0  0  0  0  0
   39.0570   23.3400   38.7610 C   0  0  0  0  0  0  0  0  0  0  0  0
   39.2710   23.2450   39.8340 H   0  0  0  0  0  0  0  0  0  0  0  0
   39.9700   22.9230   37.7950 C   0  0  0  0  0  0  0  0  0  0  0  0
   40.9270   22.4900   38.0990 H   0  0  0  0  0  0  0  0  0  0  0  0
   39.6930   23.0450   36.4620 C   0  0  0  0  0  3  0  0  0  0  0  0
   37.5850   26.5160   32.1750 C   0  0  0  0  0  0  0  0  0  0  0  0
   37.5420   26.4330   30.8210 F   0  0  0  0  0  0  0  0  0  0  0  0
   38.6710   27.3200   32.4870 F   0  0  0  0  0  0  0  0  0  0  0  0
   36.4070   27.1030   32.6170 F   0  0  0  0  0  0  0  0  0  0  0  0
  1  2  1  0  0  0  0
  2  9  1  0  0  0  0
  2  3  2  0  0  0  0
  3 19  1  0  0  0  0
  4  3  1  0  0  0  0
  4  5  2  0  0  0  0
  6  4  1  0  0  0  0
  7  1  1  0  0  0  0
  7  6  1  0  0  0  0
  8  7  2  0  0  0  0
 10 11  1  0  0  0  0
 11 17  1  0  0  0  0
 12 11  2  0  0  0  0
 12  1  1  0  0  0  0
 13 12  1  0  0  0  0
 14 15  1  0  0  0  0
 14 13  2  0  0  0  0
 15 10  2  0  0  0  0
 16 10  1  0  0  0  0
 18 14  1  0  0  0  0
 19 27  2  0  0  0  0
 19 20  1  0  0  0  0
 20 22  2  0  0  0  0
 21 20  1  0  0  0  0
 22 23  1  0  0  0  0
 23 24  1  0  0  0  0
 25 26  1  0  0  0  0
 25 23  2  0  0  0  0
 27 25  1  0  0  0  0
 28 30  1  0  0  0  0
 28 31  1  0  0  0  0
 28  6  1  0  0  0  0
 29 28  1  0  0  0  0
M  END
>  <minimizedAffinity>
-5.68232727

$$$$

 OpenBabel03272505283D

 31 33  0  0  0  0  0  0  0  0999 V2000
   38.0430   23.7240   34.6510 N   0  0  0  0  0  0  0  0  0  0  0  0
   37.8210   22.6560   33.8390 C   0  0  0  0  0  0  0  0  0  0  0  0
   37.4740   22.8010   32.5020 C   0  0  0  0  0  0  0  0  0  0  0  0
   37.3610   24.1150   32.0120 C   0  0  0  0  0  0  0  0  0  0  0  0
   37.0510   24.2950   30.8100 O   0  0  0  0  0  0  0  0  0  0  0  0
   37.5850   25.1860   32.8300 N   0  0  0  0  0  0  0  0  0  0  0  0
   37.9110   24.9120   34.0950 C   0  0  0  0  0  0  0  0  0  0  0  0
   38.1080   25.9180   34.8140 O   0  0  0  0  0  0  0  0  0  0  0  0
   37.9130   21.6550   34.2370 H   0  0  0  0  0  0  0  0  0  0  0  0
   39.9380   22.9040   37.7340 C   0  0  0  0  0  0  0  0  0  0  0  0
   39.6030   23.0580   36.3790 C   0  0  0  0  0  0  0  0  0  0  0  0
   38.3870   23.5610   35.9960 C   0  0  0  0  0  0  0  0  0  0  0  0
   37.5040   23.9120   36.9740 N   0  0  0  0  0  0  0  0  0  0  0  0
   37.8060   23.7710   38.2970 C   0  0  0  0  0  0  0  0  0  0  0  0
   39.0160   23.2710   38.6750 N   0  0  0  0  0  0  0  0  0  0  0  0
   40.8590   22.5220   38.1090 H   0  0  0  0  0  0  0  0  0  0  0  0
   40.4120   22.7210   35.7620 H   0  0  0  0  0  0  0  0  0  0  0  0
   37.0640   24.0660   39.0370 H   0  0  0  0  0  0  0  0  0  0  0  0
   37.2330   21.6600   31.6250 C   0  0  0  0  0  0  0  0  0  0  0  0
   36.0050   21.0080   31.7280 C   0  0  0  0  0  0  0  0  0  0  0  0
   35.2350   21.3080   32.4180 H   0  0  0  0  0  0  0  0  0  0  0  0
   35.6900   19.9150   30.9360 C   0  0  0  0  0  3  0  0  0  0  0  0
   36.6130   19.4550   30.0200 C   0  0  0  0  0  0  0  0  0  0  0  0
   36.3660   18.5900   29.3900 H   0  0  0  0  0  0  0  0  0  0  0  0
   37.8400   20.1060   29.9160 C   0  0  0  0  0  0  0  0  0  0  0  0
   38.5850   19.7550   29.1960 H   0  0  0  0  0  0  0  0  0  0  0  0
   38.1370   21.1810   30.7050 C   0  0  0  0  0  3  0  0  0  0  0  0
   37.4690   26.5350   32.3160 C   0  0  0  0  0  0  0  0  0  0  0  0
   37.3050   26.5070   30.9700 F   0  0  0  0  0  0  0  0  0  0  0  0
   38.5990   27.3010   32.5620 F   0  0  0  0  0  0  0  0  0  0  0  0
   36.3510   27.1320   32.8820 F   0  0  0  0  0  0  0  0  0  0  0  0
  1 12  1  0  0  0  0
  2  9  1  0  0  0  0
  2  1  1  0  0  0  0
  3  2  2  0  0  0  0
  4  3  1  0  0  0  0
  4  6  1  0  0  0  0
  5  4  2  0  0  0  0
  6  7  1  0  0  0  0
  7  1  1  0  0  0  0
  7  8  2  0  0  0  0
 10 16  1  0  0  0  0
 10 15  1  0  0  0  0
 11 10  2  0  0  0  0
 12 11  1  0  0  0  0
 12 13  2  0  0  0  0
 13 14  1  0  0  0  0
 14 15  2  0  0  0  0
 14 18  1  0  0  0  0
 17 11  1  0  0  0  0
 19 20  1  0  0  0  0
 19  3  1  0  0  0  0
 20 21  1  0  0  0  0
 22 20  2  0  0  0  0
 23 22  1  0  0  0  0
 24 23  1  0  0  0  0
 25 23  2  0  0  0  0
 25 27  1  0  0  0  0
 26 25  1  0  0  0  0
 27 19  2  0  0  0  0
 28 30  1  0  0  0  0
 28  6  1  0  0  0  0
 28 31  1  0  0  0  0
 29 28  1  0  0  0  0
M  END
>  <minimizedAffinity>
-5.6415658

$$$$

 OpenBabel03272505283D

 31 33  0  0  0  0  0  0  0  0999 V2000
   37.3620   27.5220   33.5930 N   0  0  0  0  0  0  0  0  0  0  0  0
   36.6100   28.2680   34.4460 C   0  0  0  0  0  0  0  0  0  0  0  0
   35.8990   29.3830   34.0240 C   0  0  0  0  0  0  0  0  0  0  0  0
   35.9860   29.7170   32.6600 C   0  0  0  0  0  0  0  0  0  0  0  0
   35.3600   30.7160   32.2330 O   0  0  0  0  0  0  0  0  0  0  0  0
   36.7420   28.9660   31.8060 N   0  0  0  0  0  0  0  0  0  0  0  0
   37.3790   27.9190   32.3360 C   0  0  0  0  0  0  0  0  0  0  0  0
   38.0620   27.2550   31.5230 O   0  0  0  0  0  0  0  0  0  0  0  0
   36.5570   27.9940   35.4900 H   0  0  0  0  0  0  0  0  0  0  0  0
   40.0190   25.3870   35.0610 C   0  0  0  0  0  0  0  0  0  0  0  0
   39.3130   26.5180   34.6170 C   0  0  0  0  0  0  0  0  0  0  0  0
   38.0770   26.4050   34.0340 C   0  0  0  0  0  0  0  0  0  0  0  0
   37.5470   25.1560   33.8970 N   0  0  0  0  0  0  0  0  0  0  0  0
   38.2140   24.0430   34.3200 C   0  0  0  0  0  0  0  0  0  0  0  0
   39.4420   24.1580   34.8980 N   0  0  0  0  0  0  0  0  0  0  0  0
   40.9800   25.3940   35.5210 H   0  0  0  0  0  0  0  0  0  0  0  0
   39.8890   27.4030   34.7980 H   0  0  0  0  0  0  0  0  0  0  0  0
   37.7450   23.0710   34.1850 H   0  0  0  0  0  0  0  0  0  0  0  0
   35.0900   30.1890   34.9330 C   0  0  0  0  0  0  0  0  0  0  0  0
   35.7410   31.1470   35.7080 C   0  0  0  0  0  0  0  0  0  0  0  0
   36.8030   31.3170   35.6640 H   0  0  0  0  0  0  0  0  0  0  0  0
   35.0530   31.9560   36.5990 C   0  0  0  0  0  3  0  0  0  0  0  0
   33.6870   31.8140   36.7270 C   0  0  0  0  0  0  0  0  0  0  0  0
   33.1400   32.4540   37.4310 H   0  0  0  0  0  0  0  0  0  0  0  0
   33.0360   30.8570   35.9530 C   0  0  0  0  0  0  0  0  0  0  0  0
   31.9530   30.7290   36.0400 H   0  0  0  0  0  0  0  0  0  0  0  0
   33.7270   30.0650   35.0790 C   0  0  0  0  0  3  0  0  0  0  0  0
   36.8250   29.3150   30.4020 C   0  0  0  0  0  0  0  0  0  0  0  0
   38.0900   29.6930   30.0910 F   0  0  0  0  0  0  0  0  0  0  0  0
   35.9990   30.3760   30.0650 F   0  0  0  0  0  0  0  0  0  0  0  0
   36.5030   28.1950   29.6460 F   0  0  0  0  0  0  0  0  0  0  0  0
  1 12  1  0  0  0  0
  1  2  1  0  0  0  0
  2  9  1  0  0  0  0
  3  2  2  0  0  0  0
  3 19  1  0  0  0  0
  4  3  1  0  0  0  0
  5  4  2  0  0  0  0
  6  7  1  0  0  0  0
  6  4  1  0  0  0  0
  7  1  1  0  0  0  0
  8  7  2  0  0  0  0
 10 16  1  0  0  0  0
 11 17  1  0  0  0  0
 11 10  2  0  0  0  0
 12 11  1  0  0  0  0
 13 12  2  0  0  0  0
 13 14  1  0  0  0  0
 14 15  2  0  0  0  0
 15 10  1  0  0  0  0
 18 14  1  0  0  0  0
 19 27  2  0  0  0  0
 19 20  1  0  0  0  0
 20 22  2  0  0  0  0
 21 20  1  0  0  0  0
 22 23  1  0  0  0  0
 23 24  1  0  0  0  0
 25 26  1  0  0  0  0
 25 23  2  0  0  0  0
 27 25  1  0  0  0  0
 28  6  1  0  0  0  0
 29 28  1  0  0  0  0
 30 28  1  0  0  0  0
 31 28  1  0  0  0  0
M  END
>  <minimizedAffinity>
-5.63830853

$$$$

 OpenBabel03272505283D

 31 33  0  0  0  0  0  0  0  0999 V2000
   36.9580   26.4810   32.5890 N   0  0  0  0  0  0  0  0  0  0  0  0
   36.7350   25.2840   31.9820 C   0  0  0  0  0  0  0  0  0  0  0  0
   37.1400   24.0820   32.5460 C   0  0  0  0  0  0  0  0  0  0  0  0
   37.7980   24.1490   33.7880 C   0  0  0  0  0  0  0  0  0  0  0  0
   38.1800   23.0880   34.3360 O   0  0  0  0  0  0  0  0  0  0  0  0
   38.0190   25.3520   34.3950 N   0  0  0  0  0  0  0  0  0  0  0  0
   37.5820   26.4360   33.7490 C   0  0  0  0  0  0  0  0  0  0  0  0
   37.8040   27.5200   34.3350 O   0  0  0  0  0  0  0  0  0  0  0  0
   36.2280   25.2560   31.0280 H   0  0  0  0  0  0  0  0  0  0  0  0
   36.7950   29.4490   30.3680 C   0  0  0  0  0  0  0  0  0  0  0  0
   37.2190   28.2430   30.9480 C   0  0  0  0  0  0  0  0  0  0  0  0
   36.5490   27.6840   32.0060 C   0  0  0  0  0  0  0  0  0  0  0  0
   35.4510   28.3360   32.4820 N   0  0  0  0  0  0  0  0  0  0  0  0
   35.0200   29.5100   31.9360 C   0  0  0  0  0  0  0  0  0  0  0  0
   35.6880   30.0630   30.8850 N   0  0  0  0  0  0  0  0  0  0  0  0
   37.2610   29.9440   29.5470 H   0  0  0  0  0  0  0  0  0  0  0  0
   38.0980   27.8870   30.4500 H   0  0  0  0  0  0  0  0  0  0  0  0
   34.1380   29.9890   32.3560 H   0  0  0  0  0  0  0  0  0  0  0  0
   36.9050   22.7940   31.9000 C   0  0  0  0  0  0  0  0  0  0  0  0
   35.6540   22.2000   32.0680 C   0  0  0  0  0  0  0  0  0  0  0  0
   34.8640   22.6470   32.6460 H   0  0  0  0  0  0  0  0  0  0  0  0
   35.3440   20.9780   31.4920 C   0  0  0  0  0  3  0  0  0  0  0  0
   36.2930   20.3270   30.7320 C   0  0  0  0  0  0  0  0  0  0  0  0
   36.0490   19.3590   30.2740 H   0  0  0  0  0  0  0  0  0  0  0  0
   37.5430   20.9200   30.5650 C   0  0  0  0  0  0  0  0  0  0  0  0
   38.3080   20.4180   29.9660 H   0  0  0  0  0  0  0  0  0  0  0  0
   37.8360   22.1240   31.1390 C   0  0  0  0  0  3  0  0  0  0  0  0
   38.6950   25.4120   35.6750 C   0  0  0  0  0  0  0  0  0  0  0  0
   38.9530   26.7030   36.0040 F   0  0  0  0  0  0  0  0  0  0  0  0
   39.9150   24.7540   35.6680 F   0  0  0  0  0  0  0  0  0  0  0  0
   37.8610   24.8700   36.6440 F   0  0  0  0  0  0  0  0  0  0  0  0
  1  7  1  0  0  0  0
  2  3  2  0  0  0  0
  2  1  1  0  0  0  0
  3  4  1  0  0  0  0
  4  5  2  0  0  0  0
  4  6  1  0  0  0  0
  6 28  1  0  0  0  0
  7  8  2  0  0  0  0
  7  6  1  0  0  0  0
  9  2  1  0  0  0  0
 10 15  2  0  0  0  0
 10 11  1  0  0  0  0
 11 12  2  0  0  0  0
 12 13  1  0  0  0  0
 12  1  1  0  0  0  0
 14 18  1  0  0  0  0
 14 13  2  0  0  0  0
 15 14  1  0  0  0  0
 16 10  1  0  0  0  0
 17 11  1  0  0  0  0
 19 20  1  0  0  0  0
 19  3  1  0  0  0  0
 20 21  1  0  0  0  0
 22 20  2  0  0  0  0
 23 22  1  0  0  0  0
 24 23  1  0  0  0  0
 25 23  2  0  0  0  0
 25 27  1  0  0  0  0
 26 25  1  0  0  0  0
 27 19  2  0  0  0  0
 28 29  1  0  0  0  0
 28 31  1  0  0  0  0
 30 28  1  0  0  0  0
M  END
>  <minimizedAffinity>
-5.57326603

$$$$
