
 OpenBabel03272506033D

 46 49  0  0  1  0  0  0  0  0999 V2000
   37.9110   26.0920   33.1150 C   0  0  2  0  0  0  0  0  0  0  0  0
   39.0040   25.3190   33.6980 C   0  0  0  0  0  0  0  0  0  0  0  0
   38.8760   25.1820   35.2480 C   0  0  2  0  0  0  0  0  0  0  0  0
   38.8370   26.4480   35.9350 C   0  0  0  0  0  0  0  0  0  0  0  0
   38.0140   27.5170   35.2140 C   0  0  0  0  0  0  0  0  0  0  0  0
   37.1370   26.9030   34.1640 C   0  0  0  0  0  0  0  0  0  0  0  0
   38.3270   26.9000   32.4410 H   0  0  0  0  0  0  0  0  0  0  0  0
   39.2270   24.3140   33.4080 H   0  0  0  0  0  0  0  0  0  0  0  0
   39.9930   25.8790   33.6000 H   0  0  0  0  0  0  0  0  0  0  0  0
   37.9970   24.5410   35.4470 H   0  0  0  0  0  0  0  0  0  0  0  0
   38.4800   26.2970   36.9750 H   0  0  0  0  0  0  0  0  0  0  0  0
   39.8430   26.8960   36.0420 H   0  0  0  0  0  0  0  0  0  0  0  0
   37.3390   27.9530   35.9690 H   0  0  0  0  0  0  0  0  0  0  0  0
   38.6160   28.3310   34.8060 H   0  0  0  0  0  0  0  0  0  0  0  0
   36.3900   26.2430   34.6600 H   0  0  0  0  0  0  0  0  0  0  0  0
   36.6040   27.7110   33.6490 H   0  0  0  0  0  0  0  0  0  0  0  0
   38.4390   22.8910   37.0580 Cl  0  0  0  0  0  0  0  0  0  0  0  0
   40.0290   23.3460   36.4870 C   0  0  0  0  0  0  0  0  0  0  0  0
   40.1010   24.4020   35.6130 C   0  0  0  0  0  0  0  0  0  0  0  0
   41.3850   24.6710   35.1870 C   0  0  0  0  0  0  0  0  0  0  0  0
   42.4930   23.9550   35.5970 C   0  0  0  0  0  0  0  0  0  0  0  0
   42.3320   22.8970   36.4900 C   0  0  0  0  0  0  0  0  0  0  0  0
   41.0630   22.5870   36.9450 C   0  0  0  0  0  0  0  0  0  0  0  0
   41.5320   25.4860   34.4900 H   0  0  0  0  0  0  0  0  0  0  0  0
   43.4620   24.2390   35.2110 H   0  0  0  0  0  0  0  0  0  0  0  0
   43.1920   22.3280   36.8190 H   0  0  0  0  0  0  0  0  0  0  0  0
   40.8800   21.5030   37.8510 N   0  0  0  0  0  0  0  0  0  0  0  0
   39.9130   21.1570   38.0520 H   0  0  0  0  0  0  0  0  0  0  0  0
   41.7130   21.0670   38.3040 H   0  0  0  0  0  0  0  0  0  0  0  0
   36.9200   25.3350   32.3570 C   0  0  0  0  0  0  0  0  0  0  0  0
   36.0270   26.1210   31.6410 C   0  0  0  0  0  0  0  0  0  0  0  0
   35.0610   25.4960   30.8610 C   0  0  0  0  0  0  0  0  0  0  0  0
   35.0340   24.1070   30.8350 N   0  0  0  0  0  0  0  0  0  0  0  0
   35.9140   23.3670   31.5420 C   0  0  0  0  0  0  0  0  0  0  0  0
   36.8230   24.0200   32.2750 N   0  0  0  0  0  0  0  0  0  0  0  0
   35.8070   27.1670   31.4750 H   0  0  0  0  0  0  0  0  0  0  0  0
   34.2770   25.8580   30.2320 H   0  0  0  0  0  0  0  0  0  0  0  0
   35.8720   21.9090   31.5040 C   0  0  0  0  0  0  0  0  0  0  0  0
   34.8560   21.2580   32.1700 C   0  0  0  0  0  0  0  0  0  0  0  0
   34.0930   21.7580   32.7150 H   0  0  0  0  0  0  0  0  0  0  0  0
   34.8380   19.8730   32.1190 C   0  0  0  0  0  3  0  0  0  0  0  0
   35.8150   19.1900   31.4190 C   0  0  0  0  0  0  0  0  0  0  0  0
   35.8480   18.1000   31.3470 H   0  0  0  0  0  0  0  0  0  0  0  0
   36.8160   19.8980   30.7670 C   0  0  0  0  0  0  0  0  0  0  0  0
   37.6100   19.4020   30.2000 H   0  0  0  0  0  0  0  0  0  0  0  0
   36.8850   21.2940   30.7830 C   0  0  0  0  0  3  0  0  0  0  0  0
  1  7  1  6  0  0  0
  1  2  1  0  0  0  0
  1  6  1  0  0  0  0
  2  3  1  0  0  0  0
  3 10  1  1  0  0  0
  3 19  1  0  0  0  0
  3  4  1  0  0  0  0
  4 12  1  0  0  0  0
  4 11  1  0  0  0  0
  5  4  1  0  0  0  0
  5 13  1  0  0  0  0
  6 15  1  0  0  0  0
  6  5  1  0  0  0  0
  8  2  1  0  0  0  0
  9  2  1  0  0  0  0
 14  5  1  0  0  0  0
 16  6  1  0  0  0  0
 18 23  1  0  0  0  0
 18 17  1  0  0  0  0
 19 18  2  0  0  0  0
 20 21  2  0  0  0  0
 20 19  1  0  0  0  0
 21 22  1  0  0  0  0
 22 26  1  0  0  0  0
 22 23  2  0  0  0  0
 23 27  1  0  0  0  0
 24 20  1  0  0  0  0
 25 21  1  0  0  0  0
 27 28  1  0  0  0  0
 27 29  1  0  0  0  0
 30  1  1  0  0  0  0
 31 30  2  0  0  0  0
 32 31  1  0  0  0  0
 33 32  2  0  0  0  0
 33 34  1  0  0  0  0
 34 35  2  0  0  0  0
 35 30  1  0  0  0  0
 36 31  1  0  0  0  0
 37 32  1  0  0  0  0
 38 34  1  0  0  0  0
 38 39  1  0  0  0  0
 39 40  1  0  0  0  0
 41 39  2  0  0  0  0
 42 41  1  0  0  0  0
 43 42  1  0  0  0  0
 44 46  1  0  0  0  0
 44 42  2  0  0  0  0
 45 44  1  0  0  0  0
 46 38  2  0  0  0  0
M  END
>  <minimizedAffinity>
-7.40330791

$$$$

 OpenBabel03272506033D

 46 49  0  0  1  0  0  0  0  0999 V2000
   36.8820   28.4320   33.4020 C   0  0  2  0  0  0  0  0  0  0  0  0
   35.9890   29.0100   34.4010 C   0  0  0  0  0  0  0  0  0  0  0  0
   34.6000   29.4010   33.8060 C   0  0  2  0  0  0  0  0  0  0  0  0
   34.6850   30.3410   32.7170 C   0  0  0  0  0  0  0  0  0  0  0  0
   35.8540   30.0790   31.7660 C   0  0  0  0  0  0  0  0  0  0  0  0
   36.4120   28.7020   31.9650 C   0  0  0  0  0  0  0  0  0  0  0  0
   37.8850   28.9540   33.4310 H   0  0  0  0  0  0  0  0  0  0  0  0
   35.7070   28.4990   35.2970 H   0  0  0  0  0  0  0  0  0  0  0  0
   36.3780   30.0240   34.7530 H   0  0  0  0  0  0  0  0  0  0  0  0
   34.0840   28.4590   33.5410 H   0  0  0  0  0  0  0  0  0  0  0  0
   33.7190   30.3680   32.1730 H   0  0  0  0  0  0  0  0  0  0  0  0
   34.8410   31.3770   33.0720 H   0  0  0  0  0  0  0  0  0  0  0  0
   35.4360   30.1030   30.7450 H   0  0  0  0  0  0  0  0  0  0  0  0
   36.6360   30.8390   31.8150 H   0  0  0  0  0  0  0  0  0  0  0  0
   35.6350   27.9550   31.6860 H   0  0  0  0  0  0  0  0  0  0  0  0
   37.2710   28.5820   31.2940 H   0  0  0  0  0  0  0  0  0  0  0  0
   36.0060   31.6130   35.1660 Cl  0  0  0  0  0  0  0  0  0  0  0  0
   34.4680   30.9940   35.7240 C   0  0  0  0  0  0  0  0  0  0  0  0
   33.8900   29.9940   34.9840 C   0  0  0  0  0  0  0  0  0  0  0  0
   32.6660   29.5890   35.4730 C   0  0  0  0  0  0  0  0  0  0  0  0
   32.0750   30.1300   36.5990 C   0  0  0  0  0  0  0  0  0  0  0  0
   32.7320   31.1430   37.2960 C   0  0  0  0  0  0  0  0  0  0  0  0
   33.9620   31.5850   36.8420 C   0  0  0  0  0  0  0  0  0  0  0  0
   32.1370   28.8060   34.9450 H   0  0  0  0  0  0  0  0  0  0  0  0
   31.1130   29.7490   36.9100 H   0  0  0  0  0  0  0  0  0  0  0  0
   32.2800   31.5760   38.1790 H   0  0  0  0  0  0  0  0  0  0  0  0
   34.6430   32.6250   37.5380 N   0  0  0  0  0  0  0  0  0  0  0  0
   35.4760   33.0790   37.0990 H   0  0  0  0  0  0  0  0  0  0  0  0
   34.3010   32.9220   38.4790 H   0  0  0  0  0  0  0  0  0  0  0  0
   37.1160   26.9950   33.5010 C   0  0  0  0  0  0  0  0  0  0  0  0
   36.8490   26.2910   32.3360 C   0  0  0  0  0  0  0  0  0  0  0  0
   37.0680   24.9180   32.3170 C   0  0  0  0  0  0  0  0  0  0  0  0
   37.5470   24.3130   33.4720 N   0  0  0  0  0  0  0  0  0  0  0  0
   37.7980   25.0220   34.5920 C   0  0  0  0  0  0  0  0  0  0  0  0
   37.5700   26.3400   34.5550 N   0  0  0  0  0  0  0  0  0  0  0  0
   36.4830   26.4740   31.3340 H   0  0  0  0  0  0  0  0  0  0  0  0
   36.9460   24.1640   31.5690 H   0  0  0  0  0  0  0  0  0  0  0  0
   38.3020   24.3710   35.7980 C   0  0  0  0  0  0  0  0  0  0  0  0
   39.3620   23.4970   35.6840 C   0  0  0  0  0  0  0  0  0  0  0  0
   39.8410   23.2670   34.7630 H   0  0  0  0  0  0  0  0  0  0  0  0
   39.8220   22.8920   36.8430 C   0  0  0  0  0  3  0  0  0  0  0  0
   39.2230   23.1680   38.0580 C   0  0  0  0  0  0  0  0  0  0  0  0
   39.5470   22.7190   39.0000 H   0  0  0  0  0  0  0  0  0  0  0  0
   38.1570   24.0570   38.1120 C   0  0  0  0  0  0  0  0  0  0  0  0
   37.6520   24.3080   39.0500 H   0  0  0  0  0  0  0  0  0  0  0  0
   37.6510   24.6980   36.9780 C   0  0  0  0  0  3  0  0  0  0  0  0
  1  7  1  1  0  0  0
  1 30  1  0  0  0  0
  1  2  1  0  0  0  0
  2  9  1  0  0  0  0
  2  8  1  0  0  0  0
  3 10  1  6  0  0  0
  3  2  1  0  0  0  0
  3 19  1  0  0  0  0
  4 12  1  0  0  0  0
  4  3  1  0  0  0  0
  5 14  1  0  0  0  0
  5  6  1  0  0  0  0
  5  4  1  0  0  0  0
  6  1  1  0  0  0  0
 11  4  1  0  0  0  0
 13  5  1  0  0  0  0
 15  6  1  0  0  0  0
 16  6  1  0  0  0  0
 17 18  1  0  0  0  0
 18 23  1  0  0  0  0
 19 20  1  0  0  0  0
 19 18  2  0  0  0  0
 20 21  2  0  0  0  0
 21 25  1  0  0  0  0
 21 22  1  0  0  0  0
 22 26  1  0  0  0  0
 23 22  2  0  0  0  0
 23 27  1  0  0  0  0
 24 20  1  0  0  0  0
 27 29  1  0  0  0  0
 28 27  1  0  0  0  0
 30 35  1  0  0  0  0
 31 30  2  0  0  0  0
 32 31  1  0  0  0  0
 32 33  2  0  0  0  0
 33 34  1  0  0  0  0
 34 38  1  0  0  0  0
 35 34  2  0  0  0  0
 36 31  1  0  0  0  0
 37 32  1  0  0  0  0
 38 46  1  0  0  0  0
 39 38  2  0  0  0  0
 39 41  1  0  0  0  0
 40 39  1  0  0  0  0
 41 42  2  0  0  0  0
 42 44  1  0  0  0  0
 42 43  1  0  0  0  0
 44 45  1  0  0  0  0
 46 44  2  0  0  0  0
M  END
>  <minimizedAffinity>
-7.16484499

$$$$

 OpenBabel03272506033D

 46 49  0  0  1  0  0  0  0  0999 V2000
   37.2180   27.8410   32.8180 C   0  0  2  0  0  0  0  0  0  0  0  0
   36.6630   28.7100   33.8520 C   0  0  0  0  0  0  0  0  0  0  0  0
   35.2040   29.1630   33.5300 C   0  0  2  0  0  0  0  0  0  0  0  0
   35.0830   29.8630   32.2760 C   0  0  0  0  0  0  0  0  0  0  0  0
   35.9420   29.2740   31.1550 C   0  0  0  0  0  0  0  0  0  0  0  0
   36.4180   27.8970   31.5090 C   0  0  0  0  0  0  0  0  0  0  0  0
   38.2340   28.2220   32.4990 H   0  0  0  0  0  0  0  0  0  0  0  0
   36.5800   28.4180   34.8770 H   0  0  0  0  0  0  0  0  0  0  0  0
   37.2110   29.7110   33.8760 H   0  0  0  0  0  0  0  0  0  0  0  0
   34.5610   28.2660   33.6020 H   0  0  0  0  0  0  0  0  0  0  0  0
   34.0150   29.9160   31.9810 H   0  0  0  0  0  0  0  0  0  0  0  0
   35.4100   30.9170   32.3530 H   0  0  0  0  0  0  0  0  0  0  0  0
   35.2790   29.1610   30.2800 H   0  0  0  0  0  0  0  0  0  0  0  0
   36.7700   29.9190   30.8550 H   0  0  0  0  0  0  0  0  0  0  0  0
   35.5360   27.2210   31.5880 H   0  0  0  0  0  0  0  0  0  0  0  0
   37.0620   27.5400   30.6970 H   0  0  0  0  0  0  0  0  0  0  0  0
   32.3860   29.1180   34.4110 Cl  0  0  0  0  0  0  0  0  0  0  0  0
   33.5850   30.1560   35.1510 C   0  0  0  0  0  0  0  0  0  0  0  0
   34.8720   30.0560   34.6860 C   0  0  0  0  0  0  0  0  0  0  0  0
   35.7570   30.8820   35.3460 C   0  0  0  0  0  0  0  0  0  0  0  0
   35.3900   31.7310   36.3730 C   0  0  0  0  0  0  0  0  0  0  0  0
   34.0590   31.7730   36.7830 C   0  0  0  0  0  0  0  0  0  0  0  0
   33.1340   30.9610   36.1520 C   0  0  0  0  0  0  0  0  0  0  0  0
   36.7960   30.8620   35.0460 H   0  0  0  0  0  0  0  0  0  0  0  0
   36.1530   32.3440   36.8310 H   0  0  0  0  0  0  0  0  0  0  0  0
   33.7590   32.4340   37.5860 H   0  0  0  0  0  0  0  0  0  0  0  0
   31.7700   30.9860   36.5650 N   0  0  0  0  0  0  0  0  0  0  0  0
   31.1130   30.2510   36.2170 H   0  0  0  0  0  0  0  0  0  0  0  0
   31.4440   31.7390   37.2110 H   0  0  0  0  0  0  0  0  0  0  0  0
   37.3510   26.4300   33.1670 C   0  0  0  0  0  0  0  0  0  0  0  0
   37.0540   25.5570   32.1300 C   0  0  0  0  0  0  0  0  0  0  0  0
   37.1790   24.1890   32.3510 C   0  0  0  0  0  0  0  0  0  0  0  0
   37.5970   23.7600   33.6050 N   0  0  0  0  0  0  0  0  0  0  0  0
   37.8780   24.6330   34.5950 C   0  0  0  0  0  0  0  0  0  0  0  0
   37.7410   25.9370   34.3290 N   0  0  0  0  0  0  0  0  0  0  0  0
   36.7180   25.5880   31.1030 H   0  0  0  0  0  0  0  0  0  0  0  0
   37.0180   23.3280   31.7390 H   0  0  0  0  0  0  0  0  0  0  0  0
   38.3150   24.1660   35.9070 C   0  0  0  0  0  0  0  0  0  0  0  0
   37.6200   24.5810   37.0230 C   0  0  0  0  0  0  0  0  0  0  0  0
   36.7760   25.2260   36.9860 H   0  0  0  0  0  0  0  0  0  0  0  0
   38.0550   24.1250   38.2570 C   0  0  0  0  0  3  0  0  0  0  0  0
   39.1490   23.2840   38.3420 C   0  0  0  0  0  0  0  0  0  0  0  0
   39.5330   22.8950   39.2890 H   0  0  0  0  0  0  0  0  0  0  0  0
   39.8120   22.8980   37.1840 C   0  0  0  0  0  0  0  0  0  0  0  0
   40.6820   22.2340   37.2010 H   0  0  0  0  0  0  0  0  0  0  0  0
   39.4190   23.3260   35.9120 C   0  0  0  0  0  3  0  0  0  0  0  0
  1  7  1  6  0  0  0
  1 30  1  0  0  0  0
  1  2  1  0  0  0  0
  2  9  1  0  0  0  0
  2  8  1  0  0  0  0
  3 10  1  1  0  0  0
  3  2  1  0  0  0  0
  3 19  1  0  0  0  0
  4 12  1  0  0  0  0
  4  3  1  0  0  0  0
  5  6  1  0  0  0  0
  5  4  1  0  0  0  0
  6 15  1  0  0  0  0
  6  1  1  0  0  0  0
 11  4  1  0  0  0  0
 13  5  1  0  0  0  0
 14  5  1  0  0  0  0
 16  6  1  0  0  0  0
 17 18  1  0  0  0  0
 18 23  1  0  0  0  0
 19 18  2  0  0  0  0
 19 20  1  0  0  0  0
 20 21  2  0  0  0  0
 21 22  1  0  0  0  0
 21 25  1  0  0  0  0
 22 26  1  0  0  0  0
 23 27  1  0  0  0  0
 23 22  2  0  0  0  0
 24 20  1  0  0  0  0
 27 29  1  0  0  0  0
 28 27  1  0  0  0  0
 30 35  1  0  0  0  0
 31 32  1  0  0  0  0
 31 30  2  0  0  0  0
 32 33  2  0  0  0  0
 33 34  1  0  0  0  0
 34 38  1  0  0  0  0
 35 34  2  0  0  0  0
 36 31  1  0  0  0  0
 37 32  1  0  0  0  0
 38 46  2  0  0  0  0
 38 39  1  0  0  0  0
 39 41  2  0  0  0  0
 40 39  1  0  0  0  0
 41 42  1  0  0  0  0
 42 43  1  0  0  0  0
 44 45  1  0  0  0  0
 44 42  2  0  0  0  0
 46 44  1  0  0  0  0
M  END
>  <minimizedAffinity>
-6.92492437

$$$$

 OpenBabel03272506033D

 46 49  0  0  1  0  0  0  0  0999 V2000
   37.2220   27.1220   32.4670 C   0  0  2  0  0  0  0  0  0  0  0  0
   37.2060   26.3180   33.6850 C   0  0  0  0  0  0  0  0  0  0  0  0
   38.5800   26.3310   34.4260 C   0  0  2  0  0  0  0  0  0  0  0  0
   39.6740   25.8560   33.6170 C   0  0  0  0  0  0  0  0  0  0  0  0
   39.6110   26.3200   32.1610 C   0  0  0  0  0  0  0  0  0  0  0  0
   38.6460   27.4550   31.9980 C   0  0  0  0  0  0  0  0  0  0  0  0
   36.8160   26.5180   31.6010 H   0  0  0  0  0  0  0  0  0  0  0  0
   36.5230   26.4910   34.4890 H   0  0  0  0  0  0  0  0  0  0  0  0
   37.0930   25.2100   33.4380 H   0  0  0  0  0  0  0  0  0  0  0  0
   38.7290   27.3550   34.8170 H   0  0  0  0  0  0  0  0  0  0  0  0
   40.6370   26.1380   34.0900 H   0  0  0  0  0  0  0  0  0  0  0  0
   39.6990   24.7510   33.5570 H   0  0  0  0  0  0  0  0  0  0  0  0
   40.6100   26.7200   31.9170 H   0  0  0  0  0  0  0  0  0  0  0  0
   39.4030   25.5130   31.4540 H   0  0  0  0  0  0  0  0  0  0  0  0
   39.0240   28.3330   32.5690 H   0  0  0  0  0  0  0  0  0  0  0  0
   38.6050   27.7190   30.9350 H   0  0  0  0  0  0  0  0  0  0  0  0
   38.2380   23.4690   33.7810 Cl  0  0  0  0  0  0  0  0  0  0  0  0
   38.1120   24.0860   35.4140 C   0  0  0  0  0  0  0  0  0  0  0  0
   38.3350   25.4280   35.5950 C   0  0  0  0  0  0  0  0  0  0  0  0
   38.2490   25.8220   36.9140 C   0  0  0  0  0  0  0  0  0  0  0  0
   37.9650   24.9580   37.9540 C   0  0  0  0  0  0  0  0  0  0  0  0
   37.7500   23.6080   37.6820 C   0  0  0  0  0  0  0  0  0  0  0  0
   37.8260   23.1640   36.3740 C   0  0  0  0  0  0  0  0  0  0  0  0
   38.4170   26.8650   37.1480 H   0  0  0  0  0  0  0  0  0  0  0  0
   37.9170   25.3570   38.9570 H   0  0  0  0  0  0  0  0  0  0  0  0
   37.5260   22.9210   38.4880 H   0  0  0  0  0  0  0  0  0  0  0  0
   37.6160   21.7850   36.0800 N   0  0  0  0  0  0  0  0  0  0  0  0
   37.8500   21.4200   35.1280 H   0  0  0  0  0  0  0  0  0  0  0  0
   37.2320   21.1560   36.8190 H   0  0  0  0  0  0  0  0  0  0  0  0
   36.4930   28.3850   32.5200 C   0  0  0  0  0  0  0  0  0  0  0  0
   36.3080   28.9890   31.2840 C   0  0  0  0  0  0  0  0  0  0  0  0
   35.5990   30.1840   31.2220 C   0  0  0  0  0  0  0  0  0  0  0  0
   35.1070   30.7190   32.4060 N   0  0  0  0  0  0  0  0  0  0  0  0
   35.3020   30.1100   33.5940 C   0  0  0  0  0  0  0  0  0  0  0  0
   35.9910   28.9630   33.5970 N   0  0  0  0  0  0  0  0  0  0  0  0
   36.5630   28.8260   30.2460 H   0  0  0  0  0  0  0  0  0  0  0  0
   35.3240   30.8340   30.4200 H   0  0  0  0  0  0  0  0  0  0  0  0
   34.7780   30.6860   34.8300 C   0  0  0  0  0  0  0  0  0  0  0  0
   35.6110   31.4700   35.5990 C   0  0  0  0  0  0  0  0  0  0  0  0
   36.6200   31.6850   35.3450 H   0  0  0  0  0  0  0  0  0  0  0  0
   35.0900   32.0050   36.7670 C   0  0  0  0  0  3  0  0  0  0  0  0
   33.7810   31.7470   37.1280 C   0  0  0  0  0  0  0  0  0  0  0  0
   33.3220   32.1430   38.0370 H   0  0  0  0  0  0  0  0  0  0  0  0
   32.9880   30.9480   36.3130 C   0  0  0  0  0  0  0  0  0  0  0  0
   31.9470   30.7170   36.5570 H   0  0  0  0  0  0  0  0  0  0  0  0
   33.4580   30.3820   35.1250 C   0  0  0  0  0  3  0  0  0  0  0  0
  1  7  1  6  0  0  0
  1 30  1  0  0  0  0
  1  2  1  0  0  0  0
  2  3  1  0  0  0  0
  2  8  1  0  0  0  0
  3 10  1  1  0  0  0
  3 19  1  0  0  0  0
  4 11  1  0  0  0  0
  4  3  1  0  0  0  0
  5  4  1  0  0  0  0
  6  5  1  0  0  0  0
  6  1  1  0  0  0  0
  6 15  1  0  0  0  0
  9  2  1  0  0  0  0
 12  4  1  0  0  0  0
 13  5  1  0  0  0  0
 14  5  1  0  0  0  0
 16  6  1  0  0  0  0
 17 18  1  0  0  0  0
 18 19  2  0  0  0  0
 18 23  1  0  0  0  0
 19 20  1  0  0  0  0
 20 24  1  0  0  0  0
 20 21  2  0  0  0  0
 21 25  1  0  0  0  0
 22 21  1  0  0  0  0
 22 26  1  0  0  0  0
 23 22  2  0  0  0  0
 27 23  1  0  0  0  0
 27 29  1  0  0  0  0
 28 27  1  0  0  0  0
 30 35  1  0  0  0  0
 31 30  2  0  0  0  0
 32 31  1  0  0  0  0
 32 33  2  0  0  0  0
 33 34  1  0  0  0  0
 34 35  2  0  0  0  0
 34 38  1  0  0  0  0
 36 31  1  0  0  0  0
 37 32  1  0  0  0  0
 38 46  2  0  0  0  0
 38 39  1  0  0  0  0
 39 41  2  0  0  0  0
 40 39  1  0  0  0  0
 41 42  1  0  0  0  0
 42 43  1  0  0  0  0
 44 45  1  0  0  0  0
 44 42  2  0  0  0  0
 46 44  1  0  0  0  0
M  END
>  <minimizedAffinity>
-6.8749404

$$$$

 OpenBabel03272506033D

 46 49  0  0  1  0  0  0  0  0999 V2000
   38.8540   25.8020   35.2780 C   0  0  2  0  0  0  0  0  0  0  0  0
   38.1210   26.5990   34.2980 C   0  0  0  0  0  0  0  0  0  0  0  0
   38.8650   26.6930   32.9300 C   0  0  2  0  0  0  0  0  0  0  0  0
   40.1880   27.2560   33.0320 C   0  0  0  0  0  0  0  0  0  0  0  0
   40.9620   26.7920   34.2670 C   0  0  0  0  0  0  0  0  0  0  0  0
   40.3210   25.5840   34.8820 C   0  0  0  0  0  0  0  0  0  0  0  0
   38.9470   26.3730   36.2490 H   0  0  0  0  0  0  0  0  0  0  0  0
   37.1230   26.3710   33.9900 H   0  0  0  0  0  0  0  0  0  0  0  0
   38.0860   27.6950   34.6140 H   0  0  0  0  0  0  0  0  0  0  0  0
   38.8450   25.6840   32.4780 H   0  0  0  0  0  0  0  0  0  0  0  0
   40.7530   27.0500   32.1000 H   0  0  0  0  0  0  0  0  0  0  0  0
   40.1670   28.3590   33.1140 H   0  0  0  0  0  0  0  0  0  0  0  0
   41.9560   26.4720   33.9110 H   0  0  0  0  0  0  0  0  0  0  0  0
   41.1190   27.5810   35.0060 H   0  0  0  0  0  0  0  0  0  0  0  0
   40.3850   24.7370   34.1610 H   0  0  0  0  0  0  0  0  0  0  0  0
   40.8850   25.3200   35.7840 H   0  0  0  0  0  0  0  0  0  0  0  0
   39.1820   26.5020   30.0000 Cl  0  0  0  0  0  0  0  0  0  0  0  0
   38.0510   27.6050   30.7520 C   0  0  0  0  0  0  0  0  0  0  0  0
   37.9610   27.5720   32.1210 C   0  0  0  0  0  0  0  0  0  0  0  0
   37.0230   28.4470   32.6280 C   0  0  0  0  0  0  0  0  0  0  0  0
   36.2500   29.2790   31.8420 C   0  0  0  0  0  0  0  0  0  0  0  0
   36.4060   29.2520   30.4570 C   0  0  0  0  0  0  0  0  0  0  0  0
   37.3330   28.3890   29.9010 C   0  0  0  0  0  0  0  0  0  0  0  0
   36.8830   28.4810   33.7000 H   0  0  0  0  0  0  0  0  0  0  0  0
   35.5400   29.9340   32.3280 H   0  0  0  0  0  0  0  0  0  0  0  0
   35.8060   29.9000   29.8300 H   0  0  0  0  0  0  0  0  0  0  0  0
   37.5000   28.3440   28.4860 N   0  0  0  0  0  0  0  0  0  0  0  0
   38.0630   27.5720   28.0590 H   0  0  0  0  0  0  0  0  0  0  0  0
   37.0570   29.0800   27.8940 H   0  0  0  0  0  0  0  0  0  0  0  0
   38.3020   24.4840   35.5770 C   0  0  0  0  0  0  0  0  0  0  0  0
   38.1190   24.2370   36.9300 C   0  0  0  0  0  0  0  0  0  0  0  0
   37.5700   23.0200   37.3210 C   0  0  0  0  0  0  0  0  0  0  0  0
   37.2290   22.1050   36.3320 N   0  0  0  0  0  0  0  0  0  0  0  0
   37.4190   22.3720   35.0230 C   0  0  0  0  0  0  0  0  0  0  0  0
   37.9500   23.5580   34.7030 N   0  0  0  0  0  0  0  0  0  0  0  0
   38.2840   24.7240   37.8820 H   0  0  0  0  0  0  0  0  0  0  0  0
   37.3320   22.5920   38.2700 H   0  0  0  0  0  0  0  0  0  0  0  0
   37.0550   21.4000   33.9970 C   0  0  0  0  0  0  0  0  0  0  0  0
   35.8500   20.7390   34.1080 C   0  0  0  0  0  0  0  0  0  0  0  0
   35.1620   20.8970   34.9030 H   0  0  0  0  0  0  0  0  0  0  0  0
   35.5270   19.8220   33.1210 C   0  0  0  0  0  3  0  0  0  0  0  0
   36.3980   19.5920   32.0720 C   0  0  0  0  0  0  0  0  0  0  0  0
   36.1920   18.8800   31.2690 H   0  0  0  0  0  0  0  0  0  0  0  0
   37.6000   20.2860   32.0120 C   0  0  0  0  0  0  0  0  0  0  0  0
   38.3200   20.1390   31.2010 H   0  0  0  0  0  0  0  0  0  0  0  0
   37.9780   21.2230   32.9770 C   0  0  0  0  0  3  0  0  0  0  0  0
  1 30  1  0  0  0  0
  1  7  1  1  0  0  0
  2  9  1  0  0  0  0
  2  1  1  0  0  0  0
  3 10  1  6  0  0  0
  3  4  1  0  0  0  0
  3  2  1  0  0  0  0
  4 12  1  0  0  0  0
  4  5  1  0  0  0  0
  5  6  1  0  0  0  0
  5 14  1  0  0  0  0
  6  1  1  0  0  0  0
  6 16  1  0  0  0  0
  8  2  1  0  0  0  0
 11  4  1  0  0  0  0
 13  5  1  0  0  0  0
 15  6  1  0  0  0  0
 17 18  1  0  0  0  0
 18 19  1  0  0  0  0
 19 20  2  0  0  0  0
 19  3  1  0  0  0  0
 20 24  1  0  0  0  0
 21 25  1  0  0  0  0
 21 20  1  0  0  0  0
 22 21  2  0  0  0  0
 23 22  1  0  0  0  0
 23 18  2  0  0  0  0
 26 22  1  0  0  0  0
 27 23  1  0  0  0  0
 28 27  1  0  0  0  0
 29 27  1  0  0  0  0
 30 31  1  0  0  0  0
 31 32  2  0  0  0  0
 31 36  1  0  0  0  0
 32 37  1  0  0  0  0
 33 32  1  0  0  0  0
 34 33  2  0  0  0  0
 35 34  1  0  0  0  0
 35 30  2  0  0  0  0
 38 39  1  0  0  0  0
 38 34  1  0  0  0  0
 39 40  1  0  0  0  0
 41 39  2  0  0  0  0
 42 41  1  0  0  0  0
 43 42  1  0  0  0  0
 44 42  2  0  0  0  0
 44 46  1  0  0  0  0
 45 44  1  0  0  0  0
 46 38  2  0  0  0  0
M  END
>  <minimizedAffinity>
-6.65971947

$$$$

 OpenBabel03272506033D

 46 49  0  0  1  0  0  0  0  0999 V2000
   37.2620   26.9070   31.9330 C   0  0  2  0  0  0  0  0  0  0  0  0
   37.1870   26.0420   33.1070 C   0  0  0  0  0  0  0  0  0  0  0  0
   38.5910   25.7420   33.7180 C   0  0  2  0  0  0  0  0  0  0  0  0
   39.5010   25.1190   32.7890 C   0  0  0  0  0  0  0  0  0  0  0  0
   39.4120   25.6820   31.3690 C   0  0  0  0  0  0  0  0  0  0  0  0
   38.6810   26.9900   31.3520 C   0  0  0  0  0  0  0  0  0  0  0  0
   36.6760   26.4510   31.0800 H   0  0  0  0  0  0  0  0  0  0  0  0
   36.6180   26.2900   33.9780 H   0  0  0  0  0  0  0  0  0  0  0  0
   36.8370   24.9950   32.8170 H   0  0  0  0  0  0  0  0  0  0  0  0
   38.9710   26.6890   34.1430 H   0  0  0  0  0  0  0  0  0  0  0  0
   40.5360   25.1790   33.1840 H   0  0  0  0  0  0  0  0  0  0  0  0
   39.3020   24.0370   32.6720 H   0  0  0  0  0  0  0  0  0  0  0  0
   40.4480   25.8980   31.0540 H   0  0  0  0  0  0  0  0  0  0  0  0
   38.9930   24.9790   30.6460 H   0  0  0  0  0  0  0  0  0  0  0  0
   39.2700   27.7390   31.9270 H   0  0  0  0  0  0  0  0  0  0  0  0
   38.6060   27.3260   30.3110 H   0  0  0  0  0  0  0  0  0  0  0  0
   38.3920   27.0270   36.3690 Cl  0  0  0  0  0  0  0  0  0  0  0  0
   38.1990   25.3020   36.1440 C   0  0  0  0  0  0  0  0  0  0  0  0
   38.2680   24.8270   34.8590 C   0  0  0  0  0  0  0  0  0  0  0  0
   38.0720   23.4650   34.7680 C   0  0  0  0  0  0  0  0  0  0  0  0
   37.8310   22.6530   35.8600 C   0  0  0  0  0  0  0  0  0  0  0  0
   37.7780   23.2170   37.1340 C   0  0  0  0  0  0  0  0  0  0  0  0
   37.9670   24.5800   37.2750 C   0  0  0  0  0  0  0  0  0  0  0  0
   38.1040   23.0070   33.7890 H   0  0  0  0  0  0  0  0  0  0  0  0
   37.6890   21.5950   35.6940 H   0  0  0  0  0  0  0  0  0  0  0  0
   37.5900   22.5920   37.9970 H   0  0  0  0  0  0  0  0  0  0  0  0
   37.9080   25.1740   38.5690 N   0  0  0  0  0  0  0  0  0  0  0  0
   37.8710   26.2160   38.6570 H   0  0  0  0  0  0  0  0  0  0  0  0
   37.9030   24.5610   39.4140 H   0  0  0  0  0  0  0  0  0  0  0  0
   36.8040   28.2810   32.1150 C   0  0  0  0  0  0  0  0  0  0  0  0
   37.0380   29.1090   31.0270 C   0  0  0  0  0  0  0  0  0  0  0  0
   36.6120   30.4310   31.0870 C   0  0  0  0  0  0  0  0  0  0  0  0
   35.9690   30.8630   32.2410 N   0  0  0  0  0  0  0  0  0  0  0  0
   35.7550   30.0360   33.2850 C   0  0  0  0  0  0  0  0  0  0  0  0
   36.1850   28.7730   33.1730 N   0  0  0  0  0  0  0  0  0  0  0  0
   37.4940   29.0650   30.0470 H   0  0  0  0  0  0  0  0  0  0  0  0
   36.6680   31.2530   30.4070 H   0  0  0  0  0  0  0  0  0  0  0  0
   35.0770   30.5050   34.4900 C   0  0  0  0  0  0  0  0  0  0  0  0
   35.7780   31.2910   35.3790 C   0  0  0  0  0  0  0  0  0  0  0  0
   36.7910   31.5800   35.2400 H   0  0  0  0  0  0  0  0  0  0  0  0
   35.1120   31.7240   36.5150 C   0  0  0  0  0  3  0  0  0  0  0  0
   33.7940   31.3670   36.7280 C   0  0  0  0  0  0  0  0  0  0  0  0
   33.2240   31.6810   37.6060 H   0  0  0  0  0  0  0  0  0  0  0  0
   33.1380   30.5720   35.7980 C   0  0  0  0  0  0  0  0  0  0  0  0
   32.0950   30.2650   35.9220 H   0  0  0  0  0  0  0  0  0  0  0  0
   33.7570   30.1060   34.6340 C   0  0  0  0  0  3  0  0  0  0  0  0
  1  7  1  6  0  0  0
  1 30  1  0  0  0  0
  1  2  1  0  0  0  0
  2  3  1  0  0  0  0
  2  8  1  0  0  0  0
  3 10  1  1  0  0  0
  3 19  1  0  0  0  0
  4 11  1  0  0  0  0
  4  3  1  0  0  0  0
  5  4  1  0  0  0  0
  6  5  1  0  0  0  0
  6 15  1  0  0  0  0
  6  1  1  0  0  0  0
  9  2  1  0  0  0  0
 12  4  1  0  0  0  0
 13  5  1  0  0  0  0
 14  5  1  0  0  0  0
 16  6  1  0  0  0  0
 18 17  1  0  0  0  0
 18 23  1  0  0  0  0
 19 18  2  0  0  0  0
 20 19  1  0  0  0  0
 20 21  2  0  0  0  0
 21 22  1  0  0  0  0
 22 23  2  0  0  0  0
 22 26  1  0  0  0  0
 23 27  1  0  0  0  0
 24 20  1  0  0  0  0
 25 21  1  0  0  0  0
 27 28  1  0  0  0  0
 27 29  1  0  0  0  0
 30 35  1  0  0  0  0
 31 32  1  0  0  0  0
 31 30  2  0  0  0  0
 32 33  2  0  0  0  0
 33 34  1  0  0  0  0
 34 38  1  0  0  0  0
 35 34  2  0  0  0  0
 36 31  1  0  0  0  0
 37 32  1  0  0  0  0
 38 46  2  0  0  0  0
 38 39  1  0  0  0  0
 39 41  2  0  0  0  0
 40 39  1  0  0  0  0
 41 42  1  0  0  0  0
 42 43  1  0  0  0  0
 44 45  1  0  0  0  0
 44 42  2  0  0  0  0
 46 44  1  0  0  0  0
M  END
>  <minimizedAffinity>
-6.4492445

$$$$

 OpenBabel03272506033D

 46 49  0  0  1  0  0  0  0  0999 V2000
   37.5200   24.5870   31.6090 C   0  0  2  0  0  0  0  0  0  0  0  0
   38.8080   25.2710   31.5240 C   0  0  0  0  0  0  0  0  0  0  0  0
   38.7320   26.7480   32.0220 C   0  0  2  0  0  0  0  0  0  0  0  0
   37.7760   27.5500   31.3000 C   0  0  0  0  0  0  0  0  0  0  0  0
   36.4790   26.8120   30.9660 C   0  0  0  0  0  0  0  0  0  0  0  0
   36.3450   25.5610   31.7820 C   0  0  0  0  0  0  0  0  0  0  0  0
   37.2810   24.0910   30.6210 H   0  0  0  0  0  0  0  0  0  0  0  0
   39.6880   24.9190   32.0180 H   0  0  0  0  0  0  0  0  0  0  0  0
   39.1190   25.4140   30.4360 H   0  0  0  0  0  0  0  0  0  0  0  0
   38.5500   26.7160   33.1120 H   0  0  0  0  0  0  0  0  0  0  0  0
   37.5760   28.4860   31.8610 H   0  0  0  0  0  0  0  0  0  0  0  0
   38.1680   27.8840   30.3200 H   0  0  0  0  0  0  0  0  0  0  0  0
   35.6540   27.4760   31.2740 H   0  0  0  0  0  0  0  0  0  0  0  0
   36.3540   26.6100   29.9000 H   0  0  0  0  0  0  0  0  0  0  0  0
   36.2550   25.8400   32.8560 H   0  0  0  0  0  0  0  0  0  0  0  0
   35.4270   25.0490   31.4740 H   0  0  0  0  0  0  0  0  0  0  0  0
   40.5260   26.5660   34.3610 Cl  0  0  0  0  0  0  0  0  0  0  0  0
   41.0380   27.2530   32.8360 C   0  0  0  0  0  0  0  0  0  0  0  0
   40.1300   27.2420   31.8080 C   0  0  0  0  0  0  0  0  0  0  0  0
   40.6260   27.7710   30.6350 C   0  0  0  0  0  0  0  0  0  0  0  0
   41.9090   28.2660   30.5010 C   0  0  0  0  0  0  0  0  0  0  0  0
   42.7690   28.2410   31.5980 C   0  0  0  0  0  0  0  0  0  0  0  0
   42.3170   27.7190   32.7970 C   0  0  0  0  0  0  0  0  0  0  0  0
   39.9760   27.7960   29.7700 H   0  0  0  0  0  0  0  0  0  0  0  0
   42.2110   28.6630   29.5430 H   0  0  0  0  0  0  0  0  0  0  0  0
   43.7770   28.6270   31.5070 H   0  0  0  0  0  0  0  0  0  0  0  0
   43.1860   27.6790   33.9250 N   0  0  0  0  0  0  0  0  0  0  0  0
   42.9100   27.1260   34.7690 H   0  0  0  0  0  0  0  0  0  0  0  0
   44.0890   28.2020   33.8960 H   0  0  0  0  0  0  0  0  0  0  0  0
   37.3910   23.5860   32.6630 C   0  0  0  0  0  0  0  0  0  0  0  0
   36.7270   22.4310   32.2740 C   0  0  0  0  0  0  0  0  0  0  0  0
   36.5780   21.4020   33.1970 C   0  0  0  0  0  0  0  0  0  0  0  0
   37.1020   21.5790   34.4720 N   0  0  0  0  0  0  0  0  0  0  0  0
   37.7430   22.7140   34.8230 C   0  0  0  0  0  0  0  0  0  0  0  0
   37.8590   23.6720   33.8960 N   0  0  0  0  0  0  0  0  0  0  0  0
   36.2310   22.0250   31.4030 H   0  0  0  0  0  0  0  0  0  0  0  0
   36.1210   20.4370   33.1550 H   0  0  0  0  0  0  0  0  0  0  0  0
   38.2890   22.8850   36.1660 C   0  0  0  0  0  0  0  0  0  0  0  0
   39.5940   22.5070   36.4030 C   0  0  0  0  0  0  0  0  0  0  0  0
   40.2330   22.0950   35.6600 H   0  0  0  0  0  0  0  0  0  0  0  0
   40.0890   22.6790   37.6860 C   0  0  0  0  0  3  0  0  0  0  0  0
   39.2850   23.2120   38.6760 C   0  0  0  0  0  0  0  0  0  0  0  0
   39.6260   23.3690   39.7030 H   0  0  0  0  0  0  0  0  0  0  0  0
   37.9780   23.5740   38.3800 C   0  0  0  0  0  0  0  0  0  0  0  0
   37.3050   24.0010   39.1300 H   0  0  0  0  0  0  0  0  0  0  0  0
   37.4240   23.4240   37.1050 C   0  0  0  0  0  3  0  0  0  0  0  0
  1  7  1  6  0  0  0
  1  6  1  0  0  0  0
  1 30  1  0  0  0  0
  2  1  1  0  0  0  0
  2  8  1  0  0  0  0
  2  3  1  0  0  0  0
  3 10  1  1  0  0  0
  4 11  1  0  0  0  0
  4  3  1  0  0  0  0
  5 13  1  0  0  0  0
  5  4  1  0  0  0  0
  5  6  1  0  0  0  0
  6 15  1  0  0  0  0
  9  2  1  0  0  0  0
 12  4  1  0  0  0  0
 14  5  1  0  0  0  0
 16  6  1  0  0  0  0
 18 17  1  0  0  0  0
 19  3  1  0  0  0  0
 19 18  2  0  0  0  0
 20 19  1  0  0  0  0
 21 20  2  0  0  0  0
 21 22  1  0  0  0  0
 22 23  2  0  0  0  0
 23 18  1  0  0  0  0
 23 27  1  0  0  0  0
 24 20  1  0  0  0  0
 25 21  1  0  0  0  0
 26 22  1  0  0  0  0
 27 28  1  0  0  0  0
 29 27  1  0  0  0  0
 30 35  1  0  0  0  0
 31 30  2  0  0  0  0
 31 32  1  0  0  0  0
 32 33  2  0  0  0  0
 33 34  1  0  0  0  0
 34 38  1  0  0  0  0
 35 34  2  0  0  0  0
 36 31  1  0  0  0  0
 37 32  1  0  0  0  0
 38 39  2  0  0  0  0
 38 46  1  0  0  0  0
 39 41  1  0  0  0  0
 40 39  1  0  0  0  0
 41 42  2  0  0  0  0
 42 43  1  0  0  0  0
 44 42  1  0  0  0  0
 44 45  1  0  0  0  0
 46 44  2  0  0  0  0
M  END
>  <minimizedAffinity>
-6.42507267

$$$$

 OpenBabel03272506033D

 46 49  0  0  1  0  0  0  0  0999 V2000
   36.8110   27.5550   31.9850 C   0  0  2  0  0  0  0  0  0  0  0  0
   36.8890   26.5030   32.9940 C   0  0  0  0  0  0  0  0  0  0  0  0
   38.3470   26.2620   33.4930 C   0  0  2  0  0  0  0  0  0  0  0  0
   39.2650   25.9090   32.4390 C   0  0  0  0  0  0  0  0  0  0  0  0
   39.0430   26.6880   31.1410 C   0  0  0  0  0  0  0  0  0  0  0  0
   38.1800   27.8910   31.3770 C   0  0  0  0  0  0  0  0  0  0  0  0
   36.2300   27.1870   31.0870 H   0  0  0  0  0  0  0  0  0  0  0  0
   36.3450   26.5360   33.9150 H   0  0  0  0  0  0  0  0  0  0  0  0
   36.6330   25.4870   32.5400 H   0  0  0  0  0  0  0  0  0  0  0  0
   38.6500   27.1600   34.0620 H   0  0  0  0  0  0  0  0  0  0  0  0
   40.3080   26.0150   32.8010 H   0  0  0  0  0  0  0  0  0  0  0  0
   39.1730   24.8460   32.1450 H   0  0  0  0  0  0  0  0  0  0  0  0
   40.0320   27.0670   30.8320 H   0  0  0  0  0  0  0  0  0  0  0  0
   38.6590   26.0740   30.3240 H   0  0  0  0  0  0  0  0  0  0  0  0
   38.7190   28.5940   32.0520 H   0  0  0  0  0  0  0  0  0  0  0  0
   38.0160   28.3870   30.4130 H   0  0  0  0  0  0  0  0  0  0  0  0
   38.2570   27.0450   36.3390 Cl  0  0  0  0  0  0  0  0  0  0  0  0
   38.1760   25.3760   35.8210 C   0  0  0  0  0  0  0  0  0  0  0  0
   38.1820   25.1390   34.4700 C   0  0  0  0  0  0  0  0  0  0  0  0
   38.0820   23.8010   34.1500 C   0  0  0  0  0  0  0  0  0  0  0  0
   37.9870   22.7940   35.0910 C   0  0  0  0  0  0  0  0  0  0  0  0
   37.9900   23.1220   36.4460 C   0  0  0  0  0  0  0  0  0  0  0  0
   38.0870   24.4510   36.8170 C   0  0  0  0  0  0  0  0  0  0  0  0
   38.0730   23.5250   33.1040 H   0  0  0  0  0  0  0  0  0  0  0  0
   37.9130   21.7720   34.7470 H   0  0  0  0  0  0  0  0  0  0  0  0
   37.9160   22.3420   37.1940 H   0  0  0  0  0  0  0  0  0  0  0  0
   38.0840   24.8040   38.1980 N   0  0  0  0  0  0  0  0  0  0  0  0
   37.9750   25.8070   38.4730 H   0  0  0  0  0  0  0  0  0  0  0  0
   38.1890   24.0560   38.9180 H   0  0  0  0  0  0  0  0  0  0  0  0
   36.2240   28.8200   32.4180 C   0  0  0  0  0  0  0  0  0  0  0  0
   36.5630   29.9060   31.6240 C   0  0  0  0  0  0  0  0  0  0  0  0
   36.0310   31.1540   31.9340 C   0  0  0  0  0  0  0  0  0  0  0  0
   35.1820   31.2530   33.0290 N   0  0  0  0  0  0  0  0  0  0  0  0
   34.8700   30.1790   33.7830 C   0  0  0  0  0  0  0  0  0  0  0  0
   35.4090   29.0030   33.4410 N   0  0  0  0  0  0  0  0  0  0  0  0
   37.1710   30.1310   30.7580 H   0  0  0  0  0  0  0  0  0  0  0  0
   36.1300   32.1240   31.4970 H   0  0  0  0  0  0  0  0  0  0  0  0
   33.9750   30.3000   34.9310 C   0  0  0  0  0  0  0  0  0  0  0  0
   32.9370   29.4010   35.0580 C   0  0  0  0  0  0  0  0  0  0  0  0
   32.7480   28.6170   34.3660 H   0  0  0  0  0  0  0  0  0  0  0  0
   32.1020   29.5370   36.1560 C   0  0  0  0  0  3  0  0  0  0  0  0
   32.3200   30.5450   37.0760 C   0  0  0  0  0  0  0  0  0  0  0  0
   31.6920   30.6960   37.9580 H   0  0  0  0  0  0  0  0  0  0  0  0
   33.3810   31.4230   36.8960 C   0  0  0  0  0  0  0  0  0  0  0  0
   33.5940   32.2350   37.5980 H   0  0  0  0  0  0  0  0  0  0  0  0
   34.2560   31.3350   35.8100 C   0  0  0  0  0  3  0  0  0  0  0  0
  1  7  1  6  0  0  0
  1 30  1  0  0  0  0
  1  2  1  0  0  0  0
  2  3  1  0  0  0  0
  2  8  1  0  0  0  0
  3 10  1  1  0  0  0
  3 19  1  0  0  0  0
  4 11  1  0  0  0  0
  4  3  1  0  0  0  0
  5  6  1  0  0  0  0
  5  4  1  0  0  0  0
  6  1  1  0  0  0  0
  6 15  1  0  0  0  0
  9  2  1  0  0  0  0
 12  4  1  0  0  0  0
 13  5  1  0  0  0  0
 14  5  1  0  0  0  0
 16  6  1  0  0  0  0
 18 17  1  0  0  0  0
 18 23  1  0  0  0  0
 19 18  2  0  0  0  0
 20 19  1  0  0  0  0
 20 21  2  0  0  0  0
 21 22  1  0  0  0  0
 22 23  2  0  0  0  0
 22 26  1  0  0  0  0
 23 27  1  0  0  0  0
 24 20  1  0  0  0  0
 25 21  1  0  0  0  0
 27 28  1  0  0  0  0
 27 29  1  0  0  0  0
 30 35  1  0  0  0  0
 31 32  1  0  0  0  0
 31 30  2  0  0  0  0
 32 33  2  0  0  0  0
 33 34  1  0  0  0  0
 34 38  1  0  0  0  0
 35 34  2  0  0  0  0
 36 31  1  0  0  0  0
 37 32  1  0  0  0  0
 38 39  2  0  0  0  0
 38 46  1  0  0  0  0
 39 41  1  0  0  0  0
 40 39  1  0  0  0  0
 41 42  2  0  0  0  0
 42 43  1  0  0  0  0
 44 42  1  0  0  0  0
 44 45  1  0  0  0  0
 46 44  2  0  0  0  0
M  END
>  <minimizedAffinity>
-6.36587477

$$$$

 OpenBabel03272506033D

 46 49  0  0  1  0  0  0  0  0999 V2000
   37.2820   26.1000   33.8390 C   0  0  2  0  0  0  0  0  0  0  0  0
   38.6410   25.9880   34.3610 C   0  0  0  0  0  0  0  0  0  0  0  0
   39.6310   25.3790   33.3190 C   0  0  2  0  0  0  0  0  0  0  0  0
   39.2450   24.0710   32.8550 C   0  0  0  0  0  0  0  0  0  0  0  0
   37.7390   23.9160   32.6280 C   0  0  0  0  0  0  0  0  0  0  0  0
   37.0630   25.2530   32.5770 C   0  0  0  0  0  0  0  0  0  0  0  0
   36.5490   25.6420   34.5690 H   0  0  0  0  0  0  0  0  0  0  0  0
   39.1960   26.8260   34.7260 H   0  0  0  0  0  0  0  0  0  0  0  0
   38.6910   25.2160   35.1990 H   0  0  0  0  0  0  0  0  0  0  0  0
   39.7470   26.1210   32.5070 H   0  0  0  0  0  0  0  0  0  0  0  0
   39.8200   23.8140   31.9420 H   0  0  0  0  0  0  0  0  0  0  0  0
   39.4990   23.2780   33.5840 H   0  0  0  0  0  0  0  0  0  0  0  0
   37.6200   23.4660   31.6280 H   0  0  0  0  0  0  0  0  0  0  0  0
   37.2560   23.2490   33.3450 H   0  0  0  0  0  0  0  0  0  0  0  0
   37.4370   25.8120   31.6900 H   0  0  0  0  0  0  0  0  0  0  0  0
   35.9860   25.0860   32.4580 H   0  0  0  0  0  0  0  0  0  0  0  0
   41.4330   27.6870   32.9330 Cl  0  0  0  0  0  0  0  0  0  0  0  0
   41.8590   26.3210   33.9390 C   0  0  0  0  0  0  0  0  0  0  0  0
   40.9210   25.3290   34.0780 C   0  0  0  0  0  0  0  0  0  0  0  0
   41.3250   24.3090   34.9140 C   0  0  0  0  0  0  0  0  0  0  0  0
   42.5510   24.2810   35.5500 C   0  0  0  0  0  0  0  0  0  0  0  0
   43.4470   25.3290   35.3530 C   0  0  0  0  0  0  0  0  0  0  0  0
   43.0880   26.3770   34.5240 C   0  0  0  0  0  0  0  0  0  0  0  0
   40.6420   23.4870   35.0840 H   0  0  0  0  0  0  0  0  0  0  0  0
   42.7820   23.4390   36.1870 H   0  0  0  0  0  0  0  0  0  0  0  0
   44.4120   25.3190   35.8450 H   0  0  0  0  0  0  0  0  0  0  0  0
   43.9900   27.4610   34.3190 N   0  0  0  0  0  0  0  0  0  0  0  0
   43.6510   28.3290   33.8430 H   0  0  0  0  0  0  0  0  0  0  0  0
   44.9770   27.3750   34.6450 H   0  0  0  0  0  0  0  0  0  0  0  0
   36.8230   27.4490   33.5220 C   0  0  0  0  0  0  0  0  0  0  0  0
   37.0340   27.8270   32.2040 C   0  0  0  0  0  0  0  0  0  0  0  0
   36.6050   29.0840   31.7910 C   0  0  0  0  0  0  0  0  0  0  0  0
   35.9820   29.9060   32.7230 N   0  0  0  0  0  0  0  0  0  0  0  0
   35.7910   29.5110   33.9990 C   0  0  0  0  0  0  0  0  0  0  0  0
   36.2220   28.2930   34.3420 N   0  0  0  0  0  0  0  0  0  0  0  0
   37.4720   27.4310   31.2970 H   0  0  0  0  0  0  0  0  0  0  0  0
   36.6440   29.6050   30.8590 H   0  0  0  0  0  0  0  0  0  0  0  0
   35.1340   30.3860   34.9660 C   0  0  0  0  0  0  0  0  0  0  0  0
   35.9080   31.2630   35.6970 C   0  0  0  0  0  0  0  0  0  0  0  0
   36.9630   31.3420   35.5980 H   0  0  0  0  0  0  0  0  0  0  0  0
   35.2620   32.0830   36.6080 C   0  0  0  0  0  3  0  0  0  0  0  0
   33.8900   32.0070   36.7630 C   0  0  0  0  0  0  0  0  0  0  0  0
   33.3320   32.6300   37.4660 H   0  0  0  0  0  0  0  0  0  0  0  0
   33.1610   31.1040   35.9990 C   0  0  0  0  0  0  0  0  0  0  0  0
   32.0740   31.0080   36.0860 H   0  0  0  0  0  0  0  0  0  0  0  0
   33.7580   30.2520   35.0650 C   0  0  0  0  0  3  0  0  0  0  0  0
  1  2  1  0  0  0  0
  1  7  1  1  0  0  0
  2  8  1  0  0  0  0
  2  9  1  0  0  0  0
  3 10  1  6  0  0  0
  3 19  1  0  0  0  0
  3  2  1  0  0  0  0
  4  3  1  0  0  0  0
  4 12  1  0  0  0  0
  5  4  1  0  0  0  0
  5 14  1  0  0  0  0
  6  5  1  0  0  0  0
  6  1  1  0  0  0  0
 11  4  1  0  0  0  0
 13  5  1  0  0  0  0
 15  6  1  0  0  0  0
 16  6  1  0  0  0  0
 17 18  1  0  0  0  0
 18 19  2  0  0  0  0
 18 23  1  0  0  0  0
 19 20  1  0  0  0  0
 20 24  1  0  0  0  0
 20 21  2  0  0  0  0
 21 25  1  0  0  0  0
 22 21  1  0  0  0  0
 22 26  1  0  0  0  0
 23 22  2  0  0  0  0
 27 23  1  0  0  0  0
 27 29  1  0  0  0  0
 28 27  1  0  0  0  0
 30  1  1  0  0  0  0
 30 35  1  0  0  0  0
 31 30  2  0  0  0  0
 32 31  1  0  0  0  0
 32 33  2  0  0  0  0
 33 34  1  0  0  0  0
 34 35  2  0  0  0  0
 34 38  1  0  0  0  0
 36 31  1  0  0  0  0
 37 32  1  0  0  0  0
 38 46  2  0  0  0  0
 38 39  1  0  0  0  0
 39 41  2  0  0  0  0
 40 39  1  0  0  0  0
 41 42  1  0  0  0  0
 42 43  1  0  0  0  0
 44 45  1  0  0  0  0
 44 42  2  0  0  0  0
 46 44  1  0  0  0  0
M  END
>  <minimizedAffinity>
-6.31086016

$$$$
