
 OpenBabel03272507553D

 23 24  0  0  0  0  0  0  0  0999 V2000
   34.9420   29.5410   50.0520 C   0  0  0  0  0  0  0  0  0  0  0  0
   36.1540   30.1950   49.6930 C   0  0  0  0  0  0  0  0  0  0  0  0
   36.3610   30.5360   48.3650 C   0  0  0  0  0  0  0  0  0  0  0  0
   35.3680   30.2190   47.4670 N   0  0  0  0  0  0  0  0  0  0  0  0
   34.2300   29.6030   47.8270 C   0  0  0  0  0  0  0  0  0  0  0  0
   34.0170   29.2680   49.0960 N   0  0  0  0  0  0  0  0  0  0  0  0
   33.3460   29.3840   46.7500 N   0  0  0  0  0  0  0  0  0  0  0  0
   34.7920   29.2780   51.0930 H   0  0  0  0  0  0  0  0  0  0  0  0
   32.9750   28.3950   46.6620 H   0  0  0  0  0  0  0  0  0  0  0  0
   32.9990   30.0500   46.0250 H   0  0  0  0  0  0  0  0  0  0  0  0
   37.5080   31.2450   47.8410 C   0  0  0  0  0  0  0  0  0  0  0  0
   38.1300   32.4450   48.0540 C   0  0  0  0  0  0  0  0  0  0  0  0
   37.6900   33.0070   48.8550 H   0  0  0  0  0  0  0  0  0  0  0  0
   39.2200   32.8760   47.3430 C   0  0  0  0  0  3  0  0  0  0  0  0
   39.7820   32.1160   46.3420 C   0  0  0  0  0  0  0  0  0  0  0  0
   40.6310   32.5990   45.8830 H   0  0  0  0  0  0  0  0  0  0  0  0
   39.1960   30.8960   46.0860 C   0  0  0  0  0  0  0  0  0  0  0  0
   39.6730   30.3410   45.2930 H   0  0  0  0  0  0  0  0  0  0  0  0
   38.0990   30.4850   46.8140 C   0  0  0  0  0  3  0  0  0  0  0  0
   37.1380   30.5060   50.7620 C   0  0  0  0  0  0  0  0  0  0  0  0
   38.4070   30.1200   50.4230 F   0  0  0  0  0  0  0  0  0  0  0  0
   37.1160   31.8700   50.9760 F   0  0  0  0  0  0  0  0  0  0  0  0
   36.8190   29.8940   51.9640 F   0  0  0  0  0  0  0  0  0  0  0  0
  1  8  1  0  0  0  0
  2  1  1  0  0  0  0
  2 20  1  0  0  0  0
  3  2  2  0  0  0  0
  4  5  2  0  0  0  0
  4  3  1  0  0  0  0
  5  6  1  0  0  0  0
  6  1  2  0  0  0  0
  7  5  1  0  0  0  0
  9  7  1  0  0  0  0
 10  7  1  0  0  0  0
 11 12  1  0  0  0  0
 11  3  1  0  0  0  0
 12 13  1  0  0  0  0
 14 12  2  0  0  0  0
 15 14  1  0  0  0  0
 16 15  1  0  0  0  0
 17 15  2  0  0  0  0
 17 19  1  0  0  0  0
 18 17  1  0  0  0  0
 19 11  2  0  0  0  0
 20 22  1  0  0  0  0
 20 23  1  0  0  0  0
 21 20  1  0  0  0  0
M  END
>  <minimizedAffinity>
-5.87558413

>  <minimizedRMSD>
1.35598838

$$$$
