
 OpenBabel03272507553D

 23 24  0  0  0  0  0  0  0  0999 V2000
   35.5600   30.5140   48.6870 C   0  0  0  0  0  0  0  0  0  0  0  0
   36.7560   31.1240   48.2160 C   0  0  0  0  0  0  0  0  0  0  0  0
   37.0730   31.0230   46.8700 C   0  0  0  0  0  0  0  0  0  0  0  0
   36.1970   30.3330   46.0640 N   0  0  0  0  0  0  0  0  0  0  0  0
   35.0710   29.7650   46.5280 C   0  0  0  0  0  0  0  0  0  0  0  0
   34.7550   29.8520   47.8160 N   0  0  0  0  0  0  0  0  0  0  0  0
   34.3160   29.1190   45.5280 N   0  0  0  0  0  0  0  0  0  0  0  0
   35.3230   30.5980   49.7420 H   0  0  0  0  0  0  0  0  0  0  0  0
   34.0220   28.1260   45.7540 H   0  0  0  0  0  0  0  0  0  0  0  0
   34.0010   29.4690   44.5960 H   0  0  0  0  0  0  0  0  0  0  0  0
   38.2170   31.6240   46.2210 C   0  0  0  0  0  0  0  0  0  0  0  0
   38.5010   32.7910   45.5670 C   0  0  0  0  0  0  0  0  0  0  0  0
   37.6780   33.4810   45.5670 H   0  0  0  0  0  0  0  0  0  0  0  0
   39.7170   33.0710   44.9970 C   0  0  0  0  0  3  0  0  0  0  0  0
   40.7630   32.1780   45.0420 C   0  0  0  0  0  0  0  0  0  0  0  0
   41.6460   32.5510   44.5470 H   0  0  0  0  0  0  0  0  0  0  0  0
   40.5320   30.9840   45.6910 C   0  0  0  0  0  0  0  0  0  0  0  0
   41.3830   30.3210   45.6980 H   0  0  0  0  0  0  0  0  0  0  0  0
   39.3000   30.7270   46.2550 C   0  0  0  0  0  3  0  0  0  0  0  0
   37.6060   31.8640   49.1840 C   0  0  0  0  0  0  0  0  0  0  0  0
   38.8030   31.2400   49.4030 F   0  0  0  0  0  0  0  0  0  0  0  0
   37.8330   33.1260   48.6710 F   0  0  0  0  0  0  0  0  0  0  0  0
   36.9840   32.0250   50.4130 F   0  0  0  0  0  0  0  0  0  0  0  0
  1  8  1  0  0  0  0
  2  1  1  0  0  0  0
  2 20  1  0  0  0  0
  3  2  2  0  0  0  0
  4  5  2  0  0  0  0
  4  3  1  0  0  0  0
  5  6  1  0  0  0  0
  6  1  2  0  0  0  0
  7  9  1  0  0  0  0
  7  5  1  0  0  0  0
 10  7  1  0  0  0  0
 11 19  1  0  0  0  0
 11  3  1  0  0  0  0
 12 11  2  0  0  0  0
 13 12  1  0  0  0  0
 14 15  2  0  0  0  0
 14 12  1  0  0  0  0
 15 17  1  0  0  0  0
 16 15  1  0  0  0  0
 17 18  1  0  0  0  0
 17 19  2  0  0  0  0
 20 21  1  0  0  0  0
 20 23  1  0  0  0  0
 22 20  1  0  0  0  0
M  END
>  <minimizedAffinity>
-5.47588921

>  <minimizedRMSD>
2.40097928

$$$$
