
 OpenBabel03272506023D

 46 49  0  0  1  0  0  0  0  0999 V2000
   35.0960   30.0270   49.1410 C   0  0  2  0  0  0  0  0  0  0  0  0
   36.0390   31.1160   48.9060 C   0  0  0  0  0  0  0  0  0  0  0  0
   37.5250   30.6470   48.9940 C   0  0  2  0  0  0  0  0  0  0  0  0
   37.8670   30.0550   50.2620 C   0  0  0  0  0  0  0  0  0  0  0  0
   36.7700   29.1590   50.8410 C   0  0  0  0  0  0  0  0  0  0  0  0
   35.7570   28.8040   49.7940 C   0  0  0  0  0  0  0  0  0  0  0  0
   34.3350   30.3360   49.9190 H   0  0  0  0  0  0  0  0  0  0  0  0
   36.0460   31.6970   48.0080 H   0  0  0  0  0  0  0  0  0  0  0  0
   35.9930   31.8810   49.7510 H   0  0  0  0  0  0  0  0  0  0  0  0
   37.7080   29.9810   48.1300 H   0  0  0  0  0  0  0  0  0  0  0  0
   38.8290   29.5090   50.1720 H   0  0  0  0  0  0  0  0  0  0  0  0
   38.0450   30.8170   51.0440 H   0  0  0  0  0  0  0  0  0  0  0  0
   37.2600   28.2150   51.1350 H   0  0  0  0  0  0  0  0  0  0  0  0
   36.2960   29.5710   51.7340 H   0  0  0  0  0  0  0  0  0  0  0  0
   36.2510   28.1900   49.0080 H   0  0  0  0  0  0  0  0  0  0  0  0
   34.9730   28.2020   50.2680 H   0  0  0  0  0  0  0  0  0  0  0  0
   38.5040   31.0630   46.2390 Cl  0  0  0  0  0  0  0  0  0  0  0  0
   38.8330   32.1930   47.5340 C   0  0  0  0  0  0  0  0  0  0  0  0
   38.2870   31.9150   48.7610 C   0  0  0  0  0  0  0  0  0  0  0  0
   38.5670   32.8720   49.7140 C   0  0  0  0  0  0  0  0  0  0  0  0
   39.3240   34.0010   49.4640 C   0  0  0  0  0  0  0  0  0  0  0  0
   39.8440   34.2070   48.1880 C   0  0  0  0  0  0  0  0  0  0  0  0
   39.5890   33.2750   47.1980 C   0  0  0  0  0  0  0  0  0  0  0  0
   38.1690   32.7340   50.7100 H   0  0  0  0  0  0  0  0  0  0  0  0
   39.4920   34.6970   50.2730 H   0  0  0  0  0  0  0  0  0  0  0  0
   40.4390   35.0880   47.9790 H   0  0  0  0  0  0  0  0  0  0  0  0
   40.1070   33.4750   45.8850 N   0  0  0  0  0  0  0  0  0  0  0  0
   39.7680   32.8720   45.1000 H   0  0  0  0  0  0  0  0  0  0  0  0
   40.8180   34.2210   45.7230 H   0  0  0  0  0  0  0  0  0  0  0  0
   34.3740   29.5360   47.9710 C   0  0  0  0  0  0  0  0  0  0  0  0
   35.0150   29.7730   46.7640 C   0  0  0  0  0  0  0  0  0  0  0  0
   34.4250   29.3170   45.5900 C   0  0  0  0  0  0  0  0  0  0  0  0
   33.2130   28.6430   45.6830 N   0  0  0  0  0  0  0  0  0  0  0  0
   32.6110   28.4270   46.8710 C   0  0  0  0  0  0  0  0  0  0  0  0
   33.2230   28.8860   47.9680 N   0  0  0  0  0  0  0  0  0  0  0  0
   35.9130   30.2490   46.3930 H   0  0  0  0  0  0  0  0  0  0  0  0
   34.7020   29.3680   44.5600 H   0  0  0  0  0  0  0  0  0  0  0  0
   31.3390   27.7160   46.9510 C   0  0  0  0  0  0  0  0  0  0  0  0
   30.2690   28.3400   47.5580 C   0  0  0  0  0  0  0  0  0  0  0  0
   30.3160   29.3170   47.9760 H   0  0  0  0  0  0  0  0  0  0  0  0
   29.0720   27.6460   47.6230 C   0  0  0  0  0  3  0  0  0  0  0  0
   28.9760   26.3740   47.0890 C   0  0  0  0  0  0  0  0  0  0  0  0
   28.0560   25.7840   47.1120 H   0  0  0  0  0  0  0  0  0  0  0  0
   30.0850   25.7960   46.4880 C   0  0  0  0  0  0  0  0  0  0  0  0
   30.0570   24.7910   46.0520 H   0  0  0  0  0  0  0  0  0  0  0  0
   31.3190   26.4460   46.3940 C   0  0  0  0  0  3  0  0  0  0  0  0
  1  6  1  0  0  0  0
  1  7  1  1  0  0  0
  2  3  1  0  0  0  0
  2  1  1  0  0  0  0
  2  9  1  0  0  0  0
  3 10  1  6  0  0  0
  3  4  1  0  0  0  0
  4  5  1  0  0  0  0
  4 12  1  0  0  0  0
  5 13  1  0  0  0  0
  5 14  1  0  0  0  0
  6 16  1  0  0  0  0
  6  5  1  0  0  0  0
  8  2  1  0  0  0  0
 11  4  1  0  0  0  0
 15  6  1  0  0  0  0
 17 18  1  0  0  0  0
 18 19  1  0  0  0  0
 19  3  1  0  0  0  0
 19 20  2  0  0  0  0
 20 24  1  0  0  0  0
 21 20  1  0  0  0  0
 21 25  1  0  0  0  0
 22 21  2  0  0  0  0
 23 18  2  0  0  0  0
 23 22  1  0  0  0  0
 26 22  1  0  0  0  0
 27 23  1  0  0  0  0
 28 27  1  0  0  0  0
 29 27  1  0  0  0  0
 30  1  1  0  0  0  0
 31 30  2  0  0  0  0
 32 33  2  0  0  0  0
 32 31  1  0  0  0  0
 33 34  1  0  0  0  0
 34 38  1  0  0  0  0
 34 35  2  0  0  0  0
 35 30  1  0  0  0  0
 36 31  1  0  0  0  0
 37 32  1  0  0  0  0
 38 39  1  0  0  0  0
 39 41  2  0  0  0  0
 39 40  1  0  0  0  0
 42 43  1  0  0  0  0
 42 41  1  0  0  0  0
 44 42  2  0  0  0  0
 45 44  1  0  0  0  0
 46 44  1  0  0  0  0
 46 38  2  0  0  0  0
M  END
>  <minimizedAffinity>
-7.390769

>  <minimizedRMSD>
1.61338866

$$$$
