
 OpenBabel03272502113D

 26 28  0  0  0  0  0  0  0  0999 V2000
   38.0180   31.9780   49.0910 C   0  0  0  0  0  0  0  0  0  0  0  0
   38.5210   33.1150   49.6820 C   0  0  0  0  0  0  0  0  0  0  0  0
   39.3690   34.0200   49.0440 C   0  0  0  0  0  0  0  0  0  0  0  0
   39.7090   33.7450   47.7570 N   0  0  0  0  0  0  0  0  0  0  0  0
   39.2220   32.6350   47.1730 C   0  0  0  0  0  0  0  0  0  0  0  0
   38.4060   31.7810   47.8130 N   0  0  0  0  0  0  0  0  0  0  0  0
   38.2670   33.3640   50.7150 H   0  0  0  0  0  0  0  0  0  0  0  0
   39.7390   34.9030   49.5550 H   0  0  0  0  0  0  0  0  0  0  0  0
   37.4590   30.4050   50.9670 C   0  0  0  0  0  0  0  0  0  0  0  0
   37.1500   31.0630   49.7620 C   0  0  0  0  0  0  0  0  0  0  0  0
   35.9060   30.7790   49.2150 C   0  0  0  0  0  0  0  0  0  0  0  0
   35.0750   29.9180   49.8350 N   0  0  0  0  0  0  0  0  0  0  0  0
   35.4220   29.3020   51.0080 C   0  0  0  0  0  0  0  0  0  0  0  0
   36.6240   29.5570   51.5640 N   0  0  0  0  0  0  0  0  0  0  0  0
   38.4250   30.6090   51.4150 H   0  0  0  0  0  0  0  0  0  0  0  0
   35.5990   31.2550   48.2770 H   0  0  0  0  0  0  0  0  0  0  0  0
   34.6210   28.6470   51.3470 H   0  0  0  0  0  0  0  0  0  0  0  0
   39.5640   32.2980   45.7810 C   0  0  0  0  0  0  0  0  0  0  0  0
   40.2380   31.1260   45.5120 C   0  0  0  0  0  0  0  0  0  0  0  0
   40.5400   30.4190   46.2870 H   0  0  0  0  0  0  0  0  0  0  0  0
   40.5770   30.7750   44.2160 C   0  0  0  0  0  0  0  0  0  0  0  0
   40.2350   31.6120   43.1650 C   0  0  0  0  0  0  0  0  0  0  0  0
   40.4450   31.4470   42.1060 H   0  0  0  0  0  0  0  0  0  0  0  0
   39.5610   32.7900   43.4090 C   0  0  0  0  0  0  0  0  0  0  0  0
   39.2410   33.5220   42.6710 H   0  0  0  0  0  0  0  0  0  0  0  0
   39.2390   33.1080   44.7110 C   0  0  0  0  0  0  0  0  0  0  0  0
  1  2  1  0  0  0  0
  1 10  1  0  0  0  0
  2  7  1  0  0  0  0
  3  8  1  0  0  0  0
  3  2  2  0  0  0  0
  4  3  1  0  0  0  0
  5  4  2  0  0  0  0
  5  6  1  0  0  0  0
  6  1  2  0  0  0  0
  9 15  1  0  0  0  0
  9 14  1  0  0  0  0
 10  9  2  0  0  0  0
 11 10  1  0  0  0  0
 11 12  2  0  0  0  0
 12 13  1  0  0  0  0
 13 17  1  0  0  0  0
 13 14  2  0  0  0  0
 16 11  1  0  0  0  0
 18  5  1  0  0  0  0
 19 18  1  0  0  0  0
 19 20  1  0  0  0  0
 21 19  2  0  0  0  0
 22 24  2  0  0  0  0
 22 21  1  0  0  0  0
 23 22  1  0  0  0  0
 24 26  1  0  0  0  0
 25 24  1  0  0  0  0
 26 18  2  0  0  0  0
M  END
>  <minimizedAffinity>
-6.16729069

>  <minimizedRMSD>
0.40616551

$$$$
