
 OpenBabel03272500443D

 33 35  0  0  1  0  0  0  0  0999 V2000
   36.7060   24.2120   30.9220 C   0  0  0  0  0  0  0  0  0  0  0  0
   37.7780   23.3390   30.6960 C   0  0  0  0  0  0  0  0  0  0  0  0
   38.7520   23.2370   31.6760 C   0  0  0  0  0  0  0  0  0  0  0  0
   38.6270   23.9820   32.8080 N   0  0  0  0  0  0  0  0  0  0  0  0
   37.5960   24.8090   33.0050 C   0  0  0  0  0  0  0  0  0  0  0  0
   36.6300   24.9290   32.0620 N   0  0  0  0  0  0  0  0  0  0  0  0
   37.4780   25.5870   34.2040 N   0  0  0  0  0  0  0  0  0  0  0  0
   37.0780   26.9970   34.1590 C   0  0  1  0  0  0  0  0  0  0  0  0
   37.7620   27.8280   35.2030 C   0  0  0  0  0  0  0  0  0  0  0  0
   38.9500   27.0810   35.7350 C   0  0  0  0  0  0  0  0  0  0  0  0
   38.3980   25.8740   36.4710 C   0  0  0  0  0  0  0  0  0  0  0  0
   37.7590   24.9600   35.4790 C   0  0  0  0  0  0  0  0  0  0  0  0
   35.9040   24.3490   30.2040 H   0  0  0  0  0  0  0  0  0  0  0  0
   37.8160   22.7730   29.7660 H   0  0  0  0  0  0  0  0  0  0  0  0
   39.5970   22.5680   31.5290 H   0  0  0  0  0  0  0  0  0  0  0  0
   35.9970   26.9860   34.4200 H   0  0  0  0  0  0  0  0  0  0  0  0
   37.1340   28.1400   36.0440 H   0  0  0  0  0  0  0  0  0  0  0  0
   38.0910   28.7860   34.7160 H   0  0  0  0  0  0  0  0  0  0  0  0
   39.5140   26.6530   34.8750 H   0  0  0  0  0  0  0  0  0  0  0  0
   39.6240   27.6980   36.3540 H   0  0  0  0  0  0  0  0  0  0  0  0
   37.6860   26.2350   37.2560 H   0  0  0  0  0  0  0  0  0  0  0  0
   39.2180   25.3260   36.9750 H   0  0  0  0  0  0  0  0  0  0  0  0
   36.7750   24.6630   35.9080 H   0  0  0  0  0  0  0  0  0  0  0  0
   38.3130   24.0140   35.3290 H   0  0  0  0  0  0  0  0  0  0  0  0
   37.2160   27.5540   32.7960 C   0  0  0  0  0  0  0  0  0  0  0  0
   38.3960   27.5640   32.0600 C   0  0  0  0  0  0  0  0  0  0  0  0
   39.2780   27.1290   32.5230 H   0  0  0  0  0  0  0  0  0  0  0  0
   38.4880   28.0890   30.7950 C   0  0  0  0  0  3  0  0  0  0  0  0
   37.3720   28.6440   30.1940 C   0  0  0  0  0  0  0  0  0  0  0  0
   37.4100   29.0680   29.1970 H   0  0  0  0  0  0  0  0  0  0  0  0
   36.1820   28.6600   30.8780 C   0  0  0  0  0  0  0  0  0  0  0  0
   35.3270   29.0980   30.3890 H   0  0  0  0  0  0  0  0  0  0  0  0
   36.1280   28.1170   32.1600 C   0  0  0  0  0  3  0  0  0  0  0  0
  1  6  1  0  0  0  0
  2  1  2  0  0  0  0
  2  3  1  0  0  0  0
  3  4  2  0  0  0  0
  4  5  1  0  0  0  0
  5  7  1  0  0  0  0
  6  5  2  0  0  0  0
  7 12  1  0  0  0  0
  8  7  1  0  0  0  0
  8 16  1  1  0  0  0
  8  9  1  0  0  0  0
  9 10  1  0  0  0  0
  9 17  1  0  0  0  0
 10 20  1  0  0  0  0
 10 11  1  0  0  0  0
 11 22  1  0  0  0  0
 11 21  1  0  0  0  0
 12 23  1  0  0  0  0
 12 11  1  0  0  0  0
 13  1  1  0  0  0  0
 14  2  1  0  0  0  0
 15  3  1  0  0  0  0
 18  9  1  0  0  0  0
 19 10  1  0  0  0  0
 24 12  1  0  0  0  0
 25  8  1  0  0  0  0
 26 27  1  0  0  0  0
 26 25  2  0  0  0  0
 28 26  1  0  0  0  0
 29 28  2  0  0  0  0
 29 31  1  0  0  0  0
 30 29  1  0  0  0  0
 31 33  2  0  0  0  0
 32 31  1  0  0  0  0
 33 25  1  0  0  0  0
M  END
>  <minimizedAffinity>
-4.95754433

$$$$

 OpenBabel03272500443D

 33 35  0  0  1  0  0  0  0  0999 V2000
   38.0130   23.7240   36.3260 C   0  0  0  0  0  0  0  0  0  0  0  0
   37.8120   22.5280   35.6260 C   0  0  0  0  0  0  0  0  0  0  0  0
   38.7560   22.1610   34.6800 C   0  0  0  0  0  0  0  0  0  0  0  0
   39.8300   22.9710   34.4730 N   0  0  0  0  0  0  0  0  0  0  0  0
   40.0030   24.1090   35.1530 C   0  0  0  0  0  0  0  0  0  0  0  0
   39.0950   24.4910   36.0830 N   0  0  0  0  0  0  0  0  0  0  0  0
   41.1410   24.9510   34.9230 N   0  0  0  0  0  0  0  0  0  0  0  0
   41.0020   26.4080   34.8310 C   0  0  1  0  0  0  0  0  0  0  0  0
   41.9460   27.0200   33.8400 C   0  0  0  0  0  0  0  0  0  0  0  0
   42.4860   25.9490   32.9390 C   0  0  0  0  0  0  0  0  0  0  0  0
   43.3380   25.0460   33.8120 C   0  0  0  0  0  0  0  0  0  0  0  0
   42.4480   24.3440   34.7850 C   0  0  0  0  0  0  0  0  0  0  0  0
   37.3210   24.0800   37.0820 H   0  0  0  0  0  0  0  0  0  0  0  0
   36.9300   21.9270   35.8420 H   0  0  0  0  0  0  0  0  0  0  0  0
   38.6270   21.2370   34.1190 H   0  0  0  0  0  0  0  0  0  0  0  0
   41.3070   26.7790   35.8340 H   0  0  0  0  0  0  0  0  0  0  0  0
   42.7860   27.5760   34.2710 H   0  0  0  0  0  0  0  0  0  0  0  0
   41.3720   27.7790   33.2430 H   0  0  0  0  0  0  0  0  0  0  0  0
   41.6390   25.3040   32.6080 H   0  0  0  0  0  0  0  0  0  0  0  0
   43.0250   26.3380   32.0580 H   0  0  0  0  0  0  0  0  0  0  0  0
   44.1210   25.6740   34.3090 H   0  0  0  0  0  0  0  0  0  0  0  0
   43.8480   24.2840   33.1920 H   0  0  0  0  0  0  0  0  0  0  0  0
   42.9410   24.4240   35.7810 H   0  0  0  0  0  0  0  0  0  0  0  0
   42.3510   23.2590   34.5910 H   0  0  0  0  0  0  0  0  0  0  0  0
   39.5940   26.8020   34.6060 C   0  0  0  0  0  0  0  0  0  0  0  0
   38.7650   27.3640   35.5710 C   0  0  0  0  0  0  0  0  0  0  0  0
   39.1850   27.5260   36.5600 H   0  0  0  0  0  0  0  0  0  0  0  0
   37.4610   27.7190   35.3260 C   0  0  0  0  0  3  0  0  0  0  0  0
   36.9140   27.5200   34.0720 C   0  0  0  0  0  0  0  0  0  0  0  0
   35.8870   27.7870   33.8450 H   0  0  0  0  0  0  0  0  0  0  0  0
   37.6900   26.9660   33.0830 C   0  0  0  0  0  0  0  0  0  0  0  0
   37.2410   26.8200   32.1140 H   0  0  0  0  0  0  0  0  0  0  0  0
   39.0090   26.6200   33.3690 C   0  0  0  0  0  3  0  0  0  0  0  0
  1 13  1  0  0  0  0
  2 14  1  0  0  0  0
  2  1  2  0  0  0  0
  3  2  1  0  0  0  0
  4  3  2  0  0  0  0
  4  5  1  0  0  0  0
  5  6  2  0  0  0  0
  6  1  1  0  0  0  0
  7  5  1  0  0  0  0
  8  7  1  0  0  0  0
  8 16  1  1  0  0  0
  9 17  1  0  0  0  0
  9  8  1  0  0  0  0
 10 11  1  0  0  0  0
 10  9  1  0  0  0  0
 11 21  1  0  0  0  0
 11 12  1  0  0  0  0
 12  7  1  0  0  0  0
 12 23  1  0  0  0  0
 15  3  1  0  0  0  0
 18  9  1  0  0  0  0
 19 10  1  0  0  0  0
 20 10  1  0  0  0  0
 22 11  1  0  0  0  0
 24 12  1  0  0  0  0
 25  8  1  0  0  0  0
 25 26  1  0  0  0  0
 26 27  1  0  0  0  0
 28 26  2  0  0  0  0
 29 28  1  0  0  0  0
 30 29  1  0  0  0  0
 31 33  1  0  0  0  0
 31 29  2  0  0  0  0
 32 31  1  0  0  0  0
 33 25  2  0  0  0  0
M  END
>  <minimizedAffinity>
-4.94908237

$$$$

 OpenBabel03272500443D

 33 35  0  0  1  0  0  0  0  0999 V2000
   41.1910   25.9750   32.8480 C   0  0  0  0  0  0  0  0  0  0  0  0
   42.3940   26.5310   33.3020 C   0  0  0  0  0  0  0  0  0  0  0  0
   42.8990   26.0870   34.5130 C   0  0  0  0  0  0  0  0  0  0  0  0
   42.2130   25.1370   35.2050 N   0  0  0  0  0  0  0  0  0  0  0  0
   41.0670   24.6180   34.7530 C   0  0  0  0  0  0  0  0  0  0  0  0
   40.5500   25.0350   33.5720 N   0  0  0  0  0  0  0  0  0  0  0  0
   40.3560   23.6160   35.4940 N   0  0  0  0  0  0  0  0  0  0  0  0
   38.8990   23.6760   35.6470 C   0  0  1  0  0  0  0  0  0  0  0  0
   38.4350   23.1780   36.9830 C   0  0  0  0  0  0  0  0  0  0  0  0
   39.5980   23.1350   37.9300 C   0  0  0  0  0  0  0  0  0  0  0  0
   40.5380   22.0670   37.4000 C   0  0  0  0  0  0  0  0  0  0  0  0
   41.0980   22.5280   36.0960 C   0  0  0  0  0  0  0  0  0  0  0  0
   40.7300   26.2690   31.9110 H   0  0  0  0  0  0  0  0  0  0  0  0
   42.8910   27.2890   32.6980 H   0  0  0  0  0  0  0  0  0  0  0  0
   43.8320   26.5010   34.8930 H   0  0  0  0  0  0  0  0  0  0  0  0
   38.5120   22.9600   34.8880 H   0  0  0  0  0  0  0  0  0  0  0  0
   37.9460   22.1980   36.9770 H   0  0  0  0  0  0  0  0  0  0  0  0
   37.6520   23.8900   37.3600 H   0  0  0  0  0  0  0  0  0  0  0  0
   40.1690   24.0860   37.8340 H   0  0  0  0  0  0  0  0  0  0  0  0
   39.3090   22.9760   38.9830 H   0  0  0  0  0  0  0  0  0  0  0  0
   39.9690   21.1060   37.3170 H   0  0  0  0  0  0  0  0  0  0  0  0
   41.3770   21.9120   38.1060 H   0  0  0  0  0  0  0  0  0  0  0  0
   41.0200   21.6670   35.3940 H   0  0  0  0  0  0  0  0  0  0  0  0
   42.1760   22.7750   36.1400 H   0  0  0  0  0  0  0  0  0  0  0  0
   38.3760   25.0200   35.3180 C   0  0  0  0  0  0  0  0  0  0  0  0
   38.5720   26.1570   36.0940 C   0  0  0  0  0  0  0  0  0  0  0  0
   39.1510   26.0470   37.0070 H   0  0  0  0  0  0  0  0  0  0  0  0
   38.0710   27.3910   35.7570 C   0  0  0  0  0  3  0  0  0  0  0  0
   37.3330   27.5450   34.5990 C   0  0  0  0  0  0  0  0  0  0  0  0
   36.9230   28.5050   34.3040 H   0  0  0  0  0  0  0  0  0  0  0  0
   37.1100   26.4530   33.7970 C   0  0  0  0  0  0  0  0  0  0  0  0
   36.5310   26.5980   32.8990 H   0  0  0  0  0  0  0  0  0  0  0  0
   37.6340   25.2170   34.1710 C   0  0  0  0  0  3  0  0  0  0  0  0
  1  2  2  0  0  0  0
  1  6  1  0  0  0  0
  2  3  1  0  0  0  0
  3 15  1  0  0  0  0
  3  4  2  0  0  0  0
  5  4  1  0  0  0  0
  5  7  1  0  0  0  0
  6  5  2  0  0  0  0
  7  8  1  0  0  0  0
  7 12  1  0  0  0  0
  8 16  1  6  0  0  0
  8  9  1  0  0  0  0
  9 18  1  0  0  0  0
  9 10  1  0  0  0  0
 10 20  1  0  0  0  0
 11 10  1  0  0  0  0
 11 22  1  0  0  0  0
 12 24  1  0  0  0  0
 12 11  1  0  0  0  0
 13  1  1  0  0  0  0
 14  2  1  0  0  0  0
 17  9  1  0  0  0  0
 19 10  1  0  0  0  0
 21 11  1  0  0  0  0
 23 12  1  0  0  0  0
 25  8  1  0  0  0  0
 25 26  1  0  0  0  0
 26 27  1  0  0  0  0
 28 26  2  0  0  0  0
 29 28  1  0  0  0  0
 30 29  1  0  0  0  0
 31 33  1  0  0  0  0
 31 29  2  0  0  0  0
 32 31  1  0  0  0  0
 33 25  2  0  0  0  0
M  END
>  <minimizedAffinity>
-4.83472586

$$$$

 OpenBabel03272500443D

 33 35  0  0  1  0  0  0  0  0999 V2000
   39.3480   21.6400   33.0290 C   0  0  0  0  0  0  0  0  0  0  0  0
   38.0700   21.1230   32.7810 C   0  0  0  0  0  0  0  0  0  0  0  0
   36.9990   22.0030   32.7920 C   0  0  0  0  0  0  0  0  0  0  0  0
   37.2320   23.3200   33.0400 N   0  0  0  0  0  0  0  0  0  0  0  0
   38.4610   23.7930   33.2730 C   0  0  0  0  0  0  0  0  0  0  0  0
   39.5250   22.9550   33.2690 N   0  0  0  0  0  0  0  0  0  0  0  0
   38.6900   25.1850   33.5320 N   0  0  0  0  0  0  0  0  0  0  0  0
   39.5980   25.6210   34.5970 C   0  0  1  0  0  0  0  0  0  0  0  0
   39.1380   26.8760   35.2750 C   0  0  0  0  0  0  0  0  0  0  0  0
   37.6920   27.1150   34.9540 C   0  0  0  0  0  0  0  0  0  0  0  0
   37.6290   27.4080   33.4650 C   0  0  0  0  0  0  0  0  0  0  0  0
   38.0090   26.1720   32.7190 C   0  0  0  0  0  0  0  0  0  0  0  0
   40.2360   21.0170   33.0380 H   0  0  0  0  0  0  0  0  0  0  0  0
   37.9550   20.0570   32.5910 H   0  0  0  0  0  0  0  0  0  0  0  0
   35.9940   21.6310   32.6040 H   0  0  0  0  0  0  0  0  0  0  0  0
   40.5440   25.8730   34.0690 H   0  0  0  0  0  0  0  0  0  0  0  0
   39.7080   27.7790   35.0330 H   0  0  0  0  0  0  0  0  0  0  0  0
   39.2730   26.7370   36.3820 H   0  0  0  0  0  0  0  0  0  0  0  0
   37.1380   26.1560   35.0760 H   0  0  0  0  0  0  0  0  0  0  0  0
   37.2220   27.8990   35.5720 H   0  0  0  0  0  0  0  0  0  0  0  0
   38.3040   28.2760   33.2490 H   0  0  0  0  0  0  0  0  0  0  0  0
   36.5990   27.6900   33.1740 H   0  0  0  0  0  0  0  0  0  0  0  0
   38.7330   26.4860   31.9320 H   0  0  0  0  0  0  0  0  0  0  0  0
   37.1650   25.7080   32.1740 H   0  0  0  0  0  0  0  0  0  0  0  0
   39.8820   24.5220   35.5460 C   0  0  0  0  0  0  0  0  0  0  0  0
   38.9570   23.9860   36.4360 C   0  0  0  0  0  0  0  0  0  0  0  0
   37.9540   24.4050   36.4290 H   0  0  0  0  0  0  0  0  0  0  0  0
   39.2550   22.9640   37.3040 C   0  0  0  0  0  3  0  0  0  0  0  0
   40.5270   22.4210   37.3220 C   0  0  0  0  0  0  0  0  0  0  0  0
   40.7960   21.6150   37.9950 H   0  0  0  0  0  0  0  0  0  0  0  0
   41.4780   22.9160   36.4640 C   0  0  0  0  0  0  0  0  0  0  0  0
   42.4620   22.4770   36.4970 H   0  0  0  0  0  0  0  0  0  0  0  0
   41.1380   23.9530   35.5970 C   0  0  0  0  0  3  0  0  0  0  0  0
  1 13  1  0  0  0  0
  1  6  1  0  0  0  0
  2  3  1  0  0  0  0
  2  1  2  0  0  0  0
  3  4  2  0  0  0  0
  4  5  1  0  0  0  0
  5  7  1  0  0  0  0
  6  5  2  0  0  0  0
  7  8  1  0  0  0  0
  8 16  1  6  0  0  0
  8  9  1  0  0  0  0
  8 25  1  0  0  0  0
  9 18  1  0  0  0  0
 10 19  1  0  0  0  0
 10  9  1  0  0  0  0
 10 20  1  0  0  0  0
 11 10  1  0  0  0  0
 12 11  1  0  0  0  0
 12  7  1  0  0  0  0
 14  2  1  0  0  0  0
 15  3  1  0  0  0  0
 17  9  1  0  0  0  0
 21 11  1  0  0  0  0
 22 11  1  0  0  0  0
 23 12  1  0  0  0  0
 24 12  1  0  0  0  0
 25 33  2  0  0  0  0
 25 26  1  0  0  0  0
 26 28  2  0  0  0  0
 27 26  1  0  0  0  0
 28 29  1  0  0  0  0
 29 30  1  0  0  0  0
 31 32  1  0  0  0  0
 31 29  2  0  0  0  0
 33 31  1  0  0  0  0
M  END
>  <minimizedAffinity>
-4.73333406

$$$$

 OpenBabel03272500443D

 33 35  0  0  1  0  0  0  0  0999 V2000
   38.6810   25.4620   34.1710 C   0  0  0  0  0  0  0  0  0  0  0  0
   39.2430   26.7300   34.3690 C   0  0  0  0  0  0  0  0  0  0  0  0
   40.5770   26.7990   34.7380 C   0  0  0  0  0  0  0  0  0  0  0  0
   41.2780   25.6430   34.8930 N   0  0  0  0  0  0  0  0  0  0  0  0
   40.7220   24.4440   34.6990 C   0  0  0  0  0  0  0  0  0  0  0  0
   39.4200   24.3470   34.3370 N   0  0  0  0  0  0  0  0  0  0  0  0
   41.4760   23.2340   34.8650 N   0  0  0  0  0  0  0  0  0  0  0  0
   40.9090   22.0760   35.5620 C   0  0  1  0  0  0  0  0  0  0  0  0
   41.9320   21.3180   36.3550 C   0  0  0  0  0  0  0  0  0  0  0  0
   43.1520   22.1720   36.5390 C   0  0  0  0  0  0  0  0  0  0  0  0
   43.7570   22.3520   35.1580 C   0  0  0  0  0  0  0  0  0  0  0  0
   42.8190   23.1640   34.3280 C   0  0  0  0  0  0  0  0  0  0  0  0
   37.6450   25.3230   33.8820 H   0  0  0  0  0  0  0  0  0  0  0  0
   38.6240   27.6140   34.2280 H   0  0  0  0  0  0  0  0  0  0  0  0
   41.0420   27.7700   34.9000 H   0  0  0  0  0  0  0  0  0  0  0  0
   40.5730   21.3990   34.7460 H   0  0  0  0  0  0  0  0  0  0  0  0
   42.2350   20.3540   35.9340 H   0  0  0  0  0  0  0  0  0  0  0  0
   41.4770   21.0700   37.3520 H   0  0  0  0  0  0  0  0  0  0  0  0
   42.8280   23.1940   36.8400 H   0  0  0  0  0  0  0  0  0  0  0  0
   43.8680   21.7730   37.2780 H   0  0  0  0  0  0  0  0  0  0  0  0
   43.9590   21.3380   34.7260 H   0  0  0  0  0  0  0  0  0  0  0  0
   44.7200   22.8950   35.2300 H   0  0  0  0  0  0  0  0  0  0  0  0
   42.7380   22.6490   33.3430 H   0  0  0  0  0  0  0  0  0  0  0  0
   43.1960   24.1790   34.0990 H   0  0  0  0  0  0  0  0  0  0  0  0
   39.7230   22.4540   36.3610 C   0  0  0  0  0  0  0  0  0  0  0  0
   38.4050   22.2680   35.9580 C   0  0  0  0  0  0  0  0  0  0  0  0
   38.2380   21.8110   34.9870 H   0  0  0  0  0  0  0  0  0  0  0  0
   37.3270   22.6320   36.7270 C   0  0  0  0  0  3  0  0  0  0  0  0
   37.5250   23.2130   37.9650 C   0  0  0  0  0  0  0  0  0  0  0  0
   36.6960   23.5130   38.5980 H   0  0  0  0  0  0  0  0  0  0  0  0
   38.8080   23.4200   38.4100 C   0  0  0  0  0  0  0  0  0  0  0  0
   38.9370   23.8750   39.3790 H   0  0  0  0  0  0  0  0  0  0  0  0
   39.8760   23.0380   37.6020 C   0  0  0  0  0  3  0  0  0  0  0  0
  1  6  2  0  0  0  0
  1  2  1  0  0  0  0
  2  3  2  0  0  0  0
  3  4  1  0  0  0  0
  3 15  1  0  0  0  0
  5  7  1  0  0  0  0
  5  4  2  0  0  0  0
  6  5  1  0  0  0  0
  7  8  1  0  0  0  0
  8 16  1  6  0  0  0
  8  9  1  0  0  0  0
  8 25  1  0  0  0  0
  9 10  1  0  0  0  0
  9 18  1  0  0  0  0
 10 19  1  0  0  0  0
 10 20  1  0  0  0  0
 11 22  1  0  0  0  0
 11 10  1  0  0  0  0
 12  7  1  0  0  0  0
 12 11  1  0  0  0  0
 13  1  1  0  0  0  0
 14  2  1  0  0  0  0
 17  9  1  0  0  0  0
 21 11  1  0  0  0  0
 23 12  1  0  0  0  0
 24 12  1  0  0  0  0
 25 33  1  0  0  0  0
 26 25  2  0  0  0  0
 26 28  1  0  0  0  0
 27 26  1  0  0  0  0
 28 29  2  0  0  0  0
 29 31  1  0  0  0  0
 29 30  1  0  0  0  0
 31 32  1  0  0  0  0
 33 31  2  0  0  0  0
M  END
>  <minimizedAffinity>
-4.69553566

$$$$

 OpenBabel03272500443D

 33 35  0  0  1  0  0  0  0  0999 V2000
   31.8690   29.0510   33.0400 C   0  0  0  0  0  0  0  0  0  0  0  0
   31.2080   28.2240   33.9570 C   0  0  0  0  0  0  0  0  0  0  0  0
   31.2750   28.5580   35.3000 C   0  0  0  0  0  0  0  0  0  0  0  0
   31.9740   29.6670   35.6690 N   0  0  0  0  0  0  0  0  0  0  0  0
   32.5970   30.4430   34.7770 C   0  0  0  0  0  0  0  0  0  0  0  0
   32.5480   30.1390   33.4570 N   0  0  0  0  0  0  0  0  0  0  0  0
   33.3290   31.6090   35.1820 N   0  0  0  0  0  0  0  0  0  0  0  0
   34.6420   31.9180   34.6090 C   0  0  1  0  0  0  0  0  0  0  0  0
   35.5740   32.5490   35.6000 C   0  0  0  0  0  0  0  0  0  0  0  0
   35.0500   32.3250   36.9880 C   0  0  0  0  0  0  0  0  0  0  0  0
   33.7550   33.1110   37.0870 C   0  0  0  0  0  0  0  0  0  0  0  0
   32.7500   32.4920   36.1730 C   0  0  0  0  0  0  0  0  0  0  0  0
   31.8650   28.8580   31.9730 H   0  0  0  0  0  0  0  0  0  0  0  0
   30.6680   27.3520   33.5930 H   0  0  0  0  0  0  0  0  0  0  0  0
   30.7720   27.9350   36.0370 H   0  0  0  0  0  0  0  0  0  0  0  0
   34.4320   32.6880   33.8350 H   0  0  0  0  0  0  0  0  0  0  0  0
   35.7570   33.6200   35.4600 H   0  0  0  0  0  0  0  0  0  0  0  0
   36.5800   32.0640   35.4810 H   0  0  0  0  0  0  0  0  0  0  0  0
   34.7410   31.2590   37.0830 H   0  0  0  0  0  0  0  0  0  0  0  0
   35.7730   32.5770   37.7830 H   0  0  0  0  0  0  0  0  0  0  0  0
   33.9730   34.1810   36.8390 H   0  0  0  0  0  0  0  0  0  0  0  0
   33.3610   33.0690   38.1210 H   0  0  0  0  0  0  0  0  0  0  0  0
   32.2740   33.3280   35.6110 H   0  0  0  0  0  0  0  0  0  0  0  0
   31.9220   31.9860   36.7040 H   0  0  0  0  0  0  0  0  0  0  0  0
   35.2280   30.7390   33.9350 C   0  0  0  0  0  0  0  0  0  0  0  0
   35.6270   29.5740   34.5820 C   0  0  0  0  0  0  0  0  0  0  0  0
   35.4970   29.5310   35.6600 H   0  0  0  0  0  0  0  0  0  0  0  0
   36.1680   28.4970   33.9240 C   0  0  0  0  0  3  0  0  0  0  0  0
   36.3390   28.5400   32.5530 C   0  0  0  0  0  0  0  0  0  0  0  0
   36.7640   27.7070   32.0020 H   0  0  0  0  0  0  0  0  0  0  0  0
   35.9620   29.6670   31.8660 C   0  0  0  0  0  0  0  0  0  0  0  0
   36.1050   29.6770   30.7970 H   0  0  0  0  0  0  0  0  0  0  0  0
   35.4170   30.7400   32.5680 C   0  0  0  0  0  3  0  0  0  0  0  0
  1  6  2  0  0  0  0
  1  2  1  0  0  0  0
  2  3  2  0  0  0  0
  3  4  1  0  0  0  0
  3 15  1  0  0  0  0
  5  7  1  0  0  0  0
  5  4  2  0  0  0  0
  6  5  1  0  0  0  0
  7 12  1  0  0  0  0
  8 16  1  6  0  0  0
  8  7  1  0  0  0  0
  8  9  1  0  0  0  0
  9 10  1  0  0  0  0
 10 19  1  0  0  0  0
 10 11  1  0  0  0  0
 10 20  1  0  0  0  0
 11 22  1  0  0  0  0
 12 24  1  0  0  0  0
 12 11  1  0  0  0  0
 13  1  1  0  0  0  0
 14  2  1  0  0  0  0
 17  9  1  0  0  0  0
 18  9  1  0  0  0  0
 21 11  1  0  0  0  0
 23 12  1  0  0  0  0
 25 26  1  0  0  0  0
 25  8  1  0  0  0  0
 26 27  1  0  0  0  0
 28 26  2  0  0  0  0
 29 28  1  0  0  0  0
 30 29  1  0  0  0  0
 31 29  2  0  0  0  0
 31 33  1  0  0  0  0
 32 31  1  0  0  0  0
 33 25  2  0  0  0  0
M  END
>  <minimizedAffinity>
-4.66770029

$$$$

 OpenBabel03272500443D

 33 35  0  0  1  0  0  0  0  0999 V2000
   32.8530   33.1300   32.8720 C   0  0  0  0  0  0  0  0  0  0  0  0
   32.8930   32.5870   31.5810 C   0  0  0  0  0  0  0  0  0  0  0  0
   32.3660   31.3200   31.3920 C   0  0  0  0  0  0  0  0  0  0  0  0
   31.8360   30.6610   32.4590 N   0  0  0  0  0  0  0  0  0  0  0  0
   31.8090   31.1970   33.6830 C   0  0  0  0  0  0  0  0  0  0  0  0
   32.3170   32.4350   33.8960 N   0  0  0  0  0  0  0  0  0  0  0  0
   31.2460   30.4900   34.7970 N   0  0  0  0  0  0  0  0  0  0  0  0
   31.9140   30.4740   36.1020 C   0  0  1  0  0  0  0  0  0  0  0  0
   31.7490   29.1690   36.8220 C   0  0  0  0  0  0  0  0  0  0  0  0
   31.2950   28.1180   35.8520 C   0  0  0  0  0  0  0  0  0  0  0  0
   29.8990   28.5200   35.4110 C   0  0  0  0  0  0  0  0  0  0  0  0
   29.9940   29.7840   34.6210 C   0  0  0  0  0  0  0  0  0  0  0  0
   33.2450   34.1150   33.1020 H   0  0  0  0  0  0  0  0  0  0  0  0
   33.3320   33.1690   30.7730 H   0  0  0  0  0  0  0  0  0  0  0  0
   32.3820   30.8710   30.4010 H   0  0  0  0  0  0  0  0  0  0  0  0
   31.3710   31.2380   36.7000 H   0  0  0  0  0  0  0  0  0  0  0  0
   31.0610   29.1850   37.6740 H   0  0  0  0  0  0  0  0  0  0  0  0
   32.7450   28.8910   37.2590 H   0  0  0  0  0  0  0  0  0  0  0  0
   31.9150   28.1950   34.9300 H   0  0  0  0  0  0  0  0  0  0  0  0
   31.3450   27.0910   36.2520 H   0  0  0  0  0  0  0  0  0  0  0  0
   29.2560   28.6210   36.3230 H   0  0  0  0  0  0  0  0  0  0  0  0
   29.4610   27.7350   34.7640 H   0  0  0  0  0  0  0  0  0  0  0  0
   29.1940   30.4590   35.0050 H   0  0  0  0  0  0  0  0  0  0  0  0
   29.7740   29.6500   33.5450 H   0  0  0  0  0  0  0  0  0  0  0  0
   33.3270   30.8970   35.9900 C   0  0  0  0  0  0  0  0  0  0  0  0
   34.2700   30.2960   35.1640 C   0  0  0  0  0  0  0  0  0  0  0  0
   33.9420   29.4560   34.5580 H   0  0  0  0  0  0  0  0  0  0  0  0
   35.5750   30.7160   35.0850 C   0  0  0  0  0  3  0  0  0  0  0  0
   36.0050   31.7840   35.8510 C   0  0  0  0  0  0  0  0  0  0  0  0
   37.0290   32.1410   35.8130 H   0  0  0  0  0  0  0  0  0  0  0  0
   35.1130   32.4120   36.6840 C   0  0  0  0  0  0  0  0  0  0  0  0
   35.4720   33.2420   37.2710 H   0  0  0  0  0  0  0  0  0  0  0  0
   33.7970   31.9580   36.7370 C   0  0  0  0  0  3  0  0  0  0  0  0
  1 13  1  0  0  0  0
  1  6  1  0  0  0  0
  2  1  2  0  0  0  0
  3  2  1  0  0  0  0
  3  4  2  0  0  0  0
  4  5  1  0  0  0  0
  5  6  2  0  0  0  0
  5  7  1  0  0  0  0
  7  8  1  0  0  0  0
  8 16  1  1  0  0  0
  8  9  1  0  0  0  0
  9 18  1  0  0  0  0
  9 17  1  0  0  0  0
 10 20  1  0  0  0  0
 10  9  1  0  0  0  0
 11 10  1  0  0  0  0
 11 21  1  0  0  0  0
 12  7  1  0  0  0  0
 12 23  1  0  0  0  0
 12 11  1  0  0  0  0
 14  2  1  0  0  0  0
 15  3  1  0  0  0  0
 19 10  1  0  0  0  0
 22 11  1  0  0  0  0
 24 12  1  0  0  0  0
 25  8  1  0  0  0  0
 25 33  1  0  0  0  0
 26 25  2  0  0  0  0
 27 26  1  0  0  0  0
 28 26  1  0  0  0  0
 28 29  2  0  0  0  0
 29 31  1  0  0  0  0
 30 29  1  0  0  0  0
 31 33  2  0  0  0  0
 31 32  1  0  0  0  0
M  END
>  <minimizedAffinity>
-4.62554884

$$$$

 OpenBabel03272500443D

 33 35  0  0  1  0  0  0  0  0999 V2000
   36.5650   28.6770   32.9870 C   0  0  0  0  0  0  0  0  0  0  0  0
   36.4530   29.2710   31.7230 C   0  0  0  0  0  0  0  0  0  0  0  0
   36.3700   28.4380   30.6190 C   0  0  0  0  0  0  0  0  0  0  0  0
   36.4000   27.0910   30.8060 N   0  0  0  0  0  0  0  0  0  0  0  0
   36.5070   26.5450   32.0220 C   0  0  0  0  0  0  0  0  0  0  0  0
   36.5900   27.3360   33.1190 N   0  0  0  0  0  0  0  0  0  0  0  0
   36.5370   25.1220   32.2030 N   0  0  0  0  0  0  0  0  0  0  0  0
   37.4840   24.4930   33.1290 C   0  0  1  0  0  0  0  0  0  0  0  0
   37.9770   23.1640   32.6410 C   0  0  0  0  0  0  0  0  0  0  0  0
   37.6810   23.0290   31.1770 C   0  0  0  0  0  0  0  0  0  0  0  0
   36.1690   22.9750   31.0510 C   0  0  0  0  0  0  0  0  0  0  0  0
   35.6090   24.2990   31.4550 C   0  0  0  0  0  0  0  0  0  0  0  0
   36.6350   29.2600   33.9000 H   0  0  0  0  0  0  0  0  0  0  0  0
   36.4350   30.3570   31.6450 H   0  0  0  0  0  0  0  0  0  0  0  0
   36.2820   28.8690   29.6230 H   0  0  0  0  0  0  0  0  0  0  0  0
   36.8850   24.2950   34.0440 H   0  0  0  0  0  0  0  0  0  0  0  0
   37.5740   22.2910   33.1660 H   0  0  0  0  0  0  0  0  0  0  0  0
   39.0850   23.1230   32.8200 H   0  0  0  0  0  0  0  0  0  0  0  0
   37.9720   23.9760   30.6670 H   0  0  0  0  0  0  0  0  0  0  0  0
   38.1870   22.1740   30.6960 H   0  0  0  0  0  0  0  0  0  0  0  0
   35.7920   22.1300   31.6820 H   0  0  0  0  0  0  0  0  0  0  0  0
   35.8790   22.7780   30.0010 H   0  0  0  0  0  0  0  0  0  0  0  0
   34.7540   24.0870   32.1380 H   0  0  0  0  0  0  0  0  0  0  0  0
   35.1770   24.8720   30.6130 H   0  0  0  0  0  0  0  0  0  0  0  0
   38.5800   25.4190   33.4890 C   0  0  0  0  0  0  0  0  0  0  0  0
   38.7820   25.9500   34.7590 C   0  0  0  0  0  0  0  0  0  0  0  0
   38.0840   25.6620   35.5390 H   0  0  0  0  0  0  0  0  0  0  0  0
   39.8130   26.8070   35.0590 C   0  0  0  0  0  3  0  0  0  0  0  0
   40.7090   27.1810   34.0750 C   0  0  0  0  0  0  0  0  0  0  0  0
   41.5330   27.8570   34.2770 H   0  0  0  0  0  0  0  0  0  0  0  0
   40.5530   26.6850   32.8040 C   0  0  0  0  0  0  0  0  0  0  0  0
   41.2650   26.9920   32.0540 H   0  0  0  0  0  0  0  0  0  0  0  0
   39.4960   25.8180   32.5380 C   0  0  0  0  0  3  0  0  0  0  0  0
  1  6  1  0  0  0  0
  1 13  1  0  0  0  0
  2  1  2  0  0  0  0
  3  4  2  0  0  0  0
  3  2  1  0  0  0  0
  4  5  1  0  0  0  0
  5  7  1  0  0  0  0
  5  6  2  0  0  0  0
  7  8  1  0  0  0  0
  8 25  1  0  0  0  0
  8 16  1  1  0  0  0
  9 18  1  0  0  0  0
  9  8  1  0  0  0  0
  9 17  1  0  0  0  0
 10  9  1  0  0  0  0
 11 10  1  0  0  0  0
 11 12  1  0  0  0  0
 11 21  1  0  0  0  0
 12 23  1  0  0  0  0
 12  7  1  0  0  0  0
 14  2  1  0  0  0  0
 15  3  1  0  0  0  0
 19 10  1  0  0  0  0
 20 10  1  0  0  0  0
 22 11  1  0  0  0  0
 24 12  1  0  0  0  0
 25 26  1  0  0  0  0
 26 28  2  0  0  0  0
 26 27  1  0  0  0  0
 29 30  1  0  0  0  0
 29 28  1  0  0  0  0
 31 29  2  0  0  0  0
 32 31  1  0  0  0  0
 33 31  1  0  0  0  0
 33 25  2  0  0  0  0
M  END
>  <minimizedAffinity>
-4.62389326

$$$$

 OpenBabel03272500443D

 33 35  0  0  1  0  0  0  0  0999 V2000
   37.9410   21.6190   33.6470 C   0  0  0  0  0  0  0  0  0  0  0  0
   36.7800   21.8920   32.9120 C   0  0  0  0  0  0  0  0  0  0  0  0
   36.6910   23.1150   32.2680 C   0  0  0  0  0  0  0  0  0  0  0  0
   37.7260   23.9930   32.3750 N   0  0  0  0  0  0  0  0  0  0  0  0
   38.8250   23.7120   33.0810 C   0  0  0  0  0  0  0  0  0  0  0  0
   38.9380   22.5240   33.7220 N   0  0  0  0  0  0  0  0  0  0  0  0
   39.9080   24.6480   33.1840 N   0  0  0  0  0  0  0  0  0  0  0  0
   40.5770   24.8990   34.4640 C   0  0  1  0  0  0  0  0  0  0  0  0
   41.0070   26.3260   34.6240 C   0  0  0  0  0  0  0  0  0  0  0  0
   40.2890   27.1790   33.6200 C   0  0  0  0  0  0  0  0  0  0  0  0
   40.7970   26.7500   32.2550 C   0  0  0  0  0  0  0  0  0  0  0  0
   40.3430   25.3510   31.9950 C   0  0  0  0  0  0  0  0  0  0  0  0
   38.0870   20.6850   34.1800 H   0  0  0  0  0  0  0  0  0  0  0  0
   35.9900   21.1440   32.8690 H   0  0  0  0  0  0  0  0  0  0  0  0
   35.8010   23.3570   31.6890 H   0  0  0  0  0  0  0  0  0  0  0  0
   41.5060   24.2890   34.4140 H   0  0  0  0  0  0  0  0  0  0  0  0
   42.0840   26.5060   34.5360 H   0  0  0  0  0  0  0  0  0  0  0  0
   40.7440   26.6480   35.6680 H   0  0  0  0  0  0  0  0  0  0  0  0
   39.2110   26.8960   33.6210 H   0  0  0  0  0  0  0  0  0  0  0  0
   40.3920   28.2630   33.8010 H   0  0  0  0  0  0  0  0  0  0  0  0
   41.9120   26.8570   32.2450 H   0  0  0  0  0  0  0  0  0  0  0  0
   40.3790   27.4060   31.4680 H   0  0  0  0  0  0  0  0  0  0  0  0
   41.2280   24.7970   31.6070 H   0  0  0  0  0  0  0  0  0  0  0  0
   39.5770   25.2770   31.2000 H   0  0  0  0  0  0  0  0  0  0  0  0
   39.7670   24.4090   35.6010 C   0  0  0  0  0  0  0  0  0  0  0  0
   38.5280   24.9220   35.9700 C   0  0  0  0  0  0  0  0  0  0  0  0
   38.1290   25.7410   35.3780 H   0  0  0  0  0  0  0  0  0  0  0  0
   37.8030   24.4420   37.0330 C   0  0  0  0  0  3  0  0  0  0  0  0
   38.2990   23.3990   37.7940 C   0  0  0  0  0  0  0  0  0  0  0  0
   37.7530   22.9970   38.6400 H   0  0  0  0  0  0  0  0  0  0  0  0
   39.5190   22.8570   37.4720 C   0  0  0  0  0  0  0  0  0  0  0  0
   39.8850   22.0460   38.0800 H   0  0  0  0  0  0  0  0  0  0  0  0
   40.2260   23.3710   36.3860 C   0  0  0  0  0  3  0  0  0  0  0  0
  1  6  1  0  0  0  0
  1 13  1  0  0  0  0
  2  1  2  0  0  0  0
  3  4  2  0  0  0  0
  3  2  1  0  0  0  0
  4  5  1  0  0  0  0
  5  7  1  0  0  0  0
  5  6  2  0  0  0  0
  7  8  1  0  0  0  0
  8 16  1  6  0  0  0
  8  9  1  0  0  0  0
  8 25  1  0  0  0  0
  9 18  1  0  0  0  0
 10 19  1  0  0  0  0
 10 20  1  0  0  0  0
 10  9  1  0  0  0  0
 11 10  1  0  0  0  0
 12 11  1  0  0  0  0
 12  7  1  0  0  0  0
 14  2  1  0  0  0  0
 15  3  1  0  0  0  0
 17  9  1  0  0  0  0
 21 11  1  0  0  0  0
 22 11  1  0  0  0  0
 23 12  1  0  0  0  0
 24 12  1  0  0  0  0
 25 26  2  0  0  0  0
 25 33  1  0  0  0  0
 26 28  1  0  0  0  0
 27 26  1  0  0  0  0
 28 29  2  0  0  0  0
 29 30  1  0  0  0  0
 31 29  1  0  0  0  0
 31 32  1  0  0  0  0
 33 31  2  0  0  0  0
M  END
>  <minimizedAffinity>
-4.59382725

$$$$
