
 OpenBabel03262520253D

 42 45  0  0  0  0  0  0  0  0999 V2000
   32.7050   30.4530   45.3880 C   0  0  0  0  0  0  0  0  0  0  0  0
   32.0980   29.1850   45.5440 C   0  0  0  0  0  0  0  0  0  0  0  0
   32.5720   28.1790   46.3200 C   0  0  0  0  0  0  0  0  0  0  0  0
   33.7010   28.3280   47.0230 C   0  0  0  0  0  0  0  0  0  0  0  0
   34.2930   29.5420   46.8790 C   0  0  0  0  0  0  0  0  0  0  0  0
   33.8010   30.5000   46.1150 N   0  0  0  0  0  0  0  0  0  0  0  0
   31.1550   28.9870   44.9900 H   0  0  0  0  0  0  0  0  0  0  0  0
   32.0030   27.2220   46.3620 H   0  0  0  0  0  0  0  0  0  0  0  0
   34.1380   27.5800   47.6570 H   0  0  0  0  0  0  0  0  0  0  0  0
   30.8810   31.9330   45.1490 C   0  0  0  0  0  0  0  0  0  0  0  0
   32.0840   31.4520   44.5340 C   0  0  0  0  0  0  0  0  0  0  0  0
   32.4190   31.9950   43.3290 C   0  0  0  0  0  0  0  0  0  0  0  0
   31.5870   32.9500   42.8030 N   0  0  0  0  0  0  0  0  0  0  0  0
   30.4720   33.3930   43.3790 C   0  0  0  0  0  0  0  0  0  0  0  0
   30.1290   32.8660   44.5670 N   0  0  0  0  0  0  0  0  0  0  0  0
   29.7540   34.3780   42.6930 N   0  0  0  0  0  0  0  0  0  0  0  0
   30.4890   31.6090   46.0840 H   0  0  0  0  0  0  0  0  0  0  0  0
   28.7840   34.0570   42.4420 H   0  0  0  0  0  0  0  0  0  0  0  0
   30.2040   35.3040   42.4900 H   0  0  0  0  0  0  0  0  0  0  0  0
   33.6270   31.5450   42.6580 C   0  0  0  0  0  0  0  0  0  0  0  0
   33.6260   30.2300   42.5810 F   0  0  0  0  0  0  0  0  0  0  0  0
   33.8200   32.0750   41.3940 F   0  0  0  0  0  0  0  0  0  0  0  0
   34.7940   31.9160   43.3870 F   0  0  0  0  0  0  0  0  0  0  0  0
   36.4380   30.7630   45.6220 F   0  0  0  0  0  0  0  0  0  0  0  0
   36.6100   30.4650   46.9570 C   0  0  0  0  0  0  0  0  0  0  0  0
   35.5470   29.8560   47.5970 C   0  0  0  0  0  0  0  0  0  0  0  0
   35.7660   29.5800   48.9230 C   0  0  0  0  0  0  0  0  0  0  0  0
   36.9460   29.8840   49.5600 C   0  0  0  0  0  0  0  0  0  0  0  0
   37.9650   30.4900   48.8650 C   0  0  0  0  0  0  0  0  0  0  0  0
   37.8080   30.7900   47.5450 C   0  0  0  0  0  0  0  0  0  0  0  0
   34.9610   29.1000   49.4820 H   0  0  0  0  0  0  0  0  0  0  0  0
   37.0300   29.6280   50.6120 H   0  0  0  0  0  0  0  0  0  0  0  0
   38.8680   30.7090   49.4020 H   0  0  0  0  0  0  0  0  0  0  0  0
   38.8800   31.4370   46.7770 C   0  0  0  0  0  0  0  0  0  0  0  0
   39.5710   30.6460   45.8620 C   0  0  0  0  0  0  0  0  0  0  0  0
   39.3320   29.6020   45.7180 H   0  0  0  0  0  0  0  0  0  0  0  0
   40.5940   31.1670   45.0950 C   0  0  0  0  0  0  0  0  0  0  0  0
   40.8900   32.5030   45.2860 C   0  0  0  0  0  0  0  0  0  0  0  0
   41.7030   32.8850   44.6650 H   0  0  0  0  0  0  0  0  0  0  0  0
   40.2290   33.3170   46.1820 C   0  0  0  0  0  0  0  0  0  0  0  0
   40.5000   34.3710   46.2980 H   0  0  0  0  0  0  0  0  0  0  0  0
   39.2030   32.7870   46.9490 C   0  0  0  0  0  0  0  0  0  0  0  0
  1  2  2  0  0  0  0
  1  6  1  0  0  0  0
  2  3  1  0  0  0  0
  3  8  1  0  0  0  0
  3  4  2  0  0  0  0
  4  9  1  0  0  0  0
  5  4  1  0  0  0  0
  5 26  1  0  0  0  0
  6  5  2  0  0  0  0
  7  2  1  0  0  0  0
 10 17  1  0  0  0  0
 11 10  2  0  0  0  0
 11  1  1  0  0  0  0
 12 11  1  0  0  0  0
 13 12  2  0  0  0  0
 13 14  1  0  0  0  0
 14 15  2  0  0  0  0
 15 10  1  0  0  0  0
 16 14  1  0  0  0  0
 18 16  1  0  0  0  0
 19 16  1  0  0  0  0
 20 12  1  0  0  0  0
 20 23  1  0  0  0  0
 21 20  1  0  0  0  0
 22 20  1  0  0  0  0
 24 25  1  0  0  0  0
 25 30  2  0  0  0  0
 25 26  1  0  0  0  0
 26 27  2  0  0  0  0
 27 31  1  0  0  0  0
 27 28  1  0  0  0  0
 28 32  1  0  0  0  0
 29 33  1  0  0  0  0
 29 28  2  0  0  0  0
 30 29  1  0  0  0  0
 34 42  1  0  0  0  0
 34 30  1  0  0  0  0
 35 34  2  0  0  0  0
 36 35  1  0  0  0  0
 37 38  2  0  0  0  0
 37 35  1  0  0  0  0
 38 40  1  0  0  0  0
 39 38  1  0  0  0  0
 40 41  1  0  0  0  0
 40 42  2  0  0  0  0
M  END
>  <minimizedAffinity>
-6.76097536

>  <minimizedRMSD>
4.26317024

$$$$
