
 OpenBabel03272509143D

 40 43  0  0  1  0  0  0  0  0999 V2000
   40.6930   24.4000   33.4910 N   0  0  0  0  0  0  0  0  0  0  0  0
   42.1140   24.0170   33.6550 C   0  0  0  0  0  0  0  0  0  0  0  0
   42.4920   24.7000   34.9510 C   0  0  0  0  0  0  0  0  0  0  0  0
   41.6940   25.9930   34.9050 C   0  0  0  0  0  0  0  0  0  0  0  0
   40.8300   25.8320   33.6660 C   0  0  2  0  0  0  0  0  0  0  0  0
   42.1860   22.9170   33.7570 H   0  0  0  0  0  0  0  0  0  0  0  0
   42.6700   24.4180   32.8020 H   0  0  0  0  0  0  0  0  0  0  0  0
   43.5810   24.8550   34.9260 H   0  0  0  0  0  0  0  0  0  0  0  0
   42.1500   24.1040   35.8150 H   0  0  0  0  0  0  0  0  0  0  0  0
   42.3830   26.8480   34.7040 H   0  0  0  0  0  0  0  0  0  0  0  0
   41.1150   26.1690   35.8190 H   0  0  0  0  0  0  0  0  0  0  0  0
   41.3160   26.3110   32.7920 H   0  0  0  0  0  0  0  0  0  0  0  0
   39.5490   26.4930   34.0090 C   0  0  0  0  0  0  0  0  0  0  0  0
   38.5590   26.7920   33.0940 C   0  0  0  0  0  0  0  0  0  0  0  0
   38.7270   26.5240   32.0400 H   0  0  0  0  0  0  0  0  0  0  0  0
   37.3630   27.4060   33.4010 C   0  0  0  0  0  3  0  0  0  0  0  0
   37.1100   27.7600   34.7090 C   0  0  0  0  0  0  0  0  0  0  0  0
   36.1900   28.2370   34.9770 H   0  0  0  0  0  0  0  0  0  0  0  0
   38.0740   27.4830   35.6820 C   0  0  0  0  0  0  0  0  0  0  0  0
   37.8490   27.7720   36.6990 H   0  0  0  0  0  0  0  0  0  0  0  0
   39.2260   26.8740   35.2920 C   0  0  0  0  0  3  0  0  0  0  0  0
   39.0800   23.7010   31.8740 C   0  0  0  0  0  0  0  0  0  0  0  0
   39.4590   23.7620   33.2450 C   0  0  0  0  0  0  0  0  0  0  0  0
   38.5800   23.2050   34.1760 C   0  0  0  0  0  0  0  0  0  0  0  0
   37.4220   22.6420   33.7250 N   0  0  0  0  0  0  0  0  0  0  0  0
   37.0990   22.6030   32.4240 C   0  0  0  0  0  0  0  0  0  0  0  0
   37.9300   23.1340   31.5010 N   0  0  0  0  0  0  0  0  0  0  0  0
   39.6880   24.0940   31.0760 H   0  0  0  0  0  0  0  0  0  0  0  0
   36.1720   22.1530   32.0650 H   0  0  0  0  0  0  0  0  0  0  0  0
   38.8660   23.2020   35.5800 C   0  0  0  0  0  0  0  0  0  0  0  0
   38.0430   23.9070   36.4270 C   0  0  0  0  0  0  0  0  0  0  0  0
   38.2320   23.9650   37.7950 C   0  0  0  0  0  0  0  0  0  0  0  0
   39.3150   23.2630   38.2980 C   0  0  0  0  0  0  0  0  0  0  0  0
   40.2000   22.5220   37.5040 C   0  0  0  0  0  0  0  0  0  0  0  0
   39.9230   22.5260   36.1330 C   0  0  0  0  0  0  0  0  0  0  0  0
   37.1730   24.4760   36.0670 H   0  0  0  0  0  0  0  0  0  0  0  0
   37.5910   24.5130   38.4490 H   0  0  0  0  0  0  0  0  0  0  0  0
   39.5120   23.2740   39.3670 H   0  0  0  0  0  0  0  0  0  0  0  0
   41.0320   21.9910   37.9480 H   0  0  0  0  0  0  0  0  0  0  0  0
   40.6090   21.9550   35.5330 H   0  0  0  0  0  0  0  0  0  0  0  0
  1  2  1  0  0  0  0
  1  5  1  0  0  0  0
  2  6  1  0  0  0  0
  2  3  1  0  0  0  0
  3  9  1  0  0  0  0
  4  3  1  0  0  0  0
  4 11  1  0  0  0  0
  5 12  1  6  0  0  0
  5 13  1  0  0  0  0
  5  4  1  0  0  0  0
  7  2  1  0  0  0  0
  8  3  1  0  0  0  0
 10  4  1  0  0  0  0
 13 21  1  0  0  0  0
 14 16  1  0  0  0  0
 14 13  2  0  0  0  0
 15 14  1  0  0  0  0
 16 17  2  0  0  0  0
 17 18  1  0  0  0  0
 17 19  1  0  0  0  0
 19 20  1  0  0  0  0
 21 19  2  0  0  0  0
 22 23  1  0  0  0  0
 23  1  1  0  0  0  0
 23 24  2  0  0  0  0
 24 30  1  0  0  0  0
 25 24  1  0  0  0  0
 26 25  2  0  0  0  0
 27 22  2  0  0  0  0
 27 26  1  0  0  0  0
 28 22  1  0  0  0  0
 29 26  1  0  0  0  0
 30 35  2  0  0  0  0
 30 31  1  0  0  0  0
 31 32  2  0  0  0  0
 32 33  1  0  0  0  0
 32 37  1  0  0  0  0
 33 38  1  0  0  0  0
 34 39  1  0  0  0  0
 34 33  2  0  0  0  0
 35 34  1  0  0  0  0
 36 31  1  0  0  0  0
 40 35  1  0  0  0  0
M  END
>  <minimizedAffinity>
-5.81082296

$$$$

 OpenBabel03272509143D

 40 43  0  0  1  0  0  0  0  0999 V2000
   40.6240   24.5820   33.3150 N   0  0  0  0  0  0  0  0  0  0  0  0
   42.0520   24.2310   33.4820 C   0  0  0  0  0  0  0  0  0  0  0  0
   42.4030   24.8900   34.7980 C   0  0  0  0  0  0  0  0  0  0  0  0
   41.5740   26.1640   34.7770 C   0  0  0  0  0  0  0  0  0  0  0  0
   40.7230   26.0130   33.5270 C   0  0  2  0  0  0  0  0  0  0  0  0
   42.1510   23.1310   33.5570 H   0  0  0  0  0  0  0  0  0  0  0  0
   42.6040   24.6670   32.6430 H   0  0  0  0  0  0  0  0  0  0  0  0
   43.4870   25.0720   34.7860 H   0  0  0  0  0  0  0  0  0  0  0  0
   42.0690   24.2640   35.6440 H   0  0  0  0  0  0  0  0  0  0  0  0
   42.2420   27.0400   34.6040 H   0  0  0  0  0  0  0  0  0  0  0  0
   40.9830   26.3020   35.6910 H   0  0  0  0  0  0  0  0  0  0  0  0
   41.2050   26.5260   32.6690 H   0  0  0  0  0  0  0  0  0  0  0  0
   39.4230   26.6330   33.8760 C   0  0  0  0  0  0  0  0  0  0  0  0
   38.4470   26.9600   32.9570 C   0  0  0  0  0  0  0  0  0  0  0  0
   38.6410   26.7480   31.8940 H   0  0  0  0  0  0  0  0  0  0  0  0
   37.2330   27.5370   33.2680 C   0  0  0  0  0  3  0  0  0  0  0  0
   36.9470   27.8190   34.5870 C   0  0  0  0  0  0  0  0  0  0  0  0
   36.0140   28.2670   34.8590 H   0  0  0  0  0  0  0  0  0  0  0  0
   37.8970   27.5110   35.5650 C   0  0  0  0  0  0  0  0  0  0  0  0
   37.6460   27.7440   36.5900 H   0  0  0  0  0  0  0  0  0  0  0  0
   39.0680   26.9430   35.1690 C   0  0  0  0  0  3  0  0  0  0  0  0
   39.0250   23.9140   31.6710 C   0  0  0  0  0  0  0  0  0  0  0  0
   39.4080   23.9210   33.0430 C   0  0  0  0  0  0  0  0  0  0  0  0
   38.5500   23.2940   33.9490 C   0  0  0  0  0  0  0  0  0  0  0  0
   37.4070   22.7190   33.4750 N   0  0  0  0  0  0  0  0  0  0  0  0
   37.0790   22.7320   32.1750 C   0  0  0  0  0  0  0  0  0  0  0  0
   37.8910   23.3310   31.2760 N   0  0  0  0  0  0  0  0  0  0  0  0
   39.6180   24.3620   30.8910 H   0  0  0  0  0  0  0  0  0  0  0  0
   36.1650   22.2730   31.7980 H   0  0  0  0  0  0  0  0  0  0  0  0
   38.8410   23.2330   35.3510 C   0  0  0  0  0  0  0  0  0  0  0  0
   39.8810   22.4420   35.7790 C   0  0  0  0  0  0  0  0  0  0  0  0
   40.2430   22.3160   37.1070 C   0  0  0  0  0  0  0  0  0  0  0  0
   39.4950   23.0420   38.0210 C   0  0  0  0  0  0  0  0  0  0  0  0
   38.4210   23.8690   37.6660 C   0  0  0  0  0  0  0  0  0  0  0  0
   38.1350   23.9270   36.2990 C   0  0  0  0  0  0  0  0  0  0  0  0
   40.4980   21.8510   35.0860 H   0  0  0  0  0  0  0  0  0  0  0  0
   41.0500   21.7020   37.4360 H   0  0  0  0  0  0  0  0  0  0  0  0
   39.7350   22.9810   39.0790 H   0  0  0  0  0  0  0  0  0  0  0  0
   37.8690   24.4140   38.4200 H   0  0  0  0  0  0  0  0  0  0  0  0
   37.3090   24.5640   36.0380 H   0  0  0  0  0  0  0  0  0  0  0  0
  1  2  1  0  0  0  0
  1  5  1  0  0  0  0
  2  6  1  0  0  0  0
  2  3  1  0  0  0  0
  3  9  1  0  0  0  0
  4  3  1  0  0  0  0
  4 11  1  0  0  0  0
  5 12  1  6  0  0  0
  5 13  1  0  0  0  0
  5  4  1  0  0  0  0
  7  2  1  0  0  0  0
  8  3  1  0  0  0  0
 10  4  1  0  0  0  0
 13 21  1  0  0  0  0
 14 16  1  0  0  0  0
 14 13  2  0  0  0  0
 15 14  1  0  0  0  0
 16 17  2  0  0  0  0
 17 18  1  0  0  0  0
 17 19  1  0  0  0  0
 19 20  1  0  0  0  0
 21 19  2  0  0  0  0
 22 23  1  0  0  0  0
 23  1  1  0  0  0  0
 23 24  2  0  0  0  0
 24 30  1  0  0  0  0
 25 24  1  0  0  0  0
 26 25  2  0  0  0  0
 27 22  2  0  0  0  0
 27 26  1  0  0  0  0
 28 22  1  0  0  0  0
 29 26  1  0  0  0  0
 30 31  2  0  0  0  0
 30 35  1  0  0  0  0
 31 32  1  0  0  0  0
 32 37  1  0  0  0  0
 32 33  2  0  0  0  0
 33 38  1  0  0  0  0
 34 33  1  0  0  0  0
 34 39  1  0  0  0  0
 35 34  2  0  0  0  0
 36 31  1  0  0  0  0
 40 35  1  0  0  0  0
M  END
>  <minimizedAffinity>
-5.72080231

$$$$

 OpenBabel03272509143D

 40 43  0  0  1  0  0  0  0  0999 V2000
   39.8130   23.3090   33.3970 N   0  0  0  0  0  0  0  0  0  0  0  0
   39.2050   23.0690   32.0690 C   0  0  0  0  0  0  0  0  0  0  0  0
   37.7320   23.2860   32.3370 C   0  0  0  0  0  0  0  0  0  0  0  0
   37.5540   22.7460   33.7470 C   0  0  0  0  0  0  0  0  0  0  0  0
   38.9740   22.4280   34.1860 C   0  0  2  0  0  0  0  0  0  0  0  0
   39.5870   23.8200   31.3520 H   0  0  0  0  0  0  0  0  0  0  0  0
   39.4230   22.0350   31.7820 H   0  0  0  0  0  0  0  0  0  0  0  0
   37.1800   22.7140   31.5760 H   0  0  0  0  0  0  0  0  0  0  0  0
   37.4940   24.3640   32.3380 H   0  0  0  0  0  0  0  0  0  0  0  0
   37.0080   21.7740   33.7070 H   0  0  0  0  0  0  0  0  0  0  0  0
   37.0420   23.4520   34.4120 H   0  0  0  0  0  0  0  0  0  0  0  0
   39.2050   21.3600   33.9990 H   0  0  0  0  0  0  0  0  0  0  0  0
   39.0040   22.7490   35.6320 C   0  0  0  0  0  0  0  0  0  0  0  0
   40.0170   22.3720   36.4900 C   0  0  0  0  0  0  0  0  0  0  0  0
   40.8590   21.7940   36.0800 H   0  0  0  0  0  0  0  0  0  0  0  0
   40.0570   22.6650   37.8380 C   0  0  0  0  0  3  0  0  0  0  0  0
   39.0230   23.3860   38.3960 C   0  0  0  0  0  0  0  0  0  0  0  0
   39.0270   23.6280   39.4380 H   0  0  0  0  0  0  0  0  0  0  0  0
   37.9690   23.7970   37.5770 C   0  0  0  0  0  0  0  0  0  0  0  0
   37.1720   24.3610   38.0410 H   0  0  0  0  0  0  0  0  0  0  0  0
   38.0090   23.4650   36.2590 C   0  0  0  0  0  3  0  0  0  0  0  0
   42.1070   23.4150   34.0530 C   0  0  0  0  0  0  0  0  0  0  0  0
   40.8560   24.0850   33.9460 C   0  0  0  0  0  0  0  0  0  0  0  0
   40.7970   25.4050   34.3970 C   0  0  0  0  0  0  0  0  0  0  0  0
   41.9280   25.9710   34.9100 N   0  0  0  0  0  0  0  0  0  0  0  0
   43.0910   25.3070   34.9940 C   0  0  0  0  0  0  0  0  0  0  0  0
   43.1760   24.0290   34.5650 N   0  0  0  0  0  0  0  0  0  0  0  0
   42.2620   22.3990   33.7280 H   0  0  0  0  0  0  0  0  0  0  0  0
   43.9930   25.7610   35.4050 H   0  0  0  0  0  0  0  0  0  0  0  0
   39.5920   26.1770   34.3280 C   0  0  0  0  0  0  0  0  0  0  0  0
   39.0190   26.6200   35.4970 C   0  0  0  0  0  0  0  0  0  0  0  0
   37.8590   27.3710   35.5380 C   0  0  0  0  0  0  0  0  0  0  0  0
   37.2770   27.6720   34.3160 C   0  0  0  0  0  0  0  0  0  0  0  0
   37.7970   27.2590   33.0830 C   0  0  0  0  0  0  0  0  0  0  0  0
   38.9720   26.5040   33.1490 C   0  0  0  0  0  0  0  0  0  0  0  0
   39.4490   26.4020   36.4860 H   0  0  0  0  0  0  0  0  0  0  0  0
   37.4170   27.7130   36.4460 H   0  0  0  0  0  0  0  0  0  0  0  0
   36.3640   28.2600   34.2880 H   0  0  0  0  0  0  0  0  0  0  0  0
   37.3030   27.5210   32.1570 H   0  0  0  0  0  0  0  0  0  0  0  0
   39.3610   26.1910   32.1970 H   0  0  0  0  0  0  0  0  0  0  0  0
  1 23  1  0  0  0  0
  1  5  1  0  0  0  0
  2  3  1  0  0  0  0
  2  1  1  0  0  0  0
  3  9  1  0  0  0  0
  3  4  1  0  0  0  0
  4  5  1  0  0  0  0
  4 11  1  0  0  0  0
  5 12  1  6  0  0  0
  5 13  1  0  0  0  0
  6  2  1  0  0  0  0
  7  2  1  0  0  0  0
  8  3  1  0  0  0  0
 10  4  1  0  0  0  0
 13 21  2  0  0  0  0
 13 14  1  0  0  0  0
 14 16  2  0  0  0  0
 15 14  1  0  0  0  0
 16 17  1  0  0  0  0
 17 18  1  0  0  0  0
 19 20  1  0  0  0  0
 19 17  2  0  0  0  0
 21 19  1  0  0  0  0
 22 27  1  0  0  0  0
 23 22  2  0  0  0  0
 23 24  1  0  0  0  0
 24 25  2  0  0  0  0
 25 26  1  0  0  0  0
 26 29  1  0  0  0  0
 27 26  2  0  0  0  0
 28 22  1  0  0  0  0
 30 24  1  0  0  0  0
 30 31  1  0  0  0  0
 31 32  2  0  0  0  0
 31 36  1  0  0  0  0
 32 37  1  0  0  0  0
 33 32  1  0  0  0  0
 34 35  1  0  0  0  0
 34 33  2  0  0  0  0
 35 30  2  0  0  0  0
 38 33  1  0  0  0  0
 39 34  1  0  0  0  0
 40 35  1  0  0  0  0
M  END
>  <minimizedAffinity>
-5.55679798

$$$$

 OpenBabel03272509143D

 40 43  0  0  1  0  0  0  0  0999 V2000
   39.0800   22.5670   35.6230 N   0  0  0  0  0  0  0  0  0  0  0  0
   37.7820   22.6180   36.3340 C   0  0  0  0  0  0  0  0  0  0  0  0
   38.1180   23.4140   37.5760 C   0  0  0  0  0  0  0  0  0  0  0  0
   39.5360   22.9710   37.8970 C   0  0  0  0  0  0  0  0  0  0  0  0
   39.9100   22.0940   36.7140 C   0  0  2  0  0  0  0  0  0  0  0  0
   37.0460   23.1590   35.7100 H   0  0  0  0  0  0  0  0  0  0  0  0
   37.4890   21.5910   36.5710 H   0  0  0  0  0  0  0  0  0  0  0  0
   37.3850   23.1300   38.3460 H   0  0  0  0  0  0  0  0  0  0  0  0
   38.1270   24.4950   37.3510 H   0  0  0  0  0  0  0  0  0  0  0  0
   39.5250   22.3080   38.7950 H   0  0  0  0  0  0  0  0  0  0  0  0
   40.2220   23.8140   38.0470 H   0  0  0  0  0  0  0  0  0  0  0  0
   39.7150   21.0270   36.9490 H   0  0  0  0  0  0  0  0  0  0  0  0
   41.3520   22.3510   36.4920 C   0  0  0  0  0  0  0  0  0  0  0  0
   41.9150   23.6090   36.4190 C   0  0  0  0  0  0  0  0  0  0  0  0
   41.2540   24.4820   36.5320 H   0  0  0  0  0  0  0  0  0  0  0  0
   43.2550   23.8610   36.2130 C   0  0  0  0  0  3  0  0  0  0  0  0
   44.1200   22.7970   36.0660 C   0  0  0  0  0  0  0  0  0  0  0  0
   45.1650   22.9620   35.9050 H   0  0  0  0  0  0  0  0  0  0  0  0
   43.6100   21.4980   36.1300 C   0  0  0  0  0  0  0  0  0  0  0  0
   44.3100   20.6850   36.0100 H   0  0  0  0  0  0  0  0  0  0  0  0
   42.2740   21.3410   36.3360 C   0  0  0  0  0  3  0  0  0  0  0  0
   40.1590   21.7230   33.6670 C   0  0  0  0  0  0  0  0  0  0  0  0
   39.5780   22.8390   34.3320 C   0  0  0  0  0  0  0  0  0  0  0  0
   39.5740   24.0590   33.6500 C   0  0  0  0  0  0  0  0  0  0  0  0
   40.1220   24.1100   32.4020 N   0  0  0  0  0  0  0  0  0  0  0  0
   40.6610   23.0350   31.8070 C   0  0  0  0  0  0  0  0  0  0  0  0
   40.6780   21.8440   32.4430 N   0  0  0  0  0  0  0  0  0  0  0  0
   40.2060   20.7370   34.1000 H   0  0  0  0  0  0  0  0  0  0  0  0
   41.1000   23.0780   30.8090 H   0  0  0  0  0  0  0  0  0  0  0  0
   39.0070   25.2450   34.2210 C   0  0  0  0  0  0  0  0  0  0  0  0
   37.7180   25.5890   33.8910 C   0  0  0  0  0  0  0  0  0  0  0  0
   37.0810   26.7100   34.3870 C   0  0  0  0  0  0  0  0  0  0  0  0
   37.8130   27.5000   35.2600 C   0  0  0  0  0  0  0  0  0  0  0  0
   39.1300   27.2190   35.6460 C   0  0  0  0  0  0  0  0  0  0  0  0
   39.6850   26.0630   35.0880 C   0  0  0  0  0  0  0  0  0  0  0  0
   37.1040   24.9900   33.2020 H   0  0  0  0  0  0  0  0  0  0  0  0
   36.0800   26.9750   34.1290 H   0  0  0  0  0  0  0  0  0  0  0  0
   37.3620   28.3940   35.6820 H   0  0  0  0  0  0  0  0  0  0  0  0
   39.6580   27.8680   36.3310 H   0  0  0  0  0  0  0  0  0  0  0  0
   40.6960   25.8570   35.3900 H   0  0  0  0  0  0  0  0  0  0  0  0
  1  2  1  0  0  0  0
  1  5  1  0  0  0  0
  2  7  1  0  0  0  0
  2  3  1  0  0  0  0
  3  4  1  0  0  0  0
  3  8  1  0  0  0  0
  4 11  1  0  0  0  0
  4 10  1  0  0  0  0
  5 12  1  1  0  0  0
  5  4  1  0  0  0  0
  6  2  1  0  0  0  0
  9  3  1  0  0  0  0
 13  5  1  0  0  0  0
 14 13  1  0  0  0  0
 14 15  1  0  0  0  0
 16 14  2  0  0  0  0
 17 19  2  0  0  0  0
 17 16  1  0  0  0  0
 18 17  1  0  0  0  0
 19 21  1  0  0  0  0
 20 19  1  0  0  0  0
 21 13  2  0  0  0  0
 22 28  1  0  0  0  0
 22 23  1  0  0  0  0
 23  1  1  0  0  0  0
 24 30  1  0  0  0  0
 24 23  2  0  0  0  0
 25 24  1  0  0  0  0
 26 25  2  0  0  0  0
 26 27  1  0  0  0  0
 27 22  2  0  0  0  0
 29 26  1  0  0  0  0
 30 35  1  0  0  0  0
 31 30  2  0  0  0  0
 31 32  1  0  0  0  0
 32 33  2  0  0  0  0
 33 34  1  0  0  0  0
 33 38  1  0  0  0  0
 34 39  1  0  0  0  0
 35 40  1  0  0  0  0
 35 34  2  0  0  0  0
 36 31  1  0  0  0  0
 37 32  1  0  0  0  0
M  END
>  <minimizedAffinity>
-5.46231556

$$$$

 OpenBabel03272509143D

 40 43  0  0  1  0  0  0  0  0999 V2000
   38.4860   24.5540   32.5550 N   0  0  0  0  0  0  0  0  0  0  0  0
   38.4450   23.1500   32.0870 C   0  0  0  0  0  0  0  0  0  0  0  0
   37.6460   23.2530   30.8060 C   0  0  0  0  0  0  0  0  0  0  0  0
   36.6340   24.3430   31.1180 C   0  0  0  0  0  0  0  0  0  0  0  0
   37.0690   24.8510   32.4820 C   0  0  2  0  0  0  0  0  0  0  0  0
   39.4760   22.8060   31.8780 H   0  0  0  0  0  0  0  0  0  0  0  0
   37.9280   22.5580   32.8480 H   0  0  0  0  0  0  0  0  0  0  0  0
   37.1900   22.2670   30.6330 H   0  0  0  0  0  0  0  0  0  0  0  0
   38.2890   23.5940   29.9760 H   0  0  0  0  0  0  0  0  0  0  0  0
   35.6250   23.8860   31.2550 H   0  0  0  0  0  0  0  0  0  0  0  0
   36.6020   25.1270   30.3510 H   0  0  0  0  0  0  0  0  0  0  0  0
   36.4970   24.3400   33.2840 H   0  0  0  0  0  0  0  0  0  0  0  0
   36.7880   26.3060   32.4520 C   0  0  0  0  0  0  0  0  0  0  0  0
   36.6840   27.1010   33.5750 C   0  0  0  0  0  0  0  0  0  0  0  0
   36.8170   26.6280   34.5610 H   0  0  0  0  0  0  0  0  0  0  0  0
   36.4230   28.4550   33.5610 C   0  0  0  0  0  3  0  0  0  0  0  0
   36.2490   29.0890   32.3490 C   0  0  0  0  0  0  0  0  0  0  0  0
   36.0460   30.1380   32.3060 H   0  0  0  0  0  0  0  0  0  0  0  0
   36.3430   28.3370   31.1750 C   0  0  0  0  0  0  0  0  0  0  0  0
   36.2020   28.8590   30.2390 H   0  0  0  0  0  0  0  0  0  0  0  0
   36.6030   27.0060   31.2810 C   0  0  0  0  0  3  0  0  0  0  0  0
   39.9870   26.3090   31.9450 C   0  0  0  0  0  0  0  0  0  0  0  0
   39.4530   25.4890   32.9790 C   0  0  0  0  0  0  0  0  0  0  0  0
   39.9460   25.6890   34.2710 C   0  0  0  0  0  0  0  0  0  0  0  0
   40.8980   26.6460   34.4650 N   0  0  0  0  0  0  0  0  0  0  0  0
   41.3770   27.4000   33.4650 C   0  0  0  0  0  0  0  0  0  0  0  0
   40.9190   27.2280   32.2050 N   0  0  0  0  0  0  0  0  0  0  0  0
   39.6710   26.2400   30.9170 H   0  0  0  0  0  0  0  0  0  0  0  0
   42.1390   28.1640   33.6220 H   0  0  0  0  0  0  0  0  0  0  0  0
   39.4730   24.9270   35.3890 C   0  0  0  0  0  0  0  0  0  0  0  0
   40.1330   23.7710   35.7320 C   0  0  0  0  0  0  0  0  0  0  0  0
   39.7580   22.9680   36.7920 C   0  0  0  0  0  0  0  0  0  0  0  0
   38.6560   23.3850   37.5210 C   0  0  0  0  0  0  0  0  0  0  0  0
   37.9290   24.5480   37.2370 C   0  0  0  0  0  0  0  0  0  0  0  0
   38.3880   25.2910   36.1450 C   0  0  0  0  0  0  0  0  0  0  0  0
   41.0120   23.4060   35.1790 H   0  0  0  0  0  0  0  0  0  0  0  0
   40.2730   22.0720   37.0560 H   0  0  0  0  0  0  0  0  0  0  0  0
   38.3160   22.7920   38.3660 H   0  0  0  0  0  0  0  0  0  0  0  0
   37.0750   24.8290   37.8380 H   0  0  0  0  0  0  0  0  0  0  0  0
   37.8220   26.1810   35.9350 H   0  0  0  0  0  0  0  0  0  0  0  0
  1 23  1  0  0  0  0
  2  1  1  0  0  0  0
  2  7  1  0  0  0  0
  3  4  1  0  0  0  0
  3  2  1  0  0  0  0
  4 10  1  0  0  0  0
  4  5  1  0  0  0  0
  5  1  1  0  0  0  0
  5 12  1  1  0  0  0
  6  2  1  0  0  0  0
  8  3  1  0  0  0  0
  9  3  1  0  0  0  0
 11  4  1  0  0  0  0
 13  5  1  0  0  0  0
 13 14  1  0  0  0  0
 14 15  1  0  0  0  0
 16 14  2  0  0  0  0
 17 16  1  0  0  0  0
 18 17  1  0  0  0  0
 19 21  1  0  0  0  0
 19 17  2  0  0  0  0
 20 19  1  0  0  0  0
 21 13  2  0  0  0  0
 22 27  2  0  0  0  0
 22 23  1  0  0  0  0
 23 24  2  0  0  0  0
 24 25  1  0  0  0  0
 24 30  1  0  0  0  0
 26 29  1  0  0  0  0
 26 25  2  0  0  0  0
 27 26  1  0  0  0  0
 28 22  1  0  0  0  0
 30 31  2  0  0  0  0
 30 35  1  0  0  0  0
 31 32  1  0  0  0  0
 32 37  1  0  0  0  0
 32 33  2  0  0  0  0
 33 38  1  0  0  0  0
 34 33  1  0  0  0  0
 34 39  1  0  0  0  0
 35 34  2  0  0  0  0
 36 31  1  0  0  0  0
 40 35  1  0  0  0  0
M  END
>  <minimizedAffinity>
-5.40101624

$$$$

 OpenBabel03272509143D

 40 43  0  0  1  0  0  0  0  0999 V2000
   39.5750   26.5790   33.0070 N   0  0  0  0  0  0  0  0  0  0  0  0
   40.5750   27.4740   32.3820 C   0  0  0  0  0  0  0  0  0  0  0  0
   41.8790   26.9630   32.9550 C   0  0  0  0  0  0  0  0  0  0  0  0
   41.4960   26.5490   34.3670 C   0  0  0  0  0  0  0  0  0  0  0  0
   39.9870   26.7210   34.3900 C   0  0  2  0  0  0  0  0  0  0  0  0
   40.5500   27.3370   31.2840 H   0  0  0  0  0  0  0  0  0  0  0  0
   40.3570   28.4970   32.7040 H   0  0  0  0  0  0  0  0  0  0  0  0
   42.5930   27.7990   32.9210 H   0  0  0  0  0  0  0  0  0  0  0  0
   42.2180   26.0680   32.4050 H   0  0  0  0  0  0  0  0  0  0  0  0
   41.9120   27.2860   35.0960 H   0  0  0  0  0  0  0  0  0  0  0  0
   41.8220   25.5320   34.6160 H   0  0  0  0  0  0  0  0  0  0  0  0
   39.7190   27.7160   34.8010 H   0  0  0  0  0  0  0  0  0  0  0  0
   39.4930   25.6220   35.2520 C   0  0  0  0  0  0  0  0  0  0  0  0
   40.1280   24.4050   35.4000 C   0  0  0  0  0  0  0  0  0  0  0  0
   41.0620   24.2350   34.8430 H   0  0  0  0  0  0  0  0  0  0  0  0
   39.6800   23.3750   36.2000 C   0  0  0  0  0  3  0  0  0  0  0  0
   38.5140   23.5440   36.9160 C   0  0  0  0  0  0  0  0  0  0  0  0
   38.1410   22.7620   37.5440 H   0  0  0  0  0  0  0  0  0  0  0  0
   37.8250   24.7550   36.8080 C   0  0  0  0  0  0  0  0  0  0  0  0
   36.9140   24.8590   37.3800 H   0  0  0  0  0  0  0  0  0  0  0  0
   38.3380   25.7180   35.9960 C   0  0  0  0  0  3  0  0  0  0  0  0
   38.8540   24.4230   32.2730 C   0  0  0  0  0  0  0  0  0  0  0  0
   38.4990   25.7630   32.5980 C   0  0  0  0  0  0  0  0  0  0  0  0
   37.1540   26.1170   32.4690 C   0  0  0  0  0  0  0  0  0  0  0  0
   36.2690   25.1710   32.0420 N   0  0  0  0  0  0  0  0  0  0  0  0
   36.6410   23.9180   31.7450 C   0  0  0  0  0  0  0  0  0  0  0  0
   37.9350   23.5480   31.8610 N   0  0  0  0  0  0  0  0  0  0  0  0
   39.8610   24.0460   32.3450 H   0  0  0  0  0  0  0  0  0  0  0  0
   35.9320   23.1630   31.4030 H   0  0  0  0  0  0  0  0  0  0  0  0
   36.6840   27.4350   32.7790 C   0  0  0  0  0  0  0  0  0  0  0  0
   36.5160   28.3370   31.7560 C   0  0  0  0  0  0  0  0  0  0  0  0
   36.0660   29.6300   31.9490 C   0  0  0  0  0  0  0  0  0  0  0  0
   35.7810   29.9940   33.2560 C   0  0  0  0  0  0  0  0  0  0  0  0
   35.9270   29.1350   34.3530 C   0  0  0  0  0  0  0  0  0  0  0  0
   36.3880   27.8500   34.0520 C   0  0  0  0  0  0  0  0  0  0  0  0
   36.7300   28.0880   30.7060 H   0  0  0  0  0  0  0  0  0  0  0  0
   35.9360   30.3280   31.1530 H   0  0  0  0  0  0  0  0  0  0  0  0
   35.4240   30.9990   33.4670 H   0  0  0  0  0  0  0  0  0  0  0  0
   35.6910   29.4700   35.3540 H   0  0  0  0  0  0  0  0  0  0  0  0
   36.4970   27.1990   34.9010 H   0  0  0  0  0  0  0  0  0  0  0  0
  1  5  1  0  0  0  0
  2  7  1  0  0  0  0
  2  3  1  0  0  0  0
  2  1  1  0  0  0  0
  3  4  1  0  0  0  0
  4  5  1  0  0  0  0
  4 11  1  0  0  0  0
  4 10  1  0  0  0  0
  5 12  1  1  0  0  0
  5 13  1  0  0  0  0
  6  2  1  0  0  0  0
  8  3  1  0  0  0  0
  9  3  1  0  0  0  0
 13 14  2  0  0  0  0
 13 21  1  0  0  0  0
 14 16  1  0  0  0  0
 15 14  1  0  0  0  0
 16 17  2  0  0  0  0
 17 18  1  0  0  0  0
 19 17  1  0  0  0  0
 19 20  1  0  0  0  0
 21 19  2  0  0  0  0
 22 28  1  0  0  0  0
 22 23  1  0  0  0  0
 23  1  1  0  0  0  0
 24 23  2  0  0  0  0
 24 30  1  0  0  0  0
 25 24  1  0  0  0  0
 26 27  1  0  0  0  0
 26 25  2  0  0  0  0
 27 22  2  0  0  0  0
 29 26  1  0  0  0  0
 30 35  1  0  0  0  0
 31 32  1  0  0  0  0
 31 30  2  0  0  0  0
 32 33  2  0  0  0  0
 33 38  1  0  0  0  0
 33 34  1  0  0  0  0
 34 39  1  0  0  0  0
 35 34  2  0  0  0  0
 35 40  1  0  0  0  0
 36 31  1  0  0  0  0
 37 32  1  0  0  0  0
M  END
>  <minimizedAffinity>
-5.38963604

$$$$

 OpenBabel03272509143D

 40 43  0  0  1  0  0  0  0  0999 V2000
   37.2160   26.9230   32.3110 N   0  0  0  0  0  0  0  0  0  0  0  0
   35.9340   27.6580   32.4040 C   0  0  0  0  0  0  0  0  0  0  0  0
   36.1640   28.5740   33.5850 C   0  0  0  0  0  0  0  0  0  0  0  0
   37.0240   27.7320   34.5130 C   0  0  0  0  0  0  0  0  0  0  0  0
   37.3220   26.4900   33.6900 C   0  0  2  0  0  0  0  0  0  0  0  0
   35.7820   28.2450   31.4780 H   0  0  0  0  0  0  0  0  0  0  0  0
   35.1430   26.9270   32.5980 H   0  0  0  0  0  0  0  0  0  0  0  0
   35.1740   28.8140   34.0020 H   0  0  0  0  0  0  0  0  0  0  0  0
   36.7410   29.4630   33.2780 H   0  0  0  0  0  0  0  0  0  0  0  0
   36.4130   27.3970   35.3850 H   0  0  0  0  0  0  0  0  0  0  0  0
   37.9260   28.2560   34.8510 H   0  0  0  0  0  0  0  0  0  0  0  0
   36.5940   25.6860   33.9280 H   0  0  0  0  0  0  0  0  0  0  0  0
   38.7020   26.1060   34.0670 C   0  0  0  0  0  0  0  0  0  0  0  0
   39.7360   27.0030   34.2460 C   0  0  0  0  0  0  0  0  0  0  0  0
   39.5270   28.0740   34.1000 H   0  0  0  0  0  0  0  0  0  0  0  0
   41.0250   26.6590   34.5980 C   0  0  0  0  0  3  0  0  0  0  0  0
   41.3320   25.3290   34.7920 C   0  0  0  0  0  0  0  0  0  0  0  0
   42.3230   25.0330   35.0650 H   0  0  0  0  0  0  0  0  0  0  0  0
   40.3270   24.3730   34.6260 C   0  0  0  0  0  0  0  0  0  0  0  0
   40.5960   23.3390   34.7830 H   0  0  0  0  0  0  0  0  0  0  0  0
   39.0830   24.8000   34.2780 C   0  0  0  0  0  3  0  0  0  0  0  0
   39.0100   27.7120   30.9450 C   0  0  0  0  0  0  0  0  0  0  0  0
   38.1790   26.6200   31.3260 C   0  0  0  0  0  0  0  0  0  0  0  0
   38.3980   25.3970   30.6880 C   0  0  0  0  0  0  0  0  0  0  0  0
   39.3830   25.3200   29.7470 N   0  0  0  0  0  0  0  0  0  0  0  0
   40.1470   26.3710   29.4140 C   0  0  0  0  0  0  0  0  0  0  0  0
   39.9570   27.5660   30.0160 N   0  0  0  0  0  0  0  0  0  0  0  0
   38.9290   28.6940   31.3810 H   0  0  0  0  0  0  0  0  0  0  0  0
   40.9330   26.3070   28.6610 H   0  0  0  0  0  0  0  0  0  0  0  0
   37.6280   24.2300   31.0000 C   0  0  0  0  0  0  0  0  0  0  0  0
   36.2570   24.3000   30.9240 C   0  0  0  0  0  0  0  0  0  0  0  0
   35.4260   23.2310   31.2030 C   0  0  0  0  0  0  0  0  0  0  0  0
   36.0460   22.0480   31.5720 C   0  0  0  0  0  0  0  0  0  0  0  0
   37.4350   21.8950   31.6740 C   0  0  0  0  0  0  0  0  0  0  0  0
   38.1870   23.0350   31.3720 C   0  0  0  0  0  0  0  0  0  0  0  0
   35.7270   25.2190   30.6340 H   0  0  0  0  0  0  0  0  0  0  0  0
   34.3620   23.2880   31.1430 H   0  0  0  0  0  0  0  0  0  0  0  0
   35.4410   21.1750   31.8030 H   0  0  0  0  0  0  0  0  0  0  0  0
   37.8680   20.9490   31.9670 H   0  0  0  0  0  0  0  0  0  0  0  0
   39.2520   22.9070   31.4540 H   0  0  0  0  0  0  0  0  0  0  0  0
  1  2  1  0  0  0  0
  1  5  1  0  0  0  0
  2  7  1  0  0  0  0
  2  3  1  0  0  0  0
  3  8  1  0  0  0  0
  3  4  1  0  0  0  0
  4 11  1  0  0  0  0
  4 10  1  0  0  0  0
  5 12  1  1  0  0  0
  5 13  1  0  0  0  0
  5  4  1  0  0  0  0
  6  2  1  0  0  0  0
  9  3  1  0  0  0  0
 13 14  2  0  0  0  0
 13 21  1  0  0  0  0
 14 16  1  0  0  0  0
 15 14  1  0  0  0  0
 16 17  2  0  0  0  0
 17 18  1  0  0  0  0
 19 20  1  0  0  0  0
 19 17  1  0  0  0  0
 21 19  2  0  0  0  0
 22 23  1  0  0  0  0
 22 28  1  0  0  0  0
 23  1  1  0  0  0  0
 24 30  1  0  0  0  0
 24 23  2  0  0  0  0
 25 24  1  0  0  0  0
 26 25  2  0  0  0  0
 26 27  1  0  0  0  0
 27 22  2  0  0  0  0
 29 26  1  0  0  0  0
 30 35  1  0  0  0  0
 31 30  2  0  0  0  0
 31 32  1  0  0  0  0
 32 33  2  0  0  0  0
 33 34  1  0  0  0  0
 33 38  1  0  0  0  0
 34 39  1  0  0  0  0
 35 40  1  0  0  0  0
 35 34  2  0  0  0  0
 36 31  1  0  0  0  0
 37 32  1  0  0  0  0
M  END
>  <minimizedAffinity>
-5.18316984

$$$$

 OpenBabel03272509143D

 40 43  0  0  1  0  0  0  0  0999 V2000
   33.3350   29.5160   33.1060 N   0  0  0  0  0  0  0  0  0  0  0  0
   32.1460   28.6430   32.9760 C   0  0  0  0  0  0  0  0  0  0  0  0
   31.1160   29.3610   33.8180 C   0  0  0  0  0  0  0  0  0  0  0  0
   31.9420   29.9390   34.9560 C   0  0  0  0  0  0  0  0  0  0  0  0
   33.3720   29.6230   34.5520 C   0  0  2  0  0  0  0  0  0  0  0  0
   31.8320   28.6120   31.9150 H   0  0  0  0  0  0  0  0  0  0  0  0
   32.4040   27.6630   33.3880 H   0  0  0  0  0  0  0  0  0  0  0  0
   30.3870   28.6050   34.1460 H   0  0  0  0  0  0  0  0  0  0  0  0
   30.6640   30.1930   33.2510 H   0  0  0  0  0  0  0  0  0  0  0  0
   31.7400   29.3650   35.8910 H   0  0  0  0  0  0  0  0  0  0  0  0
   31.7610   31.0100   35.1130 H   0  0  0  0  0  0  0  0  0  0  0  0
   33.7070   28.6780   35.0280 H   0  0  0  0  0  0  0  0  0  0  0  0
   34.1640   30.7830   35.0220 C   0  0  0  0  0  0  0  0  0  0  0  0
   35.5090   30.7320   35.3290 C   0  0  0  0  0  0  0  0  0  0  0  0
   36.0310   29.7700   35.2200 H   0  0  0  0  0  0  0  0  0  0  0  0
   36.2580   31.8050   35.7670 C   0  0  0  0  0  3  0  0  0  0  0  0
   35.6440   33.0300   35.9190 C   0  0  0  0  0  0  0  0  0  0  0  0
   36.2000   33.8800   36.2570 H   0  0  0  0  0  0  0  0  0  0  0  0
   34.2840   33.1450   35.6230 C   0  0  0  0  0  0  0  0  0  0  0  0
   33.8290   34.1170   35.7520 H   0  0  0  0  0  0  0  0  0  0  0  0
   33.6210   32.0360   35.1970 C   0  0  0  0  0  3  0  0  0  0  0  0
   33.8700   31.4350   31.7880 C   0  0  0  0  0  0  0  0  0  0  0  0
   34.2660   30.1500   32.2580 C   0  0  0  0  0  0  0  0  0  0  0  0
   35.5030   29.6650   31.8260 C   0  0  0  0  0  0  0  0  0  0  0  0
   36.2510   30.4400   30.9890 N   0  0  0  0  0  0  0  0  0  0  0  0
   35.8450   31.6470   30.5670 C   0  0  0  0  0  0  0  0  0  0  0  0
   34.6530   32.1410   30.9690 N   0  0  0  0  0  0  0  0  0  0  0  0
   32.9410   31.9030   32.0670 H   0  0  0  0  0  0  0  0  0  0  0  0
   36.4440   32.2650   29.8980 H   0  0  0  0  0  0  0  0  0  0  0  0
   36.0050   28.3900   32.2430 C   0  0  0  0  0  0  0  0  0  0  0  0
   35.8160   27.3020   31.4250 C   0  0  0  0  0  0  0  0  0  0  0  0
   36.2620   26.0310   31.7350 C   0  0  0  0  0  0  0  0  0  0  0  0
   36.9310   25.8900   32.9410 C   0  0  0  0  0  0  0  0  0  0  0  0
   37.1640   26.9480   33.8300 C   0  0  0  0  0  0  0  0  0  0  0  0
   36.6720   28.1920   33.4250 C   0  0  0  0  0  0  0  0  0  0  0  0
   35.2900   27.3710   30.4610 H   0  0  0  0  0  0  0  0  0  0  0  0
   36.1140   25.1880   31.0980 H   0  0  0  0  0  0  0  0  0  0  0  0
   37.3040   24.9130   33.2370 H   0  0  0  0  0  0  0  0  0  0  0  0
   37.6920   26.7840   34.7600 H   0  0  0  0  0  0  0  0  0  0  0  0
   36.8560   28.9960   34.1150 H   0  0  0  0  0  0  0  0  0  0  0  0
  1  5  1  0  0  0  0
  2  1  1  0  0  0  0
  2  7  1  0  0  0  0
  2  3  1  0  0  0  0
  3  8  1  0  0  0  0
  3  4  1  0  0  0  0
  4 11  1  0  0  0  0
  4 10  1  0  0  0  0
  5  4  1  0  0  0  0
  5 13  1  0  0  0  0
  5 12  1  1  0  0  0
  6  2  1  0  0  0  0
  9  3  1  0  0  0  0
 13 21  2  0  0  0  0
 13 14  1  0  0  0  0
 14 16  2  0  0  0  0
 15 14  1  0  0  0  0
 16 17  1  0  0  0  0
 17 18  1  0  0  0  0
 19 20  1  0  0  0  0
 19 17  2  0  0  0  0
 21 19  1  0  0  0  0
 22 28  1  0  0  0  0
 22 23  1  0  0  0  0
 23  1  1  0  0  0  0
 24 30  1  0  0  0  0
 24 23  2  0  0  0  0
 25 24  1  0  0  0  0
 26 27  1  0  0  0  0
 26 25  2  0  0  0  0
 27 22  2  0  0  0  0
 29 26  1  0  0  0  0
 30 35  1  0  0  0  0
 31 32  1  0  0  0  0
 31 30  2  0  0  0  0
 32 33  2  0  0  0  0
 33 38  1  0  0  0  0
 33 34  1  0  0  0  0
 34 39  1  0  0  0  0
 35 34  2  0  0  0  0
 35 40  1  0  0  0  0
 36 31  1  0  0  0  0
 37 32  1  0  0  0  0
M  END
>  <minimizedAffinity>
-5.17551088

$$$$

 OpenBabel03272509143D

 40 43  0  0  1  0  0  0  0  0999 V2000
   38.6750   23.8820   35.8130 N   0  0  0  0  0  0  0  0  0  0  0  0
   37.5240   24.0790   36.7240 C   0  0  0  0  0  0  0  0  0  0  0  0
   38.1800   24.0800   38.0870 C   0  0  0  0  0  0  0  0  0  0  0  0
   39.3040   23.0690   37.9310 C   0  0  0  0  0  0  0  0  0  0  0  0
   39.2650   22.7220   36.4520 C   0  0  2  0  0  0  0  0  0  0  0  0
   37.0570   25.0600   36.5140 H   0  0  0  0  0  0  0  0  0  0  0  0
   36.8460   23.2300   36.5940 H   0  0  0  0  0  0  0  0  0  0  0  0
   37.4120   23.7720   38.8120 H   0  0  0  0  0  0  0  0  0  0  0  0
   38.6210   25.0680   38.3030 H   0  0  0  0  0  0  0  0  0  0  0  0
   39.0450   22.1350   38.4840 H   0  0  0  0  0  0  0  0  0  0  0  0
   40.2760   23.4570   38.2610 H   0  0  0  0  0  0  0  0  0  0  0  0
   38.6610   21.8070   36.2870 H   0  0  0  0  0  0  0  0  0  0  0  0
   40.6830   22.5170   36.0730 C   0  0  0  0  0  0  0  0  0  0  0  0
   41.7580   22.9830   36.8030 C   0  0  0  0  0  0  0  0  0  0  0  0
   41.5540   23.5450   37.7280 H   0  0  0  0  0  0  0  0  0  0  0  0
   43.0810   22.7990   36.4620 C   0  0  0  0  0  3  0  0  0  0  0  0
   43.3830   22.1010   35.3120 C   0  0  0  0  0  0  0  0  0  0  0  0
   44.4010   21.9430   35.0220 H   0  0  0  0  0  0  0  0  0  0  0  0
   42.3380   21.6040   34.5300 C   0  0  0  0  0  0  0  0  0  0  0  0
   42.6040   21.0620   33.6340 H   0  0  0  0  0  0  0  0  0  0  0  0
   41.0620   21.8320   34.9400 C   0  0  0  0  0  3  0  0  0  0  0  0
   40.2260   25.4590   34.9110 C   0  0  0  0  0  0  0  0  0  0  0  0
   39.2130   24.4900   34.6600 C   0  0  0  0  0  0  0  0  0  0  0  0
   38.8640   24.2620   33.3270 C   0  0  0  0  0  0  0  0  0  0  0  0
   39.5040   24.9720   32.3530 N   0  0  0  0  0  0  0  0  0  0  0  0
   40.4540   25.8770   32.6290 C   0  0  0  0  0  0  0  0  0  0  0  0
   40.8120   26.1190   33.9090 N   0  0  0  0  0  0  0  0  0  0  0  0
   40.5730   25.7050   35.9000 H   0  0  0  0  0  0  0  0  0  0  0  0
   40.9650   26.4450   31.8500 H   0  0  0  0  0  0  0  0  0  0  0  0
   37.8650   23.3030   32.9580 C   0  0  0  0  0  0  0  0  0  0  0  0
   36.7950   23.7150   32.2000 C   0  0  0  0  0  0  0  0  0  0  0  0
   35.7820   22.8690   31.7920 C   0  0  0  0  0  0  0  0  0  0  0  0
   35.8880   21.5450   32.1880 C   0  0  0  0  0  0  0  0  0  0  0  0
   36.9450   21.0450   32.9600 C   0  0  0  0  0  0  0  0  0  0  0  0
   37.9190   21.9810   33.3220 C   0  0  0  0  0  0  0  0  0  0  0  0
   36.6740   24.7570   31.8660 H   0  0  0  0  0  0  0  0  0  0  0  0
   34.9530   23.1920   31.2040 H   0  0  0  0  0  0  0  0  0  0  0  0
   35.1190   20.8340   31.8950 H   0  0  0  0  0  0  0  0  0  0  0  0
   36.9800   20.0010   33.2420 H   0  0  0  0  0  0  0  0  0  0  0  0
   38.7240   21.5870   33.9150 H   0  0  0  0  0  0  0  0  0  0  0  0
  1  5  1  0  0  0  0
  1  2  1  0  0  0  0
  2  3  1  0  0  0  0
  3  9  1  0  0  0  0
  3  8  1  0  0  0  0
  4  3  1  0  0  0  0
  4 11  1  0  0  0  0
  4 10  1  0  0  0  0
  5 12  1  6  0  0  0
  5  4  1  0  0  0  0
  6  2  1  0  0  0  0
  7  2  1  0  0  0  0
 13  5  1  0  0  0  0
 13 14  1  0  0  0  0
 14 15  1  0  0  0  0
 16 14  2  0  0  0  0
 17 16  1  0  0  0  0
 18 17  1  0  0  0  0
 19 21  1  0  0  0  0
 19 17  2  0  0  0  0
 20 19  1  0  0  0  0
 21 13  2  0  0  0  0
 22 28  1  0  0  0  0
 23 22  1  0  0  0  0
 23  1  1  0  0  0  0
 24 23  2  0  0  0  0
 25 26  2  0  0  0  0
 25 24  1  0  0  0  0
 26 27  1  0  0  0  0
 27 22  2  0  0  0  0
 29 26  1  0  0  0  0
 30 35  1  0  0  0  0
 30 24  1  0  0  0  0
 31 30  2  0  0  0  0
 32 33  2  0  0  0  0
 32 31  1  0  0  0  0
 33 34  1  0  0  0  0
 34 39  1  0  0  0  0
 34 35  2  0  0  0  0
 35 40  1  0  0  0  0
 36 31  1  0  0  0  0
 37 32  1  0  0  0  0
 38 33  1  0  0  0  0
M  END
>  <minimizedAffinity>
-5.15451384

$$$$
