
 OpenBabel03272505523D

 44 47  0  0  1  0  0  0  0  0999 V2000
   37.2600   29.2730   50.5230 C   0  0  0  0  0  0  0  0  0  0  0  0
   37.4190   30.6580   50.7680 C   0  0  0  0  0  0  0  0  0  0  0  0
   36.6560   31.5320   49.9950 C   0  0  0  0  0  0  0  0  0  0  0  0
   35.8160   31.0040   49.0630 N   0  0  0  0  0  0  0  0  0  0  0  0
   35.7010   29.6940   48.8680 C   0  0  0  0  0  0  0  0  0  0  0  0
   36.4190   28.8360   49.5950 N   0  0  0  0  0  0  0  0  0  0  0  0
   34.8080   29.2050   47.8800 N   0  0  0  0  0  0  0  0  0  0  0  0
   34.1750   27.9020   47.9970 C   0  0  0  0  0  0  0  0  0  0  0  0
   32.6920   28.0380   47.8630 C   0  0  0  0  0  0  0  0  0  0  0  0
   32.2220   29.2270   47.3510 N   0  0  0  0  0  0  0  0  0  0  0  0
   33.0450   30.0720   46.5220 C   0  0  0  0  0  0  0  0  0  0  0  0
   34.4800   29.9900   46.6990 C   0  0  2  0  0  0  0  0  0  0  0  0
   37.8780   28.6690   51.1560 H   0  0  0  0  0  0  0  0  0  0  0  0
   38.0680   31.1210   51.4920 H   0  0  0  0  0  0  0  0  0  0  0  0
   36.7140   32.6060   50.1160 H   0  0  0  0  0  0  0  0  0  0  0  0
   34.3570   27.5770   49.0700 H   0  0  0  0  0  0  0  0  0  0  0  0
   34.6430   27.1130   47.4090 H   0  0  0  0  0  0  0  0  0  0  0  0
   32.1460   27.7920   48.7970 H   0  0  0  0  0  0  0  0  0  0  0  0
   32.3890   27.2050   47.1620 H   0  0  0  0  0  0  0  0  0  0  0  0
   31.2550   29.1850   47.0220 H   0  0  0  0  0  0  0  0  0  0  0  0
   32.5730   30.0840   45.5510 H   0  0  0  0  0  0  0  0  0  0  0  0
   32.7400   31.1020   46.9220 H   0  0  0  0  0  0  0  0  0  0  0  0
   34.9620   31.0040   46.8470 H   0  0  0  0  0  0  0  0  0  0  0  0
   35.1950   29.3870   45.5860 N   0  0  2  0  0  0  0  0  0  0  0  0
   36.2790   30.2550   45.1270 C   0  0  0  0  0  0  0  0  0  0  0  0
   36.3540   30.1130   43.6180 C   0  0  0  0  0  0  0  0  0  0  0  0
   35.4310   28.9820   43.3480 C   0  0  0  0  0  0  0  0  0  0  0  0
   34.3690   29.1290   44.4600 C   0  0  1  0  0  0  0  0  0  0  0  0
   36.0460   31.3220   45.3620 H   0  0  0  0  0  0  0  0  0  0  0  0
   37.2210   30.0280   45.6330 H   0  0  0  0  0  0  0  0  0  0  0  0
   36.0280   31.0430   43.1150 H   0  0  0  0  0  0  0  0  0  0  0  0
   37.4220   29.9010   43.3670 H   0  0  0  0  0  0  0  0  0  0  0  0
   35.9880   28.0410   43.5250 H   0  0  0  0  0  0  0  0  0  0  0  0
   34.9510   29.0000   42.3500 H   0  0  0  0  0  0  0  0  0  0  0  0
   33.7890   29.9430   44.0380 H   0  0  0  0  0  0  0  0  0  0  0  0
   33.7200   27.7980   44.4130 C   0  0  0  0  0  0  0  0  0  0  0  0
   32.4030   27.7190   44.0010 C   0  0  0  0  0  0  0  0  0  0  0  0
   31.7910   28.5810   43.6940 H   0  0  0  0  0  0  0  0  0  0  0  0
   31.6850   26.5510   43.9200 C   0  0  0  0  0  0  0  0  0  0  0  0
   32.2800   25.3580   44.2620 C   0  0  0  0  0  0  0  0  0  0  0  0
   31.8610   24.3630   44.2540 H   0  0  0  0  0  0  0  0  0  0  0  0
   33.5810   25.3870   44.6740 C   0  0  0  0  0  0  0  0  0  0  0  0
   34.1610   24.5240   44.9700 H   0  0  0  0  0  0  0  0  0  0  0  0
   34.2730   26.5760   44.7450 C   0  0  0  0  0  0  0  0  0  0  0  0
  1  2  1  0  0  0  0
  1 13  1  0  0  0  0
  2 14  1  0  0  0  0
  3 15  1  0  0  0  0
  3  2  2  0  0  0  0
  4  3  1  0  0  0  0
  5  4  2  0  0  0  0
  5  6  1  0  0  0  0
  6  1  2  0  0  0  0
  7  8  1  0  0  0  0
  7  5  1  0  0  0  0
  8 16  1  0  0  0  0
  9  8  1  0  0  0  0
  9 18  1  0  0  0  0
 10  9  1  0  0  0  0
 11 12  1  0  0  0  0
 11 22  1  0  0  0  0
 11 10  1  0  0  0  0
 12 23  1  1  0  0  0
 12  7  1  0  0  0  0
 17  8  1  0  0  0  0
 19  9  1  0  0  0  0
 20 10  1  0  0  0  0
 21 11  1  0  0  0  0
 24 25  1  6  0  0  0
 24 12  1  0  0  0  0
 25 29  1  0  0  0  0
 25 30  1  0  0  0  0
 26 25  1  0  0  0  0
 27 33  1  0  0  0  0
 27 26  1  0  0  0  0
 27 28  1  0  0  0  0
 28 35  1  6  0  0  0
 28 24  1  0  0  0  0
 31 26  1  0  0  0  0
 32 26  1  0  0  0  0
 34 27  1  0  0  0  0
 36 28  1  0  0  0  0
 36 44  1  0  0  0  0
 37 36  2  0  0  0  0
 38 37  1  0  0  0  0
 39 37  1  0  0  0  0
 39 40  2  0  0  0  0
 40 42  1  0  0  0  0
 41 40  1  0  0  0  0
 42 44  2  0  0  0  0
 42 43  1  0  0  0  0
M  END
>  <minimizedAffinity>
-4.72970057

>  <minimizedRMSD>
0.724833131

$$$$
