
 OpenBabel03272510233D

 31 34  0  0  0  0  0  0  0  0999 V2000
   34.5890   28.4190   48.4200 C   0  0  0  0  0  0  0  0  0  0  0  0
   35.3670   29.5510   48.2840 C   0  0  0  0  0  0  0  0  0  0  0  0
   35.2650   30.3190   47.1550 C   0  0  0  0  0  0  0  0  0  0  0  0
   34.3690   29.9270   46.1680 C   0  0  0  0  0  0  0  0  0  0  0  0
   34.1010   30.5280   44.9760 N   0  0  0  0  0  0  0  0  0  0  0  0
   33.1600   29.7790   44.3620 C   0  0  0  0  0  0  0  0  0  0  0  0
   32.8320   28.7330   45.1330 N   0  0  0  0  0  0  0  0  0  0  0  0
   33.5710   28.8040   46.2610 C   0  0  0  0  0  0  0  0  0  0  0  0
   33.6950   28.0410   47.4200 C   0  0  0  0  0  0  0  0  0  0  0  0
   34.5900   27.7400   49.2720 H   0  0  0  0  0  0  0  0  0  0  0  0
   35.8680   31.1960   47.0490 H   0  0  0  0  0  0  0  0  0  0  0  0
   34.5570   31.4130   44.6160 H   0  0  0  0  0  0  0  0  0  0  0  0
   33.0690   27.1520   47.5020 H   0  0  0  0  0  0  0  0  0  0  0  0
   38.1950   30.8660   50.3810 C   0  0  0  0  0  0  0  0  0  0  0  0
   37.4040   30.6440   49.2540 C   0  0  0  0  0  0  0  0  0  0  0  0
   36.2680   29.8520   49.3900 C   0  0  0  0  0  0  0  0  0  0  0  0
   35.9930   29.3420   50.6140 N   0  0  0  0  0  0  0  0  0  0  0  0
   36.7730   29.5690   51.6970 C   0  0  0  0  0  0  0  0  0  0  0  0
   37.8610   30.3250   51.5720 N   0  0  0  0  0  0  0  0  0  0  0  0
   39.0790   31.4670   50.3280 H   0  0  0  0  0  0  0  0  0  0  0  0
   37.6430   31.0580   48.2970 H   0  0  0  0  0  0  0  0  0  0  0  0
   36.4030   29.0820   52.6010 H   0  0  0  0  0  0  0  0  0  0  0  0
   32.5630   30.0360   43.0570 C   0  0  0  0  0  0  0  0  0  0  0  0
   31.1950   29.9100   42.8300 C   0  0  0  0  0  0  0  0  0  0  0  0
   30.5940   29.6070   43.6890 H   0  0  0  0  0  0  0  0  0  0  0  0
   30.5760   30.1390   41.6230 C   0  0  0  0  0  3  0  0  0  0  0  0
   31.3510   30.5210   40.5480 C   0  0  0  0  0  0  0  0  0  0  0  0
   30.7890   30.6800   39.6370 H   0  0  0  0  0  0  0  0  0  0  0  0
   32.7090   30.6550   40.7340 C   0  0  0  0  0  0  0  0  0  0  0  0
   33.2430   30.9570   39.8430 H   0  0  0  0  0  0  0  0  0  0  0  0
   33.2980   30.4180   41.9600 C   0  0  0  0  0  3  0  0  0  0  0  0
  1 10  1  0  0  0  0
  2  1  1  0  0  0  0
  2 16  1  0  0  0  0
  3  2  2  0  0  0  0
  4  8  2  0  0  0  0
  4  3  1  0  0  0  0
  5  4  1  0  0  0  0
  6  5  1  0  0  0  0
  6  7  2  0  0  0  0
  7  8  1  0  0  0  0
  8  9  1  0  0  0  0
  9 13  1  0  0  0  0
  9  1  2  0  0  0  0
 11  3  1  0  0  0  0
 12  5  1  0  0  0  0
 14 19  1  0  0  0  0
 15 16  1  0  0  0  0
 15 14  2  0  0  0  0
 16 17  2  0  0  0  0
 17 18  1  0  0  0  0
 18 22  1  0  0  0  0
 19 18  2  0  0  0  0
 20 14  1  0  0  0  0
 21 15  1  0  0  0  0
 23  6  1  0  0  0  0
 24 23  1  0  0  0  0
 24 25  1  0  0  0  0
 26 24  2  0  0  0  0
 27 29  2  0  0  0  0
 27 26  1  0  0  0  0
 28 27  1  0  0  0  0
 29 31  1  0  0  0  0
 30 29  1  0  0  0  0
 31 23  2  0  0  0  0
M  END
>  <minimizedAffinity>
-4.49784756

>  <minimizedRMSD>
7.07156563

$$$$
