
 OpenBabel03262520263D

 42 45  0  0  0  0  0  0  0  0999 V2000
   37.8110   25.0130   33.6690 C   0  0  0  0  0  0  0  0  0  0  0  0
   37.3050   24.1970   32.6310 C   0  0  0  0  0  0  0  0  0  0  0  0
   36.5630   24.6310   31.5830 C   0  0  0  0  0  0  0  0  0  0  0  0
   36.2450   25.9250   31.4560 C   0  0  0  0  0  0  0  0  0  0  0  0
   36.7260   26.7180   32.4480 C   0  0  0  0  0  0  0  0  0  0  0  0
   37.4470   26.2600   33.4550 N   0  0  0  0  0  0  0  0  0  0  0  0
   37.5280   23.1090   32.6690 H   0  0  0  0  0  0  0  0  0  0  0  0
   36.2210   23.8900   30.8250 H   0  0  0  0  0  0  0  0  0  0  0  0
   35.6640   26.3430   30.6570 H   0  0  0  0  0  0  0  0  0  0  0  0
   37.8940   23.3280   35.3200 C   0  0  0  0  0  0  0  0  0  0  0  0
   38.6080   24.4230   34.7320 C   0  0  0  0  0  0  0  0  0  0  0  0
   39.8450   24.6940   35.2390 C   0  0  0  0  0  0  0  0  0  0  0  0
   40.3050   23.9070   36.2620 N   0  0  0  0  0  0  0  0  0  0  0  0
   39.6370   22.8900   36.8030 C   0  0  0  0  0  0  0  0  0  0  0  0
   38.4170   22.6110   36.3140 N   0  0  0  0  0  0  0  0  0  0  0  0
   40.2720   22.1960   37.8380 N   0  0  0  0  0  0  0  0  0  0  0  0
   36.9240   22.9940   35.0350 H   0  0  0  0  0  0  0  0  0  0  0  0
   39.7330   22.2480   38.7390 H   0  0  0  0  0  0  0  0  0  0  0  0
   41.1810   21.7060   37.6540 H   0  0  0  0  0  0  0  0  0  0  0  0
   40.6140   25.7940   34.6830 C   0  0  0  0  0  0  0  0  0  0  0  0
   41.8370   25.7720   35.1710 F   0  0  0  0  0  0  0  0  0  0  0  0
   40.6770   25.8160   33.2990 F   0  0  0  0  0  0  0  0  0  0  0  0
   40.0500   27.0540   35.0380 F   0  0  0  0  0  0  0  0  0  0  0  0
   35.6010   28.0130   34.6240 F   0  0  0  0  0  0  0  0  0  0  0  0
   35.8970   28.8060   33.5360 C   0  0  0  0  0  0  0  0  0  0  0  0
   36.4580   28.1730   32.4430 C   0  0  0  0  0  0  0  0  0  0  0  0
   36.7340   29.0030   31.3870 C   0  0  0  0  0  0  0  0  0  0  0  0
   36.4710   30.3520   31.4140 C   0  0  0  0  0  0  0  0  0  0  0  0
   35.9100   30.9200   32.5330 C   0  0  0  0  0  0  0  0  0  0  0  0
   35.6140   30.1480   33.6160 C   0  0  0  0  0  0  0  0  0  0  0  0
   37.1800   28.5600   30.4940 H   0  0  0  0  0  0  0  0  0  0  0  0
   36.7220   30.9320   30.5300 H   0  0  0  0  0  0  0  0  0  0  0  0
   35.7230   31.9760   32.5090 H   0  0  0  0  0  0  0  0  0  0  0  0
   35.0140   30.7270   34.8240 C   0  0  0  0  0  0  0  0  0  0  0  0
   33.6600   30.4810   35.0410 C   0  0  0  0  0  0  0  0  0  0  0  0
   33.0720   29.8900   34.3540 H   0  0  0  0  0  0  0  0  0  0  0  0
   33.0100   30.9840   36.1510 C   0  0  0  0  0  3  0  0  0  0  0  0
   33.7710   31.7380   37.0220 C   0  0  0  0  0  0  0  0  0  0  0  0
   33.2290   32.1210   37.8890 H   0  0  0  0  0  0  0  0  0  0  0  0
   35.1120   32.0030   36.8420 C   0  0  0  0  0  0  0  0  0  0  0  0
   35.6740   32.6060   37.5620 H   0  0  0  0  0  0  0  0  0  0  0  0
   35.7590   31.4950   35.7260 C   0  0  0  0  0  3  0  0  0  0  0  0
  1 11  1  0  0  0  0
  2  7  1  0  0  0  0
  2  1  2  0  0  0  0
  3  2  1  0  0  0  0
  4  3  2  0  0  0  0
  4  5  1  0  0  0  0
  5  6  2  0  0  0  0
  6  1  1  0  0  0  0
  8  3  1  0  0  0  0
  9  4  1  0  0  0  0
 10 15  1  0  0  0  0
 11 12  1  0  0  0  0
 11 10  2  0  0  0  0
 12 13  2  0  0  0  0
 13 14  1  0  0  0  0
 14 16  1  0  0  0  0
 15 14  2  0  0  0  0
 16 18  1  0  0  0  0
 17 10  1  0  0  0  0
 19 16  1  0  0  0  0
 20 23  1  0  0  0  0
 20 21  1  0  0  0  0
 20 12  1  0  0  0  0
 22 20  1  0  0  0  0
 25 30  1  0  0  0  0
 25 24  1  0  0  0  0
 26  5  1  0  0  0  0
 26 25  2  0  0  0  0
 27 28  2  0  0  0  0
 27 26  1  0  0  0  0
 28 29  1  0  0  0  0
 29 30  2  0  0  0  0
 30 34  1  0  0  0  0
 31 27  1  0  0  0  0
 32 28  1  0  0  0  0
 33 29  1  0  0  0  0
 34 35  2  0  0  0  0
 34 42  1  0  0  0  0
 35 37  1  0  0  0  0
 36 35  1  0  0  0  0
 37 38  2  0  0  0  0
 38 39  1  0  0  0  0
 40 38  1  0  0  0  0
 40 41  1  0  0  0  0
 42 40  2  0  0  0  0
M  END
>  <minimizedAffinity>
-7.5271225

$$$$

 OpenBabel03262520263D

 42 45  0  0  0  0  0  0  0  0999 V2000
   37.8360   26.5750   32.9530 C   0  0  0  0  0  0  0  0  0  0  0  0
   38.7390   26.6580   31.8680 C   0  0  0  0  0  0  0  0  0  0  0  0
   38.7260   27.6150   30.9080 C   0  0  0  0  0  0  0  0  0  0  0  0
   37.8110   28.5920   30.9250 C   0  0  0  0  0  0  0  0  0  0  0  0
   36.9380   28.5210   31.9640 C   0  0  0  0  0  0  0  0  0  0  0  0
   36.9810   27.5740   32.8820 N   0  0  0  0  0  0  0  0  0  0  0  0
   39.5290   25.8800   31.7870 H   0  0  0  0  0  0  0  0  0  0  0  0
   39.4920   27.5750   30.1010 H   0  0  0  0  0  0  0  0  0  0  0  0
   37.7360   29.3820   30.2030 H   0  0  0  0  0  0  0  0  0  0  0  0
   37.7960   24.2360   33.2750 C   0  0  0  0  0  0  0  0  0  0  0  0
   37.9690   25.5020   33.9250 C   0  0  0  0  0  0  0  0  0  0  0  0
   38.2240   25.4760   35.2650 C   0  0  0  0  0  0  0  0  0  0  0  0
   38.2940   24.2530   35.8800 N   0  0  0  0  0  0  0  0  0  0  0  0
   38.1330   23.0810   35.2700 C   0  0  0  0  0  0  0  0  0  0  0  0
   37.8820   23.0910   33.9500 N   0  0  0  0  0  0  0  0  0  0  0  0
   38.2470   21.9340   36.0630 N   0  0  0  0  0  0  0  0  0  0  0  0
   37.5940   24.0930   32.2400 H   0  0  0  0  0  0  0  0  0  0  0  0
   37.3590   21.3720   36.0750 H   0  0  0  0  0  0  0  0  0  0  0  0
   39.1500   21.7310   36.5580 H   0  0  0  0  0  0  0  0  0  0  0  0
   38.4060   26.7290   35.9770 C   0  0  0  0  0  0  0  0  0  0  0  0
   39.5740   27.2500   35.6650 F   0  0  0  0  0  0  0  0  0  0  0  0
   37.4140   27.6710   35.7570 F   0  0  0  0  0  0  0  0  0  0  0  0
   38.4050   26.5290   37.3890 F   0  0  0  0  0  0  0  0  0  0  0  0
   35.7290   29.0220   34.4060 F   0  0  0  0  0  0  0  0  0  0  0  0
   35.2760   29.7730   33.3420 C   0  0  0  0  0  0  0  0  0  0  0  0
   35.8700   29.5340   32.1180 C   0  0  0  0  0  0  0  0  0  0  0  0
   35.3860   30.3050   31.0920 C   0  0  0  0  0  0  0  0  0  0  0  0
   34.3910   31.2360   31.2690 C   0  0  0  0  0  0  0  0  0  0  0  0
   33.8410   31.4250   32.5140 C   0  0  0  0  0  0  0  0  0  0  0  0
   34.2800   30.6900   33.5740 C   0  0  0  0  0  0  0  0  0  0  0  0
   35.8180   30.1610   30.1000 H   0  0  0  0  0  0  0  0  0  0  0  0
   34.0690   31.8010   30.3980 H   0  0  0  0  0  0  0  0  0  0  0  0
   33.0670   32.1630   32.6060 H   0  0  0  0  0  0  0  0  0  0  0  0
   33.7110   30.8700   34.9160 C   0  0  0  0  0  0  0  0  0  0  0  0
   34.3170   31.8140   35.7410 C   0  0  0  0  0  0  0  0  0  0  0  0
   35.1690   32.3930   35.4130 H   0  0  0  0  0  0  0  0  0  0  0  0
   33.8500   32.0530   37.0180 C   0  0  0  0  0  3  0  0  0  0  0  0
   32.7610   31.3090   37.4260 C   0  0  0  0  0  0  0  0  0  0  0  0
   32.4160   31.5210   38.4410 H   0  0  0  0  0  0  0  0  0  0  0  0
   32.1350   30.3650   36.6390 C   0  0  0  0  0  0  0  0  0  0  0  0
   31.2730   29.8000   37.0080 H   0  0  0  0  0  0  0  0  0  0  0  0
   32.6080   30.1310   35.3580 C   0  0  0  0  0  3  0  0  0  0  0  0
  1 11  1  0  0  0  0
  2  1  2  0  0  0  0
  3  4  2  0  0  0  0
  3  2  1  0  0  0  0
  4  5  1  0  0  0  0
  5 26  1  0  0  0  0
  5  6  2  0  0  0  0
  6  1  1  0  0  0  0
  7  2  1  0  0  0  0
  8  3  1  0  0  0  0
  9  4  1  0  0  0  0
 10 11  2  0  0  0  0
 10 15  1  0  0  0  0
 11 12  1  0  0  0  0
 12 13  2  0  0  0  0
 12 20  1  0  0  0  0
 14 13  1  0  0  0  0
 14 16  1  0  0  0  0
 15 14  2  0  0  0  0
 16 18  1  0  0  0  0
 16 19  1  0  0  0  0
 17 10  1  0  0  0  0
 20 23  1  0  0  0  0
 21 20  1  0  0  0  0
 22 20  1  0  0  0  0
 25 30  1  0  0  0  0
 25 24  1  0  0  0  0
 26 25  2  0  0  0  0
 27 28  2  0  0  0  0
 27 26  1  0  0  0  0
 28 29  1  0  0  0  0
 29 33  1  0  0  0  0
 29 30  2  0  0  0  0
 30 34  1  0  0  0  0
 31 27  1  0  0  0  0
 32 28  1  0  0  0  0
 34 42  2  0  0  0  0
 34 35  1  0  0  0  0
 35 37  2  0  0  0  0
 36 35  1  0  0  0  0
 37 38  1  0  0  0  0
 38 39  1  0  0  0  0
 40 41  1  0  0  0  0
 40 38  2  0  0  0  0
 42 40  1  0  0  0  0
M  END
>  <minimizedAffinity>
-7.22482824

$$$$

 OpenBabel03262520263D

 42 45  0  0  0  0  0  0  0  0999 V2000
   35.1670   29.8520   34.1870 C   0  0  0  0  0  0  0  0  0  0  0  0
   34.4720   29.7760   32.9580 C   0  0  0  0  0  0  0  0  0  0  0  0
   34.7870   28.9520   31.9290 C   0  0  0  0  0  0  0  0  0  0  0  0
   35.8290   28.1160   32.0130 C   0  0  0  0  0  0  0  0  0  0  0  0
   36.5040   28.1810   33.1900 C   0  0  0  0  0  0  0  0  0  0  0  0
   36.1680   28.9970   34.1720 N   0  0  0  0  0  0  0  0  0  0  0  0
   33.5940   30.4420   32.8140 H   0  0  0  0  0  0  0  0  0  0  0  0
   34.1620   28.9830   31.0070 H   0  0  0  0  0  0  0  0  0  0  0  0
   36.1400   27.4360   31.2430 H   0  0  0  0  0  0  0  0  0  0  0  0
   35.7310   31.7510   35.4720 C   0  0  0  0  0  0  0  0  0  0  0  0
   34.7150   30.7720   35.2190 C   0  0  0  0  0  0  0  0  0  0  0  0
   33.5640   30.8780   35.9430 C   0  0  0  0  0  0  0  0  0  0  0  0
   33.4690   31.9020   36.8480 N   0  0  0  0  0  0  0  0  0  0  0  0
   34.4170   32.8090   37.0790 C   0  0  0  0  0  0  0  0  0  0  0  0
   35.5560   32.7170   36.3730 N   0  0  0  0  0  0  0  0  0  0  0  0
   34.1360   33.7870   38.0390 N   0  0  0  0  0  0  0  0  0  0  0  0
   36.6790   31.8010   34.9900 H   0  0  0  0  0  0  0  0  0  0  0  0
   34.8100   33.7540   38.8450 H   0  0  0  0  0  0  0  0  0  0  0  0
   33.3260   34.4390   37.8970 H   0  0  0  0  0  0  0  0  0  0  0  0
   32.5000   29.9120   35.7290 C   0  0  0  0  0  0  0  0  0  0  0  0
   33.0080   28.6990   35.6690 F   0  0  0  0  0  0  0  0  0  0  0  0
   31.4940   29.9380   36.6800 F   0  0  0  0  0  0  0  0  0  0  0  0
   31.8310   30.1420   34.4910 F   0  0  0  0  0  0  0  0  0  0  0  0
   36.6660   26.5080   35.3920 F   0  0  0  0  0  0  0  0  0  0  0  0
   37.7460   26.4850   34.5350 C   0  0  0  0  0  0  0  0  0  0  0  0
   37.6780   27.3140   33.4320 C   0  0  0  0  0  0  0  0  0  0  0  0
   38.7750   27.2560   32.6100 C   0  0  0  0  0  0  0  0  0  0  0  0
   39.8510   26.4400   32.8650 C   0  0  0  0  0  0  0  0  0  0  0  0
   39.8560   25.6380   33.9820 C   0  0  0  0  0  0  0  0  0  0  0  0
   38.7950   25.6510   34.8370 C   0  0  0  0  0  0  0  0  0  0  0  0
   38.7790   27.8890   31.7210 H   0  0  0  0  0  0  0  0  0  0  0  0
   40.6770   26.4600   32.1590 H   0  0  0  0  0  0  0  0  0  0  0  0
   40.7170   25.0180   34.1400 H   0  0  0  0  0  0  0  0  0  0  0  0
   38.7730   24.8060   36.0370 C   0  0  0  0  0  0  0  0  0  0  0  0
   39.6040   23.6880   36.0420 C   0  0  0  0  0  0  0  0  0  0  0  0
   40.2410   23.4490   35.2010 H   0  0  0  0  0  0  0  0  0  0  0  0
   39.6520   22.8360   37.1270 C   0  0  0  0  0  3  0  0  0  0  0  0
   38.8340   23.1510   38.1950 C   0  0  0  0  0  0  0  0  0  0  0  0
   38.8940   22.4580   39.0370 H   0  0  0  0  0  0  0  0  0  0  0  0
   37.9980   24.2470   38.2270 C   0  0  0  0  0  0  0  0  0  0  0  0
   37.3690   24.4560   39.0980 H   0  0  0  0  0  0  0  0  0  0  0  0
   37.9560   25.0990   37.1350 C   0  0  0  0  0  3  0  0  0  0  0  0
  1 11  1  0  0  0  0
  2  1  2  0  0  0  0
  3  4  2  0  0  0  0
  3  2  1  0  0  0  0
  4  5  1  0  0  0  0
  5 26  1  0  0  0  0
  5  6  2  0  0  0  0
  6  1  1  0  0  0  0
  7  2  1  0  0  0  0
  8  3  1  0  0  0  0
  9  4  1  0  0  0  0
 10 15  1  0  0  0  0
 11 10  2  0  0  0  0
 11 12  1  0  0  0  0
 12 13  2  0  0  0  0
 13 14  1  0  0  0  0
 14 16  1  0  0  0  0
 15 14  2  0  0  0  0
 16 18  1  0  0  0  0
 17 10  1  0  0  0  0
 19 16  1  0  0  0  0
 20 12  1  0  0  0  0
 20 22  1  0  0  0  0
 21 20  1  0  0  0  0
 23 20  1  0  0  0  0
 25 30  1  0  0  0  0
 25 24  1  0  0  0  0
 26 25  2  0  0  0  0
 27 28  2  0  0  0  0
 27 26  1  0  0  0  0
 28 29  1  0  0  0  0
 29 33  1  0  0  0  0
 29 30  2  0  0  0  0
 30 34  1  0  0  0  0
 31 27  1  0  0  0  0
 32 28  1  0  0  0  0
 34 35  2  0  0  0  0
 34 42  1  0  0  0  0
 35 37  1  0  0  0  0
 36 35  1  0  0  0  0
 37 38  2  0  0  0  0
 38 40  1  0  0  0  0
 38 39  1  0  0  0  0
 40 41  1  0  0  0  0
 42 40  2  0  0  0  0
M  END
>  <minimizedAffinity>
-7.14511585

$$$$

 OpenBabel03262520263D

 42 45  0  0  0  0  0  0  0  0999 V2000
   35.1870   29.5480   33.5720 C   0  0  0  0  0  0  0  0  0  0  0  0
   35.1000   29.8420   32.1920 C   0  0  0  0  0  0  0  0  0  0  0  0
   35.9070   29.3340   31.2280 C   0  0  0  0  0  0  0  0  0  0  0  0
   36.8890   28.4780   31.5370 C   0  0  0  0  0  0  0  0  0  0  0  0
   36.9820   28.1890   32.8610 C   0  0  0  0  0  0  0  0  0  0  0  0
   36.1770   28.7030   33.7720 N   0  0  0  0  0  0  0  0  0  0  0  0
   34.3080   30.5470   31.8590 H   0  0  0  0  0  0  0  0  0  0  0  0
   35.7390   29.6410   30.1710 H   0  0  0  0  0  0  0  0  0  0  0  0
   37.5660   28.0340   30.8330 H   0  0  0  0  0  0  0  0  0  0  0  0
   32.9520   29.5620   34.3300 C   0  0  0  0  0  0  0  0  0  0  0  0
   34.2470   30.1510   34.5020 C   0  0  0  0  0  0  0  0  0  0  0  0
   34.3640   31.1140   35.4620 C   0  0  0  0  0  0  0  0  0  0  0  0
   33.2430   31.4400   36.1810 N   0  0  0  0  0  0  0  0  0  0  0  0
   32.0430   30.8880   36.0170 C   0  0  0  0  0  0  0  0  0  0  0  0
   31.9130   29.9390   35.0750 N   0  0  0  0  0  0  0  0  0  0  0  0
   31.0170   31.3460   36.8510 N   0  0  0  0  0  0  0  0  0  0  0  0
   32.7030   28.8030   33.6270 H   0  0  0  0  0  0  0  0  0  0  0  0
   30.2300   31.7810   36.3060 H   0  0  0  0  0  0  0  0  0  0  0  0
   31.1020   31.2330   37.8910 H   0  0  0  0  0  0  0  0  0  0  0  0
   35.6530   31.7470   35.6790 C   0  0  0  0  0  0  0  0  0  0  0  0
   36.5260   30.8470   36.0820 F   0  0  0  0  0  0  0  0  0  0  0  0
   36.1640   32.4150   34.5790 F   0  0  0  0  0  0  0  0  0  0  0  0
   35.5790   32.7380   36.7010 F   0  0  0  0  0  0  0  0  0  0  0  0
   36.5250   26.4810   34.9950 F   0  0  0  0  0  0  0  0  0  0  0  0
   37.7770   26.4090   34.4210 C   0  0  0  0  0  0  0  0  0  0  0  0
   38.0180   27.2550   33.3550 C   0  0  0  0  0  0  0  0  0  0  0  0
   39.2760   27.1460   32.8180 C   0  0  0  0  0  0  0  0  0  0  0  0
   40.2160   26.2690   33.3020 C   0  0  0  0  0  0  0  0  0  0  0  0
   39.9120   25.4540   34.3670 C   0  0  0  0  0  0  0  0  0  0  0  0
   38.6790   25.5150   34.9430 C   0  0  0  0  0  0  0  0  0  0  0  0
   39.5250   27.7890   31.9720 H   0  0  0  0  0  0  0  0  0  0  0  0
   41.1880   26.2520   32.8150 H   0  0  0  0  0  0  0  0  0  0  0  0
   40.6770   24.7850   34.7110 H   0  0  0  0  0  0  0  0  0  0  0  0
   38.3260   24.6570   36.0810 C   0  0  0  0  0  0  0  0  0  0  0  0
   38.3210   25.2470   37.3430 C   0  0  0  0  0  0  0  0  0  0  0  0
   38.5650   26.2910   37.4840 H   0  0  0  0  0  0  0  0  0  0  0  0
   38.0010   24.5200   38.4720 C   0  0  0  0  0  3  0  0  0  0  0  0
   37.6910   23.1880   38.2800 C   0  0  0  0  0  0  0  0  0  0  0  0
   37.4420   22.6400   39.1920 H   0  0  0  0  0  0  0  0  0  0  0  0
   37.6850   22.5690   37.0480 C   0  0  0  0  0  0  0  0  0  0  0  0
   37.4310   21.5090   36.9470 H   0  0  0  0  0  0  0  0  0  0  0  0
   38.0070   23.3050   35.9190 C   0  0  0  0  0  3  0  0  0  0  0  0
  1  6  1  0  0  0  0
  1 11  1  0  0  0  0
  2  1  2  0  0  0  0
  3  4  2  0  0  0  0
  3  2  1  0  0  0  0
  4  5  1  0  0  0  0
  5 26  1  0  0  0  0
  5  6  2  0  0  0  0
  7  2  1  0  0  0  0
  8  3  1  0  0  0  0
  9  4  1  0  0  0  0
 10 11  2  0  0  0  0
 10 15  1  0  0  0  0
 11 12  1  0  0  0  0
 12 20  1  0  0  0  0
 12 13  2  0  0  0  0
 14 13  1  0  0  0  0
 14 16  1  0  0  0  0
 15 14  2  0  0  0  0
 16 19  1  0  0  0  0
 17 10  1  0  0  0  0
 18 16  1  0  0  0  0
 20 21  1  0  0  0  0
 20 23  1  0  0  0  0
 22 20  1  0  0  0  0
 25 30  1  0  0  0  0
 25 24  1  0  0  0  0
 26 25  2  0  0  0  0
 27 28  2  0  0  0  0
 27 26  1  0  0  0  0
 28 29  1  0  0  0  0
 29 33  1  0  0  0  0
 29 30  2  0  0  0  0
 30 34  1  0  0  0  0
 31 27  1  0  0  0  0
 32 28  1  0  0  0  0
 34 35  1  0  0  0  0
 35 36  1  0  0  0  0
 35 37  2  0  0  0  0
 38 37  1  0  0  0  0
 38 39  1  0  0  0  0
 40 38  2  0  0  0  0
 41 40  1  0  0  0  0
 42 34  2  0  0  0  0
 42 40  1  0  0  0  0
M  END
>  <minimizedAffinity>
-6.97071743

$$$$

 OpenBabel03262520263D

 42 45  0  0  0  0  0  0  0  0999 V2000
   38.3410   24.9780   33.4590 C   0  0  0  0  0  0  0  0  0  0  0  0
   37.5640   24.0450   32.7340 C   0  0  0  0  0  0  0  0  0  0  0  0
   36.5080   24.3520   31.9410 C   0  0  0  0  0  0  0  0  0  0  0  0
   36.1120   25.6210   31.7850 C   0  0  0  0  0  0  0  0  0  0  0  0
   36.8520   26.5260   32.4780 C   0  0  0  0  0  0  0  0  0  0  0  0
   37.8750   26.1900   33.2410 N   0  0  0  0  0  0  0  0  0  0  0  0
   37.8320   22.9700   32.8150 H   0  0  0  0  0  0  0  0  0  0  0  0
   35.9730   23.5260   31.4190 H   0  0  0  0  0  0  0  0  0  0  0  0
   35.2890   25.9410   31.1760 H   0  0  0  0  0  0  0  0  0  0  0  0
   40.6560   24.5170   33.4750 C   0  0  0  0  0  0  0  0  0  0  0  0
   39.4600   24.5170   34.2650 C   0  0  0  0  0  0  0  0  0  0  0  0
   39.5800   24.1170   35.5640 C   0  0  0  0  0  0  0  0  0  0  0  0
   40.8230   23.7490   36.0080 N   0  0  0  0  0  0  0  0  0  0  0  0
   41.9300   23.7520   35.2700 C   0  0  0  0  0  0  0  0  0  0  0  0
   41.8270   24.1430   33.9880 N   0  0  0  0  0  0  0  0  0  0  0  0
   43.1120   23.3490   35.9000 N   0  0  0  0  0  0  0  0  0  0  0  0
   40.7250   24.8010   32.4520 H   0  0  0  0  0  0  0  0  0  0  0  0
   43.5300   22.4960   35.4480 H   0  0  0  0  0  0  0  0  0  0  0  0
   43.4720   23.8880   36.7250 H   0  0  0  0  0  0  0  0  0  0  0  0
   38.4000   24.0960   36.4110 C   0  0  0  0  0  0  0  0  0  0  0  0
   38.7510   23.8320   37.6520 F   0  0  0  0  0  0  0  0  0  0  0  0
   37.6490   25.2600   36.3890 F   0  0  0  0  0  0  0  0  0  0  0  0
   37.4910   23.0730   36.0110 F   0  0  0  0  0  0  0  0  0  0  0  0
   35.7700   27.9060   34.6230 F   0  0  0  0  0  0  0  0  0  0  0  0
   35.9960   28.6450   33.4810 C   0  0  0  0  0  0  0  0  0  0  0  0
   36.5360   27.9690   32.4030 C   0  0  0  0  0  0  0  0  0  0  0  0
   36.7440   28.7460   31.2920 C   0  0  0  0  0  0  0  0  0  0  0  0
   36.4370   30.0850   31.2550 C   0  0  0  0  0  0  0  0  0  0  0  0
   35.9010   30.6980   32.3620 C   0  0  0  0  0  0  0  0  0  0  0  0
   35.6730   29.9800   33.4970 C   0  0  0  0  0  0  0  0  0  0  0  0
   37.1690   28.2670   30.4080 H   0  0  0  0  0  0  0  0  0  0  0  0
   36.6350   30.6220   30.3310 H   0  0  0  0  0  0  0  0  0  0  0  0
   35.6780   31.7450   32.2880 H   0  0  0  0  0  0  0  0  0  0  0  0
   35.1010   30.6080   34.6950 C   0  0  0  0  0  0  0  0  0  0  0  0
   33.7450   30.3960   34.9370 C   0  0  0  0  0  0  0  0  0  0  0  0
   33.1360   29.7950   34.2760 H   0  0  0  0  0  0  0  0  0  0  0  0
   33.1210   30.9450   36.0390 C   0  0  0  0  0  3  0  0  0  0  0  0
   33.9080   31.7100   36.8770 C   0  0  0  0  0  0  0  0  0  0  0  0
   33.3850   32.1310   37.7380 H   0  0  0  0  0  0  0  0  0  0  0  0
   35.2510   31.9430   36.6710 C   0  0  0  0  0  0  0  0  0  0  0  0
   35.8350   32.5560   37.3650 H   0  0  0  0  0  0  0  0  0  0  0  0
   35.8730   31.3880   35.5630 C   0  0  0  0  0  3  0  0  0  0  0  0
  1 11  1  0  0  0  0
  2  7  1  0  0  0  0
  2  1  2  0  0  0  0
  3  2  1  0  0  0  0
  4  3  2  0  0  0  0
  4  5  1  0  0  0  0
  5  6  2  0  0  0  0
  6  1  1  0  0  0  0
  8  3  1  0  0  0  0
  9  4  1  0  0  0  0
 10 15  2  0  0  0  0
 10 11  1  0  0  0  0
 11 12  2  0  0  0  0
 12 13  1  0  0  0  0
 12 20  1  0  0  0  0
 14 16  1  0  0  0  0
 14 13  2  0  0  0  0
 15 14  1  0  0  0  0
 16 19  1  0  0  0  0
 17 10  1  0  0  0  0
 18 16  1  0  0  0  0
 20 21  1  0  0  0  0
 22 20  1  0  0  0  0
 23 20  1  0  0  0  0
 25 30  1  0  0  0  0
 25 24  1  0  0  0  0
 26  5  1  0  0  0  0
 26 25  2  0  0  0  0
 27 26  1  0  0  0  0
 28 27  2  0  0  0  0
 28 29  1  0  0  0  0
 29 30  2  0  0  0  0
 30 34  1  0  0  0  0
 31 27  1  0  0  0  0
 32 28  1  0  0  0  0
 33 29  1  0  0  0  0
 34 35  2  0  0  0  0
 34 42  1  0  0  0  0
 35 37  1  0  0  0  0
 36 35  1  0  0  0  0
 37 38  2  0  0  0  0
 38 39  1  0  0  0  0
 40 38  1  0  0  0  0
 40 41  1  0  0  0  0
 42 40  2  0  0  0  0
M  END
>  <minimizedAffinity>
-6.90664148

$$$$

 OpenBabel03262520263D

 42 45  0  0  0  0  0  0  0  0999 V2000
   35.1490   29.5680   33.2300 C   0  0  0  0  0  0  0  0  0  0  0  0
   35.2250   30.2790   32.0090 C   0  0  0  0  0  0  0  0  0  0  0  0
   36.0050   29.9420   30.9530 C   0  0  0  0  0  0  0  0  0  0  0  0
   36.7940   28.8620   30.9990 C   0  0  0  0  0  0  0  0  0  0  0  0
   36.7290   28.1720   32.1670 C   0  0  0  0  0  0  0  0  0  0  0  0
   35.9570   28.5300   33.1760 N   0  0  0  0  0  0  0  0  0  0  0  0
   34.5970   31.1880   31.8970 H   0  0  0  0  0  0  0  0  0  0  0  0
   35.9780   30.5820   30.0410 H   0  0  0  0  0  0  0  0  0  0  0  0
   37.4370   28.5320   30.2060 H   0  0  0  0  0  0  0  0  0  0  0  0
   32.9540   29.4660   34.0920 C   0  0  0  0  0  0  0  0  0  0  0  0
   34.2580   30.0290   34.2820 C   0  0  0  0  0  0  0  0  0  0  0  0
   34.4250   30.8450   35.3620 C   0  0  0  0  0  0  0  0  0  0  0  0
   33.3430   31.0600   36.1750 N   0  0  0  0  0  0  0  0  0  0  0  0
   32.1340   30.5340   35.9930 C   0  0  0  0  0  0  0  0  0  0  0  0
   31.9540   29.7290   34.9330 N   0  0  0  0  0  0  0  0  0  0  0  0
   31.1520   30.8640   36.9330 N   0  0  0  0  0  0  0  0  0  0  0  0
   32.6680   28.8150   33.3000 H   0  0  0  0  0  0  0  0  0  0  0  0
   30.3400   31.3700   36.4960 H   0  0  0  0  0  0  0  0  0  0  0  0
   31.2870   30.6040   37.9410 H   0  0  0  0  0  0  0  0  0  0  0  0
   35.7260   31.4450   35.6040 C   0  0  0  0  0  0  0  0  0  0  0  0
   36.6030   30.5040   35.8840 F   0  0  0  0  0  0  0  0  0  0  0  0
   36.2090   32.2210   34.5640 F   0  0  0  0  0  0  0  0  0  0  0  0
   35.6910   32.3260   36.7240 F   0  0  0  0  0  0  0  0  0  0  0  0
   35.6440   25.6310   31.9650 F   0  0  0  0  0  0  0  0  0  0  0  0
   36.9890   25.6920   32.2630 C   0  0  0  0  0  0  0  0  0  0  0  0
   37.5430   26.9530   32.3660 C   0  0  0  0  0  0  0  0  0  0  0  0
   38.8830   26.9610   32.6630 C   0  0  0  0  0  0  0  0  0  0  0  0
   39.6100   25.8090   32.8440 C   0  0  0  0  0  0  0  0  0  0  0  0
   38.9970   24.5840   32.7270 C   0  0  0  0  0  0  0  0  0  0  0  0
   37.6690   24.5110   32.4330 C   0  0  0  0  0  0  0  0  0  0  0  0
   39.3770   27.9300   32.7570 H   0  0  0  0  0  0  0  0  0  0  0  0
   40.6660   25.9120   33.0780 H   0  0  0  0  0  0  0  0  0  0  0  0
   39.6040   23.7120   32.8760 H   0  0  0  0  0  0  0  0  0  0  0  0
   36.9870   23.2160   32.3020 C   0  0  0  0  0  0  0  0  0  0  0  0
   37.1390   22.3110   33.3500 C   0  0  0  0  0  0  0  0  0  0  0  0
   37.7300   22.5460   34.2240 H   0  0  0  0  0  0  0  0  0  0  0  0
   36.5340   21.0700   33.3160 C   0  0  0  0  0  3  0  0  0  0  0  0
   35.7810   20.7810   32.1950 C   0  0  0  0  0  0  0  0  0  0  0  0
   35.3170   19.7920   32.1980 H   0  0  0  0  0  0  0  0  0  0  0  0
   35.6090   21.6500   31.1390 C   0  0  0  0  0  0  0  0  0  0  0  0
   35.0010   21.3750   30.2710 H   0  0  0  0  0  0  0  0  0  0  0  0
   36.2170   22.8940   31.1790 C   0  0  0  0  0  3  0  0  0  0  0  0
  1 11  1  0  0  0  0
  2  1  2  0  0  0  0
  3  4  2  0  0  0  0
  3  2  1  0  0  0  0
  4  5  1  0  0  0  0
  5 26  1  0  0  0  0
  5  6  2  0  0  0  0
  6  1  1  0  0  0  0
  7  2  1  0  0  0  0
  8  3  1  0  0  0  0
  9  4  1  0  0  0  0
 10 11  2  0  0  0  0
 10 15  1  0  0  0  0
 11 12  1  0  0  0  0
 12 20  1  0  0  0  0
 12 13  2  0  0  0  0
 14 13  1  0  0  0  0
 14 16  1  0  0  0  0
 15 14  2  0  0  0  0
 16 19  1  0  0  0  0
 17 10  1  0  0  0  0
 18 16  1  0  0  0  0
 20 21  1  0  0  0  0
 20 23  1  0  0  0  0
 22 20  1  0  0  0  0
 24 25  1  0  0  0  0
 25 26  2  0  0  0  0
 25 30  1  0  0  0  0
 26 27  1  0  0  0  0
 27 31  1  0  0  0  0
 27 28  2  0  0  0  0
 28 32  1  0  0  0  0
 29 28  1  0  0  0  0
 29 33  1  0  0  0  0
 30 29  2  0  0  0  0
 34 30  1  0  0  0  0
 34 35  1  0  0  0  0
 35 36  1  0  0  0  0
 37 35  2  0  0  0  0
 38 39  1  0  0  0  0
 38 37  1  0  0  0  0
 40 42  1  0  0  0  0
 40 38  2  0  0  0  0
 41 40  1  0  0  0  0
 42 34  2  0  0  0  0
M  END
>  <minimizedAffinity>
-6.90483761

$$$$

 OpenBabel03262520263D

 42 45  0  0  0  0  0  0  0  0999 V2000
   37.8850   24.5380   32.7890 C   0  0  0  0  0  0  0  0  0  0  0  0
   39.2570   24.7420   33.0650 C   0  0  0  0  0  0  0  0  0  0  0  0
   39.8660   25.9490   33.1630 C   0  0  0  0  0  0  0  0  0  0  0  0
   39.1750   27.0830   32.9960 C   0  0  0  0  0  0  0  0  0  0  0  0
   37.8560   26.8980   32.7290 C   0  0  0  0  0  0  0  0  0  0  0  0
   37.2960   25.7060   32.6420 N   0  0  0  0  0  0  0  0  0  0  0  0
   39.8970   23.8460   33.2160 H   0  0  0  0  0  0  0  0  0  0  0  0
   40.9570   25.9820   33.3860 H   0  0  0  0  0  0  0  0  0  0  0  0
   39.5860   28.0720   33.0580 H   0  0  0  0  0  0  0  0  0  0  0  0
   36.7990   22.9460   31.4250 C   0  0  0  0  0  0  0  0  0  0  0  0
   37.3520   23.1870   32.7250 C   0  0  0  0  0  0  0  0  0  0  0  0
   37.2930   22.1580   33.6190 C   0  0  0  0  0  0  0  0  0  0  0  0
   36.7150   20.9850   33.2090 N   0  0  0  0  0  0  0  0  0  0  0  0
   36.2040   20.7680   31.9990 C   0  0  0  0  0  0  0  0  0  0  0  0
   36.2550   21.7720   31.1080 N   0  0  0  0  0  0  0  0  0  0  0  0
   35.6600   19.5020   31.7610 N   0  0  0  0  0  0  0  0  0  0  0  0
   36.7710   23.6460   30.6230 H   0  0  0  0  0  0  0  0  0  0  0  0
   34.6350   19.5490   31.5290 H   0  0  0  0  0  0  0  0  0  0  0  0
   36.2700   18.6510   31.8280 H   0  0  0  0  0  0  0  0  0  0  0  0
   37.8370   22.3460   34.9540 C   0  0  0  0  0  0  0  0  0  0  0  0
   39.1320   22.1060   34.9420 F   0  0  0  0  0  0  0  0  0  0  0  0
   37.6110   23.5970   35.5010 F   0  0  0  0  0  0  0  0  0  0  0  0
   37.2560   21.4350   35.8840 F   0  0  0  0  0  0  0  0  0  0  0  0
   36.7220   28.2760   34.8490 F   0  0  0  0  0  0  0  0  0  0  0  0
   36.4020   28.7360   33.5890 C   0  0  0  0  0  0  0  0  0  0  0  0
   36.9620   28.0580   32.5220 C   0  0  0  0  0  0  0  0  0  0  0  0
   36.6150   28.5530   31.2910 C   0  0  0  0  0  0  0  0  0  0  0  0
   35.7790   29.6330   31.1330 C   0  0  0  0  0  0  0  0  0  0  0  0
   35.2560   30.2630   32.2370 C   0  0  0  0  0  0  0  0  0  0  0  0
   35.5640   29.8190   33.4880 C   0  0  0  0  0  0  0  0  0  0  0  0
   37.0270   28.0590   30.4090 H   0  0  0  0  0  0  0  0  0  0  0  0
   35.5580   29.9560   30.1190 H   0  0  0  0  0  0  0  0  0  0  0  0
   34.6090   31.1020   32.0660 H   0  0  0  0  0  0  0  0  0  0  0  0
   35.0190   30.4720   34.6850 C   0  0  0  0  0  0  0  0  0  0  0  0
   33.6810   30.2280   34.9870 C   0  0  0  0  0  0  0  0  0  0  0  0
   33.0660   29.5870   34.3720 H   0  0  0  0  0  0  0  0  0  0  0  0
   33.0820   30.7980   36.0930 C   0  0  0  0  0  3  0  0  0  0  0  0
   33.8770   31.6160   36.8730 C   0  0  0  0  0  0  0  0  0  0  0  0
   33.3750   32.0510   37.7390 H   0  0  0  0  0  0  0  0  0  0  0  0
   35.2040   31.8810   36.6060 C   0  0  0  0  0  0  0  0  0  0  0  0
   35.7940   32.5360   37.2540 H   0  0  0  0  0  0  0  0  0  0  0  0
   35.7990   31.3050   35.4940 C   0  0  0  0  0  3  0  0  0  0  0  0
  1  2  1  0  0  0  0
  2  3  2  0  0  0  0
  2  7  1  0  0  0  0
  3  8  1  0  0  0  0
  4  9  1  0  0  0  0
  4  3  1  0  0  0  0
  5  4  2  0  0  0  0
  6  5  1  0  0  0  0
  6  1  2  0  0  0  0
 10 11  1  0  0  0  0
 11  1  1  0  0  0  0
 11 12  2  0  0  0  0
 12 20  1  0  0  0  0
 13 12  1  0  0  0  0
 14 13  2  0  0  0  0
 15 10  2  0  0  0  0
 15 14  1  0  0  0  0
 16 19  1  0  0  0  0
 16 14  1  0  0  0  0
 17 10  1  0  0  0  0
 18 16  1  0  0  0  0
 20 22  1  0  0  0  0
 20 23  1  0  0  0  0
 21 20  1  0  0  0  0
 25 24  1  0  0  0  0
 26  5  1  0  0  0  0
 26 25  2  0  0  0  0
 27 26  1  0  0  0  0
 28 27  2  0  0  0  0
 28 29  1  0  0  0  0
 29 30  2  0  0  0  0
 30 25  1  0  0  0  0
 30 34  1  0  0  0  0
 31 27  1  0  0  0  0
 32 28  1  0  0  0  0
 33 29  1  0  0  0  0
 34 35  2  0  0  0  0
 34 42  1  0  0  0  0
 35 37  1  0  0  0  0
 36 35  1  0  0  0  0
 37 38  2  0  0  0  0
 38 39  1  0  0  0  0
 40 38  1  0  0  0  0
 40 41  1  0  0  0  0
 42 40  2  0  0  0  0
M  END
>  <minimizedAffinity>
-6.89197636

$$$$

 OpenBabel03262520263D

 42 45  0  0  0  0  0  0  0  0999 V2000
   37.2140   25.2000   32.8240 C   0  0  0  0  0  0  0  0  0  0  0  0
   36.7430   24.1160   32.0480 C   0  0  0  0  0  0  0  0  0  0  0  0
   36.9230   22.8040   32.3420 C   0  0  0  0  0  0  0  0  0  0  0  0
   37.5930   22.4320   33.4390 C   0  0  0  0  0  0  0  0  0  0  0  0
   38.0510   23.4670   34.1920 C   0  0  0  0  0  0  0  0  0  0  0  0
   37.8550   24.7330   33.8750 N   0  0  0  0  0  0  0  0  0  0  0  0
   36.1770   24.3470   31.1200 H   0  0  0  0  0  0  0  0  0  0  0  0
   36.5030   22.0380   31.6510 H   0  0  0  0  0  0  0  0  0  0  0  0
   37.7760   21.4180   33.7370 H   0  0  0  0  0  0  0  0  0  0  0  0
   36.7320   26.6010   30.9870 C   0  0  0  0  0  0  0  0  0  0  0  0
   36.9380   26.5640   32.4040 C   0  0  0  0  0  0  0  0  0  0  0  0
   36.8350   27.7490   33.0730 C   0  0  0  0  0  0  0  0  0  0  0  0
   36.5450   28.8730   32.3430 N   0  0  0  0  0  0  0  0  0  0  0  0
   36.3540   28.9000   31.0260 C   0  0  0  0  0  0  0  0  0  0  0  0
   36.4530   27.7400   30.3540 N   0  0  0  0  0  0  0  0  0  0  0  0
   36.0600   30.1430   30.4560 N   0  0  0  0  0  0  0  0  0  0  0  0
   36.7780   25.7650   30.3300 H   0  0  0  0  0  0  0  0  0  0  0  0
   36.7850   30.4370   29.7530 H   0  0  0  0  0  0  0  0  0  0  0  0
   35.1960   30.6600   30.7500 H   0  0  0  0  0  0  0  0  0  0  0  0
   37.0360   27.7720   34.5110 C   0  0  0  0  0  0  0  0  0  0  0  0
   36.6780   28.9460   34.9900 F   0  0  0  0  0  0  0  0  0  0  0  0
   36.3710   26.7750   35.2060 F   0  0  0  0  0  0  0  0  0  0  0  0
   38.4100   27.5900   34.8470 F   0  0  0  0  0  0  0  0  0  0  0  0
   40.6390   22.4790   34.1620 F   0  0  0  0  0  0  0  0  0  0  0  0
   40.0980   22.7190   35.4080 C   0  0  0  0  0  0  0  0  0  0  0  0
   38.8080   23.2130   35.4370 C   0  0  0  0  0  0  0  0  0  0  0  0
   38.3140   23.4350   36.6970 C   0  0  0  0  0  0  0  0  0  0  0  0
   39.0440   23.1870   37.8350 C   0  0  0  0  0  0  0  0  0  0  0  0
   40.3240   22.6950   37.7370 C   0  0  0  0  0  0  0  0  0  0  0  0
   40.8700   22.4530   36.5120 C   0  0  0  0  0  0  0  0  0  0  0  0
   37.2990   23.8260   36.7840 H   0  0  0  0  0  0  0  0  0  0  0  0
   38.5710   23.3920   38.7920 H   0  0  0  0  0  0  0  0  0  0  0  0
   40.8560   22.5160   38.6510 H   0  0  0  0  0  0  0  0  0  0  0  0
   42.2350   21.9280   36.3760 C   0  0  0  0  0  0  0  0  0  0  0  0
   42.4290   20.5820   36.6760 C   0  0  0  0  0  0  0  0  0  0  0  0
   41.6140   19.9460   36.9940 H   0  0  0  0  0  0  0  0  0  0  0  0
   43.6770   19.9990   36.5760 C   0  0  0  0  0  3  0  0  0  0  0  0
   44.7100   20.8200   36.1680 C   0  0  0  0  0  0  0  0  0  0  0  0
   45.6840   20.3300   36.1000 H   0  0  0  0  0  0  0  0  0  0  0  0
   44.5570   22.1560   35.8630 C   0  0  0  0  0  0  0  0  0  0  0  0
   45.4080   22.7660   35.5430 H   0  0  0  0  0  0  0  0  0  0  0  0
   43.3020   22.7340   35.9650 C   0  0  0  0  0  3  0  0  0  0  0  0
  1  6  1  0  0  0  0
  2  3  1  0  0  0  0
  2  1  2  0  0  0  0
  3  4  2  0  0  0  0
  4  9  1  0  0  0  0
  4  5  1  0  0  0  0
  5 26  1  0  0  0  0
  6  5  2  0  0  0  0
  7  2  1  0  0  0  0
  8  3  1  0  0  0  0
 10 11  1  0  0  0  0
 11  1  1  0  0  0  0
 11 12  2  0  0  0  0
 12 20  1  0  0  0  0
 13 12  1  0  0  0  0
 14 13  2  0  0  0  0
 15 10  2  0  0  0  0
 15 14  1  0  0  0  0
 16 19  1  0  0  0  0
 16 14  1  0  0  0  0
 17 10  1  0  0  0  0
 18 16  1  0  0  0  0
 20 23  1  0  0  0  0
 20 21  1  0  0  0  0
 20 22  1  0  0  0  0
 24 25  1  0  0  0  0
 25 26  2  0  0  0  0
 25 30  1  0  0  0  0
 26 27  1  0  0  0  0
 27 31  1  0  0  0  0
 27 28  2  0  0  0  0
 28 32  1  0  0  0  0
 29 28  1  0  0  0  0
 29 33  1  0  0  0  0
 30 29  2  0  0  0  0
 34 30  1  0  0  0  0
 34 35  1  0  0  0  0
 35 36  1  0  0  0  0
 37 35  2  0  0  0  0
 38 37  1  0  0  0  0
 39 38  1  0  0  0  0
 40 42  1  0  0  0  0
 40 38  2  0  0  0  0
 41 40  1  0  0  0  0
 42 34  2  0  0  0  0
M  END
>  <minimizedAffinity>
-6.87906694

$$$$

 OpenBabel03262520263D

 42 45  0  0  0  0  0  0  0  0999 V2000
   38.0470   26.1490   33.3670 C   0  0  0  0  0  0  0  0  0  0  0  0
   39.0340   26.1780   32.3540 C   0  0  0  0  0  0  0  0  0  0  0  0
   39.1200   27.1080   31.3710 C   0  0  0  0  0  0  0  0  0  0  0  0
   38.2330   28.1070   31.2910 C   0  0  0  0  0  0  0  0  0  0  0  0
   37.2810   28.0880   32.2590 C   0  0  0  0  0  0  0  0  0  0  0  0
   37.2280   27.1660   33.2030 N   0  0  0  0  0  0  0  0  0  0  0  0
   39.8060   25.3790   32.3550 H   0  0  0  0  0  0  0  0  0  0  0  0
   39.9460   27.0260   30.6270 H   0  0  0  0  0  0  0  0  0  0  0  0
   38.2360   28.8780   30.5440 H   0  0  0  0  0  0  0  0  0  0  0  0
   38.3190   25.6770   35.6640 C   0  0  0  0  0  0  0  0  0  0  0  0
   38.0760   25.1010   34.3750 C   0  0  0  0  0  0  0  0  0  0  0  0
   37.9130   23.7470   34.3260 C   0  0  0  0  0  0  0  0  0  0  0  0
   37.9940   23.0500   35.5030 N   0  0  0  0  0  0  0  0  0  0  0  0
   38.2190   23.5910   36.6980 C   0  0  0  0  0  0  0  0  0  0  0  0
   38.3820   24.9240   36.7610 N   0  0  0  0  0  0  0  0  0  0  0  0
   38.2620   22.7180   37.7900 N   0  0  0  0  0  0  0  0  0  0  0  0
   38.4650   26.7120   35.8640 H   0  0  0  0  0  0  0  0  0  0  0  0
   39.1960   22.7330   38.2720 H   0  0  0  0  0  0  0  0  0  0  0  0
   37.4160   22.1470   38.0330 H   0  0  0  0  0  0  0  0  0  0  0  0
   37.6660   23.1080   33.0440 C   0  0  0  0  0  0  0  0  0  0  0  0
   36.6550   23.6990   32.4430 F   0  0  0  0  0  0  0  0  0  0  0  0
   38.7550   23.0850   32.1880 F   0  0  0  0  0  0  0  0  0  0  0  0
   37.3070   21.7380   33.2080 F   0  0  0  0  0  0  0  0  0  0  0  0
   36.2350   29.0210   34.6490 F   0  0  0  0  0  0  0  0  0  0  0  0
   35.7190   29.5860   33.5020 C   0  0  0  0  0  0  0  0  0  0  0  0
   36.2320   29.1300   32.3030 C   0  0  0  0  0  0  0  0  0  0  0  0
   35.6890   29.7230   31.1920 C   0  0  0  0  0  0  0  0  0  0  0  0
   34.7140   30.6890   31.2670 C   0  0  0  0  0  0  0  0  0  0  0  0
   34.2450   31.0980   32.4930 C   0  0  0  0  0  0  0  0  0  0  0  0
   34.7470   30.5470   33.6340 C   0  0  0  0  0  0  0  0  0  0  0  0
   36.0550   29.4040   30.2140 H   0  0  0  0  0  0  0  0  0  0  0  0
   34.3400   31.1020   30.3340 H   0  0  0  0  0  0  0  0  0  0  0  0
   33.4850   31.8540   32.5040 H   0  0  0  0  0  0  0  0  0  0  0  0
   34.2660   30.9640   34.9580 C   0  0  0  0  0  0  0  0  0  0  0  0
   35.0560   31.8680   35.6640 C   0  0  0  0  0  0  0  0  0  0  0  0
   35.9840   32.2500   35.2610 H   0  0  0  0  0  0  0  0  0  0  0  0
   34.6850   32.3180   36.9150 C   0  0  0  0  0  3  0  0  0  0  0  0
   33.4980   31.8240   37.4210 C   0  0  0  0  0  0  0  0  0  0  0  0
   33.2320   32.1990   38.4120 H   0  0  0  0  0  0  0  0  0  0  0  0
   32.6900   30.9300   36.7530 C   0  0  0  0  0  0  0  0  0  0  0  0
   31.7560   30.5670   37.1950 H   0  0  0  0  0  0  0  0  0  0  0  0
   33.0680   30.4820   35.4970 C   0  0  0  0  0  3  0  0  0  0  0  0
  1 11  1  0  0  0  0
  2  7  1  0  0  0  0
  2  1  2  0  0  0  0
  3  2  1  0  0  0  0
  4  3  2  0  0  0  0
  4  5  1  0  0  0  0
  5 26  1  0  0  0  0
  5  6  2  0  0  0  0
  6  1  1  0  0  0  0
  8  3  1  0  0  0  0
  9  4  1  0  0  0  0
 10 17  1  0  0  0  0
 10 15  1  0  0  0  0
 11 10  2  0  0  0  0
 12 11  1  0  0  0  0
 12 13  2  0  0  0  0
 13 14  1  0  0  0  0
 14 15  2  0  0  0  0
 14 16  1  0  0  0  0
 16 19  1  0  0  0  0
 16 18  1  0  0  0  0
 20 23  1  0  0  0  0
 20 12  1  0  0  0  0
 21 20  1  0  0  0  0
 22 20  1  0  0  0  0
 25 30  1  0  0  0  0
 25 24  1  0  0  0  0
 26 25  2  0  0  0  0
 27 28  2  0  0  0  0
 27 26  1  0  0  0  0
 28 29  1  0  0  0  0
 29 33  1  0  0  0  0
 29 30  2  0  0  0  0
 30 34  1  0  0  0  0
 31 27  1  0  0  0  0
 32 28  1  0  0  0  0
 34 42  2  0  0  0  0
 34 35  1  0  0  0  0
 35 37  2  0  0  0  0
 36 35  1  0  0  0  0
 37 38  1  0  0  0  0
 38 39  1  0  0  0  0
 40 41  1  0  0  0  0
 40 38  2  0  0  0  0
 42 40  1  0  0  0  0
M  END
>  <minimizedAffinity>
-6.78571987

$$$$
