
 OpenBabel03272503033D

 28 30  0  0  0  0  0  0  0  0999 V2000
   37.5780   23.3110   33.2790 F   0  0  0  0  0  0  0  0  0  0  0  0
   36.7950   24.0880   32.4750 C   0  0  0  0  0  0  0  0  0  0  0  0
   35.9610   23.4820   31.5970 C   0  0  0  0  0  0  0  0  0  0  0  0
   35.1910   24.3230   30.8060 C   0  0  0  0  0  0  0  0  0  0  0  0
   35.2640   25.7010   30.9060 C   0  0  0  0  0  0  0  0  0  0  0  0
   36.1300   26.2680   31.8180 C   0  0  0  0  0  0  0  0  0  0  0  0
   36.9070   25.4460   32.6140 C   0  0  0  0  0  0  0  0  0  0  0  0
   34.5090   23.8730   30.0890 H   0  0  0  0  0  0  0  0  0  0  0  0
   34.6470   26.3390   30.2720 H   0  0  0  0  0  0  0  0  0  0  0  0
   36.1720   27.3500   31.8780 H   0  0  0  0  0  0  0  0  0  0  0  0
   34.9620   19.8740   32.1240 C   0  0  0  0  0  0  0  0  0  0  0  0
   34.9630   21.2750   32.2170 C   0  0  0  0  0  0  0  0  0  0  0  0
   35.9210   22.0360   31.5320 C   0  0  0  0  0  0  0  0  0  0  0  0
   36.8090   21.3360   30.8020 N   0  0  0  0  0  0  0  0  0  0  0  0
   36.7980   19.9970   30.7210 C   0  0  0  0  0  0  0  0  0  0  0  0
   35.8820   19.2740   31.3770 N   0  0  0  0  0  0  0  0  0  0  0  0
   34.1560   19.4080   32.7120 H   0  0  0  0  0  0  0  0  0  0  0  0
   34.2290   21.8050   32.8150 H   0  0  0  0  0  0  0  0  0  0  0  0
   37.5530   19.5060   30.1100 H   0  0  0  0  0  0  0  0  0  0  0  0
   37.8260   26.0420   33.5820 C   0  0  0  0  0  0  0  0  0  0  0  0
   37.3860   26.3440   34.8530 C   0  0  0  0  0  0  0  0  0  0  0  0
   36.3510   26.1160   35.0730 H   0  0  0  0  0  0  0  0  0  0  0  0
   38.1620   26.9060   35.8420 C   0  0  0  0  0  3  0  0  0  0  0  0
   39.4770   27.1560   35.4380 C   0  0  0  0  0  0  0  0  0  0  0  0
   40.1740   27.6010   36.1520 H   0  0  0  0  0  0  0  0  0  0  0  0
   39.9870   26.8860   34.2030 C   0  0  0  0  0  0  0  0  0  0  0  0
   41.0180   27.1050   33.9590 H   0  0  0  0  0  0  0  0  0  0  0  0
   39.1420   26.3230   33.2710 C   0  0  0  0  0  3  0  0  0  0  0  0
  2  7  1  0  0  0  0
  2  1  1  0  0  0  0
  3  2  2  0  0  0  0
  4  5  2  0  0  0  0
  4  3  1  0  0  0  0
  5  6  1  0  0  0  0
  6 10  1  0  0  0  0
  6  7  2  0  0  0  0
  7 20  1  0  0  0  0
  8  4  1  0  0  0  0
  9  5  1  0  0  0  0
 11 12  1  0  0  0  0
 11 17  1  0  0  0  0
 12 18  1  0  0  0  0
 13  3  1  0  0  0  0
 13 12  2  0  0  0  0
 14 13  1  0  0  0  0
 15 14  2  0  0  0  0
 15 16  1  0  0  0  0
 16 11  2  0  0  0  0
 19 15  1  0  0  0  0
 20 21  1  0  0  0  0
 21 22  1  0  0  0  0
 21 23  2  0  0  0  0
 24 23  1  0  0  0  0
 24 25  1  0  0  0  0
 26 24  2  0  0  0  0
 27 26  1  0  0  0  0
 28 20  2  0  0  0  0
 28 26  1  0  0  0  0
M  END
>  <minimizedAffinity>
-5.4911232

$$$$

 OpenBabel03272503033D

 28 30  0  0  0  0  0  0  0  0999 V2000
   37.6260   23.3200   33.3270 F   0  0  0  0  0  0  0  0  0  0  0  0
   36.8510   24.1110   32.5290 C   0  0  0  0  0  0  0  0  0  0  0  0
   36.9660   25.4550   32.6350 C   0  0  0  0  0  0  0  0  0  0  0  0
   36.1530   26.2060   31.7980 C   0  0  0  0  0  0  0  0  0  0  0  0
   35.2750   25.6210   30.9040 C   0  0  0  0  0  0  0  0  0  0  0  0
   35.1970   24.2450   30.8350 C   0  0  0  0  0  0  0  0  0  0  0  0
   35.9990   23.4800   31.6610 C   0  0  0  0  0  0  0  0  0  0  0  0
   36.2180   27.2900   31.8550 H   0  0  0  0  0  0  0  0  0  0  0  0
   34.6470   26.2350   30.2570 H   0  0  0  0  0  0  0  0  0  0  0  0
   34.5010   23.8080   30.1270 H   0  0  0  0  0  0  0  0  0  0  0  0
   38.4500   27.0140   35.7440 C   0  0  0  0  0  0  0  0  0  0  0  0
   37.5080   26.4750   34.8530 C   0  0  0  0  0  0  0  0  0  0  0  0
   37.9010   26.0180   33.5860 C   0  0  0  0  0  0  0  0  0  0  0  0
   39.2120   26.1360   33.3060 N   0  0  0  0  0  0  0  0  0  0  0  0
   40.1030   26.6520   34.1640 C   0  0  0  0  0  0  0  0  0  0  0  0
   39.7240   27.0870   35.3720 N   0  0  0  0  0  0  0  0  0  0  0  0
   38.0020   27.3310   36.6980 H   0  0  0  0  0  0  0  0  0  0  0  0
   36.4590   26.3960   35.1150 H   0  0  0  0  0  0  0  0  0  0  0  0
   41.1460   26.7120   33.8600 H   0  0  0  0  0  0  0  0  0  0  0  0
   35.9200   22.0210   31.5910 C   0  0  0  0  0  0  0  0  0  0  0  0
   36.8100   21.3210   30.8060 C   0  0  0  0  0  0  0  0  0  0  0  0
   37.5430   21.9060   30.2670 H   0  0  0  0  0  0  0  0  0  0  0  0
   36.8270   19.9520   30.6660 C   0  0  0  0  0  3  0  0  0  0  0  0
   35.8330   19.3070   31.4080 C   0  0  0  0  0  0  0  0  0  0  0  0
   35.7630   18.2180   31.3640 H   0  0  0  0  0  0  0  0  0  0  0  0
   34.9190   19.9280   32.2060 C   0  0  0  0  0  0  0  0  0  0  0  0
   34.1760   19.3640   32.7540 H   0  0  0  0  0  0  0  0  0  0  0  0
   34.9720   21.3020   32.2900 C   0  0  0  0  0  3  0  0  0  0  0  0
  2  3  1  0  0  0  0
  2  1  1  0  0  0  0
  3 13  1  0  0  0  0
  4  8  1  0  0  0  0
  4  3  2  0  0  0  0
  5  4  1  0  0  0  0
  6  5  2  0  0  0  0
  6  7  1  0  0  0  0
  7  2  2  0  0  0  0
  9  5  1  0  0  0  0
 10  6  1  0  0  0  0
 11 17  1  0  0  0  0
 12 18  1  0  0  0  0
 12 11  2  0  0  0  0
 13 12  1  0  0  0  0
 14 13  2  0  0  0  0
 14 15  1  0  0  0  0
 15 16  2  0  0  0  0
 16 11  1  0  0  0  0
 19 15  1  0  0  0  0
 20  7  1  0  0  0  0
 20 28  1  0  0  0  0
 21 20  2  0  0  0  0
 22 21  1  0  0  0  0
 23 21  1  0  0  0  0
 23 24  2  0  0  0  0
 24 26  1  0  0  0  0
 25 24  1  0  0  0  0
 26 28  2  0  0  0  0
 26 27  1  0  0  0  0
M  END
>  <minimizedAffinity>
-5.39656782

$$$$

 OpenBabel03272503033D

 28 30  0  0  0  0  0  0  0  0999 V2000
   35.9280   28.2150   34.7200 F   0  0  0  0  0  0  0  0  0  0  0  0
   36.0340   28.9780   33.5940 C   0  0  0  0  0  0  0  0  0  0  0  0
   36.6260   28.4450   32.4990 C   0  0  0  0  0  0  0  0  0  0  0  0
   36.7050   29.2670   31.3850 C   0  0  0  0  0  0  0  0  0  0  0  0
   36.2080   30.5580   31.3850 C   0  0  0  0  0  0  0  0  0  0  0  0
   35.6140   31.0540   32.5270 C   0  0  0  0  0  0  0  0  0  0  0  0
   35.5260   30.2490   33.6470 C   0  0  0  0  0  0  0  0  0  0  0  0
   37.1740   28.8730   30.4870 H   0  0  0  0  0  0  0  0  0  0  0  0
   36.2830   31.1840   30.4950 H   0  0  0  0  0  0  0  0  0  0  0  0
   35.2320   32.0690   32.5040 H   0  0  0  0  0  0  0  0  0  0  0  0
   38.8610   25.4440   33.0440 C   0  0  0  0  0  0  0  0  0  0  0  0
   38.4160   26.7760   33.0120 C   0  0  0  0  0  0  0  0  0  0  0  0
   37.1290   27.0880   32.5500 C   0  0  0  0  0  0  0  0  0  0  0  0
   36.3820   26.0400   32.1540 N   0  0  0  0  0  0  0  0  0  0  0  0
   36.8180   24.7730   32.1890 C   0  0  0  0  0  0  0  0  0  0  0  0
   38.0470   24.4790   32.6300 N   0  0  0  0  0  0  0  0  0  0  0  0
   39.8890   25.3470   33.4280 H   0  0  0  0  0  0  0  0  0  0  0  0
   39.0480   27.5930   33.3400 H   0  0  0  0  0  0  0  0  0  0  0  0
   36.1510   23.9830   31.8500 H   0  0  0  0  0  0  0  0  0  0  0  0
   34.8960   30.7700   34.8600 C   0  0  0  0  0  0  0  0  0  0  0  0
   33.5790   30.4690   35.1350 C   0  0  0  0  0  0  0  0  0  0  0  0
   33.0660   29.8430   34.4160 H   0  0  0  0  0  0  0  0  0  0  0  0
   32.8870   30.9050   36.2430 C   0  0  0  0  0  3  0  0  0  0  0  0
   33.6540   31.7050   37.0950 C   0  0  0  0  0  0  0  0  0  0  0  0
   33.1950   32.1020   38.0030 H   0  0  0  0  0  0  0  0  0  0  0  0
   34.9580   32.0470   36.8920 C   0  0  0  0  0  0  0  0  0  0  0  0
   35.4920   32.6710   37.5960 H   0  0  0  0  0  0  0  0  0  0  0  0
   35.5760   31.5680   35.7580 C   0  0  0  0  0  3  0  0  0  0  0  0
  2  7  1  0  0  0  0
  2  1  1  0  0  0  0
  3 13  1  0  0  0  0
  3  2  2  0  0  0  0
  4  5  2  0  0  0  0
  4  3  1  0  0  0  0
  5  6  1  0  0  0  0
  6  7  2  0  0  0  0
  7 20  1  0  0  0  0
  8  4  1  0  0  0  0
  9  5  1  0  0  0  0
 10  6  1  0  0  0  0
 11 17  1  0  0  0  0
 12 11  1  0  0  0  0
 12 18  1  0  0  0  0
 13 12  2  0  0  0  0
 14 15  2  0  0  0  0
 14 13  1  0  0  0  0
 15 16  1  0  0  0  0
 16 11  2  0  0  0  0
 19 15  1  0  0  0  0
 20 21  2  0  0  0  0
 20 28  1  0  0  0  0
 21 23  1  0  0  0  0
 22 21  1  0  0  0  0
 23 24  2  0  0  0  0
 24 25  1  0  0  0  0
 26 24  1  0  0  0  0
 26 27  1  0  0  0  0
 28 26  2  0  0  0  0
M  END
>  <minimizedAffinity>
-5.3764863

$$$$

 OpenBabel03272503033D

 28 30  0  0  0  0  0  0  0  0999 V2000
   40.3560   24.1830   34.6860 F   0  0  0  0  0  0  0  0  0  0  0  0
   39.7110   23.9690   35.8690 C   0  0  0  0  0  0  0  0  0  0  0  0
   38.4950   24.5320   36.0590 C   0  0  0  0  0  0  0  0  0  0  0  0
   37.8880   24.2800   37.2800 C   0  0  0  0  0  0  0  0  0  0  0  0
   38.4840   23.4970   38.2530 C   0  0  0  0  0  0  0  0  0  0  0  0
   39.7260   22.9460   38.0090 C   0  0  0  0  0  0  0  0  0  0  0  0
   40.3460   23.1870   36.7970 C   0  0  0  0  0  0  0  0  0  0  0  0
   36.9100   24.7160   37.4690 H   0  0  0  0  0  0  0  0  0  0  0  0
   37.9850   23.3140   39.2050 H   0  0  0  0  0  0  0  0  0  0  0  0
   40.1750   22.3360   38.7850 H   0  0  0  0  0  0  0  0  0  0  0  0
   37.0900   25.6680   32.7370 C   0  0  0  0  0  0  0  0  0  0  0  0
   37.6570   24.8450   33.7240 C   0  0  0  0  0  0  0  0  0  0  0  0
   37.9130   25.3430   35.0100 C   0  0  0  0  0  0  0  0  0  0  0  0
   37.5800   26.6320   35.2130 N   0  0  0  0  0  0  0  0  0  0  0  0
   37.0400   27.4080   34.2630 C   0  0  0  0  0  0  0  0  0  0  0  0
   36.7970   26.9300   33.0360 N   0  0  0  0  0  0  0  0  0  0  0  0
   36.9460   25.1470   31.7780 H   0  0  0  0  0  0  0  0  0  0  0  0
   37.9110   23.8100   33.5220 H   0  0  0  0  0  0  0  0  0  0  0  0
   36.8010   28.4410   34.5080 H   0  0  0  0  0  0  0  0  0  0  0  0
   41.6620   22.6040   36.5340 C   0  0  0  0  0  0  0  0  0  0  0  0
   42.7640   23.4220   36.4040 C   0  0  0  0  0  0  0  0  0  0  0  0
   42.5910   24.4850   36.5070 H   0  0  0  0  0  0  0  0  0  0  0  0
   44.0450   22.9820   36.1560 C   0  0  0  0  0  3  0  0  0  0  0  0
   44.1410   21.5920   36.0430 C   0  0  0  0  0  0  0  0  0  0  0  0
   45.1170   21.1440   35.8460 H   0  0  0  0  0  0  0  0  0  0  0  0
   43.1000   20.7190   36.1590 C   0  0  0  0  0  0  0  0  0  0  0  0
   43.2480   19.6520   36.0600 H   0  0  0  0  0  0  0  0  0  0  0  0
   41.8500   21.2420   36.4070 C   0  0  0  0  0  3  0  0  0  0  0  0
  1  2  1  0  0  0  0
  2  3  2  0  0  0  0
  2  7  1  0  0  0  0
  3  4  1  0  0  0  0
  4  8  1  0  0  0  0
  4  5  2  0  0  0  0
  5  9  1  0  0  0  0
  6  5  1  0  0  0  0
  6 10  1  0  0  0  0
  7  6  2  0  0  0  0
 11 16  2  0  0  0  0
 11 12  1  0  0  0  0
 12 13  2  0  0  0  0
 13 14  1  0  0  0  0
 13  3  1  0  0  0  0
 15 19  1  0  0  0  0
 15 14  2  0  0  0  0
 16 15  1  0  0  0  0
 17 11  1  0  0  0  0
 18 12  1  0  0  0  0
 20  7  1  0  0  0  0
 21 22  1  0  0  0  0
 21 20  2  0  0  0  0
 23 21  1  0  0  0  0
 24 23  2  0  0  0  0
 24 26  1  0  0  0  0
 25 24  1  0  0  0  0
 26 28  2  0  0  0  0
 27 26  1  0  0  0  0
 28 20  1  0  0  0  0
M  END
>  <minimizedAffinity>
-5.30664253

$$$$

 OpenBabel03272503033D

 28 30  0  0  0  0  0  0  0  0999 V2000
   36.3010   28.1260   34.8800 F   0  0  0  0  0  0  0  0  0  0  0  0
   36.2330   28.7030   33.6450 C   0  0  0  0  0  0  0  0  0  0  0  0
   36.8150   28.0720   32.5980 C   0  0  0  0  0  0  0  0  0  0  0  0
   36.7130   28.7060   31.3680 C   0  0  0  0  0  0  0  0  0  0  0  0
   36.0540   29.9120   31.2130 C   0  0  0  0  0  0  0  0  0  0  0  0
   35.4770   30.5140   32.3130 C   0  0  0  0  0  0  0  0  0  0  0  0
   35.5700   29.8970   33.5470 C   0  0  0  0  0  0  0  0  0  0  0  0
   37.1680   28.2280   30.5040 H   0  0  0  0  0  0  0  0  0  0  0  0
   35.9880   30.3890   30.2350 H   0  0  0  0  0  0  0  0  0  0  0  0
   34.9660   31.4600   32.1690 H   0  0  0  0  0  0  0  0  0  0  0  0
   37.5690   24.3730   32.8080 C   0  0  0  0  0  0  0  0  0  0  0  0
   36.8730   25.5720   32.5870 C   0  0  0  0  0  0  0  0  0  0  0  0
   37.4920   26.8100   32.8130 C   0  0  0  0  0  0  0  0  0  0  0  0
   38.7660   26.7540   33.2440 N   0  0  0  0  0  0  0  0  0  0  0  0
   39.4200   25.6030   33.4520 C   0  0  0  0  0  0  0  0  0  0  0  0
   38.8260   24.4230   33.2360 N   0  0  0  0  0  0  0  0  0  0  0  0
   36.9610   23.4800   32.5910 H   0  0  0  0  0  0  0  0  0  0  0  0
   35.8460   25.5760   32.2380 H   0  0  0  0  0  0  0  0  0  0  0  0
   40.4500   25.6440   33.8030 H   0  0  0  0  0  0  0  0  0  0  0  0
   34.9590   30.5310   34.7150 C   0  0  0  0  0  0  0  0  0  0  0  0
   35.7140   31.3490   35.5280 C   0  0  0  0  0  0  0  0  0  0  0  0
   36.7510   31.4830   35.2490 H   0  0  0  0  0  0  0  0  0  0  0  0
   35.2440   31.9940   36.6490 C   0  0  0  0  0  3  0  0  0  0  0  0
   33.8930   31.7430   36.9070 C   0  0  0  0  0  0  0  0  0  0  0  0
   33.4250   32.2100   37.7770 H   0  0  0  0  0  0  0  0  0  0  0  0
   33.0820   30.9490   36.1530 C   0  0  0  0  0  0  0  0  0  0  0  0
   32.0420   30.8000   36.4120 H   0  0  0  0  0  0  0  0  0  0  0  0
   33.6320   30.3400   35.0460 C   0  0  0  0  0  3  0  0  0  0  0  0
  2  1  1  0  0  0  0
  3 13  1  0  0  0  0
  3  2  2  0  0  0  0
  4  3  1  0  0  0  0
  5  4  2  0  0  0  0
  5  6  1  0  0  0  0
  6  7  2  0  0  0  0
  7  2  1  0  0  0  0
  7 20  1  0  0  0  0
  8  4  1  0  0  0  0
  9  5  1  0  0  0  0
 10  6  1  0  0  0  0
 11 16  1  0  0  0  0
 12 11  2  0  0  0  0
 12 13  1  0  0  0  0
 13 14  2  0  0  0  0
 14 15  1  0  0  0  0
 15 19  1  0  0  0  0
 16 15  2  0  0  0  0
 17 11  1  0  0  0  0
 18 12  1  0  0  0  0
 20 28  2  0  0  0  0
 20 21  1  0  0  0  0
 21 23  2  0  0  0  0
 22 21  1  0  0  0  0
 23 24  1  0  0  0  0
 24 25  1  0  0  0  0
 26 27  1  0  0  0  0
 26 24  2  0  0  0  0
 28 26  1  0  0  0  0
M  END
>  <minimizedAffinity>
-5.23537493

$$$$

 OpenBabel03272503033D

 28 30  0  0  0  0  0  0  0  0999 V2000
   40.4510   24.5020   34.6510 F   0  0  0  0  0  0  0  0  0  0  0  0
   39.8620   24.1050   35.8160 C   0  0  0  0  0  0  0  0  0  0  0  0
   40.4630   23.1430   36.5540 C   0  0  0  0  0  0  0  0  0  0  0  0
   39.8180   22.7810   37.7280 C   0  0  0  0  0  0  0  0  0  0  0  0
   38.6290   23.3660   38.1270 C   0  0  0  0  0  0  0  0  0  0  0  0
   38.0580   24.3420   37.3370 C   0  0  0  0  0  0  0  0  0  0  0  0
   38.6870   24.7160   36.1630 C   0  0  0  0  0  0  0  0  0  0  0  0
   40.2710   22.0110   38.3480 H   0  0  0  0  0  0  0  0  0  0  0  0
   38.1420   23.0620   39.0540 H   0  0  0  0  0  0  0  0  0  0  0  0
   37.1260   24.7870   37.6680 H   0  0  0  0  0  0  0  0  0  0  0  0
   44.1390   22.5280   35.9170 C   0  0  0  0  0  0  0  0  0  0  0  0
   42.9580   23.1260   36.3850 C   0  0  0  0  0  0  0  0  0  0  0  0
   41.7070   22.5630   36.0940 C   0  0  0  0  0  0  0  0  0  0  0  0
   41.7320   21.4380   35.3540 N   0  0  0  0  0  0  0  0  0  0  0  0
   42.8670   20.8760   34.9130 C   0  0  0  0  0  0  0  0  0  0  0  0
   44.0590   21.4170   35.1930 N   0  0  0  0  0  0  0  0  0  0  0  0
   45.0440   23.0770   36.2200 H   0  0  0  0  0  0  0  0  0  0  0  0
   42.9780   24.0330   36.9790 H   0  0  0  0  0  0  0  0  0  0  0  0
   42.8010   19.9660   34.3190 H   0  0  0  0  0  0  0  0  0  0  0  0
   38.0850   25.7520   35.3240 C   0  0  0  0  0  0  0  0  0  0  0  0
   37.6410   25.4380   34.0570 C   0  0  0  0  0  0  0  0  0  0  0  0
   37.7640   24.4100   33.7420 H   0  0  0  0  0  0  0  0  0  0  0  0
   37.0610   26.3310   33.1840 C   0  0  0  0  0  3  0  0  0  0  0  0
   36.9570   27.6250   33.7020 C   0  0  0  0  0  0  0  0  0  0  0  0
   36.5100   28.4080   33.0850 H   0  0  0  0  0  0  0  0  0  0  0  0
   37.3720   28.0120   34.9420 C   0  0  0  0  0  0  0  0  0  0  0  0
   37.2600   29.0340   35.2790 H   0  0  0  0  0  0  0  0  0  0  0  0
   37.9420   27.0560   35.7530 C   0  0  0  0  0  3  0  0  0  0  0  0
  1  2  1  0  0  0  0
  2  7  2  0  0  0  0
  2  3  1  0  0  0  0
  3  4  2  0  0  0  0
  4  5  1  0  0  0  0
  4  8  1  0  0  0  0
  5  9  1  0  0  0  0
  6 10  1  0  0  0  0
  6  5  2  0  0  0  0
  7  6  1  0  0  0  0
 11 17  1  0  0  0  0
 11 12  1  0  0  0  0
 12 18  1  0  0  0  0
 13 12  2  0  0  0  0
 13  3  1  0  0  0  0
 14 13  1  0  0  0  0
 15 16  1  0  0  0  0
 15 14  2  0  0  0  0
 16 11  2  0  0  0  0
 19 15  1  0  0  0  0
 20 28  1  0  0  0  0
 20  7  1  0  0  0  0
 21 20  2  0  0  0  0
 22 21  1  0  0  0  0
 23 24  2  0  0  0  0
 23 21  1  0  0  0  0
 24 26  1  0  0  0  0
 25 24  1  0  0  0  0
 26 27  1  0  0  0  0
 26 28  2  0  0  0  0
M  END
>  <minimizedAffinity>
-5.1802392

$$$$

 OpenBabel03272503033D

 28 30  0  0  0  0  0  0  0  0999 V2000
   35.3360   28.4720   34.4470 F   0  0  0  0  0  0  0  0  0  0  0  0
   35.6900   29.3250   33.4420 C   0  0  0  0  0  0  0  0  0  0  0  0
   35.4660   30.6500   33.6030 C   0  0  0  0  0  0  0  0  0  0  0  0
   35.8460   31.4670   32.5490 C   0  0  0  0  0  0  0  0  0  0  0  0
   36.4240   30.9640   31.3970 C   0  0  0  0  0  0  0  0  0  0  0  0
   36.6320   29.6050   31.2830 C   0  0  0  0  0  0  0  0  0  0  0  0
   36.2580   28.7740   32.3240 C   0  0  0  0  0  0  0  0  0  0  0  0
   35.6810   32.5380   32.6420 H   0  0  0  0  0  0  0  0  0  0  0  0
   36.7150   31.6290   30.5830 H   0  0  0  0  0  0  0  0  0  0  0  0
   37.0860   29.2320   30.3720 H   0  0  0  0  0  0  0  0  0  0  0  0
   34.9650   32.1940   37.0180 C   0  0  0  0  0  0  0  0  0  0  0  0
   35.5970   31.7470   35.8460 C   0  0  0  0  0  0  0  0  0  0  0  0
   34.8590   31.1270   34.8280 C   0  0  0  0  0  0  0  0  0  0  0  0
   33.5380   31.0010   35.0600 N   0  0  0  0  0  0  0  0  0  0  0  0
   32.9460   31.4320   36.1830 C   0  0  0  0  0  0  0  0  0  0  0  0
   33.6540   32.0240   37.1520 N   0  0  0  0  0  0  0  0  0  0  0  0
   35.6650   32.6600   37.7290 H   0  0  0  0  0  0  0  0  0  0  0  0
   36.6640   31.8660   35.6960 H   0  0  0  0  0  0  0  0  0  0  0  0
   31.8720   31.2920   36.2920 H   0  0  0  0  0  0  0  0  0  0  0  0
   36.4770   27.3330   32.2080 C   0  0  0  0  0  0  0  0  0  0  0  0
   35.6440   26.5720   31.4160 C   0  0  0  0  0  0  0  0  0  0  0  0
   34.8480   27.0980   30.9070 H   0  0  0  0  0  0  0  0  0  0  0  0
   35.7570   25.2120   31.2350 C   0  0  0  0  0  3  0  0  0  0  0  0
   36.8210   24.6460   31.9440 C   0  0  0  0  0  0  0  0  0  0  0  0
   36.9950   23.5700   31.8670 H   0  0  0  0  0  0  0  0  0  0  0  0
   37.6860   25.3300   32.7450 C   0  0  0  0  0  0  0  0  0  0  0  0
   38.4900   24.8250   33.2650 H   0  0  0  0  0  0  0  0  0  0  0  0
   37.5020   26.6890   32.8720 C   0  0  0  0  0  3  0  0  0  0  0  0
  2  3  1  0  0  0  0
  2  1  1  0  0  0  0
  3 13  1  0  0  0  0
  4  8  1  0  0  0  0
  4  3  2  0  0  0  0
  5  4  1  0  0  0  0
  6  5  2  0  0  0  0
  6  7  1  0  0  0  0
  7  2  2  0  0  0  0
  9  5  1  0  0  0  0
 10  6  1  0  0  0  0
 11 16  1  0  0  0  0
 11 17  1  0  0  0  0
 12 11  2  0  0  0  0
 13 14  2  0  0  0  0
 13 12  1  0  0  0  0
 14 15  1  0  0  0  0
 15 19  1  0  0  0  0
 15 16  2  0  0  0  0
 18 12  1  0  0  0  0
 20  7  1  0  0  0  0
 20 28  1  0  0  0  0
 21 20  2  0  0  0  0
 22 21  1  0  0  0  0
 23 21  1  0  0  0  0
 23 24  2  0  0  0  0
 24 26  1  0  0  0  0
 25 24  1  0  0  0  0
 26 28  2  0  0  0  0
 26 27  1  0  0  0  0
M  END
>  <minimizedAffinity>
-5.04442883

$$$$

 OpenBabel03272503033D

 28 30  0  0  0  0  0  0  0  0999 V2000
   37.0420   28.1120   35.4170 F   0  0  0  0  0  0  0  0  0  0  0  0
   36.8520   28.1610   34.0660 C   0  0  0  0  0  0  0  0  0  0  0  0
   35.8930   28.9780   33.5720 C   0  0  0  0  0  0  0  0  0  0  0  0
   35.7470   28.9840   32.1930 C   0  0  0  0  0  0  0  0  0  0  0  0
   36.5330   28.2040   31.3640 C   0  0  0  0  0  0  0  0  0  0  0  0
   37.4980   27.3880   31.9190 C   0  0  0  0  0  0  0  0  0  0  0  0
   37.6580   27.3680   33.2920 C   0  0  0  0  0  0  0  0  0  0  0  0
   34.9860   29.6290   31.7590 H   0  0  0  0  0  0  0  0  0  0  0  0
   36.3970   28.2280   30.2820 H   0  0  0  0  0  0  0  0  0  0  0  0
   38.1030   26.7840   31.2510 H   0  0  0  0  0  0  0  0  0  0  0  0
   34.8100   31.6160   36.0550 C   0  0  0  0  0  0  0  0  0  0  0  0
   35.6210   30.8710   35.1830 C   0  0  0  0  0  0  0  0  0  0  0  0
   35.0970   29.7750   34.4810 C   0  0  0  0  0  0  0  0  0  0  0  0
   33.7970   29.5070   34.7060 N   0  0  0  0  0  0  0  0  0  0  0  0
   33.0330   30.2250   35.5410 C   0  0  0  0  0  0  0  0  0  0  0  0
   33.5360   31.2700   36.2090 N   0  0  0  0  0  0  0  0  0  0  0  0
   35.3520   32.4450   36.5370 H   0  0  0  0  0  0  0  0  0  0  0  0
   36.6650   31.1180   35.0280 H   0  0  0  0  0  0  0  0  0  0  0  0
   31.9900   29.9420   35.6670 H   0  0  0  0  0  0  0  0  0  0  0  0
   38.6790   26.5050   33.8840 C   0  0  0  0  0  0  0  0  0  0  0  0
   39.9370   27.0050   34.1430 C   0  0  0  0  0  0  0  0  0  0  0  0
   40.1070   28.0420   33.8860 H   0  0  0  0  0  0  0  0  0  0  0  0
   40.9720   26.2850   34.6960 C   0  0  0  0  0  3  0  0  0  0  0  0
   40.6320   24.9590   34.9830 C   0  0  0  0  0  0  0  0  0  0  0  0
   41.3860   24.3040   35.4250 H   0  0  0  0  0  0  0  0  0  0  0  0
   39.4130   24.3920   34.7580 C   0  0  0  0  0  0  0  0  0  0  0  0
   39.2200   23.3570   35.0060 H   0  0  0  0  0  0  0  0  0  0  0  0
   38.4330   25.1840   34.2010 C   0  0  0  0  0  3  0  0  0  0  0  0
  2  1  1  0  0  0  0
  3  2  1  0  0  0  0
  3 13  1  0  0  0  0
  4  3  2  0  0  0  0
  5  6  2  0  0  0  0
  5  4  1  0  0  0  0
  6  7  1  0  0  0  0
  7 20  1  0  0  0  0
  7  2  2  0  0  0  0
  8  4  1  0  0  0  0
  9  5  1  0  0  0  0
 10  6  1  0  0  0  0
 11 16  1  0  0  0  0
 11 17  1  0  0  0  0
 12 11  2  0  0  0  0
 13 14  2  0  0  0  0
 13 12  1  0  0  0  0
 14 15  1  0  0  0  0
 15 19  1  0  0  0  0
 15 16  2  0  0  0  0
 18 12  1  0  0  0  0
 20 21  2  0  0  0  0
 20 28  1  0  0  0  0
 21 23  1  0  0  0  0
 22 21  1  0  0  0  0
 23 24  2  0  0  0  0
 24 25  1  0  0  0  0
 26 24  1  0  0  0  0
 26 27  1  0  0  0  0
 28 26  2  0  0  0  0
M  END
>  <minimizedAffinity>
-5.01364613

$$$$

 OpenBabel03272503033D

 28 30  0  0  0  0  0  0  0  0999 V2000
   38.2850   25.4050   34.4430 F   0  0  0  0  0  0  0  0  0  0  0  0
   37.8810   24.2200   33.9020 C   0  0  0  0  0  0  0  0  0  0  0  0
   37.4460   24.2030   32.6210 C   0  0  0  0  0  0  0  0  0  0  0  0
   37.0480   22.9690   32.1260 C   0  0  0  0  0  0  0  0  0  0  0  0
   37.0910   21.8180   32.8930 C   0  0  0  0  0  0  0  0  0  0  0  0
   37.5430   21.8900   34.1950 C   0  0  0  0  0  0  0  0  0  0  0  0
   37.9430   23.1110   34.7050 C   0  0  0  0  0  0  0  0  0  0  0  0
   36.6930   22.9160   31.1000 H   0  0  0  0  0  0  0  0  0  0  0  0
   36.7730   20.8610   32.4800 H   0  0  0  0  0  0  0  0  0  0  0  0
   37.5680   20.9760   34.7780 H   0  0  0  0  0  0  0  0  0  0  0  0
   36.2960   27.4220   31.0050 C   0  0  0  0  0  0  0  0  0  0  0  0
   36.2740   26.2340   31.7540 C   0  0  0  0  0  0  0  0  0  0  0  0
   37.4210   25.4340   31.8600 C   0  0  0  0  0  0  0  0  0  0  0  0
   38.5080   25.8840   31.2050 N   0  0  0  0  0  0  0  0  0  0  0  0
   38.5170   27.0200   30.4920 C   0  0  0  0  0  0  0  0  0  0  0  0
   37.4200   27.7810   30.3940 N   0  0  0  0  0  0  0  0  0  0  0  0
   35.3280   27.9470   31.0090 H   0  0  0  0  0  0  0  0  0  0  0  0
   35.3780   25.9040   32.2690 H   0  0  0  0  0  0  0  0  0  0  0  0
   39.4380   27.3140   29.9920 H   0  0  0  0  0  0  0  0  0  0  0  0
   38.4240   23.1920   36.0850 C   0  0  0  0  0  0  0  0  0  0  0  0
   37.6700   23.8410   37.0380 C   0  0  0  0  0  0  0  0  0  0  0  0
   36.7340   24.2700   36.7060 H   0  0  0  0  0  0  0  0  0  0  0  0
   38.0240   23.9770   38.3620 C   0  0  0  0  0  3  0  0  0  0  0  0
   39.2530   23.3840   38.6700 C   0  0  0  0  0  0  0  0  0  0  0  0
   39.6230   23.4380   39.6960 H   0  0  0  0  0  0  0  0  0  0  0  0
   40.0530   22.7260   37.7850 C   0  0  0  0  0  0  0  0  0  0  0  0
   40.9940   22.2900   38.0940 H   0  0  0  0  0  0  0  0  0  0  0  0
   39.6240   22.6350   36.4790 C   0  0  0  0  0  3  0  0  0  0  0  0
  2  1  1  0  0  0  0
  2  7  1  0  0  0  0
  3  2  2  0  0  0  0
  4  3  1  0  0  0  0
  4  5  2  0  0  0  0
  5  6  1  0  0  0  0
  6  7  2  0  0  0  0
  6 10  1  0  0  0  0
  7 20  1  0  0  0  0
  8  4  1  0  0  0  0
  9  5  1  0  0  0  0
 11 17  1  0  0  0  0
 11 12  1  0  0  0  0
 12 13  2  0  0  0  0
 12 18  1  0  0  0  0
 13  3  1  0  0  0  0
 14 13  1  0  0  0  0
 15 14  2  0  0  0  0
 16 15  1  0  0  0  0
 16 11  2  0  0  0  0
 19 15  1  0  0  0  0
 20 28  2  0  0  0  0
 20 21  1  0  0  0  0
 21 23  2  0  0  0  0
 22 21  1  0  0  0  0
 23 24  1  0  0  0  0
 24 25  1  0  0  0  0
 26 27  1  0  0  0  0
 26 24  2  0  0  0  0
 28 26  1  0  0  0  0
M  END
>  <minimizedAffinity>
-4.99659967

$$$$
