
 OpenBabel03272510213D

 36 39  0  0  0  0  0  0  0  0999 V2000
   37.3990   29.1650   50.8080 Br  0  0  0  0  0  0  0  0  0  0  0  0
   35.9880   29.2700   49.5290 C   0  0  0  0  0  0  0  0  0  0  0  0
   35.9870   30.2760   48.5670 C   0  0  0  0  0  0  0  0  0  0  0  0
   34.9310   30.2890   47.6730 C   0  0  0  0  0  0  0  0  0  0  0  0
   33.9010   29.3660   47.6980 C   0  0  0  0  0  0  0  0  0  0  0  0
   33.9370   28.3990   48.6520 C   0  0  0  0  0  0  0  0  0  0  0  0
   34.9800   28.3650   49.5550 C   0  0  0  0  0  0  0  0  0  0  0  0
   34.8760   31.0480   46.9020 H   0  0  0  0  0  0  0  0  0  0  0  0
   33.1810   27.6300   48.7590 H   0  0  0  0  0  0  0  0  0  0  0  0
   35.0130   27.5870   50.3270 H   0  0  0  0  0  0  0  0  0  0  0  0
   38.0090   33.1760   49.4620 C   0  0  0  0  0  0  0  0  0  0  0  0
   39.0320   33.1800   48.4720 C   0  0  0  0  0  0  0  0  0  0  0  0
   39.0050   32.1800   47.5120 C   0  0  0  0  0  0  0  0  0  0  0  0
   38.0110   31.2430   47.5540 N   0  0  0  0  0  0  0  0  0  0  0  0
   37.0530   31.2660   48.5080 C   0  0  0  0  0  0  0  0  0  0  0  0
   37.0640   32.2390   49.4560 N   0  0  0  0  0  0  0  0  0  0  0  0
   38.0700   33.9780   50.1930 H   0  0  0  0  0  0  0  0  0  0  0  0
   39.8320   33.9050   48.4110 H   0  0  0  0  0  0  0  0  0  0  0  0
   39.7130   32.0700   46.7170 H   0  0  0  0  0  0  0  0  0  0  0  0
   32.8000   29.3990   46.7490 C   0  0  0  0  0  0  0  0  0  0  0  0
   31.9720   28.3290   46.4760 C   0  0  0  0  0  0  0  0  0  0  0  0
   30.9330   28.3940   45.5650 C   0  0  0  0  0  0  0  0  0  0  0  0
   30.7140   29.5510   44.9140 N   0  0  0  0  0  0  0  0  0  0  0  0
   31.5080   30.5980   45.1680 C   0  0  0  0  0  0  0  0  0  0  0  0
   32.4980   30.5040   46.0490 N   0  0  0  0  0  0  0  0  0  0  0  0
   32.1520   27.3900   47.0050 H   0  0  0  0  0  0  0  0  0  0  0  0
   30.3190   27.5080   45.4000 H   0  0  0  0  0  0  0  0  0  0  0  0
   31.2740   31.8560   44.4650 C   0  0  0  0  0  0  0  0  0  0  0  0
   30.5450   31.8680   43.2810 C   0  0  0  0  0  0  0  0  0  0  0  0
   30.1800   30.9080   42.9410 H   0  0  0  0  0  0  0  0  0  0  0  0
   30.3390   33.0690   42.6360 C   0  0  0  0  0  3  0  0  0  0  0  0
   30.8150   34.2730   43.0940 C   0  0  0  0  0  0  0  0  0  0  0  0
   30.5710   35.1210   42.4780 H   0  0  0  0  0  0  0  0  0  0  0  0
   31.5390   34.2570   44.2690 C   0  0  0  0  0  0  0  0  0  0  0  0
   31.9060   35.2130   44.6140 H   0  0  0  0  0  0  0  0  0  0  0  0
   31.7470   33.0550   44.9170 C   0  0  0  0  0  3  0  0  0  0  0  0
  2  7  1  0  0  0  0
  2  1  1  0  0  0  0
  3  2  2  0  0  0  0
  4  5  2  0  0  0  0
  4  3  1  0  0  0  0
  5  6  1  0  0  0  0
  6  9  1  0  0  0  0
  6  7  2  0  0  0  0
  7 10  1  0  0  0  0
  8  4  1  0  0  0  0
 11 17  1  0  0  0  0
 12 11  2  0  0  0  0
 13 14  2  0  0  0  0
 13 12  1  0  0  0  0
 14 15  1  0  0  0  0
 15  3  1  0  0  0  0
 15 16  2  0  0  0  0
 16 11  1  0  0  0  0
 18 12  1  0  0  0  0
 19 13  1  0  0  0  0
 20  5  1  0  0  0  0
 21 20  1  0  0  0  0
 21 26  1  0  0  0  0
 22 21  2  0  0  0  0
 23 24  2  0  0  0  0
 23 22  1  0  0  0  0
 24 25  1  0  0  0  0
 25 20  2  0  0  0  0
 27 22  1  0  0  0  0
 28 36  1  0  0  0  0
 28 24  1  0  0  0  0
 29 28  2  0  0  0  0
 30 29  1  0  0  0  0
 31 32  2  0  0  0  0
 31 29  1  0  0  0  0
 32 34  1  0  0  0  0
 33 32  1  0  0  0  0
 34 35  1  0  0  0  0
 34 36  2  0  0  0  0
M  END
>  <minimizedAffinity>
-6.69569492

>  <minimizedRMSD>
0.488104343

$$$$
