
 OpenBabel03272501283D

 39 42  0  0  1  0  0  0  0  0999 V2000
   36.1860   28.3350   32.8930 C   0  0  0  0  0  0  0  0  0  0  0  0
   36.6980   28.7430   31.6600 C   0  0  0  0  0  0  0  0  0  0  0  0
   35.8210   29.6980   31.1350 C   0  0  0  0  0  0  0  0  0  0  0  0
   34.8360   29.8320   32.0430 N   0  0  0  0  0  0  0  0  0  0  0  0
   35.0830   29.0180   33.0590 N   0  0  0  0  0  0  0  0  0  0  0  0
   37.5970   28.3950   31.1910 H   0  0  0  0  0  0  0  0  0  0  0  0
   35.8780   30.2410   30.2050 H   0  0  0  0  0  0  0  0  0  0  0  0
   32.4470   29.9540   32.2730 N   0  0  0  0  0  0  0  0  0  0  0  0
   31.4920   31.0020   32.6070 C   0  0  0  0  0  0  0  0  0  0  0  0
   32.2680   32.2440   32.9570 C   0  0  0  0  0  0  0  0  0  0  0  0
   33.6910   31.7070   33.0890 C   0  0  0  0  0  0  0  0  0  0  0  0
   33.6900   30.6720   32.0110 C   0  0  1  0  0  0  0  0  0  0  0  0
   32.1890   29.5160   31.3550 H   0  0  0  0  0  0  0  0  0  0  0  0
   30.7790   30.6920   33.4060 H   0  0  0  0  0  0  0  0  0  0  0  0
   30.9090   31.2400   31.6780 H   0  0  0  0  0  0  0  0  0  0  0  0
   32.1920   33.0510   32.2150 H   0  0  0  0  0  0  0  0  0  0  0  0
   32.0250   32.6620   33.9540 H   0  0  0  0  0  0  0  0  0  0  0  0
   34.4340   32.5130   32.8560 H   0  0  0  0  0  0  0  0  0  0  0  0
   33.8890   31.3360   34.0940 H   0  0  0  0  0  0  0  0  0  0  0  0
   33.6320   31.3390   30.7250 N   0  0  0  0  0  0  0  0  0  0  0  0
   32.7610   31.8710   30.5690 H   0  0  0  0  0  0  0  0  0  0  0  0
   34.4920   31.8980   30.6270 H   0  0  0  0  0  0  0  0  0  0  0  0
   37.1450   26.0520   33.2520 C   0  0  0  0  0  0  0  0  0  0  0  0
   36.8590   27.3390   33.7140 C   0  0  0  0  0  0  0  0  0  0  0  0
   37.2410   27.6600   35.0130 C   0  0  0  0  0  0  0  0  0  0  0  0
   37.8660   26.6890   35.7330 N   0  0  0  0  0  0  0  0  0  0  0  0
   38.1240   25.4610   35.2540 C   0  0  0  0  0  0  0  0  0  0  0  0
   37.7540   25.1380   33.9830 N   0  0  0  0  0  0  0  0  0  0  0  0
   36.8120   25.8860   32.2290 H   0  0  0  0  0  0  0  0  0  0  0  0
   37.0420   28.6460   35.4210 H   0  0  0  0  0  0  0  0  0  0  0  0
   38.7940   24.5040   36.1020 C   0  0  0  0  0  0  0  0  0  0  0  0
   39.9420   23.8460   35.7130 C   0  0  0  0  0  0  0  0  0  0  0  0
   40.3370   24.0740   34.7310 H   0  0  0  0  0  0  0  0  0  0  0  0
   40.5990   22.9270   36.5050 C   0  0  0  0  0  3  0  0  0  0  0  0
   40.0170   22.7080   37.7370 C   0  0  0  0  0  0  0  0  0  0  0  0
   40.4730   21.9920   38.4350 H   0  0  0  0  0  0  0  0  0  0  0  0
   38.8610   23.3320   38.2020 C   0  0  0  0  0  0  0  0  0  0  0  0
   38.4770   23.0950   39.1850 H   0  0  0  0  0  0  0  0  0  0  0  0
   38.2430   24.2520   37.3490 C   0  0  0  0  0  3  0  0  0  0  0  0
  1  5  2  0  0  0  0
  1 24  1  0  0  0  0
  2  1  1  0  0  0  0
  3  2  2  0  0  0  0
  3  4  1  0  0  0  0
  4  5  1  0  0  0  0
  6  2  1  0  0  0  0
  7  3  1  0  0  0  0
  8  9  1  0  0  0  0
  9 10  1  0  0  0  0
  9 14  1  0  0  0  0
 10 11  1  0  0  0  0
 10 17  1  0  0  0  0
 11 19  1  0  0  0  0
 12 20  1  6  0  0  0
 12  4  1  0  0  0  0
 12  8  1  0  0  0  0
 12 11  1  0  0  0  0
 13  8  1  0  0  0  0
 15  9  1  0  0  0  0
 16 10  1  0  0  0  0
 18 11  1  0  0  0  0
 21 20  1  0  0  0  0
 22 20  1  0  0  0  0
 23 24  2  0  0  0  0
 23 28  1  0  0  0  0
 24 25  1  0  0  0  0
 25 30  1  0  0  0  0
 25 26  2  0  0  0  0
 27 26  1  0  0  0  0
 27 31  1  0  0  0  0
 28 27  2  0  0  0  0
 29 23  1  0  0  0  0
 31 39  1  0  0  0  0
 32 31  2  0  0  0  0
 32 34  1  0  0  0  0
 33 32  1  0  0  0  0
 34 35  2  0  0  0  0
 35 37  1  0  0  0  0
 35 36  1  0  0  0  0
 37 38  1  0  0  0  0
 39 37  2  0  0  0  0
M  END
>  <minimizedAffinity>
-5.94014025

$$$$

 OpenBabel03272501283D

 39 42  0  0  1  0  0  0  0  0999 V2000
   38.6190   24.7740   35.8490 C   0  0  0  0  0  0  0  0  0  0  0  0
   38.0890   24.3230   37.0590 C   0  0  0  0  0  0  0  0  0  0  0  0
   38.9370   23.3220   37.5430 C   0  0  0  0  0  0  0  0  0  0  0  0
   39.9250   23.2060   36.6340 N   0  0  0  0  0  0  0  0  0  0  0  0
   39.7050   24.0720   35.6570 N   0  0  0  0  0  0  0  0  0  0  0  0
   37.1960   24.6720   37.5390 H   0  0  0  0  0  0  0  0  0  0  0  0
   38.8620   22.7390   38.4470 H   0  0  0  0  0  0  0  0  0  0  0  0
   41.1890   21.5830   35.3930 N   0  0  0  0  0  0  0  0  0  0  0  0
   42.5650   21.1020   35.4190 C   0  0  0  0  0  0  0  0  0  0  0  0
   43.3250   21.9230   36.4280 C   0  0  0  0  0  0  0  0  0  0  0  0
   42.3530   23.0660   36.7100 C   0  0  0  0  0  0  0  0  0  0  0  0
   41.0500   22.3370   36.6350 C   0  0  1  0  0  0  0  0  0  0  0  0
   40.5280   20.7750   35.4930 H   0  0  0  0  0  0  0  0  0  0  0  0
   43.0370   21.1030   34.4090 H   0  0  0  0  0  0  0  0  0  0  0  0
   42.5500   20.0500   35.8090 H   0  0  0  0  0  0  0  0  0  0  0  0
   43.6040   21.3760   37.3400 H   0  0  0  0  0  0  0  0  0  0  0  0
   44.2320   22.4110   36.0200 H   0  0  0  0  0  0  0  0  0  0  0  0
   42.5160   23.4690   37.7430 H   0  0  0  0  0  0  0  0  0  0  0  0
   42.4740   23.8820   35.9990 H   0  0  0  0  0  0  0  0  0  0  0  0
   40.9510   21.4400   37.7690 N   0  0  0  0  0  0  0  0  0  0  0  0
   41.6630   20.6920   37.7720 H   0  0  0  0  0  0  0  0  0  0  0  0
   40.9420   22.0190   38.6210 H   0  0  0  0  0  0  0  0  0  0  0  0
   37.5100   25.6190   33.7710 C   0  0  0  0  0  0  0  0  0  0  0  0
   37.9760   25.8240   35.0720 C   0  0  0  0  0  0  0  0  0  0  0  0
   37.8080   27.0890   35.6270 C   0  0  0  0  0  0  0  0  0  0  0  0
   37.2010   28.0300   34.8540 N   0  0  0  0  0  0  0  0  0  0  0  0
   36.7660   27.7950   33.6040 C   0  0  0  0  0  0  0  0  0  0  0  0
   36.9260   26.5600   33.0530 N   0  0  0  0  0  0  0  0  0  0  0  0
   37.6810   24.6050   33.4150 H   0  0  0  0  0  0  0  0  0  0  0  0
   38.1520   27.3020   36.6340 H   0  0  0  0  0  0  0  0  0  0  0  0
   36.1340   28.8650   32.8690 C   0  0  0  0  0  0  0  0  0  0  0  0
   35.2080   29.7100   33.4420 C   0  0  0  0  0  0  0  0  0  0  0  0
   34.9630   29.5460   34.4840 H   0  0  0  0  0  0  0  0  0  0  0  0
   34.5890   30.7380   32.7600 C   0  0  0  0  0  3  0  0  0  0  0  0
   34.9710   30.8640   31.4400 C   0  0  0  0  0  0  0  0  0  0  0  0
   34.5300   31.6570   30.8190 H   0  0  0  0  0  0  0  0  0  0  0  0
   35.8980   30.0520   30.7900 C   0  0  0  0  0  0  0  0  0  0  0  0
   36.1330   30.2260   29.7490 H   0  0  0  0  0  0  0  0  0  0  0  0
   36.4870   29.0280   31.5380 C   0  0  0  0  0  3  0  0  0  0  0  0
  1  2  1  0  0  0  0
  2  6  1  0  0  0  0
  2  3  2  0  0  0  0
  3  7  1  0  0  0  0
  4 12  1  0  0  0  0
  4  3  1  0  0  0  0
  5  1  2  0  0  0  0
  5  4  1  0  0  0  0
  8  9  1  0  0  0  0
  8 13  1  0  0  0  0
  8 12  1  0  0  0  0
  9 15  1  0  0  0  0
  9 10  1  0  0  0  0
 10 11  1  0  0  0  0
 10 16  1  0  0  0  0
 11 18  1  0  0  0  0
 12 11  1  0  0  0  0
 12 20  1  1  0  0  0
 14  9  1  0  0  0  0
 17 10  1  0  0  0  0
 19 11  1  0  0  0  0
 20 21  1  0  0  0  0
 20 22  1  0  0  0  0
 23 24  1  0  0  0  0
 24 25  2  0  0  0  0
 24  1  1  0  0  0  0
 25 30  1  0  0  0  0
 26 25  1  0  0  0  0
 27 26  2  0  0  0  0
 28 27  1  0  0  0  0
 28 23  2  0  0  0  0
 29 23  1  0  0  0  0
 31 32  1  0  0  0  0
 31 27  1  0  0  0  0
 32 33  1  0  0  0  0
 34 32  2  0  0  0  0
 35 34  1  0  0  0  0
 36 35  1  0  0  0  0
 37 35  2  0  0  0  0
 37 39  1  0  0  0  0
 38 37  1  0  0  0  0
 39 31  2  0  0  0  0
M  END
>  <minimizedAffinity>
-5.88126135

$$$$

 OpenBabel03272501283D

 39 42  0  0  1  0  0  0  0  0999 V2000
   39.1750   24.3540   36.0810 C   0  0  0  0  0  0  0  0  0  0  0  0
   38.7470   23.7720   37.2750 C   0  0  0  0  0  0  0  0  0  0  0  0
   39.6610   22.7660   37.6050 C   0  0  0  0  0  0  0  0  0  0  0  0
   40.5870   22.7750   36.6270 N   0  0  0  0  0  0  0  0  0  0  0  0
   40.2690   23.7180   35.7530 N   0  0  0  0  0  0  0  0  0  0  0  0
   37.8770   24.0370   37.8440 H   0  0  0  0  0  0  0  0  0  0  0  0
   39.6680   22.0990   38.4530 H   0  0  0  0  0  0  0  0  0  0  0  0
   41.8220   21.3330   35.1550 N   0  0  0  0  0  0  0  0  0  0  0  0
   43.2120   20.9090   35.0470 C   0  0  0  0  0  0  0  0  0  0  0  0
   44.0080   21.6590   36.0840 C   0  0  0  0  0  0  0  0  0  0  0  0
   43.0180   22.7280   36.5370 C   0  0  0  0  0  0  0  0  0  0  0  0
   41.7390   21.9580   36.4710 C   0  0  1  0  0  0  0  0  0  0  0  0
   41.1980   20.4930   35.2140 H   0  0  0  0  0  0  0  0  0  0  0  0
   43.6170   21.0280   34.0150 H   0  0  0  0  0  0  0  0  0  0  0  0
   43.2610   19.8250   35.3300 H   0  0  0  0  0  0  0  0  0  0  0  0
   44.3660   21.0380   36.9170 H   0  0  0  0  0  0  0  0  0  0  0  0
   44.8690   22.2210   35.6710 H   0  0  0  0  0  0  0  0  0  0  0  0
   43.2350   23.0350   37.5930 H   0  0  0  0  0  0  0  0  0  0  0  0
   43.0640   23.6140   35.9050 H   0  0  0  0  0  0  0  0  0  0  0  0
   41.7470   20.9510   37.5140 N   0  0  0  0  0  0  0  0  0  0  0  0
   42.4820   20.2360   37.3990 H   0  0  0  0  0  0  0  0  0  0  0  0
   41.7730   21.4430   38.4190 H   0  0  0  0  0  0  0  0  0  0  0  0
   38.3410   26.7120   36.0250 C   0  0  0  0  0  0  0  0  0  0  0  0
   38.4440   25.4430   35.4510 C   0  0  0  0  0  0  0  0  0  0  0  0
   37.8140   25.2340   34.2270 C   0  0  0  0  0  0  0  0  0  0  0  0
   37.1450   26.2890   33.6860 N   0  0  0  0  0  0  0  0  0  0  0  0
   37.0680   27.4970   34.2700 C   0  0  0  0  0  0  0  0  0  0  0  0
   37.6820   27.7100   35.4670 N   0  0  0  0  0  0  0  0  0  0  0  0
   38.8620   26.7880   36.9780 H   0  0  0  0  0  0  0  0  0  0  0  0
   37.8620   24.2670   33.7380 H   0  0  0  0  0  0  0  0  0  0  0  0
   36.3330   28.5490   33.6100 C   0  0  0  0  0  0  0  0  0  0  0  0
   35.6340   29.5120   34.3070 C   0  0  0  0  0  0  0  0  0  0  0  0
   35.6540   29.4560   35.3890 H   0  0  0  0  0  0  0  0  0  0  0  0
   34.9230   30.5270   33.7000 C   0  0  0  0  0  3  0  0  0  0  0  0
   34.9610   30.5100   32.3200 C   0  0  0  0  0  0  0  0  0  0  0  0
   34.4230   31.2820   31.7520 H   0  0  0  0  0  0  0  0  0  0  0  0
   35.6430   29.5740   31.5460 C   0  0  0  0  0  0  0  0  0  0  0  0
   35.6140   29.6410   30.4670 H   0  0  0  0  0  0  0  0  0  0  0  0
   36.3430   28.5710   32.2240 C   0  0  0  0  0  3  0  0  0  0  0  0
  1  2  1  0  0  0  0
  2  3  2  0  0  0  0
  2  6  1  0  0  0  0
  3  7  1  0  0  0  0
  4  3  1  0  0  0  0
  5  1  2  0  0  0  0
  5  4  1  0  0  0  0
  8 13  1  0  0  0  0
  8 12  1  0  0  0  0
  9  8  1  0  0  0  0
  9 15  1  0  0  0  0
  9 10  1  0  0  0  0
 10 11  1  0  0  0  0
 10 16  1  0  0  0  0
 11 18  1  0  0  0  0
 12 11  1  0  0  0  0
 12  4  1  0  0  0  0
 12 20  1  1  0  0  0
 14  9  1  0  0  0  0
 17 10  1  0  0  0  0
 19 11  1  0  0  0  0
 20 22  1  0  0  0  0
 21 20  1  0  0  0  0
 23 29  1  0  0  0  0
 24 23  2  0  0  0  0
 24  1  1  0  0  0  0
 25 24  1  0  0  0  0
 26 25  2  0  0  0  0
 26 27  1  0  0  0  0
 27 28  2  0  0  0  0
 28 23  1  0  0  0  0
 30 25  1  0  0  0  0
 31 27  1  0  0  0  0
 31 32  1  0  0  0  0
 32 33  1  0  0  0  0
 34 32  2  0  0  0  0
 35 34  1  0  0  0  0
 36 35  1  0  0  0  0
 37 39  1  0  0  0  0
 37 35  2  0  0  0  0
 38 37  1  0  0  0  0
 39 31  2  0  0  0  0
M  END
>  <minimizedAffinity>
-5.83009863

$$$$

 OpenBabel03272501283D

 39 42  0  0  1  0  0  0  0  0999 V2000
   39.1950   24.3390   36.0680 C   0  0  0  0  0  0  0  0  0  0  0  0
   38.7250   23.7480   37.2430 C   0  0  0  0  0  0  0  0  0  0  0  0
   39.6540   22.7760   37.6260 C   0  0  0  0  0  0  0  0  0  0  0  0
   40.6280   22.8100   36.6970 N   0  0  0  0  0  0  0  0  0  0  0  0
   40.3250   23.7380   35.8010 N   0  0  0  0  0  0  0  0  0  0  0  0
   37.8190   23.9870   37.7650 H   0  0  0  0  0  0  0  0  0  0  0  0
   39.6400   22.1130   38.4780 H   0  0  0  0  0  0  0  0  0  0  0  0
   41.8420   20.9220   37.5540 N   0  0  0  0  0  0  0  0  0  0  0  0
   42.8780   20.0370   37.0390 C   0  0  0  0  0  0  0  0  0  0  0  0
   43.1310   20.4060   35.6000 C   0  0  0  0  0  0  0  0  0  0  0  0
   41.9540   21.3290   35.2940 C   0  0  0  0  0  0  0  0  0  0  0  0
   41.8130   22.0310   36.6060 C   0  0  1  0  0  0  0  0  0  0  0  0
   42.1560   21.3490   38.4590 H   0  0  0  0  0  0  0  0  0  0  0  0
   42.6280   18.9600   37.1770 H   0  0  0  0  0  0  0  0  0  0  0  0
   43.8250   20.2610   37.5970 H   0  0  0  0  0  0  0  0  0  0  0  0
   44.1010   20.8890   35.4190 H   0  0  0  0  0  0  0  0  0  0  0  0
   43.0240   19.5600   34.8930 H   0  0  0  0  0  0  0  0  0  0  0  0
   42.2310   22.0570   34.4890 H   0  0  0  0  0  0  0  0  0  0  0  0
   41.0790   20.7700   34.9660 H   0  0  0  0  0  0  0  0  0  0  0  0
   42.9600   22.8960   36.7970 N   0  0  0  0  0  0  0  0  0  0  0  0
   43.8570   22.3890   36.8730 H   0  0  0  0  0  0  0  0  0  0  0  0
   42.9390   23.6080   36.0530 H   0  0  0  0  0  0  0  0  0  0  0  0
   37.8510   25.2200   34.1510 C   0  0  0  0  0  0  0  0  0  0  0  0
   38.4610   25.3990   35.3940 C   0  0  0  0  0  0  0  0  0  0  0  0
   38.3520   26.6510   35.9940 C   0  0  0  0  0  0  0  0  0  0  0  0
   37.6550   27.6040   35.3170 N   0  0  0  0  0  0  0  0  0  0  0  0
   37.0800   27.3930   34.1210 C   0  0  0  0  0  0  0  0  0  0  0  0
   37.1820   26.1710   33.5270 N   0  0  0  0  0  0  0  0  0  0  0  0
   37.9850   24.2150   33.7560 H   0  0  0  0  0  0  0  0  0  0  0  0
   38.8080   26.8450   36.9590 H   0  0  0  0  0  0  0  0  0  0  0  0
   36.3620   28.4730   33.4870 C   0  0  0  0  0  0  0  0  0  0  0  0
   36.3230   28.6330   32.1180 C   0  0  0  0  0  0  0  0  0  0  0  0
   36.8580   27.9080   31.5170 H   0  0  0  0  0  0  0  0  0  0  0  0
   35.6450   29.6570   31.4890 C   0  0  0  0  0  3  0  0  0  0  0  0
   34.9960   30.5260   32.3420 C   0  0  0  0  0  0  0  0  0  0  0  0
   34.4280   31.3720   31.9290 H   0  0  0  0  0  0  0  0  0  0  0  0
   34.9870   30.4320   33.7320 C   0  0  0  0  0  0  0  0  0  0  0  0
   34.4490   31.1630   34.3200 H   0  0  0  0  0  0  0  0  0  0  0  0
   35.6950   29.3710   34.3060 C   0  0  0  0  0  3  0  0  0  0  0  0
  1  2  1  0  0  0  0
  2  3  2  0  0  0  0
  2  6  1  0  0  0  0
  3  7  1  0  0  0  0
  4  3  1  0  0  0  0
  5  1  2  0  0  0  0
  5  4  1  0  0  0  0
  8 13  1  0  0  0  0
  9 14  1  0  0  0  0
  9  8  1  0  0  0  0
  9 15  1  0  0  0  0
 10  9  1  0  0  0  0
 11 10  1  0  0  0  0
 11 12  1  0  0  0  0
 12  4  1  0  0  0  0
 12 20  1  1  0  0  0
 12  8  1  0  0  0  0
 16 10  1  0  0  0  0
 17 10  1  0  0  0  0
 18 11  1  0  0  0  0
 19 11  1  0  0  0  0
 20 21  1  0  0  0  0
 22 20  1  0  0  0  0
 23 24  1  0  0  0  0
 24 25  2  0  0  0  0
 24  1  1  0  0  0  0
 25 30  1  0  0  0  0
 26 25  1  0  0  0  0
 27 26  2  0  0  0  0
 28 27  1  0  0  0  0
 28 23  2  0  0  0  0
 29 23  1  0  0  0  0
 31 27  1  0  0  0  0
 31 39  1  0  0  0  0
 32 31  2  0  0  0  0
 33 32  1  0  0  0  0
 34 32  1  0  0  0  0
 34 35  2  0  0  0  0
 35 37  1  0  0  0  0
 36 35  1  0  0  0  0
 37 39  2  0  0  0  0
 37 38  1  0  0  0  0
M  END
>  <minimizedAffinity>
-5.75700092

$$$$

 OpenBabel03272501283D

 39 42  0  0  1  0  0  0  0  0999 V2000
   37.0640   28.2460   32.1000 C   0  0  0  0  0  0  0  0  0  0  0  0
   37.2780   27.9570   30.7510 C   0  0  0  0  0  0  0  0  0  0  0  0
   36.7850   29.0340   30.0070 C   0  0  0  0  0  0  0  0  0  0  0  0
   36.3030   29.9130   30.9070 N   0  0  0  0  0  0  0  0  0  0  0  0
   36.4840   29.4170   32.1220 N   0  0  0  0  0  0  0  0  0  0  0  0
   37.7360   27.0760   30.3470 H   0  0  0  0  0  0  0  0  0  0  0  0
   36.7710   29.1780   28.9380 H   0  0  0  0  0  0  0  0  0  0  0  0
   34.2360   31.1320   30.7910 N   0  0  0  0  0  0  0  0  0  0  0  0
   33.8450   32.5260   30.9590 C   0  0  0  0  0  0  0  0  0  0  0  0
   35.0640   33.3020   31.3850 C   0  0  0  0  0  0  0  0  0  0  0  0
   36.0490   32.1880   31.7310 C   0  0  0  0  0  0  0  0  0  0  0  0
   35.6910   31.1770   30.6900 C   0  0  1  0  0  0  0  0  0  0  0  0
   33.9110   30.7810   29.8570 H   0  0  0  0  0  0  0  0  0  0  0  0
   32.9830   32.6470   31.6560 H   0  0  0  0  0  0  0  0  0  0  0  0
   33.5500   32.9210   29.9510 H   0  0  0  0  0  0  0  0  0  0  0  0
   35.4560   33.9860   30.6200 H   0  0  0  0  0  0  0  0  0  0  0  0
   34.9290   33.8700   32.3260 H   0  0  0  0  0  0  0  0  0  0  0  0
   37.1020   32.5420   31.5860 H   0  0  0  0  0  0  0  0  0  0  0  0
   35.9350   31.8570   32.7630 H   0  0  0  0  0  0  0  0  0  0  0  0
   36.0960   31.6810   29.3930 N   0  0  0  0  0  0  0  0  0  0  0  0
   35.5960   32.5360   29.1020 H   0  0  0  0  0  0  0  0  0  0  0  0
   37.1220   31.7740   29.4040 H   0  0  0  0  0  0  0  0  0  0  0  0
   37.2050   27.5740   34.5060 C   0  0  0  0  0  0  0  0  0  0  0  0
   37.4620   27.3260   33.1560 C   0  0  0  0  0  0  0  0  0  0  0  0
   38.1270   26.1480   32.8290 C   0  0  0  0  0  0  0  0  0  0  0  0
   38.4750   25.3270   33.8570 N   0  0  0  0  0  0  0  0  0  0  0  0
   38.2100   25.5990   35.1460 C   0  0  0  0  0  0  0  0  0  0  0  0
   37.5600   26.7510   35.4750 N   0  0  0  0  0  0  0  0  0  0  0  0
   36.6830   28.5140   34.6720 H   0  0  0  0  0  0  0  0  0  0  0  0
   38.3520   25.9070   31.7960 H   0  0  0  0  0  0  0  0  0  0  0  0
   38.6230   24.6600   36.1610 C   0  0  0  0  0  0  0  0  0  0  0  0
   37.9760   24.5490   37.3740 C   0  0  0  0  0  0  0  0  0  0  0  0
   37.1290   25.2010   37.5470 H   0  0  0  0  0  0  0  0  0  0  0  0
   38.3520   23.6600   38.3600 C   0  0  0  0  0  3  0  0  0  0  0  0
   39.4410   22.8740   38.0420 C   0  0  0  0  0  0  0  0  0  0  0  0
   39.8100   22.1360   38.7670 H   0  0  0  0  0  0  0  0  0  0  0  0
   40.1460   22.9260   36.8410 C   0  0  0  0  0  0  0  0  0  0  0  0
   40.9900   22.2690   36.6810 H   0  0  0  0  0  0  0  0  0  0  0  0
   39.7130   23.8500   35.8840 C   0  0  0  0  0  3  0  0  0  0  0  0
  1  5  2  0  0  0  0
  1 24  1  0  0  0  0
  2  1  1  0  0  0  0
  3  2  2  0  0  0  0
  3  4  1  0  0  0  0
  4  5  1  0  0  0  0
  6  2  1  0  0  0  0
  7  3  1  0  0  0  0
  8  9  1  0  0  0  0
  9 10  1  0  0  0  0
  9 14  1  0  0  0  0
 10 11  1  0  0  0  0
 10 17  1  0  0  0  0
 11 19  1  0  0  0  0
 12 20  1  6  0  0  0
 12  8  1  0  0  0  0
 12  4  1  0  0  0  0
 12 11  1  0  0  0  0
 13  8  1  0  0  0  0
 15  9  1  0  0  0  0
 16 10  1  0  0  0  0
 18 11  1  0  0  0  0
 20 22  1  0  0  0  0
 21 20  1  0  0  0  0
 23 29  1  0  0  0  0
 23 28  1  0  0  0  0
 24 23  2  0  0  0  0
 25 24  1  0  0  0  0
 25 26  2  0  0  0  0
 26 27  1  0  0  0  0
 27 28  2  0  0  0  0
 27 31  1  0  0  0  0
 30 25  1  0  0  0  0
 31 32  1  0  0  0  0
 32 33  1  0  0  0  0
 32 34  2  0  0  0  0
 35 34  1  0  0  0  0
 35 36  1  0  0  0  0
 37 35  2  0  0  0  0
 38 37  1  0  0  0  0
 39 31  2  0  0  0  0
 39 37  1  0  0  0  0
M  END
>  <minimizedAffinity>
-5.73309946

$$$$

 OpenBabel03272501283D

 39 42  0  0  1  0  0  0  0  0999 V2000
   36.0160   28.2600   32.3880 C   0  0  0  0  0  0  0  0  0  0  0  0
   36.2970   29.1990   31.3940 C   0  0  0  0  0  0  0  0  0  0  0  0
   36.0870   30.4680   31.9430 C   0  0  0  0  0  0  0  0  0  0  0  0
   35.6980   30.2590   33.2150 N   0  0  0  0  0  0  0  0  0  0  0  0
   35.6670   28.9540   33.4400 N   0  0  0  0  0  0  0  0  0  0  0  0
   36.6150   28.9970   30.3900 H   0  0  0  0  0  0  0  0  0  0  0  0
   36.2010   31.4390   31.4870 H   0  0  0  0  0  0  0  0  0  0  0  0
   33.9620   31.1200   34.6360 N   0  0  0  0  0  0  0  0  0  0  0  0
   33.9220   31.8360   35.9050 C   0  0  0  0  0  0  0  0  0  0  0  0
   35.3340   31.9480   36.4190 C   0  0  0  0  0  0  0  0  0  0  0  0
   36.0860   30.9830   35.5060 C   0  0  0  0  0  0  0  0  0  0  0  0
   35.3580   31.2060   34.2200 C   0  0  1  0  0  0  0  0  0  0  0  0
   33.4290   31.6560   33.9090 H   0  0  0  0  0  0  0  0  0  0  0  0
   33.2250   31.3680   36.6380 H   0  0  0  0  0  0  0  0  0  0  0  0
   33.5750   32.8820   35.6950 H   0  0  0  0  0  0  0  0  0  0  0  0
   35.7490   32.9650   36.3870 H   0  0  0  0  0  0  0  0  0  0  0  0
   35.4740   31.5450   37.4410 H   0  0  0  0  0  0  0  0  0  0  0  0
   37.1570   31.2970   35.4080 H   0  0  0  0  0  0  0  0  0  0  0  0
   36.0590   29.9640   35.8880 H   0  0  0  0  0  0  0  0  0  0  0  0
   35.6640   32.5370   33.7350 N   0  0  0  0  0  0  0  0  0  0  0  0
   35.3300   33.2940   34.3520 H   0  0  0  0  0  0  0  0  0  0  0  0
   36.6750   32.5690   33.5360 H   0  0  0  0  0  0  0  0  0  0  0  0
   37.0230   26.0180   32.8560 C   0  0  0  0  0  0  0  0  0  0  0  0
   36.1330   26.8290   32.1490 C   0  0  0  0  0  0  0  0  0  0  0  0
   35.3360   26.2240   31.1800 C   0  0  0  0  0  0  0  0  0  0  0  0
   35.4900   24.8840   31.0000 N   0  0  0  0  0  0  0  0  0  0  0  0
   36.3580   24.1360   31.7010 C   0  0  0  0  0  0  0  0  0  0  0  0
   37.1420   24.7200   32.6510 N   0  0  0  0  0  0  0  0  0  0  0  0
   37.6050   26.5700   33.5910 H   0  0  0  0  0  0  0  0  0  0  0  0
   34.6280   26.8080   30.6010 H   0  0  0  0  0  0  0  0  0  0  0  0
   36.4420   22.7210   31.4320 C   0  0  0  0  0  0  0  0  0  0  0  0
   37.5470   22.1440   30.8400 C   0  0  0  0  0  0  0  0  0  0  0  0
   38.3690   22.7990   30.5780 H   0  0  0  0  0  0  0  0  0  0  0  0
   37.6510   20.7950   30.5710 C   0  0  0  0  0  3  0  0  0  0  0  0
   36.5520   20.0480   30.9430 C   0  0  0  0  0  0  0  0  0  0  0  0
   36.5470   18.9630   30.7680 H   0  0  0  0  0  0  0  0  0  0  0  0
   35.4010   20.5550   31.5450 C   0  0  0  0  0  0  0  0  0  0  0  0
   34.5880   19.8900   31.8010 H   0  0  0  0  0  0  0  0  0  0  0  0
   35.3610   21.9310   31.7890 C   0  0  0  0  0  3  0  0  0  0  0  0
  1  5  2  0  0  0  0
  2  3  2  0  0  0  0
  2  1  1  0  0  0  0
  3  4  1  0  0  0  0
  4  5  1  0  0  0  0
  4 12  1  0  0  0  0
  6  2  1  0  0  0  0
  7  3  1  0  0  0  0
  8  9  1  0  0  0  0
  9 10  1  0  0  0  0
  9 14  1  0  0  0  0
 10 17  1  0  0  0  0
 11 19  1  0  0  0  0
 11 10  1  0  0  0  0
 12 20  1  6  0  0  0
 12  8  1  0  0  0  0
 12 11  1  0  0  0  0
 13  8  1  0  0  0  0
 15  9  1  0  0  0  0
 16 10  1  0  0  0  0
 18 11  1  0  0  0  0
 20 21  1  0  0  0  0
 22 20  1  0  0  0  0
 23 29  1  0  0  0  0
 24  1  1  0  0  0  0
 24 23  2  0  0  0  0
 25 24  1  0  0  0  0
 26 25  2  0  0  0  0
 26 27  1  0  0  0  0
 27 28  2  0  0  0  0
 28 23  1  0  0  0  0
 30 25  1  0  0  0  0
 31 27  1  0  0  0  0
 31 39  1  0  0  0  0
 32 31  2  0  0  0  0
 33 32  1  0  0  0  0
 34 32  1  0  0  0  0
 34 35  2  0  0  0  0
 35 37  1  0  0  0  0
 36 35  1  0  0  0  0
 37 39  2  0  0  0  0
 37 38  1  0  0  0  0
M  END
>  <minimizedAffinity>
-5.72500181

$$$$

 OpenBabel03272501283D

 39 42  0  0  1  0  0  0  0  0999 V2000
   36.0060   27.5300   31.7330 C   0  0  0  0  0  0  0  0  0  0  0  0
   36.5510   28.2930   30.6980 C   0  0  0  0  0  0  0  0  0  0  0  0
   36.3880   29.6400   31.0390 C   0  0  0  0  0  0  0  0  0  0  0  0
   35.7690   29.6450   32.2340 N   0  0  0  0  0  0  0  0  0  0  0  0
   35.5610   28.3920   32.6090 N   0  0  0  0  0  0  0  0  0  0  0  0
   37.0110   27.9260   29.8020 H   0  0  0  0  0  0  0  0  0  0  0  0
   36.6810   30.5240   30.4940 H   0  0  0  0  0  0  0  0  0  0  0  0
   33.9320   31.0060   32.9750 N   0  0  0  0  0  0  0  0  0  0  0  0
   33.6710   31.8520   34.1320 C   0  0  0  0  0  0  0  0  0  0  0  0
   34.8380   31.7230   35.0750 C   0  0  0  0  0  0  0  0  0  0  0  0
   35.5870   30.5250   34.4960 C   0  0  0  0  0  0  0  0  0  0  0  0
   35.3670   30.7490   33.0350 C   0  0  1  0  0  0  0  0  0  0  0  0
   33.7920   31.5570   32.0930 H   0  0  0  0  0  0  0  0  0  0  0  0
   32.6910   31.6260   34.6150 H   0  0  0  0  0  0  0  0  0  0  0  0
   33.6610   32.9170   33.7800 H   0  0  0  0  0  0  0  0  0  0  0  0
   35.4700   32.6200   35.1410 H   0  0  0  0  0  0  0  0  0  0  0  0
   34.5560   31.4170   36.1020 H   0  0  0  0  0  0  0  0  0  0  0  0
   36.6790   30.5940   34.7420 H   0  0  0  0  0  0  0  0  0  0  0  0
   35.2050   29.5840   34.8880 H   0  0  0  0  0  0  0  0  0  0  0  0
   36.1120   31.9230   32.6260 N   0  0  0  0  0  0  0  0  0  0  0  0
   35.7910   32.7980   33.0700 H   0  0  0  0  0  0  0  0  0  0  0  0
   37.1120   31.7190   32.7680 H   0  0  0  0  0  0  0  0  0  0  0  0
   36.9390   25.3060   32.4000 C   0  0  0  0  0  0  0  0  0  0  0  0
   36.0080   26.0750   31.6980 C   0  0  0  0  0  0  0  0  0  0  0  0
   35.0530   25.4020   30.9410 C   0  0  0  0  0  0  0  0  0  0  0  0
   35.1040   24.0420   30.9450 N   0  0  0  0  0  0  0  0  0  0  0  0
   36.0160   23.3360   31.6350 C   0  0  0  0  0  0  0  0  0  0  0  0
   36.9540   23.9870   32.3790 N   0  0  0  0  0  0  0  0  0  0  0  0
   37.6460   25.9110   32.9640 H   0  0  0  0  0  0  0  0  0  0  0  0
   34.3070   25.9510   30.3750 H   0  0  0  0  0  0  0  0  0  0  0  0
   35.9820   21.8950   31.5720 C   0  0  0  0  0  0  0  0  0  0  0  0
   34.9690   21.1530   32.1430 C   0  0  0  0  0  0  0  0  0  0  0  0
   34.1820   21.6950   32.6510 H   0  0  0  0  0  0  0  0  0  0  0  0
   34.9150   19.7750   32.0970 C   0  0  0  0  0  3  0  0  0  0  0  0
   35.9640   19.1800   31.4270 C   0  0  0  0  0  0  0  0  0  0  0  0
   36.0030   18.0850   31.3390 H   0  0  0  0  0  0  0  0  0  0  0  0
   37.0220   19.8580   30.8240 C   0  0  0  0  0  0  0  0  0  0  0  0
   37.8010   19.3040   30.3200 H   0  0  0  0  0  0  0  0  0  0  0  0
   37.0160   21.2540   30.9080 C   0  0  0  0  0  3  0  0  0  0  0  0
  1  5  2  0  0  0  0
  2  3  2  0  0  0  0
  2  1  1  0  0  0  0
  3  4  1  0  0  0  0
  4  5  1  0  0  0  0
  4 12  1  0  0  0  0
  6  2  1  0  0  0  0
  7  3  1  0  0  0  0
  8 12  1  0  0  0  0
  8  9  1  0  0  0  0
  9 14  1  0  0  0  0
  9 10  1  0  0  0  0
 10 16  1  0  0  0  0
 10 17  1  0  0  0  0
 11 18  1  0  0  0  0
 11 19  1  0  0  0  0
 11 10  1  0  0  0  0
 12 20  1  6  0  0  0
 12 11  1  0  0  0  0
 13  8  1  0  0  0  0
 15  9  1  0  0  0  0
 20 22  1  0  0  0  0
 20 21  1  0  0  0  0
 23 29  1  0  0  0  0
 24  1  1  0  0  0  0
 24 23  2  0  0  0  0
 25 26  2  0  0  0  0
 25 24  1  0  0  0  0
 26 27  1  0  0  0  0
 27 28  2  0  0  0  0
 28 23  1  0  0  0  0
 30 25  1  0  0  0  0
 31 27  1  0  0  0  0
 31 32  1  0  0  0  0
 32 33  1  0  0  0  0
 34 32  2  0  0  0  0
 35 34  1  0  0  0  0
 36 35  1  0  0  0  0
 37 39  1  0  0  0  0
 37 35  2  0  0  0  0
 38 37  1  0  0  0  0
 39 31  2  0  0  0  0
M  END
>  <minimizedAffinity>
-5.69192171

$$$$

 OpenBabel03272501283D

 39 42  0  0  1  0  0  0  0  0999 V2000
   36.0750   27.6810   31.8390 C   0  0  0  0  0  0  0  0  0  0  0  0
   36.0770   28.3620   33.0580 C   0  0  0  0  0  0  0  0  0  0  0  0
   36.1020   29.7310   32.7750 C   0  0  0  0  0  0  0  0  0  0  0  0
   36.1120   29.8300   31.4320 N   0  0  0  0  0  0  0  0  0  0  0  0
   36.0950   28.6090   30.9180 N   0  0  0  0  0  0  0  0  0  0  0  0
   36.0640   27.9260   34.0380 H   0  0  0  0  0  0  0  0  0  0  0  0
   36.1100   30.5700   33.4530 H   0  0  0  0  0  0  0  0  0  0  0  0
   34.8150   31.5870   30.4310 N   0  0  0  0  0  0  0  0  0  0  0  0
   35.0930   32.9350   29.9510 C   0  0  0  0  0  0  0  0  0  0  0  0
   36.5300   33.2540   30.2720 C   0  0  0  0  0  0  0  0  0  0  0  0
   36.9070   32.1200   31.2210 C   0  0  0  0  0  0  0  0  0  0  0  0
   36.1350   30.9930   30.6150 C   0  0  1  0  0  0  0  0  0  0  0  0
   34.3690   31.0230   29.6670 H   0  0  0  0  0  0  0  0  0  0  0  0
   34.3770   33.6880   30.3550 H   0  0  0  0  0  0  0  0  0  0  0  0
   35.0100   32.9220   28.8330 H   0  0  0  0  0  0  0  0  0  0  0  0
   37.1900   33.3040   29.3950 H   0  0  0  0  0  0  0  0  0  0  0  0
   36.6640   34.1810   30.8640 H   0  0  0  0  0  0  0  0  0  0  0  0
   38.0080   31.9150   31.1630 H   0  0  0  0  0  0  0  0  0  0  0  0
   36.6550   32.3580   32.2530 H   0  0  0  0  0  0  0  0  0  0  0  0
   36.7260   30.6570   29.3350 N   0  0  0  0  0  0  0  0  0  0  0  0
   36.6660   31.4140   28.6360 H   0  0  0  0  0  0  0  0  0  0  0  0
   37.6850   30.3240   29.5150 H   0  0  0  0  0  0  0  0  0  0  0  0
   35.1480   25.5260   30.9690 C   0  0  0  0  0  0  0  0  0  0  0  0
   36.0520   26.2280   31.7700 C   0  0  0  0  0  0  0  0  0  0  0  0
   36.9580   25.4870   32.5240 C   0  0  0  0  0  0  0  0  0  0  0  0
   36.8900   24.1320   32.4210 N   0  0  0  0  0  0  0  0  0  0  0  0
   36.0050   23.4920   31.6380 C   0  0  0  0  0  0  0  0  0  0  0  0
   35.1150   24.2090   30.8960 N   0  0  0  0  0  0  0  0  0  0  0  0
   34.4780   26.1800   30.4150 H   0  0  0  0  0  0  0  0  0  0  0  0
   37.6820   25.9820   33.1640 H   0  0  0  0  0  0  0  0  0  0  0  0
   36.0170   22.0490   31.6000 C   0  0  0  0  0  0  0  0  0  0  0  0
   35.0470   21.2840   32.2130 C   0  0  0  0  0  0  0  0  0  0  0  0
   34.2570   21.8090   32.7360 H   0  0  0  0  0  0  0  0  0  0  0  0
   35.0380   19.9050   32.1920 C   0  0  0  0  0  3  0  0  0  0  0  0
   36.0860   19.3330   31.5000 C   0  0  0  0  0  0  0  0  0  0  0  0
   36.1580   18.2380   31.4290 H   0  0  0  0  0  0  0  0  0  0  0  0
   37.1020   20.0350   30.8540 C   0  0  0  0  0  0  0  0  0  0  0  0
   37.8840   19.4990   30.3360 H   0  0  0  0  0  0  0  0  0  0  0  0
   37.0520   21.4310   30.9150 C   0  0  0  0  0  3  0  0  0  0  0  0
  1  2  1  0  0  0  0
  2  6  1  0  0  0  0
  3  2  2  0  0  0  0
  3  7  1  0  0  0  0
  4  3  1  0  0  0  0
  5  4  1  0  0  0  0
  5  1  2  0  0  0  0
  8 12  1  0  0  0  0
  9 10  1  0  0  0  0
  9 14  1  0  0  0  0
  9  8  1  0  0  0  0
 10 17  1  0  0  0  0
 10 11  1  0  0  0  0
 11 19  1  0  0  0  0
 12 20  1  6  0  0  0
 12 11  1  0  0  0  0
 12  4  1  0  0  0  0
 13  8  1  0  0  0  0
 15  9  1  0  0  0  0
 16 10  1  0  0  0  0
 18 11  1  0  0  0  0
 20 22  1  0  0  0  0
 21 20  1  0  0  0  0
 23 24  1  0  0  0  0
 24  1  1  0  0  0  0
 24 25  2  0  0  0  0
 25 30  1  0  0  0  0
 26 25  1  0  0  0  0
 27 26  2  0  0  0  0
 28 23  2  0  0  0  0
 28 27  1  0  0  0  0
 29 23  1  0  0  0  0
 31 27  1  0  0  0  0
 31 32  1  0  0  0  0
 32 33  1  0  0  0  0
 34 32  2  0  0  0  0
 35 34  1  0  0  0  0
 36 35  1  0  0  0  0
 37 39  1  0  0  0  0
 37 35  2  0  0  0  0
 38 37  1  0  0  0  0
 39 31  2  0  0  0  0
M  END
>  <minimizedAffinity>
-5.57180882

$$$$

 OpenBabel03272501283D

 39 42  0  0  1  0  0  0  0  0999 V2000
   37.7520   25.0710   33.2510 C   0  0  0  0  0  0  0  0  0  0  0  0
   37.6010   23.8100   32.6720 C   0  0  0  0  0  0  0  0  0  0  0  0
   37.8180   22.8580   33.6740 C   0  0  0  0  0  0  0  0  0  0  0  0
   38.0840   23.5570   34.7940 N   0  0  0  0  0  0  0  0  0  0  0  0
   38.0360   24.8490   34.5080 N   0  0  0  0  0  0  0  0  0  0  0  0
   37.3640   23.5970   31.6480 H   0  0  0  0  0  0  0  0  0  0  0  0
   37.7880   21.7810   33.6130 H   0  0  0  0  0  0  0  0  0  0  0  0
   39.7980   22.8370   36.3160 N   0  0  0  0  0  0  0  0  0  0  0  0
   39.9360   22.7750   37.7650 C   0  0  0  0  0  0  0  0  0  0  0  0
   38.7120   23.4060   38.3760 C   0  0  0  0  0  0  0  0  0  0  0  0
   38.0630   24.0810   37.1700 C   0  0  0  0  0  0  0  0  0  0  0  0
   38.3750   23.0830   36.1020 C   0  0  1  0  0  0  0  0  0  0  0  0
   39.9730   21.8890   35.9020 H   0  0  0  0  0  0  0  0  0  0  0  0
   40.8880   23.2320   38.1230 H   0  0  0  0  0  0  0  0  0  0  0  0
   39.9210   21.6940   38.0640 H   0  0  0  0  0  0  0  0  0  0  0  0
   38.0360   22.6970   38.8730 H   0  0  0  0  0  0  0  0  0  0  0  0
   38.9340   24.2310   39.0810 H   0  0  0  0  0  0  0  0  0  0  0  0
   36.9550   24.1600   37.3190 H   0  0  0  0  0  0  0  0  0  0  0  0
   38.4610   25.0820   37.0060 H   0  0  0  0  0  0  0  0  0  0  0  0
   37.6070   21.8800   36.3490 N   0  0  0  0  0  0  0  0  0  0  0  0
   37.8540   21.3990   37.2280 H   0  0  0  0  0  0  0  0  0  0  0  0
   36.6100   22.1280   36.2690 H   0  0  0  0  0  0  0  0  0  0  0  0
   36.9860   27.4400   33.0010 C   0  0  0  0  0  0  0  0  0  0  0  0
   37.5930   26.2950   32.4800 C   0  0  0  0  0  0  0  0  0  0  0  0
   38.0560   26.3490   31.1680 C   0  0  0  0  0  0  0  0  0  0  0  0
   37.8800   27.5190   30.4960 N   0  0  0  0  0  0  0  0  0  0  0  0
   37.2900   28.6010   31.0320 C   0  0  0  0  0  0  0  0  0  0  0  0
   36.8340   28.5570   32.3150 N   0  0  0  0  0  0  0  0  0  0  0  0
   36.6540   27.3110   34.0300 H   0  0  0  0  0  0  0  0  0  0  0  0
   38.5350   25.4880   30.7140 H   0  0  0  0  0  0  0  0  0  0  0  0
   37.1530   29.7940   30.2320 C   0  0  0  0  0  0  0  0  0  0  0  0
   36.5990   30.9560   30.7260 C   0  0  0  0  0  0  0  0  0  0  0  0
   36.2620   30.9490   31.7550 H   0  0  0  0  0  0  0  0  0  0  0  0
   36.4560   32.1090   29.9810 C   0  0  0  0  0  3  0  0  0  0  0  0
   36.9150   32.0160   28.6830 C   0  0  0  0  0  0  0  0  0  0  0  0
   36.8430   32.8870   28.0160 H   0  0  0  0  0  0  0  0  0  0  0  0
   37.4870   30.8800   28.1110 C   0  0  0  0  0  0  0  0  0  0  0  0
   37.8180   30.9020   27.0830 H   0  0  0  0  0  0  0  0  0  0  0  0
   37.6010   29.7460   28.9210 C   0  0  0  0  0  3  0  0  0  0  0  0
  1  5  2  0  0  0  0
  2  1  1  0  0  0  0
  2  3  2  0  0  0  0
  3  4  1  0  0  0  0
  4 12  1  0  0  0  0
  5  4  1  0  0  0  0
  6  2  1  0  0  0  0
  7  3  1  0  0  0  0
  8  9  1  0  0  0  0
  9 15  1  0  0  0  0
  9 14  1  0  0  0  0
  9 10  1  0  0  0  0
 10 16  1  0  0  0  0
 10 17  1  0  0  0  0
 11 18  1  0  0  0  0
 11 10  1  0  0  0  0
 12  8  1  0  0  0  0
 12 20  1  1  0  0  0
 12 11  1  0  0  0  0
 13  8  1  0  0  0  0
 19 11  1  0  0  0  0
 20 21  1  0  0  0  0
 22 20  1  0  0  0  0
 23 29  1  0  0  0  0
 24 23  1  0  0  0  0
 24  1  1  0  0  0  0
 25 24  2  0  0  0  0
 26 27  2  0  0  0  0
 26 25  1  0  0  0  0
 27 28  1  0  0  0  0
 28 23  2  0  0  0  0
 30 25  1  0  0  0  0
 31 32  1  0  0  0  0
 31 27  1  0  0  0  0
 32 33  1  0  0  0  0
 34 32  2  0  0  0  0
 35 34  1  0  0  0  0
 36 35  1  0  0  0  0
 37 35  2  0  0  0  0
 37 39  1  0  0  0  0
 38 37  1  0  0  0  0
 39 31  2  0  0  0  0
M  END
>  <minimizedAffinity>
-5.55303049

$$$$
