
 OpenBabel03272509543D

 43 46  0  0  0  0  0  0  0  0999 V2000
   34.3390   29.4380   47.6130 C   0  0  0  0  0  0  0  0  0  0  0  0
   35.1520   30.0260   47.1170 H   0  0  0  0  0  0  0  0  0  0  0  0
   33.5510   30.1520   47.9600 H   0  0  0  0  0  0  0  0  0  0  0  0
   33.6960   28.4320   46.7020 C   0  0  0  0  0  0  0  0  0  0  0  0
   34.3630   27.5800   46.4900 H   0  0  0  0  0  0  0  0  0  0  0  0
   33.4640   28.9290   45.7280 H   0  0  0  0  0  0  0  0  0  0  0  0
   32.4030   27.9350   47.2360 C   0  0  0  0  0  0  0  0  0  0  0  0
   32.3720   26.6280   47.7050 C   0  0  0  0  0  0  0  0  0  0  0  0
   31.2210   26.0770   48.2180 C   0  0  0  0  0  0  0  0  0  0  0  0
   30.1220   26.7960   48.2700 N   0  0  0  0  0  0  0  0  0  0  0  0
   30.1440   28.0770   47.8130 C   0  0  0  0  0  0  0  0  0  0  0  0
   31.2610   28.6460   47.3030 N   0  0  0  0  0  0  0  0  0  0  0  0
   33.2670   26.0210   47.6690 H   0  0  0  0  0  0  0  0  0  0  0  0
   31.2690   25.0380   48.5700 H   0  0  0  0  0  0  0  0  0  0  0  0
   28.9320   28.8890   47.8630 C   0  0  0  0  0  0  0  0  0  0  0  0
   28.2970   29.0950   49.0900 C   0  0  0  0  0  0  0  0  0  0  0  0
   28.7510   28.6240   49.9680 H   0  0  0  0  0  0  0  0  0  0  0  0
   27.1550   29.8560   49.1630 C   0  0  0  0  0  0  0  0  0  0  0  0
   26.6530   30.4090   48.0140 C   0  0  0  0  0  0  0  0  0  0  0  0
   25.7610   30.9950   48.1270 H   0  0  0  0  0  0  0  0  0  0  0  0
   27.2390   30.2440   46.7560 C   0  0  0  0  0  0  0  0  0  0  0  0
   26.8180   30.6960   45.8580 H   0  0  0  0  0  0  0  0  0  0  0  0
   28.3760   29.4740   46.7450 C   0  0  0  0  0  0  0  0  0  0  0  0
   34.9250   28.7910   48.7360 O   0  0  0  0  0  0  0  0  0  0  0  0
   37.2280   30.0480   51.2180 C   0  0  0  0  0  0  0  0  0  0  0  0
   38.0800   30.8270   50.3960 C   0  0  0  0  0  0  0  0  0  0  0  0
   37.8000   30.8640   49.0400 C   0  0  0  0  0  0  0  0  0  0  0  0
   36.7150   30.1380   48.6150 N   0  0  0  0  0  0  0  0  0  0  0  0
   35.9300   29.4130   49.4130 C   0  0  0  0  0  0  0  0  0  0  0  0
   36.1990   29.3750   50.7270 N   0  0  0  0  0  0  0  0  0  0  0  0
   37.4860   30.0490   52.2750 H   0  0  0  0  0  0  0  0  0  0  0  0
   38.9210   31.3880   50.7340 H   0  0  0  0  0  0  0  0  0  0  0  0
   38.8460   33.5640   49.2180 F   0  0  0  0  0  0  0  0  0  0  0  0
   39.0430   32.8490   48.1070 C   0  0  0  0  0  0  0  0  0  0  0  0
   38.5480   31.5960   48.0470 C   0  0  0  0  0  0  0  0  0  0  0  0
   38.8170   30.9540   46.8460 C   0  0  0  0  0  0  0  0  0  0  0  0
   39.5210   31.5450   45.8200 C   0  0  0  0  0  0  0  0  0  0  0  0
   40.0010   32.8220   45.9370 C   0  0  0  0  0  0  0  0  0  0  0  0
   39.7520   33.4820   47.1110 C   0  0  0  0  0  0  0  0  0  0  0  0
   38.4790   29.9330   46.6490 H   0  0  0  0  0  0  0  0  0  0  0  0
   39.7120   31.0080   44.8920 H   0  0  0  0  0  0  0  0  0  0  0  0
   40.5540   33.2910   45.1370 H   0  0  0  0  0  0  0  0  0  0  0  0
   40.1230   34.4840   47.2150 H   0  0  0  0  0  0  0  0  0  0  0  0
  1  3  1  0  0  0  0
  1 24  1  0  0  0  0
  2  1  1  0  0  0  0
  4  7  1  0  0  0  0
  4  1  1  0  0  0  0
  5  4  1  0  0  0  0
  6  4  1  0  0  0  0
  7 12  2  0  0  0  0
  7  8  1  0  0  0  0
  8  9  2  0  0  0  0
  9 10  1  0  0  0  0
  9 14  1  0  0  0  0
 11 15  1  0  0  0  0
 11 10  2  0  0  0  0
 12 11  1  0  0  0  0
 13  8  1  0  0  0  0
 15 16  1  0  0  0  0
 16 18  2  0  0  0  0
 16 17  1  0  0  0  0
 19 20  1  0  0  0  0
 19 18  1  0  0  0  0
 21 19  2  0  0  0  0
 22 21  1  0  0  0  0
 23 21  1  0  0  0  0
 23 15  2  0  0  0  0
 24 29  1  0  0  0  0
 25 31  1  0  0  0  0
 26 32  1  0  0  0  0
 26 25  2  0  0  0  0
 27 26  1  0  0  0  0
 28 27  2  0  0  0  0
 28 29  1  0  0  0  0
 29 30  2  0  0  0  0
 30 25  1  0  0  0  0
 34 33  1  0  0  0  0
 35 34  1  0  0  0  0
 35 27  1  0  0  0  0
 36 35  2  0  0  0  0
 37 38  2  0  0  0  0
 37 36  1  0  0  0  0
 38 39  1  0  0  0  0
 39 43  1  0  0  0  0
 39 34  2  0  0  0  0
 40 36  1  0  0  0  0
 41 37  1  0  0  0  0
 42 38  1  0  0  0  0
M  END
>  <minimizedAffinity>
-7.0041647

>  <minimizedRMSD>
1.93934679

$$$$
