
 OpenBabel03272502203D

 28 30  0  0  0  0  0  0  0  0999 V2000
   36.0020   23.5650   31.6330 C   0  0  0  0  0  0  0  0  0  0  0  0
   35.1740   24.3310   30.7880 C   0  0  0  0  0  0  0  0  0  0  0  0
   35.2430   25.7290   30.9170 C   0  0  0  0  0  0  0  0  0  0  0  0
   36.0930   26.2620   31.8380 N   0  0  0  0  0  0  0  0  0  0  0  0
   36.8670   25.4820   32.6230 C   0  0  0  0  0  0  0  0  0  0  0  0
   36.8280   24.1300   32.5280 N   0  0  0  0  0  0  0  0  0  0  0  0
   34.5150   23.8660   30.0720 H   0  0  0  0  0  0  0  0  0  0  0  0
   34.6100   26.2990   30.2720 H   0  0  0  0  0  0  0  0  0  0  0  0
   39.7190   26.1260   31.4980 Br  0  0  0  0  0  0  0  0  0  0  0  0
   39.0740   26.3990   33.2740 C   0  0  0  0  0  0  0  0  0  0  0  0
   37.7770   26.0560   33.6090 C   0  0  0  0  0  0  0  0  0  0  0  0
   37.3920   26.2860   34.9210 C   0  0  0  0  0  0  0  0  0  0  0  0
   38.2120   26.8250   35.8880 C   0  0  0  0  0  0  0  0  0  0  0  0
   39.5070   27.1530   35.4960 C   0  0  0  0  0  0  0  0  0  0  0  0
   39.9310   26.9360   34.1820 C   0  0  0  0  0  0  0  0  0  0  0  0
   36.3700   26.0040   35.1460 H   0  0  0  0  0  0  0  0  0  0  0  0
   37.8420   26.9760   36.8920 H   0  0  0  0  0  0  0  0  0  0  0  0
   40.1620   27.5770   36.2370 H   0  0  0  0  0  0  0  0  0  0  0  0
   40.9530   27.2220   33.9710 H   0  0  0  0  0  0  0  0  0  0  0  0
   35.9990   22.1090   31.5720 C   0  0  0  0  0  0  0  0  0  0  0  0
   35.0000   21.4250   32.2320 C   0  0  0  0  0  0  0  0  0  0  0  0
   34.2150   21.9090   32.7950 H   0  0  0  0  0  0  0  0  0  0  0  0
   34.9220   20.0270   32.2240 C   0  0  0  0  0  3  0  0  0  0  0  0
   35.8640   19.2850   31.5430 C   0  0  0  0  0  0  0  0  0  0  0  0
   35.7580   18.2070   31.5690 H   0  0  0  0  0  0  0  0  0  0  0  0
   36.8600   19.9560   30.8840 C   0  0  0  0  0  0  0  0  0  0  0  0
   37.5870   19.3820   30.3580 H   0  0  0  0  0  0  0  0  0  0  0  0
   36.9140   21.3230   30.9070 C   0  0  0  0  0  3  0  0  0  0  0  0
  1  6  1  0  0  0  0
  2  3  1  0  0  0  0
  2  1  2  0  0  0  0
  3  4  2  0  0  0  0
  4  5  1  0  0  0  0
  5 11  1  0  0  0  0
  6  5  2  0  0  0  0
  7  2  1  0  0  0  0
  8  3  1  0  0  0  0
  9 10  1  0  0  0  0
 10 11  2  0  0  0  0
 10 15  1  0  0  0  0
 11 12  1  0  0  0  0
 12 16  1  0  0  0  0
 12 13  2  0  0  0  0
 13 17  1  0  0  0  0
 14 13  1  0  0  0  0
 14 18  1  0  0  0  0
 15 14  2  0  0  0  0
 19 15  1  0  0  0  0
 20  1  1  0  0  0  0
 20 21  1  0  0  0  0
 21 22  1  0  0  0  0
 23 21  2  0  0  0  0
 24 25  1  0  0  0  0
 24 23  1  0  0  0  0
 26 28  1  0  0  0  0
 26 24  2  0  0  0  0
 27 26  1  0  0  0  0
 28 20  2  0  0  0  0
M  END
>  <minimizedAffinity>
-5.60230017

$$$$

 OpenBabel03272502203D

 28 30  0  0  0  0  0  0  0  0999 V2000
   36.6560   28.0250   33.5540 C   0  0  0  0  0  0  0  0  0  0  0  0
   36.7570   28.4380   32.2100 C   0  0  0  0  0  0  0  0  0  0  0  0
   36.1820   29.6750   31.8730 C   0  0  0  0  0  0  0  0  0  0  0  0
   35.5650   30.4000   32.8490 N   0  0  0  0  0  0  0  0  0  0  0  0
   35.4970   29.9580   34.1230 C   0  0  0  0  0  0  0  0  0  0  0  0
   36.0400   28.7690   34.4850 N   0  0  0  0  0  0  0  0  0  0  0  0
   37.2550   27.8320   31.4690 H   0  0  0  0  0  0  0  0  0  0  0  0
   36.2650   29.9780   30.8520 H   0  0  0  0  0  0  0  0  0  0  0  0
   32.4180   29.4290   34.3460 Br  0  0  0  0  0  0  0  0  0  0  0  0
   33.4780   30.6190   35.3970 C   0  0  0  0  0  0  0  0  0  0  0  0
   34.8360   30.7350   35.1660 C   0  0  0  0  0  0  0  0  0  0  0  0
   35.5300   31.6240   35.9740 C   0  0  0  0  0  0  0  0  0  0  0  0
   34.9530   32.3800   36.9710 C   0  0  0  0  0  0  0  0  0  0  0  0
   33.5840   32.2210   37.1610 C   0  0  0  0  0  0  0  0  0  0  0  0
   32.8510   31.3350   36.3660 C   0  0  0  0  0  0  0  0  0  0  0  0
   36.5910   31.6900   35.7630 H   0  0  0  0  0  0  0  0  0  0  0  0
   35.5590   33.0530   37.5620 H   0  0  0  0  0  0  0  0  0  0  0  0
   33.1150   32.8030   37.9360 H   0  0  0  0  0  0  0  0  0  0  0  0
   31.7930   31.2800   36.5870 H   0  0  0  0  0  0  0  0  0  0  0  0
   37.2220   26.7570   33.9960 C   0  0  0  0  0  0  0  0  0  0  0  0
   37.6140   26.6340   35.3120 C   0  0  0  0  0  0  0  0  0  0  0  0
   37.5230   27.4290   36.0400 H   0  0  0  0  0  0  0  0  0  0  0  0
   38.1660   25.4530   35.8190 C   0  0  0  0  0  3  0  0  0  0  0  0
   38.3370   24.3590   34.9960 C   0  0  0  0  0  0  0  0  0  0  0  0
   38.7690   23.4690   35.4390 H   0  0  0  0  0  0  0  0  0  0  0  0
   37.9510   24.4720   33.6860 C   0  0  0  0  0  0  0  0  0  0  0  0
   38.0840   23.6270   33.0510 H   0  0  0  0  0  0  0  0  0  0  0  0
   37.4140   25.6390   33.2150 C   0  0  0  0  0  3  0  0  0  0  0  0
  1 20  1  0  0  0  0
  1  6  1  0  0  0  0
  2  1  2  0  0  0  0
  3  2  1  0  0  0  0
  3  4  2  0  0  0  0
  4  5  1  0  0  0  0
  5  6  2  0  0  0  0
  5 11  1  0  0  0  0
  7  2  1  0  0  0  0
  8  3  1  0  0  0  0
  9 10  1  0  0  0  0
 10 15  1  0  0  0  0
 11 10  2  0  0  0  0
 11 12  1  0  0  0  0
 12 13  2  0  0  0  0
 13 14  1  0  0  0  0
 13 17  1  0  0  0  0
 14 18  1  0  0  0  0
 15 19  1  0  0  0  0
 15 14  2  0  0  0  0
 16 12  1  0  0  0  0
 20 21  1  0  0  0  0
 21 23  2  0  0  0  0
 21 22  1  0  0  0  0
 24 25  1  0  0  0  0
 24 23  1  0  0  0  0
 26 24  2  0  0  0  0
 27 26  1  0  0  0  0
 28 26  1  0  0  0  0
 28 20  2  0  0  0  0
M  END
>  <minimizedAffinity>
-5.54125643

$$$$

 OpenBabel03272502203D

 28 30  0  0  0  0  0  0  0  0999 V2000
   36.7760   25.3980   32.6400 C   0  0  0  0  0  0  0  0  0  0  0  0
   36.0320   26.1880   31.7410 C   0  0  0  0  0  0  0  0  0  0  0  0
   35.2750   25.5120   30.7680 C   0  0  0  0  0  0  0  0  0  0  0  0
   35.3000   24.1500   30.7460 N   0  0  0  0  0  0  0  0  0  0  0  0
   36.0300   23.4410   31.6320 C   0  0  0  0  0  0  0  0  0  0  0  0
   36.7740   24.0570   32.5840 N   0  0  0  0  0  0  0  0  0  0  0  0
   36.0410   27.2650   31.7940 H   0  0  0  0  0  0  0  0  0  0  0  0
   34.7150   26.1210   30.0920 H   0  0  0  0  0  0  0  0  0  0  0  0
   38.5950   22.2350   30.2970 Br  0  0  0  0  0  0  0  0  0  0  0  0
   37.1190   21.2910   31.0540 C   0  0  0  0  0  0  0  0  0  0  0  0
   36.0560   21.9820   31.6060 C   0  0  0  0  0  0  0  0  0  0  0  0
   35.0240   21.2180   32.1310 C   0  0  0  0  0  0  0  0  0  0  0  0
   35.0010   19.8400   32.1320 C   0  0  0  0  0  0  0  0  0  0  0  0
   36.0970   19.1970   31.5640 C   0  0  0  0  0  0  0  0  0  0  0  0
   37.1550   19.9330   31.0250 C   0  0  0  0  0  0  0  0  0  0  0  0
   34.2090   21.7920   32.5550 H   0  0  0  0  0  0  0  0  0  0  0  0
   34.1610   19.3110   32.5600 H   0  0  0  0  0  0  0  0  0  0  0  0
   36.0960   18.1210   31.5560 H   0  0  0  0  0  0  0  0  0  0  0  0
   37.9620   19.3470   30.6050 H   0  0  0  0  0  0  0  0  0  0  0  0
   37.5920   26.0090   33.6810 C   0  0  0  0  0  0  0  0  0  0  0  0
   38.9160   25.6380   33.7840 C   0  0  0  0  0  0  0  0  0  0  0  0
   39.3870   24.9160   33.1310 H   0  0  0  0  0  0  0  0  0  0  0  0
   39.7690   26.1760   34.7540 C   0  0  0  0  0  3  0  0  0  0  0  0
   39.2950   27.1100   35.6520 C   0  0  0  0  0  0  0  0  0  0  0  0
   39.9960   27.4950   36.3830 H   0  0  0  0  0  0  0  0  0  0  0  0
   37.9800   27.4850   35.5580 C   0  0  0  0  0  0  0  0  0  0  0  0
   37.6150   28.2060   36.2520 H   0  0  0  0  0  0  0  0  0  0  0  0
   37.1670   26.9430   34.6000 C   0  0  0  0  0  3  0  0  0  0  0  0
  1 20  1  0  0  0  0
  2  7  1  0  0  0  0
  2  1  2  0  0  0  0
  3  2  1  0  0  0  0
  4  3  2  0  0  0  0
  4  5  1  0  0  0  0
  5  6  2  0  0  0  0
  6  1  1  0  0  0  0
  8  3  1  0  0  0  0
  9 10  1  0  0  0  0
 10 11  1  0  0  0  0
 11  5  1  0  0  0  0
 11 12  2  0  0  0  0
 12 13  1  0  0  0  0
 12 16  1  0  0  0  0
 13 17  1  0  0  0  0
 14 13  2  0  0  0  0
 15 10  2  0  0  0  0
 15 14  1  0  0  0  0
 18 14  1  0  0  0  0
 19 15  1  0  0  0  0
 20 21  2  0  0  0  0
 20 28  1  0  0  0  0
 21 23  1  0  0  0  0
 22 21  1  0  0  0  0
 23 24  2  0  0  0  0
 24 25  1  0  0  0  0
 26 24  1  0  0  0  0
 26 27  1  0  0  0  0
 28 26  2  0  0  0  0
M  END
>  <minimizedAffinity>
-5.4958415

$$$$

 OpenBabel03272502203D

 28 30  0  0  0  0  0  0  0  0999 V2000
   36.4730   28.3830   33.5010 C   0  0  0  0  0  0  0  0  0  0  0  0
   36.2810   28.6460   32.1300 C   0  0  0  0  0  0  0  0  0  0  0  0
   35.2200   29.4990   31.7820 C   0  0  0  0  0  0  0  0  0  0  0  0
   34.4430   30.0190   32.7740 N   0  0  0  0  0  0  0  0  0  0  0  0
   34.6720   29.7350   34.0740 C   0  0  0  0  0  0  0  0  0  0  0  0
   35.6860   28.9150   34.4480 N   0  0  0  0  0  0  0  0  0  0  0  0
   36.9210   28.2130   31.3770 H   0  0  0  0  0  0  0  0  0  0  0  0
   35.0840   29.6920   30.7400 H   0  0  0  0  0  0  0  0  0  0  0  0
   36.0100   32.0990   35.6330 Br  0  0  0  0  0  0  0  0  0  0  0  0
   34.2800   31.3440   35.9170 C   0  0  0  0  0  0  0  0  0  0  0  0
   33.8390   30.2930   35.1340 C   0  0  0  0  0  0  0  0  0  0  0  0
   32.5710   29.8030   35.4090 C   0  0  0  0  0  0  0  0  0  0  0  0
   31.7460   30.2950   36.3980 C   0  0  0  0  0  0  0  0  0  0  0  0
   32.2410   31.3540   37.1540 C   0  0  0  0  0  0  0  0  0  0  0  0
   33.5140   31.8740   36.9060 C   0  0  0  0  0  0  0  0  0  0  0  0
   32.2590   28.9800   34.7780 H   0  0  0  0  0  0  0  0  0  0  0  0
   30.7680   29.8620   36.5550 H   0  0  0  0  0  0  0  0  0  0  0  0
   31.6100   31.7520   37.9300 H   0  0  0  0  0  0  0  0  0  0  0  0
   33.8120   32.6950   37.5440 H   0  0  0  0  0  0  0  0  0  0  0  0
   37.5470   27.5100   33.9560 C   0  0  0  0  0  0  0  0  0  0  0  0
   37.8710   27.5080   35.2970 C   0  0  0  0  0  0  0  0  0  0  0  0
   37.3700   28.1200   36.0340 H   0  0  0  0  0  0  0  0  0  0  0  0
   38.8890   26.7010   35.8180 C   0  0  0  0  0  3  0  0  0  0  0  0
   39.6090   25.8700   34.9840 C   0  0  0  0  0  0  0  0  0  0  0  0
   40.3850   25.2660   35.4390 H   0  0  0  0  0  0  0  0  0  0  0  0
   39.2940   25.8650   33.6510 C   0  0  0  0  0  0  0  0  0  0  0  0
   39.8510   25.2230   33.0090 H   0  0  0  0  0  0  0  0  0  0  0  0
   38.2950   26.6640   33.1670 C   0  0  0  0  0  3  0  0  0  0  0  0
  1 20  1  0  0  0  0
  1  6  1  0  0  0  0
  2  1  2  0  0  0  0
  3  2  1  0  0  0  0
  3  4  2  0  0  0  0
  4  5  1  0  0  0  0
  5  6  2  0  0  0  0
  5 11  1  0  0  0  0
  7  2  1  0  0  0  0
  8  3  1  0  0  0  0
  9 10  1  0  0  0  0
 10 15  1  0  0  0  0
 11 12  1  0  0  0  0
 11 10  2  0  0  0  0
 12 13  2  0  0  0  0
 13 17  1  0  0  0  0
 13 14  1  0  0  0  0
 14 18  1  0  0  0  0
 15 14  2  0  0  0  0
 15 19  1  0  0  0  0
 16 12  1  0  0  0  0
 20 21  1  0  0  0  0
 21 23  2  0  0  0  0
 21 22  1  0  0  0  0
 24 25  1  0  0  0  0
 24 23  1  0  0  0  0
 26 24  2  0  0  0  0
 27 26  1  0  0  0  0
 28 26  1  0  0  0  0
 28 20  2  0  0  0  0
M  END
>  <minimizedAffinity>
-5.43219137

$$$$

 OpenBabel03272502203D

 28 30  0  0  0  0  0  0  0  0999 V2000
   36.2330   23.8610   31.6290 C   0  0  0  0  0  0  0  0  0  0  0  0
   35.2250   24.6910   31.0980 C   0  0  0  0  0  0  0  0  0  0  0  0
   35.4610   26.0760   31.1140 C   0  0  0  0  0  0  0  0  0  0  0  0
   36.6330   26.5380   31.6330 N   0  0  0  0  0  0  0  0  0  0  0  0
   37.5670   25.6970   32.1290 C   0  0  0  0  0  0  0  0  0  0  0  0
   37.3750   24.3550   32.1320 N   0  0  0  0  0  0  0  0  0  0  0  0
   34.3120   24.2830   30.6960 H   0  0  0  0  0  0  0  0  0  0  0  0
   34.6900   26.6960   30.7090 H   0  0  0  0  0  0  0  0  0  0  0  0
   37.4540   26.2760   35.2050 Br  0  0  0  0  0  0  0  0  0  0  0  0
   38.9410   26.4960   34.0290 C   0  0  0  0  0  0  0  0  0  0  0  0
   38.8210   26.1940   32.6850 C   0  0  0  0  0  0  0  0  0  0  0  0
   39.9500   26.3850   31.9020 C   0  0  0  0  0  0  0  0  0  0  0  0
   41.1560   26.8490   32.3780 C   0  0  0  0  0  0  0  0  0  0  0  0
   41.2200   27.1370   33.7390 C   0  0  0  0  0  0  0  0  0  0  0  0
   40.1040   26.9570   34.5600 C   0  0  0  0  0  0  0  0  0  0  0  0
   39.8180   26.1380   30.8550 H   0  0  0  0  0  0  0  0  0  0  0  0
   41.9940   26.9740   31.7070 H   0  0  0  0  0  0  0  0  0  0  0  0
   42.1550   27.5010   34.1290 H   0  0  0  0  0  0  0  0  0  0  0  0
   40.2490   27.2080   35.6020 H   0  0  0  0  0  0  0  0  0  0  0  0
   36.0780   22.4120   31.6560 C   0  0  0  0  0  0  0  0  0  0  0  0
   37.0010   21.6380   30.9840 C   0  0  0  0  0  0  0  0  0  0  0  0
   37.8390   22.0470   30.4370 H   0  0  0  0  0  0  0  0  0  0  0  0
   36.9260   20.2410   30.9590 C   0  0  0  0  0  3  0  0  0  0  0  0
   35.9040   19.5900   31.6190 C   0  0  0  0  0  0  0  0  0  0  0  0
   35.8920   18.5080   31.5680 H   0  0  0  0  0  0  0  0  0  0  0  0
   34.9820   20.3510   32.2880 C   0  0  0  0  0  0  0  0  0  0  0  0
   34.1930   19.8470   32.7960 H   0  0  0  0  0  0  0  0  0  0  0  0
   35.0770   21.7160   32.2970 C   0  0  0  0  0  3  0  0  0  0  0  0
  1 20  1  0  0  0  0
  1  6  1  0  0  0  0
  2  3  1  0  0  0  0
  2  1  2  0  0  0  0
  3  4  2  0  0  0  0
  4  5  1  0  0  0  0
  5  6  2  0  0  0  0
  5 11  1  0  0  0  0
  7  2  1  0  0  0  0
  8  3  1  0  0  0  0
 10 15  1  0  0  0  0
 10  9  1  0  0  0  0
 11 10  2  0  0  0  0
 12 13  2  0  0  0  0
 12 11  1  0  0  0  0
 13 14  1  0  0  0  0
 14 18  1  0  0  0  0
 14 15  2  0  0  0  0
 15 19  1  0  0  0  0
 16 12  1  0  0  0  0
 17 13  1  0  0  0  0
 20 28  1  0  0  0  0
 21 20  2  0  0  0  0
 22 21  1  0  0  0  0
 23 21  1  0  0  0  0
 23 24  2  0  0  0  0
 24 26  1  0  0  0  0
 25 24  1  0  0  0  0
 26 28  2  0  0  0  0
 26 27  1  0  0  0  0
M  END
>  <minimizedAffinity>
-5.38563395

$$$$

 OpenBabel03272502203D

 28 30  0  0  0  0  0  0  0  0999 V2000
   35.6560   29.1040   34.0090 C   0  0  0  0  0  0  0  0  0  0  0  0
   35.1790   28.9840   32.6880 C   0  0  0  0  0  0  0  0  0  0  0  0
   35.6640   27.9080   31.9260 C   0  0  0  0  0  0  0  0  0  0  0  0
   36.5580   27.0500   32.4940 N   0  0  0  0  0  0  0  0  0  0  0  0
   36.9820   27.2110   33.7660 C   0  0  0  0  0  0  0  0  0  0  0  0
   36.5360   28.2370   34.5320 N   0  0  0  0  0  0  0  0  0  0  0  0
   34.4710   29.6870   32.2780 H   0  0  0  0  0  0  0  0  0  0  0  0
   35.2960   27.8270   30.9260 H   0  0  0  0  0  0  0  0  0  0  0  0
   39.7500   27.1050   32.3020 Br  0  0  0  0  0  0  0  0  0  0  0  0
   39.2080   26.1270   33.8500 C   0  0  0  0  0  0  0  0  0  0  0  0
   37.9390   26.2910   34.3730 C   0  0  0  0  0  0  0  0  0  0  0  0
   37.6280   25.5400   35.4970 C   0  0  0  0  0  0  0  0  0  0  0  0
   38.4950   24.6600   36.1070 C   0  0  0  0  0  0  0  0  0  0  0  0
   39.7590   24.5360   35.5390 C   0  0  0  0  0  0  0  0  0  0  0  0
   40.1090   25.2760   34.4060 C   0  0  0  0  0  0  0  0  0  0  0  0
   36.6250   25.6940   35.8780 H   0  0  0  0  0  0  0  0  0  0  0  0
   38.1820   24.1070   36.9820 H   0  0  0  0  0  0  0  0  0  0  0  0
   40.4510   23.8530   36.0030 H   0  0  0  0  0  0  0  0  0  0  0  0
   41.1130   25.1120   34.0370 H   0  0  0  0  0  0  0  0  0  0  0  0
   35.2100   30.1880   34.8740 C   0  0  0  0  0  0  0  0  0  0  0  0
   33.8550   30.3560   35.0740 C   0  0  0  0  0  0  0  0  0  0  0  0
   33.1010   29.7250   34.6240 H   0  0  0  0  0  0  0  0  0  0  0  0
   33.3410   31.3710   35.8890 C   0  0  0  0  0  3  0  0  0  0  0  0
   34.1960   32.2480   36.5250 C   0  0  0  0  0  0  0  0  0  0  0  0
   33.7460   33.0150   37.1450 H   0  0  0  0  0  0  0  0  0  0  0  0
   35.5430   32.0880   36.3330 C   0  0  0  0  0  0  0  0  0  0  0  0
   36.2010   32.7660   36.8240 H   0  0  0  0  0  0  0  0  0  0  0  0
   36.0200   31.0880   35.5300 C   0  0  0  0  0  3  0  0  0  0  0  0
  1  6  1  0  0  0  0
  1 20  1  0  0  0  0
  2  1  2  0  0  0  0
  3  4  2  0  0  0  0
  3  2  1  0  0  0  0
  4  5  1  0  0  0  0
  5 11  1  0  0  0  0
  5  6  2  0  0  0  0
  7  2  1  0  0  0  0
  8  3  1  0  0  0  0
  9 10  1  0  0  0  0
 10 11  2  0  0  0  0
 10 15  1  0  0  0  0
 11 12  1  0  0  0  0
 12 16  1  0  0  0  0
 12 13  2  0  0  0  0
 13 17  1  0  0  0  0
 14 18  1  0  0  0  0
 14 13  1  0  0  0  0
 15 14  2  0  0  0  0
 19 15  1  0  0  0  0
 20 21  2  0  0  0  0
 20 28  1  0  0  0  0
 21 23  1  0  0  0  0
 22 21  1  0  0  0  0
 23 24  2  0  0  0  0
 24 25  1  0  0  0  0
 26 24  1  0  0  0  0
 26 27  1  0  0  0  0
 28 26  2  0  0  0  0
M  END
>  <minimizedAffinity>
-5.28390217

$$$$

 OpenBabel03272502203D

 28 30  0  0  0  0  0  0  0  0999 V2000
   37.0270   26.3090   33.1630 C   0  0  0  0  0  0  0  0  0  0  0  0
   36.9220   25.5320   31.9920 C   0  0  0  0  0  0  0  0  0  0  0  0
   37.3650   24.2010   32.0640 C   0  0  0  0  0  0  0  0  0  0  0  0
   37.8660   23.7380   33.2430 N   0  0  0  0  0  0  0  0  0  0  0  0
   37.9430   24.5260   34.3370 C   0  0  0  0  0  0  0  0  0  0  0  0
   37.5260   25.8150   34.3070 N   0  0  0  0  0  0  0  0  0  0  0  0
   36.5180   25.9400   31.0790 H   0  0  0  0  0  0  0  0  0  0  0  0
   37.2810   23.6210   31.1700 H   0  0  0  0  0  0  0  0  0  0  0  0
   40.9740   23.7430   34.2110 Br  0  0  0  0  0  0  0  0  0  0  0  0
   39.8030   23.6400   35.7150 C   0  0  0  0  0  0  0  0  0  0  0  0
   38.4800   24.0270   35.6000 C   0  0  0  0  0  0  0  0  0  0  0  0
   37.6990   23.9180   36.7400 C   0  0  0  0  0  0  0  0  0  0  0  0
   38.1580   23.4560   37.9550 C   0  0  0  0  0  0  0  0  0  0  0  0
   39.4970   23.0810   38.0140 C   0  0  0  0  0  0  0  0  0  0  0  0
   40.3150   23.1770   36.8850 C   0  0  0  0  0  0  0  0  0  0  0  0
   36.6690   24.2300   36.6120 H   0  0  0  0  0  0  0  0  0  0  0  0
   37.4890   23.3980   38.8020 H   0  0  0  0  0  0  0  0  0  0  0  0
   39.8740   22.7170   38.9540 H   0  0  0  0  0  0  0  0  0  0  0  0
   41.3400   22.8620   37.0270 H   0  0  0  0  0  0  0  0  0  0  0  0
   36.5930   27.7000   33.1840 C   0  0  0  0  0  0  0  0  0  0  0  0
   36.2870   28.2760   34.4000 C   0  0  0  0  0  0  0  0  0  0  0  0
   36.3520   27.7520   35.3430 H   0  0  0  0  0  0  0  0  0  0  0  0
   35.8630   29.6060   34.5100 C   0  0  0  0  0  3  0  0  0  0  0  0
   35.7360   30.3880   33.3810 C   0  0  0  0  0  0  0  0  0  0  0  0
   35.4050   31.4100   33.5220 H   0  0  0  0  0  0  0  0  0  0  0  0
   36.0380   29.8240   32.1690 C   0  0  0  0  0  0  0  0  0  0  0  0
   35.9400   30.4300   31.2980 H   0  0  0  0  0  0  0  0  0  0  0  0
   36.4500   28.5220   32.0880 C   0  0  0  0  0  3  0  0  0  0  0  0
  1 20  1  0  0  0  0
  1  6  1  0  0  0  0
  2  3  1  0  0  0  0
  2  1  2  0  0  0  0
  3  4  2  0  0  0  0
  4  5  1  0  0  0  0
  5 11  1  0  0  0  0
  6  5  2  0  0  0  0
  7  2  1  0  0  0  0
  8  3  1  0  0  0  0
  9 10  1  0  0  0  0
 10 15  1  0  0  0  0
 11 10  2  0  0  0  0
 11 12  1  0  0  0  0
 12 13  2  0  0  0  0
 13 14  1  0  0  0  0
 13 17  1  0  0  0  0
 14 18  1  0  0  0  0
 15 19  1  0  0  0  0
 15 14  2  0  0  0  0
 16 12  1  0  0  0  0
 20 21  1  0  0  0  0
 21 23  2  0  0  0  0
 21 22  1  0  0  0  0
 24 25  1  0  0  0  0
 24 23  1  0  0  0  0
 26 24  2  0  0  0  0
 27 26  1  0  0  0  0
 28 26  1  0  0  0  0
 28 20  2  0  0  0  0
M  END
>  <minimizedAffinity>
-5.22622395

$$$$

 OpenBabel03272502203D

 28 30  0  0  0  0  0  0  0  0999 V2000
   37.1790   23.3570   31.1800 C   0  0  0  0  0  0  0  0  0  0  0  0
   38.2610   23.4620   30.2830 C   0  0  0  0  0  0  0  0  0  0  0  0
   38.8640   24.7240   30.1510 C   0  0  0  0  0  0  0  0  0  0  0  0
   38.3780   25.7650   30.8840 N   0  0  0  0  0  0  0  0  0  0  0  0
   37.3380   25.6090   31.7310 C   0  0  0  0  0  0  0  0  0  0  0  0
   36.7300   24.4060   31.8850 N   0  0  0  0  0  0  0  0  0  0  0  0
   38.6140   22.6110   29.7220 H   0  0  0  0  0  0  0  0  0  0  0  0
   39.6840   24.7930   29.4680 H   0  0  0  0  0  0  0  0  0  0  0  0
   38.4230   25.7120   34.6680 Br  0  0  0  0  0  0  0  0  0  0  0  0
   37.2000   26.9160   33.8310 C   0  0  0  0  0  0  0  0  0  0  0  0
   36.8190   26.7240   32.5160 C   0  0  0  0  0  0  0  0  0  0  0  0
   35.9260   27.6440   31.9870 C   0  0  0  0  0  0  0  0  0  0  0  0
   35.4080   28.7140   32.6850 C   0  0  0  0  0  0  0  0  0  0  0  0
   35.8270   28.8580   34.0050 C   0  0  0  0  0  0  0  0  0  0  0  0
   36.7260   27.9520   34.5720 C   0  0  0  0  0  0  0  0  0  0  0  0
   35.6500   27.4620   30.9560 H   0  0  0  0  0  0  0  0  0  0  0  0
   34.7150   29.3910   32.2070 H   0  0  0  0  0  0  0  0  0  0  0  0
   35.4340   29.6890   34.5660 H   0  0  0  0  0  0  0  0  0  0  0  0
   36.9930   28.1450   35.6020 H   0  0  0  0  0  0  0  0  0  0  0  0
   36.4910   22.0880   31.3820 C   0  0  0  0  0  0  0  0  0  0  0  0
   37.0070   20.9560   30.7870 C   0  0  0  0  0  0  0  0  0  0  0  0
   37.8990   20.9560   30.1750 H   0  0  0  0  0  0  0  0  0  0  0  0
   36.4090   19.6990   30.9300 C   0  0  0  0  0  3  0  0  0  0  0  0
   35.2630   19.5590   31.6850 C   0  0  0  0  0  0  0  0  0  0  0  0
   34.8410   18.5640   31.7630 H   0  0  0  0  0  0  0  0  0  0  0  0
   34.7430   20.6780   32.2810 C   0  0  0  0  0  0  0  0  0  0  0  0
   33.8580   20.5680   32.8630 H   0  0  0  0  0  0  0  0  0  0  0  0
   35.3470   21.8960   32.1250 C   0  0  0  0  0  3  0  0  0  0  0  0
  1 20  1  0  0  0  0
  1  6  1  0  0  0  0
  2  1  2  0  0  0  0
  3  2  1  0  0  0  0
  3  4  2  0  0  0  0
  4  5  1  0  0  0  0
  5  6  2  0  0  0  0
  5 11  1  0  0  0  0
  7  2  1  0  0  0  0
  8  3  1  0  0  0  0
 10 15  1  0  0  0  0
 10  9  1  0  0  0  0
 11 10  2  0  0  0  0
 12 11  1  0  0  0  0
 12 13  2  0  0  0  0
 13 14  1  0  0  0  0
 14 18  1  0  0  0  0
 14 15  2  0  0  0  0
 15 19  1  0  0  0  0
 16 12  1  0  0  0  0
 17 13  1  0  0  0  0
 20 28  1  0  0  0  0
 21 23  1  0  0  0  0
 21 20  2  0  0  0  0
 22 21  1  0  0  0  0
 23 24  2  0  0  0  0
 24 25  1  0  0  0  0
 24 26  1  0  0  0  0
 26 27  1  0  0  0  0
 28 26  2  0  0  0  0
M  END
>  <minimizedAffinity>
-5.19740486

$$$$

 OpenBabel03272502203D

 28 30  0  0  0  0  0  0  0  0999 V2000
   38.1870   24.2060   34.6670 C   0  0  0  0  0  0  0  0  0  0  0  0
   38.2980   25.5020   34.1250 C   0  0  0  0  0  0  0  0  0  0  0  0
   38.0310   25.6490   32.7520 C   0  0  0  0  0  0  0  0  0  0  0  0
   37.6850   24.5470   32.0290 N   0  0  0  0  0  0  0  0  0  0  0  0
   37.5920   23.3270   32.6000 C   0  0  0  0  0  0  0  0  0  0  0  0
   37.8420   23.1460   33.9200 N   0  0  0  0  0  0  0  0  0  0  0  0
   38.5750   26.3480   34.7340 H   0  0  0  0  0  0  0  0  0  0  0  0
   38.1190   26.6360   32.3520 H   0  0  0  0  0  0  0  0  0  0  0  0
   39.9800   22.0190   31.0500 Br  0  0  0  0  0  0  0  0  0  0  0  0
   38.1580   21.4510   31.0830 C   0  0  0  0  0  0  0  0  0  0  0  0
   37.2210   22.1480   31.8230 C   0  0  0  0  0  0  0  0  0  0  0  0
   35.9200   21.6690   31.7890 C   0  0  0  0  0  0  0  0  0  0  0  0
   35.5200   20.5610   31.0730 C   0  0  0  0  0  0  0  0  0  0  0  0
   36.5040   19.8980   30.3470 C   0  0  0  0  0  0  0  0  0  0  0  0
   37.8260   20.3520   30.3570 C   0  0  0  0  0  0  0  0  0  0  0  0
   35.2140   22.2390   32.3800 H   0  0  0  0  0  0  0  0  0  0  0  0
   34.4860   20.2450   31.0940 H   0  0  0  0  0  0  0  0  0  0  0  0
   36.2100   19.0300   29.7820 H   0  0  0  0  0  0  0  0  0  0  0  0
   38.5200   19.7730   29.7630 H   0  0  0  0  0  0  0  0  0  0  0  0
   38.4450   23.9570   36.0790 C   0  0  0  0  0  0  0  0  0  0  0  0
   39.4900   23.1250   36.4210 C   0  0  0  0  0  0  0  0  0  0  0  0
   40.1330   22.6440   35.6970 H   0  0  0  0  0  0  0  0  0  0  0  0
   39.8060   22.8320   37.7530 C   0  0  0  0  0  3  0  0  0  0  0  0
   39.0640   23.3810   38.7780 C   0  0  0  0  0  0  0  0  0  0  0  0
   39.3510   23.1220   39.7900 H   0  0  0  0  0  0  0  0  0  0  0  0
   38.0240   24.2100   38.4480 C   0  0  0  0  0  0  0  0  0  0  0  0
   37.4510   24.6320   39.2400 H   0  0  0  0  0  0  0  0  0  0  0  0
   37.7350   24.4790   37.1380 C   0  0  0  0  0  3  0  0  0  0  0  0
  1 20  1  0  0  0  0
  2  1  1  0  0  0  0
  2  7  1  0  0  0  0
  3  2  2  0  0  0  0
  4  5  2  0  0  0  0
  4  3  1  0  0  0  0
  5  6  1  0  0  0  0
  6  1  2  0  0  0  0
  8  3  1  0  0  0  0
  9 10  1  0  0  0  0
 10 11  1  0  0  0  0
 11  5  1  0  0  0  0
 12 11  2  0  0  0  0
 12 16  1  0  0  0  0
 13 17  1  0  0  0  0
 13 12  1  0  0  0  0
 14 15  1  0  0  0  0
 14 13  2  0  0  0  0
 15 10  2  0  0  0  0
 18 14  1  0  0  0  0
 19 15  1  0  0  0  0
 20 21  2  0  0  0  0
 20 28  1  0  0  0  0
 21 23  1  0  0  0  0
 22 21  1  0  0  0  0
 23 24  2  0  0  0  0
 24 25  1  0  0  0  0
 26 24  1  0  0  0  0
 26 27  1  0  0  0  0
 28 26  2  0  0  0  0
M  END
>  <minimizedAffinity>
-5.16318989

$$$$
