
 OpenBabel03272500193D

 34 36  0  0  0  0  0  0  0  0999 V2000
   35.3680   29.2210   50.5470 C   0  0  0  0  0  0  0  0  0  0  0  0
   36.3670   30.0210   49.9490 C   0  0  0  0  0  0  0  0  0  0  0  0
   36.3980   30.1220   48.5680 C   0  0  0  0  0  0  0  0  0  0  0  0
   35.4470   29.4360   47.8590 N   0  0  0  0  0  0  0  0  0  0  0  0
   34.5140   28.6880   48.4370 C   0  0  0  0  0  0  0  0  0  0  0  0
   34.4720   28.5790   49.7660 N   0  0  0  0  0  0  0  0  0  0  0  0
   35.3610   29.1530   51.6200 H   0  0  0  0  0  0  0  0  0  0  0  0
   32.8660   30.4340   46.5880 Cl  0  0  0  0  0  0  0  0  0  0  0  0
   32.7220   28.6790   46.7180 C   0  0  0  0  0  0  0  0  0  0  0  0
   33.5340   27.9800   47.6060 C   0  0  0  0  0  0  0  0  0  0  0  0
   33.4570   26.5900   47.7440 C   0  0  0  0  0  0  0  0  0  0  0  0
   32.5230   25.9410   46.9430 C   0  0  0  0  0  0  0  0  0  0  0  0
   31.7140   26.6050   46.0620 C   0  0  0  0  0  0  0  0  0  0  0  0
   30.5810   25.6790   45.1110 Cl  0  0  0  0  0  0  0  0  0  0  0  0
   31.8220   27.9850   45.9560 C   0  0  0  0  0  0  0  0  0  0  0  0
   34.0820   26.0570   48.4290 H   0  0  0  0  0  0  0  0  0  0  0  0
   32.4890   24.8670   47.0750 H   0  0  0  0  0  0  0  0  0  0  0  0
   30.9510   28.7090   45.0060 C   0  0  0  0  0  0  0  0  0  0  0  0
   29.9920   27.8580   44.4680 F   0  0  0  0  0  0  0  0  0  0  0  0
   31.6650   29.3040   43.9970 F   0  0  0  0  0  0  0  0  0  0  0  0
   30.2590   29.7080   45.6790 F   0  0  0  0  0  0  0  0  0  0  0  0
   37.2810   30.9010   47.7380 C   0  0  0  0  0  0  0  0  0  0  0  0
   38.3120   31.7710   47.9240 C   0  0  0  0  0  0  0  0  0  0  0  0
   38.6240   31.8880   48.9260 H   0  0  0  0  0  0  0  0  0  0  0  0
   38.9560   32.4340   46.9130 C   0  0  0  0  0  0  0  0  0  0  0  0
   38.5970   32.2620   45.5940 C   0  0  0  0  0  0  0  0  0  0  0  0
   39.1800   32.8390   44.8930 H   0  0  0  0  0  0  0  0  0  0  0  0
   37.5610   31.3910   45.3360 C   0  0  0  0  0  0  0  0  0  0  0  0
   37.3120   31.2830   44.2950 H   0  0  0  0  0  0  0  0  0  0  0  0
   36.9400   30.7470   46.3820 C   0  0  0  0  0  0  0  0  0  0  0  0
   37.3370   30.7430   50.8150 C   0  0  0  0  0  0  0  0  0  0  0  0
   38.6410   30.5160   50.4120 F   0  0  0  0  0  0  0  0  0  0  0  0
   37.0720   32.1010   50.7530 F   0  0  0  0  0  0  0  0  0  0  0  0
   37.2290   30.3670   52.1430 F   0  0  0  0  0  0  0  0  0  0  0  0
  1  7  1  0  0  0  0
  2  1  1  0  0  0  0
  2 31  1  0  0  0  0
  3  2  2  0  0  0  0
  4  5  2  0  0  0  0
  4  3  1  0  0  0  0
  5  6  1  0  0  0  0
  6  1  2  0  0  0  0
  8  9  1  0  0  0  0
  9 10  1  0  0  0  0
 10 11  2  0  0  0  0
 10  5  1  0  0  0  0
 11 16  1  0  0  0  0
 12 17  1  0  0  0  0
 12 11  1  0  0  0  0
 13 12  2  0  0  0  0
 14 13  1  0  0  0  0
 15 13  1  0  0  0  0
 15  9  2  0  0  0  0
 18 21  1  0  0  0  0
 18 15  1  0  0  0  0
 19 18  1  0  0  0  0
 20 18  1  0  0  0  0
 22 23  1  0  0  0  0
 22  3  1  0  0  0  0
 23 24  1  0  0  0  0
 25 23  2  0  0  0  0
 26 25  1  0  0  0  0
 27 26  1  0  0  0  0
 28 26  2  0  0  0  0
 28 30  1  0  0  0  0
 29 28  1  0  0  0  0
 30 22  2  0  0  0  0
 31 34  1  0  0  0  0
 32 31  1  0  0  0  0
 33 31  1  0  0  0  0
M  END
>  <minimizedAffinity>
-6.79426622

>  <minimizedRMSD>
0.279014468

$$$$
