
 OpenBabel03272507143D

 40 44  0  0  0  0  0  0  0  0999 V2000
   35.6680   29.0960   49.8460 C   0  0  0  0  0  0  0  0  0  0  0  0
   34.5940   29.5920   50.5030 C   0  0  0  0  0  0  0  0  0  0  0  0
   33.4560   28.9800   49.9650 C   0  0  0  0  0  0  0  0  0  0  0  0
   33.9390   28.1150   48.9720 C   0  0  0  0  0  0  0  0  0  0  0  0
   35.2290   28.2420   48.9660 O   0  0  0  0  0  0  0  0  0  0  0  0
   34.5770   30.3330   51.3090 H   0  0  0  0  0  0  0  0  0  0  0  0
   32.4540   29.2100   50.3260 H   0  0  0  0  0  0  0  0  0  0  0  0
   33.5210   26.2930   47.3320 C   0  0  0  0  0  0  0  0  0  0  0  0
   33.0450   27.2890   48.1740 C   0  0  0  0  0  0  0  0  0  0  0  0
   31.6880   27.5420   48.2920 C   0  0  0  0  0  0  0  0  0  0  0  0
   30.8180   26.7650   47.5400 C   0  0  0  0  0  0  0  0  0  0  0  0
   29.4830   26.7880   47.4570 N   0  0  0  0  0  0  0  0  0  0  0  0
   29.1220   25.8370   46.5900 N   0  0  0  0  0  0  0  0  0  0  0  0
   30.2230   25.2200   46.1310 C   0  0  0  0  0  0  0  0  0  0  0  0
   31.3410   25.7840   46.7160 C   0  0  0  0  0  0  0  0  0  0  0  0
   32.6870   25.5230   46.5900 C   0  0  0  0  0  0  0  0  0  0  0  0
   34.5940   26.1790   47.3160 H   0  0  0  0  0  0  0  0  0  0  0  0
   31.2480   28.3030   48.9300 H   0  0  0  0  0  0  0  0  0  0  0  0
   28.8070   27.4160   47.9580 H   0  0  0  0  0  0  0  0  0  0  0  0
   30.2770   24.4040   45.4160 H   0  0  0  0  0  0  0  0  0  0  0  0
   33.0720   24.7500   45.9360 H   0  0  0  0  0  0  0  0  0  0  0  0
   37.0220   29.5140   50.1480 C   0  0  0  0  0  0  0  0  0  0  0  0
   37.6780   28.8720   51.0100 O   0  0  0  0  0  0  0  0  0  0  0  0
   37.5510   30.6520   49.4380 C   0  0  0  0  0  0  0  0  0  0  0  0
   37.4490   31.8950   50.0500 C   0  0  0  0  0  0  0  0  0  0  0  0
   37.9530   33.0060   49.3880 C   0  0  0  0  0  0  0  0  0  0  0  0
   38.5220   32.8030   48.1620 N   0  0  0  0  0  0  0  0  0  0  0  0
   38.6100   31.6060   47.5940 C   0  0  0  0  0  0  0  0  0  0  0  0
   38.1250   30.5300   48.2320 N   0  0  0  0  0  0  0  0  0  0  0  0
   36.9870   31.9980   51.0240 H   0  0  0  0  0  0  0  0  0  0  0  0
   37.8730   33.9640   49.8590 H   0  0  0  0  0  0  0  0  0  0  0  0
   39.2400   31.5070   46.2800 C   0  0  0  0  0  0  0  0  0  0  0  0
   40.1060   32.4560   45.7770 C   0  0  0  0  0  0  0  0  0  0  0  0
   40.3140   33.3040   46.4010 H   0  0  0  0  0  0  0  0  0  0  0  0
   40.6260   32.2340   44.5220 C   0  0  0  0  0  0  0  0  0  0  0  0
   40.3440   31.1470   43.7500 C   0  0  0  0  0  0  0  0  0  0  0  0
   40.7530   30.9750   42.7650 H   0  0  0  0  0  0  0  0  0  0  0  0
   39.4790   30.1810   44.2320 C   0  0  0  0  0  0  0  0  0  0  0  0
   39.2110   29.2940   43.6730 H   0  0  0  0  0  0  0  0  0  0  0  0
   38.9440   30.3960   45.5060 C   0  0  0  0  0  0  0  0  0  0  0  0
  1 22  1  0  0  0  0
  1  2  2  0  0  0  0
  2  6  1  0  0  0  0
  3  7  1  0  0  0  0
  3  2  1  0  0  0  0
  4  3  2  0  0  0  0
  5  4  1  0  0  0  0
  5  1  1  0  0  0  0
  8  9  1  0  0  0  0
  9 10  2  0  0  0  0
  9  4  1  0  0  0  0
 10 18  1  0  0  0  0
 11 10  1  0  0  0  0
 12 11  1  0  0  0  0
 12 19  1  0  0  0  0
 13 12  1  0  0  0  0
 14 13  2  0  0  0  0
 14 15  1  0  0  0  0
 15 11  2  0  0  0  0
 16 15  1  0  0  0  0
 16  8  2  0  0  0  0
 17  8  1  0  0  0  0
 20 14  1  0  0  0  0
 21 16  1  0  0  0  0
 22 23  2  0  0  0  0
 24 25  1  0  0  0  0
 24 22  1  0  0  0  0
 25 30  1  0  0  0  0
 26 31  1  0  0  0  0
 26 25  2  0  0  0  0
 27 26  1  0  0  0  0
 28 27  2  0  0  0  0
 28 29  1  0  0  0  0
 29 24  2  0  0  0  0
 32 28  1  0  0  0  0
 33 32  1  0  0  0  0
 33 34  1  0  0  0  0
 35 33  2  0  0  0  0
 36 38  2  0  0  0  0
 36 35  1  0  0  0  0
 37 36  1  0  0  0  0
 38 40  1  0  0  0  0
 39 38  1  0  0  0  0
 40 32  2  0  0  0  0
M  END
>  <minimizedAffinity>
-7.45394993

>  <minimizedRMSD>
0.704566598

$$$$
