
 OpenBabel03272510023D

 21 22  0  0  0  0  0  0  0  0999 V2000
   37.6840   33.1170   49.8060 C   0  0  0  0  0  0  0  0  0  0  0  0
   38.4800   33.0670   48.6540 C   0  0  0  0  0  0  0  0  0  0  0  0
   38.3290   31.9820   47.8040 C   0  0  0  0  0  0  0  0  0  0  0  0
   37.4190   31.0310   48.1410 N   0  0  0  0  0  0  0  0  0  0  0  0
   36.6640   31.1080   49.2650 C   0  0  0  0  0  0  0  0  0  0  0  0
   36.7950   32.1440   50.0920 N   0  0  0  0  0  0  0  0  0  0  0  0
   37.8030   33.9770   50.4830 H   0  0  0  0  0  0  0  0  0  0  0  0
   39.1880   33.8180   48.4050 H   0  0  0  0  0  0  0  0  0  0  0  0
   39.0840   31.7910   46.5730 C   0  0  0  0  0  0  0  0  0  0  0  0
   38.9040   30.6110   45.8900 C   0  0  0  0  0  0  0  0  0  0  0  0
   38.2340   29.8180   46.2180 H   0  0  0  0  0  0  0  0  0  0  0  0
   39.6080   30.3890   44.7060 C   0  0  0  0  0  0  0  0  0  0  0  0
   40.4820   31.3350   44.2080 C   0  0  0  0  0  0  0  0  0  0  0  0
   41.0610   31.2380   43.3000 H   0  0  0  0  0  0  0  0  0  0  0  0
   40.6640   32.5190   44.8910 C   0  0  0  0  0  0  0  0  0  0  0  0
   41.3230   33.2810   44.5540 H   0  0  0  0  0  0  0  0  0  0  0  0
   39.9560   32.7390   46.0790 C   0  0  0  0  0  0  0  0  0  0  0  0
   35.7120   30.0060   49.5100 C   0  0  0  0  0  0  0  0  0  0  0  0
   35.7720   29.5410   50.8190 F   0  0  0  0  0  0  0  0  0  0  0  0
   34.4040   30.4020   49.2940 F   0  0  0  0  0  0  0  0  0  0  0  0
   35.9060   28.9100   48.7050 F   0  0  0  0  0  0  0  0  0  0  0  0
  1  6  1  0  0  0  0
  1  7  1  0  0  0  0
  2  1  2  0  0  0  0
  3  4  2  0  0  0  0
  3  2  1  0  0  0  0
  4  5  1  0  0  0  0
  5 18  1  0  0  0  0
  5  6  2  0  0  0  0
  8  2  1  0  0  0  0
  9  3  1  0  0  0  0
 10 11  1  0  0  0  0
 10  9  2  0  0  0  0
 12 10  1  0  0  0  0
 13 12  2  0  0  0  0
 13 15  1  0  0  0  0
 14 13  1  0  0  0  0
 15 17  2  0  0  0  0
 16 15  1  0  0  0  0
 17  9  1  0  0  0  0
 18 19  1  0  0  0  0
 20 18  1  0  0  0  0
 21 18  1  0  0  0  0
M  END
>  <minimizedAffinity>
-5.8690896

>  <minimizedRMSD>
2.22777414

$$$$
