
 OpenBabel03262523443D

 28 30  0  0  0  0  0  0  0  0999 V2000
   38.0810   33.3430   49.6120 Cl  0  0  0  0  0  0  0  0  0  0  0  0
   38.4990   32.4980   48.1420 C   0  0  0  0  0  0  0  0  0  0  0  0
   38.0620   31.2050   47.9310 C   0  0  0  0  0  0  0  0  0  0  0  0
   38.4300   30.5930   46.7430 C   0  0  0  0  0  0  0  0  0  0  0  0
   39.2050   31.2450   45.8000 C   0  0  0  0  0  0  0  0  0  0  0  0
   39.6200   32.5450   46.0610 C   0  0  0  0  0  0  0  0  0  0  0  0
   40.5970   33.3110   44.8280 Cl  0  0  0  0  0  0  0  0  0  0  0  0
   39.2770   33.1840   47.2230 C   0  0  0  0  0  0  0  0  0  0  0  0
   38.0670   29.5880   46.6230 H   0  0  0  0  0  0  0  0  0  0  0  0
   39.6280   34.2010   47.3770 H   0  0  0  0  0  0  0  0  0  0  0  0
   37.0490   29.3650   51.0750 C   0  0  0  0  0  0  0  0  0  0  0  0
   37.8200   29.9630   50.0720 C   0  0  0  0  0  0  0  0  0  0  0  0
   37.2540   30.5890   48.9630 C   0  0  0  0  0  0  0  0  0  0  0  0
   35.8990   30.5780   48.9220 N   0  0  0  0  0  0  0  0  0  0  0  0
   35.1580   30.0040   49.8860 C   0  0  0  0  0  0  0  0  0  0  0  0
   35.7160   29.4100   50.9390 N   0  0  0  0  0  0  0  0  0  0  0  0
   37.6560   28.9210   51.8730 H   0  0  0  0  0  0  0  0  0  0  0  0
   38.9020   29.9740   50.1010 H   0  0  0  0  0  0  0  0  0  0  0  0
   34.0810   29.9750   49.8890 H   0  0  0  0  0  0  0  0  0  0  0  0
   39.5080   30.4670   44.6020 C   0  0  0  0  0  0  0  0  0  0  0  0
   38.7260   29.3850   44.2520 C   0  0  0  0  0  0  0  0  0  0  0  0
   37.8740   29.0680   44.8330 H   0  0  0  0  0  0  0  0  0  0  0  0
   38.9840   28.6240   43.1230 C   0  0  0  0  0  0  0  0  0  0  0  0
   40.0510   28.9370   42.3050 C   0  0  0  0  0  0  0  0  0  0  0  0
   40.2520   28.3490   41.4310 H   0  0  0  0  0  0  0  0  0  0  0  0
   40.8460   30.0330   42.6560 C   0  0  0  0  0  0  0  0  0  0  0  0
   41.6780   30.2470   41.9850 H   0  0  0  0  0  0  0  0  0  0  0  0
   40.5920   30.8050   43.7940 C   0  0  0  0  0  0  0  0  0  0  0  0
  2  1  1  0  0  0  0
  3  2  1  0  0  0  0
  3 13  1  0  0  0  0
  4  3  2  0  0  0  0
  5  6  2  0  0  0  0
  5  4  1  0  0  0  0
  6  8  1  0  0  0  0
  7  6  1  0  0  0  0
  8 10  1  0  0  0  0
  8  2  2  0  0  0  0
  9  4  1  0  0  0  0
 11 17  1  0  0  0  0
 12 18  1  0  0  0  0
 12 11  2  0  0  0  0
 13 12  1  0  0  0  0
 14 13  2  0  0  0  0
 14 15  1  0  0  0  0
 15 19  1  0  0  0  0
 15 16  2  0  0  0  0
 16 11  1  0  0  0  0
 20  5  1  0  0  0  0
 21 20  1  0  0  0  0
 21 22  1  0  0  0  0
 23 21  2  0  0  0  0
 24 26  2  0  0  0  0
 24 23  1  0  0  0  0
 25 24  1  0  0  0  0
 26 28  1  0  0  0  0
 27 26  1  0  0  0  0
 28 20  2  0  0  0  0
M  END
>  <minimizedAffinity>
-6.69847202

>  <minimizedRMSD>
0.424790978

$$$$
