
 OpenBabel03272510203D

 36 39  0  0  0  0  0  0  0  0999 V2000
   37.4060   29.1690   50.8060 Br  0  0  0  0  0  0  0  0  0  0  0  0
   35.9940   29.2730   49.5290 C   0  0  0  0  0  0  0  0  0  0  0  0
   35.9900   30.2780   48.5670 C   0  0  0  0  0  0  0  0  0  0  0  0
   34.9340   30.2910   47.6740 C   0  0  0  0  0  0  0  0  0  0  0  0
   33.9050   29.3670   47.7000 C   0  0  0  0  0  0  0  0  0  0  0  0
   33.9420   28.4000   48.6550 C   0  0  0  0  0  0  0  0  0  0  0  0
   34.9860   28.3670   49.5570 C   0  0  0  0  0  0  0  0  0  0  0  0
   34.8770   31.0490   46.9030 H   0  0  0  0  0  0  0  0  0  0  0  0
   33.1870   27.6310   48.7630 H   0  0  0  0  0  0  0  0  0  0  0  0
   35.0200   27.5890   50.3280 H   0  0  0  0  0  0  0  0  0  0  0  0
   38.0120   33.1790   49.4600 C   0  0  0  0  0  0  0  0  0  0  0  0
   39.0340   33.1840   48.4690 C   0  0  0  0  0  0  0  0  0  0  0  0
   39.0060   32.1840   47.5090 C   0  0  0  0  0  0  0  0  0  0  0  0
   38.0130   31.2460   47.5520 N   0  0  0  0  0  0  0  0  0  0  0  0
   37.0560   31.2690   48.5060 C   0  0  0  0  0  0  0  0  0  0  0  0
   37.0670   32.2420   49.4550 N   0  0  0  0  0  0  0  0  0  0  0  0
   38.0740   33.9820   50.1910 H   0  0  0  0  0  0  0  0  0  0  0  0
   39.8330   33.9100   48.4060 H   0  0  0  0  0  0  0  0  0  0  0  0
   39.7140   32.0750   46.7120 H   0  0  0  0  0  0  0  0  0  0  0  0
   32.8030   29.3990   46.7530 C   0  0  0  0  0  0  0  0  0  0  0  0
   31.9750   28.3280   46.4810 C   0  0  0  0  0  0  0  0  0  0  0  0
   30.9340   28.3930   45.5710 C   0  0  0  0  0  0  0  0  0  0  0  0
   30.7150   29.5500   44.9200 N   0  0  0  0  0  0  0  0  0  0  0  0
   31.5080   30.5970   45.1730 C   0  0  0  0  0  0  0  0  0  0  0  0
   32.4990   30.5040   46.0520 N   0  0  0  0  0  0  0  0  0  0  0  0
   32.1560   27.3900   47.0110 H   0  0  0  0  0  0  0  0  0  0  0  0
   30.3210   27.5070   45.4070 H   0  0  0  0  0  0  0  0  0  0  0  0
   31.2730   31.8540   44.4680 C   0  0  0  0  0  0  0  0  0  0  0  0
   30.5420   31.8650   43.2860 C   0  0  0  0  0  0  0  0  0  0  0  0
   30.1770   30.9040   42.9480 H   0  0  0  0  0  0  0  0  0  0  0  0
   30.3350   33.0650   42.6400 C   0  0  0  0  0  3  0  0  0  0  0  0
   30.8120   34.2700   43.0960 C   0  0  0  0  0  0  0  0  0  0  0  0
   30.5670   35.1170   42.4800 H   0  0  0  0  0  0  0  0  0  0  0  0
   31.5390   34.2560   44.2700 C   0  0  0  0  0  0  0  0  0  0  0  0
   31.9060   35.2110   44.6140 H   0  0  0  0  0  0  0  0  0  0  0  0
   31.7470   33.0540   44.9190 C   0  0  0  0  0  3  0  0  0  0  0  0
  2  7  1  0  0  0  0
  2  1  1  0  0  0  0
  3  2  2  0  0  0  0
  4  5  2  0  0  0  0
  4  3  1  0  0  0  0
  5  6  1  0  0  0  0
  6  9  1  0  0  0  0
  6  7  2  0  0  0  0
  7 10  1  0  0  0  0
  8  4  1  0  0  0  0
 11 17  1  0  0  0  0
 12 11  2  0  0  0  0
 13 14  2  0  0  0  0
 13 12  1  0  0  0  0
 14 15  1  0  0  0  0
 15  3  1  0  0  0  0
 15 16  2  0  0  0  0
 16 11  1  0  0  0  0
 18 12  1  0  0  0  0
 19 13  1  0  0  0  0
 20  5  1  0  0  0  0
 21 20  1  0  0  0  0
 21 26  1  0  0  0  0
 22 21  2  0  0  0  0
 23 24  2  0  0  0  0
 23 22  1  0  0  0  0
 24 25  1  0  0  0  0
 25 20  2  0  0  0  0
 27 22  1  0  0  0  0
 28 36  1  0  0  0  0
 28 24  1  0  0  0  0
 29 28  2  0  0  0  0
 30 29  1  0  0  0  0
 31 32  2  0  0  0  0
 31 29  1  0  0  0  0
 32 34  1  0  0  0  0
 33 32  1  0  0  0  0
 34 35  1  0  0  0  0
 34 36  2  0  0  0  0
M  END
>  <minimizedAffinity>
-6.69501305

>  <minimizedRMSD>
0.663312018

$$$$
