
 OpenBabel03272510073D

 30 32  0  0  0  0  0  0  0  0999 V2000
   33.9730   28.3530   49.3470 C   0  0  0  0  0  0  0  0  0  0  0  0
   34.7330   29.3430   48.7130 C   0  0  0  0  0  0  0  0  0  0  0  0
   34.3010   29.8240   47.4720 C   0  0  0  0  0  0  0  0  0  0  0  0
   33.1620   29.3020   46.9430 N   0  0  0  0  0  0  0  0  0  0  0  0
   32.4540   28.3560   47.5700 C   0  0  0  0  0  0  0  0  0  0  0  0
   32.8510   27.8770   48.7660 N   0  0  0  0  0  0  0  0  0  0  0  0
   31.2560   27.8530   46.9510 N   0  0  0  0  0  0  0  0  0  0  0  0
   30.1270   28.6980   46.5900 C   0  0  0  0  0  0  0  0  0  0  0  0
   29.2370   27.8170   45.7970 C   0  0  0  0  0  0  0  0  0  0  0  0
   30.0320   26.5720   45.4950 C   0  0  0  0  0  0  0  0  0  0  0  0
   31.0140   26.4610   46.6110 C   0  0  0  0  0  0  0  0  0  0  0  0
   34.3120   27.9940   50.2960 H   0  0  0  0  0  0  0  0  0  0  0  0
   34.8490   30.5910   46.9380 H   0  0  0  0  0  0  0  0  0  0  0  0
   29.6770   29.2040   47.4450 H   0  0  0  0  0  0  0  0  0  0  0  0
   30.5830   29.5170   45.9620 H   0  0  0  0  0  0  0  0  0  0  0  0
   29.0350   28.3300   44.8190 H   0  0  0  0  0  0  0  0  0  0  0  0
   28.2690   27.6200   46.3080 H   0  0  0  0  0  0  0  0  0  0  0  0
   30.4440   26.5450   44.4860 H   0  0  0  0  0  0  0  0  0  0  0  0
   29.3150   25.7150   45.5740 H   0  0  0  0  0  0  0  0  0  0  0  0
   31.9880   26.0540   46.2420 H   0  0  0  0  0  0  0  0  0  0  0  0
   30.6820   25.8600   47.4750 H   0  0  0  0  0  0  0  0  0  0  0  0
   35.9500   29.8810   49.3020 C   0  0  0  0  0  0  0  0  0  0  0  0
   36.8380   30.5290   48.4810 C   0  0  0  0  0  0  0  0  0  0  0  0
   36.7090   30.6770   47.4230 H   0  0  0  0  0  0  0  0  0  0  0  0
   38.0020   31.0440   49.0350 C   0  0  0  0  0  0  0  0  0  0  0  0
   38.2840   30.9220   50.3750 C   0  0  0  0  0  0  0  0  0  0  0  0
   39.2100   31.3400   50.7720 H   0  0  0  0  0  0  0  0  0  0  0  0
   37.3710   30.2640   51.1880 C   0  0  0  0  0  0  0  0  0  0  0  0
   37.5860   30.1600   52.2590 H   0  0  0  0  0  0  0  0  0  0  0  0
   36.2110   29.7500   50.6460 C   0  0  0  0  0  0  0  0  0  0  0  0
  1 12  1  0  0  0  0
  2 22  1  0  0  0  0
  2  1  2  0  0  0  0
  3  2  1  0  0  0  0
  4  3  2  0  0  0  0
  4  5  1  0  0  0  0
  5  6  2  0  0  0  0
  6  1  1  0  0  0  0
  7  5  1  0  0  0  0
  8  7  1  0  0  0  0
  8 14  1  0  0  0  0
  9 17  1  0  0  0  0
  9  8  1  0  0  0  0
 10 19  1  0  0  0  0
 10  9  1  0  0  0  0
 10 11  1  0  0  0  0
 11  7  1  0  0  0  0
 11 21  1  0  0  0  0
 13  3  1  0  0  0  0
 15  8  1  0  0  0  0
 16  9  1  0  0  0  0
 18 10  1  0  0  0  0
 20 11  1  0  0  0  0
 22 30  1  0  0  0  0
 23 25  1  0  0  0  0
 23 22  2  0  0  0  0
 24 23  1  0  0  0  0
 25 26  2  0  0  0  0
 26 27  1  0  0  0  0
 26 28  1  0  0  0  0
 28 29  1  0  0  0  0
 30 28  2  0  0  0  0
M  END
>  <minimizedAffinity>
-5.55813456

>  <minimizedRMSD>
5.95444536

$$$$
