
 OpenBabel03272503373D

 19 20  0  0  0  0  0  0  0  0999 V2000
   37.3310   30.0180   51.2300 C   0  0  0  0  0  0  0  0  0  0  0  0
   38.2230   30.8280   50.5140 C   0  0  0  0  0  0  0  0  0  0  0  0
   37.7690   31.3910   49.3340 C   0  0  0  0  0  0  0  0  0  0  0  0
   36.5020   31.1440   48.9230 N   0  0  0  0  0  0  0  0  0  0  0  0
   35.6550   30.3470   49.6490 C   0  0  0  0  0  0  0  0  0  0  0  0
   36.0780   29.8000   50.7840 N   0  0  0  0  0  0  0  0  0  0  0  0
   39.2330   31.0250   50.8400 H   0  0  0  0  0  0  0  0  0  0  0  0
   34.6430   30.1600   49.3060 H   0  0  0  0  0  0  0  0  0  0  0  0
   38.5810   32.2520   48.4840 C   0  0  0  0  0  0  0  0  0  0  0  0
   39.0090   33.4550   49.0060 C   0  0  0  0  0  0  0  0  0  0  0  0
   38.7740   33.7950   50.0110 H   0  0  0  0  0  0  0  0  0  0  0  0
   39.7930   34.3280   48.2380 C   0  0  0  0  0  0  0  0  0  0  0  0
   40.1460   33.9890   46.9480 C   0  0  0  0  0  0  0  0  0  0  0  0
   40.7470   34.6040   46.2910 H   0  0  0  0  0  0  0  0  0  0  0  0
   39.7260   32.7870   46.4120 C   0  0  0  0  0  0  0  0  0  0  0  0
   39.9690   32.4560   45.3960 H   0  0  0  0  0  0  0  0  0  0  0  0
   38.9510   31.9440   47.1940 C   0  0  0  0  0  0  0  0  0  0  0  0
   37.8760   29.5030   52.3910 O   0  0  0  0  0  0  0  0  0  0  0  0
   37.6860   28.5370   52.6220 H   0  0  0  0  0  0  0  0  0  0  0  0
  1 18  1  0  0  0  0
  2  7  1  0  0  0  0
  2  1  2  0  0  0  0
  3  2  1  0  0  0  0
  4  3  2  0  0  0  0
  4  5  1  0  0  0  0
  5  6  2  0  0  0  0
  6  1  1  0  0  0  0
  8  5  1  0  0  0  0
  9 10  1  0  0  0  0
  9  3  1  0  0  0  0
 10 11  1  0  0  0  0
 12 10  2  0  0  0  0
 13 12  1  0  0  0  0
 14 13  1  0  0  0  0
 15 13  2  0  0  0  0
 15 17  1  0  0  0  0
 16 15  1  0  0  0  0
 17  9  2  0  0  0  0
 18 19  1  0  0  0  0
M  END
>  <minimizedAffinity>
-5.38310289

>  <minimizedRMSD>
0.790052533

$$$$
