
 OpenBabel03272507053D

 31 34  0  0  0  0  0  0  0  0999 V2000
   37.2620   29.7870   51.3300 C   0  0  0  0  0  0  0  0  0  0  0  0
   38.0900   30.7790   50.7660 C   0  0  0  0  0  0  0  0  0  0  0  0
   37.7610   31.2260   49.4780 C   0  0  0  0  0  0  0  0  0  0  0  0
   36.6820   30.6870   48.8570 N   0  0  0  0  0  0  0  0  0  0  0  0
   35.9160   29.7480   49.4160 C   0  0  0  0  0  0  0  0  0  0  0  0
   36.2010   29.2950   50.6530 N   0  0  0  0  0  0  0  0  0  0  0  0
   37.5290   29.4530   52.3250 H   0  0  0  0  0  0  0  0  0  0  0  0
   38.9220   31.1600   51.3110 H   0  0  0  0  0  0  0  0  0  0  0  0
   34.3720   27.8970   48.9100 C   0  0  0  0  0  0  0  0  0  0  0  0
   34.7790   29.2180   48.6900 C   0  0  0  0  0  0  0  0  0  0  0  0
   34.1030   30.0240   47.7880 C   0  0  0  0  0  0  0  0  0  0  0  0
   33.0180   29.5520   47.0850 C   0  0  0  0  0  0  0  0  0  0  0  0
   32.1900   30.0850   46.1720 N   0  0  0  0  0  0  0  0  0  0  0  0
   31.3130   29.0750   45.8690 C   0  0  0  0  0  0  0  0  0  0  0  0
   31.5950   27.9550   46.5760 N   0  0  0  0  0  0  0  0  0  0  0  0
   32.6530   28.2320   47.3390 C   0  0  0  0  0  0  0  0  0  0  0  0
   33.2840   27.3910   48.2190 C   0  0  0  0  0  0  0  0  0  0  0  0
   34.9220   27.3040   49.6170 H   0  0  0  0  0  0  0  0  0  0  0  0
   34.4130   31.0480   47.6130 H   0  0  0  0  0  0  0  0  0  0  0  0
   32.2080   31.0340   45.7860 H   0  0  0  0  0  0  0  0  0  0  0  0
   30.5030   29.1730   45.1550 H   0  0  0  0  0  0  0  0  0  0  0  0
   32.9650   26.3780   48.3810 H   0  0  0  0  0  0  0  0  0  0  0  0
   38.5430   32.2350   48.8170 C   0  0  0  0  0  0  0  0  0  0  0  0
   38.9410   33.4200   49.3800 C   0  0  0  0  0  0  0  0  0  0  0  0
   38.6650   33.6450   50.3940 H   0  0  0  0  0  0  0  0  0  0  0  0
   39.6870   34.3900   48.7610 C   0  0  0  0  0  0  0  0  0  0  0  0
   40.0820   34.1650   47.4400 C   0  0  0  0  0  0  0  0  0  0  0  0
   40.6710   34.9140   46.9270 H   0  0  0  0  0  0  0  0  0  0  0  0
   39.7060   32.9920   46.8330 C   0  0  0  0  0  0  0  0  0  0  0  0
   40.0030   32.7950   45.8030 H   0  0  0  0  0  0  0  0  0  0  0  0
   38.9520   32.0540   47.5180 C   0  0  0  0  0  0  0  0  0  0  0  0
  1  7  1  0  0  0  0
  2  8  1  0  0  0  0
  2  1  1  0  0  0  0
  3  2  2  0  0  0  0
  4  5  2  0  0  0  0
  4  3  1  0  0  0  0
  5  6  1  0  0  0  0
  6  1  2  0  0  0  0
  9 18  1  0  0  0  0
 10  9  1  0  0  0  0
 10  5  1  0  0  0  0
 11 10  2  0  0  0  0
 12 16  2  0  0  0  0
 12 11  1  0  0  0  0
 13 12  1  0  0  0  0
 14 13  1  0  0  0  0
 14 15  2  0  0  0  0
 15 16  1  0  0  0  0
 16 17  1  0  0  0  0
 17 22  1  0  0  0  0
 17  9  2  0  0  0  0
 19 11  1  0  0  0  0
 20 13  1  0  0  0  0
 21 14  1  0  0  0  0
 23 24  1  0  0  0  0
 23  3  1  0  0  0  0
 24 25  1  0  0  0  0
 26 24  2  0  0  0  0
 27 26  1  0  0  0  0
 28 27  1  0  0  0  0
 29 27  2  0  0  0  0
 29 31  1  0  0  0  0
 30 29  1  0  0  0  0
 31 23  2  0  0  0  0
M  END
>  <minimizedAffinity>
-6.87198877

>  <minimizedRMSD>
0.662242234

$$$$
