
 OpenBabel03272501333D

 27 29  0  0  1  0  0  0  0  0999 V2000
   37.2600   30.6860   46.5770 C   0  0  2  0  0  0  0  0  0  0  0  0
   38.7090   30.5190   45.9780 C   0  0  0  0  0  0  0  0  0  0  0  0
   38.0240   31.8480   46.1480 C   0  0  2  0  0  0  0  0  0  0  0  0
   36.6290   30.0370   45.9250 H   0  0  0  0  0  0  0  0  0  0  0  0
   38.7750   30.2260   44.9070 H   0  0  0  0  0  0  0  0  0  0  0  0
   39.4950   30.1720   46.6350 H   0  0  0  0  0  0  0  0  0  0  0  0
   37.6480   32.4120   45.2420 H   0  0  0  0  0  0  0  0  0  0  0  0
   38.6810   32.7340   47.1410 C   0  0  0  0  0  0  0  0  0  0  0  0
   38.0180   32.8790   48.3580 C   0  0  0  0  0  0  0  0  0  0  0  0
   37.0760   32.3540   48.5610 H   0  0  0  0  0  0  0  0  0  0  0  0
   38.4470   33.6660   49.4180 C   0  0  0  0  0  0  0  0  0  0  0  0
   39.6170   34.3660   49.2700 C   0  0  0  0  0  0  0  0  0  0  0  0
   40.0520   35.0090   50.0200 H   0  0  0  0  0  0  0  0  0  0  0  0
   40.2990   34.2450   48.0780 C   0  0  0  0  0  0  0  0  0  0  0  0
   41.2390   34.7830   47.9070 H   0  0  0  0  0  0  0  0  0  0  0  0
   39.8480   33.4560   47.0440 C   0  0  0  0  0  0  0  0  0  0  0  0
   37.2460   30.2090   47.9860 C   0  0  0  0  0  0  0  0  0  0  0  0
   38.3580   30.2280   48.6160 O   0  0  0  0  0  0  0  0  0  0  0  0
   34.6770   29.2940   50.5410 C   0  0  0  0  0  0  0  0  0  0  0  0
   35.8490   29.7640   49.9630 C   0  0  0  0  0  0  0  0  0  0  0  0
   36.0120   29.7500   48.5750 C   0  0  0  0  0  0  0  0  0  0  0  0
   35.0050   29.2700   47.8440 N   0  0  0  0  0  0  0  0  0  0  0  0
   33.8630   28.8130   48.4370 C   0  0  0  0  0  0  0  0  0  0  0  0
   33.6930   28.8210   49.7470 N   0  0  0  0  0  0  0  0  0  0  0  0
   34.6740   29.3590   51.6200 H   0  0  0  0  0  0  0  0  0  0  0  0
   36.6710   30.1550   50.5420 H   0  0  0  0  0  0  0  0  0  0  0  0
   33.1240   28.4530   47.7320 H   0  0  0  0  0  0  0  0  0  0  0  0
  1  4  1  6  0  0  0
  1 17  1  0  0  0  0
  2  3  1  0  0  0  0
  2  1  1  0  0  0  0
  2  6  1  0  0  0  0
  3  7  1  6  0  0  0
  3  1  1  0  0  0  0
  3  8  1  0  0  0  0
  5  2  1  0  0  0  0
  8  9  1  0  0  0  0
  9 10  1  0  0  0  0
  9 11  2  0  0  0  0
 12 11  1  0  0  0  0
 12 13  1  0  0  0  0
 14 12  2  0  0  0  0
 15 14  1  0  0  0  0
 16  8  2  0  0  0  0
 16 14  1  0  0  0  0
 17 21  1  0  0  0  0
 17 18  2  0  0  0  0
 19 25  1  0  0  0  0
 20 19  1  0  0  0  0
 20 26  1  0  0  0  0
 21 20  2  0  0  0  0
 22 23  2  0  0  0  0
 22 21  1  0  0  0  0
 23 24  1  0  0  0  0
 24 19  2  0  0  0  0
 27 23  1  0  0  0  0
M  END
>  <minimizedAffinity>
-4.74436855

>  <minimizedRMSD>
2.65675807

$$$$
