
 OpenBabel03272505463D

 25 27  0  0  0  0  0  0  0  0999 V2000
   38.6680   23.3310   36.7840 C   0  0  0  0  0  0  0  0  0  0  0  0
   39.7830   22.7800   37.5450 C   0  0  0  0  0  0  0  0  0  0  0  0
   38.5920   23.3230   38.2710 C   0  0  0  0  0  0  0  0  0  0  0  0
   40.7300   23.3580   37.5910 H   0  0  0  0  0  0  0  0  0  0  0  0
   39.9780   21.6850   37.5330 H   0  0  0  0  0  0  0  0  0  0  0  0
   38.7490   24.2890   38.8110 H   0  0  0  0  0  0  0  0  0  0  0  0
   37.8460   22.6170   38.7020 H   0  0  0  0  0  0  0  0  0  0  0  0
   37.0400   21.5350   33.9750 C   0  0  0  0  0  0  0  0  0  0  0  0
   35.9610   20.9000   34.5950 C   0  0  0  0  0  0  0  0  0  0  0  0
   35.7980   21.0970   35.9930 C   0  0  0  0  0  0  0  0  0  0  0  0
   36.6920   21.8890   36.6530 N   0  0  0  0  0  0  0  0  0  0  0  0
   37.7210   22.4830   36.0140 C   0  0  0  0  0  0  0  0  0  0  0  0
   37.9000   22.3140   34.6900 N   0  0  0  0  0  0  0  0  0  0  0  0
   37.2590   21.4560   32.9200 H   0  0  0  0  0  0  0  0  0  0  0  0
   35.3250   20.3030   33.9750 H   0  0  0  0  0  0  0  0  0  0  0  0
   34.9670   20.6010   36.4380 H   0  0  0  0  0  0  0  0  0  0  0  0
   38.9350   24.6320   36.0710 C   0  0  0  0  0  0  0  0  0  0  0  0
   37.9800   25.6390   36.2460 C   0  0  0  0  0  0  0  0  0  0  0  0
   37.1110   25.4820   36.8560 H   0  0  0  0  0  0  0  0  0  0  0  0
   38.2040   26.8400   35.6020 C   0  0  0  0  0  3  0  0  0  0  0  0
   39.3570   26.9840   34.8190 C   0  0  0  0  0  0  0  0  0  0  0  0
   39.5220   27.9300   34.3180 H   0  0  0  0  0  0  0  0  0  0  0  0
   40.2730   25.9610   34.6740 C   0  0  0  0  0  0  0  0  0  0  0  0
   41.1710   26.0830   34.0600 H   0  0  0  0  0  0  0  0  0  0  0  0
   40.0740   24.7580   35.3030 C   0  0  0  0  0  3  0  0  0  0  0  0
  1  2  1  0  0  0  0
  1  3  1  0  0  0  0
  2  4  1  0  0  0  0
  2  3  1  0  0  0  0
  3  7  1  0  0  0  0
  3  6  1  0  0  0  0
  5  2  1  0  0  0  0
  8  9  2  0  0  0  0
  8 13  1  0  0  0  0
  9 10  1  0  0  0  0
 10 16  1  0  0  0  0
 10 11  2  0  0  0  0
 12 11  1  0  0  0  0
 12  1  1  0  0  0  0
 13 12  2  0  0  0  0
 14  8  1  0  0  0  0
 15  9  1  0  0  0  0
 17 18  1  0  0  0  0
 17  1  1  0  0  0  0
 18 19  1  0  0  0  0
 20 18  2  0  0  0  0
 21 20  1  0  0  0  0
 22 21  1  0  0  0  0
 23 21  2  0  0  0  0
 23 25  1  0  0  0  0
 24 23  1  0  0  0  0
 25 17  2  0  0  0  0
M  END
>  <minimizedAffinity>
-4.83571529

$$$$

 OpenBabel03272505463D

 25 27  0  0  0  0  0  0  0  0999 V2000
   37.0850   27.4570   32.6640 C   0  0  0  0  0  0  0  0  0  0  0  0
   36.2590   28.4970   33.2680 C   0  0  0  0  0  0  0  0  0  0  0  0
   36.8470   28.7180   31.9080 C   0  0  0  0  0  0  0  0  0  0  0  0
   36.6760   29.0790   34.1160 H   0  0  0  0  0  0  0  0  0  0  0  0
   35.1640   28.3410   33.3830 H   0  0  0  0  0  0  0  0  0  0  0  0
   37.6790   29.4620   31.8530 H   0  0  0  0  0  0  0  0  0  0  0  0
   36.1990   28.6140   31.0090 H   0  0  0  0  0  0  0  0  0  0  0  0
   36.5440   23.8400   32.0390 C   0  0  0  0  0  0  0  0  0  0  0  0
   35.4660   23.8350   31.1510 C   0  0  0  0  0  0  0  0  0  0  0  0
   34.9250   25.0920   30.7680 C   0  0  0  0  0  0  0  0  0  0  0  0
   35.4810   26.2290   31.2790 N   0  0  0  0  0  0  0  0  0  0  0  0
   36.5230   26.1880   32.1350 C   0  0  0  0  0  0  0  0  0  0  0  0
   37.0550   25.0110   32.5160 N   0  0  0  0  0  0  0  0  0  0  0  0
   37.0330   22.9450   32.3980 H   0  0  0  0  0  0  0  0  0  0  0  0
   35.1150   22.8820   30.8170 H   0  0  0  0  0  0  0  0  0  0  0  0
   34.1040   25.0580   30.0900 H   0  0  0  0  0  0  0  0  0  0  0  0
   38.4300   27.2300   33.3050 C   0  0  0  0  0  0  0  0  0  0  0  0
   39.5300   27.2060   32.4410 C   0  0  0  0  0  0  0  0  0  0  0  0
   39.4090   27.3430   31.3830 H   0  0  0  0  0  0  0  0  0  0  0  0
   40.7730   26.9990   33.0050 C   0  0  0  0  0  3  0  0  0  0  0  0
   40.8670   26.8260   34.3920 C   0  0  0  0  0  0  0  0  0  0  0  0
   41.8460   26.6640   34.8240 H   0  0  0  0  0  0  0  0  0  0  0  0
   39.7520   26.8570   35.2080 C   0  0  0  0  0  0  0  0  0  0  0  0
   39.8350   26.7200   36.2910 H   0  0  0  0  0  0  0  0  0  0  0  0
   38.5060   27.0600   34.6720 C   0  0  0  0  0  3  0  0  0  0  0  0
  1  2  1  0  0  0  0
  1 17  1  0  0  0  0
  2  5  1  0  0  0  0
  2  4  1  0  0  0  0
  3  1  1  0  0  0  0
  3  2  1  0  0  0  0
  6  3  1  0  0  0  0
  7  3  1  0  0  0  0
  8 14  1  0  0  0  0
  8 13  1  0  0  0  0
  9  8  2  0  0  0  0
 10  9  1  0  0  0  0
 10 11  2  0  0  0  0
 11 12  1  0  0  0  0
 12 13  2  0  0  0  0
 12  1  1  0  0  0  0
 15  9  1  0  0  0  0
 16 10  1  0  0  0  0
 17 25  1  0  0  0  0
 18 20  1  0  0  0  0
 18 17  2  0  0  0  0
 19 18  1  0  0  0  0
 20 21  2  0  0  0  0
 21 22  1  0  0  0  0
 21 23  1  0  0  0  0
 23 24  1  0  0  0  0
 25 23  2  0  0  0  0
M  END
>  <minimizedAffinity>
-4.68596363

$$$$

 OpenBabel03272505463D

 25 27  0  0  0  0  0  0  0  0999 V2000
   37.8430   27.1350   31.7830 C   0  0  0  0  0  0  0  0  0  0  0  0
   37.6860   28.4350   31.1420 C   0  0  0  0  0  0  0  0  0  0  0  0
   38.8230   27.5480   30.7410 C   0  0  0  0  0  0  0  0  0  0  0  0
   37.9180   29.3480   31.7290 H   0  0  0  0  0  0  0  0  0  0  0  0
   36.8400   28.6100   30.4390 H   0  0  0  0  0  0  0  0  0  0  0  0
   39.8380   27.8770   31.0740 H   0  0  0  0  0  0  0  0  0  0  0  0
   38.7630   26.9800   29.7850 H   0  0  0  0  0  0  0  0  0  0  0  0
   34.8430   25.1590   30.8590 C   0  0  0  0  0  0  0  0  0  0  0  0
   35.2860   23.8410   30.9850 C   0  0  0  0  0  0  0  0  0  0  0  0
   36.6320   23.6380   31.3940 C   0  0  0  0  0  0  0  0  0  0  0  0
   37.4150   24.7270   31.6410 N   0  0  0  0  0  0  0  0  0  0  0  0
   36.9450   25.9850   31.5060 C   0  0  0  0  0  0  0  0  0  0  0  0
   35.6740   26.2070   31.1200 N   0  0  0  0  0  0  0  0  0  0  0  0
   33.8410   25.4310   30.5550 H   0  0  0  0  0  0  0  0  0  0  0  0
   34.5820   23.0660   30.7650 H   0  0  0  0  0  0  0  0  0  0  0  0
   36.9420   22.6220   31.4820 H   0  0  0  0  0  0  0  0  0  0  0  0
   38.2600   27.1620   33.2320 C   0  0  0  0  0  0  0  0  0  0  0  0
   39.6060   26.8830   33.4930 C   0  0  0  0  0  0  0  0  0  0  0  0
   40.2930   26.6640   32.6970 H   0  0  0  0  0  0  0  0  0  0  0  0
   40.0110   26.9020   34.8120 C   0  0  0  0  0  3  0  0  0  0  0  0
   39.0680   27.1930   35.8060 C   0  0  0  0  0  0  0  0  0  0  0  0
   39.3960   27.2050   36.8380 H   0  0  0  0  0  0  0  0  0  0  0  0
   37.7470   27.4620   35.5020 C   0  0  0  0  0  0  0  0  0  0  0  0
   37.0170   27.6890   36.2860 H   0  0  0  0  0  0  0  0  0  0  0  0
   37.3190   27.4490   34.1990 C   0  0  0  0  0  3  0  0  0  0  0  0
  1 17  1  0  0  0  0
  2  4  1  0  0  0  0
  2  1  1  0  0  0  0
  3  6  1  0  0  0  0
  3  2  1  0  0  0  0
  3  1  1  0  0  0  0
  5  2  1  0  0  0  0
  7  3  1  0  0  0  0
  8  9  2  0  0  0  0
  8 13  1  0  0  0  0
  9 10  1  0  0  0  0
 10 16  1  0  0  0  0
 10 11  2  0  0  0  0
 12 11  1  0  0  0  0
 12  1  1  0  0  0  0
 13 12  2  0  0  0  0
 14  8  1  0  0  0  0
 15  9  1  0  0  0  0
 17 18  2  0  0  0  0
 17 25  1  0  0  0  0
 18 20  1  0  0  0  0
 19 18  1  0  0  0  0
 20 21  2  0  0  0  0
 21 22  1  0  0  0  0
 23 21  1  0  0  0  0
 23 24  1  0  0  0  0
 25 23  2  0  0  0  0
M  END
>  <minimizedAffinity>
-4.66974449

$$$$

 OpenBabel03272505463D

 25 27  0  0  0  0  0  0  0  0999 V2000
   38.9550   25.7200   34.8160 C   0  0  0  0  0  0  0  0  0  0  0  0
   39.0880   27.1290   35.1680 C   0  0  0  0  0  0  0  0  0  0  0  0
   40.2010   26.4430   34.4390 C   0  0  0  0  0  0  0  0  0  0  0  0
   39.2500   27.3970   36.2330 H   0  0  0  0  0  0  0  0  0  0  0  0
   38.4690   27.8940   34.6480 H   0  0  0  0  0  0  0  0  0  0  0  0
   41.1260   26.2450   35.0360 H   0  0  0  0  0  0  0  0  0  0  0  0
   40.3320   26.6210   33.3480 H   0  0  0  0  0  0  0  0  0  0  0  0
   37.2060   23.4820   32.4290 C   0  0  0  0  0  0  0  0  0  0  0  0
   36.3640   24.3580   31.7400 C   0  0  0  0  0  0  0  0  0  0  0  0
   36.4040   25.7310   32.1060 C   0  0  0  0  0  0  0  0  0  0  0  0
   37.2550   26.1210   33.0990 N   0  0  0  0  0  0  0  0  0  0  0  0
   38.0520   25.2410   33.7390 C   0  0  0  0  0  0  0  0  0  0  0  0
   38.0340   23.9340   33.4130 N   0  0  0  0  0  0  0  0  0  0  0  0
   37.2590   22.4200   32.2350 H   0  0  0  0  0  0  0  0  0  0  0  0
   35.7390   23.9380   30.9800 H   0  0  0  0  0  0  0  0  0  0  0  0
   35.7510   26.3750   31.5640 H   0  0  0  0  0  0  0  0  0  0  0  0
   38.9920   24.7480   35.9670 C   0  0  0  0  0  0  0  0  0  0  0  0
   37.9900   24.8940   36.9320 C   0  0  0  0  0  0  0  0  0  0  0  0
   37.2430   25.6590   36.8460 H   0  0  0  0  0  0  0  0  0  0  0  0
   38.0050   24.0140   37.9950 C   0  0  0  0  0  3  0  0  0  0  0  0
   39.0070   23.0370   38.0530 C   0  0  0  0  0  0  0  0  0  0  0  0
   39.0090   22.3520   38.8920 H   0  0  0  0  0  0  0  0  0  0  0  0
   39.9780   22.9290   37.0760 C   0  0  0  0  0  0  0  0  0  0  0  0
   40.7570   22.1620   37.1300 H   0  0  0  0  0  0  0  0  0  0  0  0
   39.9860   23.7910   36.0090 C   0  0  0  0  0  3  0  0  0  0  0  0
  1  2  1  0  0  0  0
  1 17  1  0  0  0  0
  2  4  1  0  0  0  0
  3  1  1  0  0  0  0
  3  6  1  0  0  0  0
  3  2  1  0  0  0  0
  5  2  1  0  0  0  0
  7  3  1  0  0  0  0
  8 13  1  0  0  0  0
  9 10  1  0  0  0  0
  9  8  2  0  0  0  0
 10 11  2  0  0  0  0
 11 12  1  0  0  0  0
 12  1  1  0  0  0  0
 13 12  2  0  0  0  0
 14  8  1  0  0  0  0
 15  9  1  0  0  0  0
 16 10  1  0  0  0  0
 17 25  2  0  0  0  0
 17 18  1  0  0  0  0
 18 20  2  0  0  0  0
 19 18  1  0  0  0  0
 20 21  1  0  0  0  0
 21 22  1  0  0  0  0
 23 24  1  0  0  0  0
 23 21  2  0  0  0  0
 25 23  1  0  0  0  0
M  END
>  <minimizedAffinity>
-4.64819098

$$$$

 OpenBabel03272505463D

 25 27  0  0  0  0  0  0  0  0999 V2000
   38.0720   26.8690   31.7440 C   0  0  0  0  0  0  0  0  0  0  0  0
   37.9940   28.1180   30.9940 C   0  0  0  0  0  0  0  0  0  0  0  0
   39.1570   27.2000   30.7790 C   0  0  0  0  0  0  0  0  0  0  0  0
   38.1740   29.0720   31.5320 H   0  0  0  0  0  0  0  0  0  0  0  0
   37.2260   28.2410   30.1980 H   0  0  0  0  0  0  0  0  0  0  0  0
   40.1360   27.5510   31.1880 H   0  0  0  0  0  0  0  0  0  0  0  0
   39.1880   26.5620   29.8670 H   0  0  0  0  0  0  0  0  0  0  0  0
   36.9150   23.3840   31.2200 C   0  0  0  0  0  0  0  0  0  0  0  0
   35.5540   23.5440   30.9490 C   0  0  0  0  0  0  0  0  0  0  0  0
   35.0370   24.8680   30.9470 C   0  0  0  0  0  0  0  0  0  0  0  0
   35.8860   25.9050   31.2060 N   0  0  0  0  0  0  0  0  0  0  0  0
   37.1950   25.7040   31.4640 C   0  0  0  0  0  0  0  0  0  0  0  0
   37.7120   24.4600   31.4720 N   0  0  0  0  0  0  0  0  0  0  0  0
   37.4150   22.4260   31.2470 H   0  0  0  0  0  0  0  0  0  0  0  0
   34.9870   22.6570   30.7600 H   0  0  0  0  0  0  0  0  0  0  0  0
   33.9970   24.9600   30.7380 H   0  0  0  0  0  0  0  0  0  0  0  0
   38.3400   27.0040   33.2210 C   0  0  0  0  0  0  0  0  0  0  0  0
   37.3050   27.5480   33.9900 C   0  0  0  0  0  0  0  0  0  0  0  0
   36.3780   27.8480   33.5410 H   0  0  0  0  0  0  0  0  0  0  0  0
   37.5280   27.6820   35.3450 C   0  0  0  0  0  3  0  0  0  0  0  0
   38.7600   27.2730   35.8730 C   0  0  0  0  0  0  0  0  0  0  0  0
   38.9240   27.3830   36.9380 H   0  0  0  0  0  0  0  0  0  0  0  0
   39.7550   26.7410   35.0750 C   0  0  0  0  0  0  0  0  0  0  0  0
   40.7140   26.4250   35.4970 H   0  0  0  0  0  0  0  0  0  0  0  0
   39.5590   26.5980   33.7250 C   0  0  0  0  0  3  0  0  0  0  0  0
  1 17  1  0  0  0  0
  2  4  1  0  0  0  0
  2  1  1  0  0  0  0
  3  2  1  0  0  0  0
  3  6  1  0  0  0  0
  3  1  1  0  0  0  0
  5  2  1  0  0  0  0
  7  3  1  0  0  0  0
  8 14  1  0  0  0  0
  8 13  1  0  0  0  0
  9  8  2  0  0  0  0
 10  9  1  0  0  0  0
 10 11  2  0  0  0  0
 11 12  1  0  0  0  0
 12 13  2  0  0  0  0
 12  1  1  0  0  0  0
 15  9  1  0  0  0  0
 16 10  1  0  0  0  0
 17 25  2  0  0  0  0
 17 18  1  0  0  0  0
 18 20  2  0  0  0  0
 19 18  1  0  0  0  0
 20 21  1  0  0  0  0
 21 22  1  0  0  0  0
 23 24  1  0  0  0  0
 23 21  2  0  0  0  0
 25 23  1  0  0  0  0
M  END
>  <minimizedAffinity>
-4.5594883

$$$$

 OpenBabel03272505463D

 25 27  0  0  0  0  0  0  0  0999 V2000
   38.4690   23.3110   36.7830 C   0  0  0  0  0  0  0  0  0  0  0  0
   38.0140   24.6890   36.9280 C   0  0  0  0  0  0  0  0  0  0  0  0
   37.9990   23.7780   38.1160 C   0  0  0  0  0  0  0  0  0  0  0  0
   37.0400   24.9760   36.4790 H   0  0  0  0  0  0  0  0  0  0  0  0
   38.7460   25.5250   36.8750 H   0  0  0  0  0  0  0  0  0  0  0  0
   36.9900   23.4470   38.4640 H   0  0  0  0  0  0  0  0  0  0  0  0
   38.7940   23.8760   38.8890 H   0  0  0  0  0  0  0  0  0  0  0  0
   42.0150   23.4000   35.6980 C   0  0  0  0  0  0  0  0  0  0  0  0
   42.5580   22.2700   36.3140 C   0  0  0  0  0  0  0  0  0  0  0  0
   41.6890   21.4730   37.1070 C   0  0  0  0  0  0  0  0  0  0  0  0
   40.3820   21.8470   37.2260 N   0  0  0  0  0  0  0  0  0  0  0  0
   39.8990   22.9480   36.6140 C   0  0  0  0  0  0  0  0  0  0  0  0
   40.7010   23.7220   35.8560 N   0  0  0  0  0  0  0  0  0  0  0  0
   42.5820   24.0760   35.0740 H   0  0  0  0  0  0  0  0  0  0  0  0
   43.5970   22.0760   36.1480 H   0  0  0  0  0  0  0  0  0  0  0  0
   42.1300   20.6180   37.5640 H   0  0  0  0  0  0  0  0  0  0  0  0
   37.5800   22.4060   35.9690 C   0  0  0  0  0  0  0  0  0  0  0  0
   37.8700   22.3200   34.6030 C   0  0  0  0  0  0  0  0  0  0  0  0
   38.6830   22.8720   34.1710 H   0  0  0  0  0  0  0  0  0  0  0  0
   37.0680   21.4970   33.8380 C   0  0  0  0  0  3  0  0  0  0  0  0
   36.0210   20.8020   34.4580 C   0  0  0  0  0  0  0  0  0  0  0  0
   35.3980   20.1600   33.8480 H   0  0  0  0  0  0  0  0  0  0  0  0
   35.7710   20.9180   35.8120 C   0  0  0  0  0  0  0  0  0  0  0  0
   34.9500   20.3720   36.2880 H   0  0  0  0  0  0  0  0  0  0  0  0
   36.5520   21.7300   36.5950 C   0  0  0  0  0  3  0  0  0  0  0  0
  1  2  1  0  0  0  0
  1  3  1  0  0  0  0
  2  3  1  0  0  0  0
  3  6  1  0  0  0  0
  3  7  1  0  0  0  0
  4  2  1  0  0  0  0
  5  2  1  0  0  0  0
  8 13  2  0  0  0  0
  8  9  1  0  0  0  0
  9 10  2  0  0  0  0
 10 11  1  0  0  0  0
 10 16  1  0  0  0  0
 12  1  1  0  0  0  0
 12 11  2  0  0  0  0
 13 12  1  0  0  0  0
 14  8  1  0  0  0  0
 15  9  1  0  0  0  0
 17 25  1  0  0  0  0
 17  1  1  0  0  0  0
 18 17  2  0  0  0  0
 19 18  1  0  0  0  0
 20 21  2  0  0  0  0
 20 18  1  0  0  0  0
 21 23  1  0  0  0  0
 22 21  1  0  0  0  0
 23 24  1  0  0  0  0
 23 25  2  0  0  0  0
M  END
>  <minimizedAffinity>
-4.47846127

$$$$

 OpenBabel03272505463D

 25 27  0  0  0  0  0  0  0  0999 V2000
   38.2960   26.5630   34.8070 C   0  0  0  0  0  0  0  0  0  0  0  0
   37.8570   27.6580   35.6650 C   0  0  0  0  0  0  0  0  0  0  0  0
   37.0420   27.2910   34.4640 C   0  0  0  0  0  0  0  0  0  0  0  0
   38.4230   28.6120   35.6390 H   0  0  0  0  0  0  0  0  0  0  0  0
   37.4720   27.4440   36.6870 H   0  0  0  0  0  0  0  0  0  0  0  0
   37.0710   28.0170   33.6150 H   0  0  0  0  0  0  0  0  0  0  0  0
   36.1050   26.7040   34.5980 H   0  0  0  0  0  0  0  0  0  0  0  0
   38.1460   22.8610   34.6310 C   0  0  0  0  0  0  0  0  0  0  0  0
   38.0540   22.4880   35.9740 C   0  0  0  0  0  0  0  0  0  0  0  0
   38.0430   23.5280   36.9440 C   0  0  0  0  0  0  0  0  0  0  0  0
   38.1200   24.8220   36.5200 N   0  0  0  0  0  0  0  0  0  0  0  0
   38.2080   25.1370   35.2110 C   0  0  0  0  0  0  0  0  0  0  0  0
   38.2210   24.1730   34.2710 N   0  0  0  0  0  0  0  0  0  0  0  0
   38.1630   22.1570   33.8110 H   0  0  0  0  0  0  0  0  0  0  0  0
   37.9980   21.4420   36.1870 H   0  0  0  0  0  0  0  0  0  0  0  0
   37.9710   23.2140   37.9600 H   0  0  0  0  0  0  0  0  0  0  0  0
   39.5380   26.8220   33.9930 C   0  0  0  0  0  0  0  0  0  0  0  0
   39.3410   27.0940   32.6350 C   0  0  0  0  0  0  0  0  0  0  0  0
   38.3560   27.1130   32.2080 H   0  0  0  0  0  0  0  0  0  0  0  0
   40.4640   27.3340   31.8690 C   0  0  0  0  0  3  0  0  0  0  0  0
   41.7230   27.2930   32.4820 C   0  0  0  0  0  0  0  0  0  0  0  0
   42.5980   27.4830   31.8730 H   0  0  0  0  0  0  0  0  0  0  0  0
   41.8700   27.0210   33.8290 C   0  0  0  0  0  0  0  0  0  0  0  0
   42.8590   26.9910   34.2990 H   0  0  0  0  0  0  0  0  0  0  0  0
   40.7700   26.7780   34.6110 C   0  0  0  0  0  3  0  0  0  0  0  0
  1 12  1  0  0  0  0
  1  2  1  0  0  0  0
  2  5  1  0  0  0  0
  3  7  1  0  0  0  0
  3  1  1  0  0  0  0
  3  2  1  0  0  0  0
  4  2  1  0  0  0  0
  6  3  1  0  0  0  0
  8  9  1  0  0  0  0
  9 15  1  0  0  0  0
  9 10  2  0  0  0  0
 10 16  1  0  0  0  0
 11 10  1  0  0  0  0
 12 11  2  0  0  0  0
 13  8  2  0  0  0  0
 13 12  1  0  0  0  0
 14  8  1  0  0  0  0
 17 25  1  0  0  0  0
 17  1  1  0  0  0  0
 18 17  2  0  0  0  0
 19 18  1  0  0  0  0
 20 21  2  0  0  0  0
 20 18  1  0  0  0  0
 21 23  1  0  0  0  0
 22 21  1  0  0  0  0
 23 24  1  0  0  0  0
 23 25  2  0  0  0  0
M  END
>  <minimizedAffinity>
-4.43824673

$$$$

 OpenBabel03272505463D

 25 27  0  0  0  0  0  0  0  0999 V2000
   38.7370   23.2210   36.5600 C   0  0  0  0  0  0  0  0  0  0  0  0
   38.9040   23.0080   37.9930 C   0  0  0  0  0  0  0  0  0  0  0  0
   39.9930   22.5920   37.0540 C   0  0  0  0  0  0  0  0  0  0  0  0
   38.3060   22.2120   38.4840 H   0  0  0  0  0  0  0  0  0  0  0  0
   39.0540   23.8780   38.6710 H   0  0  0  0  0  0  0  0  0  0  0  0
   40.1190   21.4900   36.9130 H   0  0  0  0  0  0  0  0  0  0  0  0
   40.9050   23.2220   36.9610 H   0  0  0  0  0  0  0  0  0  0  0  0
   37.8050   26.6280   35.4270 C   0  0  0  0  0  0  0  0  0  0  0  0
   38.9560   27.0630   34.7650 C   0  0  0  0  0  0  0  0  0  0  0  0
   40.0590   26.1690   34.7120 C   0  0  0  0  0  0  0  0  0  0  0  0
   39.9400   24.9440   35.3010 N   0  0  0  0  0  0  0  0  0  0  0  0
   38.8090   24.5650   35.9310 C   0  0  0  0  0  0  0  0  0  0  0  0
   37.7480   25.3920   35.9970 N   0  0  0  0  0  0  0  0  0  0  0  0
   36.9080   27.2230   35.5280 H   0  0  0  0  0  0  0  0  0  0  0  0
   38.9330   28.0450   34.3410 H   0  0  0  0  0  0  0  0  0  0  0  0
   40.9230   26.5260   34.2020 H   0  0  0  0  0  0  0  0  0  0  0  0
   37.7030   22.3590   35.8820 C   0  0  0  0  0  0  0  0  0  0  0  0
   37.8640   22.1670   34.5050 C   0  0  0  0  0  0  0  0  0  0  0  0
   38.6820   22.6150   33.9740 H   0  0  0  0  0  0  0  0  0  0  0  0
   36.9290   21.3810   33.8630 C   0  0  0  0  0  3  0  0  0  0  0  0
   35.8830   20.8250   34.6110 C   0  0  0  0  0  0  0  0  0  0  0  0
   35.1550   20.2100   34.0970 H   0  0  0  0  0  0  0  0  0  0  0  0
   35.7630   21.0410   35.9700 C   0  0  0  0  0  0  0  0  0  0  0  0
   34.9420   20.6020   36.5460 H   0  0  0  0  0  0  0  0  0  0  0  0
   36.6780   21.8190   36.6320 C   0  0  0  0  0  3  0  0  0  0  0  0
  1  3  1  0  0  0  0
  1  2  1  0  0  0  0
  2  4  1  0  0  0  0
  2  5  1  0  0  0  0
  3  2  1  0  0  0  0
  6  3  1  0  0  0  0
  7  3  1  0  0  0  0
  8 14  1  0  0  0  0
  8 13  1  0  0  0  0
  9  8  2  0  0  0  0
 10  9  1  0  0  0  0
 10 11  2  0  0  0  0
 11 12  1  0  0  0  0
 12 13  2  0  0  0  0
 12  1  1  0  0  0  0
 15  9  1  0  0  0  0
 16 10  1  0  0  0  0
 17  1  1  0  0  0  0
 17 25  1  0  0  0  0
 18 17  2  0  0  0  0
 19 18  1  0  0  0  0
 20 18  1  0  0  0  0
 20 21  2  0  0  0  0
 21 23  1  0  0  0  0
 22 21  1  0  0  0  0
 23 24  1  0  0  0  0
 23 25  2  0  0  0  0
M  END
>  <minimizedAffinity>
-4.4286232

$$$$

 OpenBabel03272505463D

 25 27  0  0  0  0  0  0  0  0999 V2000
   38.7260   25.9700   34.9440 C   0  0  0  0  0  0  0  0  0  0  0  0
   39.7860   26.9250   34.6380 C   0  0  0  0  0  0  0  0  0  0  0  0
   38.6000   27.3700   35.4380 C   0  0  0  0  0  0  0  0  0  0  0  0
   39.8810   27.2950   33.5960 H   0  0  0  0  0  0  0  0  0  0  0  0
   40.7810   26.8250   35.1250 H   0  0  0  0  0  0  0  0  0  0  0  0
   37.8860   28.0510   34.9120 H   0  0  0  0  0  0  0  0  0  0  0  0
   38.6990   27.4920   36.5400 H   0  0  0  0  0  0  0  0  0  0  0  0
   40.1140   23.0460   36.7560 C   0  0  0  0  0  0  0  0  0  0  0  0
   39.1870   22.8450   37.7810 C   0  0  0  0  0  0  0  0  0  0  0  0
   38.0750   23.7290   37.8430 C   0  0  0  0  0  0  0  0  0  0  0  0
   37.9690   24.7160   36.9080 N   0  0  0  0  0  0  0  0  0  0  0  0
   38.8890   24.8740   35.9330 C   0  0  0  0  0  0  0  0  0  0  0  0
   39.9530   24.0520   35.8510 N   0  0  0  0  0  0  0  0  0  0  0  0
   40.9950   22.4360   36.6130 H   0  0  0  0  0  0  0  0  0  0  0  0
   39.3750   22.0380   38.4570 H   0  0  0  0  0  0  0  0  0  0  0  0
   37.3850   23.5520   38.6350 H   0  0  0  0  0  0  0  0  0  0  0  0
   37.8820   25.5270   33.7770 C   0  0  0  0  0  0  0  0  0  0  0  0
   37.1170   26.5200   33.1550 C   0  0  0  0  0  0  0  0  0  0  0  0
   37.1400   27.5370   33.5000 H   0  0  0  0  0  0  0  0  0  0  0  0
   36.3360   26.1380   32.0830 C   0  0  0  0  0  3  0  0  0  0  0  0
   36.3480   24.7960   31.6810 C   0  0  0  0  0  0  0  0  0  0  0  0
   35.7310   24.5070   30.8390 H   0  0  0  0  0  0  0  0  0  0  0  0
   37.1190   23.8480   32.3250 C   0  0  0  0  0  0  0  0  0  0  0  0
   37.1210   22.8020   32.0040 H   0  0  0  0  0  0  0  0  0  0  0  0
   37.9040   24.2020   33.3930 C   0  0  0  0  0  3  0  0  0  0  0  0
  1  3  1  0  0  0  0
  1 12  1  0  0  0  0
  2  1  1  0  0  0  0
  2  5  1  0  0  0  0
  2  3  1  0  0  0  0
  3  7  1  0  0  0  0
  4  2  1  0  0  0  0
  6  3  1  0  0  0  0
  8  9  1  0  0  0  0
  9 10  2  0  0  0  0
  9 15  1  0  0  0  0
 10 16  1  0  0  0  0
 11 10  1  0  0  0  0
 12 11  2  0  0  0  0
 13 12  1  0  0  0  0
 13  8  2  0  0  0  0
 14  8  1  0  0  0  0
 17  1  1  0  0  0  0
 18 19  1  0  0  0  0
 18 17  2  0  0  0  0
 20 18  1  0  0  0  0
 21 20  2  0  0  0  0
 21 23  1  0  0  0  0
 22 21  1  0  0  0  0
 23 25  2  0  0  0  0
 24 23  1  0  0  0  0
 25 17  1  0  0  0  0
M  END
>  <minimizedAffinity>
-4.3684535

$$$$
