
 OpenBabel03272505563D

 34 36  0  0  1  0  0  0  0  0999 V2000
   35.3340   30.3220   49.9810 C   0  0  2  0  0  0  0  0  0  0  0  0
   36.2530   31.2580   49.2180 C   0  0  0  0  0  0  0  0  0  0  0  0
   37.6930   30.8430   49.2760 C   0  0  2  0  0  0  0  0  0  0  0  0
   38.1760   30.6850   50.6960 C   0  0  0  0  0  0  0  0  0  0  0  0
   37.2220   29.9230   51.5660 C   0  0  0  0  0  0  0  0  0  0  0  0
   36.0890   29.3080   50.7720 C   0  0  0  0  0  0  0  0  0  0  0  0
   34.7190   30.9800   50.6210 H   0  0  0  0  0  0  0  0  0  0  0  0
   36.1640   32.3080   49.5300 H   0  0  0  0  0  0  0  0  0  0  0  0
   35.9700   31.2350   48.1390 H   0  0  0  0  0  0  0  0  0  0  0  0
   37.8320   29.9220   48.6730 H   0  0  0  0  0  0  0  0  0  0  0  0
   38.2520   31.7220   51.1230 H   0  0  0  0  0  0  0  0  0  0  0  0
   39.1820   30.2370   50.6340 H   0  0  0  0  0  0  0  0  0  0  0  0
   37.7190   29.1200   52.1320 H   0  0  0  0  0  0  0  0  0  0  0  0
   36.7120   30.5800   52.3300 H   0  0  0  0  0  0  0  0  0  0  0  0
   35.4320   28.7480   51.4310 H   0  0  0  0  0  0  0  0  0  0  0  0
   36.5260   28.5860   50.0210 H   0  0  0  0  0  0  0  0  0  0  0  0
   34.4640   29.5890   49.0130 C   0  0  0  0  0  0  0  0  0  0  0  0
   34.3850   30.1280   47.7170 C   0  0  0  0  0  0  0  0  0  0  0  0
   33.5600   29.4440   46.8100 C   0  0  0  0  0  0  0  0  0  0  0  0
   32.8890   28.3130   47.2250 N   0  0  0  0  0  0  0  0  0  0  0  0
   33.0040   27.8390   48.4910 C   0  0  0  0  0  0  0  0  0  0  0  0
   33.7840   28.4780   49.3640 N   0  0  0  0  0  0  0  0  0  0  0  0
   34.8870   31.0060   47.3500 H   0  0  0  0  0  0  0  0  0  0  0  0
   33.4170   29.7610   45.7810 H   0  0  0  0  0  0  0  0  0  0  0  0
   32.4420   26.9560   48.7090 H   0  0  0  0  0  0  0  0  0  0  0  0
   38.4830   31.9270   48.6300 C   0  0  0  0  0  0  0  0  0  0  0  0
   38.7380   33.0500   49.4010 C   0  0  0  0  0  0  0  0  0  0  0  0
   38.3940   33.1580   50.4180 H   0  0  0  0  0  0  0  0  0  0  0  0
   39.4760   34.1020   48.8480 C   0  0  0  0  0  0  0  0  0  0  0  0
   39.9150   33.9680   47.5520 C   0  0  0  0  0  0  0  0  0  0  0  0
   40.4800   34.7980   47.1600 H   0  0  0  0  0  0  0  0  0  0  0  0
   39.6540   32.8420   46.7930 C   0  0  0  0  0  0  0  0  0  0  0  0
   40.0120   32.7560   45.7710 H   0  0  0  0  0  0  0  0  0  0  0  0
   38.9180   31.7810   47.3310 C   0  0  0  0  0  0  0  0  0  0  0  0
  1  7  1  1  0  0  0
  1  6  1  0  0  0  0
  2  3  1  0  0  0  0
  2  8  1  0  0  0  0
  2  1  1  0  0  0  0
  3 10  1  6  0  0  0
  3  4  1  0  0  0  0
  4 11  1  0  0  0  0
  4  5  1  0  0  0  0
  5 13  1  0  0  0  0
  5 14  1  0  0  0  0
  6 15  1  0  0  0  0
  6  5  1  0  0  0  0
  9  2  1  0  0  0  0
 12  4  1  0  0  0  0
 16  6  1  0  0  0  0
 17 22  1  0  0  0  0
 17  1  1  0  0  0  0
 18 17  2  0  0  0  0
 19 20  2  0  0  0  0
 19 18  1  0  0  0  0
 20 21  1  0  0  0  0
 21 25  1  0  0  0  0
 21 22  2  0  0  0  0
 23 18  1  0  0  0  0
 24 19  1  0  0  0  0
 26  3  1  0  0  0  0
 26 27  1  0  0  0  0
 27 28  1  0  0  0  0
 29 27  2  0  0  0  0
 30 29  1  0  0  0  0
 31 30  1  0  0  0  0
 32 34  1  0  0  0  0
 32 30  2  0  0  0  0
 33 32  1  0  0  0  0
 34 26  2  0  0  0  0
M  END
>  <minimizedAffinity>
-6.98356295

>  <minimizedRMSD>
0.47484675

$$$$
