
 OpenBabel03272510183D

 28 30  0  0  0  0  0  0  0  0999 V2000
   37.2860   28.7140   29.6500 Br  0  0  0  0  0  0  0  0  0  0  0  0
   36.5390   29.3530   31.2810 C   0  0  0  0  0  0  0  0  0  0  0  0
   36.0880   28.4790   32.2500 C   0  0  0  0  0  0  0  0  0  0  0  0
   35.5530   29.0150   33.4130 C   0  0  0  0  0  0  0  0  0  0  0  0
   35.4530   30.3720   33.6370 C   0  0  0  0  0  0  0  0  0  0  0  0
   35.9080   31.2140   32.6580 C   0  0  0  0  0  0  0  0  0  0  0  0
   36.4430   30.7000   31.4990 C   0  0  0  0  0  0  0  0  0  0  0  0
   35.2080   28.2880   34.1550 H   0  0  0  0  0  0  0  0  0  0  0  0
   35.8610   32.2910   32.7670 H   0  0  0  0  0  0  0  0  0  0  0  0
   36.7960   31.3900   30.7410 H   0  0  0  0  0  0  0  0  0  0  0  0
   37.3100   25.0510   32.4680 C   0  0  0  0  0  0  0  0  0  0  0  0
   36.4010   24.3020   31.6810 C   0  0  0  0  0  0  0  0  0  0  0  0
   35.3680   25.0090   31.0830 C   0  0  0  0  0  0  0  0  0  0  0  0
   35.2710   26.3650   31.2720 N   0  0  0  0  0  0  0  0  0  0  0  0
   36.1800   27.0390   32.0450 C   0  0  0  0  0  0  0  0  0  0  0  0
   37.1860   26.3720   32.6310 N   0  0  0  0  0  0  0  0  0  0  0  0
   38.1500   24.5860   32.9740 H   0  0  0  0  0  0  0  0  0  0  0  0
   36.5360   23.2460   31.5750 H   0  0  0  0  0  0  0  0  0  0  0  0
   34.6440   24.4850   30.4700 H   0  0  0  0  0  0  0  0  0  0  0  0
   34.8840   30.8870   34.8730 C   0  0  0  0  0  0  0  0  0  0  0  0
   33.5490   30.5400   35.1110 C   0  0  0  0  0  0  0  0  0  0  0  0
   32.9870   29.9370   34.4290 H   0  0  0  0  0  0  0  0  0  0  0  0
   32.8880   30.9630   36.2460 C   0  0  0  0  0  3  0  0  0  0  0  0
   33.5390   31.7440   37.1750 C   0  0  0  0  0  0  0  0  0  0  0  0
   32.9890   32.0650   38.0670 H   0  0  0  0  0  0  0  0  0  0  0  0
   34.8680   32.0920   36.9440 C   0  0  0  0  0  0  0  0  0  0  0  0
   35.3770   32.6960   37.6580 H   0  0  0  0  0  0  0  0  0  0  0  0
   35.5330   31.6690   35.8030 C   0  0  0  0  0  3  0  0  0  0  0  0
  1  2  1  0  0  0  0
  2  7  2  0  0  0  0
  2  3  1  0  0  0  0
  3  4  2  0  0  0  0
  4  5  1  0  0  0  0
  4  8  1  0  0  0  0
  5 20  1  0  0  0  0
  6  9  1  0  0  0  0
  6  5  2  0  0  0  0
  7  6  1  0  0  0  0
 10  7  1  0  0  0  0
 11 16  1  0  0  0  0
 11 17  1  0  0  0  0
 12 11  2  0  0  0  0
 13 14  2  0  0  0  0
 13 12  1  0  0  0  0
 14 15  1  0  0  0  0
 15  3  1  0  0  0  0
 15 16  2  0  0  0  0
 18 12  1  0  0  0  0
 19 13  1  0  0  0  0
 20 21  2  0  0  0  0
 20 28  1  0  0  0  0
 21 23  1  0  0  0  0
 22 21  1  0  0  0  0
 23 24  2  0  0  0  0
 24 25  1  0  0  0  0
 26 24  1  0  0  0  0
 26 27  1  0  0  0  0
 28 26  2  0  0  0  0
M  END
>  <minimizedAffinity>
-5.66533518

$$$$

 OpenBabel03272510183D

 28 30  0  0  0  0  0  0  0  0999 V2000
   36.4700   27.7000   31.7340 Br  0  0  0  0  0  0  0  0  0  0  0  0
   36.3430   25.8010   31.7880 C   0  0  0  0  0  0  0  0  0  0  0  0
   37.2410   25.0460   32.5160 C   0  0  0  0  0  0  0  0  0  0  0  0
   37.0910   23.6670   32.5080 C   0  0  0  0  0  0  0  0  0  0  0  0
   36.0900   23.0260   31.8070 C   0  0  0  0  0  0  0  0  0  0  0  0
   35.2160   23.8000   31.0940 C   0  0  0  0  0  0  0  0  0  0  0  0
   35.3500   25.1700   31.0910 C   0  0  0  0  0  0  0  0  0  0  0  0
   37.8220   23.1060   33.0980 H   0  0  0  0  0  0  0  0  0  0  0  0
   34.4070   23.3630   30.5210 H   0  0  0  0  0  0  0  0  0  0  0  0
   34.6430   25.7590   30.5180 H   0  0  0  0  0  0  0  0  0  0  0  0
   39.0330   26.6100   35.2800 C   0  0  0  0  0  0  0  0  0  0  0  0
   40.3040   26.9290   34.7400 C   0  0  0  0  0  0  0  0  0  0  0  0
   40.5170   26.5910   33.4110 C   0  0  0  0  0  0  0  0  0  0  0  0
   39.5190   25.9800   32.6950 N   0  0  0  0  0  0  0  0  0  0  0  0
   38.3080   25.6940   33.2690 C   0  0  0  0  0  0  0  0  0  0  0  0
   38.0830   26.0130   34.5530 N   0  0  0  0  0  0  0  0  0  0  0  0
   38.7740   26.8350   36.3080 H   0  0  0  0  0  0  0  0  0  0  0  0
   41.0360   27.4070   35.3560 H   0  0  0  0  0  0  0  0  0  0  0  0
   41.4720   26.8130   32.9490 H   0  0  0  0  0  0  0  0  0  0  0  0
   35.9730   21.5760   31.8290 C   0  0  0  0  0  0  0  0  0  0  0  0
   35.5330   21.0260   33.0380 C   0  0  0  0  0  0  0  0  0  0  0  0
   35.3000   21.6320   33.8880 H   0  0  0  0  0  0  0  0  0  0  0  0
   35.3780   19.6630   33.1940 C   0  0  0  0  0  3  0  0  0  0  0  0
   35.6570   18.8110   32.1480 C   0  0  0  0  0  0  0  0  0  0  0  0
   35.5240   17.7340   32.3000 H   0  0  0  0  0  0  0  0  0  0  0  0
   36.0940   19.3530   30.9420 C   0  0  0  0  0  0  0  0  0  0  0  0
   36.3120   18.7000   30.1290 H   0  0  0  0  0  0  0  0  0  0  0  0
   36.2520   20.7220   30.7840 C   0  0  0  0  0  3  0  0  0  0  0  0
  1  2  1  0  0  0  0
  2  3  1  0  0  0  0
  3 15  1  0  0  0  0
  4  3  2  0  0  0  0
  4  8  1  0  0  0  0
  5 20  1  0  0  0  0
  5  4  1  0  0  0  0
  6  5  2  0  0  0  0
  7  6  1  0  0  0  0
  7  2  2  0  0  0  0
  9  6  1  0  0  0  0
 10  7  1  0  0  0  0
 11 17  1  0  0  0  0
 12 11  1  0  0  0  0
 12 18  1  0  0  0  0
 13 12  2  0  0  0  0
 14 15  2  0  0  0  0
 14 13  1  0  0  0  0
 15 16  1  0  0  0  0
 16 11  2  0  0  0  0
 19 13  1  0  0  0  0
 20 21  1  0  0  0  0
 21 23  2  0  0  0  0
 21 22  1  0  0  0  0
 24 25  1  0  0  0  0
 24 23  1  0  0  0  0
 26 24  2  0  0  0  0
 27 26  1  0  0  0  0
 28 26  1  0  0  0  0
 28 20  2  0  0  0  0
M  END
>  <minimizedAffinity>
-5.41728067

$$$$

 OpenBabel03272510183D

 28 30  0  0  0  0  0  0  0  0999 V2000
   38.0170   27.2570   30.9510 Br  0  0  0  0  0  0  0  0  0  0  0  0
   37.0470   28.2360   32.2640 C   0  0  0  0  0  0  0  0  0  0  0  0
   37.1280   27.9110   33.6030 C   0  0  0  0  0  0  0  0  0  0  0  0
   36.3910   28.6650   34.5040 C   0  0  0  0  0  0  0  0  0  0  0  0
   35.5860   29.7180   34.1190 C   0  0  0  0  0  0  0  0  0  0  0  0
   35.5250   30.0170   32.7850 C   0  0  0  0  0  0  0  0  0  0  0  0
   36.2500   29.2790   31.8770 C   0  0  0  0  0  0  0  0  0  0  0  0
   36.4840   28.3750   35.5550 H   0  0  0  0  0  0  0  0  0  0  0  0
   34.9140   30.8300   32.4130 H   0  0  0  0  0  0  0  0  0  0  0  0
   36.1830   29.5390   30.8270 H   0  0  0  0  0  0  0  0  0  0  0  0
   40.0250   26.0920   34.8640 C   0  0  0  0  0  0  0  0  0  0  0  0
   39.6110   24.7370   34.8830 C   0  0  0  0  0  0  0  0  0  0  0  0
   38.3170   24.4770   34.4520 C   0  0  0  0  0  0  0  0  0  0  0  0
   37.5160   25.5120   34.0380 N   0  0  0  0  0  0  0  0  0  0  0  0
   37.9700   26.8050   34.0420 C   0  0  0  0  0  0  0  0  0  0  0  0
   39.2180   27.0760   34.4550 N   0  0  0  0  0  0  0  0  0  0  0  0
   41.0180   26.3930   35.1820 H   0  0  0  0  0  0  0  0  0  0  0  0
   40.2880   23.9800   35.2170 H   0  0  0  0  0  0  0  0  0  0  0  0
   37.9500   23.4580   34.4460 H   0  0  0  0  0  0  0  0  0  0  0  0
   34.8310   30.4810   35.1010 C   0  0  0  0  0  0  0  0  0  0  0  0
   35.5780   31.3900   35.8590 C   0  0  0  0  0  0  0  0  0  0  0  0
   36.6310   31.5130   35.7260 H   0  0  0  0  0  0  0  0  0  0  0  0
   34.9840   32.1770   36.8260 C   0  0  0  0  0  3  0  0  0  0  0  0
   33.6310   32.0790   37.0630 C   0  0  0  0  0  0  0  0  0  0  0  0
   33.1880   32.7170   37.8360 H   0  0  0  0  0  0  0  0  0  0  0  0
   32.8830   31.1760   36.3100 C   0  0  0  0  0  0  0  0  0  0  0  0
   31.8370   31.0970   36.4890 H   0  0  0  0  0  0  0  0  0  0  0  0
   33.4780   30.3840   35.3400 C   0  0  0  0  0  3  0  0  0  0  0  0
  1  2  1  0  0  0  0
  2  3  1  0  0  0  0
  3 15  1  0  0  0  0
  3  4  2  0  0  0  0
  4  8  1  0  0  0  0
  5  4  1  0  0  0  0
  5 20  1  0  0  0  0
  6  5  2  0  0  0  0
  7  2  2  0  0  0  0
  7  6  1  0  0  0  0
  9  6  1  0  0  0  0
 10  7  1  0  0  0  0
 11 12  1  0  0  0  0
 11 17  1  0  0  0  0
 12 18  1  0  0  0  0
 13 12  2  0  0  0  0
 14 15  2  0  0  0  0
 14 13  1  0  0  0  0
 15 16  1  0  0  0  0
 16 11  2  0  0  0  0
 19 13  1  0  0  0  0
 20 28  2  0  0  0  0
 20 21  1  0  0  0  0
 21 23  2  0  0  0  0
 22 21  1  0  0  0  0
 23 24  1  0  0  0  0
 24 25  1  0  0  0  0
 26 27  1  0  0  0  0
 26 24  2  0  0  0  0
 28 26  1  0  0  0  0
M  END
>  <minimizedAffinity>
-5.40392637

$$$$

 OpenBabel03272510183D

 28 30  0  0  0  0  0  0  0  0999 V2000
   35.1450   31.6100   32.0980 Br  0  0  0  0  0  0  0  0  0  0  0  0
   35.8360   29.9580   32.7450 C   0  0  0  0  0  0  0  0  0  0  0  0
   35.7250   29.6100   34.0760 C   0  0  0  0  0  0  0  0  0  0  0  0
   36.2550   28.3920   34.4780 C   0  0  0  0  0  0  0  0  0  0  0  0
   36.8820   27.5240   33.6080 C   0  0  0  0  0  0  0  0  0  0  0  0
   36.9780   27.8960   32.2950 C   0  0  0  0  0  0  0  0  0  0  0  0
   36.4580   29.1010   31.8790 C   0  0  0  0  0  0  0  0  0  0  0  0
   36.1450   28.1540   35.5400 H   0  0  0  0  0  0  0  0  0  0  0  0
   37.4580   27.2640   31.5580 H   0  0  0  0  0  0  0  0  0  0  0  0
   36.5480   29.3700   30.8330 H   0  0  0  0  0  0  0  0  0  0  0  0
   35.2550   32.2240   36.5730 C   0  0  0  0  0  0  0  0  0  0  0  0
   33.8610   32.2230   36.8270 C   0  0  0  0  0  0  0  0  0  0  0  0
   33.1010   31.3030   36.1170 C   0  0  0  0  0  0  0  0  0  0  0  0
   33.7120   30.4580   35.2250 N   0  0  0  0  0  0  0  0  0  0  0  0
   35.0660   30.5040   35.0190 C   0  0  0  0  0  0  0  0  0  0  0  0
   35.8170   31.3860   35.6960 N   0  0  0  0  0  0  0  0  0  0  0  0
   35.9300   32.9060   37.0800 H   0  0  0  0  0  0  0  0  0  0  0  0
   33.4510   32.9090   37.5370 H   0  0  0  0  0  0  0  0  0  0  0  0
   32.0300   31.2600   36.2740 H   0  0  0  0  0  0  0  0  0  0  0  0
   37.4230   26.2570   34.0760 C   0  0  0  0  0  0  0  0  0  0  0  0
   37.6800   26.1830   35.4500 C   0  0  0  0  0  0  0  0  0  0  0  0
   37.4920   27.0030   36.1100 H   0  0  0  0  0  0  0  0  0  0  0  0
   38.1940   25.0380   36.0240 C   0  0  0  0  0  3  0  0  0  0  0  0
   38.4650   23.9350   35.2450 C   0  0  0  0  0  0  0  0  0  0  0  0
   38.8720   23.0390   35.7290 H   0  0  0  0  0  0  0  0  0  0  0  0
   38.2110   24.0020   33.8780 C   0  0  0  0  0  0  0  0  0  0  0  0
   38.4180   23.1530   33.2700 H   0  0  0  0  0  0  0  0  0  0  0  0
   37.6950   25.1520   33.2990 C   0  0  0  0  0  3  0  0  0  0  0  0
  1  2  1  0  0  0  0
  2  3  1  0  0  0  0
  3  4  2  0  0  0  0
  3 15  1  0  0  0  0
  4  8  1  0  0  0  0
  5 20  1  0  0  0  0
  5  4  1  0  0  0  0
  6  5  2  0  0  0  0
  7  6  1  0  0  0  0
  7  2  2  0  0  0  0
  9  6  1  0  0  0  0
 10  7  1  0  0  0  0
 11 12  1  0  0  0  0
 11 17  1  0  0  0  0
 12 18  1  0  0  0  0
 13 19  1  0  0  0  0
 13 12  2  0  0  0  0
 14 13  1  0  0  0  0
 15 14  2  0  0  0  0
 15 16  1  0  0  0  0
 16 11  2  0  0  0  0
 20 21  1  0  0  0  0
 21 23  2  0  0  0  0
 21 22  1  0  0  0  0
 24 25  1  0  0  0  0
 24 23  1  0  0  0  0
 26 24  2  0  0  0  0
 27 26  1  0  0  0  0
 28 26  1  0  0  0  0
 28 20  2  0  0  0  0
M  END
>  <minimizedAffinity>
-5.23790264

$$$$

 OpenBabel03272510183D

 28 30  0  0  0  0  0  0  0  0999 V2000
   39.1560   27.4360   30.6170 Br  0  0  0  0  0  0  0  0  0  0  0  0
   38.3160   25.7420   30.8420 C   0  0  0  0  0  0  0  0  0  0  0  0
   37.2210   25.5910   31.6690 C   0  0  0  0  0  0  0  0  0  0  0  0
   36.6620   24.3270   31.7880 C   0  0  0  0  0  0  0  0  0  0  0  0
   37.1530   23.2250   31.1200 C   0  0  0  0  0  0  0  0  0  0  0  0
   38.2400   23.4030   30.3080 C   0  0  0  0  0  0  0  0  0  0  0  0
   38.8060   24.6510   30.1770 C   0  0  0  0  0  0  0  0  0  0  0  0
   35.7960   24.2520   32.4520 H   0  0  0  0  0  0  0  0  0  0  0  0
   38.6770   22.5820   29.7530 H   0  0  0  0  0  0  0  0  0  0  0  0
   39.6670   24.7640   29.5270 H   0  0  0  0  0  0  0  0  0  0  0  0
   36.6160   27.9950   34.3430 C   0  0  0  0  0  0  0  0  0  0  0  0
   35.6720   28.8990   33.7970 C   0  0  0  0  0  0  0  0  0  0  0  0
   35.2580   28.6550   32.4950 C   0  0  0  0  0  0  0  0  0  0  0  0
   35.7650   27.5800   31.8090 N   0  0  0  0  0  0  0  0  0  0  0  0
   36.6780   26.7370   32.3880 C   0  0  0  0  0  0  0  0  0  0  0  0
   37.0900   26.9580   33.6460 N   0  0  0  0  0  0  0  0  0  0  0  0
   36.9980   28.1040   35.3520 H   0  0  0  0  0  0  0  0  0  0  0  0
   35.3170   29.7170   34.3890 H   0  0  0  0  0  0  0  0  0  0  0  0
   34.5360   29.3160   32.0300 H   0  0  0  0  0  0  0  0  0  0  0  0
   36.5330   21.9180   31.2760 C   0  0  0  0  0  0  0  0  0  0  0  0
   35.4010   21.8830   32.0980 C   0  0  0  0  0  0  0  0  0  0  0  0
   35.0190   22.7590   32.5790 H   0  0  0  0  0  0  0  0  0  0  0  0
   34.7170   20.7070   32.3310 C   0  0  0  0  0  3  0  0  0  0  0  0
   35.1430   19.5330   31.7510 C   0  0  0  0  0  0  0  0  0  0  0  0
   34.5800   18.6150   31.9540 H   0  0  0  0  0  0  0  0  0  0  0  0
   36.2690   19.5610   30.9320 C   0  0  0  0  0  0  0  0  0  0  0  0
   36.6030   18.6560   30.4800 H   0  0  0  0  0  0  0  0  0  0  0  0
   36.9570   20.7420   30.6970 C   0  0  0  0  0  3  0  0  0  0  0  0
  1  2  1  0  0  0  0
  2  3  1  0  0  0  0
  3  4  2  0  0  0  0
  3 15  1  0  0  0  0
  4  8  1  0  0  0  0
  5 20  1  0  0  0  0
  5  4  1  0  0  0  0
  6  5  2  0  0  0  0
  7  6  1  0  0  0  0
  7  2  2  0  0  0  0
  9  6  1  0  0  0  0
 10  7  1  0  0  0  0
 11 17  1  0  0  0  0
 12 11  1  0  0  0  0
 12 18  1  0  0  0  0
 13 12  2  0  0  0  0
 14 15  2  0  0  0  0
 14 13  1  0  0  0  0
 15 16  1  0  0  0  0
 16 11  2  0  0  0  0
 19 13  1  0  0  0  0
 20 21  1  0  0  0  0
 21 23  2  0  0  0  0
 21 22  1  0  0  0  0
 24 25  1  0  0  0  0
 24 23  1  0  0  0  0
 26 24  2  0  0  0  0
 27 26  1  0  0  0  0
 28 26  1  0  0  0  0
 28 20  2  0  0  0  0
M  END
>  <minimizedAffinity>
-5.17713785

$$$$

 OpenBabel03272510183D

 28 30  0  0  0  0  0  0  0  0999 V2000
   36.4100   29.2500   31.4740 Br  0  0  0  0  0  0  0  0  0  0  0  0
   37.0020   27.9700   32.7540 C   0  0  0  0  0  0  0  0  0  0  0  0
   36.6400   28.0680   34.0820 C   0  0  0  0  0  0  0  0  0  0  0  0
   37.1110   27.1030   34.9600 C   0  0  0  0  0  0  0  0  0  0  0  0
   37.9190   26.0580   34.5630 C   0  0  0  0  0  0  0  0  0  0  0  0
   38.2630   25.9870   33.2400 C   0  0  0  0  0  0  0  0  0  0  0  0
   37.8040   26.9360   32.3550 C   0  0  0  0  0  0  0  0  0  0  0  0
   36.7990   27.2170   36.0030 H   0  0  0  0  0  0  0  0  0  0  0  0
   38.8950   25.1940   32.8590 H   0  0  0  0  0  0  0  0  0  0  0  0
   38.0920   26.8550   31.3130 H   0  0  0  0  0  0  0  0  0  0  0  0
   33.6450   30.0530   34.7010 C   0  0  0  0  0  0  0  0  0  0  0  0
   34.1190   31.2080   35.3700 C   0  0  0  0  0  0  0  0  0  0  0  0
   35.4860   31.2770   35.5970 C   0  0  0  0  0  0  0  0  0  0  0  0
   36.2990   30.2540   35.1770 N   0  0  0  0  0  0  0  0  0  0  0  0
   35.7850   29.1590   34.5340 C   0  0  0  0  0  0  0  0  0  0  0  0
   34.4650   29.0750   34.3060 N   0  0  0  0  0  0  0  0  0  0  0  0
   32.5930   29.9100   34.4790 H   0  0  0  0  0  0  0  0  0  0  0  0
   33.4290   31.9690   35.6690 H   0  0  0  0  0  0  0  0  0  0  0  0
   35.9020   32.1400   36.1050 H   0  0  0  0  0  0  0  0  0  0  0  0
   38.3890   25.0680   35.5200 C   0  0  0  0  0  0  0  0  0  0  0  0
   37.6960   25.0320   36.7360 C   0  0  0  0  0  0  0  0  0  0  0  0
   36.8780   25.6870   36.9450 H   0  0  0  0  0  0  0  0  0  0  0  0
   38.0400   24.1400   37.7320 C   0  0  0  0  0  3  0  0  0  0  0  0
   39.0820   23.2600   37.5430 C   0  0  0  0  0  0  0  0  0  0  0  0
   39.3320   22.5630   38.3520 H   0  0  0  0  0  0  0  0  0  0  0  0
   39.7750   23.2920   36.3350 C   0  0  0  0  0  0  0  0  0  0  0  0
   40.5820   22.6140   36.1840 H   0  0  0  0  0  0  0  0  0  0  0  0
   39.4320   24.1880   35.3340 C   0  0  0  0  0  3  0  0  0  0  0  0
  1  2  1  0  0  0  0
  2  3  1  0  0  0  0
  3 15  1  0  0  0  0
  3  4  2  0  0  0  0
  4  8  1  0  0  0  0
  5  4  1  0  0  0  0
  5 20  1  0  0  0  0
  6  5  2  0  0  0  0
  7  2  2  0  0  0  0
  7  6  1  0  0  0  0
  9  6  1  0  0  0  0
 10  7  1  0  0  0  0
 11 12  1  0  0  0  0
 12 13  2  0  0  0  0
 12 18  1  0  0  0  0
 13 19  1  0  0  0  0
 14 13  1  0  0  0  0
 15 14  2  0  0  0  0
 16 15  1  0  0  0  0
 16 11  2  0  0  0  0
 17 11  1  0  0  0  0
 20 21  1  0  0  0  0
 21 22  1  0  0  0  0
 21 23  2  0  0  0  0
 24 23  1  0  0  0  0
 24 25  1  0  0  0  0
 26 24  2  0  0  0  0
 27 26  1  0  0  0  0
 28 20  2  0  0  0  0
 28 26  1  0  0  0  0
M  END
>  <minimizedAffinity>
-5.14643812

$$$$

 OpenBabel03272510183D

 28 30  0  0  0  0  0  0  0  0999 V2000
   38.4260   21.8640   33.3070 Br  0  0  0  0  0  0  0  0  0  0  0  0
   37.8770   23.6870   33.2800 C   0  0  0  0  0  0  0  0  0  0  0  0
   38.0290   24.4950   34.3880 C   0  0  0  0  0  0  0  0  0  0  0  0
   37.6030   25.8120   34.2980 C   0  0  0  0  0  0  0  0  0  0  0  0
   37.0390   26.3420   33.1560 C   0  0  0  0  0  0  0  0  0  0  0  0
   36.9000   25.5170   32.0730 C   0  0  0  0  0  0  0  0  0  0  0  0
   37.3170   24.2070   32.1450 C   0  0  0  0  0  0  0  0  0  0  0  0
   37.7430   26.4190   35.1980 H   0  0  0  0  0  0  0  0  0  0  0  0
   36.4650   25.8660   31.1450 H   0  0  0  0  0  0  0  0  0  0  0  0
   37.1950   23.5760   31.2720 H   0  0  0  0  0  0  0  0  0  0  0  0
   40.5130   23.1610   36.6990 C   0  0  0  0  0  0  0  0  0  0  0  0
   39.7980   22.9540   37.9050 C   0  0  0  0  0  0  0  0  0  0  0  0
   38.4510   23.2860   37.8930 C   0  0  0  0  0  0  0  0  0  0  0  0
   37.8820   23.7860   36.7480 N   0  0  0  0  0  0  0  0  0  0  0  0
   38.6230   23.9660   35.6100 C   0  0  0  0  0  0  0  0  0  0  0  0
   39.9280   23.6510   35.6020 N   0  0  0  0  0  0  0  0  0  0  0  0
   41.5700   22.9320   36.6120 H   0  0  0  0  0  0  0  0  0  0  0  0
   40.3040   22.5590   38.7610 H   0  0  0  0  0  0  0  0  0  0  0  0
   37.8570   23.1470   38.7880 H   0  0  0  0  0  0  0  0  0  0  0  0
   36.6070   27.7300   33.1090 C   0  0  0  0  0  0  0  0  0  0  0  0
   36.2380   28.2880   34.3380 C   0  0  0  0  0  0  0  0  0  0  0  0
   36.2720   27.7300   35.2500 H   0  0  0  0  0  0  0  0  0  0  0  0
   35.8100   29.5970   34.4350 C   0  0  0  0  0  3  0  0  0  0  0  0
   35.7370   30.3850   33.3080 C   0  0  0  0  0  0  0  0  0  0  0  0
   35.3930   31.4200   33.4150 H   0  0  0  0  0  0  0  0  0  0  0  0
   36.1030   29.8360   32.0820 C   0  0  0  0  0  0  0  0  0  0  0  0
   36.0490   30.4410   31.2070 H   0  0  0  0  0  0  0  0  0  0  0  0
   36.5330   28.5210   31.9830 C   0  0  0  0  0  3  0  0  0  0  0  0
  2  1  1  0  0  0  0
  2  3  1  0  0  0  0
  3 15  1  0  0  0  0
  4  3  2  0  0  0  0
  4  8  1  0  0  0  0
  5  4  1  0  0  0  0
  6  7  1  0  0  0  0
  6  5  2  0  0  0  0
  7  2  2  0  0  0  0
  9  6  1  0  0  0  0
 10  7  1  0  0  0  0
 11 12  1  0  0  0  0
 12 18  1  0  0  0  0
 13 12  2  0  0  0  0
 13 19  1  0  0  0  0
 14 13  1  0  0  0  0
 15 14  2  0  0  0  0
 16 15  1  0  0  0  0
 16 11  2  0  0  0  0
 17 11  1  0  0  0  0
 20  5  1  0  0  0  0
 20 21  1  0  0  0  0
 21 23  2  0  0  0  0
 21 22  1  0  0  0  0
 24 25  1  0  0  0  0
 24 23  1  0  0  0  0
 26 24  2  0  0  0  0
 27 26  1  0  0  0  0
 28 26  1  0  0  0  0
 28 20  2  0  0  0  0
M  END
>  <minimizedAffinity>
-5.05668831

$$$$

 OpenBabel03272510183D

 28 30  0  0  0  0  0  0  0  0999 V2000
   39.0640   26.4480   34.9130 Br  0  0  0  0  0  0  0  0  0  0  0  0
   38.4490   24.9040   33.9840 C   0  0  0  0  0  0  0  0  0  0  0  0
   38.2330   23.7120   34.6450 C   0  0  0  0  0  0  0  0  0  0  0  0
   37.7880   22.6260   33.9040 C   0  0  0  0  0  0  0  0  0  0  0  0
   37.5570   22.6900   32.5460 C   0  0  0  0  0  0  0  0  0  0  0  0
   37.7810   23.8840   31.9170 C   0  0  0  0  0  0  0  0  0  0  0  0
   38.2220   24.9720   32.6370 C   0  0  0  0  0  0  0  0  0  0  0  0
   37.6280   21.7010   34.4660 H   0  0  0  0  0  0  0  0  0  0  0  0
   37.6200   24.0060   30.8530 H   0  0  0  0  0  0  0  0  0  0  0  0
   38.3910   25.9060   32.1130 H   0  0  0  0  0  0  0  0  0  0  0  0
   39.8640   22.9390   37.8130 C   0  0  0  0  0  0  0  0  0  0  0  0
   38.9550   23.3960   38.7990 C   0  0  0  0  0  0  0  0  0  0  0  0
   37.7780   23.9720   38.3390 C   0  0  0  0  0  0  0  0  0  0  0  0
   37.5500   24.0720   36.9900 N   0  0  0  0  0  0  0  0  0  0  0  0
   38.4660   23.6120   36.0810 C   0  0  0  0  0  0  0  0  0  0  0  0
   39.6090   23.0530   36.5050 N   0  0  0  0  0  0  0  0  0  0  0  0
   40.8090   22.4750   38.0750 H   0  0  0  0  0  0  0  0  0  0  0  0
   39.1960   23.2860   39.8350 H   0  0  0  0  0  0  0  0  0  0  0  0
   37.0480   24.3380   39.0510 H   0  0  0  0  0  0  0  0  0  0  0  0
   37.0900   21.5240   31.8110 C   0  0  0  0  0  0  0  0  0  0  0  0
   37.8610   21.1650   30.7000 C   0  0  0  0  0  0  0  0  0  0  0  0
   38.7340   21.7110   30.4120 H   0  0  0  0  0  0  0  0  0  0  0  0
   37.5300   20.0790   29.9150 C   0  0  0  0  0  3  0  0  0  0  0  0
   36.4200   19.3210   30.2160 C   0  0  0  0  0  0  0  0  0  0  0  0
   36.1810   18.4650   29.5760 H   0  0  0  0  0  0  0  0  0  0  0  0
   35.6480   19.6740   31.3210 C   0  0  0  0  0  0  0  0  0  0  0  0
   34.7890   19.0920   31.5590 H   0  0  0  0  0  0  0  0  0  0  0  0
   35.9800   20.7650   32.1100 C   0  0  0  0  0  3  0  0  0  0  0  0
  2  3  1  0  0  0  0
  2  1  1  0  0  0  0
  3 15  1  0  0  0  0
  4  8  1  0  0  0  0
  4  3  2  0  0  0  0
  5  4  1  0  0  0  0
  6  5  2  0  0  0  0
  6  7  1  0  0  0  0
  7  2  2  0  0  0  0
  9  6  1  0  0  0  0
 10  7  1  0  0  0  0
 11 17  1  0  0  0  0
 11 12  1  0  0  0  0
 12 18  1  0  0  0  0
 13 12  2  0  0  0  0
 13 19  1  0  0  0  0
 14 13  1  0  0  0  0
 15 16  1  0  0  0  0
 15 14  2  0  0  0  0
 16 11  2  0  0  0  0
 20 28  1  0  0  0  0
 20  5  1  0  0  0  0
 21 20  2  0  0  0  0
 22 21  1  0  0  0  0
 23 24  2  0  0  0  0
 23 21  1  0  0  0  0
 24 26  1  0  0  0  0
 25 24  1  0  0  0  0
 26 27  1  0  0  0  0
 26 28  2  0  0  0  0
M  END
>  <minimizedAffinity>
-5.0514369

$$$$

 OpenBabel03272510183D

 28 30  0  0  0  0  0  0  0  0999 V2000
   35.6830   32.6830   32.0500 Br  0  0  0  0  0  0  0  0  0  0  0  0
   35.8030   30.7840   32.0050 C   0  0  0  0  0  0  0  0  0  0  0  0
   35.4580   30.0200   33.1020 C   0  0  0  0  0  0  0  0  0  0  0  0
   35.5730   28.6410   33.0000 C   0  0  0  0  0  0  0  0  0  0  0  0
   36.0140   28.0090   31.8560 C   0  0  0  0  0  0  0  0  0  0  0  0
   36.3490   28.7910   30.7850 C   0  0  0  0  0  0  0  0  0  0  0  0
   36.2410   30.1610   30.8690 C   0  0  0  0  0  0  0  0  0  0  0  0
   35.2900   28.0740   33.8920 H   0  0  0  0  0  0  0  0  0  0  0  0
   36.7030   28.3610   29.8550 H   0  0  0  0  0  0  0  0  0  0  0  0
   36.5120   30.7560   30.0040 H   0  0  0  0  0  0  0  0  0  0  0  0
   33.1880   31.3310   35.6360 C   0  0  0  0  0  0  0  0  0  0  0  0
   34.0420   31.8660   36.6330 C   0  0  0  0  0  0  0  0  0  0  0  0
   35.4070   31.7600   36.4030 C   0  0  0  0  0  0  0  0  0  0  0  0
   35.8600   31.1590   35.2550 N   0  0  0  0  0  0  0  0  0  0  0  0
   34.9870   30.6580   34.3260 C   0  0  0  0  0  0  0  0  0  0  0  0
   33.6640   30.7520   34.5300 N   0  0  0  0  0  0  0  0  0  0  0  0
   32.1080   31.3680   35.7270 H   0  0  0  0  0  0  0  0  0  0  0  0
   33.6210   32.3220   37.5030 H   0  0  0  0  0  0  0  0  0  0  0  0
   36.1050   32.1530   37.1330 H   0  0  0  0  0  0  0  0  0  0  0  0
   36.1180   26.5590   31.7960 C   0  0  0  0  0  0  0  0  0  0  0  0
   37.1140   25.9930   32.6010 C   0  0  0  0  0  0  0  0  0  0  0  0
   37.7540   26.5870   33.2170 H   0  0  0  0  0  0  0  0  0  0  0  0
   37.3190   24.6280   32.6370 C   0  0  0  0  0  3  0  0  0  0  0  0
   36.5380   23.7910   31.8720 C   0  0  0  0  0  0  0  0  0  0  0  0
   36.7240   22.7120   31.9210 H   0  0  0  0  0  0  0  0  0  0  0  0
   35.5460   24.3480   31.0690 C   0  0  0  0  0  0  0  0  0  0  0  0
   34.9390   23.7060   30.4760 H   0  0  0  0  0  0  0  0  0  0  0  0
   35.3380   25.7190   31.0310 C   0  0  0  0  0  3  0  0  0  0  0  0
  2  1  1  0  0  0  0
  2  3  1  0  0  0  0
  3 15  1  0  0  0  0
  4  3  2  0  0  0  0
  4  8  1  0  0  0  0
  5  4  1  0  0  0  0
  6  7  1  0  0  0  0
  6  5  2  0  0  0  0
  7  2  2  0  0  0  0
  9  6  1  0  0  0  0
 10  7  1  0  0  0  0
 11 17  1  0  0  0  0
 11 12  1  0  0  0  0
 12 18  1  0  0  0  0
 13 12  2  0  0  0  0
 13 19  1  0  0  0  0
 14 13  1  0  0  0  0
 15 16  1  0  0  0  0
 15 14  2  0  0  0  0
 16 11  2  0  0  0  0
 20  5  1  0  0  0  0
 20 21  1  0  0  0  0
 21 23  2  0  0  0  0
 21 22  1  0  0  0  0
 24 25  1  0  0  0  0
 24 23  1  0  0  0  0
 26 24  2  0  0  0  0
 27 26  1  0  0  0  0
 28 26  1  0  0  0  0
 28 20  2  0  0  0  0
M  END
>  <minimizedAffinity>
-4.99712849

$$$$
