
 OpenBabel03272508483D

 40 44  0  0  0  0  0  0  0  0999 V2000
   34.0620   29.3810   47.9100 C   0  0  0  0  0  0  0  0  0  0  0  0
   34.2970   28.3120   47.0530 C   0  0  0  0  0  0  0  0  0  0  0  0
   33.9090   28.8060   45.8100 C   0  0  0  0  0  0  0  0  0  0  0  0
   33.4730   30.1030   45.9590 C   0  0  0  0  0  0  0  0  0  0  0  0
   33.5830   30.4040   47.2300 O   0  0  0  0  0  0  0  0  0  0  0  0
   34.6800   27.3500   47.3040 H   0  0  0  0  0  0  0  0  0  0  0  0
   33.9590   28.2210   44.8890 H   0  0  0  0  0  0  0  0  0  0  0  0
   33.6030   31.0090   43.6870 C   0  0  0  0  0  0  0  0  0  0  0  0
   32.9800   30.9880   44.9130 C   0  0  0  0  0  0  0  0  0  0  0  0
   31.8840   31.7950   45.1810 C   0  0  0  0  0  0  0  0  0  0  0  0
   31.3750   32.6580   44.2140 C   0  0  0  0  0  0  0  0  0  0  0  0
   30.3650   33.5380   44.1540 N   0  0  0  0  0  0  0  0  0  0  0  0
   30.3840   34.0690   42.9320 N   0  0  0  0  0  0  0  0  0  0  0  0
   31.3890   33.5420   42.2060 C   0  0  0  0  0  0  0  0  0  0  0  0
   32.0480   32.6260   43.0130 C   0  0  0  0  0  0  0  0  0  0  0  0
   33.1400   31.8530   42.6750 C   0  0  0  0  0  0  0  0  0  0  0  0
   34.4570   30.3700   43.5000 H   0  0  0  0  0  0  0  0  0  0  0  0
   31.3960   31.7700   46.1600 H   0  0  0  0  0  0  0  0  0  0  0  0
   29.7460   33.6920   44.9790 H   0  0  0  0  0  0  0  0  0  0  0  0
   31.6020   33.8260   41.1710 H   0  0  0  0  0  0  0  0  0  0  0  0
   33.5890   31.9070   41.7070 H   0  0  0  0  0  0  0  0  0  0  0  0
   34.3190   29.3450   49.3380 C   0  0  0  0  0  0  0  0  0  0  0  0
   33.4230   28.9100   50.0850 O   0  0  0  0  0  0  0  0  0  0  0  0
   37.1550   29.7880   51.5830 C   0  0  0  0  0  0  0  0  0  0  0  0
   37.9800   30.6470   50.8850 C   0  0  0  0  0  0  0  0  0  0  0  0
   37.5870   31.0880   49.6490 C   0  0  0  0  0  0  0  0  0  0  0  0
   36.4120   30.6660   49.1580 N   0  0  0  0  0  0  0  0  0  0  0  0
   35.6050   29.8140   49.8600 C   0  0  0  0  0  0  0  0  0  0  0  0
   35.9920   29.3840   51.0720 N   0  0  0  0  0  0  0  0  0  0  0  0
   37.4430   29.4260   52.5620 H   0  0  0  0  0  0  0  0  0  0  0  0
   38.9220   30.9770   51.2930 H   0  0  0  0  0  0  0  0  0  0  0  0
   38.3710   31.9950   48.8200 C   0  0  0  0  0  0  0  0  0  0  0  0
   38.7800   33.1890   49.3750 C   0  0  0  0  0  0  0  0  0  0  0  0
   38.5480   33.4790   50.3860 H   0  0  0  0  0  0  0  0  0  0  0  0
   39.5370   34.1260   48.6620 C   0  0  0  0  0  0  0  0  0  0  0  0
   39.9000   33.8740   47.3560 C   0  0  0  0  0  0  0  0  0  0  0  0
   40.4820   34.5920   46.8030 H   0  0  0  0  0  0  0  0  0  0  0  0
   39.4760   32.6660   46.8210 C   0  0  0  0  0  0  0  0  0  0  0  0
   39.7700   32.4860   45.7970 H   0  0  0  0  0  0  0  0  0  0  0  0
   38.7360   31.7470   47.5180 C   0  0  0  0  0  0  0  0  0  0  0  0
  1 22  1  0  0  0  0
  2  6  1  0  0  0  0
  2  1  2  0  0  0  0
  3  4  2  0  0  0  0
  3  2  1  0  0  0  0
  4  5  1  0  0  0  0
  5  1  1  0  0  0  0
  7  3  1  0  0  0  0
  8  9  1  0  0  0  0
  9 10  2  0  0  0  0
  9  4  1  0  0  0  0
 10 18  1  0  0  0  0
 11 10  1  0  0  0  0
 12 11  1  0  0  0  0
 12 19  1  0  0  0  0
 13 12  1  0  0  0  0
 14 13  2  0  0  0  0
 14 15  1  0  0  0  0
 15 11  2  0  0  0  0
 16 15  1  0  0  0  0
 16  8  2  0  0  0  0
 17  8  1  0  0  0  0
 20 14  1  0  0  0  0
 21 16  1  0  0  0  0
 22 28  1  0  0  0  0
 22 23  2  0  0  0  0
 24 30  1  0  0  0  0
 25 31  1  0  0  0  0
 25 24  2  0  0  0  0
 26 25  1  0  0  0  0
 27 26  2  0  0  0  0
 27 28  1  0  0  0  0
 28 29  2  0  0  0  0
 29 24  1  0  0  0  0
 32 33  1  0  0  0  0
 32 26  1  0  0  0  0
 33 34  1  0  0  0  0
 35 33  2  0  0  0  0
 36 35  1  0  0  0  0
 37 36  1  0  0  0  0
 38 36  2  0  0  0  0
 38 40  1  0  0  0  0
 39 38  1  0  0  0  0
 40 32  2  0  0  0  0
M  END
>  <minimizedAffinity>
-6.92429209

>  <minimizedRMSD>
7.14246988

$$$$
