
 OpenBabel03272505353D

 35 37  0  0  1  0  0  0  0  0999 V2000
   37.3320   30.4230   49.4360 C   0  0  0  0  0  0  0  0  0  0  0  0
   37.2690   31.6610   50.0560 C   0  0  0  0  0  0  0  0  0  0  0  0
   37.7240   32.7760   49.3340 C   0  0  0  0  0  0  0  0  0  0  0  0
   38.2000   32.5650   48.0630 N   0  0  0  0  0  0  0  0  0  0  0  0
   38.2400   31.3450   47.5070 C   0  0  0  0  0  0  0  0  0  0  0  0
   37.8110   30.2960   48.1880 N   0  0  0  0  0  0  0  0  0  0  0  0
   38.7540   31.2570   46.1890 N   0  0  0  0  0  0  0  0  0  0  0  0
   40.1700   31.0420   45.9930 C   0  0  0  0  0  0  0  0  0  0  0  0
   40.7050   31.9100   44.8700 C   0  0  0  0  0  0  0  0  0  0  0  0
   39.8710   31.8650   43.7010 N   0  0  0  0  0  0  0  0  0  0  0  0
   38.7540   30.9940   43.8140 C   0  0  0  0  0  0  0  0  0  0  0  0
   37.8860   31.3800   45.0190 C   0  0  1  0  0  0  0  0  0  0  0  0
   36.8920   31.8190   51.0590 H   0  0  0  0  0  0  0  0  0  0  0  0
   37.7130   33.7760   49.7330 H   0  0  0  0  0  0  0  0  0  0  0  0
   40.7460   31.2510   46.9070 H   0  0  0  0  0  0  0  0  0  0  0  0
   40.3820   29.9670   45.7200 H   0  0  0  0  0  0  0  0  0  0  0  0
   40.8160   32.9540   45.2720 H   0  0  0  0  0  0  0  0  0  0  0  0
   41.7360   31.5770   44.6370 H   0  0  0  0  0  0  0  0  0  0  0  0
   39.5030   32.8320   43.5350 H   0  0  0  0  0  0  0  0  0  0  0  0
   39.1060   29.9660   44.0540 H   0  0  0  0  0  0  0  0  0  0  0  0
   38.1860   31.0010   42.8790 H   0  0  0  0  0  0  0  0  0  0  0  0
   37.6860   32.4650   44.8990 H   0  0  0  0  0  0  0  0  0  0  0  0
   36.6820   30.5410   45.1040 C   0  0  0  0  0  0  0  0  0  0  0  0
   36.5000   29.6570   44.0470 C   0  0  0  0  0  0  0  0  0  0  0  0
   37.1530   29.5450   43.2020 H   0  0  0  0  0  0  0  0  0  0  0  0
   35.3910   28.8280   44.0470 C   0  0  0  0  0  0  0  0  0  0  0  0
   34.5030   28.9130   45.1000 C   0  0  0  0  0  0  0  0  0  0  0  0
   33.6280   28.2860   45.1370 H   0  0  0  0  0  0  0  0  0  0  0  0
   34.6580   29.7930   46.1790 C   0  0  0  0  0  0  0  0  0  0  0  0
   33.9300   29.8180   46.9810 H   0  0  0  0  0  0  0  0  0  0  0  0
   35.7860   30.6200   46.1580 C   0  0  0  0  0  0  0  0  0  0  0  0
   36.8510   29.2230   50.1930 C   0  0  0  0  0  0  0  0  0  0  0  0
   35.9970   28.4720   49.4050 F   0  0  0  0  0  0  0  0  0  0  0  0
   37.9430   28.5430   50.6540 F   0  0  0  0  0  0  0  0  0  0  0  0
   36.0820   29.7080   51.2670 F   0  0  0  0  0  0  0  0  0  0  0  0
  1  2  1  0  0  0  0
  1 32  1  0  0  0  0
  2 13  1  0  0  0  0
  3 14  1  0  0  0  0
  3  2  2  0  0  0  0
  4  3  1  0  0  0  0
  5  4  2  0  0  0  0
  5  6  1  0  0  0  0
  6  1  2  0  0  0  0
  7  5  1  0  0  0  0
  8  7  1  0  0  0  0
  8 15  1  0  0  0  0
  9 17  1  0  0  0  0
  9  8  1  0  0  0  0
 10 11  1  0  0  0  0
 10  9  1  0  0  0  0
 11 20  1  0  0  0  0
 11 12  1  0  0  0  0
 12 22  1  6  0  0  0
 12 23  1  0  0  0  0
 12  7  1  0  0  0  0
 16  8  1  0  0  0  0
 18  9  1  0  0  0  0
 19 10  1  0  0  0  0
 21 11  1  0  0  0  0
 23 31  1  0  0  0  0
 24 23  2  0  0  0  0
 25 24  1  0  0  0  0
 26 24  1  0  0  0  0
 26 27  2  0  0  0  0
 27 28  1  0  0  0  0
 27 29  1  0  0  0  0
 29 30  1  0  0  0  0
 31 29  2  0  0  0  0
 32 34  1  0  0  0  0
 32 35  1  0  0  0  0
 33 32  1  0  0  0  0
M  END
>  <minimizedAffinity>
-6.32779455

>  <minimizedRMSD>
1.66987383

$$$$
