
 OpenBabel03272508463D

 27 29  0  0  0  0  0  0  0  0999 V2000
   36.6470   28.6150   32.6960 C   0  0  0  0  0  0  0  0  0  0  0  0
   36.3350   29.6350   31.8290 C   0  0  0  0  0  0  0  0  0  0  0  0
   35.6180   30.5260   32.6200 C   0  0  0  0  0  0  0  0  0  0  0  0
   35.5320   30.0210   33.8920 C   0  0  0  0  0  0  0  0  0  0  0  0
   36.1540   28.8820   33.9010 O   0  0  0  0  0  0  0  0  0  0  0  0
   36.5690   29.7620   30.7690 H   0  0  0  0  0  0  0  0  0  0  0  0
   35.2020   31.4710   32.2630 H   0  0  0  0  0  0  0  0  0  0  0  0
   34.8560   30.6670   35.0110 C   0  0  0  0  0  0  0  0  0  0  0  0
   33.5170   30.4610   35.2630 C   0  0  0  0  0  0  0  0  0  0  0  0
   32.9260   29.8120   34.6360 H   0  0  0  0  0  0  0  0  0  0  0  0
   32.8540   31.0730   36.3320 C   0  0  0  0  0  3  0  0  0  0  0  0
   33.5560   31.9210   37.1770 C   0  0  0  0  0  0  0  0  0  0  0  0
   33.0850   32.4140   38.0130 H   0  0  0  0  0  0  0  0  0  0  0  0
   34.8910   32.1100   36.9030 C   0  0  0  0  0  0  0  0  0  0  0  0
   35.4960   32.7650   37.5320 H   0  0  0  0  0  0  0  0  0  0  0  0
   35.5360   31.5090   35.8590 C   0  0  0  0  0  3  0  0  0  0  0  0
   37.4080   27.4230   32.3220 C   0  0  0  0  0  0  0  0  0  0  0  0
   38.6650   27.4910   32.3540 O   0  0  0  0  0  0  0  0  0  0  0  0
   36.6270   23.8840   31.9560 C   0  0  0  0  0  0  0  0  0  0  0  0
   35.4440   23.8940   31.2180 C   0  0  0  0  0  0  0  0  0  0  0  0
   34.9020   25.1110   30.8370 C   0  0  0  0  0  0  0  0  0  0  0  0
   35.5680   26.2230   31.2150 N   0  0  0  0  0  0  0  0  0  0  0  0
   36.7100   26.2070   31.9280 C   0  0  0  0  0  0  0  0  0  0  0  0
   37.2460   25.0300   32.3040 N   0  0  0  0  0  0  0  0  0  0  0  0
   37.0310   22.9110   32.2430 H   0  0  0  0  0  0  0  0  0  0  0  0
   34.9950   22.9400   30.9710 H   0  0  0  0  0  0  0  0  0  0  0  0
   33.9890   25.1110   30.2690 H   0  0  0  0  0  0  0  0  0  0  0  0
  1  5  1  0  0  0  0
  2  3  1  0  0  0  0
  2  1  2  0  0  0  0
  3  4  2  0  0  0  0
  4  5  1  0  0  0  0
  4  8  1  0  0  0  0
  6  2  1  0  0  0  0
  7  3  1  0  0  0  0
  8  9  2  0  0  0  0
  8 16  1  0  0  0  0
  9 11  1  0  0  0  0
 10  9  1  0  0  0  0
 11 12  2  0  0  0  0
 12 13  1  0  0  0  0
 14 12  1  0  0  0  0
 14 15  1  0  0  0  0
 16 14  2  0  0  0  0
 17 18  2  0  0  0  0
 17  1  1  0  0  0  0
 19 25  1  0  0  0  0
 19 24  1  0  0  0  0
 20 19  2  0  0  0  0
 21 22  2  0  0  0  0
 21 20  1  0  0  0  0
 22 23  1  0  0  0  0
 23 24  2  0  0  0  0
 23 17  1  0  0  0  0
 26 20  1  0  0  0  0
 27 21  1  0  0  0  0
M  END
>  <minimizedAffinity>
-5.32324028

$$$$

 OpenBabel03272508463D

 27 29  0  0  0  0  0  0  0  0999 V2000
   38.0790   25.4950   35.8420 C   0  0  0  0  0  0  0  0  0  0  0  0
   38.3380   26.6880   36.4720 C   0  0  0  0  0  0  0  0  0  0  0  0
   38.0370   27.6390   35.5040 C   0  0  0  0  0  0  0  0  0  0  0  0
   37.6220   26.9980   34.3650 C   0  0  0  0  0  0  0  0  0  0  0  0
   37.6590   25.7230   34.6020 O   0  0  0  0  0  0  0  0  0  0  0  0
   38.6950   26.8930   37.4850 H   0  0  0  0  0  0  0  0  0  0  0  0
   38.1250   28.7180   35.6510 H   0  0  0  0  0  0  0  0  0  0  0  0
   37.2180   27.6550   33.1280 C   0  0  0  0  0  0  0  0  0  0  0  0
   37.9480   27.5230   31.9670 C   0  0  0  0  0  0  0  0  0  0  0  0
   38.8450   26.9250   31.9390 H   0  0  0  0  0  0  0  0  0  0  0  0
   37.5740   28.1460   30.7710 C   0  0  0  0  0  3  0  0  0  0  0  0
   36.4300   28.9300   30.7390 C   0  0  0  0  0  0  0  0  0  0  0  0
   36.1050   29.4300   29.8390 H   0  0  0  0  0  0  0  0  0  0  0  0
   35.7200   29.0470   31.9120 C   0  0  0  0  0  0  0  0  0  0  0  0
   34.8110   29.6500   31.9480 H   0  0  0  0  0  0  0  0  0  0  0  0
   36.0870   28.4350   33.0760 C   0  0  0  0  0  3  0  0  0  0  0  0
   38.2490   24.1820   36.4650 C   0  0  0  0  0  0  0  0  0  0  0  0
   37.2370   23.6370   36.9810 O   0  0  0  0  0  0  0  0  0  0  0  0
   40.9840   21.9840   37.4430 C   0  0  0  0  0  0  0  0  0  0  0  0
   41.9960   22.3160   36.5440 C   0  0  0  0  0  0  0  0  0  0  0  0
   41.7540   23.2950   35.5940 C   0  0  0  0  0  0  0  0  0  0  0  0
   40.5320   23.8700   35.6050 N   0  0  0  0  0  0  0  0  0  0  0  0
   39.5580   23.5450   36.4760 C   0  0  0  0  0  0  0  0  0  0  0  0
   39.7820   22.5950   37.4040 N   0  0  0  0  0  0  0  0  0  0  0  0
   41.2020   21.2090   38.1810 H   0  0  0  0  0  0  0  0  0  0  0  0
   42.9380   21.7890   36.6270 H   0  0  0  0  0  0  0  0  0  0  0  0
   42.5390   23.5460   34.9030 H   0  0  0  0  0  0  0  0  0  0  0  0
  1 17  1  0  0  0  0
  1  2  2  0  0  0  0
  2  6  1  0  0  0  0
  3  7  1  0  0  0  0
  3  2  1  0  0  0  0
  4  5  1  0  0  0  0
  4  3  2  0  0  0  0
  5  1  1  0  0  0  0
  8  4  1  0  0  0  0
  9  8  2  0  0  0  0
 10  9  1  0  0  0  0
 11  9  1  0  0  0  0
 12 11  2  0  0  0  0
 12 14  1  0  0  0  0
 13 12  1  0  0  0  0
 14 15  1  0  0  0  0
 14 16  2  0  0  0  0
 16  8  1  0  0  0  0
 17 23  1  0  0  0  0
 17 18  2  0  0  0  0
 19 25  1  0  0  0  0
 20 26  1  0  0  0  0
 20 19  2  0  0  0  0
 21 22  2  0  0  0  0
 21 20  1  0  0  0  0
 22 23  1  0  0  0  0
 23 24  2  0  0  0  0
 24 19  1  0  0  0  0
 27 21  1  0  0  0  0
M  END
>  <minimizedAffinity>
-5.32210016

$$$$

 OpenBabel03272508463D

 27 29  0  0  0  0  0  0  0  0999 V2000
   38.0720   25.4680   35.8550 C   0  0  0  0  0  0  0  0  0  0  0  0
   38.3420   26.6620   36.4820 C   0  0  0  0  0  0  0  0  0  0  0  0
   38.0510   27.6120   35.5100 C   0  0  0  0  0  0  0  0  0  0  0  0
   37.6300   26.9710   34.3730 C   0  0  0  0  0  0  0  0  0  0  0  0
   37.6550   25.6960   34.6140 O   0  0  0  0  0  0  0  0  0  0  0  0
   38.7000   26.8660   37.4950 H   0  0  0  0  0  0  0  0  0  0  0  0
   38.1490   28.6900   35.6540 H   0  0  0  0  0  0  0  0  0  0  0  0
   37.2330   27.6280   33.1340 C   0  0  0  0  0  0  0  0  0  0  0  0
   36.0890   28.3920   33.0550 C   0  0  0  0  0  0  0  0  0  0  0  0
   35.4490   28.5260   33.9140 H   0  0  0  0  0  0  0  0  0  0  0  0
   35.6930   29.0300   31.8750 C   0  0  0  0  0  3  0  0  0  0  0  0
   36.4710   28.8980   30.7340 C   0  0  0  0  0  0  0  0  0  0  0  0
   36.2040   29.3720   29.8020 H   0  0  0  0  0  0  0  0  0  0  0  0
   37.6080   28.1300   30.8390 C   0  0  0  0  0  0  0  0  0  0  0  0
   38.2610   27.9900   29.9750 H   0  0  0  0  0  0  0  0  0  0  0  0
   37.9920   27.5100   31.9940 C   0  0  0  0  0  3  0  0  0  0  0  0
   38.2300   24.1560   36.4830 C   0  0  0  0  0  0  0  0  0  0  0  0
   37.2130   23.6240   37.0020 O   0  0  0  0  0  0  0  0  0  0  0  0
   41.6440   23.3020   35.5450 C   0  0  0  0  0  0  0  0  0  0  0  0
   41.9910   22.3180   36.4710 C   0  0  0  0  0  0  0  0  0  0  0  0
   41.0610   21.9380   37.4240 C   0  0  0  0  0  0  0  0  0  0  0  0
   39.8620   22.5560   37.3910 N   0  0  0  0  0  0  0  0  0  0  0  0
   39.5320   23.5050   36.4950 C   0  0  0  0  0  0  0  0  0  0  0  0
   40.4270   23.8840   35.5630 N   0  0  0  0  0  0  0  0  0  0  0  0
   42.3950   23.5830   34.8050 H   0  0  0  0  0  0  0  0  0  0  0  0
   42.9830   21.8910   36.4030 H   0  0  0  0  0  0  0  0  0  0  0  0
   41.3360   21.1790   38.1350 H   0  0  0  0  0  0  0  0  0  0  0  0
  1  2  2  0  0  0  0
  1 17  1  0  0  0  0
  2  6  1  0  0  0  0
  3  7  1  0  0  0  0
  3  2  1  0  0  0  0
  4  5  1  0  0  0  0
  4  3  2  0  0  0  0
  5  1  1  0  0  0  0
  8  4  1  0  0  0  0
  9  8  1  0  0  0  0
  9 10  1  0  0  0  0
 11  9  2  0  0  0  0
 12 14  2  0  0  0  0
 12 11  1  0  0  0  0
 13 12  1  0  0  0  0
 14 16  1  0  0  0  0
 15 14  1  0  0  0  0
 16  8  2  0  0  0  0
 17 23  1  0  0  0  0
 17 18  2  0  0  0  0
 19 24  2  0  0  0  0
 19 20  1  0  0  0  0
 20 21  2  0  0  0  0
 21 27  1  0  0  0  0
 22 21  1  0  0  0  0
 23 22  2  0  0  0  0
 24 23  1  0  0  0  0
 25 19  1  0  0  0  0
 26 20  1  0  0  0  0
M  END
>  <minimizedAffinity>
-5.31343412

$$$$

 OpenBabel03272508463D

 27 29  0  0  0  0  0  0  0  0999 V2000
   36.7700   25.1840   31.6730 C   0  0  0  0  0  0  0  0  0  0  0  0
   35.5390   25.2700   31.0680 C   0  0  0  0  0  0  0  0  0  0  0  0
   35.0690   23.9620   31.0980 C   0  0  0  0  0  0  0  0  0  0  0  0
   36.0090   23.1660   31.7020 C   0  0  0  0  0  0  0  0  0  0  0  0
   37.0080   23.9260   32.0310 O   0  0  0  0  0  0  0  0  0  0  0  0
   35.0140   26.1320   30.6490 H   0  0  0  0  0  0  0  0  0  0  0  0
   34.1040   23.6450   30.6980 H   0  0  0  0  0  0  0  0  0  0  0  0
   35.8810   21.7310   31.9200 C   0  0  0  0  0  0  0  0  0  0  0  0
   35.5810   21.2120   33.1620 C   0  0  0  0  0  0  0  0  0  0  0  0
   35.4330   21.8580   34.0130 H   0  0  0  0  0  0  0  0  0  0  0  0
   35.4550   19.8370   33.3890 C   0  0  0  0  0  3  0  0  0  0  0  0
   35.6340   18.9520   32.3370 C   0  0  0  0  0  0  0  0  0  0  0  0
   35.5460   17.8840   32.4660 H   0  0  0  0  0  0  0  0  0  0  0  0
   35.9330   19.4950   31.1080 C   0  0  0  0  0  0  0  0  0  0  0  0
   36.0850   18.8490   30.2410 H   0  0  0  0  0  0  0  0  0  0  0  0
   36.0540   20.8380   30.8900 C   0  0  0  0  0  3  0  0  0  0  0  0
   37.6670   26.3210   31.8790 C   0  0  0  0  0  0  0  0  0  0  0  0
   38.0270   26.9790   30.8670 O   0  0  0  0  0  0  0  0  0  0  0  0
   37.5880   27.4990   35.3250 C   0  0  0  0  0  0  0  0  0  0  0  0
   38.9030   27.3170   35.7520 C   0  0  0  0  0  0  0  0  0  0  0  0
   39.8290   26.7910   34.8670 C   0  0  0  0  0  0  0  0  0  0  0  0
   39.3870   26.4840   33.6290 N   0  0  0  0  0  0  0  0  0  0  0  0
   38.1160   26.6610   33.2210 C   0  0  0  0  0  0  0  0  0  0  0  0
   37.2070   27.1720   34.0730 N   0  0  0  0  0  0  0  0  0  0  0  0
   36.8790   27.9150   36.0420 H   0  0  0  0  0  0  0  0  0  0  0  0
   39.1460   27.5990   36.7690 H   0  0  0  0  0  0  0  0  0  0  0  0
   40.8410   26.6530   35.2040 H   0  0  0  0  0  0  0  0  0  0  0  0
  1 17  1  0  0  0  0
  1  5  1  0  0  0  0
  2  3  1  0  0  0  0
  2  1  2  0  0  0  0
  3  4  2  0  0  0  0
  4  8  1  0  0  0  0
  4  5  1  0  0  0  0
  6  2  1  0  0  0  0
  7  3  1  0  0  0  0
  8  9  1  0  0  0  0
  9 11  2  0  0  0  0
  9 10  1  0  0  0  0
 12 13  1  0  0  0  0
 12 11  1  0  0  0  0
 14 12  2  0  0  0  0
 15 14  1  0  0  0  0
 16 14  1  0  0  0  0
 16  8  2  0  0  0  0
 17 23  1  0  0  0  0
 18 17  2  0  0  0  0
 19 20  1  0  0  0  0
 19 25  1  0  0  0  0
 20 26  1  0  0  0  0
 21 27  1  0  0  0  0
 21 20  2  0  0  0  0
 22 21  1  0  0  0  0
 23 22  2  0  0  0  0
 23 24  1  0  0  0  0
 24 19  2  0  0  0  0
M  END
>  <minimizedAffinity>
-5.2850709

$$$$

 OpenBabel03272508463D

 27 29  0  0  0  0  0  0  0  0999 V2000
   37.0740   26.7650   33.6840 C   0  0  0  0  0  0  0  0  0  0  0  0
   37.3190   27.7630   34.5980 C   0  0  0  0  0  0  0  0  0  0  0  0
   37.9220   27.0920   35.6560 C   0  0  0  0  0  0  0  0  0  0  0  0
   38.0140   25.7600   35.3450 C   0  0  0  0  0  0  0  0  0  0  0  0
   37.4990   25.6010   34.1640 O   0  0  0  0  0  0  0  0  0  0  0  0
   37.1090   28.8340   34.5510 H   0  0  0  0  0  0  0  0  0  0  0  0
   38.2610   27.5730   36.5760 H   0  0  0  0  0  0  0  0  0  0  0  0
   38.5890   24.7330   36.2030 C   0  0  0  0  0  0  0  0  0  0  0  0
   38.0570   24.4440   37.4410 C   0  0  0  0  0  0  0  0  0  0  0  0
   37.1940   24.9730   37.8130 H   0  0  0  0  0  0  0  0  0  0  0  0
   38.5960   23.4600   38.2780 C   0  0  0  0  0  3  0  0  0  0  0  0
   39.7070   22.7420   37.8600 C   0  0  0  0  0  0  0  0  0  0  0  0
   40.1560   21.9760   38.4730 H   0  0  0  0  0  0  0  0  0  0  0  0
   40.2200   23.0500   36.6210 C   0  0  0  0  0  0  0  0  0  0  0  0
   41.0920   22.5190   36.2370 H   0  0  0  0  0  0  0  0  0  0  0  0
   39.6890   24.0100   35.8060 C   0  0  0  0  0  3  0  0  0  0  0  0
   36.4380   26.9790   32.3840 C   0  0  0  0  0  0  0  0  0  0  0  0
   36.2010   25.9700   31.6690 O   0  0  0  0  0  0  0  0  0  0  0  0
   36.7010   30.2230   30.7470 C   0  0  0  0  0  0  0  0  0  0  0  0
   35.5140   30.8590   31.1110 C   0  0  0  0  0  0  0  0  0  0  0  0
   34.6130   30.1860   31.9200 C   0  0  0  0  0  0  0  0  0  0  0  0
   34.9520   28.9380   32.3070 N   0  0  0  0  0  0  0  0  0  0  0  0
   36.0990   28.3270   31.9520 C   0  0  0  0  0  0  0  0  0  0  0  0
   36.9820   28.9720   31.1660 N   0  0  0  0  0  0  0  0  0  0  0  0
   37.3920   30.7760   30.1090 H   0  0  0  0  0  0  0  0  0  0  0  0
   35.3470   31.8630   30.7410 H   0  0  0  0  0  0  0  0  0  0  0  0
   33.7010   30.6830   32.1960 H   0  0  0  0  0  0  0  0  0  0  0  0
  1  5  1  0  0  0  0
  1  2  2  0  0  0  0
  2  3  1  0  0  0  0
  3  7  1  0  0  0  0
  4  3  2  0  0  0  0
  4  8  1  0  0  0  0
  5  4  1  0  0  0  0
  6  2  1  0  0  0  0
  8  9  1  0  0  0  0
  9 10  1  0  0  0  0
  9 11  2  0  0  0  0
 12 11  1  0  0  0  0
 12 13  1  0  0  0  0
 14 12  2  0  0  0  0
 15 14  1  0  0  0  0
 16  8  2  0  0  0  0
 16 14  1  0  0  0  0
 17  1  1  0  0  0  0
 18 17  2  0  0  0  0
 19 20  2  0  0  0  0
 19 24  1  0  0  0  0
 20 21  1  0  0  0  0
 21 27  1  0  0  0  0
 21 22  2  0  0  0  0
 23 22  1  0  0  0  0
 23 17  1  0  0  0  0
 24 23  2  0  0  0  0
 25 19  1  0  0  0  0
 26 20  1  0  0  0  0
M  END
>  <minimizedAffinity>
-5.22845221

$$$$

 OpenBabel03272508463D

 27 29  0  0  0  0  0  0  0  0999 V2000
   37.6280   23.8580   32.6690 C   0  0  0  0  0  0  0  0  0  0  0  0
   37.7800   25.2180   32.8000 C   0  0  0  0  0  0  0  0  0  0  0  0
   38.1170   25.3790   34.1390 C   0  0  0  0  0  0  0  0  0  0  0  0
   38.1520   24.1470   34.7400 C   0  0  0  0  0  0  0  0  0  0  0  0
   37.8560   23.2650   33.8360 O   0  0  0  0  0  0  0  0  0  0  0  0
   37.6740   26.0180   32.0630 H   0  0  0  0  0  0  0  0  0  0  0  0
   38.3160   26.3430   34.6120 H   0  0  0  0  0  0  0  0  0  0  0  0
   38.4680   23.9040   36.1420 C   0  0  0  0  0  0  0  0  0  0  0  0
   39.5250   23.1030   36.5170 C   0  0  0  0  0  0  0  0  0  0  0  0
   40.1530   22.6290   35.7780 H   0  0  0  0  0  0  0  0  0  0  0  0
   39.8430   22.8580   37.8570 C   0  0  0  0  0  3  0  0  0  0  0  0
   39.0750   23.4370   38.8570 C   0  0  0  0  0  0  0  0  0  0  0  0
   39.2830   23.2760   39.9040 H   0  0  0  0  0  0  0  0  0  0  0  0
   38.0250   24.2320   38.4570 C   0  0  0  0  0  0  0  0  0  0  0  0
   37.3850   24.7150   39.1980 H   0  0  0  0  0  0  0  0  0  0  0  0
   37.7190   24.4690   37.1470 C   0  0  0  0  0  3  0  0  0  0  0  0
   37.2670   23.1880   31.4190 C   0  0  0  0  0  0  0  0  0  0  0  0
   37.5710   23.7540   30.3360 O   0  0  0  0  0  0  0  0  0  0  0  0
   34.7870   20.6500   32.2420 C   0  0  0  0  0  0  0  0  0  0  0  0
   35.2410   19.5270   31.5510 C   0  0  0  0  0  0  0  0  0  0  0  0
   36.4000   19.6260   30.7980 C   0  0  0  0  0  0  0  0  0  0  0  0
   37.0200   20.8240   30.7840 N   0  0  0  0  0  0  0  0  0  0  0  0
   36.5770   21.9060   31.4530 C   0  0  0  0  0  0  0  0  0  0  0  0
   35.4520   21.8220   32.1880 N   0  0  0  0  0  0  0  0  0  0  0  0
   33.8720   20.5440   32.8270 H   0  0  0  0  0  0  0  0  0  0  0  0
   34.6620   18.6150   31.6350 H   0  0  0  0  0  0  0  0  0  0  0  0
   36.7430   18.7560   30.2680 H   0  0  0  0  0  0  0  0  0  0  0  0
  1  2  2  0  0  0  0
  1  5  1  0  0  0  0
  2  3  1  0  0  0  0
  3  7  1  0  0  0  0
  3  4  2  0  0  0  0
  4  8  1  0  0  0  0
  5  4  1  0  0  0  0
  6  2  1  0  0  0  0
  8  9  2  0  0  0  0
  8 16  1  0  0  0  0
  9 11  1  0  0  0  0
 10  9  1  0  0  0  0
 11 12  2  0  0  0  0
 12 13  1  0  0  0  0
 14 12  1  0  0  0  0
 14 15  1  0  0  0  0
 16 14  2  0  0  0  0
 17 23  1  0  0  0  0
 17  1  1  0  0  0  0
 18 17  2  0  0  0  0
 19 25  1  0  0  0  0
 20 26  1  0  0  0  0
 20 19  2  0  0  0  0
 21 20  1  0  0  0  0
 22 21  2  0  0  0  0
 22 23  1  0  0  0  0
 23 24  2  0  0  0  0
 24 19  1  0  0  0  0
 27 21  1  0  0  0  0
M  END
>  <minimizedAffinity>
-5.16332865

$$$$

 OpenBabel03272508463D

 27 29  0  0  0  0  0  0  0  0999 V2000
   37.9650   24.0580   33.7560 C   0  0  0  0  0  0  0  0  0  0  0  0
   37.5030   24.6070   32.5840 C   0  0  0  0  0  0  0  0  0  0  0  0
   36.8960   23.5340   31.9410 C   0  0  0  0  0  0  0  0  0  0  0  0
   37.0150   22.4180   32.7290 C   0  0  0  0  0  0  0  0  0  0  0  0
   37.6570   22.7660   33.8010 O   0  0  0  0  0  0  0  0  0  0  0  0
   37.5700   25.6300   32.2040 H   0  0  0  0  0  0  0  0  0  0  0  0
   36.4090   23.5960   30.9650 H   0  0  0  0  0  0  0  0  0  0  0  0
   36.5030   21.0940   32.3960 C   0  0  0  0  0  0  0  0  0  0  0  0
   36.6670   20.5500   31.1400 C   0  0  0  0  0  0  0  0  0  0  0  0
   37.1820   21.0920   30.3630 H   0  0  0  0  0  0  0  0  0  0  0  0
   36.1820   19.2810   30.8040 C   0  0  0  0  0  3  0  0  0  0  0  0
   35.5100   18.5320   31.7580 C   0  0  0  0  0  0  0  0  0  0  0  0
   35.1190   17.5500   31.5430 H   0  0  0  0  0  0  0  0  0  0  0  0
   35.3580   19.0990   33.0040 C   0  0  0  0  0  0  0  0  0  0  0  0
   34.8390   18.5570   33.7960 H   0  0  0  0  0  0  0  0  0  0  0  0
   35.8350   20.3370   33.3280 C   0  0  0  0  0  3  0  0  0  0  0  0
   38.6890   24.8060   34.7850 C   0  0  0  0  0  0  0  0  0  0  0  0
   39.2100   25.9050   34.4590 O   0  0  0  0  0  0  0  0  0  0  0  0
   37.9640   24.2410   38.3090 C   0  0  0  0  0  0  0  0  0  0  0  0
   38.9330   23.3110   38.6880 C   0  0  0  0  0  0  0  0  0  0  0  0
   39.8430   22.8690   37.7420 C   0  0  0  0  0  0  0  0  0  0  0  0
   39.7280   23.3770   36.4960 N   0  0  0  0  0  0  0  0  0  0  0  0
   38.7900   24.2750   36.1360 C   0  0  0  0  0  0  0  0  0  0  0  0
   37.9000   24.7120   37.0470 N   0  0  0  0  0  0  0  0  0  0  0  0
   37.2600   24.5720   39.0750 H   0  0  0  0  0  0  0  0  0  0  0  0
   38.9310   22.9720   39.7160 H   0  0  0  0  0  0  0  0  0  0  0  0
   40.5860   22.1520   38.0410 H   0  0  0  0  0  0  0  0  0  0  0  0
  1  5  1  0  0  0  0
  1 17  1  0  0  0  0
  2  1  2  0  0  0  0
  3  2  1  0  0  0  0
  3  4  2  0  0  0  0
  4  5  1  0  0  0  0
  6  2  1  0  0  0  0
  7  3  1  0  0  0  0
  8  4  1  0  0  0  0
  8 16  1  0  0  0  0
  9  8  2  0  0  0  0
 10  9  1  0  0  0  0
 11  9  1  0  0  0  0
 11 12  2  0  0  0  0
 12 14  1  0  0  0  0
 13 12  1  0  0  0  0
 14 16  2  0  0  0  0
 14 15  1  0  0  0  0
 17 23  1  0  0  0  0
 18 17  2  0  0  0  0
 19 20  1  0  0  0  0
 19 25  1  0  0  0  0
 20 26  1  0  0  0  0
 21 27  1  0  0  0  0
 21 20  2  0  0  0  0
 22 21  1  0  0  0  0
 23 22  2  0  0  0  0
 23 24  1  0  0  0  0
 24 19  2  0  0  0  0
M  END
>  <minimizedAffinity>
-5.13655043

$$$$

 OpenBabel03272508463D

 27 29  0  0  0  0  0  0  0  0999 V2000
   36.4040   25.9450   31.9080 C   0  0  0  0  0  0  0  0  0  0  0  0
   35.3280   25.9440   31.0530 C   0  0  0  0  0  0  0  0  0  0  0  0
   35.0690   24.5920   30.8600 C   0  0  0  0  0  0  0  0  0  0  0  0
   35.9710   23.8570   31.5850 C   0  0  0  0  0  0  0  0  0  0  0  0
   36.7510   24.6950   32.1960 O   0  0  0  0  0  0  0  0  0  0  0  0
   34.7770   26.7750   30.6060 H   0  0  0  0  0  0  0  0  0  0  0  0
   34.2680   24.2030   30.2270 H   0  0  0  0  0  0  0  0  0  0  0  0
   36.0210   22.4020   31.6390 C   0  0  0  0  0  0  0  0  0  0  0  0
   37.0320   21.6900   31.0300 C   0  0  0  0  0  0  0  0  0  0  0  0
   37.8200   22.1920   30.4920 H   0  0  0  0  0  0  0  0  0  0  0  0
   37.0960   20.2920   31.0730 C   0  0  0  0  0  3  0  0  0  0  0  0
   36.1130   19.5840   31.7490 C   0  0  0  0  0  0  0  0  0  0  0  0
   36.1220   18.5070   31.8070 H   0  0  0  0  0  0  0  0  0  0  0  0
   35.1140   20.3190   32.3470 C   0  0  0  0  0  0  0  0  0  0  0  0
   34.3130   19.8180   32.8940 H   0  0  0  0  0  0  0  0  0  0  0  0
   35.0570   21.6830   32.3050 C   0  0  0  0  0  3  0  0  0  0  0  0
   37.0540   27.1560   32.4120 C   0  0  0  0  0  0  0  0  0  0  0  0
   36.5210   28.2660   32.1450 O   0  0  0  0  0  0  0  0  0  0  0  0
   39.2700   26.8640   35.2880 C   0  0  0  0  0  0  0  0  0  0  0  0
   40.5390   26.8630   34.7110 C   0  0  0  0  0  0  0  0  0  0  0  0
   40.6510   26.9620   33.3340 C   0  0  0  0  0  0  0  0  0  0  0  0
   39.5010   27.0540   32.6320 N   0  0  0  0  0  0  0  0  0  0  0  0
   38.2770   27.0550   33.1940 C   0  0  0  0  0  0  0  0  0  0  0  0
   38.1570   26.9590   34.5310 N   0  0  0  0  0  0  0  0  0  0  0  0
   39.2110   26.7850   36.3750 H   0  0  0  0  0  0  0  0  0  0  0  0
   41.3930   26.7830   35.3720 H   0  0  0  0  0  0  0  0  0  0  0  0
   41.6330   26.9600   32.8970 H   0  0  0  0  0  0  0  0  0  0  0  0
  1  5  1  0  0  0  0
  1 17  1  0  0  0  0
  2  1  2  0  0  0  0
  3  2  1  0  0  0  0
  3  4  2  0  0  0  0
  4  8  1  0  0  0  0
  4  5  1  0  0  0  0
  6  2  1  0  0  0  0
  7  3  1  0  0  0  0
  8 16  1  0  0  0  0
  9 11  1  0  0  0  0
  9  8  2  0  0  0  0
 10  9  1  0  0  0  0
 11 12  2  0  0  0  0
 12 13  1  0  0  0  0
 12 14  1  0  0  0  0
 14 15  1  0  0  0  0
 16 14  2  0  0  0  0
 17 23  1  0  0  0  0
 18 17  2  0  0  0  0
 19 25  1  0  0  0  0
 20 19  1  0  0  0  0
 20 26  1  0  0  0  0
 21 20  2  0  0  0  0
 22 23  2  0  0  0  0
 22 21  1  0  0  0  0
 23 24  1  0  0  0  0
 24 19  2  0  0  0  0
 27 21  1  0  0  0  0
M  END
>  <minimizedAffinity>
-5.10943222

$$$$

 OpenBabel03272508463D

 27 29  0  0  0  0  0  0  0  0999 V2000
   37.0280   26.4260   33.1860 C   0  0  0  0  0  0  0  0  0  0  0  0
   37.0390   27.5100   34.0320 C   0  0  0  0  0  0  0  0  0  0  0  0
   37.5410   26.9890   35.2190 C   0  0  0  0  0  0  0  0  0  0  0  0
   37.8040   25.6550   35.0440 C   0  0  0  0  0  0  0  0  0  0  0  0
   37.4860   25.3530   33.8230 O   0  0  0  0  0  0  0  0  0  0  0  0
   36.7380   28.5460   33.8610 H   0  0  0  0  0  0  0  0  0  0  0  0
   37.6940   27.5710   36.1310 H   0  0  0  0  0  0  0  0  0  0  0  0
   38.3420   24.7620   36.0630 C   0  0  0  0  0  0  0  0  0  0  0  0
   39.3830   23.9000   35.7930 C   0  0  0  0  0  0  0  0  0  0  0  0
   39.8330   23.8610   34.8130 H   0  0  0  0  0  0  0  0  0  0  0  0
   39.9120   23.0370   36.7590 C   0  0  0  0  0  3  0  0  0  0  0  0
   39.3780   23.0370   38.0390 C   0  0  0  0  0  0  0  0  0  0  0  0
   39.7540   22.3880   38.8150 H   0  0  0  0  0  0  0  0  0  0  0  0
   38.3390   23.9060   38.2830 C   0  0  0  0  0  0  0  0  0  0  0  0
   37.8790   23.9520   39.2720 H   0  0  0  0  0  0  0  0  0  0  0  0
   37.8270   24.7480   37.3380 C   0  0  0  0  0  3  0  0  0  0  0  0
   36.5720   26.4730   31.7960 C   0  0  0  0  0  0  0  0  0  0  0  0
   35.5250   25.8400   31.4960 O   0  0  0  0  0  0  0  0  0  0  0  0
   37.3490   28.9570   29.2480 C   0  0  0  0  0  0  0  0  0  0  0  0
   38.6850   28.6940   28.9450 C   0  0  0  0  0  0  0  0  0  0  0  0
   39.3330   27.6650   29.6090 C   0  0  0  0  0  0  0  0  0  0  0  0
   38.6140   26.9750   30.5190 N   0  0  0  0  0  0  0  0  0  0  0  0
   37.3230   27.2330   30.8080 C   0  0  0  0  0  0  0  0  0  0  0  0
   36.6840   28.2310   30.1700 N   0  0  0  0  0  0  0  0  0  0  0  0
   36.8630   29.7740   28.7110 H   0  0  0  0  0  0  0  0  0  0  0  0
   39.1630   29.3130   28.1970 H   0  0  0  0  0  0  0  0  0  0  0  0
   40.3620   27.4690   29.3700 H   0  0  0  0  0  0  0  0  0  0  0  0
  1  5  1  0  0  0  0
  1  2  2  0  0  0  0
  2  3  1  0  0  0  0
  3  7  1  0  0  0  0
  4  3  2  0  0  0  0
  4  8  1  0  0  0  0
  5  4  1  0  0  0  0
  6  2  1  0  0  0  0
  8 16  1  0  0  0  0
  9  8  2  0  0  0  0
  9 11  1  0  0  0  0
 10  9  1  0  0  0  0
 11 12  2  0  0  0  0
 12 14  1  0  0  0  0
 12 13  1  0  0  0  0
 14 15  1  0  0  0  0
 16 14  2  0  0  0  0
 17  1  1  0  0  0  0
 18 17  2  0  0  0  0
 19 24  1  0  0  0  0
 20 19  2  0  0  0  0
 20 21  1  0  0  0  0
 21 22  2  0  0  0  0
 22 23  1  0  0  0  0
 23 17  1  0  0  0  0
 24 23  2  0  0  0  0
 25 19  1  0  0  0  0
 26 20  1  0  0  0  0
 27 21  1  0  0  0  0
M  END
>  <minimizedAffinity>
-5.10882854

$$$$
