
 OpenBabel03272505173D

 42 45  0  0  1  0  0  0  0  0999 V2000
   39.3190   23.1160   33.3580 N   0  0  0  0  0  0  0  0  0  0  0  0
   39.5680   22.5650   32.0260 C   0  0  0  0  0  0  0  0  0  0  0  0
   39.0610   21.1410   32.0380 C   0  0  0  0  0  0  0  0  0  0  0  0
   37.7100   21.1830   32.5070 N   0  0  0  0  0  0  0  0  0  0  0  0
   37.5780   21.5850   33.8620 C   0  0  0  0  0  0  0  0  0  0  0  0
   38.9090   22.1720   34.3530 C   0  0  2  0  0  0  0  0  0  0  0  0
   40.6110   22.6740   31.7190 H   0  0  0  0  0  0  0  0  0  0  0  0
   38.9020   23.1300   31.3230 H   0  0  0  0  0  0  0  0  0  0  0  0
   39.7230   20.4190   32.5180 H   0  0  0  0  0  0  0  0  0  0  0  0
   39.0170   20.8380   30.9460 H   0  0  0  0  0  0  0  0  0  0  0  0
   37.1330   20.3900   32.1930 H   0  0  0  0  0  0  0  0  0  0  0  0
   37.2970   20.7270   34.5260 H   0  0  0  0  0  0  0  0  0  0  0  0
   36.7500   22.3190   33.9270 H   0  0  0  0  0  0  0  0  0  0  0  0
   39.6200   21.3130   34.3220 H   0  0  0  0  0  0  0  0  0  0  0  0
   36.9880   24.8150   32.7210 Cl  0  0  0  0  0  0  0  0  0  0  0  0
   38.4690   25.4140   33.4190 C   0  0  0  0  0  0  0  0  0  0  0  0
   38.5820   26.7340   33.6940 C   0  0  0  0  0  0  0  0  0  0  0  0
   39.7850   27.1180   34.2790 C   0  0  0  0  0  0  0  0  0  0  0  0
   40.8110   26.2720   34.5770 C   0  0  0  0  0  0  0  0  0  0  0  0
   40.6450   24.9410   34.2760 C   0  0  0  0  0  0  0  0  0  0  0  0
   39.4770   24.4930   33.6940 C   0  0  0  0  0  0  0  0  0  0  0  0
   39.9160   28.1790   34.5170 H   0  0  0  0  0  0  0  0  0  0  0  0
   41.7200   26.6600   35.0360 H   0  0  0  0  0  0  0  0  0  0  0  0
   41.4300   24.2310   34.4930 H   0  0  0  0  0  0  0  0  0  0  0  0
   35.5820   28.9720   34.0580 C   0  0  0  0  0  0  0  0  0  0  0  0
   36.6100   28.0720   34.3790 C   0  0  0  0  0  0  0  0  0  0  0  0
   37.5080   27.6450   33.3920 C   0  0  0  0  0  0  0  0  0  0  0  0
   37.3250   28.1440   32.1310 N   0  0  0  0  0  0  0  0  0  0  0  0
   36.3350   29.0050   31.8330 C   0  0  0  0  0  0  0  0  0  0  0  0
   35.4670   29.4200   32.7880 N   0  0  0  0  0  0  0  0  0  0  0  0
   34.8530   29.3560   34.7320 H   0  0  0  0  0  0  0  0  0  0  0  0
   36.5370   27.7940   35.4110 H   0  0  0  0  0  0  0  0  0  0  0  0
   36.3630   29.2760   30.7900 H   0  0  0  0  0  0  0  0  0  0  0  0
   38.8310   22.6210   35.7290 C   0  0  0  0  0  0  0  0  0  0  0  0
   39.9070   22.4060   36.6080 C   0  0  0  0  0  0  0  0  0  0  0  0
   40.8030   21.9100   36.1960 H   0  0  0  0  0  0  0  0  0  0  0  0
   39.9790   22.7420   37.9310 C   0  0  0  0  0  3  0  0  0  0  0  0
   38.8840   23.3640   38.4910 C   0  0  0  0  0  0  0  0  0  0  0  0
   38.9150   23.6350   39.5170 H   0  0  0  0  0  0  0  0  0  0  0  0
   37.7720   23.6230   37.7180 C   0  0  0  0  0  0  0  0  0  0  0  0
   36.9200   24.1070   38.1520 H   0  0  0  0  0  0  0  0  0  0  0  0
   37.8000   23.2440   36.3950 C   0  0  0  0  0  3  0  0  0  0  0  0
  1 21  1  0  0  0  0
  1  6  1  0  0  0  0
  2  3  1  0  0  0  0
  2  1  1  0  0  0  0
  3  4  1  0  0  0  0
  3  9  1  0  0  0  0
  4  5  1  0  0  0  0
  5 13  1  0  0  0  0
  5  6  1  0  0  0  0
  5 12  1  0  0  0  0
  6 14  1  6  0  0  0
  6 34  1  0  0  0  0
  7  2  1  0  0  0  0
  8  2  1  0  0  0  0
 10  3  1  0  0  0  0
 11  4  1  0  0  0  0
 15 16  1  0  0  0  0
 16 17  2  0  0  0  0
 16 21  1  0  0  0  0
 17 18  1  0  0  0  0
 18 22  1  0  0  0  0
 18 19  2  0  0  0  0
 19 23  1  0  0  0  0
 20 24  1  0  0  0  0
 20 19  1  0  0  0  0
 21 20  2  0  0  0  0
 25 26  1  0  0  0  0
 25 31  1  0  0  0  0
 26 32  1  0  0  0  0
 27 17  1  0  0  0  0
 27 26  2  0  0  0  0
 28 27  1  0  0  0  0
 29 28  2  0  0  0  0
 29 30  1  0  0  0  0
 30 25  2  0  0  0  0
 33 29  1  0  0  0  0
 34 42  2  0  0  0  0
 34 35  1  0  0  0  0
 35 37  2  0  0  0  0
 36 35  1  0  0  0  0
 37 38  1  0  0  0  0
 38 39  1  0  0  0  0
 40 41  1  0  0  0  0
 40 38  2  0  0  0  0
 42 40  1  0  0  0  0
M  END
>  <minimizedAffinity>
-6.01600742

$$$$

 OpenBabel03272505173D

 42 45  0  0  1  0  0  0  0  0999 V2000
   39.9160   22.7930   35.6190 N   0  0  0  0  0  0  0  0  0  0  0  0
   40.6200   21.8830   36.5220 C   0  0  0  0  0  0  0  0  0  0  0  0
   40.5680   22.5040   37.8990 C   0  0  0  0  0  0  0  0  0  0  0  0
   39.1940   22.7950   38.1740 N   0  0  0  0  0  0  0  0  0  0  0  0
   38.6380   23.8030   37.3440 C   0  0  0  0  0  0  0  0  0  0  0  0
   39.5820   24.0740   36.1640 C   0  0  2  0  0  0  0  0  0  0  0  0
   41.6260   21.6430   36.1690 H   0  0  0  0  0  0  0  0  0  0  0  0
   40.0000   20.9500   36.5740 H   0  0  0  0  0  0  0  0  0  0  0  0
   41.2820   23.3100   38.0700 H   0  0  0  0  0  0  0  0  0  0  0  0
   40.8720   21.6700   38.6060 H   0  0  0  0  0  0  0  0  0  0  0  0
   38.9670   22.8340   39.1770 H   0  0  0  0  0  0  0  0  0  0  0  0
   38.4750   24.7610   37.9020 H   0  0  0  0  0  0  0  0  0  0  0  0
   37.6380   23.4610   37.0060 H   0  0  0  0  0  0  0  0  0  0  0  0
   40.5020   24.4930   36.6360 H   0  0  0  0  0  0  0  0  0  0  0  0
   37.3190   21.4240   35.2900 Cl  0  0  0  0  0  0  0  0  0  0  0  0
   38.3960   21.7990   33.9720 C   0  0  0  0  0  0  0  0  0  0  0  0
   38.0440   21.4530   32.7130 C   0  0  0  0  0  0  0  0  0  0  0  0
   38.9480   21.8200   31.7200 C   0  0  0  0  0  0  0  0  0  0  0  0
   40.1190   22.4820   31.9400 C   0  0  0  0  0  0  0  0  0  0  0  0
   40.4290   22.8100   33.2380 C   0  0  0  0  0  0  0  0  0  0  0  0
   39.5770   22.4750   34.2700 C   0  0  0  0  0  0  0  0  0  0  0  0
   38.6990   21.5560   30.6860 H   0  0  0  0  0  0  0  0  0  0  0  0
   40.7680   22.7310   31.1010 H   0  0  0  0  0  0  0  0  0  0  0  0
   41.3460   23.3360   33.4630 H   0  0  0  0  0  0  0  0  0  0  0  0
   34.4320   20.7420   31.9470 C   0  0  0  0  0  0  0  0  0  0  0  0
   35.6170   21.4480   32.2060 C   0  0  0  0  0  0  0  0  0  0  0  0
   36.8090   20.7560   32.4580 C   0  0  0  0  0  0  0  0  0  0  0  0
   36.7480   19.3890   32.4370 N   0  0  0  0  0  0  0  0  0  0  0  0
   35.6060   18.7220   32.1880 C   0  0  0  0  0  0  0  0  0  0  0  0
   34.4530   19.3910   31.9440 N   0  0  0  0  0  0  0  0  0  0  0  0
   33.4790   21.1710   31.7440 H   0  0  0  0  0  0  0  0  0  0  0  0
   35.4180   22.5000   32.2050 H   0  0  0  0  0  0  0  0  0  0  0  0
   35.7700   17.6570   32.2190 H   0  0  0  0  0  0  0  0  0  0  0  0
   39.0560   25.0830   35.2670 C   0  0  0  0  0  0  0  0  0  0  0  0
   39.9130   26.0390   34.6930 C   0  0  0  0  0  0  0  0  0  0  0  0
   40.9860   25.9660   34.9400 H   0  0  0  0  0  0  0  0  0  0  0  0
   39.5720   27.0640   33.8550 C   0  0  0  0  0  3  0  0  0  0  0  0
   38.2420   27.1960   33.5180 C   0  0  0  0  0  0  0  0  0  0  0  0
   37.9510   27.9840   32.8690 H   0  0  0  0  0  0  0  0  0  0  0  0
   37.3150   26.3100   34.0260 C   0  0  0  0  0  0  0  0  0  0  0  0
   36.2800   26.4120   33.7650 H   0  0  0  0  0  0  0  0  0  0  0  0
   37.7610   25.3130   34.8620 C   0  0  0  0  0  3  0  0  0  0  0  0
  1  6  1  0  0  0  0
  1  2  1  0  0  0  0
  2  8  1  0  0  0  0
  2  3  1  0  0  0  0
  3  9  1  0  0  0  0
  3  4  1  0  0  0  0
  3 10  1  0  0  0  0
  4 11  1  0  0  0  0
  5 12  1  0  0  0  0
  5  4  1  0  0  0  0
  6 14  1  1  0  0  0
  6  5  1  0  0  0  0
  7  2  1  0  0  0  0
 13  5  1  0  0  0  0
 16 21  1  0  0  0  0
 16 15  1  0  0  0  0
 17 16  2  0  0  0  0
 18 19  2  0  0  0  0
 18 17  1  0  0  0  0
 19 20  1  0  0  0  0
 20 24  1  0  0  0  0
 20 21  2  0  0  0  0
 21  1  1  0  0  0  0
 22 18  1  0  0  0  0
 23 19  1  0  0  0  0
 25 26  1  0  0  0  0
 26 27  2  0  0  0  0
 27 17  1  0  0  0  0
 28 27  1  0  0  0  0
 29 33  1  0  0  0  0
 29 28  2  0  0  0  0
 30 25  2  0  0  0  0
 30 29  1  0  0  0  0
 31 25  1  0  0  0  0
 32 26  1  0  0  0  0
 34  6  1  0  0  0  0
 35 36  1  0  0  0  0
 35 34  2  0  0  0  0
 37 35  1  0  0  0  0
 38 37  2  0  0  0  0
 38 40  1  0  0  0  0
 39 38  1  0  0  0  0
 40 42  2  0  0  0  0
 41 40  1  0  0  0  0
 42 34  1  0  0  0  0
M  END
>  <minimizedAffinity>
-5.50239754

$$$$

 OpenBabel03272505173D

 42 45  0  0  1  0  0  0  0  0999 V2000
   37.3180   26.3620   32.0670 N   0  0  0  0  0  0  0  0  0  0  0  0
   35.9580   26.8900   31.9670 C   0  0  0  0  0  0  0  0  0  0  0  0
   36.0450   28.1830   31.1880 C   0  0  0  0  0  0  0  0  0  0  0  0
   36.7450   27.8920   29.9740 N   0  0  0  0  0  0  0  0  0  0  0  0
   38.1060   27.5340   30.1610 C   0  0  0  0  0  0  0  0  0  0  0  0
   38.3610   27.2480   31.6470 C   0  0  2  0  0  0  0  0  0  0  0  0
   35.4740   26.9800   32.9430 H   0  0  0  0  0  0  0  0  0  0  0  0
   35.3890   26.1720   31.3220 H   0  0  0  0  0  0  0  0  0  0  0  0
   36.3940   29.0450   31.7590 H   0  0  0  0  0  0  0  0  0  0  0  0
   34.9750   28.4210   30.8980 H   0  0  0  0  0  0  0  0  0  0  0  0
   36.5300   28.5370   29.2020 H   0  0  0  0  0  0  0  0  0  0  0  0
   38.8010   28.3470   29.8260 H   0  0  0  0  0  0  0  0  0  0  0  0
   38.3230   26.6520   29.5250 H   0  0  0  0  0  0  0  0  0  0  0  0
   38.1970   28.2300   32.1510 H   0  0  0  0  0  0  0  0  0  0  0  0
   37.7270   26.2190   34.9890 Cl  0  0  0  0  0  0  0  0  0  0  0  0
   37.8850   24.8550   33.9150 C   0  0  0  0  0  0  0  0  0  0  0  0
   38.2140   23.6470   34.4270 C   0  0  0  0  0  0  0  0  0  0  0  0
   38.2870   22.6090   33.5020 C   0  0  0  0  0  0  0  0  0  0  0  0
   38.0530   22.7390   32.1660 C   0  0  0  0  0  0  0  0  0  0  0  0
   37.7220   23.9880   31.6980 C   0  0  0  0  0  0  0  0  0  0  0  0
   37.6340   25.0610   32.5600 C   0  0  0  0  0  0  0  0  0  0  0  0
   38.5510   21.6140   33.8780 H   0  0  0  0  0  0  0  0  0  0  0  0
   38.1310   21.8700   31.5130 H   0  0  0  0  0  0  0  0  0  0  0  0
   37.5270   24.1430   30.6460 H   0  0  0  0  0  0  0  0  0  0  0  0
   39.9380   22.9830   37.7020 C   0  0  0  0  0  0  0  0  0  0  0  0
   39.7240   23.1190   36.3210 C   0  0  0  0  0  0  0  0  0  0  0  0
   38.4620   23.4860   35.8370 C   0  0  0  0  0  0  0  0  0  0  0  0
   37.4780   23.6940   36.7650 N   0  0  0  0  0  0  0  0  0  0  0  0
   37.6940   23.5600   38.0860 C   0  0  0  0  0  0  0  0  0  0  0  0
   38.9160   23.2060   38.5560 N   0  0  0  0  0  0  0  0  0  0  0  0
   40.8560   22.7110   38.1690 H   0  0  0  0  0  0  0  0  0  0  0  0
   40.6210   22.8750   35.7910 H   0  0  0  0  0  0  0  0  0  0  0  0
   36.7950   23.7660   38.6450 H   0  0  0  0  0  0  0  0  0  0  0  0
   39.7330   26.8570   31.8980 C   0  0  0  0  0  0  0  0  0  0  0  0
   40.4000   27.3040   33.0530 C   0  0  0  0  0  0  0  0  0  0  0  0
   39.8260   27.9350   33.7530 H   0  0  0  0  0  0  0  0  0  0  0  0
   41.6920   27.0470   33.4190 C   0  0  0  0  0  3  0  0  0  0  0  0
   42.4490   26.2620   32.5760 C   0  0  0  0  0  0  0  0  0  0  0  0
   43.4550   26.0480   32.8380 H   0  0  0  0  0  0  0  0  0  0  0  0
   41.8930   25.7690   31.4150 C   0  0  0  0  0  0  0  0  0  0  0  0
   42.4800   25.1590   30.7580 H   0  0  0  0  0  0  0  0  0  0  0  0
   40.5830   26.0860   31.1370 C   0  0  0  0  0  3  0  0  0  0  0  0
  1 21  1  0  0  0  0
  2  1  1  0  0  0  0
  2  7  1  0  0  0  0
  3  9  1  0  0  0  0
  3  2  1  0  0  0  0
  4  5  1  0  0  0  0
  4  3  1  0  0  0  0
  5  6  1  0  0  0  0
  6 34  1  0  0  0  0
  6  1  1  0  0  0  0
  6 14  1  1  0  0  0
  8  2  1  0  0  0  0
 10  3  1  0  0  0  0
 11  4  1  0  0  0  0
 12  5  1  0  0  0  0
 13  5  1  0  0  0  0
 16 17  1  0  0  0  0
 16 15  1  0  0  0  0
 17 27  1  0  0  0  0
 18 22  1  0  0  0  0
 18 17  2  0  0  0  0
 19 18  1  0  0  0  0
 20 19  2  0  0  0  0
 20 21  1  0  0  0  0
 21 16  2  0  0  0  0
 23 19  1  0  0  0  0
 24 20  1  0  0  0  0
 25 31  1  0  0  0  0
 25 30  1  0  0  0  0
 26 25  2  0  0  0  0
 27 26  1  0  0  0  0
 27 28  2  0  0  0  0
 28 29  1  0  0  0  0
 29 30  2  0  0  0  0
 29 33  1  0  0  0  0
 32 26  1  0  0  0  0
 34 35  1  0  0  0  0
 35 37  2  0  0  0  0
 35 36  1  0  0  0  0
 38 39  1  0  0  0  0
 38 37  1  0  0  0  0
 40 38  2  0  0  0  0
 41 40  1  0  0  0  0
 42 40  1  0  0  0  0
 42 34  2  0  0  0  0
M  END
>  <minimizedAffinity>
-5.4356432

$$$$

 OpenBabel03272505173D

 42 45  0  0  1  0  0  0  0  0999 V2000
   39.1040   25.5090   30.8640 N   0  0  0  0  0  0  0  0  0  0  0  0
   39.7570   25.5330   29.5550 C   0  0  0  0  0  0  0  0  0  0  0  0
   41.2180   25.8350   29.7990 C   0  0  0  0  0  0  0  0  0  0  0  0
   41.6840   24.8870   30.7650 N   0  0  0  0  0  0  0  0  0  0  0  0
   41.1030   25.0390   32.0520 C   0  0  0  0  0  0  0  0  0  0  0  0
   39.8950   25.9810   31.9610 C   0  0  2  0  0  0  0  0  0  0  0  0
   39.2620   26.2130   28.8570 H   0  0  0  0  0  0  0  0  0  0  0  0
   39.7120   24.4840   29.1630 H   0  0  0  0  0  0  0  0  0  0  0  0
   41.4480   26.8830   29.9910 H   0  0  0  0  0  0  0  0  0  0  0  0
   41.7340   25.5820   28.8210 H   0  0  0  0  0  0  0  0  0  0  0  0
   42.6970   24.7110   30.7240 H   0  0  0  0  0  0  0  0  0  0  0  0
   41.8330   25.4600   32.7920 H   0  0  0  0  0  0  0  0  0  0  0  0
   40.8210   24.0340   32.4250 H   0  0  0  0  0  0  0  0  0  0  0  0
   40.3310   26.9650   31.6670 H   0  0  0  0  0  0  0  0  0  0  0  0
   38.8450   22.6530   31.5720 Cl  0  0  0  0  0  0  0  0  0  0  0  0
   37.4930   23.7370   31.3880 C   0  0  0  0  0  0  0  0  0  0  0  0
   36.2400   23.2660   31.5760 C   0  0  0  0  0  0  0  0  0  0  0  0
   35.2240   24.2080   31.4410 C   0  0  0  0  0  0  0  0  0  0  0  0
   35.4170   25.5240   31.1440 C   0  0  0  0  0  0  0  0  0  0  0  0
   36.7110   25.9510   30.9620 C   0  0  0  0  0  0  0  0  0  0  0  0
   37.7650   25.0680   31.0800 C   0  0  0  0  0  0  0  0  0  0  0  0
   34.1930   23.8660   31.5850 H   0  0  0  0  0  0  0  0  0  0  0  0
   34.5620   26.1930   31.0580 H   0  0  0  0  0  0  0  0  0  0  0  0
   36.9160   26.9850   30.7250 H   0  0  0  0  0  0  0  0  0  0  0  0
   35.7430   19.5540   31.2400 C   0  0  0  0  0  0  0  0  0  0  0  0
   35.9520   20.8990   30.8970 C   0  0  0  0  0  0  0  0  0  0  0  0
   36.0120   21.8800   31.8950 C   0  0  0  0  0  0  0  0  0  0  0  0
   35.8580   21.4580   33.1880 N   0  0  0  0  0  0  0  0  0  0  0  0
   35.6560   20.1670   33.5060 C   0  0  0  0  0  0  0  0  0  0  0  0
   35.5990   19.2170   32.5410 N   0  0  0  0  0  0  0  0  0  0  0  0
   35.6820   18.7360   30.5600 H   0  0  0  0  0  0  0  0  0  0  0  0
   36.0100   20.9950   29.8320 H   0  0  0  0  0  0  0  0  0  0  0  0
   35.5580   20.0450   34.5730 H   0  0  0  0  0  0  0  0  0  0  0  0
   39.2460   26.1590   33.2440 C   0  0  0  0  0  0  0  0  0  0  0  0
   39.3130   25.1490   34.2210 C   0  0  0  0  0  0  0  0  0  0  0  0
   39.8940   24.2450   33.9700 H   0  0  0  0  0  0  0  0  0  0  0  0
   38.7380   25.1520   35.4610 C   0  0  0  0  0  3  0  0  0  0  0  0
   38.0030   26.2620   35.8190 C   0  0  0  0  0  0  0  0  0  0  0  0
   37.5450   26.2880   36.7760 H   0  0  0  0  0  0  0  0  0  0  0  0
   37.8720   27.3120   34.9360 C   0  0  0  0  0  0  0  0  0  0  0  0
   37.3000   28.1750   35.2130 H   0  0  0  0  0  0  0  0  0  0  0  0
   38.4900   27.2100   33.7110 C   0  0  0  0  0  3  0  0  0  0  0  0
  1 21  1  0  0  0  0
  1  6  1  0  0  0  0
  2  3  1  0  0  0  0
  2  1  1  0  0  0  0
  3  9  1  0  0  0  0
  3  4  1  0  0  0  0
  4  5  1  0  0  0  0
  5 13  1  0  0  0  0
  5 12  1  0  0  0  0
  6 14  1  6  0  0  0
  6  5  1  0  0  0  0
  6 34  1  0  0  0  0
  7  2  1  0  0  0  0
  8  2  1  0  0  0  0
 10  3  1  0  0  0  0
 11  4  1  0  0  0  0
 16 15  1  0  0  0  0
 16 17  1  0  0  0  0
 17 27  1  0  0  0  0
 18 17  2  0  0  0  0
 18 22  1  0  0  0  0
 19 18  1  0  0  0  0
 20 21  1  0  0  0  0
 20 19  2  0  0  0  0
 21 16  2  0  0  0  0
 23 19  1  0  0  0  0
 24 20  1  0  0  0  0
 25 30  1  0  0  0  0
 26 25  2  0  0  0  0
 26 27  1  0  0  0  0
 27 28  2  0  0  0  0
 28 29  1  0  0  0  0
 29 33  1  0  0  0  0
 30 29  2  0  0  0  0
 31 25  1  0  0  0  0
 32 26  1  0  0  0  0
 34 42  2  0  0  0  0
 34 35  1  0  0  0  0
 35 37  2  0  0  0  0
 36 35  1  0  0  0  0
 37 38  1  0  0  0  0
 38 39  1  0  0  0  0
 40 41  1  0  0  0  0
 40 38  2  0  0  0  0
 42 40  1  0  0  0  0
M  END
>  <minimizedAffinity>
-5.32006216

$$$$

 OpenBabel03272505173D

 42 45  0  0  1  0  0  0  0  0999 V2000
   39.7360   25.1210   31.5070 N   0  0  0  0  0  0  0  0  0  0  0  0
   40.5340   25.1320   30.2820 C   0  0  0  0  0  0  0  0  0  0  0  0
   41.9760   25.3130   30.6990 C   0  0  0  0  0  0  0  0  0  0  0  0
   42.2560   24.3040   31.6740 N   0  0  0  0  0  0  0  0  0  0  0  0
   41.5450   24.4630   32.8930 C   0  0  0  0  0  0  0  0  0  0  0  0
   40.4280   25.4970   32.7030 C   0  0  2  0  0  0  0  0  0  0  0  0
   40.1740   25.8690   29.5590 H   0  0  0  0  0  0  0  0  0  0  0  0
   40.4570   24.1020   29.8480 H   0  0  0  0  0  0  0  0  0  0  0  0
   42.2590   26.3340   30.9550 H   0  0  0  0  0  0  0  0  0  0  0  0
   42.5810   25.0490   29.7760 H   0  0  0  0  0  0  0  0  0  0  0  0
   43.2520   24.0510   31.7400 H   0  0  0  0  0  0  0  0  0  0  0  0
   42.2140   24.8040   33.7250 H   0  0  0  0  0  0  0  0  0  0  0  0
   41.1480   23.4720   33.1940 H   0  0  0  0  0  0  0  0  0  0  0  0
   40.9660   26.4530   32.4980 H   0  0  0  0  0  0  0  0  0  0  0  0
   39.1880   22.2450   31.9000 Cl  0  0  0  0  0  0  0  0  0  0  0  0
   37.9490   23.4540   31.7020 C   0  0  0  0  0  0  0  0  0  0  0  0
   36.6500   23.0770   31.7270 C   0  0  0  0  0  0  0  0  0  0  0  0
   35.7280   24.1120   31.5950 C   0  0  0  0  0  0  0  0  0  0  0  0
   36.0510   25.4280   31.4490 C   0  0  0  0  0  0  0  0  0  0  0  0
   37.3850   25.7560   31.4300 C   0  0  0  0  0  0  0  0  0  0  0  0
   38.3510   24.7790   31.5550 C   0  0  0  0  0  0  0  0  0  0  0  0
   34.6650   23.8480   31.6090 H   0  0  0  0  0  0  0  0  0  0  0  0
   35.2630   26.1740   31.3530 H   0  0  0  0  0  0  0  0  0  0  0  0
   37.6920   26.7870   31.3170 H   0  0  0  0  0  0  0  0  0  0  0  0
   35.5360   19.8240   33.2470 C   0  0  0  0  0  0  0  0  0  0  0  0
   35.8990   21.1740   33.1270 C   0  0  0  0  0  0  0  0  0  0  0  0
   36.2860   21.6930   31.8840 C   0  0  0  0  0  0  0  0  0  0  0  0
   36.2910   20.8250   30.8260 N   0  0  0  0  0  0  0  0  0  0  0  0
   35.9420   19.5320   30.9520 C   0  0  0  0  0  0  0  0  0  0  0  0
   35.5660   19.0300   32.1540 N   0  0  0  0  0  0  0  0  0  0  0  0
   35.2270   19.3350   34.1410 H   0  0  0  0  0  0  0  0  0  0  0  0
   35.8530   21.6470   34.0870 H   0  0  0  0  0  0  0  0  0  0  0  0
   36.0140   19.0210   30.0050 H   0  0  0  0  0  0  0  0  0  0  0  0
   39.6510   25.6880   33.9110 C   0  0  0  0  0  0  0  0  0  0  0  0
   39.3200   26.9830   34.3460 C   0  0  0  0  0  0  0  0  0  0  0  0
   39.6560   27.8260   33.7180 H   0  0  0  0  0  0  0  0  0  0  0  0
   38.6220   27.3310   35.4690 C   0  0  0  0  0  3  0  0  0  0  0  0
   38.1810   26.3100   36.2850 C   0  0  0  0  0  0  0  0  0  0  0  0
   37.6370   26.5540   37.1640 H   0  0  0  0  0  0  0  0  0  0  0  0
   38.4510   25.0000   35.9520 C   0  0  0  0  0  0  0  0  0  0  0  0
   38.1080   24.2060   36.5860 H   0  0  0  0  0  0  0  0  0  0  0  0
   39.1620   24.7570   34.8000 C   0  0  0  0  0  3  0  0  0  0  0  0
  1 21  1  0  0  0  0
  1  6  1  0  0  0  0
  2  3  1  0  0  0  0
  2  1  1  0  0  0  0
  3  9  1  0  0  0  0
  3  4  1  0  0  0  0
  4 11  1  0  0  0  0
  4  5  1  0  0  0  0
  5 13  1  0  0  0  0
  5 12  1  0  0  0  0
  6 14  1  6  0  0  0
  6  5  1  0  0  0  0
  6 34  1  0  0  0  0
  7  2  1  0  0  0  0
  8  2  1  0  0  0  0
 10  3  1  0  0  0  0
 16 17  1  0  0  0  0
 16 15  1  0  0  0  0
 17 27  1  0  0  0  0
 18 22  1  0  0  0  0
 18 17  2  0  0  0  0
 19 18  1  0  0  0  0
 20 19  2  0  0  0  0
 20 21  1  0  0  0  0
 21 16  2  0  0  0  0
 23 19  1  0  0  0  0
 24 20  1  0  0  0  0
 25 31  1  0  0  0  0
 26 25  1  0  0  0  0
 26 32  1  0  0  0  0
 27 26  2  0  0  0  0
 28 29  2  0  0  0  0
 28 27  1  0  0  0  0
 29 30  1  0  0  0  0
 30 25  2  0  0  0  0
 33 29  1  0  0  0  0
 34 35  2  0  0  0  0
 34 42  1  0  0  0  0
 35 37  1  0  0  0  0
 36 35  1  0  0  0  0
 37 38  2  0  0  0  0
 38 39  1  0  0  0  0
 40 38  1  0  0  0  0
 40 41  1  0  0  0  0
 42 40  2  0  0  0  0
M  END
>  <minimizedAffinity>
-5.31938076

$$$$

 OpenBabel03272505173D

 42 45  0  0  1  0  0  0  0  0999 V2000
   39.4340   25.2560   31.0800 N   0  0  0  0  0  0  0  0  0  0  0  0
   40.0200   24.1170   30.3740 C   0  0  0  0  0  0  0  0  0  0  0  0
   39.4770   24.1490   28.9630 C   0  0  0  0  0  0  0  0  0  0  0  0
   39.7290   25.4610   28.4490 N   0  0  0  0  0  0  0  0  0  0  0  0
   38.9970   26.4880   29.1010 C   0  0  0  0  0  0  0  0  0  0  0  0
   38.3780   25.9370   30.3920 C   0  0  2  0  0  0  0  0  0  0  0  0
   39.8580   23.1730   30.9010 H   0  0  0  0  0  0  0  0  0  0  0  0
   41.1170   24.3280   30.2940 H   0  0  0  0  0  0  0  0  0  0  0  0
   38.4630   23.7650   28.8480 H   0  0  0  0  0  0  0  0  0  0  0  0
   40.1410   23.4380   28.3790 H   0  0  0  0  0  0  0  0  0  0  0  0
   39.7880   25.5040   27.4230 H   0  0  0  0  0  0  0  0  0  0  0  0
   38.1770   26.8920   28.4520 H   0  0  0  0  0  0  0  0  0  0  0  0
   39.6880   27.3330   29.2980 H   0  0  0  0  0  0  0  0  0  0  0  0
   37.6480   25.1690   30.0440 H   0  0  0  0  0  0  0  0  0  0  0  0
   38.4940   23.5460   33.2980 Cl  0  0  0  0  0  0  0  0  0  0  0  0
   39.4430   24.9920   33.5160 C   0  0  0  0  0  0  0  0  0  0  0  0
   39.7820   25.3740   34.7690 C   0  0  0  0  0  0  0  0  0  0  0  0
   40.5670   26.5210   34.8480 C   0  0  0  0  0  0  0  0  0  0  0  0
   40.9950   27.2480   33.7760 C   0  0  0  0  0  0  0  0  0  0  0  0
   40.6210   26.8150   32.5260 C   0  0  0  0  0  0  0  0  0  0  0  0
   39.8420   25.6860   32.3770 C   0  0  0  0  0  0  0  0  0  0  0  0
   40.8630   26.8650   35.8450 H   0  0  0  0  0  0  0  0  0  0  0  0
   41.6090   28.1340   33.9300 H   0  0  0  0  0  0  0  0  0  0  0  0
   40.9350   27.3570   31.6450 H   0  0  0  0  0  0  0  0  0  0  0  0
   37.7580   24.1810   37.7040 C   0  0  0  0  0  0  0  0  0  0  0  0
   38.1660   24.9440   36.5990 C   0  0  0  0  0  0  0  0  0  0  0  0
   39.3450   24.6200   35.9150 C   0  0  0  0  0  0  0  0  0  0  0  0
   40.0550   23.5470   36.3800 N   0  0  0  0  0  0  0  0  0  0  0  0
   39.6560   22.8230   37.4420 C   0  0  0  0  0  0  0  0  0  0  0  0
   38.5150   23.1350   38.1030 N   0  0  0  0  0  0  0  0  0  0  0  0
   36.8820   24.3430   38.2880 H   0  0  0  0  0  0  0  0  0  0  0  0
   37.4770   25.7480   36.4410 H   0  0  0  0  0  0  0  0  0  0  0  0
   40.3530   22.0250   37.6460 H   0  0  0  0  0  0  0  0  0  0  0  0
   37.6340   26.9490   31.1140 C   0  0  0  0  0  0  0  0  0  0  0  0
   37.6550   28.2880   30.6850 C   0  0  0  0  0  0  0  0  0  0  0  0
   38.2370   28.5160   29.7760 H   0  0  0  0  0  0  0  0  0  0  0  0
   37.0330   29.3570   31.2660 C   0  0  0  0  0  3  0  0  0  0  0  0
   36.2930   29.1210   32.4060 C   0  0  0  0  0  0  0  0  0  0  0  0
   35.8000   29.9350   32.8760 H   0  0  0  0  0  0  0  0  0  0  0  0
   36.2040   27.8430   32.9140 C   0  0  0  0  0  0  0  0  0  0  0  0
   35.6290   27.6580   33.7990 H   0  0  0  0  0  0  0  0  0  0  0  0
   36.8690   26.8350   32.2530 C   0  0  0  0  0  3  0  0  0  0  0  0
  1 21  1  0  0  0  0
  2  7  1  0  0  0  0
  2  1  1  0  0  0  0
  3  2  1  0  0  0  0
  4  3  1  0  0  0  0
  4  5  1  0  0  0  0
  5 13  1  0  0  0  0
  5  6  1  0  0  0  0
  6 14  1  6  0  0  0
  6  1  1  0  0  0  0
  6 34  1  0  0  0  0
  8  2  1  0  0  0  0
  9  3  1  0  0  0  0
 10  3  1  0  0  0  0
 11  4  1  0  0  0  0
 12  5  1  0  0  0  0
 15 16  1  0  0  0  0
 16 17  1  0  0  0  0
 17 18  2  0  0  0  0
 17 27  1  0  0  0  0
 18 22  1  0  0  0  0
 19 23  1  0  0  0  0
 19 18  1  0  0  0  0
 20 19  2  0  0  0  0
 21 20  1  0  0  0  0
 21 16  2  0  0  0  0
 24 20  1  0  0  0  0
 25 30  1  0  0  0  0
 25 31  1  0  0  0  0
 26 25  2  0  0  0  0
 27 28  2  0  0  0  0
 27 26  1  0  0  0  0
 28 29  1  0  0  0  0
 29 33  1  0  0  0  0
 29 30  2  0  0  0  0
 32 26  1  0  0  0  0
 34 42  1  0  0  0  0
 35 34  2  0  0  0  0
 35 37  1  0  0  0  0
 36 35  1  0  0  0  0
 37 38  2  0  0  0  0
 38 39  1  0  0  0  0
 38 40  1  0  0  0  0
 40 41  1  0  0  0  0
 42 40  2  0  0  0  0
M  END
>  <minimizedAffinity>
-5.21510077

$$$$

 OpenBabel03272505173D

 42 45  0  0  1  0  0  0  0  0999 V2000
   41.2100   24.6480   33.5740 N   0  0  0  0  0  0  0  0  0  0  0  0
   42.5010   24.2200   33.0360 C   0  0  0  0  0  0  0  0  0  0  0  0
   43.3150   25.4710   32.8000 C   0  0  0  0  0  0  0  0  0  0  0  0
   43.3090   26.2100   34.0260 N   0  0  0  0  0  0  0  0  0  0  0  0
   42.0340   26.7170   34.3900 C   0  0  0  0  0  0  0  0  0  0  0  0
   40.9520   26.0560   33.5250 C   0  0  2  0  0  0  0  0  0  0  0  0
   42.3930   23.5760   32.1600 H   0  0  0  0  0  0  0  0  0  0  0  0
   43.0140   23.6600   33.8610 H   0  0  0  0  0  0  0  0  0  0  0  0
   43.0620   26.0240   31.8950 H   0  0  0  0  0  0  0  0  0  0  0  0
   44.3770   25.1030   32.6480 H   0  0  0  0  0  0  0  0  0  0  0  0
   44.1150   26.8390   34.1400 H   0  0  0  0  0  0  0  0  0  0  0  0
   41.9730   27.8290   34.2560 H   0  0  0  0  0  0  0  0  0  0  0  0
   41.8790   26.5220   35.4710 H   0  0  0  0  0  0  0  0  0  0  0  0
   41.1730   26.4060   32.4890 H   0  0  0  0  0  0  0  0  0  0  0  0
   39.5300   23.3070   31.5480 Cl  0  0  0  0  0  0  0  0  0  0  0  0
   39.3500   23.0820   33.2670 C   0  0  0  0  0  0  0  0  0  0  0  0
   38.3890   22.2470   33.7250 C   0  0  0  0  0  0  0  0  0  0  0  0
   38.3380   22.1020   35.1090 C   0  0  0  0  0  0  0  0  0  0  0  0
   39.1690   22.7290   35.9890 C   0  0  0  0  0  0  0  0  0  0  0  0
   40.1270   23.5670   35.4700 C   0  0  0  0  0  0  0  0  0  0  0  0
   40.2320   23.7570   34.1070 C   0  0  0  0  0  0  0  0  0  0  0  0
   37.5730   21.4340   35.5200 H   0  0  0  0  0  0  0  0  0  0  0  0
   39.0580   22.5570   37.0580 H   0  0  0  0  0  0  0  0  0  0  0  0
   40.8100   24.0870   36.1270 H   0  0  0  0  0  0  0  0  0  0  0  0
   35.4600   21.4720   31.4990 C   0  0  0  0  0  0  0  0  0  0  0  0
   36.2960   22.1500   32.4000 C   0  0  0  0  0  0  0  0  0  0  0  0
   37.5030   21.5700   32.8130 C   0  0  0  0  0  0  0  0  0  0  0  0
   37.8050   20.3380   32.3020 N   0  0  0  0  0  0  0  0  0  0  0  0
   36.9950   19.6960   31.4410 C   0  0  0  0  0  0  0  0  0  0  0  0
   35.8280   20.2570   31.0390 N   0  0  0  0  0  0  0  0  0  0  0  0
   34.5270   21.8250   31.1240 H   0  0  0  0  0  0  0  0  0  0  0  0
   35.8410   23.0750   32.6880 H   0  0  0  0  0  0  0  0  0  0  0  0
   37.4120   18.7420   31.1590 H   0  0  0  0  0  0  0  0  0  0  0  0
   39.6230   26.5200   33.8660 C   0  0  0  0  0  0  0  0  0  0  0  0
   39.3470   27.0000   35.1590 C   0  0  0  0  0  0  0  0  0  0  0  0
   40.1860   27.0240   35.8760 H   0  0  0  0  0  0  0  0  0  0  0  0
   38.1500   27.4460   35.6430 C   0  0  0  0  0  3  0  0  0  0  0  0
   37.0720   27.4340   34.7830 C   0  0  0  0  0  0  0  0  0  0  0  0
   36.1300   27.7750   35.1350 H   0  0  0  0  0  0  0  0  0  0  0  0
   37.2300   26.9830   33.4900 C   0  0  0  0  0  0  0  0  0  0  0  0
   36.3930   26.9730   32.8210 H   0  0  0  0  0  0  0  0  0  0  0  0
   38.4790   26.5550   33.1010 C   0  0  0  0  0  3  0  0  0  0  0  0
  1 21  1  0  0  0  0
  2  1  1  0  0  0  0
  2  8  1  0  0  0  0
  3  2  1  0  0  0  0
  3  4  1  0  0  0  0
  4 11  1  0  0  0  0
  4  5  1  0  0  0  0
  5 13  1  0  0  0  0
  6 14  1  6  0  0  0
  6  1  1  0  0  0  0
  6 34  1  0  0  0  0
  6  5  1  0  0  0  0
  7  2  1  0  0  0  0
  9  3  1  0  0  0  0
 10  3  1  0  0  0  0
 12  5  1  0  0  0  0
 15 16  1  0  0  0  0
 16 17  2  0  0  0  0
 16 21  1  0  0  0  0
 17 18  1  0  0  0  0
 18 22  1  0  0  0  0
 18 19  2  0  0  0  0
 19 23  1  0  0  0  0
 20 19  1  0  0  0  0
 20 24  1  0  0  0  0
 21 20  2  0  0  0  0
 25 26  1  0  0  0  0
 26 32  1  0  0  0  0
 26 27  2  0  0  0  0
 27 17  1  0  0  0  0
 28 27  1  0  0  0  0
 29 28  2  0  0  0  0
 30 29  1  0  0  0  0
 30 25  2  0  0  0  0
 31 25  1  0  0  0  0
 33 29  1  0  0  0  0
 34 35  1  0  0  0  0
 35 37  2  0  0  0  0
 35 36  1  0  0  0  0
 38 39  1  0  0  0  0
 38 37  1  0  0  0  0
 40 38  2  0  0  0  0
 41 40  1  0  0  0  0
 42 40  1  0  0  0  0
 42 34  2  0  0  0  0
M  END
>  <minimizedAffinity>
-5.21359777

$$$$

 OpenBabel03272505173D

 42 45  0  0  1  0  0  0  0  0999 V2000
   37.1120   24.6600   32.8430 N   0  0  0  0  0  0  0  0  0  0  0  0
   36.8660   23.2440   33.1140 C   0  0  0  0  0  0  0  0  0  0  0  0
   36.2900   22.6500   31.8490 C   0  0  0  0  0  0  0  0  0  0  0  0
   37.1850   22.9860   30.7850 N   0  0  0  0  0  0  0  0  0  0  0  0
   37.2420   24.3740   30.4920 C   0  0  0  0  0  0  0  0  0  0  0  0
   36.5630   25.1640   31.6200 C   0  0  2  0  0  0  0  0  0  0  0  0
   36.2560   23.0910   34.0070 H   0  0  0  0  0  0  0  0  0  0  0  0
   37.8730   22.7720   33.2530 H   0  0  0  0  0  0  0  0  0  0  0  0
   35.2320   22.8550   31.6820 H   0  0  0  0  0  0  0  0  0  0  0  0
   36.3650   21.5270   31.9940 H   0  0  0  0  0  0  0  0  0  0  0  0
   37.1470   22.3390   29.9850 H   0  0  0  0  0  0  0  0  0  0  0  0
   36.7310   24.6190   29.5240 H   0  0  0  0  0  0  0  0  0  0  0  0
   38.3060   24.6580   30.3680 H   0  0  0  0  0  0  0  0  0  0  0  0
   35.4930   24.8510   31.5730 H   0  0  0  0  0  0  0  0  0  0  0  0
   40.0420   24.6360   32.4710 Cl  0  0  0  0  0  0  0  0  0  0  0  0
   39.2210   25.5910   33.6760 C   0  0  0  0  0  0  0  0  0  0  0  0
   39.9480   26.3760   34.5030 C   0  0  0  0  0  0  0  0  0  0  0  0
   39.2090   27.1280   35.4120 C   0  0  0  0  0  0  0  0  0  0  0  0
   37.8490   27.1160   35.5090 C   0  0  0  0  0  0  0  0  0  0  0  0
   37.1590   26.3000   34.6450 C   0  0  0  0  0  0  0  0  0  0  0  0
   37.8300   25.5270   33.7200 C   0  0  0  0  0  0  0  0  0  0  0  0
   39.7610   27.7780   36.1000 H   0  0  0  0  0  0  0  0  0  0  0  0
   37.3510   27.7390   36.2510 H   0  0  0  0  0  0  0  0  0  0  0  0
   36.0790   26.2550   34.6820 H   0  0  0  0  0  0  0  0  0  0  0  0
   43.5800   25.5330   34.9920 C   0  0  0  0  0  0  0  0  0  0  0  0
   42.1820   25.4860   35.1080 C   0  0  0  0  0  0  0  0  0  0  0  0
   41.3850   26.4080   34.4160 C   0  0  0  0  0  0  0  0  0  0  0  0
   42.0360   27.3330   33.6450 N   0  0  0  0  0  0  0  0  0  0  0  0
   43.3770   27.3700   33.5420 C   0  0  0  0  0  0  0  0  0  0  0  0
   44.1480   26.4770   34.2100 N   0  0  0  0  0  0  0  0  0  0  0  0
   44.2700   24.8810   35.4730 H   0  0  0  0  0  0  0  0  0  0  0  0
   41.9020   24.7070   35.7870 H   0  0  0  0  0  0  0  0  0  0  0  0
   43.6900   28.1700   32.8900 H   0  0  0  0  0  0  0  0  0  0  0  0
   36.6080   26.5930   31.3880 C   0  0  0  0  0  0  0  0  0  0  0  0
   37.7040   27.1700   30.7220 C   0  0  0  0  0  0  0  0  0  0  0  0
   38.4980   26.4870   30.3740 H   0  0  0  0  0  0  0  0  0  0  0  0
   37.9090   28.4940   30.4500 C   0  0  0  0  0  3  0  0  0  0  0  0
   36.9430   29.3860   30.8660 C   0  0  0  0  0  0  0  0  0  0  0  0
   37.0790   30.4200   30.6680 H   0  0  0  0  0  0  0  0  0  0  0  0
   35.8250   28.9270   31.5290 C   0  0  0  0  0  0  0  0  0  0  0  0
   35.0740   29.6200   31.8540 H   0  0  0  0  0  0  0  0  0  0  0  0
   35.7150   27.5740   31.7550 C   0  0  0  0  0  3  0  0  0  0  0  0
  1  2  1  0  0  0  0
  1 21  1  0  0  0  0
  2  8  1  0  0  0  0
  2  7  1  0  0  0  0
  3 10  1  0  0  0  0
  3  2  1  0  0  0  0
  4  3  1  0  0  0  0
  5  4  1  0  0  0  0
  5  6  1  0  0  0  0
  6 14  1  6  0  0  0
  6  1  1  0  0  0  0
  9  3  1  0  0  0  0
 11  4  1  0  0  0  0
 12  5  1  0  0  0  0
 13  5  1  0  0  0  0
 15 16  1  0  0  0  0
 16 21  2  0  0  0  0
 16 17  1  0  0  0  0
 17 18  2  0  0  0  0
 18 19  1  0  0  0  0
 18 22  1  0  0  0  0
 19 23  1  0  0  0  0
 20 24  1  0  0  0  0
 20 19  2  0  0  0  0
 21 20  1  0  0  0  0
 25 26  1  0  0  0  0
 25 31  1  0  0  0  0
 26 32  1  0  0  0  0
 27 17  1  0  0  0  0
 27 26  2  0  0  0  0
 28 27  1  0  0  0  0
 29 28  2  0  0  0  0
 29 30  1  0  0  0  0
 30 25  2  0  0  0  0
 33 29  1  0  0  0  0
 34  6  1  0  0  0  0
 34 42  1  0  0  0  0
 35 34  2  0  0  0  0
 36 35  1  0  0  0  0
 37 35  1  0  0  0  0
 37 38  2  0  0  0  0
 38 40  1  0  0  0  0
 39 38  1  0  0  0  0
 40 42  2  0  0  0  0
 40 41  1  0  0  0  0
M  END
>  <minimizedAffinity>
-5.16591787

$$$$

 OpenBabel03272505173D

 42 45  0  0  1  0  0  0  0  0999 V2000
   39.3240   24.4560   31.5350 N   0  0  0  0  0  0  0  0  0  0  0  0
   40.0920   23.8680   30.4380 C   0  0  0  0  0  0  0  0  0  0  0  0
   41.2230   23.0860   31.0650 C   0  0  0  0  0  0  0  0  0  0  0  0
   40.6370   22.2010   32.0250 N   0  0  0  0  0  0  0  0  0  0  0  0
   40.0460   22.8600   33.1350 C   0  0  0  0  0  0  0  0  0  0  0  0
   39.9210   24.3600   32.8330 C   0  0  2  0  0  0  0  0  0  0  0  0
   40.4070   24.6150   29.7040 H   0  0  0  0  0  0  0  0  0  0  0  0
   39.4190   23.1150   29.9520 H   0  0  0  0  0  0  0  0  0  0  0  0
   42.0680   23.6860   31.4040 H   0  0  0  0  0  0  0  0  0  0  0  0
   41.6260   22.4360   30.2270 H   0  0  0  0  0  0  0  0  0  0  0  0
   41.2010   21.3640   32.2210 H   0  0  0  0  0  0  0  0  0  0  0  0
   40.6530   22.7310   34.0690 H   0  0  0  0  0  0  0  0  0  0  0  0
   39.0610   22.3920   33.3310 H   0  0  0  0  0  0  0  0  0  0  0  0
   40.9750   24.7160   32.7490 H   0  0  0  0  0  0  0  0  0  0  0  0
   39.5020   27.3340   30.8960 Cl  0  0  0  0  0  0  0  0  0  0  0  0
   38.0010   26.4730   31.0970 C   0  0  0  0  0  0  0  0  0  0  0  0
   36.8330   27.1410   30.9570 C   0  0  0  0  0  0  0  0  0  0  0  0
   35.6850   26.3680   31.1020 C   0  0  0  0  0  0  0  0  0  0  0  0
   35.6740   25.0300   31.3660 C   0  0  0  0  0  0  0  0  0  0  0  0
   36.8890   24.4000   31.4990 C   0  0  0  0  0  0  0  0  0  0  0  0
   38.0660   25.1080   31.3690 C   0  0  0  0  0  0  0  0  0  0  0  0
   34.7180   26.8720   30.9960 H   0  0  0  0  0  0  0  0  0  0  0  0
   34.7260   24.5030   31.4630 H   0  0  0  0  0  0  0  0  0  0  0  0
   36.9330   23.3410   31.7090 H   0  0  0  0  0  0  0  0  0  0  0  0
   36.4840   30.8640   31.3510 C   0  0  0  0  0  0  0  0  0  0  0  0
   36.4740   29.4930   31.6530 C   0  0  0  0  0  0  0  0  0  0  0  0
   36.8200   28.5530   30.6740 C   0  0  0  0  0  0  0  0  0  0  0  0
   37.1570   29.0400   29.4400 N   0  0  0  0  0  0  0  0  0  0  0  0
   37.1620   30.3560   29.1610 C   0  0  0  0  0  0  0  0  0  0  0  0
   36.8280   31.2660   30.1080 N   0  0  0  0  0  0  0  0  0  0  0  0
   36.2400   31.6540   32.0220 H   0  0  0  0  0  0  0  0  0  0  0  0
   36.1470   29.3480   32.6630 H   0  0  0  0  0  0  0  0  0  0  0  0
   37.4540   30.5300   28.1370 H   0  0  0  0  0  0  0  0  0  0  0  0
   39.3030   25.0850   33.9250 C   0  0  0  0  0  0  0  0  0  0  0  0
   39.7610   26.3680   34.2740 C   0  0  0  0  0  0  0  0  0  0  0  0
   40.5820   26.7920   33.6700 H   0  0  0  0  0  0  0  0  0  0  0  0
   39.3070   27.1660   35.2870 C   0  0  0  0  0  3  0  0  0  0  0  0
   38.2810   26.6790   36.0700 C   0  0  0  0  0  0  0  0  0  0  0  0
   37.9110   27.2790   36.8630 H   0  0  0  0  0  0  0  0  0  0  0  0
   37.7570   25.4300   35.8140 C   0  0  0  0  0  0  0  0  0  0  0  0
   36.9600   25.0500   36.4220 H   0  0  0  0  0  0  0  0  0  0  0  0
   38.2860   24.7060   34.7710 C   0  0  0  0  0  3  0  0  0  0  0  0
  1  6  1  0  0  0  0
  2  3  1  0  0  0  0
  2  1  1  0  0  0  0
  3  9  1  0  0  0  0
  3  4  1  0  0  0  0
  4 11  1  0  0  0  0
  4  5  1  0  0  0  0
  5 13  1  0  0  0  0
  5 12  1  0  0  0  0
  6 14  1  6  0  0  0
  6  5  1  0  0  0  0
  6 34  1  0  0  0  0
  7  2  1  0  0  0  0
  8  2  1  0  0  0  0
 10  3  1  0  0  0  0
 15 16  1  0  0  0  0
 16 21  1  0  0  0  0
 17 16  2  0  0  0  0
 17 18  1  0  0  0  0
 18 19  2  0  0  0  0
 19 23  1  0  0  0  0
 19 20  1  0  0  0  0
 20 24  1  0  0  0  0
 21 20  2  0  0  0  0
 21  1  1  0  0  0  0
 22 18  1  0  0  0  0
 25 26  1  0  0  0  0
 25 31  1  0  0  0  0
 26 32  1  0  0  0  0
 27 17  1  0  0  0  0
 27 26  2  0  0  0  0
 28 27  1  0  0  0  0
 29 28  2  0  0  0  0
 29 30  1  0  0  0  0
 30 25  2  0  0  0  0
 33 29  1  0  0  0  0
 34 35  2  0  0  0  0
 34 42  1  0  0  0  0
 35 37  1  0  0  0  0
 36 35  1  0  0  0  0
 37 38  2  0  0  0  0
 38 39  1  0  0  0  0
 40 38  1  0  0  0  0
 40 41  1  0  0  0  0
 42 40  2  0  0  0  0
M  END
>  <minimizedAffinity>
-5.14788055

$$$$
