
 OpenBabel03272506133D

 44 47  0  0  1  0  0  0  0  0999 V2000
   37.8390   23.7680   32.0700 C   0  0  1  0  0  0  0  0  0  0  0  0
   37.9640   23.6710   30.4990 C   0  0  0  0  0  0  0  0  0  0  0  0
   38.9150   24.7510   29.9840 C   0  0  0  0  0  0  0  0  0  0  0  0
   38.6210   26.0680   30.6280 C   0  0  0  0  0  0  0  0  0  0  0  0
   37.2190   26.0180   31.1510 C   0  0  0  0  0  0  0  0  0  0  0  0
   37.2330   25.1070   32.3620 C   0  0  2  0  0  0  0  0  0  0  0  0
   38.8490   23.9290   32.2600 H   0  0  0  0  0  0  0  0  0  0  0  0
   36.9810   23.7580   30.0490 H   0  0  0  0  0  0  0  0  0  0  0  0
   38.4460   22.7020   30.3060 H   0  0  0  0  0  0  0  0  0  0  0  0
   38.8310   24.7470   28.8990 H   0  0  0  0  0  0  0  0  0  0  0  0
   39.9220   24.4210   30.3210 H   0  0  0  0  0  0  0  0  0  0  0  0
   38.7090   26.8870   29.9010 H   0  0  0  0  0  0  0  0  0  0  0  0
   39.2790   26.2480   31.5020 H   0  0  0  0  0  0  0  0  0  0  0  0
   36.9120   27.0150   31.4550 H   0  0  0  0  0  0  0  0  0  0  0  0
   36.4610   25.6700   30.4190 H   0  0  0  0  0  0  0  0  0  0  0  0
   36.1970   25.1040   32.7360 H   0  0  0  0  0  0  0  0  0  0  0  0
   37.2550   22.0290   33.6960 C   0  0  0  0  0  0  0  0  0  0  0  0
   36.3890   21.0020   34.0650 C   0  0  0  0  0  0  0  0  0  0  0  0
   35.3500   20.5460   33.2800 C   0  0  0  0  0  0  0  0  0  0  0  0
   35.1330   21.1360   32.0290 C   0  0  0  0  0  0  0  0  0  0  0  0
   36.0010   22.1530   31.6790 C   0  0  0  0  0  0  0  0  0  0  0  0
   37.0470   22.6260   32.4570 C   0  0  0  0  0  0  0  0  0  0  0  0
   36.4970   20.4940   35.0340 H   0  0  0  0  0  0  0  0  0  0  0  0
   34.7290   19.7520   33.6410 H   0  0  0  0  0  0  0  0  0  0  0  0
   34.3190   20.7660   31.4290 H   0  0  0  0  0  0  0  0  0  0  0  0
   35.7450   22.5200   30.6940 H   0  0  0  0  0  0  0  0  0  0  0  0
   37.9610   22.8920   35.8590 C   0  0  0  0  0  0  0  0  0  0  0  0
   38.3170   22.2980   34.6040 C   0  0  0  0  0  0  0  0  0  0  0  0
   39.6440   22.0330   34.4110 C   0  0  0  0  0  0  0  0  0  0  0  0
   40.5360   22.3260   35.3810 N   0  0  0  0  0  0  0  0  0  0  0  0
   40.1620   22.8950   36.5770 C   0  0  0  0  0  0  0  0  0  0  0  0
   38.8360   23.1910   36.8310 N   0  0  0  0  0  0  0  0  0  0  0  0
   36.9580   23.1580   36.1590 H   0  0  0  0  0  0  0  0  0  0  0  0
   40.1710   21.6800   33.5790 H   0  0  0  0  0  0  0  0  0  0  0  0
   40.8960   23.1270   37.3560 H   0  0  0  0  0  0  0  0  0  0  0  0
   37.9790   25.7850   33.4990 C   0  0  0  0  0  0  0  0  0  0  0  0
   39.2640   25.7080   33.9060 C   0  0  0  0  0  0  0  0  0  0  0  0
   39.8670   25.0510   33.3280 H   0  0  0  0  0  0  0  0  0  0  0  0
   39.6950   26.4440   34.9870 C   0  0  0  0  0  3  0  0  0  0  0  0
   38.8850   27.2800   35.7070 C   0  0  0  0  0  0  0  0  0  0  0  0
   39.3150   27.8210   36.5450 H   0  0  0  0  0  0  0  0  0  0  0  0
   37.5790   27.3760   35.3140 C   0  0  0  0  0  0  0  0  0  0  0  0
   36.9370   28.0340   35.8780 H   0  0  0  0  0  0  0  0  0  0  0  0
   37.1460   26.6430   34.2350 C   0  0  0  0  0  3  0  0  0  0  0  0
  1  7  1  1  0  0  0
  1  6  1  0  0  0  0
  1 22  1  0  0  0  0
  2  1  1  0  0  0  0
  3 11  1  0  0  0  0
  3  2  1  0  0  0  0
  3  4  1  0  0  0  0
  4  5  1  0  0  0  0
  4 13  1  0  0  0  0
  5 14  1  0  0  0  0
  5  6  1  0  0  0  0
  6 16  1  1  0  0  0
  6 36  1  0  0  0  0
  8  2  1  0  0  0  0
  9  2  1  0  0  0  0
 10  3  1  0  0  0  0
 12  4  1  0  0  0  0
 15  5  1  0  0  0  0
 17 18  1  0  0  0  0
 17 28  1  0  0  0  0
 18 23  1  0  0  0  0
 19 24  1  0  0  0  0
 19 18  2  0  0  0  0
 20 19  1  0  0  0  0
 21 20  2  0  0  0  0
 21 22  1  0  0  0  0
 22 17  2  0  0  0  0
 25 20  1  0  0  0  0
 26 21  1  0  0  0  0
 27 33  1  0  0  0  0
 27 32  1  0  0  0  0
 28 27  2  0  0  0  0
 29 28  1  0  0  0  0
 29 30  2  0  0  0  0
 30 31  1  0  0  0  0
 31 32  2  0  0  0  0
 31 35  1  0  0  0  0
 34 29  1  0  0  0  0
 36 37  2  0  0  0  0
 36 44  1  0  0  0  0
 37 39  1  0  0  0  0
 38 37  1  0  0  0  0
 39 40  2  0  0  0  0
 40 41  1  0  0  0  0
 42 40  1  0  0  0  0
 42 43  1  0  0  0  0
 44 42  2  0  0  0  0
M  END
>  <minimizedAffinity>
-6.14837885

$$$$

 OpenBabel03272506133D

 44 47  0  0  1  0  0  0  0  0999 V2000
   38.4780   25.6390   33.2130 C   0  0  1  0  0  0  0  0  0  0  0  0
   39.3440   26.7970   32.5790 C   0  0  0  0  0  0  0  0  0  0  0  0
   40.6780   26.9140   33.3170 C   0  0  0  0  0  0  0  0  0  0  0  0
   40.4710   26.8630   34.7970 C   0  0  0  0  0  0  0  0  0  0  0  0
   39.0440   27.2240   35.0720 C   0  0  0  0  0  0  0  0  0  0  0  0
   38.1980   26.0480   34.6270 C   0  0  2  0  0  0  0  0  0  0  0  0
   39.2540   24.9550   33.3230 H   0  0  0  0  0  0  0  0  0  0  0  0
   38.7880   27.7270   32.6110 H   0  0  0  0  0  0  0  0  0  0  0  0
   39.5730   26.4620   31.5570 H   0  0  0  0  0  0  0  0  0  0  0  0
   41.1530   27.8230   32.9570 H   0  0  0  0  0  0  0  0  0  0  0  0
   41.2440   26.0050   33.0180 H   0  0  0  0  0  0  0  0  0  0  0  0
   41.1320   27.5750   35.3100 H   0  0  0  0  0  0  0  0  0  0  0  0
   40.6200   25.8370   35.1930 H   0  0  0  0  0  0  0  0  0  0  0  0
   38.9110   27.3780   36.1400 H   0  0  0  0  0  0  0  0  0  0  0  0
   38.6960   28.1540   34.5780 H   0  0  0  0  0  0  0  0  0  0  0  0
   37.1600   26.3320   34.8570 H   0  0  0  0  0  0  0  0  0  0  0  0
   36.9460   24.2710   31.8740 C   0  0  0  0  0  0  0  0  0  0  0  0
   35.7610   24.1970   31.1450 C   0  0  0  0  0  0  0  0  0  0  0  0
   34.9500   25.2800   30.8750 C   0  0  0  0  0  0  0  0  0  0  0  0
   35.3200   26.5440   31.3520 C   0  0  0  0  0  0  0  0  0  0  0  0
   36.4980   26.5980   32.0740 C   0  0  0  0  0  0  0  0  0  0  0  0
   37.3230   25.5200   32.3570 C   0  0  0  0  0  0  0  0  0  0  0  0
   35.4060   23.2390   30.7420 H   0  0  0  0  0  0  0  0  0  0  0  0
   34.0530   25.1360   30.3080 H   0  0  0  0  0  0  0  0  0  0  0  0
   34.6760   27.3780   31.1300 H   0  0  0  0  0  0  0  0  0  0  0  0
   36.6860   27.6200   32.3760 H   0  0  0  0  0  0  0  0  0  0  0  0
   37.1110   22.0120   32.7610 C   0  0  0  0  0  0  0  0  0  0  0  0
   37.6880   23.0600   31.9730 C   0  0  0  0  0  0  0  0  0  0  0  0
   38.8870   22.7860   31.3780 C   0  0  0  0  0  0  0  0  0  0  0  0
   39.4590   21.5750   31.5470 N   0  0  0  0  0  0  0  0  0  0  0  0
   38.8800   20.5870   32.3090 C   0  0  0  0  0  0  0  0  0  0  0  0
   37.6690   20.8040   32.9400 N   0  0  0  0  0  0  0  0  0  0  0  0
   36.1710   22.0750   33.2890 H   0  0  0  0  0  0  0  0  0  0  0  0
   39.5440   23.3840   30.8250 H   0  0  0  0  0  0  0  0  0  0  0  0
   39.3550   19.6090   32.4380 H   0  0  0  0  0  0  0  0  0  0  0  0
   38.4230   24.8750   35.5680 C   0  0  0  0  0  0  0  0  0  0  0  0
   38.9760   23.6600   35.3750 C   0  0  0  0  0  0  0  0  0  0  0  0
   39.3170   23.4860   34.3830 H   0  0  0  0  0  0  0  0  0  0  0  0
   39.0630   22.7640   36.4170 C   0  0  0  0  0  3  0  0  0  0  0  0
   38.6110   23.0260   37.6820 C   0  0  0  0  0  0  0  0  0  0  0  0
   38.7220   22.2560   38.4410 H   0  0  0  0  0  0  0  0  0  0  0  0
   38.0460   24.2520   37.9030 C   0  0  0  0  0  0  0  0  0  0  0  0
   37.6890   24.4620   38.8980 H   0  0  0  0  0  0  0  0  0  0  0  0
   37.9590   25.1480   36.8640 C   0  0  0  0  0  3  0  0  0  0  0  0
  1  7  1  6  0  0  0
  1  6  1  0  0  0  0
  2  8  1  0  0  0  0
  2  1  1  0  0  0  0
  2  3  1  0  0  0  0
  3  4  1  0  0  0  0
  4  5  1  0  0  0  0
  4 13  1  0  0  0  0
  4 12  1  0  0  0  0
  5 14  1  0  0  0  0
  6 16  1  1  0  0  0
  6  5  1  0  0  0  0
  6 36  1  0  0  0  0
  9  2  1  0  0  0  0
 10  3  1  0  0  0  0
 11  3  1  0  0  0  0
 15  5  1  0  0  0  0
 17 28  1  0  0  0  0
 17 22  1  0  0  0  0
 18 17  2  0  0  0  0
 19 18  1  0  0  0  0
 19 20  2  0  0  0  0
 20 21  1  0  0  0  0
 21 22  2  0  0  0  0
 21 26  1  0  0  0  0
 22  1  1  0  0  0  0
 23 18  1  0  0  0  0
 24 19  1  0  0  0  0
 25 20  1  0  0  0  0
 27 32  1  0  0  0  0
 27 33  1  0  0  0  0
 28 27  2  0  0  0  0
 29 30  2  0  0  0  0
 29 28  1  0  0  0  0
 30 31  1  0  0  0  0
 31 35  1  0  0  0  0
 31 32  2  0  0  0  0
 34 29  1  0  0  0  0
 36 44  1  0  0  0  0
 37 36  2  0  0  0  0
 37 39  1  0  0  0  0
 38 37  1  0  0  0  0
 39 40  2  0  0  0  0
 40 42  1  0  0  0  0
 40 41  1  0  0  0  0
 42 43  1  0  0  0  0
 44 42  2  0  0  0  0
M  END
>  <minimizedAffinity>
-6.04015398

$$$$

 OpenBabel03272506133D

 44 47  0  0  1  0  0  0  0  0999 V2000
   39.0840   25.0770   33.8810 C   0  0  1  0  0  0  0  0  0  0  0  0
   40.6440   24.8910   34.0310 C   0  0  0  0  0  0  0  0  0  0  0  0
   41.2880   26.2080   34.4640 C   0  0  0  0  0  0  0  0  0  0  0  0
   40.7480   27.3500   33.6650 C   0  0  0  0  0  0  0  0  0  0  0  0
   40.1670   26.7900   32.4030 C   0  0  0  0  0  0  0  0  0  0  0  0
   38.8830   26.0810   32.7860 C   0  0  2  0  0  0  0  0  0  0  0  0
   38.9490   25.6470   34.7400 H   0  0  0  0  0  0  0  0  0  0  0  0
   41.0600   24.5320   33.0960 H   0  0  0  0  0  0  0  0  0  0  0  0
   40.7740   24.1830   34.8630 H   0  0  0  0  0  0  0  0  0  0  0  0
   42.3640   26.0680   34.3860 H   0  0  0  0  0  0  0  0  0  0  0  0
   40.9650   26.3440   35.5190 H   0  0  0  0  0  0  0  0  0  0  0  0
   41.5450   28.0630   33.4120 H   0  0  0  0  0  0  0  0  0  0  0  0
   39.9190   27.8610   34.1950 H   0  0  0  0  0  0  0  0  0  0  0  0
   39.9370   27.6040   31.7200 H   0  0  0  0  0  0  0  0  0  0  0  0
   40.8350   26.1000   31.8490 H   0  0  0  0  0  0  0  0  0  0  0  0
   38.4700   25.6970   31.8410 H   0  0  0  0  0  0  0  0  0  0  0  0
   38.1330   22.9610   34.6740 C   0  0  0  0  0  0  0  0  0  0  0  0
   37.5430   21.7410   34.3560 C   0  0  0  0  0  0  0  0  0  0  0  0
   37.3710   21.2770   33.0670 C   0  0  0  0  0  0  0  0  0  0  0  0
   37.8100   22.0650   31.9960 C   0  0  0  0  0  0  0  0  0  0  0  0
   38.3910   23.2730   32.3300 C   0  0  0  0  0  0  0  0  0  0  0  0
   38.5700   23.7560   33.6180 C   0  0  0  0  0  0  0  0  0  0  0  0
   37.1720   21.0700   35.1440 H   0  0  0  0  0  0  0  0  0  0  0  0
   36.9040   20.3250   32.9090 H   0  0  0  0  0  0  0  0  0  0  0  0
   37.6680   21.6870   30.9970 H   0  0  0  0  0  0  0  0  0  0  0  0
   38.7000   23.7840   31.4280 H   0  0  0  0  0  0  0  0  0  0  0  0
   39.4540   22.6560   36.6940 C   0  0  0  0  0  0  0  0  0  0  0  0
   38.2990   23.2240   36.0630 C   0  0  0  0  0  0  0  0  0  0  0  0
   37.4810   23.9780   36.8570 C   0  0  0  0  0  0  0  0  0  0  0  0
   37.7870   24.1570   38.1590 N   0  0  0  0  0  0  0  0  0  0  0  0
   38.9040   23.5980   38.7360 C   0  0  0  0  0  0  0  0  0  0  0  0
   39.7690   22.8210   37.9880 N   0  0  0  0  0  0  0  0  0  0  0  0
   40.1930   22.0400   36.2020 H   0  0  0  0  0  0  0  0  0  0  0  0
   36.5580   24.4340   36.6720 H   0  0  0  0  0  0  0  0  0  0  0  0
   39.1400   23.7510   39.7940 H   0  0  0  0  0  0  0  0  0  0  0  0
   37.8390   27.1060   33.1980 C   0  0  0  0  0  0  0  0  0  0  0  0
   37.2670   27.3800   34.3890 C   0  0  0  0  0  0  0  0  0  0  0  0
   37.6050   26.7670   35.1880 H   0  0  0  0  0  0  0  0  0  0  0  0
   36.3300   28.3830   34.4940 C   0  0  0  0  0  3  0  0  0  0  0  0
   35.9200   29.1520   33.4380 C   0  0  0  0  0  0  0  0  0  0  0  0
   35.1750   29.9220   33.6170 H   0  0  0  0  0  0  0  0  0  0  0  0
   36.4860   28.8940   32.2200 C   0  0  0  0  0  0  0  0  0  0  0  0
   36.1660   29.4970   31.3850 H   0  0  0  0  0  0  0  0  0  0  0  0
   37.4220   27.8930   32.1130 C   0  0  0  0  0  3  0  0  0  0  0  0
  1  2  1  0  0  0  0
  1  7  1  1  0  0  0
  2  3  1  0  0  0  0
  2  9  1  0  0  0  0
  3 11  1  0  0  0  0
  4 13  1  0  0  0  0
  4  3  1  0  0  0  0
  5  6  1  0  0  0  0
  5  4  1  0  0  0  0
  6 16  1  6  0  0  0
  6 36  1  0  0  0  0
  6  1  1  0  0  0  0
  8  2  1  0  0  0  0
 10  3  1  0  0  0  0
 12  4  1  0  0  0  0
 14  5  1  0  0  0  0
 15  5  1  0  0  0  0
 17 28  1  0  0  0  0
 18 17  1  0  0  0  0
 18 23  1  0  0  0  0
 19 18  2  0  0  0  0
 20 21  2  0  0  0  0
 20 19  1  0  0  0  0
 21 22  1  0  0  0  0
 22  1  1  0  0  0  0
 22 17  2  0  0  0  0
 24 19  1  0  0  0  0
 25 20  1  0  0  0  0
 26 21  1  0  0  0  0
 27 32  1  0  0  0  0
 28 27  2  0  0  0  0
 28 29  1  0  0  0  0
 29 30  2  0  0  0  0
 30 31  1  0  0  0  0
 31 35  1  0  0  0  0
 32 31  2  0  0  0  0
 33 27  1  0  0  0  0
 34 29  1  0  0  0  0
 36 37  1  0  0  0  0
 37 39  2  0  0  0  0
 37 38  1  0  0  0  0
 40 41  1  0  0  0  0
 40 39  1  0  0  0  0
 42 40  2  0  0  0  0
 43 42  1  0  0  0  0
 44 42  1  0  0  0  0
 44 36  2  0  0  0  0
M  END
>  <minimizedAffinity>
-6.03826094

$$$$

 OpenBabel03272506133D

 44 47  0  0  1  0  0  0  0  0999 V2000
   36.6490   27.5110   31.5970 C   0  0  1  0  0  0  0  0  0  0  0  0
   35.7560   26.5430   30.7260 C   0  0  0  0  0  0  0  0  0  0  0  0
   35.5760   25.2080   31.4480 C   0  0  0  0  0  0  0  0  0  0  0  0
   36.8780   24.7240   32.0020 C   0  0  0  0  0  0  0  0  0  0  0  0
   37.9770   25.4120   31.2500 C   0  0  0  0  0  0  0  0  0  0  0  0
   37.9910   26.8540   31.7140 C   0  0  2  0  0  0  0  0  0  0  0  0
   36.2070   27.2900   32.5120 H   0  0  0  0  0  0  0  0  0  0  0  0
   36.2090   26.4100   29.7490 H   0  0  0  0  0  0  0  0  0  0  0  0
   34.7660   27.0200   30.6840 H   0  0  0  0  0  0  0  0  0  0  0  0
   35.1050   24.5320   30.7380 H   0  0  0  0  0  0  0  0  0  0  0  0
   34.9040   25.4410   32.3040 H   0  0  0  0  0  0  0  0  0  0  0  0
   36.9770   23.6380   31.8760 H   0  0  0  0  0  0  0  0  0  0  0  0
   36.9970   25.0080   33.0670 H   0  0  0  0  0  0  0  0  0  0  0  0
   38.9280   24.9460   31.4970 H   0  0  0  0  0  0  0  0  0  0  0  0
   37.8860   25.3650   30.1460 H   0  0  0  0  0  0  0  0  0  0  0  0
   38.8170   27.3290   31.1610 H   0  0  0  0  0  0  0  0  0  0  0  0
   36.0030   29.8730   31.4760 C   0  0  0  0  0  0  0  0  0  0  0  0
   36.1100   31.0920   30.8110 C   0  0  0  0  0  0  0  0  0  0  0  0
   36.7920   31.2700   29.6250 C   0  0  0  0  0  0  0  0  0  0  0  0
   37.4240   30.1700   29.0310 C   0  0  0  0  0  0  0  0  0  0  0  0
   37.3080   28.9680   29.7040 C   0  0  0  0  0  0  0  0  0  0  0  0
   36.6290   28.7720   30.8980 C   0  0  0  0  0  0  0  0  0  0  0  0
   35.6430   32.0000   31.2190 H   0  0  0  0  0  0  0  0  0  0  0  0
   36.8280   32.2440   29.1810 H   0  0  0  0  0  0  0  0  0  0  0  0
   37.9510   30.3270   28.1050 H   0  0  0  0  0  0  0  0  0  0  0  0
   37.8210   28.1950   29.1480 H   0  0  0  0  0  0  0  0  0  0  0  0
   33.8410   29.4000   32.4860 C   0  0  0  0  0  0  0  0  0  0  0  0
   35.1850   29.8730   32.6400 C   0  0  0  0  0  0  0  0  0  0  0  0
   35.5530   30.2610   33.8980 C   0  0  0  0  0  0  0  0  0  0  0  0
   34.6670   30.1800   34.9120 N   0  0  0  0  0  0  0  0  0  0  0  0
   33.3820   29.7200   34.7330 C   0  0  0  0  0  0  0  0  0  0  0  0
   32.9480   29.3170   33.4840 N   0  0  0  0  0  0  0  0  0  0  0  0
   33.4040   29.0580   31.5590 H   0  0  0  0  0  0  0  0  0  0  0  0
   36.4280   30.7040   34.2630 H   0  0  0  0  0  0  0  0  0  0  0  0
   32.6730   29.6610   35.5650 H   0  0  0  0  0  0  0  0  0  0  0  0
   38.4870   26.9230   33.1490 C   0  0  0  0  0  0  0  0  0  0  0  0
   39.6940   26.6750   33.6970 C   0  0  0  0  0  0  0  0  0  0  0  0
   40.4380   26.3740   33.0000 H   0  0  0  0  0  0  0  0  0  0  0  0
   39.8830   26.8190   35.0540 C   0  0  0  0  0  3  0  0  0  0  0  0
   38.8980   27.2100   35.9200 C   0  0  0  0  0  0  0  0  0  0  0  0
   39.1400   27.2960   36.9750 H   0  0  0  0  0  0  0  0  0  0  0  0
   37.6640   27.4670   35.3870 C   0  0  0  0  0  0  0  0  0  0  0  0
   36.8850   27.7750   36.0660 H   0  0  0  0  0  0  0  0  0  0  0  0
   37.4730   27.3240   34.0340 C   0  0  0  0  0  3  0  0  0  0  0  0
  1  6  1  0  0  0  0
  1  7  1  1  0  0  0
  2  3  1  0  0  0  0
  2  1  1  0  0  0  0
  3  4  1  0  0  0  0
  3 11  1  0  0  0  0
  4 13  1  0  0  0  0
  5 14  1  0  0  0  0
  5  6  1  0  0  0  0
  5  4  1  0  0  0  0
  6 16  1  6  0  0  0
  6 36  1  0  0  0  0
  8  2  1  0  0  0  0
  9  2  1  0  0  0  0
 10  3  1  0  0  0  0
 12  4  1  0  0  0  0
 15  5  1  0  0  0  0
 17 28  1  0  0  0  0
 18 23  1  0  0  0  0
 18 17  2  0  0  0  0
 19 18  1  0  0  0  0
 20 19  2  0  0  0  0
 20 21  1  0  0  0  0
 21 22  2  0  0  0  0
 22 17  1  0  0  0  0
 22  1  1  0  0  0  0
 24 19  1  0  0  0  0
 25 20  1  0  0  0  0
 26 21  1  0  0  0  0
 27 28  2  0  0  0  0
 27 32  1  0  0  0  0
 28 29  1  0  0  0  0
 29 34  1  0  0  0  0
 29 30  2  0  0  0  0
 31 30  1  0  0  0  0
 31 35  1  0  0  0  0
 32 31  2  0  0  0  0
 33 27  1  0  0  0  0
 36 37  2  0  0  0  0
 36 44  1  0  0  0  0
 37 39  1  0  0  0  0
 38 37  1  0  0  0  0
 39 40  2  0  0  0  0
 40 41  1  0  0  0  0
 42 40  1  0  0  0  0
 42 43  1  0  0  0  0
 44 42  2  0  0  0  0
M  END
>  <minimizedAffinity>
-6.00578308

$$$$

 OpenBabel03272506133D

 44 47  0  0  1  0  0  0  0  0999 V2000
   38.4030   23.3730   33.0730 C   0  0  1  0  0  0  0  0  0  0  0  0
   39.1960   22.8900   31.7960 C   0  0  0  0  0  0  0  0  0  0  0  0
   40.3220   23.8730   31.4780 C   0  0  0  0  0  0  0  0  0  0  0  0
   39.8340   25.2840   31.5620 C   0  0  0  0  0  0  0  0  0  0  0  0
   38.3430   25.2600   31.4220 C   0  0  0  0  0  0  0  0  0  0  0  0
   37.7890   24.6920   32.7130 C   0  0  2  0  0  0  0  0  0  0  0  0
   39.2350   23.6540   33.6300 H   0  0  0  0  0  0  0  0  0  0  0  0
   38.5120   22.7840   30.9610 H   0  0  0  0  0  0  0  0  0  0  0  0
   39.6720   21.9430   32.0900 H   0  0  0  0  0  0  0  0  0  0  0  0
   40.7190   23.5880   30.5060 H   0  0  0  0  0  0  0  0  0  0  0  0
   41.0670   23.7180   32.2890 H   0  0  0  0  0  0  0  0  0  0  0  0
   40.2650   25.8960   30.7580 H   0  0  0  0  0  0  0  0  0  0  0  0
   40.0520   25.7310   32.5530 H   0  0  0  0  0  0  0  0  0  0  0  0
   37.9770   26.2760   31.2910 H   0  0  0  0  0  0  0  0  0  0  0  0
   37.9660   24.6810   30.5550 H   0  0  0  0  0  0  0  0  0  0  0  0
   36.6950   24.7030   32.5900 H   0  0  0  0  0  0  0  0  0  0  0  0
   37.2620   21.9190   34.6830 C   0  0  0  0  0  0  0  0  0  0  0  0
   36.2740   20.9660   34.9180 C   0  0  0  0  0  0  0  0  0  0  0  0
   35.5020   20.3910   33.9290 C   0  0  0  0  0  0  0  0  0  0  0  0
   35.7080   20.7730   32.5970 C   0  0  0  0  0  0  0  0  0  0  0  0
   36.6920   21.7200   32.3830 C   0  0  0  0  0  0  0  0  0  0  0  0
   37.4740   22.3090   33.3640 C   0  0  0  0  0  0  0  0  0  0  0  0
   36.0550   20.6190   35.9370 H   0  0  0  0  0  0  0  0  0  0  0  0
   34.7600   19.6660   34.1960 H   0  0  0  0  0  0  0  0  0  0  0  0
   35.0970   20.3130   31.8380 H   0  0  0  0  0  0  0  0  0  0  0  0
   36.7680   21.9240   31.3230 H   0  0  0  0  0  0  0  0  0  0  0  0
   39.3920   21.9510   35.8580 C   0  0  0  0  0  0  0  0  0  0  0  0
   38.0100   22.3280   35.8230 C   0  0  0  0  0  0  0  0  0  0  0  0
   37.5510   23.0600   36.8820 C   0  0  0  0  0  0  0  0  0  0  0  0
   38.3920   23.3930   37.8830 N   0  0  0  0  0  0  0  0  0  0  0  0
   39.7160   23.0170   37.8880 C   0  0  0  0  0  0  0  0  0  0  0  0
   40.2400   22.2710   36.8480 N   0  0  0  0  0  0  0  0  0  0  0  0
   39.9000   21.3760   35.0980 H   0  0  0  0  0  0  0  0  0  0  0  0
   36.5920   23.3930   37.1360 H   0  0  0  0  0  0  0  0  0  0  0  0
   40.3880   23.2930   38.7080 H   0  0  0  0  0  0  0  0  0  0  0  0
   37.9930   25.6920   33.8390 C   0  0  0  0  0  0  0  0  0  0  0  0
   38.8820   25.7360   34.8530 C   0  0  0  0  0  0  0  0  0  0  0  0
   39.5650   24.9220   34.8730 H   0  0  0  0  0  0  0  0  0  0  0  0
   38.8540   26.7760   35.7550 C   0  0  0  0  0  3  0  0  0  0  0  0
   37.9570   27.8080   35.6960 C   0  0  0  0  0  0  0  0  0  0  0  0
   38.0110   28.5860   36.4520 H   0  0  0  0  0  0  0  0  0  0  0  0
   37.0460   27.7860   34.6760 C   0  0  0  0  0  0  0  0  0  0  0  0
   36.3360   28.5960   34.6250 H   0  0  0  0  0  0  0  0  0  0  0  0
   37.0720   26.7480   33.7740 C   0  0  0  0  0  3  0  0  0  0  0  0
  1 22  1  0  0  0  0
  1  7  1  1  0  0  0
  2  9  1  0  0  0  0
  2  1  1  0  0  0  0
  3  4  1  0  0  0  0
  3  2  1  0  0  0  0
  3 11  1  0  0  0  0
  4 13  1  0  0  0  0
  5  4  1  0  0  0  0
  5  6  1  0  0  0  0
  6 16  1  6  0  0  0
  6  1  1  0  0  0  0
  6 36  1  0  0  0  0
  8  2  1  0  0  0  0
 10  3  1  0  0  0  0
 12  4  1  0  0  0  0
 14  5  1  0  0  0  0
 15  5  1  0  0  0  0
 17 18  1  0  0  0  0
 17 28  1  0  0  0  0
 18 23  1  0  0  0  0
 19 24  1  0  0  0  0
 19 18  2  0  0  0  0
 20 19  1  0  0  0  0
 21 20  2  0  0  0  0
 21 22  1  0  0  0  0
 22 17  2  0  0  0  0
 25 20  1  0  0  0  0
 26 21  1  0  0  0  0
 27 32  1  0  0  0  0
 28 27  2  0  0  0  0
 28 29  1  0  0  0  0
 29 34  1  0  0  0  0
 29 30  2  0  0  0  0
 30 31  1  0  0  0  0
 31 35  1  0  0  0  0
 32 31  2  0  0  0  0
 33 27  1  0  0  0  0
 36 37  1  0  0  0  0
 37 38  1  0  0  0  0
 37 39  2  0  0  0  0
 40 39  1  0  0  0  0
 40 41  1  0  0  0  0
 42 40  2  0  0  0  0
 43 42  1  0  0  0  0
 44 36  2  0  0  0  0
 44 42  1  0  0  0  0
M  END
>  <minimizedAffinity>
-5.91679955

$$$$

 OpenBabel03272506133D

 44 47  0  0  1  0  0  0  0  0999 V2000
   38.7460   25.1400   33.3780 C   0  0  1  0  0  0  0  0  0  0  0  0
   39.3450   26.4010   32.6420 C   0  0  0  0  0  0  0  0  0  0  0  0
   40.5450   26.9380   33.4200 C   0  0  0  0  0  0  0  0  0  0  0  0
   40.2430   27.0040   34.8830 C   0  0  0  0  0  0  0  0  0  0  0  0
   38.7530   27.0170   35.0410 C   0  0  0  0  0  0  0  0  0  0  0  0
   38.2640   25.6210   34.7130 C   0  0  2  0  0  0  0  0  0  0  0  0
   39.6570   24.6950   33.6120 H   0  0  0  0  0  0  0  0  0  0  0  0
   38.5740   27.1550   32.5260 H   0  0  0  0  0  0  0  0  0  0  0  0
   39.7290   26.0220   31.6830 H   0  0  0  0  0  0  0  0  0  0  0  0
   40.8070   27.8930   32.9680 H   0  0  0  0  0  0  0  0  0  0  0  0
   41.3420   26.1770   33.2680 H   0  0  0  0  0  0  0  0  0  0  0  0
   40.6630   27.9160   35.3290 H   0  0  0  0  0  0  0  0  0  0  0  0
   40.6100   26.1030   35.4150 H   0  0  0  0  0  0  0  0  0  0  0  0
   38.5030   27.2530   36.0720 H   0  0  0  0  0  0  0  0  0  0  0  0
   38.2250   27.7650   34.4150 H   0  0  0  0  0  0  0  0  0  0  0  0
   37.1730   25.6550   34.8550 H   0  0  0  0  0  0  0  0  0  0  0  0
   37.8550   23.3580   31.9490 C   0  0  0  0  0  0  0  0  0  0  0  0
   36.7920   22.8760   31.1900 C   0  0  0  0  0  0  0  0  0  0  0  0
   35.6320   23.5820   30.9460 C   0  0  0  0  0  0  0  0  0  0  0  0
   35.4920   24.8680   31.4830 C   0  0  0  0  0  0  0  0  0  0  0  0
   36.5570   25.3300   32.2340 C   0  0  0  0  0  0  0  0  0  0  0  0
   37.7280   24.6330   32.4920 C   0  0  0  0  0  0  0  0  0  0  0  0
   36.8280   21.8740   30.7400 H   0  0  0  0  0  0  0  0  0  0  0  0
   34.8590   23.1360   30.3530 H   0  0  0  0  0  0  0  0  0  0  0  0
   34.5810   25.4060   31.2810 H   0  0  0  0  0  0  0  0  0  0  0  0
   36.3420   26.3320   32.5830 H   0  0  0  0  0  0  0  0  0  0  0  0
   40.0250   22.7410   31.0390 C   0  0  0  0  0  0  0  0  0  0  0  0
   39.0000   22.5150   32.0150 C   0  0  0  0  0  0  0  0  0  0  0  0
   39.2330   21.5220   32.9250 C   0  0  0  0  0  0  0  0  0  0  0  0
   40.3850   20.8210   32.8730 N   0  0  0  0  0  0  0  0  0  0  0  0
   41.3520   21.0610   31.9240 C   0  0  0  0  0  0  0  0  0  0  0  0
   41.1730   22.0490   30.9730 N   0  0  0  0  0  0  0  0  0  0  0  0
   39.9890   23.4870   30.2590 H   0  0  0  0  0  0  0  0  0  0  0  0
   38.6340   21.1110   33.6770 H   0  0  0  0  0  0  0  0  0  0  0  0
   42.2810   20.4840   31.8930 H   0  0  0  0  0  0  0  0  0  0  0  0
   38.6980   24.6600   35.8070 C   0  0  0  0  0  0  0  0  0  0  0  0
   39.6370   23.6910   35.8340 C   0  0  0  0  0  0  0  0  0  0  0  0
   40.1720   23.5750   34.9230 H   0  0  0  0  0  0  0  0  0  0  0  0
   39.8370   22.9500   36.9770 C   0  0  0  0  0  3  0  0  0  0  0  0
   39.1250   23.1300   38.1330 C   0  0  0  0  0  0  0  0  0  0  0  0
   39.3530   22.4970   38.9850 H   0  0  0  0  0  0  0  0  0  0  0  0
   38.1670   24.1070   38.1300 C   0  0  0  0  0  0  0  0  0  0  0  0
   37.6040   24.2520   39.0380 H   0  0  0  0  0  0  0  0  0  0  0  0
   37.9660   24.8480   36.9900 C   0  0  0  0  0  3  0  0  0  0  0  0
  1  7  1  1  0  0  0
  1  6  1  0  0  0  0
  2  1  1  0  0  0  0
  2  3  1  0  0  0  0
  3  4  1  0  0  0  0
  4  5  1  0  0  0  0
  4 12  1  0  0  0  0
  4 13  1  0  0  0  0
  5 14  1  0  0  0  0
  6 16  1  6  0  0  0
  6  5  1  0  0  0  0
  6 36  1  0  0  0  0
  8  2  1  0  0  0  0
  9  2  1  0  0  0  0
 10  3  1  0  0  0  0
 11  3  1  0  0  0  0
 15  5  1  0  0  0  0
 17 28  1  0  0  0  0
 17 22  1  0  0  0  0
 18 17  2  0  0  0  0
 19 18  1  0  0  0  0
 19 20  2  0  0  0  0
 20 21  1  0  0  0  0
 21 22  2  0  0  0  0
 21 26  1  0  0  0  0
 22  1  1  0  0  0  0
 23 18  1  0  0  0  0
 24 19  1  0  0  0  0
 25 20  1  0  0  0  0
 27 28  1  0  0  0  0
 28 29  2  0  0  0  0
 29 34  1  0  0  0  0
 30 29  1  0  0  0  0
 31 30  2  0  0  0  0
 32 27  2  0  0  0  0
 32 31  1  0  0  0  0
 33 27  1  0  0  0  0
 35 31  1  0  0  0  0
 36 37  2  0  0  0  0
 36 44  1  0  0  0  0
 37 39  1  0  0  0  0
 38 37  1  0  0  0  0
 39 40  2  0  0  0  0
 40 41  1  0  0  0  0
 42 40  1  0  0  0  0
 42 43  1  0  0  0  0
 44 42  2  0  0  0  0
M  END
>  <minimizedAffinity>
-5.72394466

$$$$

 OpenBabel03272506133D

 44 47  0  0  1  0  0  0  0  0999 V2000
   37.9620   26.2910   33.1780 C   0  0  1  0  0  0  0  0  0  0  0  0
   37.3630   26.4990   34.6230 C   0  0  0  0  0  0  0  0  0  0  0  0
   38.2910   27.3880   35.4500 C   0  0  0  0  0  0  0  0  0  0  0  0
   39.7150   26.9640   35.2890 C   0  0  0  0  0  0  0  0  0  0  0  0
   39.7170   25.5460   34.8070 C   0  0  0  0  0  0  0  0  0  0  0  0
   39.2640   25.5710   33.3610 C   0  0  2  0  0  0  0  0  0  0  0  0
   38.2660   27.2760   33.0320 H   0  0  0  0  0  0  0  0  0  0  0  0
   37.2090   25.5350   35.0960 H   0  0  0  0  0  0  0  0  0  0  0  0
   36.4310   27.0620   34.4730 H   0  0  0  0  0  0  0  0  0  0  0  0
   37.9210   27.3570   36.4730 H   0  0  0  0  0  0  0  0  0  0  0  0
   38.1810   28.4000   35.0030 H   0  0  0  0  0  0  0  0  0  0  0  0
   40.2520   27.0230   36.2450 H   0  0  0  0  0  0  0  0  0  0  0  0
   40.2320   27.5630   34.5120 H   0  0  0  0  0  0  0  0  0  0  0  0
   40.7290   25.1490   34.8590 H   0  0  0  0  0  0  0  0  0  0  0  0
   39.0820   24.8530   35.3950 H   0  0  0  0  0  0  0  0  0  0  0  0
   39.2930   24.5220   33.0290 H   0  0  0  0  0  0  0  0  0  0  0  0
   36.0870   26.2600   31.5990 C   0  0  0  0  0  0  0  0  0  0  0  0
   35.2010   25.5050   30.8350 C   0  0  0  0  0  0  0  0  0  0  0  0
   35.1270   24.1270   30.8730 C   0  0  0  0  0  0  0  0  0  0  0  0
   35.9850   23.4220   31.7260 C   0  0  0  0  0  0  0  0  0  0  0  0
   36.8580   24.1880   32.4760 C   0  0  0  0  0  0  0  0  0  0  0  0
   36.9480   25.5720   32.4480 C   0  0  0  0  0  0  0  0  0  0  0  0
   34.4990   25.9890   30.1410 H   0  0  0  0  0  0  0  0  0  0  0  0
   34.4170   23.6220   30.2490 H   0  0  0  0  0  0  0  0  0  0  0  0
   35.9120   22.3480   31.7430 H   0  0  0  0  0  0  0  0  0  0  0  0
   37.4570   23.5390   33.1010 H   0  0  0  0  0  0  0  0  0  0  0  0
   36.6170   28.2980   30.3800 C   0  0  0  0  0  0  0  0  0  0  0  0
   35.9530   27.6730   31.4850 C   0  0  0  0  0  0  0  0  0  0  0  0
   35.2390   28.4950   32.3110 C   0  0  0  0  0  0  0  0  0  0  0  0
   35.1860   29.8200   32.0580 N   0  0  0  0  0  0  0  0  0  0  0  0
   35.8350   30.3910   30.9880 C   0  0  0  0  0  0  0  0  0  0  0  0
   36.5770   29.6140   30.1180 N   0  0  0  0  0  0  0  0  0  0  0  0
   37.2160   27.7840   29.6420 H   0  0  0  0  0  0  0  0  0  0  0  0
   34.7350   28.3140   33.2100 H   0  0  0  0  0  0  0  0  0  0  0  0
   35.7840   31.4680   30.7940 H   0  0  0  0  0  0  0  0  0  0  0  0
   40.3430   26.2080   32.5010 C   0  0  0  0  0  0  0  0  0  0  0  0
   41.6790   26.0270   32.4520 C   0  0  0  0  0  0  0  0  0  0  0  0
   42.0490   25.3090   33.1430 H   0  0  0  0  0  0  0  0  0  0  0  0
   42.4450   26.7440   31.5590 C   0  0  0  0  0  3  0  0  0  0  0  0
   41.9290   27.6610   30.6840 C   0  0  0  0  0  0  0  0  0  0  0  0
   42.6110   28.1790   30.0150 H   0  0  0  0  0  0  0  0  0  0  0  0
   40.5760   27.8620   30.7140 C   0  0  0  0  0  0  0  0  0  0  0  0
   40.1660   28.5840   30.0270 H   0  0  0  0  0  0  0  0  0  0  0  0
   39.8110   27.1480   31.6040 C   0  0  0  0  0  3  0  0  0  0  0  0
  1  7  1  6  0  0  0
  1  6  1  0  0  0  0
  1  2  1  0  0  0  0
  2  8  1  0  0  0  0
  2  3  1  0  0  0  0
  3 10  1  0  0  0  0
  4  3  1  0  0  0  0
  4 12  1  0  0  0  0
  5 14  1  0  0  0  0
  5  4  1  0  0  0  0
  5 15  1  0  0  0  0
  6 16  1  6  0  0  0
  6  5  1  0  0  0  0
  9  2  1  0  0  0  0
 11  3  1  0  0  0  0
 13  4  1  0  0  0  0
 17 22  1  0  0  0  0
 18 19  1  0  0  0  0
 18 17  2  0  0  0  0
 19 20  2  0  0  0  0
 20 25  1  0  0  0  0
 20 21  1  0  0  0  0
 21 26  1  0  0  0  0
 22 21  2  0  0  0  0
 22  1  1  0  0  0  0
 23 18  1  0  0  0  0
 24 19  1  0  0  0  0
 27 28  1  0  0  0  0
 28 17  1  0  0  0  0
 28 29  2  0  0  0  0
 29 34  1  0  0  0  0
 30 29  1  0  0  0  0
 31 30  2  0  0  0  0
 32 27  2  0  0  0  0
 32 31  1  0  0  0  0
 33 27  1  0  0  0  0
 35 31  1  0  0  0  0
 36  6  1  0  0  0  0
 37 36  1  0  0  0  0
 37 38  1  0  0  0  0
 39 37  2  0  0  0  0
 40 42  2  0  0  0  0
 40 39  1  0  0  0  0
 41 40  1  0  0  0  0
 42 44  1  0  0  0  0
 43 42  1  0  0  0  0
 44 36  2  0  0  0  0
M  END
>  <minimizedAffinity>
-5.51398182

$$$$

 OpenBabel03272506133D

 44 47  0  0  1  0  0  0  0  0999 V2000
   38.8810   25.7190   33.3260 C   0  0  1  0  0  0  0  0  0  0  0  0
   40.2270   26.0600   32.5760 C   0  0  0  0  0  0  0  0  0  0  0  0
   41.3980   25.3520   33.2570 C   0  0  0  0  0  0  0  0  0  0  0  0
   41.3160   25.5000   34.7430 C   0  0  0  0  0  0  0  0  0  0  0  0
   40.4430   26.6810   35.0360 C   0  0  0  0  0  0  0  0  0  0  0  0
   39.0210   26.2690   34.7140 C   0  0  2  0  0  0  0  0  0  0  0  0
   39.0740   24.7060   33.4630 H   0  0  0  0  0  0  0  0  0  0  0  0
   40.3690   27.1350   32.5540 H   0  0  0  0  0  0  0  0  0  0  0  0
   40.1230   25.6150   31.5760 H   0  0  0  0  0  0  0  0  0  0  0  0
   42.3060   25.7540   32.8110 H   0  0  0  0  0  0  0  0  0  0  0  0
   41.2580   24.2770   33.0100 H   0  0  0  0  0  0  0  0  0  0  0  0
   42.3110   25.6670   35.1760 H   0  0  0  0  0  0  0  0  0  0  0  0
   40.8270   24.6220   35.2120 H   0  0  0  0  0  0  0  0  0  0  0  0
   40.5140   26.9280   36.0930 H   0  0  0  0  0  0  0  0  0  0  0  0
   40.7090   27.6050   34.4840 H   0  0  0  0  0  0  0  0  0  0  0  0
   38.4010   27.1470   34.9550 H   0  0  0  0  0  0  0  0  0  0  0  0
   37.0310   25.4980   31.7330 C   0  0  0  0  0  0  0  0  0  0  0  0
   35.9720   26.1060   31.0640 C   0  0  0  0  0  0  0  0  0  0  0  0
   35.6830   27.4540   31.1350 C   0  0  0  0  0  0  0  0  0  0  0  0
   36.4920   28.2820   31.9220 C   0  0  0  0  0  0  0  0  0  0  0  0
   37.5370   27.6620   32.5800 C   0  0  0  0  0  0  0  0  0  0  0  0
   37.8400   26.3100   32.5220 C   0  0  0  0  0  0  0  0  0  0  0  0
   35.2930   25.5190   30.4300 H   0  0  0  0  0  0  0  0  0  0  0  0
   34.8460   27.8410   30.5900 H   0  0  0  0  0  0  0  0  0  0  0  0
   36.2520   29.3320   31.9660 H   0  0  0  0  0  0  0  0  0  0  0  0
   38.0960   28.3990   33.1420 H   0  0  0  0  0  0  0  0  0  0  0  0
   38.1790   23.7740   30.4570 C   0  0  0  0  0  0  0  0  0  0  0  0
   37.2180   24.1130   31.4650 C   0  0  0  0  0  0  0  0  0  0  0  0
   36.5890   23.0680   32.0820 C   0  0  0  0  0  0  0  0  0  0  0  0
   36.8920   21.8000   31.7330 N   0  0  0  0  0  0  0  0  0  0  0  0
   37.8210   21.5060   30.7600 C   0  0  0  0  0  0  0  0  0  0  0  0
   38.4880   22.5190   30.0960 N   0  0  0  0  0  0  0  0  0  0  0  0
   38.7570   24.4840   29.8840 H   0  0  0  0  0  0  0  0  0  0  0  0
   35.8110   23.0370   32.7810 H   0  0  0  0  0  0  0  0  0  0  0  0
   38.0570   20.4730   30.4860 H   0  0  0  0  0  0  0  0  0  0  0  0
   38.5420   25.2500   35.7340 C   0  0  0  0  0  0  0  0  0  0  0  0
   38.2710   25.3550   37.0520 C   0  0  0  0  0  0  0  0  0  0  0  0
   38.4200   26.3270   37.4540 H   0  0  0  0  0  0  0  0  0  0  0  0
   37.8390   24.2560   37.7610 C   0  0  0  0  0  3  0  0  0  0  0  0
   37.6580   23.0180   37.2060 C   0  0  0  0  0  0  0  0  0  0  0  0
   37.3140   22.2100   37.8450 H   0  0  0  0  0  0  0  0  0  0  0  0
   37.9260   22.8870   35.8710 C   0  0  0  0  0  0  0  0  0  0  0  0
   37.7850   21.9130   35.4290 H   0  0  0  0  0  0  0  0  0  0  0  0
   38.3570   23.9820   35.1610 C   0  0  0  0  0  3  0  0  0  0  0  0
  1  7  1  1  0  0  0
  1  6  1  0  0  0  0
  2  3  1  0  0  0  0
  2  1  1  0  0  0  0
  3  4  1  0  0  0  0
  4  5  1  0  0  0  0
  4 12  1  0  0  0  0
  4 13  1  0  0  0  0
  5 14  1  0  0  0  0
  6 16  1  1  0  0  0
  6  5  1  0  0  0  0
  6 36  1  0  0  0  0
  8  2  1  0  0  0  0
  9  2  1  0  0  0  0
 10  3  1  0  0  0  0
 11  3  1  0  0  0  0
 15  5  1  0  0  0  0
 17 22  1  0  0  0  0
 18 19  1  0  0  0  0
 18 17  2  0  0  0  0
 19 20  2  0  0  0  0
 20 25  1  0  0  0  0
 20 21  1  0  0  0  0
 21 26  1  0  0  0  0
 22 21  2  0  0  0  0
 22  1  1  0  0  0  0
 23 18  1  0  0  0  0
 24 19  1  0  0  0  0
 27 28  1  0  0  0  0
 28 17  1  0  0  0  0
 28 29  2  0  0  0  0
 29 34  1  0  0  0  0
 30 29  1  0  0  0  0
 31 30  2  0  0  0  0
 32 27  2  0  0  0  0
 32 31  1  0  0  0  0
 33 27  1  0  0  0  0
 35 31  1  0  0  0  0
 36 37  1  0  0  0  0
 37 38  1  0  0  0  0
 37 39  2  0  0  0  0
 40 39  1  0  0  0  0
 40 41  1  0  0  0  0
 42 40  2  0  0  0  0
 43 42  1  0  0  0  0
 44 36  2  0  0  0  0
 44 42  1  0  0  0  0
M  END
>  <minimizedAffinity>
-5.38572884

$$$$

 OpenBabel03272506133D

 44 47  0  0  1  0  0  0  0  0999 V2000
   38.2180   23.7610   32.8190 C   0  0  1  0  0  0  0  0  0  0  0  0
   37.9960   25.2530   32.3560 C   0  0  0  0  0  0  0  0  0  0  0  0
   36.5020   25.5310   32.1880 C   0  0  0  0  0  0  0  0  0  0  0  0
   35.8350   24.4150   31.4490 C   0  0  0  0  0  0  0  0  0  0  0  0
   36.8930   23.6730   30.6910 C   0  0  0  0  0  0  0  0  0  0  0  0
   37.7000   22.8940   31.7100 C   0  0  2  0  0  0  0  0  0  0  0  0
   37.4410   23.7330   33.5100 H   0  0  0  0  0  0  0  0  0  0  0  0
   38.5410   25.4350   31.4360 H   0  0  0  0  0  0  0  0  0  0  0  0
   38.3440   25.8720   33.1960 H   0  0  0  0  0  0  0  0  0  0  0  0
   36.4190   26.5050   31.7110 H   0  0  0  0  0  0  0  0  0  0  0  0
   36.1020   25.5440   33.2250 H   0  0  0  0  0  0  0  0  0  0  0  0
   35.0890   24.8040   30.7440 H   0  0  0  0  0  0  0  0  0  0  0  0
   35.3740   23.6860   32.1450 H   0  0  0  0  0  0  0  0  0  0  0  0
   36.4210   22.9780   30.0010 H   0  0  0  0  0  0  0  0  0  0  0  0
   37.5620   24.3120   30.0790 H   0  0  0  0  0  0  0  0  0  0  0  0
   38.4560   22.3470   31.1260 H   0  0  0  0  0  0  0  0  0  0  0  0
   40.0890   23.6690   34.4000 C   0  0  0  0  0  0  0  0  0  0  0  0
   41.4490   23.4510   34.6070 C   0  0  0  0  0  0  0  0  0  0  0  0
   42.3600   23.2270   33.5940 C   0  0  0  0  0  0  0  0  0  0  0  0
   41.9120   23.2140   32.2670 C   0  0  0  0  0  0  0  0  0  0  0  0
   40.5600   23.4300   32.0810 C   0  0  0  0  0  0  0  0  0  0  0  0
   39.6310   23.6540   33.0860 C   0  0  0  0  0  0  0  0  0  0  0  0
   41.8720   23.4450   35.6210 H   0  0  0  0  0  0  0  0  0  0  0  0
   43.3900   23.0650   33.8410 H   0  0  0  0  0  0  0  0  0  0  0  0
   42.6370   23.0380   31.4900 H   0  0  0  0  0  0  0  0  0  0  0  0
   40.3360   23.4110   31.0230 H   0  0  0  0  0  0  0  0  0  0  0  0
   39.1280   22.8990   36.4990 C   0  0  0  0  0  0  0  0  0  0  0  0
   39.3270   23.9680   35.5640 C   0  0  0  0  0  0  0  0  0  0  0  0
   38.7780   25.1750   35.8950 C   0  0  0  0  0  0  0  0  0  0  0  0
   38.0980   25.3100   37.0520 N   0  0  0  0  0  0  0  0  0  0  0  0
   37.9250   24.2640   37.9300 C   0  0  0  0  0  0  0  0  0  0  0  0
   38.4520   23.0170   37.6520 N   0  0  0  0  0  0  0  0  0  0  0  0
   39.5000   21.8920   36.3810 H   0  0  0  0  0  0  0  0  0  0  0  0
   38.7120   26.0780   35.3700 H   0  0  0  0  0  0  0  0  0  0  0  0
   37.3710   24.3880   38.8670 H   0  0  0  0  0  0  0  0  0  0  0  0
   36.8540   21.7660   32.2750 C   0  0  0  0  0  0  0  0  0  0  0  0
   36.4940   21.4570   33.5390 C   0  0  0  0  0  0  0  0  0  0  0  0
   36.8720   22.1210   34.2770 H   0  0  0  0  0  0  0  0  0  0  0  0
   35.7010   20.3580   33.7850 C   0  0  0  0  0  3  0  0  0  0  0  0
   35.2340   19.5250   32.8040 C   0  0  0  0  0  0  0  0  0  0  0  0
   34.6130   18.6810   33.0940 H   0  0  0  0  0  0  0  0  0  0  0  0
   35.5850   19.8180   31.5150 C   0  0  0  0  0  0  0  0  0  0  0  0
   35.2190   19.1640   30.7390 H   0  0  0  0  0  0  0  0  0  0  0  0
   36.3760   20.9140   31.2670 C   0  0  0  0  0  3  0  0  0  0  0  0
  1 22  1  0  0  0  0
  1  7  1  1  0  0  0
  2  1  1  0  0  0  0
  2  9  1  0  0  0  0
  3  2  1  0  0  0  0
  3 11  1  0  0  0  0
  4 13  1  0  0  0  0
  4  3  1  0  0  0  0
  5  4  1  0  0  0  0
  5  6  1  0  0  0  0
  6 16  1  6  0  0  0
  6 36  1  0  0  0  0
  6  1  1  0  0  0  0
  8  2  1  0  0  0  0
 10  3  1  0  0  0  0
 12  4  1  0  0  0  0
 14  5  1  0  0  0  0
 15  5  1  0  0  0  0
 17 18  1  0  0  0  0
 17 28  1  0  0  0  0
 18 23  1  0  0  0  0
 19 24  1  0  0  0  0
 19 18  2  0  0  0  0
 20 19  1  0  0  0  0
 21 20  2  0  0  0  0
 21 22  1  0  0  0  0
 22 17  2  0  0  0  0
 25 20  1  0  0  0  0
 26 21  1  0  0  0  0
 27 32  1  0  0  0  0
 28 29  1  0  0  0  0
 28 27  2  0  0  0  0
 29 30  2  0  0  0  0
 30 31  1  0  0  0  0
 31 35  1  0  0  0  0
 32 31  2  0  0  0  0
 33 27  1  0  0  0  0
 34 29  1  0  0  0  0
 36 37  1  0  0  0  0
 37 39  2  0  0  0  0
 37 38  1  0  0  0  0
 40 41  1  0  0  0  0
 40 39  1  0  0  0  0
 42 40  2  0  0  0  0
 43 42  1  0  0  0  0
 44 42  1  0  0  0  0
 44 36  2  0  0  0  0
M  END
>  <minimizedAffinity>
-5.33120298

$$$$
