
 OpenBabel03272508453D

 27 29  0  0  0  0  0  0  0  0999 V2000
   35.7770   30.1490   49.9120 C   0  0  0  0  0  0  0  0  0  0  0  0
   36.6750   29.8420   50.9070 C   0  0  0  0  0  0  0  0  0  0  0  0
   37.7680   30.6510   50.6180 C   0  0  0  0  0  0  0  0  0  0  0  0
   37.4910   31.3890   49.4960 C   0  0  0  0  0  0  0  0  0  0  0  0
   36.2980   31.0650   49.1020 O   0  0  0  0  0  0  0  0  0  0  0  0
   36.5960   29.1420   51.7420 H   0  0  0  0  0  0  0  0  0  0  0  0
   38.6880   30.6770   51.2060 H   0  0  0  0  0  0  0  0  0  0  0  0
   38.3920   32.3550   48.8800 C   0  0  0  0  0  0  0  0  0  0  0  0
   38.8650   32.1860   47.5960 C   0  0  0  0  0  0  0  0  0  0  0  0
   38.5800   31.3290   47.0070 H   0  0  0  0  0  0  0  0  0  0  0  0
   39.7300   33.1040   46.9900 C   0  0  0  0  0  0  0  0  0  0  0  0
   40.1360   34.2280   47.6940 C   0  0  0  0  0  0  0  0  0  0  0  0
   40.8030   34.9610   47.2660 H   0  0  0  0  0  0  0  0  0  0  0  0
   39.6510   34.3720   48.9740 C   0  0  0  0  0  0  0  0  0  0  0  0
   39.9340   35.2370   49.5770 H   0  0  0  0  0  0  0  0  0  0  0  0
   38.8050   33.4750   49.5610 C   0  0  0  0  0  0  0  0  0  0  0  0
   34.4510   29.5420   49.7860 C   0  0  0  0  0  0  0  0  0  0  0  0
   33.6500   29.6680   50.7490 O   0  0  0  0  0  0  0  0  0  0  0  0
   33.7900   26.7730   47.5140 C   0  0  0  0  0  0  0  0  0  0  0  0
   33.4300   27.4140   46.3290 C   0  0  0  0  0  0  0  0  0  0  0  0
   33.4100   28.7990   46.2940 C   0  0  0  0  0  0  0  0  0  0  0  0
   33.7460   29.4440   47.4310 N   0  0  0  0  0  0  0  0  0  0  0  0
   34.0930   28.8200   48.5740 C   0  0  0  0  0  0  0  0  0  0  0  0
   34.1160   27.4750   48.6190 N   0  0  0  0  0  0  0  0  0  0  0  0
   33.7980   25.6820   47.5130 H   0  0  0  0  0  0  0  0  0  0  0  0
   33.1790   26.7940   45.4770 H   0  0  0  0  0  0  0  0  0  0  0  0
   33.1310   29.2850   45.3770 H   0  0  0  0  0  0  0  0  0  0  0  0
  1  2  2  0  0  0  0
  2  6  1  0  0  0  0
  3  2  1  0  0  0  0
  3  7  1  0  0  0  0
  4  3  2  0  0  0  0
  5  4  1  0  0  0  0
  5  1  1  0  0  0  0
  8  4  1  0  0  0  0
  8 16  1  0  0  0  0
  9  8  2  0  0  0  0
 10  9  1  0  0  0  0
 11  9  1  0  0  0  0
 11 12  2  0  0  0  0
 12 14  1  0  0  0  0
 13 12  1  0  0  0  0
 14 16  2  0  0  0  0
 14 15  1  0  0  0  0
 17  1  1  0  0  0  0
 17 18  2  0  0  0  0
 19 24  1  0  0  0  0
 20 19  2  0  0  0  0
 21 20  1  0  0  0  0
 21 22  2  0  0  0  0
 22 23  1  0  0  0  0
 23 24  2  0  0  0  0
 23 17  1  0  0  0  0
 25 19  1  0  0  0  0
 26 20  1  0  0  0  0
 27 21  1  0  0  0  0
M  END
>  <minimizedAffinity>
-6.05214071

>  <minimizedRMSD>
2.07578087

$$$$
