
 OpenBabel03272510343D

 28 30  0  0  0  0  0  0  0  0999 V2000
   35.8580   30.1050   47.2080 C   0  0  0  0  0  0  0  0  0  0  0  0
   35.4310   30.1650   45.9030 C   0  0  0  0  0  0  0  0  0  0  0  0
   34.4060   29.3360   45.4720 C   0  0  0  0  0  0  0  0  0  0  0  0
   33.8400   28.4630   46.3790 C   0  0  0  0  0  0  0  0  0  0  0  0
   34.2660   28.3990   47.6870 C   0  0  0  0  0  0  0  0  0  0  0  0
   35.2880   29.2280   48.1190 C   0  0  0  0  0  0  0  0  0  0  0  0
   35.8830   30.8570   45.1890 H   0  0  0  0  0  0  0  0  0  0  0  0
   34.0670   29.3800   44.4470 H   0  0  0  0  0  0  0  0  0  0  0  0
   33.0310   27.7860   46.1020 H   0  0  0  0  0  0  0  0  0  0  0  0
   33.8720   27.7410   48.4600 H   0  0  0  0  0  0  0  0  0  0  0  0
   37.6700   32.6970   49.0330 C   0  0  0  0  0  0  0  0  0  0  0  0
   38.8960   32.7990   48.3770 C   0  0  0  0  0  0  0  0  0  0  0  0
   39.0970   31.9440   47.2700 C   0  0  0  0  0  0  0  0  0  0  0  0
   38.1090   31.0850   46.9100 N   0  0  0  0  0  0  0  0  0  0  0  0
   36.9480   31.0220   47.5710 C   0  0  0  0  0  0  0  0  0  0  0  0
   36.7280   31.8340   48.6400 N   0  0  0  0  0  0  0  0  0  0  0  0
   37.4790   33.3380   49.8890 H   0  0  0  0  0  0  0  0  0  0  0  0
   39.6790   33.4880   48.6690 H   0  0  0  0  0  0  0  0  0  0  0  0
   40.0330   31.9800   46.7210 H   0  0  0  0  0  0  0  0  0  0  0  0
   35.8690   29.3010   49.4610 C   0  0  0  0  0  0  0  0  0  0  0  0
   37.2440   29.0860   49.5680 C   0  0  0  0  0  0  0  0  0  0  0  0
   37.9000   28.8720   48.7190 H   0  0  0  0  0  0  0  0  0  0  0  0
   37.8690   29.1400   50.8080 C   0  0  0  0  0  3  0  0  0  0  0  0
   37.0980   29.4110   51.9450 C   0  0  0  0  0  0  0  0  0  0  0  0
   37.6170   29.4470   52.8980 H   0  0  0  0  0  0  0  0  0  0  0  0
   35.7230   29.6220   51.8150 C   0  0  0  0  0  0  0  0  0  0  0  0
   35.1280   29.8340   52.7140 H   0  0  0  0  0  0  0  0  0  0  0  0
   35.1230   29.5670   50.5910 C   0  0  0  0  0  3  0  0  0  0  0  0
  1 15  1  0  0  0  0
  1  6  1  0  0  0  0
  2  1  2  0  0  0  0
  3  2  1  0  0  0  0
  3  4  2  0  0  0  0
  4  5  1  0  0  0  0
  5  6  2  0  0  0  0
  5 10  1  0  0  0  0
  6 20  1  0  0  0  0
  7  2  1  0  0  0  0
  8  3  1  0  0  0  0
  9  4  1  0  0  0  0
 11 17  1  0  0  0  0
 12 18  1  0  0  0  0
 12 11  2  0  0  0  0
 13 12  1  0  0  0  0
 14 13  2  0  0  0  0
 14 15  1  0  0  0  0
 15 16  2  0  0  0  0
 16 11  1  0  0  0  0
 19 13  1  0  0  0  0
 20 21  2  0  0  0  0
 20 28  1  0  0  0  0
 21 23  1  0  0  0  0
 22 21  1  0  0  0  0
 23 24  2  0  0  0  0
 24 25  1  0  0  0  0
 26 24  1  0  0  0  0
 26 27  1  0  0  0  0
 28 26  2  0  0  0  0
M  END
>  <minimizedAffinity>
-4.82699728

>  <minimizedRMSD>
1.65637004

$$$$
