
 OpenBabel03272510173D

 28 30  0  0  0  0  0  0  0  0999 V2000
   37.3120   29.3560   51.0590 Br  0  0  0  0  0  0  0  0  0  0  0  0
   35.9710   29.3370   49.7070 C   0  0  0  0  0  0  0  0  0  0  0  0
   35.9870   30.2500   48.6720 C   0  0  0  0  0  0  0  0  0  0  0  0
   34.9770   30.1800   47.7240 C   0  0  0  0  0  0  0  0  0  0  0  0
   33.9650   29.2430   47.7750 C   0  0  0  0  0  0  0  0  0  0  0  0
   33.9750   28.3510   48.8120 C   0  0  0  0  0  0  0  0  0  0  0  0
   34.9700   28.4060   49.7610 C   0  0  0  0  0  0  0  0  0  0  0  0
   35.0270   30.9210   46.9210 H   0  0  0  0  0  0  0  0  0  0  0  0
   33.2120   27.5890   48.9140 H   0  0  0  0  0  0  0  0  0  0  0  0
   34.9530   27.6870   50.5730 H   0  0  0  0  0  0  0  0  0  0  0  0
   37.9960   33.1930   49.4440 C   0  0  0  0  0  0  0  0  0  0  0  0
   39.0260   33.1820   48.4720 C   0  0  0  0  0  0  0  0  0  0  0  0
   39.0040   32.1400   47.5550 C   0  0  0  0  0  0  0  0  0  0  0  0
   38.0150   31.1910   47.6260 N   0  0  0  0  0  0  0  0  0  0  0  0
   37.0430   31.2520   48.5900 C   0  0  0  0  0  0  0  0  0  0  0  0
   37.0480   32.2510   49.4850 N   0  0  0  0  0  0  0  0  0  0  0  0
   37.9310   33.9660   50.2020 H   0  0  0  0  0  0  0  0  0  0  0  0
   39.7660   33.9550   48.4740 H   0  0  0  0  0  0  0  0  0  0  0  0
   39.7690   32.0850   46.7890 H   0  0  0  0  0  0  0  0  0  0  0  0
   32.9260   29.2080   46.7570 C   0  0  0  0  0  0  0  0  0  0  0  0
   31.8980   28.2840   46.9780 C   0  0  0  0  0  0  0  0  0  0  0  0
   31.8800   27.6480   47.8390 H   0  0  0  0  0  0  0  0  0  0  0  0
   30.8510   28.1470   46.0910 C   0  0  0  0  0  3  0  0  0  0  0  0
   30.7980   28.9280   44.9580 C   0  0  0  0  0  0  0  0  0  0  0  0
   29.9530   28.7980   44.2700 H   0  0  0  0  0  0  0  0  0  0  0  0
   31.8180   29.8490   44.7310 C   0  0  0  0  0  0  0  0  0  0  0  0
   31.7830   30.4560   43.8570 H   0  0  0  0  0  0  0  0  0  0  0  0
   32.8720   29.9880   45.6220 C   0  0  0  0  0  3  0  0  0  0  0  0
  2  7  1  0  0  0  0
  2  1  1  0  0  0  0
  3  2  2  0  0  0  0
  4  5  2  0  0  0  0
  4  3  1  0  0  0  0
  5  6  1  0  0  0  0
  6  9  1  0  0  0  0
  6  7  2  0  0  0  0
  7 10  1  0  0  0  0
  8  4  1  0  0  0  0
 11 16  1  0  0  0  0
 11 17  1  0  0  0  0
 12 18  1  0  0  0  0
 12 11  2  0  0  0  0
 13 14  2  0  0  0  0
 13 12  1  0  0  0  0
 14 15  1  0  0  0  0
 15  3  1  0  0  0  0
 15 16  2  0  0  0  0
 19 13  1  0  0  0  0
 20 21  1  0  0  0  0
 20  5  1  0  0  0  0
 21 22  1  0  0  0  0
 23 21  2  0  0  0  0
 24 23  1  0  0  0  0
 25 24  1  0  0  0  0
 26 24  2  0  0  0  0
 26 28  1  0  0  0  0
 27 26  1  0  0  0  0
 28 20  2  0  0  0  0
M  END
>  <minimizedAffinity>
-5.88470078

>  <minimizedRMSD>
0.147963986

$$$$
