
 OpenBabel03272509113D

 28 30  0  0  0  0  0  0  0  0999 V2000
   35.9410   30.6270   48.1410 C   0  0  0  0  0  0  0  0  0  0  0  0
   34.9240   29.7120   47.7760 C   0  0  0  0  0  0  0  0  0  0  0  0
   34.6460   28.6580   48.6240 C   0  0  0  0  0  0  0  0  0  0  0  0
   35.3550   28.5240   49.7850 N   0  0  0  0  0  0  0  0  0  0  0  0
   36.3330   29.4260   50.1080 C   0  0  0  0  0  0  0  0  0  0  0  0
   36.6110   30.4640   49.2820 N   0  0  0  0  0  0  0  0  0  0  0  0
   36.2130   31.4680   47.5380 H   0  0  0  0  0  0  0  0  0  0  0  0
   36.8230   29.2050   51.0610 H   0  0  0  0  0  0  0  0  0  0  0  0
   33.6250   27.6830   48.3310 C   0  0  0  0  0  0  0  0  0  0  0  0
   32.3580   27.9000   48.7930 C   0  0  0  0  0  0  0  0  0  0  0  0
   31.3240   26.9870   48.5440 C   0  0  0  0  0  0  0  0  0  0  0  0
   31.6380   25.8470   47.8060 C   0  0  0  0  0  0  0  0  0  0  0  0
   32.9120   25.5710   47.3090 C   0  0  0  0  0  0  0  0  0  0  0  0
   33.8560   26.5300   47.6090 C   0  0  0  0  0  0  0  0  0  0  0  0
   31.9760   28.7160   49.3810 H   0  0  0  0  0  0  0  0  0  0  0  0
   30.3040   27.0930   48.8740 H   0  0  0  0  0  0  0  0  0  0  0  0
   30.8700   25.1060   47.5850 H   0  0  0  0  0  0  0  0  0  0  0  0
   33.1200   24.6820   46.7450 H   0  0  0  0  0  0  0  0  0  0  0  0
   34.8780   26.3620   47.2400 H   0  0  0  0  0  0  0  0  0  0  0  0
   34.2960   30.0040   46.4980 C   0  0  0  0  0  0  0  0  0  0  0  0
   33.0080   30.5210   46.2870 C   0  0  0  0  0  0  0  0  0  0  0  0
   32.4560   30.6980   47.2200 H   0  0  0  0  0  0  0  0  0  0  0  0
   32.5640   30.7540   45.0020 C   0  0  0  0  0  0  0  0  0  0  0  0
   33.3990   30.4720   43.9350 C   0  0  0  0  0  0  0  0  0  0  0  0
   33.0000   30.6740   42.9360 H   0  0  0  0  0  0  0  0  0  0  0  0
   34.6720   29.9630   44.0850 C   0  0  0  0  0  0  0  0  0  0  0  0
   35.3180   29.7450   43.2430 H   0  0  0  0  0  0  0  0  0  0  0  0
   35.1070   29.7330   45.3850 C   0  0  0  0  0  0  0  0  0  0  0  0
  1  6  1  0  0  0  0
  2  1  2  0  0  0  0
  2  3  1  0  0  0  0
  3  4  2  0  0  0  0
  4  5  1  0  0  0  0
  5  8  1  0  0  0  0
  6  5  2  0  0  0  0
  7  1  1  0  0  0  0
  9  3  1  0  0  0  0
  9 10  1  0  0  0  0
 10 15  1  0  0  0  0
 11 10  2  0  0  0  0
 11 16  1  0  0  0  0
 12 11  1  0  0  0  0
 13 14  1  0  0  0  0
 13 12  2  0  0  0  0
 14  9  2  0  0  0  0
 17 12  1  0  0  0  0
 18 13  1  0  0  0  0
 19 14  1  0  0  0  0
 20  2  1  0  0  0  0
 21 20  1  0  0  0  0
 21 22  1  0  0  0  0
 23 21  2  0  0  0  0
 24 26  2  0  0  0  0
 24 23  1  0  0  0  0
 25 24  1  0  0  0  0
 26 28  1  0  0  0  0
 27 26  1  0  0  0  0
 28 20  2  0  0  0  0
M  END
>  <minimizedAffinity>
-4.72585869

>  <minimizedRMSD>
7.57272243

$$$$
