
 OpenBabel03272510343D

 28 30  0  0  0  0  0  0  0  0999 V2000
   35.8590   30.1060   47.2090 C   0  0  0  0  0  0  0  0  0  0  0  0
   35.4320   30.1660   45.9030 C   0  0  0  0  0  0  0  0  0  0  0  0
   34.4070   29.3370   45.4720 C   0  0  0  0  0  0  0  0  0  0  0  0
   33.8410   28.4640   46.3790 C   0  0  0  0  0  0  0  0  0  0  0  0
   34.2660   28.4000   47.6870 C   0  0  0  0  0  0  0  0  0  0  0  0
   35.2890   29.2290   48.1190 C   0  0  0  0  0  0  0  0  0  0  0  0
   35.8840   30.8580   45.1890 H   0  0  0  0  0  0  0  0  0  0  0  0
   34.0680   29.3810   44.4470 H   0  0  0  0  0  0  0  0  0  0  0  0
   33.0320   27.7860   46.1020 H   0  0  0  0  0  0  0  0  0  0  0  0
   33.8730   27.7410   48.4600 H   0  0  0  0  0  0  0  0  0  0  0  0
   37.6700   32.6980   49.0340 C   0  0  0  0  0  0  0  0  0  0  0  0
   38.8960   32.8000   48.3780 C   0  0  0  0  0  0  0  0  0  0  0  0
   39.0970   31.9450   47.2710 C   0  0  0  0  0  0  0  0  0  0  0  0
   38.1100   31.0860   46.9110 N   0  0  0  0  0  0  0  0  0  0  0  0
   36.9480   31.0230   47.5710 C   0  0  0  0  0  0  0  0  0  0  0  0
   36.7280   31.8350   48.6410 N   0  0  0  0  0  0  0  0  0  0  0  0
   37.4780   33.3390   49.8900 H   0  0  0  0  0  0  0  0  0  0  0  0
   39.6790   33.4890   48.6710 H   0  0  0  0  0  0  0  0  0  0  0  0
   40.0330   31.9810   46.7220 H   0  0  0  0  0  0  0  0  0  0  0  0
   35.8700   29.3020   49.4610 C   0  0  0  0  0  0  0  0  0  0  0  0
   37.2450   29.0870   49.5670 C   0  0  0  0  0  0  0  0  0  0  0  0
   37.9000   28.8710   48.7180 H   0  0  0  0  0  0  0  0  0  0  0  0
   37.8700   29.1400   50.8080 C   0  0  0  0  0  3  0  0  0  0  0  0
   37.0990   29.4110   51.9450 C   0  0  0  0  0  0  0  0  0  0  0  0
   37.6180   29.4450   52.8980 H   0  0  0  0  0  0  0  0  0  0  0  0
   35.7250   29.6230   51.8150 C   0  0  0  0  0  0  0  0  0  0  0  0
   35.1300   29.8350   52.7140 H   0  0  0  0  0  0  0  0  0  0  0  0
   35.1240   29.5680   50.5920 C   0  0  0  0  0  3  0  0  0  0  0  0
  1 15  1  0  0  0  0
  1  6  1  0  0  0  0
  2  1  2  0  0  0  0
  3  2  1  0  0  0  0
  3  4  2  0  0  0  0
  4  5  1  0  0  0  0
  5  6  2  0  0  0  0
  5 10  1  0  0  0  0
  6 20  1  0  0  0  0
  7  2  1  0  0  0  0
  8  3  1  0  0  0  0
  9  4  1  0  0  0  0
 11 17  1  0  0  0  0
 12 18  1  0  0  0  0
 12 11  2  0  0  0  0
 13 12  1  0  0  0  0
 14 13  2  0  0  0  0
 14 15  1  0  0  0  0
 15 16  2  0  0  0  0
 16 11  1  0  0  0  0
 19 13  1  0  0  0  0
 20 21  2  0  0  0  0
 20 28  1  0  0  0  0
 21 23  1  0  0  0  0
 22 21  1  0  0  0  0
 23 24  2  0  0  0  0
 24 25  1  0  0  0  0
 26 24  1  0  0  0  0
 26 27  1  0  0  0  0
 28 26  2  0  0  0  0
M  END
>  <minimizedAffinity>
-4.82545424

>  <minimizedRMSD>
1.65009856

$$$$
