
 OpenBabel03272509093D

 40 43  0  0  0  0  0  0  0  0999 V2000
   33.1240   28.0260   47.8730 C   0  0  0  0  0  0  0  0  0  0  0  0
   32.3960   28.7180   47.4610 H   0  0  0  0  0  0  0  0  0  0  0  0
   32.5980   27.5510   48.7570 H   0  0  0  0  0  0  0  0  0  0  0  0
   33.5350   26.9050   47.0080 C   0  0  0  0  0  0  0  0  0  0  0  0
   33.6070   25.5920   47.4720 C   0  0  0  0  0  0  0  0  0  0  0  0
   34.0170   24.5550   46.6530 C   0  0  0  0  0  0  0  0  0  0  0  0
   34.3680   24.7930   45.3410 C   0  0  0  0  0  0  0  0  0  0  0  0
   34.2950   26.0810   44.8900 C   0  0  0  0  0  0  0  0  0  0  0  0
   33.8870   27.1320   45.6980 C   0  0  0  0  0  0  0  0  0  0  0  0
   33.3170   25.4840   48.5100 H   0  0  0  0  0  0  0  0  0  0  0  0
   34.0130   23.6140   47.1730 H   0  0  0  0  0  0  0  0  0  0  0  0
   34.6760   23.9290   44.7700 H   0  0  0  0  0  0  0  0  0  0  0  0
   34.5880   26.1880   43.8460 H   0  0  0  0  0  0  0  0  0  0  0  0
   33.8620   28.4010   44.9890 C   0  0  0  0  0  0  0  0  0  0  0  0
   32.6320   28.6920   44.3840 C   0  0  0  0  0  0  0  0  0  0  0  0
   31.7800   28.0070   44.4370 H   0  0  0  0  0  0  0  0  0  0  0  0
   32.3750   29.8470   43.6750 C   0  0  0  0  0  3  0  0  0  0  0  0
   33.3540   30.7910   43.5320 C   0  0  0  0  0  0  0  0  0  0  0  0
   33.2740   31.7260   43.0050 H   0  0  0  0  0  0  0  0  0  0  0  0
   34.5680   30.5190   44.1220 C   0  0  0  0  0  0  0  0  0  0  0  0
   35.3810   31.2310   44.0410 H   0  0  0  0  0  0  0  0  0  0  0  0
   34.8290   29.3670   44.8290 C   0  0  0  0  0  3  0  0  0  0  0  0
   34.9960   28.3550   49.4790 C   0  0  0  0  0  3  0  0  0  0  0  0
   34.2640   28.7620   48.4730 C   0  0  0  0  0  3  0  0  0  0  0  0
   37.3870   30.1590   51.5700 C   0  0  0  0  0  0  0  0  0  0  0  0
   38.0940   30.9280   50.6190 C   0  0  0  0  0  0  0  0  0  0  0  0
   37.7190   30.8000   49.2690 C   0  0  0  0  0  0  0  0  0  0  0  0
   36.6940   29.9410   48.9350 N   0  0  0  0  0  0  0  0  0  0  0  0
   36.0690   29.2400   49.9110 C   0  0  0  0  0  0  0  0  0  0  0  0
   36.4120   29.3480   51.2080 N   0  0  0  0  0  0  0  0  0  0  0  0
   37.6860   30.2700   52.5960 H   0  0  0  0  0  0  0  0  0  0  0  0
   38.8950   31.6070   50.8380 H   0  0  0  0  0  0  0  0  0  0  0  0
   38.3710   31.5480   48.1840 C   0  0  0  0  0  0  0  0  0  0  0  0
   38.5630   31.0190   46.9350 C   0  0  0  0  0  0  0  0  0  0  0  0
   39.2030   32.0040   46.1680 C   0  0  0  0  0  0  0  0  0  0  0  0
   39.3650   33.0760   46.9890 N   0  0  0  0  0  0  0  0  0  0  0  0
   38.8690   32.8040   48.1880 N   0  0  0  0  0  0  0  0  0  0  0  0
   38.2990   30.0330   46.5360 H   0  0  0  0  0  0  0  0  0  0  0  0
   39.5150   31.9520   45.1350 H   0  0  0  0  0  0  0  0  0  0  0  0
   39.8050   34.0040   46.7730 H   0  0  0  0  0  0  0  0  0  0  0  0
  1 24  1  0  0  0  0
  1  3  1  0  0  0  0
  2  1  1  0  0  0  0
  4  5  1  0  0  0  0
  4  1  1  0  0  0  0
  5 10  1  0  0  0  0
  6 11  1  0  0  0  0
  6  5  2  0  0  0  0
  7  6  1  0  0  0  0
  8  7  2  0  0  0  0
  8  9  1  0  0  0  0
  9  4  2  0  0  0  0
 12  7  1  0  0  0  0
 13  8  1  0  0  0  0
 14  9  1  0  0  0  0
 15 16  1  0  0  0  0
 15 14  2  0  0  0  0
 17 15  1  0  0  0  0
 18 17  2  0  0  0  0
 18 20  1  0  0  0  0
 19 18  1  0  0  0  0
 20 22  2  0  0  0  0
 21 20  1  0  0  0  0
 22 14  1  0  0  0  0
 23 29  1  0  0  0  0
 24 23  2  0  0  0  0
 25 31  1  0  0  0  0
 26 32  1  0  0  0  0
 26 25  2  0  0  0  0
 27 26  1  0  0  0  0
 28 27  2  0  0  0  0
 28 29  1  0  0  0  0
 29 30  2  0  0  0  0
 30 25  1  0  0  0  0
 33 37  2  0  0  0  0
 33 27  1  0  0  0  0
 34 33  1  0  0  0  0
 35 34  2  0  0  0  0
 35 36  1  0  0  0  0
 36 37  1  0  0  0  0
 38 34  1  0  0  0  0
 39 35  1  0  0  0  0
 40 36  1  0  0  0  0
M  END
>  <minimizedAffinity>
-6.31821394

>  <minimizedRMSD>
0.461627692

$$$$
