
 OpenBabel03272506303D

 34 36  0  0  1  0  0  0  0  0999 V2000
   33.4090   29.0340   48.0300 C   0  0  1  0  0  0  0  0  0  0  0  0
   33.5390   29.2870   46.5930 C   0  0  0  0  0  0  0  0  0  0  0  0
   34.1440   28.1920   45.7560 C   0  0  0  0  0  0  0  0  0  0  0  0
   33.7680   26.8160   46.1450 C   0  0  0  0  0  0  0  0  0  0  0  0
   33.6390   26.5370   47.5780 C   0  0  0  0  0  0  0  0  0  0  0  0
   32.9980   27.6240   48.3680 C   0  0  2  0  0  0  0  0  0  0  0  0
   32.5520   29.6600   48.4310 H   0  0  0  0  0  0  0  0  0  0  0  0
   34.0300   30.2110   46.2970 H   0  0  0  0  0  0  0  0  0  0  0  0
   32.5050   29.4140   46.1240 H   0  0  0  0  0  0  0  0  0  0  0  0
   35.2590   28.2880   45.8550 H   0  0  0  0  0  0  0  0  0  0  0  0
   33.9200   28.3550   44.6980 H   0  0  0  0  0  0  0  0  0  0  0  0
   34.5700   26.1400   45.7220 H   0  0  0  0  0  0  0  0  0  0  0  0
   32.8550   26.5170   45.5890 H   0  0  0  0  0  0  0  0  0  0  0  0
   34.6120   26.1730   47.9740 H   0  0  0  0  0  0  0  0  0  0  0  0
   32.9580   25.6400   47.6860 H   0  0  0  0  0  0  0  0  0  0  0  0
   33.3570   27.4020   49.3840 H   0  0  0  0  0  0  0  0  0  0  0  0
   35.5220   30.4230   48.4140 C   0  0  0  0  0  0  0  0  0  0  0  0
   34.5530   29.4890   48.8600 C   0  0  0  0  0  0  0  0  0  0  0  0
   34.7250   28.9800   50.1330 C   0  0  0  0  0  0  0  0  0  0  0  0
   35.7810   29.3780   50.8850 N   0  0  0  0  0  0  0  0  0  0  0  0
   36.6860   30.2760   50.4130 C   0  0  0  0  0  0  0  0  0  0  0  0
   36.5430   30.7920   49.1720 N   0  0  0  0  0  0  0  0  0  0  0  0
   35.4450   30.8570   47.4350 H   0  0  0  0  0  0  0  0  0  0  0  0
   34.1360   28.2920   50.6990 H   0  0  0  0  0  0  0  0  0  0  0  0
   37.5380   30.6110   50.9910 H   0  0  0  0  0  0  0  0  0  0  0  0
   31.5130   27.4830   48.5190 C   0  0  0  0  0  0  0  0  0  0  0  0
   30.7690   26.8950   47.4860 C   0  0  0  0  0  0  0  0  0  0  0  0
   31.2490   26.5290   46.5650 H   0  0  0  0  0  0  0  0  0  0  0  0
   29.3780   26.7240   47.5320 C   0  0  0  0  0  0  0  0  0  0  0  0
   28.7100   27.1600   48.6580 C   0  0  0  0  0  0  0  0  0  0  0  0
   27.6390   27.0310   48.7010 H   0  0  0  0  0  0  0  0  0  0  0  0
   29.4050   27.7420   49.6950 C   0  0  0  0  0  0  0  0  0  0  0  0
   28.8860   28.0860   50.5790 H   0  0  0  0  0  0  0  0  0  0  0  0
   30.7690   27.8900   49.6060 C   0  0  0  0  0  0  0  0  0  0  0  0
  1  6  1  0  0  0  0
  1  7  1  1  0  0  0
  1 18  1  0  0  0  0
  2  1  1  0  0  0  0
  3 10  1  0  0  0  0
  3  4  1  0  0  0  0
  3  2  1  0  0  0  0
  4  5  1  0  0  0  0
  5 15  1  0  0  0  0
  5 14  1  0  0  0  0
  5  6  1  0  0  0  0
  6 26  1  0  0  0  0
  6 16  1  1  0  0  0
  8  2  1  0  0  0  0
  9  2  1  0  0  0  0
 11  3  1  0  0  0  0
 12  4  1  0  0  0  0
 13  4  1  0  0  0  0
 17 18  2  0  0  0  0
 17 22  1  0  0  0  0
 18 19  1  0  0  0  0
 19 24  1  0  0  0  0
 19 20  2  0  0  0  0
 21 20  1  0  0  0  0
 21 25  1  0  0  0  0
 22 21  2  0  0  0  0
 23 17  1  0  0  0  0
 26 34  1  0  0  0  0
 27 29  1  0  0  0  0
 27 26  2  0  0  0  0
 28 27  1  0  0  0  0
 29 30  2  0  0  0  0
 30 31  1  0  0  0  0
 30 32  1  0  0  0  0
 32 33  1  0  0  0  0
 34 32  2  0  0  0  0
M  END
>  <minimizedAffinity>
-4.80391026

>  <minimizedRMSD>
2.48365688

$$$$
