
 OpenBabel03272509093D

 40 43  0  0  0  0  0  0  0  0999 V2000
   32.8510   27.8130   48.6750 C   0  0  0  0  0  0  0  0  0  0  0  0
   31.9510   28.4180   48.6240 H   0  0  0  0  0  0  0  0  0  0  0  0
   32.6420   27.0600   49.4950 H   0  0  0  0  0  0  0  0  0  0  0  0
   33.1810   27.0160   47.4800 C   0  0  0  0  0  0  0  0  0  0  0  0
   33.7180   25.7310   47.5640 C   0  0  0  0  0  0  0  0  0  0  0  0
   34.0430   25.0050   46.4330 C   0  0  0  0  0  0  0  0  0  0  0  0
   33.8440   25.5360   45.1770 C   0  0  0  0  0  0  0  0  0  0  0  0
   33.3170   26.7950   45.0970 C   0  0  0  0  0  0  0  0  0  0  0  0
   32.9860   27.5360   46.2220 C   0  0  0  0  0  0  0  0  0  0  0  0
   33.8460   25.3820   48.5820 H   0  0  0  0  0  0  0  0  0  0  0  0
   34.4440   24.0390   46.6840 H   0  0  0  0  0  0  0  0  0  0  0  0
   34.1240   24.9040   44.3460 H   0  0  0  0  0  0  0  0  0  0  0  0
   33.1890   27.1440   44.0730 H   0  0  0  0  0  0  0  0  0  0  0  0
   32.4160   28.8310   45.8860 C   0  0  0  0  0  0  0  0  0  0  0  0
   31.0780   28.7760   45.4770 C   0  0  0  0  0  0  0  0  0  0  0  0
   30.5290   27.8320   45.4070 H   0  0  0  0  0  0  0  0  0  0  0  0
   30.3310   29.8820   45.1280 C   0  0  0  0  0  0  0  0  0  0  0  0
   30.8960   31.1270   45.1710 C   0  0  0  0  0  0  0  0  0  0  0  0
   30.4180   32.0590   44.9240 H   0  0  0  0  0  0  0  0  0  0  0  0
   32.2120   31.1970   45.5720 C   0  0  0  0  0  0  0  0  0  0  0  0
   32.7120   32.1570   45.6250 H   0  0  0  0  0  0  0  0  0  0  0  0
   32.9600   30.0960   45.9210 C   0  0  0  0  0  0  0  0  0  0  0  0
   35.2580   28.3030   49.0770 C   0  0  0  0  0  0  0  0  0  0  0  0
   33.9900   28.6120   49.1890 C   0  0  0  0  0  0  0  0  0  0  0  0
   37.3030   30.1350   51.4840 C   0  0  0  0  0  0  0  0  0  0  0  0
   38.0290   31.0150   50.6510 C   0  0  0  0  0  0  0  0  0  0  0  0
   37.7880   30.9480   49.2660 C   0  0  0  0  0  0  0  0  0  0  0  0
   36.8680   30.0400   48.7880 N   0  0  0  0  0  0  0  0  0  0  0  0
   36.2150   29.2330   49.6580 C   0  0  0  0  0  0  0  0  0  0  0  0
   36.4300   29.2810   50.9860 N   0  0  0  0  0  0  0  0  0  0  0  0
   37.5000   30.2020   52.5390 H   0  0  0  0  0  0  0  0  0  0  0  0
   38.7530   31.7340   50.9830 H   0  0  0  0  0  0  0  0  0  0  0  0
   38.4740   31.8100   48.2930 C   0  0  0  0  0  0  0  0  0  0  0  0
   38.8020   31.3850   47.0330 C   0  0  0  0  0  0  0  0  0  0  0  0
   39.4340   32.4590   46.3900 C   0  0  0  0  0  0  0  0  0  0  0  0
   39.4570   33.4780   47.2900 N   0  0  0  0  0  0  0  0  0  0  0  0
   38.8850   33.0910   48.4230 N   0  0  0  0  0  0  0  0  0  0  0  0
   38.6390   30.4150   46.5490 H   0  0  0  0  0  0  0  0  0  0  0  0
   39.8320   32.5000   45.3870 H   0  0  0  0  0  0  0  0  0  0  0  0
   39.8480   34.4450   47.1750 H   0  0  0  0  0  0  0  0  0  0  0  0
  1 24  1  0  0  0  0
  1  3  1  0  0  0  0
  2  1  1  0  0  0  0
  4  5  1  0  0  0  0
  4  1  1  0  0  0  0
  5 10  1  0  0  0  0
  6 11  1  0  0  0  0
  6  5  2  0  0  0  0
  7  6  1  0  0  0  0
  8  7  2  0  0  0  0
  8  9  1  0  0  0  0
  9  4  2  0  0  0  0
 12  7  1  0  0  0  0
 13  8  1  0  0  0  0
 14 22  1  0  0  0  0
 14  9  1  0  0  0  0
 15 14  2  0  0  0  0
 16 15  1  0  0  0  0
 17 18  2  0  0  0  0
 17 15  1  0  0  0  0
 18 20  1  0  0  0  0
 19 18  1  0  0  0  0
 20 21  1  0  0  0  0
 20 22  2  0  0  0  0
 23 24  2  0  0  0  0
 23 29  1  0  0  0  0
 25 31  1  0  0  0  0
 26 32  1  0  0  0  0
 26 25  2  0  0  0  0
 27 26  1  0  0  0  0
 28 27  2  0  0  0  0
 28 29  1  0  0  0  0
 29 30  2  0  0  0  0
 30 25  1  0  0  0  0
 33 37  2  0  0  0  0
 33 27  1  0  0  0  0
 34 33  1  0  0  0  0
 35 34  2  0  0  0  0
 35 36  1  0  0  0  0
 36 37  1  0  0  0  0
 38 34  1  0  0  0  0
 39 35  1  0  0  0  0
 40 36  1  0  0  0  0
M  END
>  <minimizedAffinity>
-6.40069246

>  <minimizedRMSD>
1.31599009

$$$$
