
 OpenBabel03272509063D

 33 35  0  0  0  0  0  0  0  0999 V2000
   38.7870   27.1230   33.2900 C   0  0  0  0  0  0  0  0  0  0  0  0
   39.0970   26.5090   34.5230 C   0  0  0  0  0  0  0  0  0  0  0  0
   38.5090   25.2610   34.8070 C   0  0  0  0  0  0  0  0  0  0  0  0
   37.6830   24.7450   33.8650 N   0  0  0  0  0  0  0  0  0  0  0  0
   37.4070   25.3590   32.6970 C   0  0  0  0  0  0  0  0  0  0  0  0
   37.9610   26.5480   32.4090 N   0  0  0  0  0  0  0  0  0  0  0  0
   39.2570   28.0950   33.0890 H   0  0  0  0  0  0  0  0  0  0  0  0
   39.7550   26.9370   35.2530 H   0  0  0  0  0  0  0  0  0  0  0  0
   38.7380   24.5140   36.0360 C   0  0  0  0  0  0  0  0  0  0  0  0
   37.9420   24.8440   37.1120 C   0  0  0  0  0  0  0  0  0  0  0  0
   37.1640   25.6220   37.0860 H   0  0  0  0  0  0  0  0  0  0  0  0
   38.0880   24.1850   38.3270 C   0  0  0  0  0  3  0  0  0  0  0  0
   39.0460   23.1950   38.4350 C   0  0  0  0  0  0  0  0  0  0  0  0
   39.1060   22.7230   39.4100 H   0  0  0  0  0  0  0  0  0  0  0  0
   39.8220   22.8930   37.3410 C   0  0  0  0  0  0  0  0  0  0  0  0
   40.5420   22.1030   37.5290 H   0  0  0  0  0  0  0  0  0  0  0  0
   39.6930   23.5280   36.1410 C   0  0  0  0  0  3  0  0  0  0  0  0
   36.5060   24.6530   31.8230 C   0  0  0  0  0  3  0  0  0  0  0  0
   36.4070   23.3690   31.9040 C   0  0  0  0  0  3  0  0  0  0  0  0
   35.5570   22.4710   31.1140 C   0  0  0  0  0  0  0  0  0  0  0  0
   35.8710   22.4920   30.0520 H   0  0  0  0  0  0  0  0  0  0  0  0
   34.4970   22.7910   31.1480 H   0  0  0  0  0  0  0  0  0  0  0  0
   35.6680   21.0400   31.5570 C   0  0  0  0  0  0  0  0  0  0  0  0
   35.2540   20.5370   32.7670 C   0  0  0  0  0  0  0  0  0  0  0  0
   35.4150   19.2000   33.0480 C   0  0  0  0  0  0  0  0  0  0  0  0
   35.9920   18.3210   32.1400 C   0  0  0  0  0  0  0  0  0  0  0  0
   36.4120   18.8100   30.9230 C   0  0  0  0  0  0  0  0  0  0  0  0
   36.2480   20.1480   30.6490 C   0  0  0  0  0  0  0  0  0  0  0  0
   34.8140   21.2730   33.4260 H   0  0  0  0  0  0  0  0  0  0  0  0
   35.0520   18.9100   34.0330 H   0  0  0  0  0  0  0  0  0  0  0  0
   36.0920   17.2750   32.4220 H   0  0  0  0  0  0  0  0  0  0  0  0
   36.8610   18.1200   30.2200 H   0  0  0  0  0  0  0  0  0  0  0  0
   36.5950   20.4860   29.6750 H   0  0  0  0  0  0  0  0  0  0  0  0
  1  2  1  0  0  0  0
  2  3  2  0  0  0  0
  2  8  1  0  0  0  0
  3  9  1  0  0  0  0
  4  3  1  0  0  0  0
  5  4  2  0  0  0  0
  6  5  1  0  0  0  0
  6  1  2  0  0  0  0
  7  1  1  0  0  0  0
  9 17  2  0  0  0  0
  9 10  1  0  0  0  0
 10 12  2  0  0  0  0
 11 10  1  0  0  0  0
 12 13  1  0  0  0  0
 13 14  1  0  0  0  0
 15 16  1  0  0  0  0
 15 13  2  0  0  0  0
 17 15  1  0  0  0  0
 18 19  2  0  0  0  0
 18  5  1  0  0  0  0
 20 22  1  0  0  0  0
 20 23  1  0  0  0  0
 20 19  1  0  0  0  0
 21 20  1  0  0  0  0
 23 24  1  0  0  0  0
 24 25  2  0  0  0  0
 24 29  1  0  0  0  0
 25 30  1  0  0  0  0
 26 31  1  0  0  0  0
 26 25  1  0  0  0  0
 27 26  2  0  0  0  0
 28 27  1  0  0  0  0
 28 23  2  0  0  0  0
 32 27  1  0  0  0  0
 33 28  1  0  0  0  0
M  END
>  <minimizedAffinity>
-6.08072138

$$$$

 OpenBabel03272509063D

 33 35  0  0  0  0  0  0  0  0999 V2000
   37.4600   27.5340   34.3820 C   0  0  0  0  0  0  0  0  0  0  0  0
   38.0710   26.7700   35.3990 C   0  0  0  0  0  0  0  0  0  0  0  0
   38.1720   25.3780   35.2110 C   0  0  0  0  0  0  0  0  0  0  0  0
   37.6670   24.8780   34.0580 N   0  0  0  0  0  0  0  0  0  0  0  0
   37.0870   25.6370   33.1060 C   0  0  0  0  0  0  0  0  0  0  0  0
   36.9840   26.9660   33.2690 N   0  0  0  0  0  0  0  0  0  0  0  0
   37.3920   28.6180   34.5490 H   0  0  0  0  0  0  0  0  0  0  0  0
   38.4640   27.1890   36.3050 H   0  0  0  0  0  0  0  0  0  0  0  0
   38.7770   24.4680   36.1740 C   0  0  0  0  0  0  0  0  0  0  0  0
   39.9510   23.8570   35.7880 C   0  0  0  0  0  0  0  0  0  0  0  0
   40.4380   24.0200   34.8140 H   0  0  0  0  0  0  0  0  0  0  0  0
   40.6010   22.9740   36.6410 C   0  0  0  0  0  3  0  0  0  0  0  0
   40.0480   22.7200   37.8820 C   0  0  0  0  0  0  0  0  0  0  0  0
   40.6070   22.0220   38.4960 H   0  0  0  0  0  0  0  0  0  0  0  0
   38.8760   23.3470   38.2330 C   0  0  0  0  0  0  0  0  0  0  0  0
   38.5260   23.0810   39.2250 H   0  0  0  0  0  0  0  0  0  0  0  0
   38.2240   24.2170   37.4090 C   0  0  0  0  0  3  0  0  0  0  0  0
   36.6110   24.9240   31.9490 C   0  0  0  0  0  3  0  0  0  0  0  0
   36.2670   23.6850   32.0540 C   0  0  0  0  0  3  0  0  0  0  0  0
   35.7610   22.7900   31.0080 C   0  0  0  0  0  0  0  0  0  0  0  0
   36.3960   22.8690   30.1040 H   0  0  0  0  0  0  0  0  0  0  0  0
   34.7310   23.0650   30.7090 H   0  0  0  0  0  0  0  0  0  0  0  0
   35.7980   21.3460   31.4230 C   0  0  0  0  0  0  0  0  0  0  0  0
   36.2030   20.2930   30.6400 C   0  0  0  0  0  0  0  0  0  0  0  0
   36.1880   19.0130   31.1450 C   0  0  0  0  0  0  0  0  0  0  0  0
   35.7700   18.7380   32.4410 C   0  0  0  0  0  0  0  0  0  0  0  0
   35.3600   19.7830   33.2380 C   0  0  0  0  0  0  0  0  0  0  0  0
   35.3780   21.0600   32.7270 C   0  0  0  0  0  0  0  0  0  0  0  0
   36.5160   20.5750   29.6440 H   0  0  0  0  0  0  0  0  0  0  0  0
   36.5290   18.2570   30.4390 H   0  0  0  0  0  0  0  0  0  0  0  0
   35.7800   17.7050   32.7810 H   0  0  0  0  0  0  0  0  0  0  0  0
   35.0350   19.5630   34.2470 H   0  0  0  0  0  0  0  0  0  0  0  0
   35.0470   21.8510   33.3950 H   0  0  0  0  0  0  0  0  0  0  0  0
  1  7  1  0  0  0  0
  1  2  1  0  0  0  0
  2  8  1  0  0  0  0
  3  2  2  0  0  0  0
  3  9  1  0  0  0  0
  4  3  1  0  0  0  0
  5  6  1  0  0  0  0
  5  4  2  0  0  0  0
  6  1  2  0  0  0  0
  9 17  1  0  0  0  0
 10  9  2  0  0  0  0
 10 12  1  0  0  0  0
 11 10  1  0  0  0  0
 12 13  2  0  0  0  0
 13 15  1  0  0  0  0
 13 14  1  0  0  0  0
 15 16  1  0  0  0  0
 17 15  2  0  0  0  0
 18 19  2  0  0  0  0
 18  5  1  0  0  0  0
 20 23  1  0  0  0  0
 20 19  1  0  0  0  0
 21 20  1  0  0  0  0
 22 20  1  0  0  0  0
 23 28  1  0  0  0  0
 24 25  1  0  0  0  0
 24 23  2  0  0  0  0
 25 26  2  0  0  0  0
 26 31  1  0  0  0  0
 26 27  1  0  0  0  0
 27 32  1  0  0  0  0
 28 27  2  0  0  0  0
 28 33  1  0  0  0  0
 29 24  1  0  0  0  0
 30 25  1  0  0  0  0
M  END
>  <minimizedAffinity>
-6.05429649

$$$$

 OpenBabel03272509063D

 33 35  0  0  0  0  0  0  0  0999 V2000
   35.7770   28.1120   31.5870 C   0  0  0  0  0  0  0  0  0  0  0  0
   35.1220   29.0320   32.4340 C   0  0  0  0  0  0  0  0  0  0  0  0
   35.5890   29.1620   33.7570 C   0  0  0  0  0  0  0  0  0  0  0  0
   36.6390   28.3850   34.1140 N   0  0  0  0  0  0  0  0  0  0  0  0
   37.2410   27.5150   33.2800 C   0  0  0  0  0  0  0  0  0  0  0  0
   36.8100   27.3790   32.0150 N   0  0  0  0  0  0  0  0  0  0  0  0
   35.3970   28.0270   30.5600 H   0  0  0  0  0  0  0  0  0  0  0  0
   34.2910   29.6380   32.1280 H   0  0  0  0  0  0  0  0  0  0  0  0
   35.0110   30.0700   34.7380 C   0  0  0  0  0  0  0  0  0  0  0  0
   35.8890   30.9050   35.3940 C   0  0  0  0  0  0  0  0  0  0  0  0
   36.9750   30.9170   35.2180 H   0  0  0  0  0  0  0  0  0  0  0  0
   35.4290   31.8060   36.3480 C   0  0  0  0  0  3  0  0  0  0  0  0
   34.0750   31.8480   36.6230 C   0  0  0  0  0  0  0  0  0  0  0  0
   33.7850   32.5720   37.3770 H   0  0  0  0  0  0  0  0  0  0  0  0
   33.2290   30.9990   35.9490 C   0  0  0  0  0  0  0  0  0  0  0  0
   32.1890   31.1110   36.2370 H   0  0  0  0  0  0  0  0  0  0  0  0
   33.6620   30.1100   35.0100 C   0  0  0  0  0  3  0  0  0  0  0  0
   38.3430   26.7770   33.8420 C   0  0  0  0  0  3  0  0  0  0  0  0
   38.2730   25.4930   33.9380 C   0  0  0  0  0  3  0  0  0  0  0  0
   39.2760   24.5650   34.4750 C   0  0  0  0  0  0  0  0  0  0  0  0
   40.2780   25.0350   34.4470 H   0  0  0  0  0  0  0  0  0  0  0  0
   39.3310   23.6410   33.8660 H   0  0  0  0  0  0  0  0  0  0  0  0
   39.0160   24.2100   35.9110 C   0  0  0  0  0  0  0  0  0  0  0  0
   38.0380   24.7490   36.7110 C   0  0  0  0  0  0  0  0  0  0  0  0
   37.9080   24.3330   38.0150 C   0  0  0  0  0  0  0  0  0  0  0  0
   38.7440   23.3710   38.5680 C   0  0  0  0  0  0  0  0  0  0  0  0
   39.7300   22.8220   37.7800 C   0  0  0  0  0  0  0  0  0  0  0  0
   39.8550   23.2420   36.4760 C   0  0  0  0  0  0  0  0  0  0  0  0
   37.4230   25.4900   36.2190 H   0  0  0  0  0  0  0  0  0  0  0  0
   37.1010   24.8260   38.5560 H   0  0  0  0  0  0  0  0  0  0  0  0
   38.5910   23.0860   39.6060 H   0  0  0  0  0  0  0  0  0  0  0  0
   40.3800   22.0730   38.2170 H   0  0  0  0  0  0  0  0  0  0  0  0
   40.6480   22.7780   35.8940 H   0  0  0  0  0  0  0  0  0  0  0  0
  1  6  2  0  0  0  0
  1  2  1  0  0  0  0
  2  3  2  0  0  0  0
  3  4  1  0  0  0  0
  3  9  1  0  0  0  0
  5 18  1  0  0  0  0
  5  4  2  0  0  0  0
  6  5  1  0  0  0  0
  7  1  1  0  0  0  0
  8  2  1  0  0  0  0
  9 17  2  0  0  0  0
  9 10  1  0  0  0  0
 10 12  2  0  0  0  0
 11 10  1  0  0  0  0
 12 13  1  0  0  0  0
 13 14  1  0  0  0  0
 15 16  1  0  0  0  0
 15 13  2  0  0  0  0
 17 15  1  0  0  0  0
 18 19  2  0  0  0  0
 19 20  1  0  0  0  0
 20 23  1  0  0  0  0
 21 20  1  0  0  0  0
 22 20  1  0  0  0  0
 23 28  2  0  0  0  0
 23 24  1  0  0  0  0
 24 25  2  0  0  0  0
 25 30  1  0  0  0  0
 25 26  1  0  0  0  0
 26 31  1  0  0  0  0
 27 32  1  0  0  0  0
 27 26  2  0  0  0  0
 28 27  1  0  0  0  0
 29 24  1  0  0  0  0
 33 28  1  0  0  0  0
M  END
>  <minimizedAffinity>
-6.00188494

$$$$

 OpenBabel03272509063D

 33 35  0  0  0  0  0  0  0  0999 V2000
   37.3790   25.4830   32.6790 C   0  0  0  0  0  0  0  0  0  0  0  0
   37.8810   24.6620   33.7120 C   0  0  0  0  0  0  0  0  0  0  0  0
   37.9090   25.1870   35.0190 C   0  0  0  0  0  0  0  0  0  0  0  0
   37.4490   26.4500   35.1810 N   0  0  0  0  0  0  0  0  0  0  0  0
   36.9770   27.2080   34.1720 C   0  0  0  0  0  0  0  0  0  0  0  0
   36.9410   26.7230   32.9200 N   0  0  0  0  0  0  0  0  0  0  0  0
   37.3660   25.0540   31.6680 H   0  0  0  0  0  0  0  0  0  0  0  0
   38.2410   23.6640   33.5590 H   0  0  0  0  0  0  0  0  0  0  0  0
   38.4000   24.4560   36.1790 C   0  0  0  0  0  0  0  0  0  0  0  0
   39.5190   23.6750   35.9840 C   0  0  0  0  0  0  0  0  0  0  0  0
   40.0440   23.5810   35.0210 H   0  0  0  0  0  0  0  0  0  0  0  0
   40.0590   22.9410   37.0330 C   0  0  0  0  0  3  0  0  0  0  0  0
   39.4540   23.0090   38.2730 C   0  0  0  0  0  0  0  0  0  0  0  0
   39.9260   22.4110   39.0460 H   0  0  0  0  0  0  0  0  0  0  0  0
   38.3380   23.7980   38.4300 C   0  0  0  0  0  0  0  0  0  0  0  0
   37.9390   23.7830   39.4390 H   0  0  0  0  0  0  0  0  0  0  0  0
   37.7940   24.5250   37.4130 C   0  0  0  0  0  3  0  0  0  0  0  0
   36.5310   28.5270   34.5410 C   0  0  0  0  0  3  0  0  0  0  0  0
   35.7790   29.1990   33.7370 C   0  0  0  0  0  3  0  0  0  0  0  0
   35.2230   30.5450   33.9230 C   0  0  0  0  0  0  0  0  0  0  0  0
   34.6850   30.8600   33.0080 H   0  0  0  0  0  0  0  0  0  0  0  0
   36.0250   31.2880   34.1040 H   0  0  0  0  0  0  0  0  0  0  0  0
   34.2200   30.6000   35.0410 C   0  0  0  0  0  0  0  0  0  0  0  0
   33.1050   29.8090   35.1630 C   0  0  0  0  0  0  0  0  0  0  0  0
   32.2650   29.9640   36.2420 C   0  0  0  0  0  0  0  0  0  0  0  0
   32.5050   30.9080   37.2320 C   0  0  0  0  0  0  0  0  0  0  0  0
   33.6190   31.7100   37.1240 C   0  0  0  0  0  0  0  0  0  0  0  0
   34.4550   31.5500   36.0430 C   0  0  0  0  0  0  0  0  0  0  0  0
   32.9780   29.0960   34.3600 H   0  0  0  0  0  0  0  0  0  0  0  0
   31.4130   29.2850   36.2380 H   0  0  0  0  0  0  0  0  0  0  0  0
   31.8030   30.9820   38.0590 H   0  0  0  0  0  0  0  0  0  0  0  0
   33.8010   32.4450   37.8980 H   0  0  0  0  0  0  0  0  0  0  0  0
   35.3210   32.2050   36.0020 H   0  0  0  0  0  0  0  0  0  0  0  0
  1  6  2  0  0  0  0
  1  2  1  0  0  0  0
  2  3  2  0  0  0  0
  3  4  1  0  0  0  0
  3  9  1  0  0  0  0
  5 18  1  0  0  0  0
  5  4  2  0  0  0  0
  6  5  1  0  0  0  0
  7  1  1  0  0  0  0
  8  2  1  0  0  0  0
  9 17  1  0  0  0  0
 10  9  2  0  0  0  0
 10 12  1  0  0  0  0
 11 10  1  0  0  0  0
 12 13  2  0  0  0  0
 13 15  1  0  0  0  0
 13 14  1  0  0  0  0
 15 16  1  0  0  0  0
 17 15  2  0  0  0  0
 19 20  1  0  0  0  0
 19 18  2  0  0  0  0
 20 22  1  0  0  0  0
 20 23  1  0  0  0  0
 21 20  1  0  0  0  0
 23 24  2  0  0  0  0
 23 28  1  0  0  0  0
 24 25  1  0  0  0  0
 25 26  2  0  0  0  0
 26 31  1  0  0  0  0
 27 26  1  0  0  0  0
 27 32  1  0  0  0  0
 28 27  2  0  0  0  0
 29 24  1  0  0  0  0
 30 25  1  0  0  0  0
 33 28  1  0  0  0  0
M  END
>  <minimizedAffinity>
-5.99032593

$$$$

 OpenBabel03272509063D

 33 35  0  0  0  0  0  0  0  0999 V2000
   37.8690   25.8850   32.5420 C   0  0  0  0  0  0  0  0  0  0  0  0
   38.3210   24.9940   33.5390 C   0  0  0  0  0  0  0  0  0  0  0  0
   38.1340   25.3590   34.8870 C   0  0  0  0  0  0  0  0  0  0  0  0
   37.5310   26.5480   35.1210 N   0  0  0  0  0  0  0  0  0  0  0  0
   37.1120   27.3770   34.1440 C   0  0  0  0  0  0  0  0  0  0  0  0
   37.2800   27.0450   32.8540 N   0  0  0  0  0  0  0  0  0  0  0  0
   38.0240   25.5810   31.4980 H   0  0  0  0  0  0  0  0  0  0  0  0
   38.7970   24.0560   33.3290 H   0  0  0  0  0  0  0  0  0  0  0  0
   38.5500   24.5390   36.0160 C   0  0  0  0  0  0  0  0  0  0  0  0
   37.8750   24.7390   37.2020 C   0  0  0  0  0  0  0  0  0  0  0  0
   37.0600   25.4680   37.3300 H   0  0  0  0  0  0  0  0  0  0  0  0
   38.2020   24.0020   38.3340 C   0  0  0  0  0  3  0  0  0  0  0  0
   39.2160   23.0670   38.2480 C   0  0  0  0  0  0  0  0  0  0  0  0
   39.4190   22.5280   39.1670 H   0  0  0  0  0  0  0  0  0  0  0  0
   39.8680   22.8950   37.0490 C   0  0  0  0  0  0  0  0  0  0  0  0
   40.6450   22.1390   37.0870 H   0  0  0  0  0  0  0  0  0  0  0  0
   39.5600   23.6080   35.9280 C   0  0  0  0  0  3  0  0  0  0  0  0
   36.4920   28.5980   34.5900 C   0  0  0  0  0  3  0  0  0  0  0  0
   35.4490   29.0490   33.9800 C   0  0  0  0  0  3  0  0  0  0  0  0
   34.6760   30.2620   34.2730 C   0  0  0  0  0  0  0  0  0  0  0  0
   34.2000   30.1730   35.2700 H   0  0  0  0  0  0  0  0  0  0  0  0
   33.8630   30.4070   33.5350 H   0  0  0  0  0  0  0  0  0  0  0  0
   35.5370   31.4920   34.3260 C   0  0  0  0  0  0  0  0  0  0  0  0
   36.0100   32.0970   35.4640 C   0  0  0  0  0  0  0  0  0  0  0  0
   36.7930   33.2240   35.3710 C   0  0  0  0  0  0  0  0  0  0  0  0
   37.1310   33.7860   34.1470 C   0  0  0  0  0  0  0  0  0  0  0  0
   36.6650   33.1920   32.9960 C   0  0  0  0  0  0  0  0  0  0  0  0
   35.8820   32.0650   33.0960 C   0  0  0  0  0  0  0  0  0  0  0  0
   35.7110   31.6090   36.3820 H   0  0  0  0  0  0  0  0  0  0  0  0
   37.1120   33.6200   36.3350 H   0  0  0  0  0  0  0  0  0  0  0  0
   37.7530   34.6780   34.1400 H   0  0  0  0  0  0  0  0  0  0  0  0
   36.9310   33.6340   32.0440 H   0  0  0  0  0  0  0  0  0  0  0  0
   35.5390   31.6310   32.1600 H   0  0  0  0  0  0  0  0  0  0  0  0
  1  6  2  0  0  0  0
  1  2  1  0  0  0  0
  2  3  2  0  0  0  0
  3  4  1  0  0  0  0
  3  9  1  0  0  0  0
  5 18  1  0  0  0  0
  5  4  2  0  0  0  0
  6  5  1  0  0  0  0
  7  1  1  0  0  0  0
  8  2  1  0  0  0  0
  9 10  1  0  0  0  0
 10 11  1  0  0  0  0
 10 12  2  0  0  0  0
 13 12  1  0  0  0  0
 13 14  1  0  0  0  0
 15 16  1  0  0  0  0
 15 13  2  0  0  0  0
 17  9  2  0  0  0  0
 17 15  1  0  0  0  0
 19 20  1  0  0  0  0
 19 18  2  0  0  0  0
 20 23  1  0  0  0  0
 20 21  1  0  0  0  0
 22 20  1  0  0  0  0
 23 24  1  0  0  0  0
 24 29  1  0  0  0  0
 25 24  2  0  0  0  0
 25 30  1  0  0  0  0
 26 25  1  0  0  0  0
 27 28  1  0  0  0  0
 27 26  2  0  0  0  0
 28 23  2  0  0  0  0
 31 26  1  0  0  0  0
 32 27  1  0  0  0  0
 33 28  1  0  0  0  0
M  END
>  <minimizedAffinity>
-5.76059151

$$$$

 OpenBabel03272509063D

 33 35  0  0  0  0  0  0  0  0999 V2000
   34.8430   29.0330   32.0540 C   0  0  0  0  0  0  0  0  0  0  0  0
   34.3340   29.9400   33.0070 C   0  0  0  0  0  0  0  0  0  0  0  0
   34.9190   29.9520   34.2880 C   0  0  0  0  0  0  0  0  0  0  0  0
   35.9340   29.0820   34.5050 N   0  0  0  0  0  0  0  0  0  0  0  0
   36.3960   28.2260   33.5720 C   0  0  0  0  0  0  0  0  0  0  0  0
   35.8500   28.2020   32.3450 N   0  0  0  0  0  0  0  0  0  0  0  0
   34.3720   29.0400   31.0610 H   0  0  0  0  0  0  0  0  0  0  0  0
   33.5280   30.6210   32.8110 H   0  0  0  0  0  0  0  0  0  0  0  0
   34.4970   30.8340   35.3670 C   0  0  0  0  0  0  0  0  0  0  0  0
   33.1740   30.7470   35.7480 C   0  0  0  0  0  0  0  0  0  0  0  0
   32.4450   30.0640   35.2880 H   0  0  0  0  0  0  0  0  0  0  0  0
   32.6800   31.5490   36.7700 C   0  0  0  0  0  3  0  0  0  0  0  0
   33.5390   32.4330   37.3960 C   0  0  0  0  0  0  0  0  0  0  0  0
   33.0880   33.0280   38.1830 H   0  0  0  0  0  0  0  0  0  0  0  0
   34.8510   32.4920   36.9890 C   0  0  0  0  0  0  0  0  0  0  0  0
   35.4410   33.2160   37.5420 H   0  0  0  0  0  0  0  0  0  0  0  0
   35.3540   31.7130   35.9890 C   0  0  0  0  0  3  0  0  0  0  0  0
   37.4820   27.3780   33.9910 C   0  0  0  0  0  3  0  0  0  0  0  0
   37.9850   27.5150   35.1700 C   0  0  0  0  0  3  0  0  0  0  0  0
   39.0830   26.7590   35.7840 C   0  0  0  0  0  0  0  0  0  0  0  0
   39.2010   27.0580   36.8440 H   0  0  0  0  0  0  0  0  0  0  0  0
   40.0450   26.9680   35.2760 H   0  0  0  0  0  0  0  0  0  0  0  0
   38.8260   25.2780   35.7910 C   0  0  0  0  0  0  0  0  0  0  0  0
   39.3430   24.3670   34.9040 C   0  0  0  0  0  0  0  0  0  0  0  0
   39.0260   23.0330   35.0230 C   0  0  0  0  0  0  0  0  0  0  0  0
   38.1860   22.5630   36.0240 C   0  0  0  0  0  0  0  0  0  0  0  0
   37.6580   23.4650   36.9210 C   0  0  0  0  0  0  0  0  0  0  0  0
   37.9800   24.7970   36.7960 C   0  0  0  0  0  0  0  0  0  0  0  0
   39.9890   24.7980   34.1510 H   0  0  0  0  0  0  0  0  0  0  0  0
   39.4910   22.4010   34.2670 H   0  0  0  0  0  0  0  0  0  0  0  0
   37.9720   21.4980   36.0640 H   0  0  0  0  0  0  0  0  0  0  0  0
   37.0040   23.0930   37.6990 H   0  0  0  0  0  0  0  0  0  0  0  0
   37.5400   25.4690   37.5290 H   0  0  0  0  0  0  0  0  0  0  0  0
  1  6  2  0  0  0  0
  1  2  1  0  0  0  0
  2  3  2  0  0  0  0
  3  4  1  0  0  0  0
  3  9  1  0  0  0  0
  5 18  1  0  0  0  0
  5  4  2  0  0  0  0
  6  5  1  0  0  0  0
  7  1  1  0  0  0  0
  8  2  1  0  0  0  0
  9 10  2  0  0  0  0
  9 17  1  0  0  0  0
 10 12  1  0  0  0  0
 11 10  1  0  0  0  0
 12 13  2  0  0  0  0
 13 14  1  0  0  0  0
 15 13  1  0  0  0  0
 15 16  1  0  0  0  0
 17 15  2  0  0  0  0
 18 19  2  0  0  0  0
 19 20  1  0  0  0  0
 20 23  1  0  0  0  0
 20 21  1  0  0  0  0
 22 20  1  0  0  0  0
 23 28  1  0  0  0  0
 24 25  1  0  0  0  0
 24 23  2  0  0  0  0
 25 26  2  0  0  0  0
 26 31  1  0  0  0  0
 26 27  1  0  0  0  0
 27 32  1  0  0  0  0
 28 27  2  0  0  0  0
 28 33  1  0  0  0  0
 29 24  1  0  0  0  0
 30 25  1  0  0  0  0
M  END
>  <minimizedAffinity>
-5.74260521

$$$$

 OpenBabel03272509063D

 33 35  0  0  0  0  0  0  0  0999 V2000
   36.1710   29.8000   31.7600 C   0  0  0  0  0  0  0  0  0  0  0  0
   35.5540   30.6050   32.7420 C   0  0  0  0  0  0  0  0  0  0  0  0
   35.4590   30.0940   34.0510 C   0  0  0  0  0  0  0  0  0  0  0  0
   35.9700   28.8580   34.2650 N   0  0  0  0  0  0  0  0  0  0  0  0
   36.5530   28.1150   33.3030 C   0  0  0  0  0  0  0  0  0  0  0  0
   36.6540   28.5870   32.0500 N   0  0  0  0  0  0  0  0  0  0  0  0
   36.2360   30.2180   30.7450 H   0  0  0  0  0  0  0  0  0  0  0  0
   35.1560   31.5810   32.5480 H   0  0  0  0  0  0  0  0  0  0  0  0
   34.8490   30.8120   35.1620 C   0  0  0  0  0  0  0  0  0  0  0  0
   33.4960   30.6200   35.3480 C   0  0  0  0  0  0  0  0  0  0  0  0
   32.8740   29.9690   34.7150 H   0  0  0  0  0  0  0  0  0  0  0  0
   32.8280   31.2630   36.3830 C   0  0  0  0  0  3  0  0  0  0  0  0
   33.5440   32.0980   37.2200 C   0  0  0  0  0  0  0  0  0  0  0  0
   32.9610   32.5670   38.0050 H   0  0  0  0  0  0  0  0  0  0  0  0
   34.8920   32.2650   37.0030 C   0  0  0  0  0  0  0  0  0  0  0  0
   35.3610   32.9380   37.7130 H   0  0  0  0  0  0  0  0  0  0  0  0
   35.5650   31.6420   35.9940 C   0  0  0  0  0  3  0  0  0  0  0  0
   37.0390   26.8260   33.7240 C   0  0  0  0  0  3  0  0  0  0  0  0
   37.6450   26.7060   34.8560 C   0  0  0  0  0  3  0  0  0  0  0  0
   38.2090   25.4950   35.4620 C   0  0  0  0  0  0  0  0  0  0  0  0
   37.7220   24.5970   35.0340 H   0  0  0  0  0  0  0  0  0  0  0  0
   38.0310   25.4740   36.5550 H   0  0  0  0  0  0  0  0  0  0  0  0
   39.6790   25.3470   35.1870 C   0  0  0  0  0  0  0  0  0  0  0  0
   40.4120   24.1940   35.3200 C   0  0  0  0  0  0  0  0  0  0  0  0
   41.7570   24.1960   35.0340 C   0  0  0  0  0  0  0  0  0  0  0  0
   42.4170   25.3410   34.6080 C   0  0  0  0  0  0  0  0  0  0  0  0
   41.6970   26.5060   34.4690 C   0  0  0  0  0  0  0  0  0  0  0  0
   40.3510   26.4970   34.7570 C   0  0  0  0  0  0  0  0  0  0  0  0
   39.8380   23.3400   35.6540 H   0  0  0  0  0  0  0  0  0  0  0  0
   42.2390   23.2280   35.1740 H   0  0  0  0  0  0  0  0  0  0  0  0
   43.4830   25.2780   34.3980 H   0  0  0  0  0  0  0  0  0  0  0  0
   42.2170   27.3960   34.1370 H   0  0  0  0  0  0  0  0  0  0  0  0
   39.8260   27.4410   34.6320 H   0  0  0  0  0  0  0  0  0  0  0  0
  1  6  2  0  0  0  0
  1  2  1  0  0  0  0
  2  3  2  0  0  0  0
  3  4  1  0  0  0  0
  3  9  1  0  0  0  0
  5 18  1  0  0  0  0
  5  4  2  0  0  0  0
  6  5  1  0  0  0  0
  7  1  1  0  0  0  0
  8  2  1  0  0  0  0
  9 10  2  0  0  0  0
  9 17  1  0  0  0  0
 10 12  1  0  0  0  0
 11 10  1  0  0  0  0
 12 13  2  0  0  0  0
 13 14  1  0  0  0  0
 15 13  1  0  0  0  0
 15 16  1  0  0  0  0
 17 15  2  0  0  0  0
 18 19  2  0  0  0  0
 19 20  1  0  0  0  0
 20 22  1  0  0  0  0
 21 20  1  0  0  0  0
 23 24  1  0  0  0  0
 23 20  1  0  0  0  0
 24 29  1  0  0  0  0
 25 30  1  0  0  0  0
 25 24  2  0  0  0  0
 26 25  1  0  0  0  0
 27 26  2  0  0  0  0
 27 28  1  0  0  0  0
 28 23  2  0  0  0  0
 31 26  1  0  0  0  0
 32 27  1  0  0  0  0
 33 28  1  0  0  0  0
M  END
>  <minimizedAffinity>
-5.54639101

$$$$

 OpenBabel03272509063D

 33 35  0  0  0  0  0  0  0  0999 V2000
   38.3860   26.1450   35.6650 C   0  0  0  0  0  0  0  0  0  0  0  0
   37.7220   27.3460   35.3350 C   0  0  0  0  0  0  0  0  0  0  0  0
   37.0470   27.4120   34.1000 C   0  0  0  0  0  0  0  0  0  0  0  0
   37.0910   26.3070   33.3190 N   0  0  0  0  0  0  0  0  0  0  0  0
   37.7360   25.1750   33.6640 C   0  0  0  0  0  0  0  0  0  0  0  0
   38.3830   25.0930   34.8380 N   0  0  0  0  0  0  0  0  0  0  0  0
   38.9060   26.1150   36.6320 H   0  0  0  0  0  0  0  0  0  0  0  0
   37.7020   28.2100   35.9710 H   0  0  0  0  0  0  0  0  0  0  0  0
   36.3220   28.5850   33.6320 C   0  0  0  0  0  0  0  0  0  0  0  0
   36.2550   28.7600   32.2660 C   0  0  0  0  0  0  0  0  0  0  0  0
   36.7100   28.0750   31.5350 H   0  0  0  0  0  0  0  0  0  0  0  0
   35.5830   29.8500   31.7260 C   0  0  0  0  0  3  0  0  0  0  0  0
   34.9850   30.7540   32.5830 C   0  0  0  0  0  0  0  0  0  0  0  0
   34.4800   31.5800   32.0950 H   0  0  0  0  0  0  0  0  0  0  0  0
   35.0740   30.5480   33.9400 C   0  0  0  0  0  0  0  0  0  0  0  0
   34.5730   31.3120   34.5250 H   0  0  0  0  0  0  0  0  0  0  0  0
   35.7280   29.4840   34.4880 C   0  0  0  0  0  3  0  0  0  0  0  0
   37.6690   24.1050   32.7020 C   0  0  0  0  0  3  0  0  0  0  0  0
   36.5600   23.8610   32.0900 C   0  0  0  0  0  3  0  0  0  0  0  0
   36.2850   22.8280   31.0840 C   0  0  0  0  0  0  0  0  0  0  0  0
   37.1650   22.6980   30.4260 H   0  0  0  0  0  0  0  0  0  0  0  0
   35.4320   23.1160   30.4380 H   0  0  0  0  0  0  0  0  0  0  0  0
   36.0190   21.4840   31.7020 C   0  0  0  0  0  0  0  0  0  0  0  0
   35.5720   21.2590   32.9810 C   0  0  0  0  0  0  0  0  0  0  0  0
   35.3690   19.9720   33.4230 C   0  0  0  0  0  0  0  0  0  0  0  0
   35.6030   18.8690   32.6120 C   0  0  0  0  0  0  0  0  0  0  0  0
   36.0520   19.0780   31.3270 C   0  0  0  0  0  0  0  0  0  0  0  0
   36.2530   20.3670   30.8910 C   0  0  0  0  0  0  0  0  0  0  0  0
   35.4100   22.1590   33.5580 H   0  0  0  0  0  0  0  0  0  0  0  0
   35.0150   19.9110   34.4520 H   0  0  0  0  0  0  0  0  0  0  0  0
   35.4240   17.8770   33.0200 H   0  0  0  0  0  0  0  0  0  0  0  0
   36.2330   18.2150   30.6990 H   0  0  0  0  0  0  0  0  0  0  0  0
   36.6070   20.4810   29.8690 H   0  0  0  0  0  0  0  0  0  0  0  0
  1  7  1  0  0  0  0
  2  1  1  0  0  0  0
  2  8  1  0  0  0  0
  3  2  2  0  0  0  0
  4  5  2  0  0  0  0
  4  3  1  0  0  0  0
  5  6  1  0  0  0  0
  6  1  2  0  0  0  0
  9  3  1  0  0  0  0
  9 17  1  0  0  0  0
 10  9  2  0  0  0  0
 11 10  1  0  0  0  0
 12 10  1  0  0  0  0
 12 13  2  0  0  0  0
 13 15  1  0  0  0  0
 14 13  1  0  0  0  0
 15 17  2  0  0  0  0
 15 16  1  0  0  0  0
 18  5  1  0  0  0  0
 19 18  2  0  0  0  0
 20 23  1  0  0  0  0
 20 19  1  0  0  0  0
 21 20  1  0  0  0  0
 22 20  1  0  0  0  0
 23 24  1  0  0  0  0
 24 25  2  0  0  0  0
 24 29  1  0  0  0  0
 25 30  1  0  0  0  0
 26 31  1  0  0  0  0
 26 25  1  0  0  0  0
 27 26  2  0  0  0  0
 28 27  1  0  0  0  0
 28 23  2  0  0  0  0
 32 27  1  0  0  0  0
 33 28  1  0  0  0  0
M  END
>  <minimizedAffinity>
-5.53854656

$$$$

 OpenBabel03272509063D

 33 35  0  0  0  0  0  0  0  0999 V2000
   36.3830   29.5060   31.7090 C   0  0  0  0  0  0  0  0  0  0  0  0
   35.6940   30.3000   32.6500 C   0  0  0  0  0  0  0  0  0  0  0  0
   35.5490   29.8000   33.9590 C   0  0  0  0  0  0  0  0  0  0  0  0
   36.0870   28.5840   34.2130 N   0  0  0  0  0  0  0  0  0  0  0  0
   36.7390   27.8490   33.2900 C   0  0  0  0  0  0  0  0  0  0  0  0
   36.8880   28.3110   32.0370 N   0  0  0  0  0  0  0  0  0  0  0  0
   36.4850   29.9140   30.6950 H   0  0  0  0  0  0  0  0  0  0  0  0
   35.2760   31.2620   32.4260 H   0  0  0  0  0  0  0  0  0  0  0  0
   34.8630   30.5110   35.0300 C   0  0  0  0  0  0  0  0  0  0  0  0
   35.6300   31.3760   35.7820 C   0  0  0  0  0  0  0  0  0  0  0  0
   36.7030   31.5500   35.6160 H   0  0  0  0  0  0  0  0  0  0  0  0
   35.0610   32.0980   36.8250 C   0  0  0  0  0  3  0  0  0  0  0  0
   33.7160   31.9320   37.0930 C   0  0  0  0  0  0  0  0  0  0  0  0
   33.3380   32.5250   37.9190 H   0  0  0  0  0  0  0  0  0  0  0  0
   32.9830   31.0590   36.3220 C   0  0  0  0  0  0  0  0  0  0  0  0
   31.9400   31.0010   36.6130 H   0  0  0  0  0  0  0  0  0  0  0  0
   33.5230   30.3430   35.2950 C   0  0  0  0  0  3  0  0  0  0  0  0
   37.2420   26.5800   33.7490 C   0  0  0  0  0  3  0  0  0  0  0  0
   37.7500   25.7480   32.9050 C   0  0  0  0  0  3  0  0  0  0  0  0
   38.3120   24.4170   33.1660 C   0  0  0  0  0  0  0  0  0  0  0  0
   38.5290   24.3040   34.2460 H   0  0  0  0  0  0  0  0  0  0  0  0
   39.2680   24.2730   32.6240 H   0  0  0  0  0  0  0  0  0  0  0  0
   37.3580   23.3120   32.8090 C   0  0  0  0  0  0  0  0  0  0  0  0
   37.2290   22.1150   33.4690 C   0  0  0  0  0  0  0  0  0  0  0  0
   36.3120   21.1860   33.0370 C   0  0  0  0  0  0  0  0  0  0  0  0
   35.4950   21.4140   31.9380 C   0  0  0  0  0  0  0  0  0  0  0  0
   35.6120   22.6100   31.2650 C   0  0  0  0  0  0  0  0  0  0  0  0
   36.5320   23.5350   31.7020 C   0  0  0  0  0  0  0  0  0  0  0  0
   37.8940   22.0020   34.3150 H   0  0  0  0  0  0  0  0  0  0  0  0
   36.2950   20.2730   33.6330 H   0  0  0  0  0  0  0  0  0  0  0  0
   34.7900   20.6390   31.6450 H   0  0  0  0  0  0  0  0  0  0  0  0
   34.9730   22.7820   30.4080 H   0  0  0  0  0  0  0  0  0  0  0  0
   36.5860   24.4630   31.1390 H   0  0  0  0  0  0  0  0  0  0  0  0
  1  6  2  0  0  0  0
  1  2  1  0  0  0  0
  2  3  2  0  0  0  0
  3  4  1  0  0  0  0
  3  9  1  0  0  0  0
  5 18  1  0  0  0  0
  5  4  2  0  0  0  0
  6  5  1  0  0  0  0
  7  1  1  0  0  0  0
  8  2  1  0  0  0  0
  9 17  2  0  0  0  0
  9 10  1  0  0  0  0
 10 12  2  0  0  0  0
 11 10  1  0  0  0  0
 12 13  1  0  0  0  0
 13 14  1  0  0  0  0
 15 16  1  0  0  0  0
 15 13  2  0  0  0  0
 17 15  1  0  0  0  0
 19 20  1  0  0  0  0
 19 18  2  0  0  0  0
 20 21  1  0  0  0  0
 22 20  1  0  0  0  0
 23 20  1  0  0  0  0
 23 24  1  0  0  0  0
 24 29  1  0  0  0  0
 25 24  2  0  0  0  0
 25 30  1  0  0  0  0
 26 25  1  0  0  0  0
 27 28  1  0  0  0  0
 27 26  2  0  0  0  0
 28 23  2  0  0  0  0
 31 26  1  0  0  0  0
 32 27  1  0  0  0  0
 33 28  1  0  0  0  0
M  END
>  <minimizedAffinity>
-5.47756147

$$$$
