
 OpenBabel03272509093D

 40 43  0  0  0  0  0  0  0  0999 V2000
   33.1250   28.0330   47.8690 C   0  0  0  0  0  0  0  0  0  0  0  0
   32.3990   28.7260   47.4550 H   0  0  0  0  0  0  0  0  0  0  0  0
   32.5960   27.5600   48.7520 H   0  0  0  0  0  0  0  0  0  0  0  0
   33.5350   26.9100   47.0050 C   0  0  0  0  0  0  0  0  0  0  0  0
   33.6060   25.5980   47.4700 C   0  0  0  0  0  0  0  0  0  0  0  0
   34.0150   24.5600   46.6530 C   0  0  0  0  0  0  0  0  0  0  0  0
   34.3660   24.7960   45.3410 C   0  0  0  0  0  0  0  0  0  0  0  0
   34.2950   26.0830   44.8870 C   0  0  0  0  0  0  0  0  0  0  0  0
   33.8880   27.1350   45.6940 C   0  0  0  0  0  0  0  0  0  0  0  0
   33.3160   25.4910   48.5080 H   0  0  0  0  0  0  0  0  0  0  0  0
   34.0100   23.6190   47.1740 H   0  0  0  0  0  0  0  0  0  0  0  0
   34.6730   23.9300   44.7710 H   0  0  0  0  0  0  0  0  0  0  0  0
   34.5870   26.1880   43.8430 H   0  0  0  0  0  0  0  0  0  0  0  0
   33.8630   28.4040   44.9830 C   0  0  0  0  0  0  0  0  0  0  0  0
   32.6360   28.6920   44.3750 C   0  0  0  0  0  0  0  0  0  0  0  0
   31.7840   28.0050   44.4260 H   0  0  0  0  0  0  0  0  0  0  0  0
   32.3790   29.8460   43.6630 C   0  0  0  0  0  3  0  0  0  0  0  0
   33.3580   30.7900   43.5210 C   0  0  0  0  0  0  0  0  0  0  0  0
   33.2770   31.7250   42.9930 H   0  0  0  0  0  0  0  0  0  0  0  0
   34.5700   30.5210   44.1150 C   0  0  0  0  0  0  0  0  0  0  0  0
   35.3840   31.2330   44.0360 H   0  0  0  0  0  0  0  0  0  0  0  0
   34.8300   29.3710   44.8260 C   0  0  0  0  0  3  0  0  0  0  0  0
   34.9950   28.3590   49.4780 C   0  0  0  0  0  3  0  0  0  0  0  0
   34.2660   28.7660   48.4700 C   0  0  0  0  0  3  0  0  0  0  0  0
   37.3880   30.1570   51.5700 C   0  0  0  0  0  0  0  0  0  0  0  0
   38.0950   30.9280   50.6200 C   0  0  0  0  0  0  0  0  0  0  0  0
   37.7200   30.8020   49.2700 C   0  0  0  0  0  0  0  0  0  0  0  0
   36.6940   29.9440   48.9350 N   0  0  0  0  0  0  0  0  0  0  0  0
   36.0680   29.2420   49.9110 C   0  0  0  0  0  0  0  0  0  0  0  0
   36.4120   29.3480   51.2080 N   0  0  0  0  0  0  0  0  0  0  0  0
   37.6880   30.2670   52.5960 H   0  0  0  0  0  0  0  0  0  0  0  0
   38.8980   31.6050   50.8400 H   0  0  0  0  0  0  0  0  0  0  0  0
   38.3730   31.5500   48.1860 C   0  0  0  0  0  0  0  0  0  0  0  0
   38.5670   31.0220   46.9370 C   0  0  0  0  0  0  0  0  0  0  0  0
   39.2060   32.0070   46.1710 C   0  0  0  0  0  0  0  0  0  0  0  0
   39.3670   33.0790   46.9920 N   0  0  0  0  0  0  0  0  0  0  0  0
   38.8700   32.8070   48.1910 N   0  0  0  0  0  0  0  0  0  0  0  0
   38.3050   30.0350   46.5380 H   0  0  0  0  0  0  0  0  0  0  0  0
   39.5200   31.9550   45.1390 H   0  0  0  0  0  0  0  0  0  0  0  0
   39.8050   34.0080   46.7770 H   0  0  0  0  0  0  0  0  0  0  0  0
  1 24  1  0  0  0  0
  1  3  1  0  0  0  0
  2  1  1  0  0  0  0
  4  5  1  0  0  0  0
  4  1  1  0  0  0  0
  5 10  1  0  0  0  0
  6 11  1  0  0  0  0
  6  5  2  0  0  0  0
  7  6  1  0  0  0  0
  8  7  2  0  0  0  0
  8  9  1  0  0  0  0
  9  4  2  0  0  0  0
 12  7  1  0  0  0  0
 13  8  1  0  0  0  0
 14  9  1  0  0  0  0
 15 16  1  0  0  0  0
 15 14  2  0  0  0  0
 17 15  1  0  0  0  0
 18 17  2  0  0  0  0
 18 20  1  0  0  0  0
 19 18  1  0  0  0  0
 20 22  2  0  0  0  0
 21 20  1  0  0  0  0
 22 14  1  0  0  0  0
 23 29  1  0  0  0  0
 24 23  2  0  0  0  0
 25 31  1  0  0  0  0
 26 32  1  0  0  0  0
 26 25  2  0  0  0  0
 27 26  1  0  0  0  0
 28 27  2  0  0  0  0
 28 29  1  0  0  0  0
 29 30  2  0  0  0  0
 30 25  1  0  0  0  0
 33 37  2  0  0  0  0
 33 27  1  0  0  0  0
 34 33  1  0  0  0  0
 35 34  2  0  0  0  0
 35 36  1  0  0  0  0
 36 37  1  0  0  0  0
 38 34  1  0  0  0  0
 39 35  1  0  0  0  0
 40 36  1  0  0  0  0
M  END
>  <minimizedAffinity>
-6.32080317

>  <minimizedRMSD>
0.437656164

$$$$
