
 OpenBabel03272505333D

 40 43  0  0  0  0  0  0  0  0999 V2000
   37.9770   24.2810   34.3810 N   0  0  0  0  0  0  0  0  0  0  0  0
   37.7200   25.6020   34.1760 C   0  0  0  0  0  0  0  0  0  0  0  0
   37.0620   26.0500   33.0370 C   0  0  0  0  0  0  0  0  0  0  0  0
   36.6720   25.0900   32.1080 C   0  0  0  0  0  0  0  0  0  0  0  0
   36.0720   25.4510   31.0620 O   0  0  0  0  0  0  0  0  0  0  0  0
   36.9310   23.7590   32.3160 N   0  0  0  0  0  0  0  0  0  0  0  0
   37.5660   23.4580   33.4420 C   0  0  0  0  0  0  0  0  0  0  0  0
   37.7880   22.2370   33.6030 O   0  0  0  0  0  0  0  0  0  0  0  0
   38.0310   26.3400   34.9100 H   0  0  0  0  0  0  0  0  0  0  0  0
   38.6640   23.3710   37.9250 C   0  0  0  0  0  0  0  0  0  0  0  0
   38.0120   23.8070   36.7630 C   0  0  0  0  0  0  0  0  0  0  0  0
   38.6410   23.8450   35.5330 C   0  0  0  0  0  0  0  0  0  0  0  0
   39.9170   23.4420   35.5020 N   0  0  0  0  0  0  0  0  0  0  0  0
   40.5890   23.0120   36.6020 C   0  0  0  0  0  0  0  0  0  0  0  0
   39.9440   22.9830   37.8100 N   0  0  0  0  0  0  0  0  0  0  0  0
   38.1230   23.3620   38.8640 H   0  0  0  0  0  0  0  0  0  0  0  0
   36.9760   24.1290   36.8110 H   0  0  0  0  0  0  0  0  0  0  0  0
   41.6190   22.6900   36.5700 H   0  0  0  0  0  0  0  0  0  0  0  0
   36.7640   27.4510   32.7720 C   0  0  0  0  0  0  0  0  0  0  0  0
   37.1150   28.0840   31.6140 C   0  0  0  0  0  0  0  0  0  0  0  0
   36.8440   29.4130   31.3420 C   0  0  0  0  0  0  0  0  0  0  0  0
   36.1680   30.1560   32.3100 C   0  0  0  0  0  0  0  0  0  0  0  0
   35.8330   29.4760   33.4650 C   0  0  0  0  0  0  0  0  0  0  0  0
   36.1190   28.1940   33.6760 N   0  0  0  0  0  0  0  0  0  0  0  0
   37.6410   27.5460   30.8360 H   0  0  0  0  0  0  0  0  0  0  0  0
   37.1300   29.8910   30.4190 H   0  0  0  0  0  0  0  0  0  0  0  0
   35.9470   31.1800   32.1260 H   0  0  0  0  0  0  0  0  0  0  0  0
   35.1250   30.1640   34.5380 C   0  0  0  0  0  0  0  0  0  0  0  0
   35.8040   31.0340   35.3770 C   0  0  0  0  0  0  0  0  0  0  0  0
   36.8810   31.2060   35.2330 H   0  0  0  0  0  0  0  0  0  0  0  0
   35.2340   31.7440   36.4300 C   0  0  0  0  0  3  0  0  0  0  0  0
   33.9050   31.5740   36.6610 C   0  0  0  0  0  0  0  0  0  0  0  0
   33.3830   32.0880   37.4580 H   0  0  0  0  0  0  0  0  0  0  0  0
   33.1890   30.7290   35.8630 C   0  0  0  0  0  0  0  0  0  0  0  0
   32.1200   30.5660   36.0160 H   0  0  0  0  0  0  0  0  0  0  0  0
   33.7830   30.0440   34.8330 C   0  0  0  0  0  3  0  0  0  0  0  0
   36.5200   22.7830   31.3450 C   0  0  0  0  0  0  0  0  0  0  0  0
   35.3710   23.1460   30.7490 F   0  0  0  0  0  0  0  0  0  0  0  0
   36.2830   21.5250   31.9010 F   0  0  0  0  0  0  0  0  0  0  0  0
   37.5140   22.6720   30.3770 F   0  0  0  0  0  0  0  0  0  0  0  0
  1 12  1  0  0  0  0
  2  1  1  0  0  0  0
  2  9  1  0  0  0  0
  3  2  2  0  0  0  0
  4  6  1  0  0  0  0
  4  3  1  0  0  0  0
  5  4  2  0  0  0  0
  6  7  1  0  0  0  0
  7  8  2  0  0  0  0
  7  1  1  0  0  0  0
 10 16  1  0  0  0  0
 11 17  1  0  0  0  0
 11 10  2  0  0  0  0
 12 11  1  0  0  0  0
 13 12  2  0  0  0  0
 13 14  1  0  0  0  0
 14 15  2  0  0  0  0
 15 10  1  0  0  0  0
 18 14  1  0  0  0  0
 19  3  1  0  0  0  0
 19 24  1  0  0  0  0
 20 19  2  0  0  0  0
 21 20  1  0  0  0  0
 21 22  2  0  0  0  0
 22 23  1  0  0  0  0
 23 24  2  0  0  0  0
 23 28  1  0  0  0  0
 25 20  1  0  0  0  0
 26 21  1  0  0  0  0
 27 22  1  0  0  0  0
 28 36  2  0  0  0  0
 28 29  1  0  0  0  0
 29 31  2  0  0  0  0
 30 29  1  0  0  0  0
 31 32  1  0  0  0  0
 32 33  1  0  0  0  0
 34 35  1  0  0  0  0
 34 32  2  0  0  0  0
 36 34  1  0  0  0  0
 37 39  1  0  0  0  0
 37  6  1  0  0  0  0
 38 37  1  0  0  0  0
 40 37  1  0  0  0  0
M  END
>  <minimizedAffinity>
-7.23209286

$$$$

 OpenBabel03272505333D

 40 43  0  0  0  0  0  0  0  0999 V2000
   38.1570   24.3600   34.0190 N   0  0  0  0  0  0  0  0  0  0  0  0
   37.9080   25.6870   33.8480 C   0  0  0  0  0  0  0  0  0  0  0  0
   37.0280   26.1460   32.8750 C   0  0  0  0  0  0  0  0  0  0  0  0
   36.4050   25.1900   32.0780 C   0  0  0  0  0  0  0  0  0  0  0  0
   35.6000   25.5600   31.1840 O   0  0  0  0  0  0  0  0  0  0  0  0
   36.6560   23.8520   32.2520 N   0  0  0  0  0  0  0  0  0  0  0  0
   37.5170   23.5420   33.2140 C   0  0  0  0  0  0  0  0  0  0  0  0
   37.7250   22.3140   33.3470 O   0  0  0  0  0  0  0  0  0  0  0  0
   38.4020   26.4220   34.4770 H   0  0  0  0  0  0  0  0  0  0  0  0
   41.3140   23.4410   35.7650 C   0  0  0  0  0  0  0  0  0  0  0  0
   40.4110   23.8860   34.7890 C   0  0  0  0  0  0  0  0  0  0  0  0
   39.0460   23.9130   35.0020 C   0  0  0  0  0  0  0  0  0  0  0  0
   38.6200   23.4890   36.1980 N   0  0  0  0  0  0  0  0  0  0  0  0
   39.4570   23.0500   37.1750 C   0  0  0  0  0  0  0  0  0  0  0  0
   40.8070   23.0320   36.9390 N   0  0  0  0  0  0  0  0  0  0  0  0
   42.3750   23.4410   35.5450 H   0  0  0  0  0  0  0  0  0  0  0  0
   40.7790   24.2260   33.8250 H   0  0  0  0  0  0  0  0  0  0  0  0
   39.1070   22.7090   38.1360 H   0  0  0  0  0  0  0  0  0  0  0  0
   36.7290   27.5540   32.6520 C   0  0  0  0  0  0  0  0  0  0  0  0
   37.0650   28.2180   31.5080 C   0  0  0  0  0  0  0  0  0  0  0  0
   36.7910   29.5540   31.2760 C   0  0  0  0  0  0  0  0  0  0  0  0
   36.1300   30.2710   32.2730 C   0  0  0  0  0  0  0  0  0  0  0  0
   35.8090   29.5590   33.4130 C   0  0  0  0  0  0  0  0  0  0  0  0
   36.0960   28.2720   33.5840 N   0  0  0  0  0  0  0  0  0  0  0  0
   37.5800   27.7010   30.7080 H   0  0  0  0  0  0  0  0  0  0  0  0
   37.0670   30.0570   30.3630 H   0  0  0  0  0  0  0  0  0  0  0  0
   35.9080   31.3000   32.1200 H   0  0  0  0  0  0  0  0  0  0  0  0
   35.1160   30.2180   34.5140 C   0  0  0  0  0  0  0  0  0  0  0  0
   35.8060   31.0670   35.3660 C   0  0  0  0  0  0  0  0  0  0  0  0
   36.8820   31.2430   35.2110 H   0  0  0  0  0  0  0  0  0  0  0  0
   35.2510   31.7470   36.4450 C   0  0  0  0  0  3  0  0  0  0  0  0
   33.9250   31.5710   36.6900 C   0  0  0  0  0  0  0  0  0  0  0  0
   33.4150   32.0630   37.5080 H   0  0  0  0  0  0  0  0  0  0  0  0
   33.1990   30.7470   35.8810 C   0  0  0  0  0  0  0  0  0  0  0  0
   32.1320   30.5790   36.0450 H   0  0  0  0  0  0  0  0  0  0  0  0
   33.7780   30.0890   34.8250 C   0  0  0  0  0  3  0  0  0  0  0  0
   36.0040   22.8800   31.4190 C   0  0  0  0  0  0  0  0  0  0  0  0
   35.1680   23.4710   30.5480 F   0  0  0  0  0  0  0  0  0  0  0  0
   35.2270   21.9740   32.1410 F   0  0  0  0  0  0  0  0  0  0  0  0
   36.9750   22.1800   30.7080 F   0  0  0  0  0  0  0  0  0  0  0  0
  1 12  1  0  0  0  0
  2  1  1  0  0  0  0
  2  9  1  0  0  0  0
  3  2  2  0  0  0  0
  4  6  1  0  0  0  0
  4  3  1  0  0  0  0
  5  4  2  0  0  0  0
  6  7  1  0  0  0  0
  7  8  2  0  0  0  0
  7  1  1  0  0  0  0
 10 15  1  0  0  0  0
 11 12  1  0  0  0  0
 11 10  2  0  0  0  0
 12 13  2  0  0  0  0
 13 14  1  0  0  0  0
 14 18  1  0  0  0  0
 15 14  2  0  0  0  0
 16 10  1  0  0  0  0
 17 11  1  0  0  0  0
 19  3  1  0  0  0  0
 19 24  1  0  0  0  0
 20 19  2  0  0  0  0
 21 20  1  0  0  0  0
 21 22  2  0  0  0  0
 22 23  1  0  0  0  0
 23 24  2  0  0  0  0
 23 28  1  0  0  0  0
 25 20  1  0  0  0  0
 26 21  1  0  0  0  0
 27 22  1  0  0  0  0
 28 36  2  0  0  0  0
 28 29  1  0  0  0  0
 29 31  2  0  0  0  0
 30 29  1  0  0  0  0
 31 32  1  0  0  0  0
 32 33  1  0  0  0  0
 34 35  1  0  0  0  0
 34 32  2  0  0  0  0
 36 34  1  0  0  0  0
 37 39  1  0  0  0  0
 37  6  1  0  0  0  0
 38 37  1  0  0  0  0
 40 37  1  0  0  0  0
M  END
>  <minimizedAffinity>
-7.06993961

$$$$

 OpenBabel03272505333D

 40 43  0  0  0  0  0  0  0  0999 V2000
   37.3330   23.6680   32.8910 N   0  0  0  0  0  0  0  0  0  0  0  0
   36.9700   24.9220   32.5050 C   0  0  0  0  0  0  0  0  0  0  0  0
   37.1590   26.0240   33.3310 C   0  0  0  0  0  0  0  0  0  0  0  0
   37.7400   25.7950   34.5750 C   0  0  0  0  0  0  0  0  0  0  0  0
   37.9300   26.7640   35.3550 O   0  0  0  0  0  0  0  0  0  0  0  0
   38.1060   24.5310   34.9620 N   0  0  0  0  0  0  0  0  0  0  0  0
   37.8730   23.5630   34.0850 C   0  0  0  0  0  0  0  0  0  0  0  0
   38.2180   22.4210   34.4670 O   0  0  0  0  0  0  0  0  0  0  0  0
   36.5180   25.0850   31.5310 H   0  0  0  0  0  0  0  0  0  0  0  0
   35.7050   20.8200   31.1320 C   0  0  0  0  0  0  0  0  0  0  0  0
   35.9170   21.9220   31.9710 C   0  0  0  0  0  0  0  0  0  0  0  0
   37.1370   22.5680   32.0490 C   0  0  0  0  0  0  0  0  0  0  0  0
   38.1190   22.0860   31.2770 N   0  0  0  0  0  0  0  0  0  0  0  0
   37.9590   21.0200   30.4490 C   0  0  0  0  0  0  0  0  0  0  0  0
   36.7400   20.3970   30.3890 N   0  0  0  0  0  0  0  0  0  0  0  0
   34.7280   20.3510   31.1090 H   0  0  0  0  0  0  0  0  0  0  0  0
   35.1060   22.2980   32.5880 H   0  0  0  0  0  0  0  0  0  0  0  0
   38.7550   20.6360   29.8300 H   0  0  0  0  0  0  0  0  0  0  0  0
   36.7870   27.3840   32.9650 C   0  0  0  0  0  0  0  0  0  0  0  0
   36.9960   27.9080   31.7220 C   0  0  0  0  0  0  0  0  0  0  0  0
   36.6520   29.1970   31.3540 C   0  0  0  0  0  0  0  0  0  0  0  0
   36.0530   30.0140   32.3120 C   0  0  0  0  0  0  0  0  0  0  0  0
   35.8610   29.4430   33.5560 C   0  0  0  0  0  0  0  0  0  0  0  0
   36.2120   28.1960   33.8560 N   0  0  0  0  0  0  0  0  0  0  0  0
   37.4580   27.3090   30.9480 H   0  0  0  0  0  0  0  0  0  0  0  0
   36.8260   29.5880   30.3650 H   0  0  0  0  0  0  0  0  0  0  0  0
   35.7790   31.0090   32.0560 H   0  0  0  0  0  0  0  0  0  0  0  0
   35.2430   30.2150   34.6260 C   0  0  0  0  0  0  0  0  0  0  0  0
   33.8820   30.1090   34.8680 C   0  0  0  0  0  0  0  0  0  0  0  0
   33.2660   29.4400   34.2480 H   0  0  0  0  0  0  0  0  0  0  0  0
   33.1860   30.7950   35.8590 C   0  0  0  0  0  3  0  0  0  0  0  0
   33.8900   31.6390   36.6590 C   0  0  0  0  0  0  0  0  0  0  0  0
   33.4280   32.2100   37.4530 H   0  0  0  0  0  0  0  0  0  0  0  0
   35.2340   31.7800   36.4640 C   0  0  0  0  0  0  0  0  0  0  0  0
   35.8350   32.4470   37.0850 H   0  0  0  0  0  0  0  0  0  0  0  0
   35.8900   31.0880   35.4770 C   0  0  0  0  0  3  0  0  0  0  0  0
   38.7040   24.3140   36.2510 C   0  0  0  0  0  0  0  0  0  0  0  0
   38.3230   23.1330   36.7690 F   0  0  0  0  0  0  0  0  0  0  0  0
   38.3420   25.2790   37.1920 F   0  0  0  0  0  0  0  0  0  0  0  0
   40.0880   24.3180   36.1060 F   0  0  0  0  0  0  0  0  0  0  0  0
  1  7  1  0  0  0  0
  2  1  1  0  0  0  0
  2  3  2  0  0  0  0
  3  4  1  0  0  0  0
  4  6  1  0  0  0  0
  4  5  2  0  0  0  0
  6 37  1  0  0  0  0
  7  8  2  0  0  0  0
  7  6  1  0  0  0  0
  9  2  1  0  0  0  0
 10 11  1  0  0  0  0
 11 12  2  0  0  0  0
 11 17  1  0  0  0  0
 12  1  1  0  0  0  0
 13 12  1  0  0  0  0
 14 13  2  0  0  0  0
 15 14  1  0  0  0  0
 15 10  2  0  0  0  0
 16 10  1  0  0  0  0
 18 14  1  0  0  0  0
 19  3  1  0  0  0  0
 19 24  1  0  0  0  0
 20 19  2  0  0  0  0
 21 20  1  0  0  0  0
 21 22  2  0  0  0  0
 22 23  1  0  0  0  0
 23 24  2  0  0  0  0
 23 28  1  0  0  0  0
 25 20  1  0  0  0  0
 26 21  1  0  0  0  0
 27 22  1  0  0  0  0
 28 29  2  0  0  0  0
 28 36  1  0  0  0  0
 29 31  1  0  0  0  0
 30 29  1  0  0  0  0
 31 32  2  0  0  0  0
 32 33  1  0  0  0  0
 34 32  1  0  0  0  0
 34 35  1  0  0  0  0
 36 34  2  0  0  0  0
 37 38  1  0  0  0  0
 37 39  1  0  0  0  0
 40 37  1  0  0  0  0
M  END
>  <minimizedAffinity>
-7.04494905

$$$$

 OpenBabel03272505333D

 40 43  0  0  0  0  0  0  0  0999 V2000
   38.1950   24.3140   34.0210 N   0  0  0  0  0  0  0  0  0  0  0  0
   37.9570   25.6410   33.8330 C   0  0  0  0  0  0  0  0  0  0  0  0
   37.0540   26.0930   32.8780 C   0  0  0  0  0  0  0  0  0  0  0  0
   36.3980   25.1310   32.1160 C   0  0  0  0  0  0  0  0  0  0  0  0
   35.5720   25.4940   31.2390 O   0  0  0  0  0  0  0  0  0  0  0  0
   36.6390   23.7940   32.3060 N   0  0  0  0  0  0  0  0  0  0  0  0
   37.5230   23.4900   33.2490 C   0  0  0  0  0  0  0  0  0  0  0  0
   37.7210   22.2620   33.3980 O   0  0  0  0  0  0  0  0  0  0  0  0
   38.4760   26.3810   34.4360 H   0  0  0  0  0  0  0  0  0  0  0  0
   39.6060   23.0990   37.2440 C   0  0  0  0  0  0  0  0  0  0  0  0
   38.7050   23.5420   36.2670 C   0  0  0  0  0  0  0  0  0  0  0  0
   39.1070   23.8740   34.9870 C   0  0  0  0  0  0  0  0  0  0  0  0
   40.4130   23.7520   34.7200 N   0  0  0  0  0  0  0  0  0  0  0  0
   41.3230   23.3270   35.6360 C   0  0  0  0  0  0  0  0  0  0  0  0
   40.9000   23.0030   36.8980 N   0  0  0  0  0  0  0  0  0  0  0  0
   39.2370   22.8520   38.2330 H   0  0  0  0  0  0  0  0  0  0  0  0
   37.6490   23.6330   36.5040 H   0  0  0  0  0  0  0  0  0  0  0  0
   42.3750   23.2310   35.4150 H   0  0  0  0  0  0  0  0  0  0  0  0
   36.7640   27.5010   32.6380 C   0  0  0  0  0  0  0  0  0  0  0  0
   37.0690   28.1390   31.4710 C   0  0  0  0  0  0  0  0  0  0  0  0
   36.8040   29.4740   31.2230 C   0  0  0  0  0  0  0  0  0  0  0  0
   36.1860   30.2170   32.2280 C   0  0  0  0  0  0  0  0  0  0  0  0
   35.8960   29.5310   33.3920 C   0  0  0  0  0  0  0  0  0  0  0  0
   36.1740   28.2440   33.5780 N   0  0  0  0  0  0  0  0  0  0  0  0
   37.5490   27.6010   30.6640 H   0  0  0  0  0  0  0  0  0  0  0  0
   37.0540   29.9560   30.2920 H   0  0  0  0  0  0  0  0  0  0  0  0
   35.9710   31.2460   32.0640 H   0  0  0  0  0  0  0  0  0  0  0  0
   35.2500   30.2190   34.5030 C   0  0  0  0  0  0  0  0  0  0  0  0
   33.8950   30.0440   34.7400 C   0  0  0  0  0  0  0  0  0  0  0  0
   33.3050   29.3850   34.0860 H   0  0  0  0  0  0  0  0  0  0  0  0
   33.1750   30.6470   35.7670 C   0  0  0  0  0  3  0  0  0  0  0  0
   33.8460   31.4750   36.6100 C   0  0  0  0  0  0  0  0  0  0  0  0
   33.3630   31.9830   37.4350 H   0  0  0  0  0  0  0  0  0  0  0  0
   35.1820   31.6810   36.4230 C   0  0  0  0  0  0  0  0  0  0  0  0
   35.7570   32.3390   37.0780 H   0  0  0  0  0  0  0  0  0  0  0  0
   35.8630   31.0710   35.3990 C   0  0  0  0  0  3  0  0  0  0  0  0
   35.9530   22.8150   31.5090 C   0  0  0  0  0  0  0  0  0  0  0  0
   36.8230   22.0100   30.8750 F   0  0  0  0  0  0  0  0  0  0  0  0
   35.1570   23.3800   30.5120 F   0  0  0  0  0  0  0  0  0  0  0  0
   35.1520   22.0420   32.3460 F   0  0  0  0  0  0  0  0  0  0  0  0
  1 12  1  0  0  0  0
  2  1  1  0  0  0  0
  2  9  1  0  0  0  0
  3  2  2  0  0  0  0
  4  6  1  0  0  0  0
  4  3  1  0  0  0  0
  5  4  2  0  0  0  0
  6  7  1  0  0  0  0
  7  8  2  0  0  0  0
  7  1  1  0  0  0  0
 10 16  1  0  0  0  0
 11 17  1  0  0  0  0
 11 10  2  0  0  0  0
 12 11  1  0  0  0  0
 13 12  2  0  0  0  0
 13 14  1  0  0  0  0
 14 15  2  0  0  0  0
 15 10  1  0  0  0  0
 18 14  1  0  0  0  0
 19  3  1  0  0  0  0
 19 24  1  0  0  0  0
 20 19  2  0  0  0  0
 21 20  1  0  0  0  0
 21 22  2  0  0  0  0
 22 23  1  0  0  0  0
 23 24  2  0  0  0  0
 23 28  1  0  0  0  0
 25 20  1  0  0  0  0
 26 21  1  0  0  0  0
 27 22  1  0  0  0  0
 28 29  2  0  0  0  0
 28 36  1  0  0  0  0
 29 31  1  0  0  0  0
 30 29  1  0  0  0  0
 31 32  2  0  0  0  0
 32 33  1  0  0  0  0
 34 32  1  0  0  0  0
 34 35  1  0  0  0  0
 36 34  2  0  0  0  0
 37  6  1  0  0  0  0
 37 40  1  0  0  0  0
 38 37  1  0  0  0  0
 39 37  1  0  0  0  0
M  END
>  <minimizedAffinity>
-6.96201181

$$$$

 OpenBabel03272505333D

 40 43  0  0  0  0  0  0  0  0999 V2000
   35.9610   29.1420   33.4510 N   0  0  0  0  0  0  0  0  0  0  0  0
   36.3370   27.8670   33.7470 C   0  0  0  0  0  0  0  0  0  0  0  0
   37.0120   27.0740   32.8270 C   0  0  0  0  0  0  0  0  0  0  0  0
   37.2910   27.6350   31.5850 C   0  0  0  0  0  0  0  0  0  0  0  0
   37.9010   26.9520   30.7210 O   0  0  0  0  0  0  0  0  0  0  0  0
   36.9120   28.9190   31.2880 N   0  0  0  0  0  0  0  0  0  0  0  0
   36.2730   29.5750   32.2500 C   0  0  0  0  0  0  0  0  0  0  0  0
   35.9400   30.7440   31.9490 O   0  0  0  0  0  0  0  0  0  0  0  0
   36.1120   27.4430   34.7210 H   0  0  0  0  0  0  0  0  0  0  0  0
   33.2130   30.6610   35.4510 C   0  0  0  0  0  0  0  0  0  0  0  0
   33.9070   29.8790   34.5180 C   0  0  0  0  0  0  0  0  0  0  0  0
   35.2820   29.9300   34.3870 C   0  0  0  0  0  0  0  0  0  0  0  0
   35.9290   30.7720   35.2020 N   0  0  0  0  0  0  0  0  0  0  0  0
   35.2990   31.5490   36.1220 C   0  0  0  0  0  0  0  0  0  0  0  0
   33.9340   31.4810   36.2330 N   0  0  0  0  0  0  0  0  0  0  0  0
   32.1340   30.5820   35.5110 H   0  0  0  0  0  0  0  0  0  0  0  0
   33.3620   29.2020   33.8660 H   0  0  0  0  0  0  0  0  0  0  0  0
   35.8260   32.2260   36.7750 H   0  0  0  0  0  0  0  0  0  0  0  0
   37.4350   25.7050   33.0940 C   0  0  0  0  0  0  0  0  0  0  0  0
   37.5020   24.7410   32.1300 C   0  0  0  0  0  0  0  0  0  0  0  0
   37.9000   23.4370   32.3620 C   0  0  0  0  0  0  0  0  0  0  0  0
   38.2570   23.0820   33.6630 C   0  0  0  0  0  0  0  0  0  0  0  0
   38.1740   24.0880   34.6060 C   0  0  0  0  0  0  0  0  0  0  0  0
   37.7840   25.3290   34.3280 N   0  0  0  0  0  0  0  0  0  0  0  0
   37.2340   24.9730   31.1070 H   0  0  0  0  0  0  0  0  0  0  0  0
   37.9450   22.6920   31.5840 H   0  0  0  0  0  0  0  0  0  0  0  0
   38.5660   22.0850   33.8690 H   0  0  0  0  0  0  0  0  0  0  0  0
   38.5260   23.8180   35.9950 C   0  0  0  0  0  0  0  0  0  0  0  0
   37.7510   24.3310   37.0240 C   0  0  0  0  0  0  0  0  0  0  0  0
   36.8690   24.9460   36.7910 H   0  0  0  0  0  0  0  0  0  0  0  0
   37.9900   24.1400   38.3810 C   0  0  0  0  0  3  0  0  0  0  0  0
   39.0670   23.3890   38.7350 C   0  0  0  0  0  0  0  0  0  0  0  0
   39.3240   23.1900   39.7670 H   0  0  0  0  0  0  0  0  0  0  0  0
   39.8630   22.8590   37.7610 C   0  0  0  0  0  0  0  0  0  0  0  0
   40.7370   22.2520   38.0040 H   0  0  0  0  0  0  0  0  0  0  0  0
   39.5990   23.0690   36.4300 C   0  0  0  0  0  3  0  0  0  0  0  0
   37.2080   29.4820   30.0000 C   0  0  0  0  0  0  0  0  0  0  0  0
   38.5140   29.7860   29.8930 F   0  0  0  0  0  0  0  0  0  0  0  0
   36.5170   30.6690   29.7480 F   0  0  0  0  0  0  0  0  0  0  0  0
   36.8810   28.5490   29.0200 F   0  0  0  0  0  0  0  0  0  0  0  0
  1  2  1  0  0  0  0
  1 12  1  0  0  0  0
  2  9  1  0  0  0  0
  3 19  1  0  0  0  0
  3  2  2  0  0  0  0
  4  3  1  0  0  0  0
  5  4  2  0  0  0  0
  6  4  1  0  0  0  0
  6  7  1  0  0  0  0
  7  1  1  0  0  0  0
  8  7  2  0  0  0  0
 10 16  1  0  0  0  0
 10 15  1  0  0  0  0
 11 10  2  0  0  0  0
 12 11  1  0  0  0  0
 12 13  2  0  0  0  0
 13 14  1  0  0  0  0
 14 15  2  0  0  0  0
 14 18  1  0  0  0  0
 17 11  1  0  0  0  0
 19 24  1  0  0  0  0
 20 21  1  0  0  0  0
 20 19  2  0  0  0  0
 21 22  2  0  0  0  0
 22 27  1  0  0  0  0
 22 23  1  0  0  0  0
 23 28  1  0  0  0  0
 24 23  2  0  0  0  0
 25 20  1  0  0  0  0
 26 21  1  0  0  0  0
 28 36  2  0  0  0  0
 28 29  1  0  0  0  0
 29 31  2  0  0  0  0
 30 29  1  0  0  0  0
 31 32  1  0  0  0  0
 32 33  1  0  0  0  0
 34 35  1  0  0  0  0
 34 32  2  0  0  0  0
 36 34  1  0  0  0  0
 37  6  1  0  0  0  0
 38 37  1  0  0  0  0
 39 37  1  0  0  0  0
 40 37  1  0  0  0  0
M  END
>  <minimizedAffinity>
-6.88202524

$$$$

 OpenBabel03272505333D

 40 43  0  0  0  0  0  0  0  0999 V2000
   37.0880   25.4790   32.5150 N   0  0  0  0  0  0  0  0  0  0  0  0
   37.6990   25.2320   33.7070 C   0  0  0  0  0  0  0  0  0  0  0  0
   37.7750   23.9500   34.2370 C   0  0  0  0  0  0  0  0  0  0  0  0
   37.2010   22.9200   33.4980 C   0  0  0  0  0  0  0  0  0  0  0  0
   37.2470   21.7430   33.9400 O   0  0  0  0  0  0  0  0  0  0  0  0
   36.5860   23.1690   32.2980 N   0  0  0  0  0  0  0  0  0  0  0  0
   36.5780   24.4350   31.8990 C   0  0  0  0  0  0  0  0  0  0  0  0
   36.0100   24.6300   30.8000 O   0  0  0  0  0  0  0  0  0  0  0  0
   38.1420   26.0460   34.2720 H   0  0  0  0  0  0  0  0  0  0  0  0
   37.9020   28.5440   30.5670 C   0  0  0  0  0  0  0  0  0  0  0  0
   37.9590   27.2490   31.0980 C   0  0  0  0  0  0  0  0  0  0  0  0
   37.0180   26.7750   31.9930 C   0  0  0  0  0  0  0  0  0  0  0  0
   36.0380   27.6200   32.3340 N   0  0  0  0  0  0  0  0  0  0  0  0
   35.9420   28.8850   31.8440 C   0  0  0  0  0  0  0  0  0  0  0  0
   36.8870   29.3320   30.9580 N   0  0  0  0  0  0  0  0  0  0  0  0
   38.6660   28.8650   29.8680 H   0  0  0  0  0  0  0  0  0  0  0  0
   38.7630   26.5780   30.8080 H   0  0  0  0  0  0  0  0  0  0  0  0
   35.1500   29.5620   32.1230 H   0  0  0  0  0  0  0  0  0  0  0  0
   38.4170   23.6350   35.5060 C   0  0  0  0  0  0  0  0  0  0  0  0
   37.8210   23.8430   36.7170 C   0  0  0  0  0  0  0  0  0  0  0  0
   38.4120   23.5520   37.9340 C   0  0  0  0  0  0  0  0  0  0  0  0
   39.6980   23.0120   37.9260 C   0  0  0  0  0  0  0  0  0  0  0  0
   40.2620   22.8200   36.6790 C   0  0  0  0  0  0  0  0  0  0  0  0
   39.6480   23.1180   35.5380 N   0  0  0  0  0  0  0  0  0  0  0  0
   36.8230   24.2600   36.7710 H   0  0  0  0  0  0  0  0  0  0  0  0
   37.9210   23.7240   38.8780 H   0  0  0  0  0  0  0  0  0  0  0  0
   40.1760   22.7800   38.8470 H   0  0  0  0  0  0  0  0  0  0  0  0
   41.6040   22.2610   36.5630 C   0  0  0  0  0  0  0  0  0  0  0  0
   41.8500   20.9510   36.9440 C   0  0  0  0  0  0  0  0  0  0  0  0
   41.0290   20.3310   37.3360 H   0  0  0  0  0  0  0  0  0  0  0  0
   43.0850   20.3140   36.8770 C   0  0  0  0  0  3  0  0  0  0  0  0
   44.1410   21.0270   36.4020 C   0  0  0  0  0  0  0  0  0  0  0  0
   45.1350   20.6080   36.3160 H   0  0  0  0  0  0  0  0  0  0  0  0
   43.9530   22.3210   36.0120 C   0  0  0  0  0  0  0  0  0  0  0  0
   44.7740   22.9270   35.6240 H   0  0  0  0  0  0  0  0  0  0  0  0
   42.7200   22.9200   36.0910 C   0  0  0  0  0  3  0  0  0  0  0  0
   35.9980   22.0920   31.5490 C   0  0  0  0  0  0  0  0  0  0  0  0
   35.1670   22.5590   30.6010 F   0  0  0  0  0  0  0  0  0  0  0  0
   35.2330   21.2310   32.3370 F   0  0  0  0  0  0  0  0  0  0  0  0
   37.0160   21.3670   30.9380 F   0  0  0  0  0  0  0  0  0  0  0  0
  1  2  1  0  0  0  0
  2  3  2  0  0  0  0
  2  9  1  0  0  0  0
  3 19  1  0  0  0  0
  4  5  2  0  0  0  0
  4  3  1  0  0  0  0
  6  4  1  0  0  0  0
  7  6  1  0  0  0  0
  7  1  1  0  0  0  0
  8  7  2  0  0  0  0
 10 15  2  0  0  0  0
 10 11  1  0  0  0  0
 11 12  2  0  0  0  0
 12 13  1  0  0  0  0
 12  1  1  0  0  0  0
 14 18  1  0  0  0  0
 14 13  2  0  0  0  0
 15 14  1  0  0  0  0
 16 10  1  0  0  0  0
 17 11  1  0  0  0  0
 19 24  2  0  0  0  0
 19 20  1  0  0  0  0
 20 25  1  0  0  0  0
 20 21  2  0  0  0  0
 21 26  1  0  0  0  0
 22 21  1  0  0  0  0
 22 27  1  0  0  0  0
 23 22  2  0  0  0  0
 24 23  1  0  0  0  0
 28 23  1  0  0  0  0
 28 29  1  0  0  0  0
 29 30  1  0  0  0  0
 31 29  2  0  0  0  0
 32 31  1  0  0  0  0
 33 32  1  0  0  0  0
 34 36  1  0  0  0  0
 34 32  2  0  0  0  0
 35 34  1  0  0  0  0
 36 28  2  0  0  0  0
 37  6  1  0  0  0  0
 37 39  1  0  0  0  0
 38 37  1  0  0  0  0
 40 37  1  0  0  0  0
M  END
>  <minimizedAffinity>
-6.54017258

$$$$

 OpenBabel03272505333D

 40 43  0  0  0  0  0  0  0  0999 V2000
   36.0220   29.1890   33.5390 N   0  0  0  0  0  0  0  0  0  0  0  0
   36.5490   27.9760   33.8620 C   0  0  0  0  0  0  0  0  0  0  0  0
   37.2830   27.2320   32.9460 C   0  0  0  0  0  0  0  0  0  0  0  0
   37.4600   27.7770   31.6780 C   0  0  0  0  0  0  0  0  0  0  0  0
   38.1180   27.1370   30.8170 O   0  0  0  0  0  0  0  0  0  0  0  0
   36.9290   28.9990   31.3540 N   0  0  0  0  0  0  0  0  0  0  0  0
   36.2480   29.6120   32.3150 C   0  0  0  0  0  0  0  0  0  0  0  0
   35.7760   30.7250   31.9880 O   0  0  0  0  0  0  0  0  0  0  0  0
   36.4020   27.5630   34.8560 H   0  0  0  0  0  0  0  0  0  0  0  0
   35.1630   31.5970   36.2450 C   0  0  0  0  0  0  0  0  0  0  0  0
   35.8880   30.8490   35.3070 C   0  0  0  0  0  0  0  0  0  0  0  0
   35.2850   29.9280   34.4710 C   0  0  0  0  0  0  0  0  0  0  0  0
   33.9610   29.7800   34.6000 N   0  0  0  0  0  0  0  0  0  0  0  0
   33.2180   30.4830   35.4950 C   0  0  0  0  0  0  0  0  0  0  0  0
   33.8380   31.3910   36.3130 N   0  0  0  0  0  0  0  0  0  0  0  0
   35.6860   32.3060   36.8760 H   0  0  0  0  0  0  0  0  0  0  0  0
   36.9620   30.9850   35.2180 H   0  0  0  0  0  0  0  0  0  0  0  0
   32.1510   30.3590   35.5950 H   0  0  0  0  0  0  0  0  0  0  0  0
   37.8660   25.9300   33.2420 C   0  0  0  0  0  0  0  0  0  0  0  0
   39.0910   25.7750   33.8250 C   0  0  0  0  0  0  0  0  0  0  0  0
   39.6640   24.5490   34.1140 C   0  0  0  0  0  0  0  0  0  0  0  0
   38.9470   23.3970   33.7910 C   0  0  0  0  0  0  0  0  0  0  0  0
   37.7140   23.6020   33.2030 C   0  0  0  0  0  0  0  0  0  0  0  0
   37.2090   24.8050   32.9470 N   0  0  0  0  0  0  0  0  0  0  0  0
   39.6820   26.6410   34.0930 H   0  0  0  0  0  0  0  0  0  0  0  0
   40.6330   24.4520   34.5750 H   0  0  0  0  0  0  0  0  0  0  0  0
   39.3650   22.4420   34.0020 H   0  0  0  0  0  0  0  0  0  0  0  0
   36.8860   22.4620   32.8270 C   0  0  0  0  0  0  0  0  0  0  0  0
   36.2670   22.4270   31.5870 C   0  0  0  0  0  0  0  0  0  0  0  0
   36.3990   23.2640   30.8850 H   0  0  0  0  0  0  0  0  0  0  0  0
   35.4570   21.3940   31.1220 C   0  0  0  0  0  3  0  0  0  0  0  0
   35.2530   20.3310   31.9440 C   0  0  0  0  0  0  0  0  0  0  0  0
   34.6390   19.4860   31.6610 H   0  0  0  0  0  0  0  0  0  0  0  0
   35.8410   20.3140   33.1760 C   0  0  0  0  0  0  0  0  0  0  0  0
   35.7020   19.4790   33.8650 H   0  0  0  0  0  0  0  0  0  0  0  0
   36.6330   21.3500   33.6030 C   0  0  0  0  0  3  0  0  0  0  0  0
   37.1220   29.5460   30.0390 C   0  0  0  0  0  0  0  0  0  0  0  0
   38.3900   29.9610   29.8690 F   0  0  0  0  0  0  0  0  0  0  0  0
   36.3180   30.6590   29.7850 F   0  0  0  0  0  0  0  0  0  0  0  0
   36.8410   28.5580   29.1000 F   0  0  0  0  0  0  0  0  0  0  0  0
  1  2  1  0  0  0  0
  1 12  1  0  0  0  0
  2  9  1  0  0  0  0
  3 19  1  0  0  0  0
  3  2  2  0  0  0  0
  4  3  1  0  0  0  0
  5  4  2  0  0  0  0
  6  4  1  0  0  0  0
  6  7  1  0  0  0  0
  7  1  1  0  0  0  0
  8  7  2  0  0  0  0
 10 15  1  0  0  0  0
 10 16  1  0  0  0  0
 11 10  2  0  0  0  0
 12 13  2  0  0  0  0
 12 11  1  0  0  0  0
 13 14  1  0  0  0  0
 14 18  1  0  0  0  0
 14 15  2  0  0  0  0
 17 11  1  0  0  0  0
 19 20  1  0  0  0  0
 20 25  1  0  0  0  0
 20 21  2  0  0  0  0
 21 26  1  0  0  0  0
 22 27  1  0  0  0  0
 22 21  1  0  0  0  0
 23 22  2  0  0  0  0
 24 23  1  0  0  0  0
 24 19  2  0  0  0  0
 28 23  1  0  0  0  0
 28 36  1  0  0  0  0
 29 28  2  0  0  0  0
 30 29  1  0  0  0  0
 31 29  1  0  0  0  0
 31 32  2  0  0  0  0
 32 34  1  0  0  0  0
 33 32  1  0  0  0  0
 34 36  2  0  0  0  0
 34 35  1  0  0  0  0
 37  6  1  0  0  0  0
 38 37  1  0  0  0  0
 39 37  1  0  0  0  0
 40 37  1  0  0  0  0
M  END
>  <minimizedAffinity>
-6.4638834

$$$$

 OpenBabel03272505333D

 40 43  0  0  0  0  0  0  0  0999 V2000
   38.1690   25.5990   34.1160 N   0  0  0  0  0  0  0  0  0  0  0  0
   37.2550   26.6020   34.0040 C   0  0  0  0  0  0  0  0  0  0  0  0
   37.3120   27.5300   32.9720 C   0  0  0  0  0  0  0  0  0  0  0  0
   38.3470   27.3950   32.0510 C   0  0  0  0  0  0  0  0  0  0  0  0
   38.4370   28.2140   31.0990 O   0  0  0  0  0  0  0  0  0  0  0  0
   39.2680   26.3850   32.1640 N   0  0  0  0  0  0  0  0  0  0  0  0
   39.1050   25.5620   33.1930 C   0  0  0  0  0  0  0  0  0  0  0  0
   39.9600   24.6510   33.2700 O   0  0  0  0  0  0  0  0  0  0  0  0
   36.4530   26.6940   34.7310 H   0  0  0  0  0  0  0  0  0  0  0  0
   38.1050   24.1430   37.5410 C   0  0  0  0  0  0  0  0  0  0  0  0
   38.1740   25.0600   36.4850 C   0  0  0  0  0  0  0  0  0  0  0  0
   38.0990   24.6710   35.1610 C   0  0  0  0  0  0  0  0  0  0  0  0
   37.9560   23.3600   34.9310 N   0  0  0  0  0  0  0  0  0  0  0  0
   37.8830   22.4340   35.9230 C   0  0  0  0  0  0  0  0  0  0  0  0
   37.9600   22.8450   37.2280 N   0  0  0  0  0  0  0  0  0  0  0  0
   38.1690   24.5030   38.5620 H   0  0  0  0  0  0  0  0  0  0  0  0
   38.2900   26.1200   36.6940 H   0  0  0  0  0  0  0  0  0  0  0  0
   37.7680   21.3780   35.7310 H   0  0  0  0  0  0  0  0  0  0  0  0
   36.3600   28.6200   32.8090 C   0  0  0  0  0  0  0  0  0  0  0  0
   35.9260   29.0580   31.5910 C   0  0  0  0  0  0  0  0  0  0  0  0
   35.0230   30.0920   31.4130 C   0  0  0  0  0  0  0  0  0  0  0  0
   34.5220   30.7270   32.5490 C   0  0  0  0  0  0  0  0  0  0  0  0
   34.9880   30.2510   33.7590 C   0  0  0  0  0  0  0  0  0  0  0  0
   35.8580   29.2530   33.8740 N   0  0  0  0  0  0  0  0  0  0  0  0
   36.2890   28.5940   30.6830 H   0  0  0  0  0  0  0  0  0  0  0  0
   34.6950   30.4200   30.4400 H   0  0  0  0  0  0  0  0  0  0  0  0
   33.8270   31.5250   32.4400 H   0  0  0  0  0  0  0  0  0  0  0  0
   34.5250   30.8490   35.0060 C   0  0  0  0  0  0  0  0  0  0  0  0
   33.2410   30.5990   35.4650 C   0  0  0  0  0  0  0  0  0  0  0  0
   32.5680   29.9480   34.8860 H   0  0  0  0  0  0  0  0  0  0  0  0
   32.6920   31.1130   36.6370 C   0  0  0  0  0  3  0  0  0  0  0  0
   33.4730   31.9260   37.3970 C   0  0  0  0  0  0  0  0  0  0  0  0
   33.1250   32.3670   38.3230 H   0  0  0  0  0  0  0  0  0  0  0  0
   34.7460   32.2030   36.9910 C   0  0  0  0  0  0  0  0  0  0  0  0
   35.4040   32.8510   37.5740 H   0  0  0  0  0  0  0  0  0  0  0  0
   35.2550   31.6800   35.8290 C   0  0  0  0  0  3  0  0  0  0  0  0
   40.3290   26.2620   31.2040 C   0  0  0  0  0  0  0  0  0  0  0  0
   39.8470   26.2600   29.9480 F   0  0  0  0  0  0  0  0  0  0  0  0
   41.0540   25.0770   31.3370 F   0  0  0  0  0  0  0  0  0  0  0  0
   41.1930   27.3430   31.3540 F   0  0  0  0  0  0  0  0  0  0  0  0
  1 12  1  0  0  0  0
  2  1  1  0  0  0  0
  2  9  1  0  0  0  0
  3  2  2  0  0  0  0
  4  6  1  0  0  0  0
  4  3  1  0  0  0  0
  5  4  2  0  0  0  0
  6  7  1  0  0  0  0
  7  8  2  0  0  0  0
  7  1  1  0  0  0  0
 10 16  1  0  0  0  0
 11 17  1  0  0  0  0
 11 10  2  0  0  0  0
 12 11  1  0  0  0  0
 13 12  2  0  0  0  0
 13 14  1  0  0  0  0
 14 15  2  0  0  0  0
 15 10  1  0  0  0  0
 18 14  1  0  0  0  0
 19  3  1  0  0  0  0
 19 24  1  0  0  0  0
 20 19  2  0  0  0  0
 21 20  1  0  0  0  0
 21 22  2  0  0  0  0
 22 23  1  0  0  0  0
 23 24  2  0  0  0  0
 23 28  1  0  0  0  0
 25 20  1  0  0  0  0
 26 21  1  0  0  0  0
 27 22  1  0  0  0  0
 28 29  2  0  0  0  0
 28 36  1  0  0  0  0
 29 31  1  0  0  0  0
 30 29  1  0  0  0  0
 31 32  2  0  0  0  0
 32 33  1  0  0  0  0
 34 32  1  0  0  0  0
 34 35  1  0  0  0  0
 36 34  2  0  0  0  0
 37 39  1  0  0  0  0
 37 40  1  0  0  0  0
 37  6  1  0  0  0  0
 38 37  1  0  0  0  0
M  END
>  <minimizedAffinity>
-6.45558214

$$$$

 OpenBabel03272505333D

 40 43  0  0  0  0  0  0  0  0999 V2000
   36.6730   27.7650   34.0240 N   0  0  0  0  0  0  0  0  0  0  0  0
   37.0350   26.9340   35.0400 C   0  0  0  0  0  0  0  0  0  0  0  0
   37.8150   25.8060   34.8170 C   0  0  0  0  0  0  0  0  0  0  0  0
   38.2150   25.5560   33.5080 C   0  0  0  0  0  0  0  0  0  0  0  0
   38.9220   24.5450   33.2600 O   0  0  0  0  0  0  0  0  0  0  0  0
   37.8500   26.3940   32.4850 N   0  0  0  0  0  0  0  0  0  0  0  0
   37.1040   27.4380   32.8260 C   0  0  0  0  0  0  0  0  0  0  0  0
   36.7880   28.1840   31.8710 O   0  0  0  0  0  0  0  0  0  0  0  0
   36.7150   27.1420   36.0570 H   0  0  0  0  0  0  0  0  0  0  0  0
   35.5450   31.0620   35.3350 C   0  0  0  0  0  0  0  0  0  0  0  0
   36.3200   29.9210   35.0870 C   0  0  0  0  0  0  0  0  0  0  0  0
   35.8880   28.8980   34.2630 C   0  0  0  0  0  0  0  0  0  0  0  0
   34.6800   29.0490   33.7070 N   0  0  0  0  0  0  0  0  0  0  0  0
   33.8940   30.1380   33.9180 C   0  0  0  0  0  0  0  0  0  0  0  0
   34.3440   31.1380   34.7390 N   0  0  0  0  0  0  0  0  0  0  0  0
   35.9320   31.8330   35.9900 H   0  0  0  0  0  0  0  0  0  0  0  0
   37.2980   29.8190   35.5490 H   0  0  0  0  0  0  0  0  0  0  0  0
   32.9200   30.2530   33.4670 H   0  0  0  0  0  0  0  0  0  0  0  0
   38.2280   24.8860   35.8690 C   0  0  0  0  0  0  0  0  0  0  0  0
   37.4540   24.5960   36.9560 C   0  0  0  0  0  0  0  0  0  0  0  0
   37.8270   23.7270   37.9660 C   0  0  0  0  0  0  0  0  0  0  0  0
   39.0720   23.1060   37.8690 C   0  0  0  0  0  0  0  0  0  0  0  0
   39.8210   23.4280   36.7530 C   0  0  0  0  0  0  0  0  0  0  0  0
   39.4130   24.2720   35.8100 N   0  0  0  0  0  0  0  0  0  0  0  0
   36.4810   25.0560   37.0710 H   0  0  0  0  0  0  0  0  0  0  0  0
   37.1990   23.5140   38.8150 H   0  0  0  0  0  0  0  0  0  0  0  0
   39.3830   22.4330   38.6320 H   0  0  0  0  0  0  0  0  0  0  0  0
   41.1370   22.8310   36.5600 C   0  0  0  0  0  0  0  0  0  0  0  0
   41.4080   21.5640   37.0520 C   0  0  0  0  0  0  0  0  0  0  0  0
   40.6270   21.0070   37.5930 H   0  0  0  0  0  0  0  0  0  0  0  0
   42.6230   20.8970   36.9270 C   0  0  0  0  0  3  0  0  0  0  0  0
   43.6300   21.5320   36.2710 C   0  0  0  0  0  0  0  0  0  0  0  0
   44.6050   21.0850   36.1280 H   0  0  0  0  0  0  0  0  0  0  0  0
   43.4150   22.7810   35.7650 C   0  0  0  0  0  0  0  0  0  0  0  0
   44.1970   23.3250   35.2310 H   0  0  0  0  0  0  0  0  0  0  0  0
   42.2040   23.4110   35.9060 C   0  0  0  0  0  3  0  0  0  0  0  0
   38.2720   26.1200   31.1390 C   0  0  0  0  0  0  0  0  0  0  0  0
   39.5980   25.8990   31.0830 F   0  0  0  0  0  0  0  0  0  0  0  0
   38.0230   27.1760   30.2610 F   0  0  0  0  0  0  0  0  0  0  0  0
   37.6060   24.9850   30.6860 F   0  0  0  0  0  0  0  0  0  0  0  0
  1 12  1  0  0  0  0
  1  2  1  0  0  0  0
  2  9  1  0  0  0  0
  3  2  2  0  0  0  0
  3 19  1  0  0  0  0
  4  3  1  0  0  0  0
  5  4  2  0  0  0  0
  6  7  1  0  0  0  0
  6  4  1  0  0  0  0
  7  1  1  0  0  0  0
  8  7  2  0  0  0  0
 10 16  1  0  0  0  0
 11 10  1  0  0  0  0
 11 17  1  0  0  0  0
 12 11  2  0  0  0  0
 13 14  2  0  0  0  0
 13 12  1  0  0  0  0
 14 15  1  0  0  0  0
 15 10  2  0  0  0  0
 18 14  1  0  0  0  0
 19 20  1  0  0  0  0
 20 25  1  0  0  0  0
 20 21  2  0  0  0  0
 21 26  1  0  0  0  0
 22 21  1  0  0  0  0
 22 27  1  0  0  0  0
 23 22  2  0  0  0  0
 24 19  2  0  0  0  0
 24 23  1  0  0  0  0
 28 23  1  0  0  0  0
 28 29  1  0  0  0  0
 29 30  1  0  0  0  0
 31 29  2  0  0  0  0
 32 31  1  0  0  0  0
 33 32  1  0  0  0  0
 34 36  1  0  0  0  0
 34 32  2  0  0  0  0
 35 34  1  0  0  0  0
 36 28  2  0  0  0  0
 37  6  1  0  0  0  0
 38 37  1  0  0  0  0
 39 37  1  0  0  0  0
 40 37  1  0  0  0  0
M  END
>  <minimizedAffinity>
-6.4320159

$$$$
