
 OpenBabel03272505013D

 28 30  0  0  0  0  0  0  0  0999 V2000
   37.9400   22.8950   33.6480 Cl  0  0  0  0  0  0  0  0  0  0  0  0
   36.9330   23.8420   32.5760 C   0  0  0  0  0  0  0  0  0  0  0  0
   36.1160   23.1920   31.7170 C   0  0  0  0  0  0  0  0  0  0  0  0
   35.3320   23.9990   30.8810 C   0  0  0  0  0  0  0  0  0  0  0  0
   35.4200   25.3930   30.9660 C   0  0  0  0  0  0  0  0  0  0  0  0
   36.2640   26.0030   31.8540 C   0  0  0  0  0  0  0  0  0  0  0  0
   37.0350   25.2020   32.6750 C   0  0  0  0  0  0  0  0  0  0  0  0
   34.6580   23.5070   30.1740 H   0  0  0  0  0  0  0  0  0  0  0  0
   34.7790   25.9400   30.2860 H   0  0  0  0  0  0  0  0  0  0  0  0
   36.3140   27.0770   31.8990 H   0  0  0  0  0  0  0  0  0  0  0  0
   36.8740   20.9920   30.8220 C   0  0  0  0  0  0  0  0  0  0  0  0
   36.0010   21.7500   31.6060 C   0  0  0  0  0  0  0  0  0  0  0  0
   34.9910   21.0600   32.2980 C   0  0  0  0  0  0  0  0  0  0  0  0
   34.9190   19.7060   32.1660 N   0  0  0  0  0  0  0  0  0  0  0  0
   35.7710   19.0100   31.4060 C   0  0  0  0  0  0  0  0  0  0  0  0
   36.7570   19.6520   30.7270 N   0  0  0  0  0  0  0  0  0  0  0  0
   37.6490   21.5640   30.2970 H   0  0  0  0  0  0  0  0  0  0  0  0
   34.2770   21.6000   32.9290 H   0  0  0  0  0  0  0  0  0  0  0  0
   35.6980   17.9380   31.3140 H   0  0  0  0  0  0  0  0  0  0  0  0
   37.9150   25.9110   33.5990 C   0  0  0  0  0  0  0  0  0  0  0  0
   37.3750   26.2600   34.8200 C   0  0  0  0  0  0  0  0  0  0  0  0
   36.3470   26.0210   35.0800 H   0  0  0  0  0  0  0  0  0  0  0  0
   38.0850   26.9320   35.7970 C   0  0  0  0  0  3  0  0  0  0  0  0
   39.3940   27.2470   35.4900 C   0  0  0  0  0  0  0  0  0  0  0  0
   40.0370   27.7830   36.2060 H   0  0  0  0  0  0  0  0  0  0  0  0
   39.9790   26.9180   34.2800 C   0  0  0  0  0  0  0  0  0  0  0  0
   41.0140   27.1780   34.0610 H   0  0  0  0  0  0  0  0  0  0  0  0
   39.2270   26.2420   33.3260 C   0  0  0  0  0  3  0  0  0  0  0  0
  2  7  1  0  0  0  0
  2  1  1  0  0  0  0
  3  2  2  0  0  0  0
  4  5  2  0  0  0  0
  4  3  1  0  0  0  0
  5  6  1  0  0  0  0
  6 10  1  0  0  0  0
  6  7  2  0  0  0  0
  7 20  1  0  0  0  0
  8  4  1  0  0  0  0
  9  5  1  0  0  0  0
 11 12  1  0  0  0  0
 12  3  1  0  0  0  0
 12 13  2  0  0  0  0
 13 18  1  0  0  0  0
 14 13  1  0  0  0  0
 15 14  2  0  0  0  0
 16 11  2  0  0  0  0
 16 15  1  0  0  0  0
 17 11  1  0  0  0  0
 19 15  1  0  0  0  0
 20 21  1  0  0  0  0
 21 22  1  0  0  0  0
 21 23  2  0  0  0  0
 24 23  1  0  0  0  0
 24 25  1  0  0  0  0
 26 24  2  0  0  0  0
 27 26  1  0  0  0  0
 28 20  2  0  0  0  0
 28 26  1  0  0  0  0
M  END
>  <minimizedAffinity>
-5.33740139

$$$$

 OpenBabel03272505013D

 28 30  0  0  0  0  0  0  0  0999 V2000
   40.6770   24.7310   34.2380 Cl  0  0  0  0  0  0  0  0  0  0  0  0
   39.7550   24.2360   35.6390 C   0  0  0  0  0  0  0  0  0  0  0  0
   38.5130   24.7440   35.8060 C   0  0  0  0  0  0  0  0  0  0  0  0
   37.8180   24.3140   36.9450 C   0  0  0  0  0  0  0  0  0  0  0  0
   38.4140   23.4100   37.8320 C   0  0  0  0  0  0  0  0  0  0  0  0
   39.6750   22.9250   37.6180 C   0  0  0  0  0  0  0  0  0  0  0  0
   40.3560   23.3520   36.4930 C   0  0  0  0  0  0  0  0  0  0  0  0
   36.8110   24.7040   37.1120 H   0  0  0  0  0  0  0  0  0  0  0  0
   37.8080   23.1310   38.6840 H   0  0  0  0  0  0  0  0  0  0  0  0
   40.1120   22.2310   38.3150 H   0  0  0  0  0  0  0  0  0  0  0  0
   37.4560   25.3180   33.6210 C   0  0  0  0  0  0  0  0  0  0  0  0
   37.8690   25.6810   34.9060 C   0  0  0  0  0  0  0  0  0  0  0  0
   37.6350   27.0080   35.3070 C   0  0  0  0  0  0  0  0  0  0  0  0
   37.0260   27.8560   34.4310 N   0  0  0  0  0  0  0  0  0  0  0  0
   36.6440   27.4760   33.2070 C   0  0  0  0  0  0  0  0  0  0  0  0
   36.8590   26.1990   32.7950 N   0  0  0  0  0  0  0  0  0  0  0  0
   37.6550   24.2750   33.3430 H   0  0  0  0  0  0  0  0  0  0  0  0
   37.9350   27.3510   36.3030 H   0  0  0  0  0  0  0  0  0  0  0  0
   36.1640   28.1610   32.5280 H   0  0  0  0  0  0  0  0  0  0  0  0
   41.6960   22.8010   36.3200 C   0  0  0  0  0  0  0  0  0  0  0  0
   41.7750   21.4590   36.0060 C   0  0  0  0  0  0  0  0  0  0  0  0
   40.8860   20.8450   35.8940 H   0  0  0  0  0  0  0  0  0  0  0  0
   42.9730   20.7970   35.8120 C   0  0  0  0  0  3  0  0  0  0  0  0
   44.1180   21.5570   35.9480 C   0  0  0  0  0  0  0  0  0  0  0  0
   45.1180   21.1160   35.8130 H   0  0  0  0  0  0  0  0  0  0  0  0
   44.0880   22.9040   36.2620 C   0  0  0  0  0  0  0  0  0  0  0  0
   45.0060   23.4830   36.3650 H   0  0  0  0  0  0  0  0  0  0  0  0
   42.8610   23.5300   36.4490 C   0  0  0  0  0  3  0  0  0  0  0  0
  1  2  1  0  0  0  0
  2  3  2  0  0  0  0
  2  7  1  0  0  0  0
  3  4  1  0  0  0  0
  4  8  1  0  0  0  0
  4  5  2  0  0  0  0
  5  9  1  0  0  0  0
  6  5  1  0  0  0  0
  6 10  1  0  0  0  0
  7  6  2  0  0  0  0
 11 12  1  0  0  0  0
 12 13  2  0  0  0  0
 12  3  1  0  0  0  0
 13 18  1  0  0  0  0
 14 13  1  0  0  0  0
 15 14  2  0  0  0  0
 16 15  1  0  0  0  0
 16 11  2  0  0  0  0
 17 11  1  0  0  0  0
 19 15  1  0  0  0  0
 20 28  1  0  0  0  0
 20  7  1  0  0  0  0
 21 20  2  0  0  0  0
 22 21  1  0  0  0  0
 23 24  2  0  0  0  0
 23 21  1  0  0  0  0
 24 26  1  0  0  0  0
 25 24  1  0  0  0  0
 26 27  1  0  0  0  0
 26 28  2  0  0  0  0
M  END
>  <minimizedAffinity>
-5.12244987

$$$$

 OpenBabel03272505013D

 28 30  0  0  0  0  0  0  0  0999 V2000
   36.2850   28.1230   34.5270 Cl  0  0  0  0  0  0  0  0  0  0  0  0
   36.0900   29.1310   33.1110 C   0  0  0  0  0  0  0  0  0  0  0  0
   36.5220   28.6590   31.9190 C   0  0  0  0  0  0  0  0  0  0  0  0
   36.3410   29.5070   30.8180 C   0  0  0  0  0  0  0  0  0  0  0  0
   35.7410   30.7600   30.9860 C   0  0  0  0  0  0  0  0  0  0  0  0
   35.3190   31.1910   32.2150 C   0  0  0  0  0  0  0  0  0  0  0  0
   35.5010   30.3510   33.2970 C   0  0  0  0  0  0  0  0  0  0  0  0
   36.6780   29.1580   29.8380 H   0  0  0  0  0  0  0  0  0  0  0  0
   35.6380   31.3500   30.0840 H   0  0  0  0  0  0  0  0  0  0  0  0
   34.8610   32.1590   32.3190 H   0  0  0  0  0  0  0  0  0  0  0  0
   38.5250   27.1760   31.8430 C   0  0  0  0  0  0  0  0  0  0  0  0
   37.1470   27.3670   31.7120 C   0  0  0  0  0  0  0  0  0  0  0  0
   36.3700   26.2470   31.3690 C   0  0  0  0  0  0  0  0  0  0  0  0
   36.9970   25.0510   31.1830 N   0  0  0  0  0  0  0  0  0  0  0  0
   38.3190   24.9030   31.3160 C   0  0  0  0  0  0  0  0  0  0  0  0
   39.0920   25.9690   31.6470 N   0  0  0  0  0  0  0  0  0  0  0  0
   39.0980   28.0720   32.1110 H   0  0  0  0  0  0  0  0  0  0  0  0
   35.2840   26.3340   31.2530 H   0  0  0  0  0  0  0  0  0  0  0  0
   38.7970   23.9480   31.1650 H   0  0  0  0  0  0  0  0  0  0  0  0
   35.0320   30.8660   34.5800 C   0  0  0  0  0  0  0  0  0  0  0  0
   33.7190   30.5990   34.9100 C   0  0  0  0  0  0  0  0  0  0  0  0
   33.0670   30.0330   34.2480 H   0  0  0  0  0  0  0  0  0  0  0  0
   33.1340   31.0200   36.0890 C   0  0  0  0  0  3  0  0  0  0  0  0
   33.9420   31.7400   36.9460 C   0  0  0  0  0  0  0  0  0  0  0  0
   33.5640   32.1180   37.9090 H   0  0  0  0  0  0  0  0  0  0  0  0
   35.2640   32.0330   36.6590 C   0  0  0  0  0  0  0  0  0  0  0  0
   35.8820   32.6040   37.3520 H   0  0  0  0  0  0  0  0  0  0  0  0
   35.8110   31.5890   35.4610 C   0  0  0  0  0  3  0  0  0  0  0  0
  2  7  1  0  0  0  0
  2  1  1  0  0  0  0
  3  2  2  0  0  0  0
  4  5  2  0  0  0  0
  4  3  1  0  0  0  0
  5  6  1  0  0  0  0
  6 10  1  0  0  0  0
  6  7  2  0  0  0  0
  7 20  1  0  0  0  0
  8  4  1  0  0  0  0
  9  5  1  0  0  0  0
 11 17  1  0  0  0  0
 12 11  1  0  0  0  0
 12  3  1  0  0  0  0
 13 12  2  0  0  0  0
 14 15  2  0  0  0  0
 14 13  1  0  0  0  0
 15 16  1  0  0  0  0
 16 11  2  0  0  0  0
 18 13  1  0  0  0  0
 19 15  1  0  0  0  0
 20 21  2  0  0  0  0
 20 28  1  0  0  0  0
 21 23  1  0  0  0  0
 22 21  1  0  0  0  0
 23 24  2  0  0  0  0
 24 25  1  0  0  0  0
 26 24  1  0  0  0  0
 26 27  1  0  0  0  0
 28 26  2  0  0  0  0
M  END
>  <minimizedAffinity>
-5.09078932

$$$$

 OpenBabel03272505013D

 28 30  0  0  0  0  0  0  0  0999 V2000
   38.3540   22.3880   33.6490 Cl  0  0  0  0  0  0  0  0  0  0  0  0
   37.2590   23.3670   32.7010 C   0  0  0  0  0  0  0  0  0  0  0  0
   37.4370   24.7080   32.6890 C   0  0  0  0  0  0  0  0  0  0  0  0
   36.5320   25.4440   31.9130 C   0  0  0  0  0  0  0  0  0  0  0  0
   35.5190   24.7890   31.2040 C   0  0  0  0  0  0  0  0  0  0  0  0
   35.3810   23.4280   31.2480 C   0  0  0  0  0  0  0  0  0  0  0  0
   36.2760   22.7070   32.0160 C   0  0  0  0  0  0  0  0  0  0  0  0
   36.6460   26.5310   31.8800 H   0  0  0  0  0  0  0  0  0  0  0  0
   34.8640   25.4320   30.6300 H   0  0  0  0  0  0  0  0  0  0  0  0
   34.5920   22.9470   30.6960 H   0  0  0  0  0  0  0  0  0  0  0  0
   39.7460   25.6340   32.8680 C   0  0  0  0  0  0  0  0  0  0  0  0
   38.4770   25.4150   33.4110 C   0  0  0  0  0  0  0  0  0  0  0  0
   38.2350   25.9140   34.7030 C   0  0  0  0  0  0  0  0  0  0  0  0
   39.2390   26.5730   35.3460 N   0  0  0  0  0  0  0  0  0  0  0  0
   40.4430   26.7650   34.7970 C   0  0  0  0  0  0  0  0  0  0  0  0
   40.7030   26.2940   33.5500 N   0  0  0  0  0  0  0  0  0  0  0  0
   39.8980   25.2320   31.8580 H   0  0  0  0  0  0  0  0  0  0  0  0
   37.2590   25.7740   35.1810 H   0  0  0  0  0  0  0  0  0  0  0  0
   41.2250   27.2890   35.3220 H   0  0  0  0  0  0  0  0  0  0  0  0
   36.0770   21.2610   32.0240 C   0  0  0  0  0  0  0  0  0  0  0  0
   36.4780   20.5770   30.8940 C   0  0  0  0  0  0  0  0  0  0  0  0
   36.9180   21.0890   30.0420 H   0  0  0  0  0  0  0  0  0  0  0  0
   36.3540   19.2080   30.7560 C   0  0  0  0  0  3  0  0  0  0  0  0
   35.7980   18.5350   31.8250 C   0  0  0  0  0  0  0  0  0  0  0  0
   35.6590   17.4420   31.8050 H   0  0  0  0  0  0  0  0  0  0  0  0
   35.3820   19.1770   32.9780 C   0  0  0  0  0  0  0  0  0  0  0  0
   34.9440   18.6230   33.8090 H   0  0  0  0  0  0  0  0  0  0  0  0
   35.5250   20.5560   33.0740 C   0  0  0  0  0  3  0  0  0  0  0  0
  2  1  1  0  0  0  0
  3  2  1  0  0  0  0
  3 12  1  0  0  0  0
  4  3  2  0  0  0  0
  5  6  2  0  0  0  0
  5  4  1  0  0  0  0
  6  7  1  0  0  0  0
  7 20  1  0  0  0  0
  7  2  2  0  0  0  0
  8  4  1  0  0  0  0
  9  5  1  0  0  0  0
 10  6  1  0  0  0  0
 11 12  2  0  0  0  0
 11 16  1  0  0  0  0
 12 13  1  0  0  0  0
 13 18  1  0  0  0  0
 13 14  2  0  0  0  0
 15 19  1  0  0  0  0
 15 14  1  0  0  0  0
 16 15  2  0  0  0  0
 17 11  1  0  0  0  0
 20 28  1  0  0  0  0
 21 20  2  0  0  0  0
 22 21  1  0  0  0  0
 23 21  1  0  0  0  0
 23 24  2  0  0  0  0
 24 26  1  0  0  0  0
 25 24  1  0  0  0  0
 26 28  2  0  0  0  0
 26 27  1  0  0  0  0
M  END
>  <minimizedAffinity>
-5.06496477

$$$$

 OpenBabel03272505013D

 28 30  0  0  0  0  0  0  0  0999 V2000
   38.3740   26.4040   34.9440 Cl  0  0  0  0  0  0  0  0  0  0  0  0
   37.9790   24.9890   33.9950 C   0  0  0  0  0  0  0  0  0  0  0  0
   37.5960   25.1610   32.7090 C   0  0  0  0  0  0  0  0  0  0  0  0
   37.2910   23.9940   31.9950 C   0  0  0  0  0  0  0  0  0  0  0  0
   37.3930   22.7440   32.6140 C   0  0  0  0  0  0  0  0  0  0  0  0
   37.7870   22.6230   33.9200 C   0  0  0  0  0  0  0  0  0  0  0  0
   38.0850   23.7770   34.6190 C   0  0  0  0  0  0  0  0  0  0  0  0
   36.9780   24.0960   30.9520 H   0  0  0  0  0  0  0  0  0  0  0  0
   37.1410   21.8960   31.9910 H   0  0  0  0  0  0  0  0  0  0  0  0
   37.8570   21.6500   34.3740 H   0  0  0  0  0  0  0  0  0  0  0  0
   38.5550   27.0310   31.3670 C   0  0  0  0  0  0  0  0  0  0  0  0
   37.4810   26.4420   32.0390 C   0  0  0  0  0  0  0  0  0  0  0  0
   36.2620   27.1420   32.0450 C   0  0  0  0  0  0  0  0  0  0  0  0
   36.1960   28.3430   31.4030 N   0  0  0  0  0  0  0  0  0  0  0  0
   37.2450   28.8790   30.7690 C   0  0  0  0  0  0  0  0  0  0  0  0
   38.4340   28.2220   30.7480 N   0  0  0  0  0  0  0  0  0  0  0  0
   39.4890   26.4560   31.3830 H   0  0  0  0  0  0  0  0  0  0  0  0
   35.3840   26.7310   32.5550 H   0  0  0  0  0  0  0  0  0  0  0  0
   37.1730   29.8300   30.2660 H   0  0  0  0  0  0  0  0  0  0  0  0
   38.4980   23.5840   36.0060 C   0  0  0  0  0  0  0  0  0  0  0  0
   37.6210   24.0220   36.9770 C   0  0  0  0  0  0  0  0  0  0  0  0
   36.6720   24.4870   36.7230 H   0  0  0  0  0  0  0  0  0  0  0  0
   37.8730   23.9060   38.3320 C   0  0  0  0  0  3  0  0  0  0  0  0
   39.0720   23.3170   38.6800 C   0  0  0  0  0  0  0  0  0  0  0  0
   39.3600   23.1840   39.7350 H   0  0  0  0  0  0  0  0  0  0  0  0
   39.9830   22.8630   37.7420 C   0  0  0  0  0  0  0  0  0  0  0  0
   40.9240   22.4020   38.0420 H   0  0  0  0  0  0  0  0  0  0  0  0
   39.6880   23.0000   36.3900 C   0  0  0  0  0  3  0  0  0  0  0  0
  2  7  1  0  0  0  0
  2  1  1  0  0  0  0
  3  2  2  0  0  0  0
  4  5  2  0  0  0  0
  4  3  1  0  0  0  0
  5  6  1  0  0  0  0
  6 10  1  0  0  0  0
  6  7  2  0  0  0  0
  7 20  1  0  0  0  0
  8  4  1  0  0  0  0
  9  5  1  0  0  0  0
 11 17  1  0  0  0  0
 11 12  1  0  0  0  0
 12 13  2  0  0  0  0
 12  3  1  0  0  0  0
 13 18  1  0  0  0  0
 14 13  1  0  0  0  0
 15 14  2  0  0  0  0
 16 15  1  0  0  0  0
 16 11  2  0  0  0  0
 19 15  1  0  0  0  0
 20 28  2  0  0  0  0
 20 21  1  0  0  0  0
 21 23  2  0  0  0  0
 22 21  1  0  0  0  0
 23 24  1  0  0  0  0
 24 25  1  0  0  0  0
 26 27  1  0  0  0  0
 26 24  2  0  0  0  0
 28 26  1  0  0  0  0
M  END
>  <minimizedAffinity>
-5.04698133

$$$$

 OpenBabel03272505013D

 28 30  0  0  0  0  0  0  0  0999 V2000
   36.2920   30.4860   31.8520 Cl  0  0  0  0  0  0  0  0  0  0  0  0
   36.6900   28.9770   32.6410 C   0  0  0  0  0  0  0  0  0  0  0  0
   37.4530   28.0810   31.9750 C   0  0  0  0  0  0  0  0  0  0  0  0
   37.7420   26.8890   32.6530 C   0  0  0  0  0  0  0  0  0  0  0  0
   37.2490   26.6800   33.9460 C   0  0  0  0  0  0  0  0  0  0  0  0
   36.4800   27.6190   34.5790 C   0  0  0  0  0  0  0  0  0  0  0  0
   36.1990   28.7920   33.9040 C   0  0  0  0  0  0  0  0  0  0  0  0
   38.3570   26.1430   32.1440 H   0  0  0  0  0  0  0  0  0  0  0  0
   37.5200   25.7340   34.3970 H   0  0  0  0  0  0  0  0  0  0  0  0
   36.1130   27.4340   35.5730 H   0  0  0  0  0  0  0  0  0  0  0  0
   37.1710   28.6640   29.5660 C   0  0  0  0  0  0  0  0  0  0  0  0
   37.9790   28.2690   30.6360 C   0  0  0  0  0  0  0  0  0  0  0  0
   39.3420   28.0570   30.3690 C   0  0  0  0  0  0  0  0  0  0  0  0
   39.7950   28.2440   29.0970 N   0  0  0  0  0  0  0  0  0  0  0  0
   38.9940   28.6220   28.0960 C   0  0  0  0  0  0  0  0  0  0  0  0
   37.6720   28.8340   28.3270 N   0  0  0  0  0  0  0  0  0  0  0  0
   36.1130   28.8200   29.8120 H   0  0  0  0  0  0  0  0  0  0  0  0
   40.0260   27.7470   31.1670 H   0  0  0  0  0  0  0  0  0  0  0  0
   39.3700   28.7650   27.0960 H   0  0  0  0  0  0  0  0  0  0  0  0
   35.3740   29.7540   34.6300 C   0  0  0  0  0  0  0  0  0  0  0  0
   36.0430   30.6820   35.4010 C   0  0  0  0  0  0  0  0  0  0  0  0
   37.1280   30.6960   35.4660 H   0  0  0  0  0  0  0  0  0  0  0  0
   35.3990   31.6540   36.1430 C   0  0  0  0  0  3  0  0  0  0  0  0
   34.0200   31.6560   36.0780 C   0  0  0  0  0  0  0  0  0  0  0  0
   33.4210   32.3930   36.6360 H   0  0  0  0  0  0  0  0  0  0  0  0
   33.3060   30.7460   35.3190 C   0  0  0  0  0  0  0  0  0  0  0  0
   32.2170   30.7680   35.2840 H   0  0  0  0  0  0  0  0  0  0  0  0
   33.9950   29.7850   34.5880 C   0  0  0  0  0  3  0  0  0  0  0  0
  1  2  1  0  0  0  0
  2  7  1  0  0  0  0
  3  2  2  0  0  0  0
  3  4  1  0  0  0  0
  4  5  2  0  0  0  0
  5  9  1  0  0  0  0
  5  6  1  0  0  0  0
  6 10  1  0  0  0  0
  7  6  2  0  0  0  0
  7 20  1  0  0  0  0
  8  4  1  0  0  0  0
 11 17  1  0  0  0  0
 11 12  1  0  0  0  0
 12  3  1  0  0  0  0
 13 12  2  0  0  0  0
 13 18  1  0  0  0  0
 14 13  1  0  0  0  0
 15 16  1  0  0  0  0
 15 14  2  0  0  0  0
 16 11  2  0  0  0  0
 19 15  1  0  0  0  0
 20 21  1  0  0  0  0
 21 22  1  0  0  0  0
 21 23  2  0  0  0  0
 24 23  1  0  0  0  0
 24 25  1  0  0  0  0
 26 24  2  0  0  0  0
 27 26  1  0  0  0  0
 28 20  2  0  0  0  0
 28 26  1  0  0  0  0
M  END
>  <minimizedAffinity>
-4.94346285

$$$$

 OpenBabel03272505013D

 28 30  0  0  0  0  0  0  0  0999 V2000
   38.1880   23.2710   34.1630 Cl  0  0  0  0  0  0  0  0  0  0  0  0
   39.1750   24.7120   34.0940 C   0  0  0  0  0  0  0  0  0  0  0  0
   38.7780   25.7280   33.2950 C   0  0  0  0  0  0  0  0  0  0  0  0
   39.6060   26.8600   33.2780 C   0  0  0  0  0  0  0  0  0  0  0  0
   40.7650   26.8940   34.0600 C   0  0  0  0  0  0  0  0  0  0  0  0
   41.1240   25.8380   34.8540 C   0  0  0  0  0  0  0  0  0  0  0  0
   40.3040   24.7250   34.8660 C   0  0  0  0  0  0  0  0  0  0  0  0
   39.3160   27.7010   32.6430 H   0  0  0  0  0  0  0  0  0  0  0  0
   41.3460   27.8050   33.9880 H   0  0  0  0  0  0  0  0  0  0  0  0
   42.0210   25.8880   35.4460 H   0  0  0  0  0  0  0  0  0  0  0  0
   37.2570   24.6520   31.6380 C   0  0  0  0  0  0  0  0  0  0  0  0
   37.5830   25.7240   32.4740 C   0  0  0  0  0  0  0  0  0  0  0  0
   36.6990   26.8160   32.4950 C   0  0  0  0  0  0  0  0  0  0  0  0
   35.5870   26.7710   31.7080 N   0  0  0  0  0  0  0  0  0  0  0  0
   35.3060   25.7300   30.9180 C   0  0  0  0  0  0  0  0  0  0  0  0
   36.1430   24.6610   30.8790 N   0  0  0  0  0  0  0  0  0  0  0  0
   37.9700   23.8180   31.6470 H   0  0  0  0  0  0  0  0  0  0  0  0
   36.9000   27.6850   33.1310 H   0  0  0  0  0  0  0  0  0  0  0  0
   34.4210   25.7120   30.3030 H   0  0  0  0  0  0  0  0  0  0  0  0
   40.7390   23.6320   35.7310 C   0  0  0  0  0  0  0  0  0  0  0  0
   41.9040   22.9870   35.3710 C   0  0  0  0  0  0  0  0  0  0  0  0
   42.4690   23.2770   34.4880 H   0  0  0  0  0  0  0  0  0  0  0  0
   42.4400   21.9360   36.0910 C   0  0  0  0  0  3  0  0  0  0  0  0
   41.7410   21.5500   37.2170 C   0  0  0  0  0  0  0  0  0  0  0  0
   42.0910   20.7210   37.8520 H   0  0  0  0  0  0  0  0  0  0  0  0
   40.5690   22.1660   37.6170 C   0  0  0  0  0  0  0  0  0  0  0  0
   40.0340   21.8420   38.5100 H   0  0  0  0  0  0  0  0  0  0  0  0
   40.0650   23.2200   36.8630 C   0  0  0  0  0  3  0  0  0  0  0  0
  2  1  1  0  0  0  0
  2  7  1  0  0  0  0
  3  2  2  0  0  0  0
  4  3  1  0  0  0  0
  4  5  2  0  0  0  0
  5  6  1  0  0  0  0
  6  7  2  0  0  0  0
  6 10  1  0  0  0  0
  7 20  1  0  0  0  0
  8  4  1  0  0  0  0
  9  5  1  0  0  0  0
 11 17  1  0  0  0  0
 11 12  1  0  0  0  0
 12 13  2  0  0  0  0
 12  3  1  0  0  0  0
 13 18  1  0  0  0  0
 14 13  1  0  0  0  0
 15 14  2  0  0  0  0
 16 15  1  0  0  0  0
 16 11  2  0  0  0  0
 19 15  1  0  0  0  0
 20 28  1  0  0  0  0
 21 20  2  0  0  0  0
 21 23  1  0  0  0  0
 22 21  1  0  0  0  0
 23 24  2  0  0  0  0
 24 26  1  0  0  0  0
 24 25  1  0  0  0  0
 26 27  1  0  0  0  0
 28 26  2  0  0  0  0
M  END
>  <minimizedAffinity>
-4.92037249

$$$$

 OpenBabel03272505013D

 28 30  0  0  0  0  0  0  0  0999 V2000
   40.6570   24.7800   34.0970 Cl  0  0  0  0  0  0  0  0  0  0  0  0
   39.7810   24.2430   35.5110 C   0  0  0  0  0  0  0  0  0  0  0  0
   40.3510   23.3110   36.3090 C   0  0  0  0  0  0  0  0  0  0  0  0
   39.6050   22.9160   37.4280 C   0  0  0  0  0  0  0  0  0  0  0  0
   38.3480   23.4810   37.6690 C   0  0  0  0  0  0  0  0  0  0  0  0
   37.8140   24.4220   36.8310 C   0  0  0  0  0  0  0  0  0  0  0  0
   38.5540   24.8070   35.7290 C   0  0  0  0  0  0  0  0  0  0  0  0
   40.0360   22.1650   38.0950 H   0  0  0  0  0  0  0  0  0  0  0  0
   37.8410   23.1210   38.5550 H   0  0  0  0  0  0  0  0  0  0  0  0
   36.8450   24.8410   37.0380 H   0  0  0  0  0  0  0  0  0  0  0  0
   42.8400   23.3380   36.4620 C   0  0  0  0  0  0  0  0  0  0  0  0
   41.6510   22.7080   36.0860 C   0  0  0  0  0  0  0  0  0  0  0  0
   41.7560   21.4470   35.4750 C   0  0  0  0  0  0  0  0  0  0  0  0
   42.9960   20.9150   35.2840 N   0  0  0  0  0  0  0  0  0  0  0  0
   44.1150   21.5470   35.6560 C   0  0  0  0  0  0  0  0  0  0  0  0
   44.0410   22.7670   36.2480 N   0  0  0  0  0  0  0  0  0  0  0  0
   42.7190   24.3210   36.9350 H   0  0  0  0  0  0  0  0  0  0  0  0
   40.8590   20.9030   35.1590 H   0  0  0  0  0  0  0  0  0  0  0  0
   45.0880   21.1100   35.4960 H   0  0  0  0  0  0  0  0  0  0  0  0
   37.9320   25.8130   34.8730 C   0  0  0  0  0  0  0  0  0  0  0  0
   37.5190   25.3910   33.6260 C   0  0  0  0  0  0  0  0  0  0  0  0
   37.6520   24.3630   33.2970 H   0  0  0  0  0  0  0  0  0  0  0  0
   36.9140   26.2270   32.7060 C   0  0  0  0  0  3  0  0  0  0  0  0
   36.7350   27.5380   33.1010 C   0  0  0  0  0  0  0  0  0  0  0  0
   36.2620   28.2770   32.4350 H   0  0  0  0  0  0  0  0  0  0  0  0
   37.1310   28.0060   34.3410 C   0  0  0  0  0  0  0  0  0  0  0  0
   36.9800   29.0470   34.6290 H   0  0  0  0  0  0  0  0  0  0  0  0
   37.7370   27.1300   35.2340 C   0  0  0  0  0  3  0  0  0  0  0  0
  1  2  1  0  0  0  0
  2  7  2  0  0  0  0
  2  3  1  0  0  0  0
  3  4  2  0  0  0  0
  4  5  1  0  0  0  0
  4  8  1  0  0  0  0
  5  9  1  0  0  0  0
  6 10  1  0  0  0  0
  6  5  2  0  0  0  0
  7  6  1  0  0  0  0
 11 17  1  0  0  0  0
 12  3  1  0  0  0  0
 12 11  2  0  0  0  0
 13 12  1  0  0  0  0
 14 13  2  0  0  0  0
 14 15  1  0  0  0  0
 15 16  2  0  0  0  0
 16 11  1  0  0  0  0
 18 13  1  0  0  0  0
 19 15  1  0  0  0  0
 20 28  1  0  0  0  0
 20  7  1  0  0  0  0
 21 20  2  0  0  0  0
 22 21  1  0  0  0  0
 23 24  2  0  0  0  0
 23 21  1  0  0  0  0
 24 26  1  0  0  0  0
 25 24  1  0  0  0  0
 26 27  1  0  0  0  0
 26 28  2  0  0  0  0
M  END
>  <minimizedAffinity>
-4.87437153

$$$$

 OpenBabel03272505013D

 28 30  0  0  0  0  0  0  0  0999 V2000
   35.2070   24.9080   30.7950 Cl  0  0  0  0  0  0  0  0  0  0  0  0
   36.5480   24.9330   31.9180 C   0  0  0  0  0  0  0  0  0  0  0  0
   37.0690   26.1290   32.2730 C   0  0  0  0  0  0  0  0  0  0  0  0
   38.1420   26.0910   33.1740 C   0  0  0  0  0  0  0  0  0  0  0  0
   38.6130   24.8640   33.6560 C   0  0  0  0  0  0  0  0  0  0  0  0
   38.0490   23.6800   33.2650 C   0  0  0  0  0  0  0  0  0  0  0  0
   36.9930   23.7230   32.3760 C   0  0  0  0  0  0  0  0  0  0  0  0
   38.5880   27.0400   33.4840 H   0  0  0  0  0  0  0  0  0  0  0  0
   39.4430   24.9260   34.3480 H   0  0  0  0  0  0  0  0  0  0  0  0
   38.4300   22.7490   33.6490 H   0  0  0  0  0  0  0  0  0  0  0  0
   35.6780   28.1860   32.5010 C   0  0  0  0  0  0  0  0  0  0  0  0
   36.6040   27.4160   31.7930 C   0  0  0  0  0  0  0  0  0  0  0  0
   37.0810   27.9370   30.5770 C   0  0  0  0  0  0  0  0  0  0  0  0
   36.6180   29.1500   30.1620 N   0  0  0  0  0  0  0  0  0  0  0  0
   35.7300   29.8610   30.8650 C   0  0  0  0  0  0  0  0  0  0  0  0
   35.2540   29.3800   32.0430 N   0  0  0  0  0  0  0  0  0  0  0  0
   35.3290   27.7470   33.4440 H   0  0  0  0  0  0  0  0  0  0  0  0
   37.8080   27.3800   29.9780 H   0  0  0  0  0  0  0  0  0  0  0  0
   35.3760   30.8190   30.5210 H   0  0  0  0  0  0  0  0  0  0  0  0
   36.4350   22.4280   31.9970 C   0  0  0  0  0  0  0  0  0  0  0  0
   37.1460   21.6990   31.0650 C   0  0  0  0  0  0  0  0  0  0  0  0
   38.0730   22.0700   30.6350 H   0  0  0  0  0  0  0  0  0  0  0  0
   36.7440   20.4580   30.6100 C   0  0  0  0  0  3  0  0  0  0  0  0
   35.5690   19.9650   31.1410 C   0  0  0  0  0  0  0  0  0  0  0  0
   35.1700   18.9840   30.8380 H   0  0  0  0  0  0  0  0  0  0  0  0
   34.8230   20.6590   32.0770 C   0  0  0  0  0  0  0  0  0  0  0  0
   33.8970   20.2490   32.4810 H   0  0  0  0  0  0  0  0  0  0  0  0
   35.2640   21.9050   32.5070 C   0  0  0  0  0  3  0  0  0  0  0  0
  1  2  1  0  0  0  0
  2  3  2  0  0  0  0
  2  7  1  0  0  0  0
  3  4  1  0  0  0  0
  4  8  1  0  0  0  0
  4  5  2  0  0  0  0
  5  9  1  0  0  0  0
  6 10  1  0  0  0  0
  6  5  1  0  0  0  0
  7  6  2  0  0  0  0
 11 17  1  0  0  0  0
 12  3  1  0  0  0  0
 12 11  2  0  0  0  0
 13 12  1  0  0  0  0
 14 13  2  0  0  0  0
 14 15  1  0  0  0  0
 15 16  2  0  0  0  0
 16 11  1  0  0  0  0
 18 13  1  0  0  0  0
 19 15  1  0  0  0  0
 20  7  1  0  0  0  0
 20 28  1  0  0  0  0
 21 20  2  0  0  0  0
 22 21  1  0  0  0  0
 23 21  1  0  0  0  0
 23 24  2  0  0  0  0
 24 26  1  0  0  0  0
 25 24  1  0  0  0  0
 26 27  1  0  0  0  0
 26 28  2  0  0  0  0
M  END
>  <minimizedAffinity>
-4.85365343

$$$$
