
 OpenBabel03272509273D

 41 43  0  0  1  0  0  0  0  0999 V2000
   38.4120   31.1970   48.5870 C   0  0  2  0  0  0  0  0  0  0  0  0
   38.4130   31.9520   49.9070 C   0  0  0  0  0  0  0  0  0  0  0  0
   38.7080   33.4010   49.6930 C   0  0  0  0  0  0  0  0  0  0  0  0
   39.6580   33.5620   48.5160 C   0  0  0  0  0  0  0  0  0  0  0  0
   38.7330   33.4010   47.3430 C   0  0  0  0  0  0  0  0  0  0  0  0
   38.1600   32.0060   47.4110 C   0  0  1  0  0  0  0  0  0  0  0  0
   39.3750   30.6160   48.6240 H   0  0  0  0  0  0  0  0  0  0  0  0
   39.0730   31.5240   50.6630 H   0  0  0  0  0  0  0  0  0  0  0  0
   37.3790   31.9150   50.3600 H   0  0  0  0  0  0  0  0  0  0  0  0
   39.1890   33.8510   50.5690 H   0  0  0  0  0  0  0  0  0  0  0  0
   37.7900   33.9880   49.4770 H   0  0  0  0  0  0  0  0  0  0  0  0
   39.9920   34.6160   48.5350 H   0  0  0  0  0  0  0  0  0  0  0  0
   40.4720   32.8330   48.5420 H   0  0  0  0  0  0  0  0  0  0  0  0
   37.9270   34.1760   47.5140 H   0  0  0  0  0  0  0  0  0  0  0  0
   39.2440   33.7060   46.4490 H   0  0  0  0  0  0  0  0  0  0  0  0
   37.1000   32.1130   47.1830 H   0  0  0  0  0  0  0  0  0  0  0  0
   38.9060   31.4300   46.2040 C   0  0  0  0  0  0  0  0  0  0  0  0
   40.1380   31.9120   45.8020 C   0  0  0  0  0  0  0  0  0  0  0  0
   40.5790   32.7250   46.3710 H   0  0  0  0  0  0  0  0  0  0  0  0
   40.8830   31.4570   44.7400 C   0  0  0  0  0  3  0  0  0  0  0  0
   40.3430   30.4210   44.0120 C   0  0  0  0  0  0  0  0  0  0  0  0
   40.8970   30.0430   43.1790 H   0  0  0  0  0  0  0  0  0  0  0  0
   39.1230   29.8900   44.3540 C   0  0  0  0  0  0  0  0  0  0  0  0
   38.7490   29.0880   43.7570 H   0  0  0  0  0  0  0  0  0  0  0  0
   38.4300   30.3960   45.4320 C   0  0  0  0  0  3  0  0  0  0  0  0
   37.1270   29.9220   48.7530 S   0  0  0  0  0  0  0  0  0  0  0  0
   35.5860   30.3780   47.9310 C   0  0  0  0  0  0  0  0  0  0  0  0
   35.5880   31.5150   47.9300 H   0  0  0  0  0  0  0  0  0  0  0  0
   35.6750   30.1490   46.8720 H   0  0  0  0  0  0  0  0  0  0  0  0
   34.4140   29.8520   48.6830 C   0  0  0  0  0  0  0  0  0  0  0  0
   33.6040   30.6200   48.6670 H   0  0  0  0  0  0  0  0  0  0  0  0
   34.6580   29.5390   49.7220 H   0  0  0  0  0  0  0  0  0  0  0  0
   33.4820   26.4060   47.5930 C   0  0  0  0  0  0  0  0  0  0  0  0
   34.1230   27.4340   48.2710 C   0  0  0  0  0  0  0  0  0  0  0  0
   33.7670   28.7300   48.0390 C   0  0  0  0  0  0  0  0  0  0  0  0
   32.7630   28.9340   47.1220 N   0  0  0  0  0  0  0  0  0  0  0  0
   32.1660   27.9300   46.4880 C   0  0  0  0  0  0  0  0  0  0  0  0
   32.5050   26.6580   46.7040 N   0  0  0  0  0  0  0  0  0  0  0  0
   33.7170   25.3630   47.7300 H   0  0  0  0  0  0  0  0  0  0  0  0
   34.8690   27.0540   48.9490 H   0  0  0  0  0  0  0  0  0  0  0  0
   31.3770   28.1520   45.7720 H   0  0  0  0  0  0  0  0  0  0  0  0
  1  7  1  6  0  0  0
  1 26  1  0  0  0  0
  1  2  1  0  0  0  0
  2  9  1  0  0  0  0
  2  8  1  0  0  0  0
  3  2  1  0  0  0  0
  3 10  1  0  0  0  0
  4 12  1  0  0  0  0
  4 13  1  0  0  0  0
  4  3  1  0  0  0  0
  5  6  1  0  0  0  0
  5 14  1  0  0  0  0
  5  4  1  0  0  0  0
  6 16  1  6  0  0  0
  6  1  1  0  0  0  0
 11  3  1  0  0  0  0
 15  5  1  0  0  0  0
 17  6  1  0  0  0  0
 18 17  1  0  0  0  0
 18 19  1  0  0  0  0
 20 18  2  0  0  0  0
 21 23  2  0  0  0  0
 21 20  1  0  0  0  0
 22 21  1  0  0  0  0
 23 25  1  0  0  0  0
 24 23  1  0  0  0  0
 25 17  2  0  0  0  0
 27 30  1  0  0  0  0
 27 26  1  0  0  0  0
 28 27  1  0  0  0  0
 29 27  1  0  0  0  0
 30 32  1  0  0  0  0
 31 30  1  0  0  0  0
 33 39  1  0  0  0  0
 33 34  1  0  0  0  0
 34 40  1  0  0  0  0
 35 34  2  0  0  0  0
 35 30  1  0  0  0  0
 36 35  1  0  0  0  0
 37 38  1  0  0  0  0
 37 36  2  0  0  0  0
 38 33  2  0  0  0  0
 41 37  1  0  0  0  0
M  END
>  <minimizedAffinity>
-4.61114073

>  <minimizedRMSD>
1.48541844

$$$$
