
 OpenBabel03272506523D

 34 36  0  0  1  0  0  0  0  0999 V2000
   34.6400   30.3350   48.2810 C   0  0  1  0  0  0  0  0  0  0  0  0
   33.6830   30.2370   47.1820 C   0  0  0  0  0  0  0  0  0  0  0  0
   33.4310   28.8690   46.6150 C   0  0  0  0  0  0  0  0  0  0  0  0
   33.4580   27.7420   47.5750 C   0  0  2  0  0  0  0  0  0  0  0  0
   34.3900   27.8440   48.7350 C   0  0  0  0  0  0  0  0  0  0  0  0
   34.4670   29.2300   49.2840 C   0  0  0  0  0  0  0  0  0  0  0  0
   34.3880   31.2660   48.8820 H   0  0  0  0  0  0  0  0  0  0  0  0
   33.7740   30.9260   46.3470 H   0  0  0  0  0  0  0  0  0  0  0  0
   32.6700   30.5150   47.6260 H   0  0  0  0  0  0  0  0  0  0  0  0
   34.2200   28.6990   45.8410 H   0  0  0  0  0  0  0  0  0  0  0  0
   32.4660   28.8720   46.0850 H   0  0  0  0  0  0  0  0  0  0  0  0
   32.4260   27.6080   47.9700 H   0  0  0  0  0  0  0  0  0  0  0  0
   34.0240   27.1880   49.5390 H   0  0  0  0  0  0  0  0  0  0  0  0
   35.3950   27.5100   48.4100 H   0  0  0  0  0  0  0  0  0  0  0  0
   35.0490   29.3050   50.1940 H   0  0  0  0  0  0  0  0  0  0  0  0
   33.4080   29.4120   49.6620 H   0  0  0  0  0  0  0  0  0  0  0  0
   36.4850   30.5530   46.5800 C   0  0  0  0  0  0  0  0  0  0  0  0
   36.0550   30.5860   47.9160 C   0  0  0  0  0  0  0  0  0  0  0  0
   37.0000   30.8660   48.8850 C   0  0  0  0  0  0  0  0  0  0  0  0
   38.2890   31.0940   48.4940 N   0  0  0  0  0  0  0  0  0  0  0  0
   38.6670   31.0550   47.1970 C   0  0  0  0  0  0  0  0  0  0  0  0
   37.7520   30.7810   46.2390 N   0  0  0  0  0  0  0  0  0  0  0  0
   35.8190   30.3420   45.7570 H   0  0  0  0  0  0  0  0  0  0  0  0
   36.7820   30.9180   49.9410 H   0  0  0  0  0  0  0  0  0  0  0  0
   39.6950   31.2380   46.9080 H   0  0  0  0  0  0  0  0  0  0  0  0
   33.8050   26.5040   46.8210 C   0  0  0  0  0  0  0  0  0  0  0  0
   34.0330   26.6350   45.4470 C   0  0  0  0  0  0  0  0  0  0  0  0
   33.9640   27.5950   44.9310 H   0  0  0  0  0  0  0  0  0  0  0  0
   34.3590   25.4960   44.7150 C   0  0  0  0  0  0  0  0  0  0  0  0
   34.4510   24.2880   45.3340 C   0  0  0  0  0  0  0  0  0  0  0  0
   34.7050   23.4090   44.7570 H   0  0  0  0  0  0  0  0  0  0  0  0
   34.2270   24.1620   46.6880 C   0  0  0  0  0  0  0  0  0  0  0  0
   34.3140   23.1620   47.1410 H   0  0  0  0  0  0  0  0  0  0  0  0
   33.8970   25.2810   47.4540 C   0  0  0  0  0  0  0  0  0  0  0  0
  1  7  1  1  0  0  0
  1  6  1  0  0  0  0
  2  9  1  0  0  0  0
  2  1  1  0  0  0  0
  3  2  1  0  0  0  0
  3  4  1  0  0  0  0
  4 12  1  1  0  0  0
  4  5  1  0  0  0  0
  5  6  1  0  0  0  0
  5 13  1  0  0  0  0
  6 16  1  0  0  0  0
  6 15  1  0  0  0  0
  8  2  1  0  0  0  0
 10  3  1  0  0  0  0
 11  3  1  0  0  0  0
 14  5  1  0  0  0  0
 17 18  1  0  0  0  0
 18  1  1  0  0  0  0
 18 19  2  0  0  0  0
 19 24  1  0  0  0  0
 20 19  1  0  0  0  0
 21 20  2  0  0  0  0
 22 17  2  0  0  0  0
 22 21  1  0  0  0  0
 23 17  1  0  0  0  0
 25 21  1  0  0  0  0
 26 34  1  0  0  0  0
 26  4  1  0  0  0  0
 27 26  2  0  0  0  0
 28 27  1  0  0  0  0
 29 30  2  0  0  0  0
 29 27  1  0  0  0  0
 30 32  1  0  0  0  0
 31 30  1  0  0  0  0
 32 33  1  0  0  0  0
 32 34  2  0  0  0  0
M  END
>  <minimizedAffinity>
-4.68327236

>  <minimizedRMSD>
1.8254931

$$$$
