
 OpenBabel03272509273D

 41 43  0  0  1  0  0  0  0  0999 V2000
   38.4310   32.0630   48.7980 C   0  0  2  0  0  0  0  0  0  0  0  0
   38.9360   32.8700   49.9840 C   0  0  0  0  0  0  0  0  0  0  0  0
   39.5750   34.1420   49.5310 C   0  0  0  0  0  0  0  0  0  0  0  0
   40.2490   33.9260   48.1840 C   0  0  0  0  0  0  0  0  0  0  0  0
   39.0830   33.9760   47.2400 C   0  0  0  0  0  0  0  0  0  0  0  0
   38.1670   32.8290   47.5960 C   0  0  1  0  0  0  0  0  0  0  0  0
   39.1730   31.2210   48.7270 H   0  0  0  0  0  0  0  0  0  0  0  0
   39.5970   32.3140   50.6510 H   0  0  0  0  0  0  0  0  0  0  0  0
   38.0600   33.1810   50.6260 H   0  0  0  0  0  0  0  0  0  0  0  0
   40.3440   34.4830   50.2340 H   0  0  0  0  0  0  0  0  0  0  0  0
   38.8370   34.9650   49.4180 H   0  0  0  0  0  0  0  0  0  0  0  0
   40.8640   34.8270   48.0030 H   0  0  0  0  0  0  0  0  0  0  0  0
   40.8080   32.9870   48.1510 H   0  0  0  0  0  0  0  0  0  0  0  0
   38.5870   34.9680   47.4570 H   0  0  0  0  0  0  0  0  0  0  0  0
   39.4490   34.0490   46.2320 H   0  0  0  0  0  0  0  0  0  0  0  0
   37.1580   33.2380   47.5610 H   0  0  0  0  0  0  0  0  0  0  0  0
   38.4350   31.9720   46.3550 C   0  0  0  0  0  0  0  0  0  0  0  0
   39.4170   30.9980   46.3310 C   0  0  0  0  0  0  0  0  0  0  0  0
   40.0060   30.8480   47.2280 H   0  0  0  0  0  0  0  0  0  0  0  0
   39.7240   30.1790   45.2710 C   0  0  0  0  0  3  0  0  0  0  0  0
   38.9780   30.3510   44.1260 C   0  0  0  0  0  0  0  0  0  0  0  0
   39.1920   29.7300   43.2820 H   0  0  0  0  0  0  0  0  0  0  0  0
   37.9860   31.3000   44.0780 C   0  0  0  0  0  0  0  0  0  0  0  0
   37.4370   31.3920   43.1660 H   0  0  0  0  0  0  0  0  0  0  0  0
   37.7310   32.0870   45.1780 C   0  0  0  0  0  3  0  0  0  0  0  0
   36.9060   31.2550   49.3690 S   0  0  0  0  0  0  0  0  0  0  0  0
   36.5040   29.7770   48.4140 C   0  0  0  0  0  0  0  0  0  0  0  0
   37.4850   29.4770   47.9240 H   0  0  0  0  0  0  0  0  0  0  0  0
   36.3300   28.9540   49.1010 H   0  0  0  0  0  0  0  0  0  0  0  0
   35.4730   30.0830   47.3840 C   0  0  0  0  0  0  0  0  0  0  0  0
   35.8240   29.6930   46.3990 H   0  0  0  0  0  0  0  0  0  0  0  0
   35.2110   31.1620   47.3250 H   0  0  0  0  0  0  0  0  0  0  0  0
   32.7980   27.8620   48.7420 C   0  0  0  0  0  0  0  0  0  0  0  0
   33.9930   28.5620   48.6490 C   0  0  0  0  0  0  0  0  0  0  0  0
   34.2370   29.3520   47.5650 C   0  0  0  0  0  0  0  0  0  0  0  0
   33.2500   29.4030   46.6090 N   0  0  0  0  0  0  0  0  0  0  0  0
   32.1150   28.7220   46.7250 C   0  0  0  0  0  0  0  0  0  0  0  0
   31.8630   27.9440   47.7800 N   0  0  0  0  0  0  0  0  0  0  0  0
   32.5460   27.2200   49.5700 H   0  0  0  0  0  0  0  0  0  0  0  0
   34.6200   28.3890   49.5070 H   0  0  0  0  0  0  0  0  0  0  0  0
   31.3690   28.8010   45.9370 H   0  0  0  0  0  0  0  0  0  0  0  0
  1  7  1  6  0  0  0
  1 26  1  0  0  0  0
  1  2  1  0  0  0  0
  2  9  1  0  0  0  0
  2  8  1  0  0  0  0
  3  2  1  0  0  0  0
  3 10  1  0  0  0  0
  4  3  1  0  0  0  0
  5 14  1  0  0  0  0
  5  6  1  0  0  0  0
  5  4  1  0  0  0  0
  6 16  1  6  0  0  0
  6  1  1  0  0  0  0
 11  3  1  0  0  0  0
 12  4  1  0  0  0  0
 13  4  1  0  0  0  0
 15  5  1  0  0  0  0
 17  6  1  0  0  0  0
 18 17  1  0  0  0  0
 18 19  1  0  0  0  0
 20 18  2  0  0  0  0
 21 20  1  0  0  0  0
 22 21  1  0  0  0  0
 23 21  2  0  0  0  0
 23 25  1  0  0  0  0
 24 23  1  0  0  0  0
 25 17  2  0  0  0  0
 27 29  1  0  0  0  0
 27 26  1  0  0  0  0
 28 27  1  0  0  0  0
 30 35  1  0  0  0  0
 30 27  1  0  0  0  0
 31 30  1  0  0  0  0
 32 30  1  0  0  0  0
 33 39  1  0  0  0  0
 34 33  1  0  0  0  0
 34 40  1  0  0  0  0
 35 34  2  0  0  0  0
 36 37  2  0  0  0  0
 36 35  1  0  0  0  0
 37 38  1  0  0  0  0
 38 33  2  0  0  0  0
 41 37  1  0  0  0  0
M  END
>  <minimizedAffinity>
-3.3900404

>  <minimizedRMSD>
1.21225858

$$$$
