
 OpenBabel03272501173D

 35 38  0  0  1  0  0  0  0  0999 V2000
   35.0490   29.1980   50.5850 C   0  0  0  0  0  0  0  0  0  0  0  0
   35.0910   28.3090   51.2490 H   0  0  0  0  0  0  0  0  0  0  0  0
   34.5890   30.0260   51.1820 H   0  0  0  0  0  0  0  0  0  0  0  0
   36.7820   31.0000   50.1660 C   0  0  1  0  0  0  0  0  0  0  0  0
   36.4030   29.6240   50.1100 C   0  0  1  0  0  0  0  0  0  0  0  0
   37.5140   29.9810   51.0610 C   0  0  0  0  0  0  0  0  0  0  0  0
   36.1740   31.7520   50.7040 H   0  0  0  0  0  0  0  0  0  0  0  0
   36.7840   29.0200   49.2370 H   0  0  0  0  0  0  0  0  0  0  0  0
   38.5530   29.7270   50.8310 H   0  0  0  0  0  0  0  0  0  0  0  0
   37.1980   30.0140   52.1100 H   0  0  0  0  0  0  0  0  0  0  0  0
   37.7210   31.6130   49.1420 C   0  0  0  0  0  0  0  0  0  0  0  0
   38.2130   32.8710   49.4470 C   0  0  0  0  0  0  0  0  0  0  0  0
   39.0580   33.4280   48.4710 C   0  0  0  0  0  0  0  0  0  0  0  0
   39.3400   32.7380   47.3280 N   0  0  0  0  0  0  0  0  0  0  0  0
   38.8310   31.5060   47.0810 C   0  0  0  0  0  0  0  0  0  0  0  0
   38.0010   30.9260   48.0080 N   0  0  0  0  0  0  0  0  0  0  0  0
   37.9570   33.3740   50.3670 H   0  0  0  0  0  0  0  0  0  0  0  0
   39.4710   34.4080   48.6520 H   0  0  0  0  0  0  0  0  0  0  0  0
   39.0620   30.9700   46.1760 H   0  0  0  0  0  0  0  0  0  0  0  0
   34.1000   28.9540   49.4660 C   0  0  0  0  0  0  0  0  0  0  0  0
   34.2510   29.5210   48.2230 C   0  0  0  0  0  0  0  0  0  0  0  0
   33.2630   29.1490   47.3940 N   0  0  0  0  0  0  0  0  0  0  0  0
   32.4720   28.3280   48.1370 C   0  0  0  0  0  0  0  0  0  0  0  0
   32.9830   28.2170   49.3800 N   0  0  0  0  0  0  0  0  0  0  0  0
   35.0470   30.1880   47.9010 H   0  0  0  0  0  0  0  0  0  0  0  0
   33.1060   29.4130   46.3920 H   0  0  0  0  0  0  0  0  0  0  0  0
   31.2610   27.6810   47.6340 C   0  0  0  0  0  0  0  0  0  0  0  0
   30.1690   27.5680   48.4690 C   0  0  0  0  0  0  0  0  0  0  0  0
   30.1400   27.9300   49.4970 H   0  0  0  0  0  0  0  0  0  0  0  0
   29.0180   26.9560   47.9960 C   0  0  0  0  0  0  0  0  0  0  0  0
   28.9830   26.4700   46.6950 C   0  0  0  0  0  0  0  0  0  0  0  0
   28.1160   25.9760   46.2490 H   0  0  0  0  0  0  0  0  0  0  0  0
   30.0990   26.5930   45.8610 C   0  0  0  0  0  0  0  0  0  0  0  0
   30.1180   26.2330   44.8500 H   0  0  0  0  0  0  0  0  0  0  0  0
   31.2410   27.2040   46.3380 C   0  0  0  0  0  0  0  0  0  0  0  0
  1  3  1  0  0  0  0
  1  2  1  0  0  0  0
  4  7  1  1  0  0  0
  4  6  1  0  0  0  0
  5  8  1  6  0  0  0
  5  4  1  0  0  0  0
  5  1  1  0  0  0  0
  5  6  1  0  0  0  0
  6 10  1  0  0  0  0
  9  6  1  0  0  0  0
 11 12  1  0  0  0  0
 11  4  1  0  0  0  0
 12 17  1  0  0  0  0
 13 18  1  0  0  0  0
 13 12  2  0  0  0  0
 14 13  1  0  0  0  0
 15 14  2  0  0  0  0
 15 16  1  0  0  0  0
 16 11  2  0  0  0  0
 19 15  1  0  0  0  0
 20  1  1  0  0  0  0
 21 20  2  0  0  0  0
 22 23  1  0  0  0  0
 22 21  1  0  0  0  0
 23 24  2  0  0  0  0
 24 20  1  0  0  0  0
 25 21  1  0  0  0  0
 26 22  1  0  0  0  0
 27 23  1  0  0  0  0
 27 28  1  0  0  0  0
 28 29  1  0  0  0  0
 30 28  2  0  0  0  0
 31 30  1  0  0  0  0
 32 31  1  0  0  0  0
 33 35  1  0  0  0  0
 33 31  2  0  0  0  0
 34 33  1  0  0  0  0
 35 27  2  0  0  0  0
M  END
>  <minimizedAffinity>
-5.79091072

>  <minimizedRMSD>
0.636789799

$$$$
