
 OpenBabel03272506313D

 34 36  0  0  1  0  0  0  0  0999 V2000
   38.4090   24.7890   33.5630 C   0  0  1  0  0  0  0  0  0  0  0  0
   39.7390   24.9400   32.9680 C   0  0  0  0  0  0  0  0  0  0  0  0
   40.3760   26.3010   33.0480 C   0  0  0  0  0  0  0  0  0  0  0  0
   40.1370   27.0400   34.3060 C   0  0  0  0  0  0  0  0  0  0  0  0
   38.8110   26.9110   34.9160 C   0  0  0  0  0  0  0  0  0  0  0  0
   38.2280   25.5420   34.8560 C   0  0  2  0  0  0  0  0  0  0  0  0
   38.2700   23.7060   33.8690 H   0  0  0  0  0  0  0  0  0  0  0  0
   39.8630   24.5990   31.9430 H   0  0  0  0  0  0  0  0  0  0  0  0
   40.4910   24.2820   33.5230 H   0  0  0  0  0  0  0  0  0  0  0  0
   39.9500   26.9070   32.2030 H   0  0  0  0  0  0  0  0  0  0  0  0
   41.4510   26.2290   32.8560 H   0  0  0  0  0  0  0  0  0  0  0  0
   40.3130   28.1310   34.0670 H   0  0  0  0  0  0  0  0  0  0  0  0
   40.9420   26.7980   35.0300 H   0  0  0  0  0  0  0  0  0  0  0  0
   38.1500   27.7240   34.5420 H   0  0  0  0  0  0  0  0  0  0  0  0
   38.9220   27.1470   36.0160 H   0  0  0  0  0  0  0  0  0  0  0  0
   37.1550   25.7500   34.9790 H   0  0  0  0  0  0  0  0  0  0  0  0
   36.7900   26.2930   32.2740 C   0  0  0  0  0  0  0  0  0  0  0  0
   37.2710   25.0090   32.6350 C   0  0  0  0  0  0  0  0  0  0  0  0
   36.6100   23.9260   32.0890 C   0  0  0  0  0  0  0  0  0  0  0  0
   35.5560   24.1230   31.2570 N   0  0  0  0  0  0  0  0  0  0  0  0
   35.1300   25.3750   30.9430 C   0  0  0  0  0  0  0  0  0  0  0  0
   35.7590   26.4540   31.4590 N   0  0  0  0  0  0  0  0  0  0  0  0
   37.2620   27.1760   32.6630 H   0  0  0  0  0  0  0  0  0  0  0  0
   36.7840   22.8760   32.1830 H   0  0  0  0  0  0  0  0  0  0  0  0
   34.2930   25.5620   30.2820 H   0  0  0  0  0  0  0  0  0  0  0  0
   38.5260   24.6930   36.0560 C   0  0  0  0  0  0  0  0  0  0  0  0
   37.8410   24.9340   37.2570 C   0  0  0  0  0  0  0  0  0  0  0  0
   37.0860   25.7300   37.3400 H   0  0  0  0  0  0  0  0  0  0  0  0
   38.0540   24.1980   38.4310 C   0  0  0  0  0  3  0  0  0  0  0  0
   38.9870   23.1840   38.3990 C   0  0  0  0  0  0  0  0  0  0  0  0
   39.1560   22.6130   39.2990 H   0  0  0  0  0  0  0  0  0  0  0  0
   39.6810   22.9150   37.2380 C   0  0  0  0  0  0  0  0  0  0  0  0
   40.4140   22.1220   37.2090 H   0  0  0  0  0  0  0  0  0  0  0  0
   39.4400   23.6640   36.1110 C   0  0  0  0  0  3  0  0  0  0  0  0
  1  7  1  1  0  0  0
  1  6  1  0  0  0  0
  2  3  1  0  0  0  0
  2  9  1  0  0  0  0
  2  1  1  0  0  0  0
  3  4  1  0  0  0  0
  4  5  1  0  0  0  0
  4 13  1  0  0  0  0
  5 15  1  0  0  0  0
  6  5  1  0  0  0  0
  6 16  1  1  0  0  0
  6 26  1  0  0  0  0
  8  2  1  0  0  0  0
 10  3  1  0  0  0  0
 11  3  1  0  0  0  0
 12  4  1  0  0  0  0
 14  5  1  0  0  0  0
 17 18  1  0  0  0  0
 17 23  1  0  0  0  0
 18  1  1  0  0  0  0
 19 24  1  0  0  0  0
 19 18  2  0  0  0  0
 20 19  1  0  0  0  0
 21 20  2  0  0  0  0
 21 22  1  0  0  0  0
 22 17  2  0  0  0  0
 25 21  1  0  0  0  0
 26 34  2  0  0  0  0
 26 27  1  0  0  0  0
 27 28  1  0  0  0  0
 27 29  2  0  0  0  0
 30 29  1  0  0  0  0
 30 31  1  0  0  0  0
 32 30  2  0  0  0  0
 33 32  1  0  0  0  0
 34 32  1  0  0  0  0
M  END
>  <minimizedAffinity>
-5.52098465

$$$$

 OpenBabel03272506313D

 34 36  0  0  1  0  0  0  0  0999 V2000
   38.2610   26.3180   34.9040 C   0  0  1  0  0  0  0  0  0  0  0  0
   39.5210   26.9210   35.3440 C   0  0  0  0  0  0  0  0  0  0  0  0
   40.6590   26.9270   34.3600 C   0  0  0  0  0  0  0  0  0  0  0  0
   40.2780   27.1670   32.9510 C   0  0  0  0  0  0  0  0  0  0  0  0
   39.0250   26.5660   32.4860 C   0  0  0  0  0  0  0  0  0  0  0  0
   37.9080   26.6150   33.4700 C   0  0  2  0  0  0  0  0  0  0  0  0
   37.4100   26.7900   35.4870 H   0  0  0  0  0  0  0  0  0  0  0  0
   39.9300   26.5750   36.2900 H   0  0  0  0  0  0  0  0  0  0  0  0
   39.3680   28.0350   35.5530 H   0  0  0  0  0  0  0  0  0  0  0  0
   41.1440   25.9160   34.4210 H   0  0  0  0  0  0  0  0  0  0  0  0
   41.4240   27.6480   34.6670 H   0  0  0  0  0  0  0  0  0  0  0  0
   41.1230   26.7560   32.3230 H   0  0  0  0  0  0  0  0  0  0  0  0
   40.3060   28.2570   32.7470 H   0  0  0  0  0  0  0  0  0  0  0  0
   39.2330   25.5620   32.0540 H   0  0  0  0  0  0  0  0  0  0  0  0
   38.6730   27.1680   31.5960 H   0  0  0  0  0  0  0  0  0  0  0  0
   37.2560   25.8070   33.1070 H   0  0  0  0  0  0  0  0  0  0  0  0
   38.1620   23.8480   34.2480 C   0  0  0  0  0  0  0  0  0  0  0  0
   38.1040   24.8760   35.2230 C   0  0  0  0  0  0  0  0  0  0  0  0
   37.8680   24.4810   36.5250 C   0  0  0  0  0  0  0  0  0  0  0  0
   37.7030   23.1650   36.8150 N   0  0  0  0  0  0  0  0  0  0  0  0
   37.7650   22.2150   35.8450 C   0  0  0  0  0  0  0  0  0  0  0  0
   37.9970   22.5720   34.5620 N   0  0  0  0  0  0  0  0  0  0  0  0
   38.3440   24.0890   33.2180 H   0  0  0  0  0  0  0  0  0  0  0  0
   37.8000   25.0450   37.4290 H   0  0  0  0  0  0  0  0  0  0  0  0
   37.6370   21.1600   36.0470 H   0  0  0  0  0  0  0  0  0  0  0  0
   37.0230   27.8190   33.3380 C   0  0  0  0  0  0  0  0  0  0  0  0
   36.9010   28.4500   32.0910 C   0  0  0  0  0  0  0  0  0  0  0  0
   37.4360   28.0820   31.2030 H   0  0  0  0  0  0  0  0  0  0  0  0
   36.1030   29.5820   31.8710 C   0  0  0  0  0  3  0  0  0  0  0  0
   35.4040   30.0990   32.9410 C   0  0  0  0  0  0  0  0  0  0  0  0
   34.7870   30.9700   32.7780 H   0  0  0  0  0  0  0  0  0  0  0  0
   35.4970   29.5070   34.1820 C   0  0  0  0  0  0  0  0  0  0  0  0
   34.9510   29.9090   35.0230 H   0  0  0  0  0  0  0  0  0  0  0  0
   36.2920   28.3990   34.3520 C   0  0  0  0  0  3  0  0  0  0  0  0
  1 18  1  0  0  0  0
  1  2  1  0  0  0  0
  1  7  1  1  0  0  0
  2  9  1  0  0  0  0
  2  8  1  0  0  0  0
  3 10  1  0  0  0  0
  3 11  1  0  0  0  0
  3  2  1  0  0  0  0
  4  3  1  0  0  0  0
  5  4  1  0  0  0  0
  5  6  1  0  0  0  0
  6 16  1  6  0  0  0
  6  1  1  0  0  0  0
 12  4  1  0  0  0  0
 13  4  1  0  0  0  0
 14  5  1  0  0  0  0
 15  5  1  0  0  0  0
 17 22  2  0  0  0  0
 17 18  1  0  0  0  0
 18 19  2  0  0  0  0
 19 20  1  0  0  0  0
 19 24  1  0  0  0  0
 21 25  1  0  0  0  0
 21 20  2  0  0  0  0
 22 21  1  0  0  0  0
 23 17  1  0  0  0  0
 26  6  1  0  0  0  0
 26 34  1  0  0  0  0
 27 26  2  0  0  0  0
 28 27  1  0  0  0  0
 29 27  1  0  0  0  0
 29 30  2  0  0  0  0
 30 32  1  0  0  0  0
 31 30  1  0  0  0  0
 32 34  2  0  0  0  0
 32 33  1  0  0  0  0
M  END
>  <minimizedAffinity>
-5.35239172

$$$$

 OpenBabel03272506313D

 34 36  0  0  1  0  0  0  0  0999 V2000
   38.8800   25.2520   34.0130 C   0  0  1  0  0  0  0  0  0  0  0  0
   39.3090   26.6340   34.2380 C   0  0  0  0  0  0  0  0  0  0  0  0
   38.6290   27.3930   35.3460 C   0  0  0  0  0  0  0  0  0  0  0  0
   38.3170   26.6010   36.5560 C   0  0  0  0  0  0  0  0  0  0  0  0
   37.8780   25.2180   36.3560 C   0  0  0  0  0  0  0  0  0  0  0  0
   38.6010   24.4850   35.2800 C   0  0  2  0  0  0  0  0  0  0  0  0
   39.7380   24.6790   33.5430 H   0  0  0  0  0  0  0  0  0  0  0  0
   39.3210   27.2940   33.3730 H   0  0  0  0  0  0  0  0  0  0  0  0
   40.4050   26.6550   34.5600 H   0  0  0  0  0  0  0  0  0  0  0  0
   37.6620   27.7800   34.9260 H   0  0  0  0  0  0  0  0  0  0  0  0
   39.2160   28.2750   35.6180 H   0  0  0  0  0  0  0  0  0  0  0  0
   37.4940   27.1610   37.0930 H   0  0  0  0  0  0  0  0  0  0  0  0
   39.1730   26.6580   37.2590 H   0  0  0  0  0  0  0  0  0  0  0  0
   36.7680   25.1860   36.2880 H   0  0  0  0  0  0  0  0  0  0  0  0
   38.1000   24.6530   37.3100 H   0  0  0  0  0  0  0  0  0  0  0  0
   37.8880   23.6820   35.0390 H   0  0  0  0  0  0  0  0  0  0  0  0
   37.0890   26.1610   32.4290 C   0  0  0  0  0  0  0  0  0  0  0  0
   37.7950   25.0800   33.0140 C   0  0  0  0  0  0  0  0  0  0  0  0
   37.4130   23.8100   32.6250 C   0  0  0  0  0  0  0  0  0  0  0  0
   36.4080   23.6490   31.7290 N   0  0  0  0  0  0  0  0  0  0  0  0
   35.7590   24.7180   31.1960 C   0  0  0  0  0  0  0  0  0  0  0  0
   36.1120   25.9720   31.5560 N   0  0  0  0  0  0  0  0  0  0  0  0
   37.3390   27.1730   32.6880 H   0  0  0  0  0  0  0  0  0  0  0  0
   37.7910   22.8490   32.8970 H   0  0  0  0  0  0  0  0  0  0  0  0
   34.9530   24.6190   30.4800 H   0  0  0  0  0  0  0  0  0  0  0  0
   39.7970   23.7140   35.7550 C   0  0  0  0  0  0  0  0  0  0  0  0
   39.7170   22.9900   36.9530 C   0  0  0  0  0  0  0  0  0  0  0  0
   38.7960   22.9700   37.5550 H   0  0  0  0  0  0  0  0  0  0  0  0
   40.7820   22.2450   37.4800 C   0  0  0  0  0  3  0  0  0  0  0  0
   41.9680   22.2260   36.7780 C   0  0  0  0  0  0  0  0  0  0  0  0
   42.7920   21.6530   37.1770 H   0  0  0  0  0  0  0  0  0  0  0  0
   42.0860   22.9230   35.5950 C   0  0  0  0  0  0  0  0  0  0  0  0
   43.0140   22.9110   35.0420 H   0  0  0  0  0  0  0  0  0  0  0  0
   41.0160   23.6420   35.1170 C   0  0  0  0  0  3  0  0  0  0  0  0
  1  7  1  6  0  0  0
  1  2  1  0  0  0  0
  1  6  1  0  0  0  0
  2  9  1  0  0  0  0
  2  3  1  0  0  0  0
  3 11  1  0  0  0  0
  3  4  1  0  0  0  0
  4 12  1  0  0  0  0
  4 13  1  0  0  0  0
  5  4  1  0  0  0  0
  5 15  1  0  0  0  0
  6 16  1  6  0  0  0
  6 26  1  0  0  0  0
  6  5  1  0  0  0  0
  8  2  1  0  0  0  0
 10  3  1  0  0  0  0
 14  5  1  0  0  0  0
 17 23  1  0  0  0  0
 17 18  1  0  0  0  0
 18  1  1  0  0  0  0
 19 24  1  0  0  0  0
 19 18  2  0  0  0  0
 20 19  1  0  0  0  0
 21 22  1  0  0  0  0
 21 20  2  0  0  0  0
 22 17  2  0  0  0  0
 25 21  1  0  0  0  0
 26 27  1  0  0  0  0
 27 29  2  0  0  0  0
 27 28  1  0  0  0  0
 30 31  1  0  0  0  0
 30 29  1  0  0  0  0
 32 30  2  0  0  0  0
 33 32  1  0  0  0  0
 34 32  1  0  0  0  0
 34 26  2  0  0  0  0
M  END
>  <minimizedAffinity>
-5.15756416

$$$$

 OpenBabel03272506313D

 34 36  0  0  1  0  0  0  0  0999 V2000
   35.6900   29.7060   33.6580 C   0  0  1  0  0  0  0  0  0  0  0  0
   35.7860   30.5580   32.4710 C   0  0  0  0  0  0  0  0  0  0  0  0
   34.6180   30.5460   31.5210 C   0  0  0  0  0  0  0  0  0  0  0  0
   33.2850   30.4590   32.1570 C   0  0  0  0  0  0  0  0  0  0  0  0
   33.1640   29.6060   33.3420 C   0  0  0  0  0  0  0  0  0  0  0  0
   34.3180   29.6750   34.2800 C   0  0  2  0  0  0  0  0  0  0  0  0
   36.3390   30.1500   34.4750 H   0  0  0  0  0  0  0  0  0  0  0  0
   36.6810   30.4580   31.8620 H   0  0  0  0  0  0  0  0  0  0  0  0
   35.8400   31.6560   32.7820 H   0  0  0  0  0  0  0  0  0  0  0  0
   34.7470   29.6450   30.8620 H   0  0  0  0  0  0  0  0  0  0  0  0
   34.6590   31.4150   30.8570 H   0  0  0  0  0  0  0  0  0  0  0  0
   32.5840   30.0660   31.3620 H   0  0  0  0  0  0  0  0  0  0  0  0
   32.9090   31.4840   32.3540 H   0  0  0  0  0  0  0  0  0  0  0  0
   32.8650   28.5800   33.0320 H   0  0  0  0  0  0  0  0  0  0  0  0
   32.2710   29.9730   33.9310 H   0  0  0  0  0  0  0  0  0  0  0  0
   34.2170   28.7260   34.8280 H   0  0  0  0  0  0  0  0  0  0  0  0
   36.3030   27.6450   32.2720 C   0  0  0  0  0  0  0  0  0  0  0  0
   36.2570   28.3420   33.5060 C   0  0  0  0  0  0  0  0  0  0  0  0
   36.7580   27.6780   34.6090 C   0  0  0  0  0  0  0  0  0  0  0  0
   37.2570   26.4230   34.4760 N   0  0  0  0  0  0  0  0  0  0  0  0
   37.2770   25.7950   33.2710 C   0  0  0  0  0  0  0  0  0  0  0  0
   36.7970   26.4210   32.1740 N   0  0  0  0  0  0  0  0  0  0  0  0
   35.9310   28.1070   31.3760 H   0  0  0  0  0  0  0  0  0  0  0  0
   36.8550   27.9830   35.6270 H   0  0  0  0  0  0  0  0  0  0  0  0
   37.6690   24.7950   33.1360 H   0  0  0  0  0  0  0  0  0  0  0  0
   34.1640   30.6910   35.3730 C   0  0  0  0  0  0  0  0  0  0  0  0
   32.9090   30.8720   35.9720 C   0  0  0  0  0  0  0  0  0  0  0  0
   32.0320   30.2840   35.6630 H   0  0  0  0  0  0  0  0  0  0  0  0
   32.6660   31.7990   36.9960 C   0  0  0  0  0  3  0  0  0  0  0  0
   33.7220   32.5710   37.4330 C   0  0  0  0  0  0  0  0  0  0  0  0
   33.5420   33.2870   38.2220 H   0  0  0  0  0  0  0  0  0  0  0  0
   34.9710   32.4220   36.8710 C   0  0  0  0  0  0  0  0  0  0  0  0
   35.8010   33.0250   37.2100 H   0  0  0  0  0  0  0  0  0  0  0  0
   35.1630   31.5010   35.8680 C   0  0  0  0  0  3  0  0  0  0  0  0
  1  6  1  0  0  0  0
  1  7  1  1  0  0  0
  2  9  1  0  0  0  0
  2  1  1  0  0  0  0
  3  4  1  0  0  0  0
  3  2  1  0  0  0  0
  4 13  1  0  0  0  0
  4  5  1  0  0  0  0
  5 15  1  0  0  0  0
  5  6  1  0  0  0  0
  6 16  1  1  0  0  0
  6 26  1  0  0  0  0
  8  2  1  0  0  0  0
 10  3  1  0  0  0  0
 11  3  1  0  0  0  0
 12  4  1  0  0  0  0
 14  5  1  0  0  0  0
 17 18  1  0  0  0  0
 18  1  1  0  0  0  0
 18 19  2  0  0  0  0
 19 24  1  0  0  0  0
 20 19  1  0  0  0  0
 21 20  2  0  0  0  0
 22 17  2  0  0  0  0
 22 21  1  0  0  0  0
 23 17  1  0  0  0  0
 25 21  1  0  0  0  0
 26 34  2  0  0  0  0
 26 27  1  0  0  0  0
 27 29  2  0  0  0  0
 28 27  1  0  0  0  0
 29 30  1  0  0  0  0
 30 31  1  0  0  0  0
 32 33  1  0  0  0  0
 32 30  2  0  0  0  0
 34 32  1  0  0  0  0
M  END
>  <minimizedAffinity>
-5.10884714

$$$$

 OpenBabel03272506313D

 34 36  0  0  1  0  0  0  0  0999 V2000
   37.6740   26.2870   33.8240 C   0  0  1  0  0  0  0  0  0  0  0  0
   38.6760   25.8920   32.8310 C   0  0  0  0  0  0  0  0  0  0  0  0
   40.0290   26.5440   32.9260 C   0  0  0  0  0  0  0  0  0  0  0  0
   40.5270   26.7740   34.3000 C   0  0  0  0  0  0  0  0  0  0  0  0
   39.5440   27.1770   35.3080 C   0  0  0  0  0  0  0  0  0  0  0  0
   38.2300   26.4820   35.2110 C   0  0  2  0  0  0  0  0  0  0  0  0
   36.9380   25.4340   33.9540 H   0  0  0  0  0  0  0  0  0  0  0  0
   38.3810   25.9410   31.7860 H   0  0  0  0  0  0  0  0  0  0  0  0
   38.9260   24.7830   32.9490 H   0  0  0  0  0  0  0  0  0  0  0  0
   39.9440   27.5410   32.4160 H   0  0  0  0  0  0  0  0  0  0  0  0
   40.7670   25.9730   32.3530 H   0  0  0  0  0  0  0  0  0  0  0  0
   41.3070   27.5880   34.2180 H   0  0  0  0  0  0  0  0  0  0  0  0
   41.1070   25.8880   34.6300 H   0  0  0  0  0  0  0  0  0  0  0  0
   39.4910   28.2870   35.3520 H   0  0  0  0  0  0  0  0  0  0  0  0
   39.9630   26.8940   36.3190 H   0  0  0  0  0  0  0  0  0  0  0  0
   37.5680   27.1800   35.7450 H   0  0  0  0  0  0  0  0  0  0  0  0
   36.2570   28.3550   34.3340 C   0  0  0  0  0  0  0  0  0  0  0  0
   36.7910   27.4110   33.4210 C   0  0  0  0  0  0  0  0  0  0  0  0
   36.4340   27.5650   32.0950 C   0  0  0  0  0  0  0  0  0  0  0  0
   35.6110   28.5790   31.7280 N   0  0  0  0  0  0  0  0  0  0  0  0
   35.1220   29.4580   32.6420 C   0  0  0  0  0  0  0  0  0  0  0  0
   35.4560   29.3340   33.9460 N   0  0  0  0  0  0  0  0  0  0  0  0
   36.4980   28.2910   35.3790 H   0  0  0  0  0  0  0  0  0  0  0  0
   36.7110   27.0110   31.2250 H   0  0  0  0  0  0  0  0  0  0  0  0
   34.4640   30.2750   32.3770 H   0  0  0  0  0  0  0  0  0  0  0  0
   38.1250   25.2420   36.0470 C   0  0  0  0  0  0  0  0  0  0  0  0
   38.0400   25.3580   37.4420 C   0  0  0  0  0  0  0  0  0  0  0  0
   38.0440   26.3390   37.9410 H   0  0  0  0  0  0  0  0  0  0  0  0
   37.9440   24.2580   38.3060 C   0  0  0  0  0  3  0  0  0  0  0  0
   37.9330   22.9960   37.7490 C   0  0  0  0  0  0  0  0  0  0  0  0
   37.8590   22.1450   38.4090 H   0  0  0  0  0  0  0  0  0  0  0  0
   38.0140   22.8400   36.3830 C   0  0  0  0  0  0  0  0  0  0  0  0
   38.0070   21.8540   35.9420 H   0  0  0  0  0  0  0  0  0  0  0  0
   38.1080   23.9480   35.5730 C   0  0  0  0  0  3  0  0  0  0  0  0
  1  7  1  1  0  0  0
  1  6  1  0  0  0  0
  2  3  1  0  0  0  0
  2  9  1  0  0  0  0
  2  1  1  0  0  0  0
  3  4  1  0  0  0  0
  4 13  1  0  0  0  0
  4  5  1  0  0  0  0
  5 14  1  0  0  0  0
  5 15  1  0  0  0  0
  6  5  1  0  0  0  0
  6 16  1  1  0  0  0
  6 26  1  0  0  0  0
  8  2  1  0  0  0  0
 10  3  1  0  0  0  0
 11  3  1  0  0  0  0
 12  4  1  0  0  0  0
 17 23  1  0  0  0  0
 18  1  1  0  0  0  0
 18 17  2  0  0  0  0
 19 18  1  0  0  0  0
 20 19  2  0  0  0  0
 20 21  1  0  0  0  0
 21 22  2  0  0  0  0
 22 17  1  0  0  0  0
 24 19  1  0  0  0  0
 25 21  1  0  0  0  0
 26 27  1  0  0  0  0
 27 28  1  0  0  0  0
 27 29  2  0  0  0  0
 30 29  1  0  0  0  0
 30 31  1  0  0  0  0
 32 30  2  0  0  0  0
 33 32  1  0  0  0  0
 34 26  2  0  0  0  0
 34 32  1  0  0  0  0
M  END
>  <minimizedAffinity>
-5.04838514

$$$$

 OpenBabel03272506313D

 34 36  0  0  1  0  0  0  0  0999 V2000
   37.8510   24.4870   33.7180 C   0  0  1  0  0  0  0  0  0  0  0  0
   38.1810   23.3350   32.8760 C   0  0  0  0  0  0  0  0  0  0  0  0
   39.5440   23.3180   32.2390 C   0  0  0  0  0  0  0  0  0  0  0  0
   40.6410   23.8480   33.0780 C   0  0  0  0  0  0  0  0  0  0  0  0
   40.3380   25.0050   33.9240 C   0  0  0  0  0  0  0  0  0  0  0  0
   38.9970   24.9690   34.5710 C   0  0  2  0  0  0  0  0  0  0  0  0
   37.0740   24.1670   34.4800 H   0  0  0  0  0  0  0  0  0  0  0  0
   37.4700   23.0760   32.0940 H   0  0  0  0  0  0  0  0  0  0  0  0
   38.1890   22.3810   33.5050 H   0  0  0  0  0  0  0  0  0  0  0  0
   39.4770   23.9520   31.3140 H   0  0  0  0  0  0  0  0  0  0  0  0
   39.7910   22.3090   31.8970 H   0  0  0  0  0  0  0  0  0  0  0  0
   41.4700   24.1370   32.3640 H   0  0  0  0  0  0  0  0  0  0  0  0
   41.0820   23.0190   33.6670 H   0  0  0  0  0  0  0  0  0  0  0  0
   40.5720   25.9410   33.3700 H   0  0  0  0  0  0  0  0  0  0  0  0
   41.0850   25.0070   34.7720 H   0  0  0  0  0  0  0  0  0  0  0  0
   38.8280   26.0330   34.7930 H   0  0  0  0  0  0  0  0  0  0  0  0
   37.2060   26.9500   33.4790 C   0  0  0  0  0  0  0  0  0  0  0  0
   37.1730   25.6090   33.0210 C   0  0  0  0  0  0  0  0  0  0  0  0
   36.4450   25.3660   31.8730 C   0  0  0  0  0  0  0  0  0  0  0  0
   35.8070   26.3860   31.2460 N   0  0  0  0  0  0  0  0  0  0  0  0
   35.8670   27.6560   31.7240 C   0  0  0  0  0  0  0  0  0  0  0  0
   36.5730   27.9250   32.8450 N   0  0  0  0  0  0  0  0  0  0  0  0
   37.7560   27.2060   34.3650 H   0  0  0  0  0  0  0  0  0  0  0  0
   36.2830   24.4660   31.3220 H   0  0  0  0  0  0  0  0  0  0  0  0
   35.3680   28.4890   31.2450 H   0  0  0  0  0  0  0  0  0  0  0  0
   38.9890   24.3530   35.9380 C   0  0  0  0  0  0  0  0  0  0  0  0
   38.0360   24.7740   36.8770 C   0  0  0  0  0  0  0  0  0  0  0  0
   37.2890   25.5450   36.6350 H   0  0  0  0  0  0  0  0  0  0  0  0
   37.9530   24.2620   38.1800 C   0  0  0  0  0  3  0  0  0  0  0  0
   38.8590   23.2920   38.5520 C   0  0  0  0  0  0  0  0  0  0  0  0
   38.8010   22.8920   39.5540 H   0  0  0  0  0  0  0  0  0  0  0  0
   39.8110   22.8500   37.6580 C   0  0  0  0  0  0  0  0  0  0  0  0
   40.5230   22.0910   37.9460 H   0  0  0  0  0  0  0  0  0  0  0  0
   39.8560   23.3820   36.3910 C   0  0  0  0  0  3  0  0  0  0  0  0
  1  7  1  1  0  0  0
  1  6  1  0  0  0  0
  2  9  1  0  0  0  0
  2  1  1  0  0  0  0
  3  2  1  0  0  0  0
  3  4  1  0  0  0  0
  4 13  1  0  0  0  0
  4  5  1  0  0  0  0
  5  6  1  0  0  0  0
  5 15  1  0  0  0  0
  6 16  1  1  0  0  0
  6 26  1  0  0  0  0
  8  2  1  0  0  0  0
 10  3  1  0  0  0  0
 11  3  1  0  0  0  0
 12  4  1  0  0  0  0
 14  5  1  0  0  0  0
 17 23  1  0  0  0  0
 18 17  1  0  0  0  0
 18  1  1  0  0  0  0
 19 18  2  0  0  0  0
 20 21  2  0  0  0  0
 20 19  1  0  0  0  0
 21 22  1  0  0  0  0
 22 17  2  0  0  0  0
 24 19  1  0  0  0  0
 25 21  1  0  0  0  0
 26 34  2  0  0  0  0
 26 27  1  0  0  0  0
 27 29  2  0  0  0  0
 28 27  1  0  0  0  0
 29 30  1  0  0  0  0
 30 31  1  0  0  0  0
 32 33  1  0  0  0  0
 32 30  2  0  0  0  0
 34 32  1  0  0  0  0
M  END
>  <minimizedAffinity>
-4.95924997

$$$$

 OpenBabel03272506313D

 34 36  0  0  1  0  0  0  0  0999 V2000
   38.6140   26.3010   34.3980 C   0  0  1  0  0  0  0  0  0  0  0  0
   39.7570   26.9890   35.0030 C   0  0  0  0  0  0  0  0  0  0  0  0
   41.0600   26.9460   34.2510 C   0  0  0  0  0  0  0  0  0  0  0  0
   40.9450   27.0410   32.7790 C   0  0  0  0  0  0  0  0  0  0  0  0
   39.8140   26.3540   32.1510 C   0  0  0  0  0  0  0  0  0  0  0  0
   38.5310   26.4520   32.9010 C   0  0  2  0  0  0  0  0  0  0  0  0
   37.6600   26.7930   34.7650 H   0  0  0  0  0  0  0  0  0  0  0  0
   39.9880   26.7460   36.0380 H   0  0  0  0  0  0  0  0  0  0  0  0
   39.5470   28.1100   35.0700 H   0  0  0  0  0  0  0  0  0  0  0  0
   41.5440   25.9630   34.4990 H   0  0  0  0  0  0  0  0  0  0  0  0
   41.7390   27.7200   34.6230 H   0  0  0  0  0  0  0  0  0  0  0  0
   41.9020   26.6050   32.3620 H   0  0  0  0  0  0  0  0  0  0  0  0
   40.9910   28.1070   32.4790 H   0  0  0  0  0  0  0  0  0  0  0  0
   40.1180   25.3230   31.8650 H   0  0  0  0  0  0  0  0  0  0  0  0
   39.6240   26.8580   31.1570 H   0  0  0  0  0  0  0  0  0  0  0  0
   37.9750   25.5890   32.5050 H   0  0  0  0  0  0  0  0  0  0  0  0
   38.4910   23.7890   33.9290 C   0  0  0  0  0  0  0  0  0  0  0  0
   38.4280   24.8900   34.8210 C   0  0  0  0  0  0  0  0  0  0  0  0
   38.1570   24.5970   36.1430 C   0  0  0  0  0  0  0  0  0  0  0  0
   37.9660   23.3100   36.5280 N   0  0  0  0  0  0  0  0  0  0  0  0
   38.0350   22.2890   35.6350 C   0  0  0  0  0  0  0  0  0  0  0  0
   38.3000   22.5440   34.3340 N   0  0  0  0  0  0  0  0  0  0  0  0
   38.7000   23.9490   32.8880 H   0  0  0  0  0  0  0  0  0  0  0  0
   38.0780   25.2300   37.0000 H   0  0  0  0  0  0  0  0  0  0  0  0
   37.8860   21.2530   35.9130 H   0  0  0  0  0  0  0  0  0  0  0  0
   37.6640   27.6050   32.4910 C   0  0  0  0  0  0  0  0  0  0  0  0
   36.6440   28.0390   33.3510 C   0  0  0  0  0  0  0  0  0  0  0  0
   36.4640   27.5550   34.3230 H   0  0  0  0  0  0  0  0  0  0  0  0
   35.7810   29.1020   33.0530 C   0  0  0  0  0  3  0  0  0  0  0  0
   35.9490   29.7550   31.8500 C   0  0  0  0  0  0  0  0  0  0  0  0
   35.2880   30.5760   31.6150 H   0  0  0  0  0  0  0  0  0  0  0  0
   36.9400   29.3590   30.9780 C   0  0  0  0  0  0  0  0  0  0  0  0
   37.0750   29.8670   30.0340 H   0  0  0  0  0  0  0  0  0  0  0  0
   37.7630   28.3100   31.3110 C   0  0  0  0  0  3  0  0  0  0  0  0
  1  7  1  1  0  0  0
  1 18  1  0  0  0  0
  1  2  1  0  0  0  0
  2  9  1  0  0  0  0
  2  8  1  0  0  0  0
  3 10  1  0  0  0  0
  3 11  1  0  0  0  0
  3  2  1  0  0  0  0
  4  3  1  0  0  0  0
  5  4  1  0  0  0  0
  5  6  1  0  0  0  0
  6 16  1  6  0  0  0
  6  1  1  0  0  0  0
 12  4  1  0  0  0  0
 13  4  1  0  0  0  0
 14  5  1  0  0  0  0
 15  5  1  0  0  0  0
 17 22  2  0  0  0  0
 17 18  1  0  0  0  0
 18 19  2  0  0  0  0
 19 20  1  0  0  0  0
 19 24  1  0  0  0  0
 21 25  1  0  0  0  0
 21 20  2  0  0  0  0
 22 21  1  0  0  0  0
 23 17  1  0  0  0  0
 26  6  1  0  0  0  0
 26 27  1  0  0  0  0
 27 28  1  0  0  0  0
 29 27  2  0  0  0  0
 30 29  1  0  0  0  0
 31 30  1  0  0  0  0
 32 34  1  0  0  0  0
 32 30  2  0  0  0  0
 33 32  1  0  0  0  0
 34 26  2  0  0  0  0
M  END
>  <minimizedAffinity>
-4.90190172

$$$$

 OpenBabel03272506313D

 34 36  0  0  1  0  0  0  0  0999 V2000
   39.0480   24.7690   35.0760 C   0  0  1  0  0  0  0  0  0  0  0  0
   38.4310   25.4000   36.2450 C   0  0  0  0  0  0  0  0  0  0  0  0
   37.8890   24.4860   37.3110 C   0  0  0  0  0  0  0  0  0  0  0  0
   38.6920   23.2710   37.5720 C   0  0  0  0  0  0  0  0  0  0  0  0
   39.3130   22.6190   36.4160 C   0  0  0  0  0  0  0  0  0  0  0  0
   39.8750   23.5530   35.4010 C   0  0  2  0  0  0  0  0  0  0  0  0
   39.8040   25.4900   34.6330 H   0  0  0  0  0  0  0  0  0  0  0  0
   37.6620   26.1450   36.0550 H   0  0  0  0  0  0  0  0  0  0  0  0
   39.2100   26.0110   36.8150 H   0  0  0  0  0  0  0  0  0  0  0  0
   36.8690   24.1610   36.9710 H   0  0  0  0  0  0  0  0  0  0  0  0
   37.7350   25.0390   38.2430 H   0  0  0  0  0  0  0  0  0  0  0  0
   37.9920   22.5320   38.0630 H   0  0  0  0  0  0  0  0  0  0  0  0
   39.4370   23.4910   38.3640 H   0  0  0  0  0  0  0  0  0  0  0  0
   38.6260   21.8410   36.0160 H   0  0  0  0  0  0  0  0  0  0  0  0
   40.1930   22.0210   36.8000 H   0  0  0  0  0  0  0  0  0  0  0  0
   39.9060   22.9150   34.5050 H   0  0  0  0  0  0  0  0  0  0  0  0
   37.9650   23.2550   33.3210 C   0  0  0  0  0  0  0  0  0  0  0  0
   38.1330   24.5240   33.9320 C   0  0  0  0  0  0  0  0  0  0  0  0
   37.4060   25.5680   33.3950 C   0  0  0  0  0  0  0  0  0  0  0  0
   36.5860   25.3500   32.3360 N   0  0  0  0  0  0  0  0  0  0  0  0
   36.4600   24.1150   31.7830 C   0  0  0  0  0  0  0  0  0  0  0  0
   37.1570   23.0730   32.2890 N   0  0  0  0  0  0  0  0  0  0  0  0
   38.5010   22.4010   33.6920 H   0  0  0  0  0  0  0  0  0  0  0  0
   37.3400   26.5960   33.6780 H   0  0  0  0  0  0  0  0  0  0  0  0
   35.8140   23.9130   30.9390 H   0  0  0  0  0  0  0  0  0  0  0  0
   41.3230   23.8850   35.6050 C   0  0  0  0  0  0  0  0  0  0  0  0
   41.8680   25.0090   34.9670 C   0  0  0  0  0  0  0  0  0  0  0  0
   41.2570   25.6580   34.3200 H   0  0  0  0  0  0  0  0  0  0  0  0
   43.2090   25.3970   35.0920 C   0  0  0  0  0  3  0  0  0  0  0  0
   44.0330   24.6290   35.8880 C   0  0  0  0  0  0  0  0  0  0  0  0
   45.0670   24.9230   35.9890 H   0  0  0  0  0  0  0  0  0  0  0  0
   43.5360   23.5180   36.5330 C   0  0  0  0  0  0  0  0  0  0  0  0
   44.1770   22.9130   37.1570 H   0  0  0  0  0  0  0  0  0  0  0  0
   42.2130   23.1740   36.3800 C   0  0  0  0  0  3  0  0  0  0  0  0
  1  7  1  6  0  0  0
  1  6  1  0  0  0  0
  1  2  1  0  0  0  0
  2  9  1  0  0  0  0
  2  3  1  0  0  0  0
  3  4  1  0  0  0  0
  3 11  1  0  0  0  0
  4 12  1  0  0  0  0
  4 13  1  0  0  0  0
  5 15  1  0  0  0  0
  5  4  1  0  0  0  0
  6 16  1  6  0  0  0
  6 26  1  0  0  0  0
  6  5  1  0  0  0  0
  8  2  1  0  0  0  0
 10  3  1  0  0  0  0
 14  5  1  0  0  0  0
 17 23  1  0  0  0  0
 17 18  1  0  0  0  0
 18  1  1  0  0  0  0
 19 24  1  0  0  0  0
 19 18  2  0  0  0  0
 20 19  1  0  0  0  0
 21 22  1  0  0  0  0
 21 20  2  0  0  0  0
 22 17  2  0  0  0  0
 25 21  1  0  0  0  0
 26 34  1  0  0  0  0
 27 29  1  0  0  0  0
 27 26  2  0  0  0  0
 28 27  1  0  0  0  0
 29 30  2  0  0  0  0
 30 31  1  0  0  0  0
 30 32  1  0  0  0  0
 32 33  1  0  0  0  0
 34 32  2  0  0  0  0
M  END
>  <minimizedAffinity>
-4.87723112

$$$$

 OpenBabel03272506313D

 34 36  0  0  1  0  0  0  0  0999 V2000
   37.2580   27.1790   32.2300 C   0  0  1  0  0  0  0  0  0  0  0  0
   38.7040   27.3360   32.0540 C   0  0  0  0  0  0  0  0  0  0  0  0
   39.1870   27.7720   30.6970 C   0  0  0  0  0  0  0  0  0  0  0  0
   38.3340   28.7670   30.0110 C   0  0  0  0  0  0  0  0  0  0  0  0
   36.8840   28.6260   30.1660 C   0  0  0  0  0  0  0  0  0  0  0  0
   36.4390   28.2340   31.5320 C   0  0  2  0  0  0  0  0  0  0  0  0
   37.0080   27.3350   33.3250 H   0  0  0  0  0  0  0  0  0  0  0  0
   39.3310   26.4990   32.3520 H   0  0  0  0  0  0  0  0  0  0  0  0
   39.0920   28.1680   32.7340 H   0  0  0  0  0  0  0  0  0  0  0  0
   39.2270   26.8500   30.0570 H   0  0  0  0  0  0  0  0  0  0  0  0
   40.2150   28.1420   30.7600 H   0  0  0  0  0  0  0  0  0  0  0  0
   38.5830   28.6880   28.9110 H   0  0  0  0  0  0  0  0  0  0  0  0
   38.6740   29.7870   30.2830 H   0  0  0  0  0  0  0  0  0  0  0  0
   36.4810   28.0010   29.3390 H   0  0  0  0  0  0  0  0  0  0  0  0
   36.4250   29.6410   29.9760 H   0  0  0  0  0  0  0  0  0  0  0  0
   35.4440   27.8100   31.3300 H   0  0  0  0  0  0  0  0  0  0  0  0
   35.5680   25.5540   31.2080 C   0  0  0  0  0  0  0  0  0  0  0  0
   36.7330   25.8140   31.9730 C   0  0  0  0  0  0  0  0  0  0  0  0
   37.3770   24.7170   32.5100 C   0  0  0  0  0  0  0  0  0  0  0  0
   36.8870   23.4700   32.2950 N   0  0  0  0  0  0  0  0  0  0  0  0
   35.7650   23.2710   31.5540 C   0  0  0  0  0  0  0  0  0  0  0  0
   35.1140   24.3260   31.0140 N   0  0  0  0  0  0  0  0  0  0  0  0
   35.0230   26.3640   30.7610 H   0  0  0  0  0  0  0  0  0  0  0  0
   38.2670   24.6420   33.0960 H   0  0  0  0  0  0  0  0  0  0  0  0
   35.3510   22.2880   31.3660 H   0  0  0  0  0  0  0  0  0  0  0  0
   36.1150   29.3910   32.4300 C   0  0  0  0  0  0  0  0  0  0  0  0
   35.8460   29.1550   33.7860 C   0  0  0  0  0  0  0  0  0  0  0  0
   35.8700   28.1400   34.2110 H   0  0  0  0  0  0  0  0  0  0  0  0
   35.5280   30.1690   34.7010 C   0  0  0  0  0  3  0  0  0  0  0  0
   35.4800   31.4670   34.2360 C   0  0  0  0  0  0  0  0  0  0  0  0
   35.2370   32.2530   34.9350 H   0  0  0  0  0  0  0  0  0  0  0  0
   35.7390   31.7400   32.9110 C   0  0  0  0  0  0  0  0  0  0  0  0
   35.7020   32.7550   32.5420 H   0  0  0  0  0  0  0  0  0  0  0  0
   36.0450   30.7140   32.0490 C   0  0  0  0  0  3  0  0  0  0  0  0
  1  7  1  1  0  0  0
  2  1  1  0  0  0  0
  2  8  1  0  0  0  0
  2  9  1  0  0  0  0
  3 11  1  0  0  0  0
  3  2  1  0  0  0  0
  4  5  1  0  0  0  0
  4 13  1  0  0  0  0
  4  3  1  0  0  0  0
  5  6  1  0  0  0  0
  6 16  1  6  0  0  0
  6  1  1  0  0  0  0
  6 26  1  0  0  0  0
 10  3  1  0  0  0  0
 12  4  1  0  0  0  0
 14  5  1  0  0  0  0
 15  5  1  0  0  0  0
 17 18  1  0  0  0  0
 18  1  1  0  0  0  0
 18 19  2  0  0  0  0
 19 24  1  0  0  0  0
 20 19  1  0  0  0  0
 21 20  2  0  0  0  0
 22 17  2  0  0  0  0
 22 21  1  0  0  0  0
 23 17  1  0  0  0  0
 25 21  1  0  0  0  0
 26 27  1  0  0  0  0
 27 28  1  0  0  0  0
 27 29  2  0  0  0  0
 30 29  1  0  0  0  0
 30 31  1  0  0  0  0
 32 30  2  0  0  0  0
 33 32  1  0  0  0  0
 34 26  2  0  0  0  0
 34 32  1  0  0  0  0
M  END
>  <minimizedAffinity>
-4.87149525

$$$$
