
 OpenBabel03272509273D

 41 43  0  0  1  0  0  0  0  0999 V2000
   38.4840   32.1020   48.8440 C   0  0  2  0  0  0  0  0  0  0  0  0
   38.9420   32.8990   50.0550 C   0  0  0  0  0  0  0  0  0  0  0  0
   39.5660   34.1910   49.6390 C   0  0  0  0  0  0  0  0  0  0  0  0
   40.2780   34.0110   48.3070 C   0  0  0  0  0  0  0  0  0  0  0  0
   39.1350   34.0530   47.3330 C   0  0  0  0  0  0  0  0  0  0  0  0
   38.2350   32.8820   47.6480 C   0  0  1  0  0  0  0  0  0  0  0  0
   39.2460   31.2760   48.7780 H   0  0  0  0  0  0  0  0  0  0  0  0
   39.5970   32.3460   50.7290 H   0  0  0  0  0  0  0  0  0  0  0  0
   38.0440   33.1810   50.6790 H   0  0  0  0  0  0  0  0  0  0  0  0
   40.3100   34.5360   50.3660 H   0  0  0  0  0  0  0  0  0  0  0  0
   38.8140   35.0000   49.5210 H   0  0  0  0  0  0  0  0  0  0  0  0
   40.8780   34.9280   48.1550 H   0  0  0  0  0  0  0  0  0  0  0  0
   40.8570   33.0850   48.2720 H   0  0  0  0  0  0  0  0  0  0  0  0
   38.6140   35.0310   47.5540 H   0  0  0  0  0  0  0  0  0  0  0  0
   39.5250   34.1500   46.3370 H   0  0  0  0  0  0  0  0  0  0  0  0
   37.2180   33.2700   47.5930 H   0  0  0  0  0  0  0  0  0  0  0  0
   38.5510   32.0510   46.4000 C   0  0  0  0  0  0  0  0  0  0  0  0
   39.6120   31.1640   46.3570 C   0  0  0  0  0  0  0  0  0  0  0  0
   40.2290   31.0630   47.2430 H   0  0  0  0  0  0  0  0  0  0  0  0
   39.9680   30.3760   45.2890 C   0  0  0  0  0  3  0  0  0  0  0  0
   39.1900   30.4840   44.1590 C   0  0  0  0  0  0  0  0  0  0  0  0
   39.4410   29.8830   43.3100 H   0  0  0  0  0  0  0  0  0  0  0  0
   38.1200   31.3440   44.1300 C   0  0  0  0  0  0  0  0  0  0  0  0
   37.5490   31.3900   43.2290 H   0  0  0  0  0  0  0  0  0  0  0  0
   37.8180   32.1070   45.2360 C   0  0  0  0  0  3  0  0  0  0  0  0
   36.9630   31.2530   49.3620 S   0  0  0  0  0  0  0  0  0  0  0  0
   36.5890   29.8120   48.3410 C   0  0  0  0  0  0  0  0  0  0  0  0
   37.5690   29.5700   47.8190 H   0  0  0  0  0  0  0  0  0  0  0  0
   36.4560   28.9500   48.9890 H   0  0  0  0  0  0  0  0  0  0  0  0
   35.5270   30.1340   47.3480 C   0  0  0  0  0  0  0  0  0  0  0  0
   35.8530   29.7690   46.3450 H   0  0  0  0  0  0  0  0  0  0  0  0
   35.2580   31.2130   47.3210 H   0  0  0  0  0  0  0  0  0  0  0  0
   32.8900   27.8960   48.7500 C   0  0  0  0  0  0  0  0  0  0  0  0
   34.0760   28.6080   48.6400 C   0  0  0  0  0  0  0  0  0  0  0  0
   34.3010   29.3920   47.5470 C   0  0  0  0  0  0  0  0  0  0  0  0
   33.3030   29.4250   46.6010 N   0  0  0  0  0  0  0  0  0  0  0  0
   32.1770   28.7330   46.7340 C   0  0  0  0  0  0  0  0  0  0  0  0
   31.9440   27.9610   47.7980 N   0  0  0  0  0  0  0  0  0  0  0  0
   32.6530   27.2590   49.5870 H   0  0  0  0  0  0  0  0  0  0  0  0
   34.7130   28.4490   49.4940 H   0  0  0  0  0  0  0  0  0  0  0  0
   31.4220   28.7980   45.9530 H   0  0  0  0  0  0  0  0  0  0  0  0
  1  7  1  6  0  0  0
  1 26  1  0  0  0  0
  1  2  1  0  0  0  0
  2  9  1  0  0  0  0
  2  8  1  0  0  0  0
  3  2  1  0  0  0  0
  3 10  1  0  0  0  0
  4  3  1  0  0  0  0
  5 14  1  0  0  0  0
  5  6  1  0  0  0  0
  5  4  1  0  0  0  0
  6 16  1  6  0  0  0
  6  1  1  0  0  0  0
 11  3  1  0  0  0  0
 12  4  1  0  0  0  0
 13  4  1  0  0  0  0
 15  5  1  0  0  0  0
 17  6  1  0  0  0  0
 18 17  1  0  0  0  0
 18 19  1  0  0  0  0
 20 18  2  0  0  0  0
 21 20  1  0  0  0  0
 22 21  1  0  0  0  0
 23 21  2  0  0  0  0
 23 25  1  0  0  0  0
 24 23  1  0  0  0  0
 25 17  2  0  0  0  0
 27 29  1  0  0  0  0
 27 26  1  0  0  0  0
 28 27  1  0  0  0  0
 30 35  1  0  0  0  0
 30 27  1  0  0  0  0
 31 30  1  0  0  0  0
 32 30  1  0  0  0  0
 33 39  1  0  0  0  0
 34 33  1  0  0  0  0
 34 40  1  0  0  0  0
 35 34  2  0  0  0  0
 36 37  2  0  0  0  0
 36 35  1  0  0  0  0
 37 38  1  0  0  0  0
 38 33  2  0  0  0  0
 41 37  1  0  0  0  0
M  END
>  <minimizedAffinity>
-3.43607759

>  <minimizedRMSD>
1.24398482

$$$$
