
 OpenBabel03272503543D

 44 47  0  0  1  0  0  0  0  0999 V2000
   36.6440   30.3140   45.9610 C   0  0  1  0  0  0  0  0  0  0  0  0
   35.1480   30.1760   45.5780 C   0  0  0  0  0  0  0  0  0  0  0  0
   35.1500   29.1550   44.4340 C   0  0  0  0  0  0  0  0  0  0  0  0
   35.7740   29.8010   43.2500 C   0  0  0  0  0  0  0  0  0  0  0  0
   37.1760   30.2530   43.5680 C   0  0  0  0  0  0  0  0  0  0  0  0
   37.2360   31.0890   44.8220 C   0  0  2  0  0  0  0  0  0  0  0  0
   36.9670   29.2540   46.0080 H   0  0  0  0  0  0  0  0  0  0  0  0
   34.5450   29.7980   46.4040 H   0  0  0  0  0  0  0  0  0  0  0  0
   34.8470   31.1400   45.1720 H   0  0  0  0  0  0  0  0  0  0  0  0
   35.6930   28.2440   44.7050 H   0  0  0  0  0  0  0  0  0  0  0  0
   34.0690   28.9790   44.2170 H   0  0  0  0  0  0  0  0  0  0  0  0
   35.1810   30.6160   42.8150 H   0  0  0  0  0  0  0  0  0  0  0  0
   35.8660   29.0260   42.4500 H   0  0  0  0  0  0  0  0  0  0  0  0
   37.5660   30.8580   42.7270 H   0  0  0  0  0  0  0  0  0  0  0  0
   37.8620   29.3900   43.6670 H   0  0  0  0  0  0  0  0  0  0  0  0
   36.6160   32.0070   44.6620 H   0  0  0  0  0  0  0  0  0  0  0  0
   36.1540   30.6000   48.4060 C   0  0  0  0  0  0  0  0  0  0  0  0
   36.4320   31.2240   49.6160 C   0  0  0  0  0  0  0  0  0  0  0  0
   37.4010   32.2360   49.6800 C   0  0  0  0  0  0  0  0  0  0  0  0
   38.0510   32.5750   48.5140 C   0  0  0  0  0  0  0  0  0  0  0  0
   37.7840   31.9650   47.3170 C   0  0  0  0  0  0  0  0  0  0  0  0
   36.8110   30.9530   47.2700 C   0  0  0  0  0  0  0  0  0  0  0  0
   35.9160   30.9530   50.5370 H   0  0  0  0  0  0  0  0  0  0  0  0
   37.5780   32.6890   50.6450 H   0  0  0  0  0  0  0  0  0  0  0  0
   38.8020   33.3740   48.6170 H   0  0  0  0  0  0  0  0  0  0  0  0
   38.3680   32.3340   46.4920 H   0  0  0  0  0  0  0  0  0  0  0  0
   34.2110   27.4200   49.0210 C   0  0  0  0  0  0  0  0  0  0  0  0
   35.2950   28.3180   49.0180 C   0  0  0  0  0  0  0  0  0  0  0  0
   35.1220   29.5860   48.4620 C   0  0  0  0  0  0  0  0  0  0  0  0
   33.9030   29.8570   47.9580 N   0  0  0  0  0  0  0  0  0  0  0  0
   32.8690   28.9950   47.9640 C   0  0  0  0  0  0  0  0  0  0  0  0
   33.0320   27.7920   48.4930 N   0  0  0  0  0  0  0  0  0  0  0  0
   34.4560   26.4690   49.4760 H   0  0  0  0  0  0  0  0  0  0  0  0
   36.2670   28.0720   49.4290 H   0  0  0  0  0  0  0  0  0  0  0  0
   31.9110   29.2560   47.5510 H   0  0  0  0  0  0  0  0  0  0  0  0
   38.6280   31.5180   45.0050 C   0  0  0  0  0  0  0  0  0  0  0  0
   39.0560   32.8250   44.8510 C   0  0  0  0  0  0  0  0  0  0  0  0
   38.2960   33.5560   44.5780 H   0  0  0  0  0  0  0  0  0  0  0  0
   40.3320   33.2970   45.0030 C   0  0  0  0  0  0  0  0  0  0  0  0
   41.3020   32.3810   45.3490 C   0  0  0  0  0  0  0  0  0  0  0  0
   42.3140   32.7130   45.4780 H   0  0  0  0  0  0  0  0  0  0  0  0
   40.9610   31.0540   45.5240 C   0  0  0  0  0  0  0  0  0  0  0  0
   41.7020   30.2890   45.7990 H   0  0  0  0  0  0  0  0  0  0  0  0
   39.6660   30.6420   45.3550 C   0  0  0  0  0  0  0  0  0  0  0  0
  1  7  1  1  0  0  0
  1 22  1  0  0  0  0
  2  1  1  0  0  0  0
  2  8  1  0  0  0  0
  3 10  1  0  0  0  0
  3  2  1  0  0  0  0
  4  5  1  0  0  0  0
  4  3  1  0  0  0  0
  5 15  1  0  0  0  0
  5  6  1  0  0  0  0
  6 16  1  6  0  0  0
  6 36  1  0  0  0  0
  6  1  1  0  0  0  0
  9  2  1  0  0  0  0
 11  3  1  0  0  0  0
 12  4  1  0  0  0  0
 13  4  1  0  0  0  0
 14  5  1  0  0  0  0
 17 29  1  0  0  0  0
 17 18  1  0  0  0  0
 18 19  2  0  0  0  0
 18 23  1  0  0  0  0
 19 24  1  0  0  0  0
 20 25  1  0  0  0  0
 20 19  1  0  0  0  0
 21 20  2  0  0  0  0
 22 21  1  0  0  0  0
 22 17  2  0  0  0  0
 26 21  1  0  0  0  0
 27 33  1  0  0  0  0
 28 27  1  0  0  0  0
 28 34  1  0  0  0  0
 29 28  2  0  0  0  0
 30 31  2  0  0  0  0
 30 29  1  0  0  0  0
 31 32  1  0  0  0  0
 32 27  2  0  0  0  0
 35 31  1  0  0  0  0
 36 44  1  0  0  0  0
 37 39  1  0  0  0  0
 37 36  2  0  0  0  0
 38 37  1  0  0  0  0
 39 40  2  0  0  0  0
 40 41  1  0  0  0  0
 40 42  1  0  0  0  0
 42 43  1  0  0  0  0
 44 42  2  0  0  0  0
M  END
>  <minimizedAffinity>
-6.14728308

>  <minimizedRMSD>
2.99509358

$$$$
