
 OpenBabel03272507203D

 30 32  0  0  1  0  0  0  0  0999 V2000
   39.4260   24.4370   34.6640 C   0  0  0  0  0  0  0  0  0  0  0  0
   40.6690   24.9860   34.9650 C   0  0  0  0  0  0  0  0  0  0  0  0
   40.7550   26.3660   34.7910 C   0  0  0  0  0  0  0  0  0  0  0  0
   39.6790   27.1000   34.3550 N   0  0  0  0  0  0  0  0  0  0  0  0
   38.4840   26.5160   34.0740 C   0  0  0  0  0  0  0  0  0  0  0  0
   38.3610   25.1630   34.2330 N   0  0  0  0  0  0  0  0  0  0  0  0
   41.4770   24.3800   35.3010 H   0  0  0  0  0  0  0  0  0  0  0  0
   41.6990   26.8670   35.0070 H   0  0  0  0  0  0  0  0  0  0  0  0
   37.3870   27.3370   33.6190 C   0  0  0  0  0  0  0  0  0  0  0  0
   36.9980   27.3320   32.3010 C   0  0  0  0  0  0  0  0  0  0  0  0
   37.4930   26.7180   31.5580 H   0  0  0  0  0  0  0  0  0  0  0  0
   35.9460   28.1470   31.9760 C   0  0  0  0  0  3  0  0  0  0  0  0
   35.2600   28.9580   32.8560 C   0  0  0  0  0  0  0  0  0  0  0  0
   34.4450   29.5760   32.5500 H   0  0  0  0  0  0  0  0  0  0  0  0
   35.6810   28.9390   34.1890 C   0  0  0  0  0  0  0  0  0  0  0  0
   35.1750   29.5610   34.9280 H   0  0  0  0  0  0  0  0  0  0  0  0
   36.7500   28.1190   34.5530 C   0  0  0  0  0  3  0  0  0  0  0  0
   39.2980   22.9550   34.8550 C   0  0  1  0  0  0  0  0  0  0  0  0
   38.4390   22.3870   35.8940 C   0  0  2  0  0  0  0  0  0  0  0  0
   37.8750   22.4630   34.5080 C   0  0  0  0  0  0  0  0  0  0  0  0
   40.0740   22.3450   34.3240 H   0  0  0  0  0  0  0  0  0  0  0  0
   38.8480   21.4200   36.3190 H   0  0  0  0  0  0  0  0  0  0  0  0
   37.7880   21.4990   33.9670 H   0  0  0  0  0  0  0  0  0  0  0  0
   37.0890   23.2050   34.3190 H   0  0  0  0  0  0  0  0  0  0  0  0
   37.9640   23.2540   36.8680 O   0  0  0  0  0  0  0  0  0  0  0  0
   38.4540   23.5450   38.0920 C   0  0  0  0  0  0  0  0  0  0  0  0
   38.0440   24.5060   38.7750 O   0  0  0  0  0  0  0  0  0  0  0  0
   39.4440   22.6070   38.3970 N   0  0  0  0  0  0  0  0  0  0  0  0
   39.5240   21.6190   38.7270 H   0  0  0  0  0  0  0  0  0  0  0  0
   40.4910   22.5130   38.4190 H   0  0  0  0  0  0  0  0  0  0  0  0
  1 18  1  0  0  0  0
  1  2  1  0  0  0  0
  2  7  1  0  0  0  0
  3  2  2  0  0  0  0
  3  8  1  0  0  0  0
  4  3  1  0  0  0  0
  5  6  1  0  0  0  0
  5  4  2  0  0  0  0
  6  1  2  0  0  0  0
  9  5  1  0  0  0  0
  9 17  1  0  0  0  0
 10  9  2  0  0  0  0
 11 10  1  0  0  0  0
 12 10  1  0  0  0  0
 12 13  2  0  0  0  0
 13 15  1  0  0  0  0
 14 13  1  0  0  0  0
 15 17  2  0  0  0  0
 15 16  1  0  0  0  0
 18 21  1  6  0  0  0
 18 19  1  0  0  0  0
 19 22  1  1  0  0  0
 19 25  1  0  0  0  0
 20 18  1  0  0  0  0
 20 19  1  0  0  0  0
 23 20  1  0  0  0  0
 24 20  1  0  0  0  0
 25 26  1  0  0  0  0
 26 28  1  0  0  0  0
 26 27  2  0  0  0  0
 28 30  1  0  0  0  0
 28 29  1  0  0  0  0
M  END
>  <minimizedAffinity>
-5.22753096

$$$$

 OpenBabel03272507203D

 30 32  0  0  1  0  0  0  0  0999 V2000
   37.1330   25.9940   32.8170 C   0  0  0  0  0  0  0  0  0  0  0  0
   36.6970   27.2610   33.1950 C   0  0  0  0  0  0  0  0  0  0  0  0
   36.9070   27.5740   34.5360 C   0  0  0  0  0  0  0  0  0  0  0  0
   37.5010   26.6810   35.3950 N   0  0  0  0  0  0  0  0  0  0  0  0
   37.9090   25.4540   34.9760 C   0  0  0  0  0  0  0  0  0  0  0  0
   37.7210   25.1100   33.6660 N   0  0  0  0  0  0  0  0  0  0  0  0
   36.2420   27.9220   32.4950 H   0  0  0  0  0  0  0  0  0  0  0  0
   36.5900   28.5500   34.9050 H   0  0  0  0  0  0  0  0  0  0  0  0
   38.5280   24.5570   35.9230 C   0  0  0  0  0  0  0  0  0  0  0  0
   39.6530   23.8410   35.5880 C   0  0  0  0  0  0  0  0  0  0  0  0
   40.1150   23.9190   34.6100 H   0  0  0  0  0  0  0  0  0  0  0  0
   40.1600   23.0190   36.5600 C   0  0  0  0  0  3  0  0  0  0  0  0
   39.6380   22.8590   37.8260 C   0  0  0  0  0  0  0  0  0  0  0  0
   40.0730   22.2040   38.5480 H   0  0  0  0  0  0  0  0  0  0  0  0
   38.4950   23.6030   38.1350 C   0  0  0  0  0  0  0  0  0  0  0  0
   38.0390   23.5150   39.1210 H   0  0  0  0  0  0  0  0  0  0  0  0
   37.9520   24.4500   37.1660 C   0  0  0  0  0  3  0  0  0  0  0  0
   36.9340   25.6320   31.3750 C   0  0  1  0  0  0  0  0  0  0  0  0
   36.1370   24.4710   30.9790 C   0  0  2  0  0  0  0  0  0  0  0  0
   35.4600   25.8070   30.9480 C   0  0  0  0  0  0  0  0  0  0  0  0
   37.6230   26.1530   30.6620 H   0  0  0  0  0  0  0  0  0  0  0  0
   36.5240   23.9770   30.0350 H   0  0  0  0  0  0  0  0  0  0  0  0
   35.2690   26.2300   29.9410 H   0  0  0  0  0  0  0  0  0  0  0  0
   34.7060   26.0130   31.7180 H   0  0  0  0  0  0  0  0  0  0  0  0
   35.8010   23.5630   31.9730 O   0  0  0  0  0  0  0  0  0  0  0  0
   36.0890   22.2490   32.0880 C   0  0  0  0  0  0  0  0  0  0  0  0
   35.5750   21.3760   31.3570 O   0  0  0  0  0  0  0  0  0  0  0  0
   37.0140   22.0960   33.1240 N   0  0  0  0  0  0  0  0  0  0  0  0
   38.0370   22.2160   33.2950 H   0  0  0  0  0  0  0  0  0  0  0  0
   37.0580   21.8030   34.1330 H   0  0  0  0  0  0  0  0  0  0  0  0
  1  2  2  0  0  0  0
  1  6  1  0  0  0  0
  2  3  1  0  0  0  0
  3  8  1  0  0  0  0
  3  4  2  0  0  0  0
  5  4  1  0  0  0  0
  5  9  1  0  0  0  0
  6  5  2  0  0  0  0
  7  2  1  0  0  0  0
  9 17  1  0  0  0  0
 10  9  2  0  0  0  0
 10 12  1  0  0  0  0
 11 10  1  0  0  0  0
 12 13  2  0  0  0  0
 13 15  1  0  0  0  0
 13 14  1  0  0  0  0
 15 16  1  0  0  0  0
 17 15  2  0  0  0  0
 18 21  1  6  0  0  0
 18  1  1  0  0  0  0
 19 22  1  6  0  0  0
 19 18  1  0  0  0  0
 19 25  1  0  0  0  0
 20 19  1  0  0  0  0
 20 18  1  0  0  0  0
 20 24  1  0  0  0  0
 23 20  1  0  0  0  0
 25 26  1  0  0  0  0
 26 28  1  0  0  0  0
 27 26  2  0  0  0  0
 28 29  1  0  0  0  0
 28 30  1  0  0  0  0
M  END
>  <minimizedAffinity>
-5.08158875

$$$$

 OpenBabel03272507203D

 30 32  0  0  1  0  0  0  0  0999 V2000
   37.3380   27.0720   33.8360 C   0  0  0  0  0  0  0  0  0  0  0  0
   36.5970   28.0310   33.1510 C   0  0  0  0  0  0  0  0  0  0  0  0
   35.9400   27.5590   32.0180 C   0  0  0  0  0  0  0  0  0  0  0  0
   36.0330   26.2440   31.6310 N   0  0  0  0  0  0  0  0  0  0  0  0
   36.7710   25.3450   32.3360 C   0  0  0  0  0  0  0  0  0  0  0  0
   37.4310   25.7700   33.4550 N   0  0  0  0  0  0  0  0  0  0  0  0
   36.5510   29.0400   33.4860 H   0  0  0  0  0  0  0  0  0  0  0  0
   35.3390   28.2540   31.4290 H   0  0  0  0  0  0  0  0  0  0  0  0
   36.8330   23.9750   31.8840 C   0  0  0  0  0  0  0  0  0  0  0  0
   38.0390   23.3360   31.7270 C   0  0  0  0  0  0  0  0  0  0  0  0
   38.9830   23.8290   31.9330 H   0  0  0  0  0  0  0  0  0  0  0  0
   37.9850   22.0370   31.2940 C   0  0  0  0  0  3  0  0  0  0  0  0
   36.8330   21.3350   31.0090 C   0  0  0  0  0  0  0  0  0  0  0  0
   36.8470   20.3220   30.6730 H   0  0  0  0  0  0  0  0  0  0  0  0
   35.6230   22.0150   31.1790 C   0  0  0  0  0  0  0  0  0  0  0  0
   34.6810   21.5090   30.9690 H   0  0  0  0  0  0  0  0  0  0  0  0
   35.6430   23.3400   31.6200 C   0  0  0  0  0  3  0  0  0  0  0  0
   38.0470   27.5460   35.0700 C   0  0  1  0  0  0  0  0  0  0  0  0
   38.3180   26.6470   36.1920 C   0  0  2  0  0  0  0  0  0  0  0  0
   39.4320   26.8770   35.2170 C   0  0  0  0  0  0  0  0  0  0  0  0
   38.1270   28.6600   35.1660 H   0  0  0  0  0  0  0  0  0  0  0  0
   38.2840   27.1760   37.1930 H   0  0  0  0  0  0  0  0  0  0  0  0
   40.2680   27.5110   35.5770 H   0  0  0  0  0  0  0  0  0  0  0  0
   39.6960   26.0520   34.5430 H   0  0  0  0  0  0  0  0  0  0  0  0
   37.6630   25.4240   36.1980 O   0  0  0  0  0  0  0  0  0  0  0  0
   38.1030   24.2000   36.5590 C   0  0  0  0  0  0  0  0  0  0  0  0
   38.3660   23.8960   37.7410 O   0  0  0  0  0  0  0  0  0  0  0  0
   38.1920   23.4140   35.4070 N   0  0  0  0  0  0  0  0  0  0  0  0
   37.5690   22.8730   34.7670 H   0  0  0  0  0  0  0  0  0  0  0  0
   38.9090   23.0520   34.7280 H   0  0  0  0  0  0  0  0  0  0  0  0
  1 18  1  0  0  0  0
  2  7  1  0  0  0  0
  2  1  2  0  0  0  0
  3  2  1  0  0  0  0
  4  3  2  0  0  0  0
  4  5  1  0  0  0  0
  5  6  2  0  0  0  0
  6  1  1  0  0  0  0
  8  3  1  0  0  0  0
  9  5  1  0  0  0  0
 10  9  1  0  0  0  0
 10 11  1  0  0  0  0
 12 10  2  0  0  0  0
 13 15  2  0  0  0  0
 13 12  1  0  0  0  0
 14 13  1  0  0  0  0
 15 17  1  0  0  0  0
 16 15  1  0  0  0  0
 17  9  2  0  0  0  0
 18 21  1  1  0  0  0
 18 20  1  0  0  0  0
 18 19  1  0  0  0  0
 19 25  1  0  0  0  0
 19 22  1  1  0  0  0
 20 23  1  0  0  0  0
 20 19  1  0  0  0  0
 24 20  1  0  0  0  0
 25 26  1  0  0  0  0
 26 27  2  0  0  0  0
 28 26  1  0  0  0  0
 29 28  1  0  0  0  0
 30 28  1  0  0  0  0
M  END
>  <minimizedAffinity>
-5.01287699

$$$$

 OpenBabel03272507203D

 30 32  0  0  1  0  0  0  0  0999 V2000
   37.0220   27.4090   33.6840 C   0  0  0  0  0  0  0  0  0  0  0  0
   37.1080   27.6480   32.3150 C   0  0  0  0  0  0  0  0  0  0  0  0
   36.5290   28.8440   31.8950 C   0  0  0  0  0  0  0  0  0  0  0  0
   35.9280   29.7000   32.7860 N   0  0  0  0  0  0  0  0  0  0  0  0
   35.8710   29.4200   34.1150 C   0  0  0  0  0  0  0  0  0  0  0  0
   36.4290   28.2560   34.5660 N   0  0  0  0  0  0  0  0  0  0  0  0
   37.5840   26.9570   31.6600 H   0  0  0  0  0  0  0  0  0  0  0  0
   36.5570   29.0990   30.8350 H   0  0  0  0  0  0  0  0  0  0  0  0
   35.2280   30.3580   35.0050 C   0  0  0  0  0  0  0  0  0  0  0  0
   35.9640   31.2660   35.7280 C   0  0  0  0  0  0  0  0  0  0  0  0
   37.0450   31.3130   35.6620 H   0  0  0  0  0  0  0  0  0  0  0  0
   35.2550   32.1090   36.5420 C   0  0  0  0  0  3  0  0  0  0  0  0
   33.8830   32.1170   36.6870 C   0  0  0  0  0  0  0  0  0  0  0  0
   33.3790   32.7980   37.3370 H   0  0  0  0  0  0  0  0  0  0  0  0
   33.1650   31.1820   35.9370 C   0  0  0  0  0  0  0  0  0  0  0  0
   32.0780   31.1430   36.0120 H   0  0  0  0  0  0  0  0  0  0  0  0
   33.8580   30.3070   35.0970 C   0  0  0  0  0  3  0  0  0  0  0  0
   37.6490   26.1360   34.1700 C   0  0  1  0  0  0  0  0  0  0  0  0
   39.0630   26.0710   34.5400 C   0  0  2  0  0  0  0  0  0  0  0  0
   38.0740   26.2470   35.6510 C   0  0  0  0  0  0  0  0  0  0  0  0
   37.0360   25.2150   33.9960 H   0  0  0  0  0  0  0  0  0  0  0  0
   39.5280   25.0630   34.3110 H   0  0  0  0  0  0  0  0  0  0  0  0
   37.9070   25.3600   36.2960 H   0  0  0  0  0  0  0  0  0  0  0  0
   38.0310   27.2270   36.1430 H   0  0  0  0  0  0  0  0  0  0  0  0
   39.8660   27.1400   34.1710 O   0  0  0  0  0  0  0  0  0  0  0  0
   41.1870   27.1850   33.8930 C   0  0  0  0  0  0  0  0  0  0  0  0
   41.6510   27.7970   32.9080 O   0  0  0  0  0  0  0  0  0  0  0  0
   41.8620   26.4500   34.8710 N   0  0  0  0  0  0  0  0  0  0  0  0
   42.1850   26.5570   35.8580 H   0  0  0  0  0  0  0  0  0  0  0  0
   42.3120   25.5110   35.0110 H   0  0  0  0  0  0  0  0  0  0  0  0
  1 18  1  0  0  0  0
  1  6  1  0  0  0  0
  2  1  2  0  0  0  0
  3  2  1  0  0  0  0
  3  4  2  0  0  0  0
  4  5  1  0  0  0  0
  5  6  2  0  0  0  0
  5  9  1  0  0  0  0
  7  2  1  0  0  0  0
  8  3  1  0  0  0  0
  9 17  2  0  0  0  0
  9 10  1  0  0  0  0
 10 12  2  0  0  0  0
 11 10  1  0  0  0  0
 12 13  1  0  0  0  0
 13 14  1  0  0  0  0
 15 16  1  0  0  0  0
 15 13  2  0  0  0  0
 17 15  1  0  0  0  0
 18 21  1  6  0  0  0
 18 19  1  0  0  0  0
 18 20  1  0  0  0  0
 19 22  1  6  0  0  0
 19 20  1  0  0  0  0
 20 24  1  0  0  0  0
 20 23  1  0  0  0  0
 25 19  1  0  0  0  0
 26 25  1  0  0  0  0
 26 28  1  0  0  0  0
 27 26  2  0  0  0  0
 28 30  1  0  0  0  0
 28 29  1  0  0  0  0
M  END
>  <minimizedAffinity>
-4.99106932

$$$$

 OpenBabel03272507203D

 30 32  0  0  1  0  0  0  0  0999 V2000
   38.8650   24.8310   32.4500 C   0  0  0  0  0  0  0  0  0  0  0  0
   38.1480   23.8810   31.7290 C   0  0  0  0  0  0  0  0  0  0  0  0
   37.5850   22.8670   32.5000 C   0  0  0  0  0  0  0  0  0  0  0  0
   37.7420   22.8340   33.8650 N   0  0  0  0  0  0  0  0  0  0  0  0
   38.4520   23.7870   34.5230 C   0  0  0  0  0  0  0  0  0  0  0  0
   39.0210   24.8000   33.8000 N   0  0  0  0  0  0  0  0  0  0  0  0
   38.0500   23.9450   30.6710 H   0  0  0  0  0  0  0  0  0  0  0  0
   37.0080   22.0850   32.0030 H   0  0  0  0  0  0  0  0  0  0  0  0
   38.5840   23.7020   35.9580 C   0  0  0  0  0  0  0  0  0  0  0  0
   37.7140   24.3690   36.7890 C   0  0  0  0  0  0  0  0  0  0  0  0
   36.9050   24.9790   36.4040 H   0  0  0  0  0  0  0  0  0  0  0  0
   37.9280   24.2210   38.1340 C   0  0  0  0  0  3  0  0  0  0  0  0
   38.9300   23.4670   38.7080 C   0  0  0  0  0  0  0  0  0  0  0  0
   39.0520   23.3850   39.7650 H   0  0  0  0  0  0  0  0  0  0  0  0
   39.7960   22.8010   37.8350 C   0  0  0  0  0  0  0  0  0  0  0  0
   40.6060   22.1910   38.2340 H   0  0  0  0  0  0  0  0  0  0  0  0
   39.6060   22.9320   36.4580 C   0  0  0  0  0  3  0  0  0  0  0  0
   39.4720   25.9450   31.6500 C   0  0  1  0  0  0  0  0  0  0  0  0
   38.7590   27.2020   31.4220 C   0  0  2  0  0  0  0  0  0  0  0  0
   39.7650   27.1790   32.5320 C   0  0  0  0  0  0  0  0  0  0  0  0
   40.3740   25.6550   31.0530 H   0  0  0  0  0  0  0  0  0  0  0  0
   38.9960   27.6610   30.4130 H   0  0  0  0  0  0  0  0  0  0  0  0
   40.7090   27.7280   32.3420 H   0  0  0  0  0  0  0  0  0  0  0  0
   39.3860   27.1960   33.5620 H   0  0  0  0  0  0  0  0  0  0  0  0
   37.4070   27.2300   31.7310 O   0  0  0  0  0  0  0  0  0  0  0  0
   36.3270   27.0610   30.9400 C   0  0  0  0  0  0  0  0  0  0  0  0
   35.3610   26.3360   31.2570 O   0  0  0  0  0  0  0  0  0  0  0  0
   36.5170   27.8140   29.7780 N   0  0  0  0  0  0  0  0  0  0  0  0
   36.4510   28.8060   29.4590 H   0  0  0  0  0  0  0  0  0  0  0  0
   36.7980   27.6940   28.7720 H   0  0  0  0  0  0  0  0  0  0  0  0
  1  6  1  0  0  0  0
  2  1  2  0  0  0  0
  2  3  1  0  0  0  0
  3  4  2  0  0  0  0
  4  5  1  0  0  0  0
  5  9  1  0  0  0  0
  6  5  2  0  0  0  0
  7  2  1  0  0  0  0
  8  3  1  0  0  0  0
  9 17  2  0  0  0  0
  9 10  1  0  0  0  0
 10 12  2  0  0  0  0
 11 10  1  0  0  0  0
 12 13  1  0  0  0  0
 13 14  1  0  0  0  0
 15 16  1  0  0  0  0
 15 13  2  0  0  0  0
 17 15  1  0  0  0  0
 18 21  1  6  0  0  0
 18  1  1  0  0  0  0
 18 20  1  0  0  0  0
 19 22  1  6  0  0  0
 19 18  1  0  0  0  0
 19 25  1  0  0  0  0
 19 20  1  0  0  0  0
 20 24  1  0  0  0  0
 23 20  1  0  0  0  0
 26 27  2  0  0  0  0
 26 25  1  0  0  0  0
 28 26  1  0  0  0  0
 29 28  1  0  0  0  0
 30 28  1  0  0  0  0
M  END
>  <minimizedAffinity>
-4.94101095

$$$$

 OpenBabel03272507203D

 30 32  0  0  1  0  0  0  0  0999 V2000
   37.9890   25.0250   36.1320 C   0  0  0  0  0  0  0  0  0  0  0  0
   38.3110   26.3260   36.5060 C   0  0  0  0  0  0  0  0  0  0  0  0
   38.7240   27.1480   35.4600 C   0  0  0  0  0  0  0  0  0  0  0  0
   38.7980   26.6830   34.1700 N   0  0  0  0  0  0  0  0  0  0  0  0
   38.4710   25.4010   33.8550 C   0  0  0  0  0  0  0  0  0  0  0  0
   38.0610   24.5630   34.8550 N   0  0  0  0  0  0  0  0  0  0  0  0
   38.2400   26.6460   37.5190 H   0  0  0  0  0  0  0  0  0  0  0  0
   38.9940   28.1830   35.6780 H   0  0  0  0  0  0  0  0  0  0  0  0
   38.5670   24.9670   32.4820 C   0  0  0  0  0  0  0  0  0  0  0  0
   38.8930   25.8510   31.4810 C   0  0  0  0  0  0  0  0  0  0  0  0
   39.0900   26.8980   31.6800 H   0  0  0  0  0  0  0  0  0  0  0  0
   38.9570   25.3350   30.2130 C   0  0  0  0  0  3  0  0  0  0  0  0
   38.7230   24.0200   29.8710 C   0  0  0  0  0  0  0  0  0  0  0  0
   38.7860   23.6690   28.8650 H   0  0  0  0  0  0  0  0  0  0  0  0
   38.3940   23.1470   30.9130 C   0  0  0  0  0  0  0  0  0  0  0  0
   38.1980   22.0960   30.7000 H   0  0  0  0  0  0  0  0  0  0  0  0
   38.3200   23.6410   32.2170 C   0  0  0  0  0  3  0  0  0  0  0  0
   37.5270   24.1180   37.2340 C   0  0  1  0  0  0  0  0  0  0  0  0
   38.4690   23.3060   38.0050 C   0  0  2  0  0  0  0  0  0  0  0  0
   38.0300   24.6040   38.6110 C   0  0  0  0  0  0  0  0  0  0  0  0
   36.4230   23.9290   37.2530 H   0  0  0  0  0  0  0  0  0  0  0  0
   38.0270   22.3160   38.3310 H   0  0  0  0  0  0  0  0  0  0  0  0
   37.3270   24.5260   39.4660 H   0  0  0  0  0  0  0  0  0  0  0  0
   38.7620   25.4200   38.6510 H   0  0  0  0  0  0  0  0  0  0  0  0
   39.7610   23.1910   37.5100 O   0  0  0  0  0  0  0  0  0  0  0  0
   40.3590   22.1700   36.8600 C   0  0  0  0  0  0  0  0  0  0  0  0
   40.3180   22.0400   35.6190 O   0  0  0  0  0  0  0  0  0  0  0  0
   40.9810   21.3560   37.8100 N   0  0  0  0  0  0  0  0  0  0  0  0
   41.8480   21.3400   38.3930 H   0  0  0  0  0  0  0  0  0  0  0  0
   40.8350   20.4460   38.3170 H   0  0  0  0  0  0  0  0  0  0  0  0
  1  2  1  0  0  0  0
  1 18  1  0  0  0  0
  2  7  1  0  0  0  0
  3  8  1  0  0  0  0
  3  2  2  0  0  0  0
  4  3  1  0  0  0  0
  5  4  2  0  0  0  0
  5  6  1  0  0  0  0
  6  1  2  0  0  0  0
  9  5  1  0  0  0  0
 10 11  1  0  0  0  0
 10  9  2  0  0  0  0
 12 10  1  0  0  0  0
 13 12  2  0  0  0  0
 13 15  1  0  0  0  0
 14 13  1  0  0  0  0
 15 17  2  0  0  0  0
 16 15  1  0  0  0  0
 17  9  1  0  0  0  0
 18 21  1  6  0  0  0
 18 19  1  0  0  0  0
 18 20  1  0  0  0  0
 19 22  1  1  0  0  0
 19 20  1  0  0  0  0
 20 24  1  0  0  0  0
 20 23  1  0  0  0  0
 25 19  1  0  0  0  0
 26 25  1  0  0  0  0
 26 28  1  0  0  0  0
 27 26  2  0  0  0  0
 28 30  1  0  0  0  0
 28 29  1  0  0  0  0
M  END
>  <minimizedAffinity>
-4.87430048

$$$$

 OpenBabel03272507203D

 30 32  0  0  1  0  0  0  0  0999 V2000
   38.2220   24.8620   35.3600 C   0  0  0  0  0  0  0  0  0  0  0  0
   38.1760   25.7000   36.4700 C   0  0  0  0  0  0  0  0  0  0  0  0
   38.4010   27.0470   36.1930 C   0  0  0  0  0  0  0  0  0  0  0  0
   38.6460   27.4830   34.9140 N   0  0  0  0  0  0  0  0  0  0  0  0
   38.6800   26.6230   33.8620 C   0  0  0  0  0  0  0  0  0  0  0  0
   38.4630   25.2930   34.0940 N   0  0  0  0  0  0  0  0  0  0  0  0
   37.9830   25.3200   37.4460 H   0  0  0  0  0  0  0  0  0  0  0  0
   38.3820   27.7640   37.0150 H   0  0  0  0  0  0  0  0  0  0  0  0
   38.9410   27.1380   32.5390 C   0  0  0  0  0  0  0  0  0  0  0  0
   37.9500   27.7550   31.8120 C   0  0  0  0  0  0  0  0  0  0  0  0
   36.9450   27.8780   32.1980 H   0  0  0  0  0  0  0  0  0  0  0  0
   38.3040   28.2080   30.5680 C   0  0  0  0  0  3  0  0  0  0  0  0
   39.5560   28.0940   30.0010 C   0  0  0  0  0  0  0  0  0  0  0  0
   39.7790   28.4650   29.0250 H   0  0  0  0  0  0  0  0  0  0  0  0
   40.5400   27.4620   30.7670 C   0  0  0  0  0  0  0  0  0  0  0  0
   41.5480   27.3440   30.3670 H   0  0  0  0  0  0  0  0  0  0  0  0
   40.2120   26.9890   32.0390 C   0  0  0  0  0  3  0  0  0  0  0  0
   37.9690   23.4070   35.6240 C   0  0  1  0  0  0  0  0  0  0  0  0
   38.9620   22.5650   36.2910 C   0  0  2  0  0  0  0  0  0  0  0  0
   37.8580   23.1190   37.1370 C   0  0  0  0  0  0  0  0  0  0  0  0
   37.0980   22.9740   35.0670 H   0  0  0  0  0  0  0  0  0  0  0  0
   38.9480   21.4950   35.9180 H   0  0  0  0  0  0  0  0  0  0  0  0
   37.0850   22.3930   37.4620 H   0  0  0  0  0  0  0  0  0  0  0  0
   38.1120   23.9150   37.8490 H   0  0  0  0  0  0  0  0  0  0  0  0
   40.2440   23.0800   36.4250 O   0  0  0  0  0  0  0  0  0  0  0  0
   41.3440   22.5450   36.9960 C   0  0  0  0  0  0  0  0  0  0  0  0
   42.4900   23.0120   36.8270 O   0  0  0  0  0  0  0  0  0  0  0  0
   40.9460   21.4410   37.7550 N   0  0  0  0  0  0  0  0  0  0  0  0
   40.5070   21.2330   38.6800 H   0  0  0  0  0  0  0  0  0  0  0  0
   40.9270   20.3910   37.7080 H   0  0  0  0  0  0  0  0  0  0  0  0
  1 18  1  0  0  0  0
  1  2  1  0  0  0  0
  2  7  1  0  0  0  0
  3  2  2  0  0  0  0
  3  8  1  0  0  0  0
  4  3  1  0  0  0  0
  5  6  1  0  0  0  0
  5  4  2  0  0  0  0
  6  1  2  0  0  0  0
  9  5  1  0  0  0  0
 10 11  1  0  0  0  0
 10  9  2  0  0  0  0
 12 10  1  0  0  0  0
 13 12  2  0  0  0  0
 13 15  1  0  0  0  0
 14 13  1  0  0  0  0
 15 17  2  0  0  0  0
 16 15  1  0  0  0  0
 17  9  1  0  0  0  0
 18 21  1  6  0  0  0
 18 19  1  0  0  0  0
 18 20  1  0  0  0  0
 19 22  1  6  0  0  0
 19 25  1  0  0  0  0
 19 20  1  0  0  0  0
 20 23  1  0  0  0  0
 20 24  1  0  0  0  0
 25 26  1  0  0  0  0
 26 28  1  0  0  0  0
 27 26  2  0  0  0  0
 28 29  1  0  0  0  0
 30 28  1  0  0  0  0
M  END
>  <minimizedAffinity>
-4.78591967

$$$$

 OpenBabel03272507203D

 30 32  0  0  1  0  0  0  0  0999 V2000
   36.9440   25.5570   31.7090 C   0  0  0  0  0  0  0  0  0  0  0  0
   38.0230   25.6520   30.8360 C   0  0  0  0  0  0  0  0  0  0  0  0
   38.5200   24.4300   30.3870 C   0  0  0  0  0  0  0  0  0  0  0  0
   37.9650   23.2400   30.7920 N   0  0  0  0  0  0  0  0  0  0  0  0
   36.9100   23.2010   31.6480 C   0  0  0  0  0  0  0  0  0  0  0  0
   36.3940   24.3800   32.1100 N   0  0  0  0  0  0  0  0  0  0  0  0
   38.4220   26.5960   30.5460 H   0  0  0  0  0  0  0  0  0  0  0  0
   39.3670   24.4260   29.6990 H   0  0  0  0  0  0  0  0  0  0  0  0
   36.3670   21.9220   32.0390 C   0  0  0  0  0  0  0  0  0  0  0  0
   36.2210   21.5910   33.3650 C   0  0  0  0  0  0  0  0  0  0  0  0
   36.5040   22.2690   34.1620 H   0  0  0  0  0  0  0  0  0  0  0  0
   35.6960   20.3530   33.6270 C   0  0  0  0  0  3  0  0  0  0  0  0
   35.3090   19.4300   32.6780 C   0  0  0  0  0  0  0  0  0  0  0  0
   34.9050   18.4760   32.9360 H   0  0  0  0  0  0  0  0  0  0  0  0
   35.4710   19.7980   31.3380 C   0  0  0  0  0  0  0  0  0  0  0  0
   35.1820   19.1070   30.5460 H   0  0  0  0  0  0  0  0  0  0  0  0
   36.0040   21.0530   31.0380 C   0  0  0  0  0  3  0  0  0  0  0  0
   36.3770   26.8570   32.1990 C   0  0  1  0  0  0  0  0  0  0  0  0
   36.8640   27.4920   33.4240 C   0  0  2  0  0  0  0  0  0  0  0  0
   37.4240   27.9900   32.1270 C   0  0  0  0  0  0  0  0  0  0  0  0
   35.4180   27.1640   31.7090 H   0  0  0  0  0  0  0  0  0  0  0  0
   36.0500   28.0540   33.9770 H   0  0  0  0  0  0  0  0  0  0  0  0
   37.0710   28.9890   31.7990 H   0  0  0  0  0  0  0  0  0  0  0  0
   38.4660   27.7370   31.8920 H   0  0  0  0  0  0  0  0  0  0  0  0
   37.6650   26.7270   34.2600 O   0  0  0  0  0  0  0  0  0  0  0  0
   38.8720   26.9980   34.8000 C   0  0  0  0  0  0  0  0  0  0  0  0
   39.9480   26.7010   34.2400 O   0  0  0  0  0  0  0  0  0  0  0  0
   38.6660   27.6330   36.0280 N   0  0  0  0  0  0  0  0  0  0  0  0
   38.4170   28.5770   36.3990 H   0  0  0  0  0  0  0  0  0  0  0  0
   38.6760   27.4250   37.0590 H   0  0  0  0  0  0  0  0  0  0  0  0
  1  6  1  0  0  0  0
  1 18  1  0  0  0  0
  2  1  2  0  0  0  0
  3  4  2  0  0  0  0
  3  2  1  0  0  0  0
  4  5  1  0  0  0  0
  5  9  1  0  0  0  0
  5  6  2  0  0  0  0
  7  2  1  0  0  0  0
  8  3  1  0  0  0  0
  9 10  1  0  0  0  0
 10 12  2  0  0  0  0
 10 11  1  0  0  0  0
 13 14  1  0  0  0  0
 13 12  1  0  0  0  0
 15 13  2  0  0  0  0
 16 15  1  0  0  0  0
 17 15  1  0  0  0  0
 17  9  2  0  0  0  0
 18 21  1  6  0  0  0
 18 19  1  0  0  0  0
 19 22  1  1  0  0  0
 19 25  1  0  0  0  0
 20 18  1  0  0  0  0
 20 19  1  0  0  0  0
 23 20  1  0  0  0  0
 24 20  1  0  0  0  0
 25 26  1  0  0  0  0
 26 28  1  0  0  0  0
 27 26  2  0  0  0  0
 28 29  1  0  0  0  0
 28 30  1  0  0  0  0
M  END
>  <minimizedAffinity>
-4.78250408

$$$$

 OpenBabel03272507203D

 30 32  0  0  1  0  0  0  0  0999 V2000
   37.3930   23.6500   32.5020 C   0  0  0  0  0  0  0  0  0  0  0  0
   38.2750   23.2050   33.4830 C   0  0  0  0  0  0  0  0  0  0  0  0
   38.6280   24.1660   34.4270 C   0  0  0  0  0  0  0  0  0  0  0  0
   38.1300   25.4450   34.3690 N   0  0  0  0  0  0  0  0  0  0  0  0
   37.2710   25.8300   33.3890 C   0  0  0  0  0  0  0  0  0  0  0  0
   36.8990   24.9140   32.4430 N   0  0  0  0  0  0  0  0  0  0  0  0
   38.6370   22.2040   33.4920 H   0  0  0  0  0  0  0  0  0  0  0  0
   39.3170   23.8900   35.2280 H   0  0  0  0  0  0  0  0  0  0  0  0
   36.7780   27.1870   33.3770 C   0  0  0  0  0  0  0  0  0  0  0  0
   36.5700   27.8740   34.5490 C   0  0  0  0  0  0  0  0  0  0  0  0
   36.7640   27.4290   35.5190 H   0  0  0  0  0  0  0  0  0  0  0  0
   36.1010   29.1560   34.4260 C   0  0  0  0  0  3  0  0  0  0  0  0
   35.8280   29.7970   33.2360 C   0  0  0  0  0  0  0  0  0  0  0  0
   35.4630   30.7990   33.1950 H   0  0  0  0  0  0  0  0  0  0  0  0
   36.0510   29.0700   32.0630 C   0  0  0  0  0  0  0  0  0  0  0  0
   35.8520   29.5280   31.0930 H   0  0  0  0  0  0  0  0  0  0  0  0
   36.5280   27.7610   32.1540 C   0  0  0  0  0  3  0  0  0  0  0  0
   36.9820   22.6340   31.4770 C   0  0  1  0  0  0  0  0  0  0  0  0
   35.9920   21.5990   31.7790 C   0  0  2  0  0  0  0  0  0  0  0  0
   35.5060   22.8210   31.0600 C   0  0  0  0  0  0  0  0  0  0  0  0
   37.6490   22.5770   30.5800 H   0  0  0  0  0  0  0  0  0  0  0  0
   36.1960   20.6280   31.2320 H   0  0  0  0  0  0  0  0  0  0  0  0
   35.2600   22.6850   29.9870 H   0  0  0  0  0  0  0  0  0  0  0  0
   34.8820   23.5270   31.6210 H   0  0  0  0  0  0  0  0  0  0  0  0
   35.6510   21.4160   33.1110 O   0  0  0  0  0  0  0  0  0  0  0  0
   35.5680   20.2840   33.8430 C   0  0  0  0  0  0  0  0  0  0  0  0
   35.5650   19.1450   33.3310 O   0  0  0  0  0  0  0  0  0  0  0  0
   35.4920   20.6440   35.1910 N   0  0  0  0  0  0  0  0  0  0  0  0
   36.1200   20.9590   35.9630 H   0  0  0  0  0  0  0  0  0  0  0  0
   34.7850   20.7410   35.9640 H   0  0  0  0  0  0  0  0  0  0  0  0
  1  2  1  0  0  0  0
  2  7  1  0  0  0  0
  2  3  2  0  0  0  0
  3  8  1  0  0  0  0
  4  3  1  0  0  0  0
  5  4  2  0  0  0  0
  6  1  2  0  0  0  0
  6  5  1  0  0  0  0
  9  5  1  0  0  0  0
  9 10  1  0  0  0  0
 10 11  1  0  0  0  0
 12 10  2  0  0  0  0
 13 12  1  0  0  0  0
 14 13  1  0  0  0  0
 15 17  1  0  0  0  0
 15 13  2  0  0  0  0
 16 15  1  0  0  0  0
 17  9  2  0  0  0  0
 18 21  1  6  0  0  0
 18 19  1  0  0  0  0
 18  1  1  0  0  0  0
 19 22  1  6  0  0  0
 19 25  1  0  0  0  0
 20 18  1  0  0  0  0
 20 24  1  0  0  0  0
 20 19  1  0  0  0  0
 23 20  1  0  0  0  0
 25 26  1  0  0  0  0
 26 28  1  0  0  0  0
 27 26  2  0  0  0  0
 28 29  1  0  0  0  0
 28 30  1  0  0  0  0
M  END
>  <minimizedAffinity>
-4.74366522

$$$$
