
 OpenBabel03272509273D

 41 43  0  0  1  0  0  0  0  0999 V2000
   38.4300   31.2890   48.4770 C   0  0  2  0  0  0  0  0  0  0  0  0
   38.4140   31.7230   49.9340 C   0  0  0  0  0  0  0  0  0  0  0  0
   38.6440   33.1940   50.0560 C   0  0  0  0  0  0  0  0  0  0  0  0
   39.5730   33.6610   48.9450 C   0  0  0  0  0  0  0  0  0  0  0  0
   38.6430   33.7310   47.7690 C   0  0  0  0  0  0  0  0  0  0  0  0
   38.1300   32.3330   47.5170 C   0  0  1  0  0  0  0  0  0  0  0  0
   39.4170   30.7590   48.3790 H   0  0  0  0  0  0  0  0  0  0  0  0
   39.1000   31.1640   50.5720 H   0  0  0  0  0  0  0  0  0  0  0  0
   37.3880   31.5380   50.3690 H   0  0  0  0  0  0  0  0  0  0  0  0
   39.1160   33.4540   51.0110 H   0  0  0  0  0  0  0  0  0  0  0  0
   37.7000   33.7740   49.9810 H   0  0  0  0  0  0  0  0  0  0  0  0
   39.8620   34.6970   49.2050 H   0  0  0  0  0  0  0  0  0  0  0  0
   40.4180   32.9820   48.8040 H   0  0  0  0  0  0  0  0  0  0  0  0
   37.8060   34.4100   48.1130 H   0  0  0  0  0  0  0  0  0  0  0  0
   39.1290   34.2540   46.9670 H   0  0  0  0  0  0  0  0  0  0  0  0
   37.0640   32.4420   47.3210 H   0  0  0  0  0  0  0  0  0  0  0  0
   38.8860   32.0810   46.2090 C   0  0  0  0  0  0  0  0  0  0  0  0
   40.0820   31.3860   46.1730 C   0  0  0  0  0  0  0  0  0  0  0  0
   40.4840   31.0140   47.1090 H   0  0  0  0  0  0  0  0  0  0  0  0
   40.8250   31.1060   45.0520 C   0  0  0  0  0  3  0  0  0  0  0  0
   40.3250   31.5640   43.8540 C   0  0  0  0  0  0  0  0  0  0  0  0
   40.8800   31.3630   42.9620 H   0  0  0  0  0  0  0  0  0  0  0  0
   39.1430   32.2610   43.8130 C   0  0  0  0  0  0  0  0  0  0  0  0
   38.7990   32.5940   42.8580 H   0  0  0  0  0  0  0  0  0  0  0  0
   38.4480   32.5070   44.9770 C   0  0  0  0  0  3  0  0  0  0  0  0
   37.2020   29.9550   48.3500 S   0  0  0  0  0  0  0  0  0  0  0  0
   35.5370   30.5710   48.0230 C   0  0  0  0  0  0  0  0  0  0  0  0
   35.5680   31.6620   48.3430 H   0  0  0  0  0  0  0  0  0  0  0  0
   35.4000   30.6530   46.9490 H   0  0  0  0  0  0  0  0  0  0  0  0
   34.5320   29.8160   48.8210 C   0  0  0  0  0  0  0  0  0  0  0  0
   33.6770   30.4940   49.0530 H   0  0  0  0  0  0  0  0  0  0  0  0
   34.9520   29.3580   49.7430 H   0  0  0  0  0  0  0  0  0  0  0  0
   33.4610   26.4760   47.5460 C   0  0  0  0  0  0  0  0  0  0  0  0
   34.0990   27.4370   48.3190 C   0  0  0  0  0  0  0  0  0  0  0  0
   33.8770   28.7610   48.0790 C   0  0  0  0  0  0  0  0  0  0  0  0
   33.0070   29.0610   47.0580 N   0  0  0  0  0  0  0  0  0  0  0  0
   32.4100   28.1200   46.3340 C   0  0  0  0  0  0  0  0  0  0  0  0
   32.6190   26.8200   46.5570 N   0  0  0  0  0  0  0  0  0  0  0  0
   33.5950   25.4150   47.6830 H   0  0  0  0  0  0  0  0  0  0  0  0
   34.7280   26.9870   49.0680 H   0  0  0  0  0  0  0  0  0  0  0  0
   31.7300   28.4170   45.5380 H   0  0  0  0  0  0  0  0  0  0  0  0
  1  7  1  6  0  0  0
  1  2  1  0  0  0  0
  2  3  1  0  0  0  0
  2  9  1  0  0  0  0
  2  8  1  0  0  0  0
  3 10  1  0  0  0  0
  4 12  1  0  0  0  0
  4  3  1  0  0  0  0
  5 14  1  0  0  0  0
  5  4  1  0  0  0  0
  6 16  1  6  0  0  0
  6  5  1  0  0  0  0
  6  1  1  0  0  0  0
 11  3  1  0  0  0  0
 13  4  1  0  0  0  0
 15  5  1  0  0  0  0
 17  6  1  0  0  0  0
 18 17  1  0  0  0  0
 18 19  1  0  0  0  0
 20 18  2  0  0  0  0
 21 20  1  0  0  0  0
 22 21  1  0  0  0  0
 23 21  2  0  0  0  0
 23 25  1  0  0  0  0
 24 23  1  0  0  0  0
 25 17  2  0  0  0  0
 26  1  1  0  0  0  0
 27 28  1  0  0  0  0
 27 26  1  0  0  0  0
 27 30  1  0  0  0  0
 29 27  1  0  0  0  0
 30 31  1  0  0  0  0
 30 32  1  0  0  0  0
 33 39  1  0  0  0  0
 33 34  1  0  0  0  0
 34 40  1  0  0  0  0
 35 34  2  0  0  0  0
 35 30  1  0  0  0  0
 36 35  1  0  0  0  0
 37 38  1  0  0  0  0
 37 36  2  0  0  0  0
 38 33  2  0  0  0  0
 41 37  1  0  0  0  0
M  END
>  <minimizedAffinity>
-4.25977468

>  <minimizedRMSD>
1.92553198

$$$$
