
 OpenBabel03272506193D

 34 36  0  0  0  0  0  0  0  0999 V2000
   34.7570   29.4610   48.8620 C   0  0  0  0  0  0  0  0  0  0  0  0
   34.1860   30.1360   47.7680 C   0  0  0  0  0  0  0  0  0  0  0  0
   33.4480   29.3810   46.8680 C   0  0  0  0  0  0  0  0  0  0  0  0
   33.3030   28.0420   47.0720 N   0  0  0  0  0  0  0  0  0  0  0  0
   33.8690   27.4130   48.1450 C   0  0  0  0  0  0  0  0  0  0  0  0
   34.5850   28.1280   49.0210 N   0  0  0  0  0  0  0  0  0  0  0  0
   34.2770   31.1930   47.5760 H   0  0  0  0  0  0  0  0  0  0  0  0
   33.7150   26.3610   48.2430 H   0  0  0  0  0  0  0  0  0  0  0  0
   35.5400   30.2810   49.8300 C   0  0  0  0  0  0  0  0  0  0  0  0
   36.4460   31.2300   49.0730 C   0  0  0  0  0  0  0  0  0  0  0  0
   37.8960   30.8790   49.2220 C   0  0  0  0  0  0  0  0  0  0  0  0
   38.3400   30.7520   50.6520 C   0  0  0  0  0  0  0  0  0  0  0  0
   37.3280   30.0860   51.5350 C   0  0  0  0  0  0  0  0  0  0  0  0
   36.2700   29.3510   50.7350 C   0  0  0  0  0  0  0  0  0  0  0  0
   34.7780   30.8410   50.4140 H   0  0  0  0  0  0  0  0  0  0  0  0
   36.2270   31.3060   47.9970 H   0  0  0  0  0  0  0  0  0  0  0  0
   36.3160   32.2310   49.5340 H   0  0  0  0  0  0  0  0  0  0  0  0
   38.4840   31.6830   48.7350 H   0  0  0  0  0  0  0  0  0  0  0  0
   38.1160   29.9510   48.6300 H   0  0  0  0  0  0  0  0  0  0  0  0
   38.7470   31.6990   51.0380 H   0  0  0  0  0  0  0  0  0  0  0  0
   39.2260   30.0520   50.6310 H   0  0  0  0  0  0  0  0  0  0  0  0
   37.7580   29.4280   52.3040 H   0  0  0  0  0  0  0  0  0  0  0  0
   36.7990   30.9050   52.0900 H   0  0  0  0  0  0  0  0  0  0  0  0
   35.5540   28.9330   51.4730 H   0  0  0  0  0  0  0  0  0  0  0  0
   36.7090   28.4650   50.2240 H   0  0  0  0  0  0  0  0  0  0  0  0
   32.7950   29.9240   45.6870 C   0  0  0  0  0  0  0  0  0  0  0  0
   32.8110   29.1890   44.5210 C   0  0  0  0  0  0  0  0  0  0  0  0
   33.2890   28.2170   44.4350 H   0  0  0  0  0  0  0  0  0  0  0  0
   32.2060   29.6520   43.3580 C   0  0  0  0  0  3  0  0  0  0  0  0
   31.5610   30.8710   43.3180 C   0  0  0  0  0  0  0  0  0  0  0  0
   31.0670   31.3020   42.4610 H   0  0  0  0  0  0  0  0  0  0  0  0
   31.5510   31.5970   44.4900 C   0  0  0  0  0  0  0  0  0  0  0  0
   31.0570   32.5630   44.5130 H   0  0  0  0  0  0  0  0  0  0  0  0
   32.1510   31.1410   45.6440 C   0  0  0  0  0  3  0  0  0  0  0  0
  1  6  1  0  0  0  0
  1  9  1  0  0  0  0
  2  1  2  0  0  0  0
  3  4  2  0  0  0  0
  3  2  1  0  0  0  0
  4  5  1  0  0  0  0
  5  8  1  0  0  0  0
  5  6  2  0  0  0  0
  7  2  1  0  0  0  0
  9 15  1  0  0  0  0
  9 14  1  0  0  0  0
 10 11  1  0  0  0  0
 10 17  1  0  0  0  0
 10  9  1  0  0  0  0
 11 12  1  0  0  0  0
 12 20  1  0  0  0  0
 12 13  1  0  0  0  0
 13 23  1  0  0  0  0
 13 22  1  0  0  0  0
 14 24  1  0  0  0  0
 14 13  1  0  0  0  0
 16 10  1  0  0  0  0
 18 11  1  0  0  0  0
 19 11  1  0  0  0  0
 21 12  1  0  0  0  0
 25 14  1  0  0  0  0
 26  3  1  0  0  0  0
 27 26  2  0  0  0  0
 28 27  1  0  0  0  0
 29 27  1  0  0  0  0
 30 29  2  0  0  0  0
 30 32  1  0  0  0  0
 31 30  1  0  0  0  0
 32 33  1  0  0  0  0
 32 34  2  0  0  0  0
 34 26  1  0  0  0  0
M  END
>  <minimizedAffinity>
-5.25625086

>  <minimizedRMSD>
0.205084994

$$$$
