
 OpenBabel03272506193D

 34 36  0  0  0  0  0  0  0  0999 V2000
   34.7050   29.5140   48.9380 C   0  0  0  0  0  0  0  0  0  0  0  0
   34.3140   30.2050   47.7770 C   0  0  0  0  0  0  0  0  0  0  0  0
   33.5620   29.5070   46.8420 C   0  0  0  0  0  0  0  0  0  0  0  0
   33.2360   28.2060   47.0780 N   0  0  0  0  0  0  0  0  0  0  0  0
   33.6290   27.5600   48.2160 C   0  0  0  0  0  0  0  0  0  0  0  0
   34.3550   28.2200   49.1260 N   0  0  0  0  0  0  0  0  0  0  0  0
   34.5510   31.2330   47.5590 H   0  0  0  0  0  0  0  0  0  0  0  0
   33.3380   26.5400   48.3350 H   0  0  0  0  0  0  0  0  0  0  0  0
   35.5030   30.2730   49.9410 C   0  0  0  0  0  0  0  0  0  0  0  0
   36.4150   31.2510   49.2290 C   0  0  0  0  0  0  0  0  0  0  0  0
   37.8620   30.8770   49.3490 C   0  0  0  0  0  0  0  0  0  0  0  0
   38.3140   30.6710   50.7670 C   0  0  0  0  0  0  0  0  0  0  0  0
   37.3010   29.9700   51.6210 C   0  0  0  0  0  0  0  0  0  0  0  0
   36.2290   29.2900   50.7920 C   0  0  0  0  0  0  0  0  0  0  0  0
   34.7510   30.8100   50.5590 H   0  0  0  0  0  0  0  0  0  0  0  0
   36.1890   31.3850   48.1600 H   0  0  0  0  0  0  0  0  0  0  0  0
   36.2990   32.2280   49.7430 H   0  0  0  0  0  0  0  0  0  0  0  0
   38.4560   31.6990   48.9010 H   0  0  0  0  0  0  0  0  0  0  0  0
   38.0680   29.9790   48.7080 H   0  0  0  0  0  0  0  0  0  0  0  0
   38.7330   31.5920   51.1990 H   0  0  0  0  0  0  0  0  0  0  0  0
   39.1920   29.9630   50.7030 H   0  0  0  0  0  0  0  0  0  0  0  0
   37.7280   29.2680   52.3520 H   0  0  0  0  0  0  0  0  0  0  0  0
   36.7840   30.7650   52.2220 H   0  0  0  0  0  0  0  0  0  0  0  0
   35.5140   28.8410   51.5120 H   0  0  0  0  0  0  0  0  0  0  0  0
   36.6540   28.4260   50.2320 H   0  0  0  0  0  0  0  0  0  0  0  0
   33.0800   30.0740   45.5930 C   0  0  0  0  0  0  0  0  0  0  0  0
   32.1470   31.0870   45.6380 C   0  0  0  0  0  0  0  0  0  0  0  0
   31.7460   31.4900   46.5650 H   0  0  0  0  0  0  0  0  0  0  0  0
   31.6450   31.6720   44.4800 C   0  0  0  0  0  3  0  0  0  0  0  0
   32.0620   31.2620   43.2290 C   0  0  0  0  0  0  0  0  0  0  0  0
   31.7260   31.6600   42.2850 H   0  0  0  0  0  0  0  0  0  0  0  0
   32.9970   30.2490   43.1970 C   0  0  0  0  0  0  0  0  0  0  0  0
   33.3580   29.8900   42.2380 H   0  0  0  0  0  0  0  0  0  0  0  0
   33.4940   29.6680   44.3440 C   0  0  0  0  0  3  0  0  0  0  0  0
  1  6  1  0  0  0  0
  1  9  1  0  0  0  0
  2  1  2  0  0  0  0
  3  4  2  0  0  0  0
  3  2  1  0  0  0  0
  4  5  1  0  0  0  0
  5  8  1  0  0  0  0
  5  6  2  0  0  0  0
  7  2  1  0  0  0  0
  9 15  1  0  0  0  0
  9 14  1  0  0  0  0
 10 11  1  0  0  0  0
 10 17  1  0  0  0  0
 10  9  1  0  0  0  0
 11 12  1  0  0  0  0
 12 20  1  0  0  0  0
 12 13  1  0  0  0  0
 13 23  1  0  0  0  0
 13 22  1  0  0  0  0
 14 24  1  0  0  0  0
 14 13  1  0  0  0  0
 16 10  1  0  0  0  0
 18 11  1  0  0  0  0
 19 11  1  0  0  0  0
 21 12  1  0  0  0  0
 25 14  1  0  0  0  0
 26 27  1  0  0  0  0
 26  3  1  0  0  0  0
 27 28  1  0  0  0  0
 29 27  2  0  0  0  0
 30 29  1  0  0  0  0
 31 30  1  0  0  0  0
 32 30  2  0  0  0  0
 32 34  1  0  0  0  0
 33 32  1  0  0  0  0
 34 26  2  0  0  0  0
M  END
>  <minimizedAffinity>
-5.30653048

>  <minimizedRMSD>
0.404604375

$$$$
