
 OpenBabel03272506193D

 34 36  0  0  0  0  0  0  0  0999 V2000
   34.7520   29.4490   48.8620 C   0  0  0  0  0  0  0  0  0  0  0  0
   34.1530   30.1130   47.7770 C   0  0  0  0  0  0  0  0  0  0  0  0
   33.4110   29.3450   46.8900 C   0  0  0  0  0  0  0  0  0  0  0  0
   33.2910   28.0050   47.0990 N   0  0  0  0  0  0  0  0  0  0  0  0
   33.8840   27.3860   48.1640 C   0  0  0  0  0  0  0  0  0  0  0  0
   34.6040   28.1140   49.0260 N   0  0  0  0  0  0  0  0  0  0  0  0
   34.2240   31.1710   47.5820 H   0  0  0  0  0  0  0  0  0  0  0  0
   33.7490   26.3320   48.2650 H   0  0  0  0  0  0  0  0  0  0  0  0
   35.5390   30.2830   49.8150 C   0  0  0  0  0  0  0  0  0  0  0  0
   36.4430   31.2200   49.0420 C   0  0  0  0  0  0  0  0  0  0  0  0
   37.8930   30.8700   49.1910 C   0  0  0  0  0  0  0  0  0  0  0  0
   38.3420   30.7650   50.6210 C   0  0  0  0  0  0  0  0  0  0  0  0
   37.3330   30.1120   51.5170 C   0  0  0  0  0  0  0  0  0  0  0  0
   36.2710   29.3660   50.7320 C   0  0  0  0  0  0  0  0  0  0  0  0
   34.7790   30.8510   50.3930 H   0  0  0  0  0  0  0  0  0  0  0  0
   36.2200   31.2800   47.9650 H   0  0  0  0  0  0  0  0  0  0  0  0
   36.3150   32.2280   49.4880 H   0  0  0  0  0  0  0  0  0  0  0  0
   38.4810   31.6660   48.6900 H   0  0  0  0  0  0  0  0  0  0  0  0
   38.1110   29.9330   48.6120 H   0  0  0  0  0  0  0  0  0  0  0  0
   38.7500   31.7170   50.9920 H   0  0  0  0  0  0  0  0  0  0  0  0
   39.2280   30.0630   50.6070 H   0  0  0  0  0  0  0  0  0  0  0  0
   37.7650   29.4650   52.2950 H   0  0  0  0  0  0  0  0  0  0  0  0
   36.8060   30.9390   52.0610 H   0  0  0  0  0  0  0  0  0  0  0  0
   35.5580   28.9590   51.4780 H   0  0  0  0  0  0  0  0  0  0  0  0
   36.7080   28.4720   50.2330 H   0  0  0  0  0  0  0  0  0  0  0  0
   32.7300   29.8760   45.7210 C   0  0  0  0  0  0  0  0  0  0  0  0
   32.6250   29.0860   44.5970 C   0  0  0  0  0  0  0  0  0  0  0  0
   33.0280   28.0780   44.5360 H   0  0  0  0  0  0  0  0  0  0  0  0
   31.9870   29.5340   43.4450 C   0  0  0  0  0  3  0  0  0  0  0  0
   31.4270   30.7930   43.3760 C   0  0  0  0  0  0  0  0  0  0  0  0
   30.9160   31.2170   42.5260 H   0  0  0  0  0  0  0  0  0  0  0  0
   31.5380   31.5750   44.5070 C   0  0  0  0  0  0  0  0  0  0  0  0
   31.1150   32.5760   44.5060 H   0  0  0  0  0  0  0  0  0  0  0  0
   32.1710   31.1330   45.6490 C   0  0  0  0  0  3  0  0  0  0  0  0
  1  6  1  0  0  0  0
  1  9  1  0  0  0  0
  2  1  2  0  0  0  0
  3  4  2  0  0  0  0
  3  2  1  0  0  0  0
  4  5  1  0  0  0  0
  5  8  1  0  0  0  0
  5  6  2  0  0  0  0
  7  2  1  0  0  0  0
  9 15  1  0  0  0  0
  9 14  1  0  0  0  0
 10 11  1  0  0  0  0
 10 17  1  0  0  0  0
 10  9  1  0  0  0  0
 11 12  1  0  0  0  0
 12 20  1  0  0  0  0
 12 13  1  0  0  0  0
 13 23  1  0  0  0  0
 13 22  1  0  0  0  0
 14 24  1  0  0  0  0
 14 13  1  0  0  0  0
 16 10  1  0  0  0  0
 18 11  1  0  0  0  0
 19 11  1  0  0  0  0
 21 12  1  0  0  0  0
 25 14  1  0  0  0  0
 26  3  1  0  0  0  0
 27 26  2  0  0  0  0
 28 27  1  0  0  0  0
 29 27  1  0  0  0  0
 30 29  2  0  0  0  0
 30 32  1  0  0  0  0
 31 30  1  0  0  0  0
 32 34  2  0  0  0  0
 33 32  1  0  0  0  0
 34 26  1  0  0  0  0
M  END
>  <minimizedAffinity>
-5.24761963

>  <minimizedRMSD>
0.500048876

$$$$
