
 OpenBabel03262520173D

 18 19  0  0  0  0  0  0  0  0999 V2000
   37.2250   30.1050   51.4990 C   0  0  0  0  0  0  0  0  0  0  0  0
   37.9740   30.8170   50.5220 C   0  0  0  0  0  0  0  0  0  0  0  0
   37.6460   30.6150   49.1840 C   0  0  0  0  0  0  0  0  0  0  0  0
   36.6420   29.7610   48.8680 N   0  0  0  0  0  0  0  0  0  0  0  0
   35.9490   29.0970   49.8370 C   0  0  0  0  0  0  0  0  0  0  0  0
   36.2430   29.2730   51.1350 N   0  0  0  0  0  0  0  0  0  0  0  0
   37.5470   30.3220   52.4990 H   0  0  0  0  0  0  0  0  0  0  0  0
   38.7620   31.4870   50.7860 H   0  0  0  0  0  0  0  0  0  0  0  0
   35.1830   28.4530   49.4700 H   0  0  0  0  0  0  0  0  0  0  0  0
   38.3420   31.2880   48.0940 C   0  0  0  0  0  0  0  0  0  0  0  0
   38.8380   32.5490   48.3500 C   0  0  0  0  0  0  0  0  0  0  0  0
   38.7350   33.0450   49.2970 H   0  0  0  0  0  0  0  0  0  0  0  0
   39.5200   33.2780   47.3730 C   0  0  0  0  0  0  0  0  0  0  0  0
   39.6790   32.6870   46.1370 C   0  0  0  0  0  0  0  0  0  0  0  0
   40.2010   33.2060   45.3370 H   0  0  0  0  0  0  0  0  0  0  0  0
   39.1990   31.4250   45.8330 C   0  0  0  0  0  0  0  0  0  0  0  0
   39.3150   30.9470   44.8710 H   0  0  0  0  0  0  0  0  0  0  0  0
   38.5310   30.7580   46.8560 C   0  0  0  0  0  0  0  0  0  0  0  0
  1  7  1  0  0  0  0
  2  8  1  0  0  0  0
  2  1  2  0  0  0  0
  3  2  1  0  0  0  0
  4  3  2  0  0  0  0
  4  5  1  0  0  0  0
  5  6  2  0  0  0  0
  6  1  1  0  0  0  0
  9  5  1  0  0  0  0
 10 11  1  0  0  0  0
 10  3  1  0  0  0  0
 11 12  1  0  0  0  0
 13 11  2  0  0  0  0
 14 13  1  0  0  0  0
 15 14  1  0  0  0  0
 16 14  2  0  0  0  0
 16 18  1  0  0  0  0
 17 16  1  0  0  0  0
 18 10  2  0  0  0  0
M  END
>  <minimizedAffinity>
-4.93119049

>  <minimizedRMSD>
0.678361118

$$$$
