
 OpenBabel03272503213D

 35 37  0  0  0  0  0  0  0  0999 V2000
   36.6670   27.5050   33.1220 C   0  0  0  0  0  0  0  0  0  0  0  0
   36.1640   28.4140   32.2960 C   0  0  0  0  0  0  0  0  0  0  0  0
   35.6120   29.5350   32.8090 C   0  0  0  0  0  0  0  0  0  0  0  0
   35.6060   29.6690   34.1770 C   0  0  0  0  0  0  0  0  0  0  0  0
   36.4210   28.1310   34.7210 S   0  0  0  0  0  0  0  0  0  0  0  0
   36.2080   28.2300   31.2260 H   0  0  0  0  0  0  0  0  0  0  0  0
   35.1640   30.3600   32.2660 H   0  0  0  0  0  0  0  0  0  0  0  0
   32.6900   29.3980   35.0210 Cl  0  0  0  0  0  0  0  0  0  0  0  0
   33.8330   30.6440   35.5000 C   0  0  0  0  0  0  0  0  0  0  0  0
   35.1240   30.6900   35.0750 C   0  0  0  0  0  0  0  0  0  0  0  0
   36.0250   31.6210   35.4170 C   0  0  0  0  0  0  0  0  0  0  0  0
   35.6550   32.6500   36.2810 C   0  0  0  0  0  0  0  0  0  0  0  0
   34.3590   32.6550   36.7450 C   0  0  0  0  0  0  0  0  0  0  0  0
   33.7830   33.9040   37.8390 Cl  0  0  0  0  0  0  0  0  0  0  0  0
   33.4550   31.6630   36.3610 C   0  0  0  0  0  0  0  0  0  0  0  0
   37.0610   31.6750   35.0870 H   0  0  0  0  0  0  0  0  0  0  0  0
   36.3530   33.4230   36.5830 H   0  0  0  0  0  0  0  0  0  0  0  0
   32.4340   31.7050   36.7550 H   0  0  0  0  0  0  0  0  0  0  0  0
   38.1180   24.4910   31.3690 C   0  0  0  0  0  0  0  0  0  0  0  0
   37.4890   25.7300   31.5390 C   0  0  0  0  0  0  0  0  0  0  0  0
   37.3210   26.2080   32.8610 C   0  0  0  0  0  0  0  0  0  0  0  0
   37.7650   25.4630   33.8690 N   0  0  0  0  0  0  0  0  0  0  0  0
   38.3640   24.2800   33.6790 C   0  0  0  0  0  0  0  0  0  0  0  0
   38.5360   23.8040   32.4480 N   0  0  0  0  0  0  0  0  0  0  0  0
   38.2440   24.1300   30.3610 H   0  0  0  0  0  0  0  0  0  0  0  0
   37.1290   26.3320   30.7130 H   0  0  0  0  0  0  0  0  0  0  0  0
   38.8140   23.5420   34.8470 C   0  0  0  0  0  0  0  0  0  0  0  0
   38.9880   22.3030   34.7720 O   0  0  0  0  0  0  0  0  0  0  0  0
   39.0820   24.1000   36.0900 O   0  0  0  0  0  0  0  0  0  0  0  0
   37.9840   24.5560   38.3860 O   0  0  0  0  0  0  0  0  0  0  0  0
   38.4740   23.3750   37.5420 P   0  0  0  0  0  0  0  0  0  0  0  0
   39.6680   22.5070   38.3270 O   0  0  0  0  0  0  0  0  0  0  0  0
   39.9100   22.9970   39.1730 H   0  0  0  0  0  0  0  0  0  0  0  0
   37.1270   22.4570   37.1260 O   0  0  0  0  0  0  0  0  0  0  0  0
   36.6800   22.7630   36.3080 H   0  0  0  0  0  0  0  0  0  0  0  0
  1  5  1  0  0  0  0
  2  3  1  0  0  0  0
  2  1  2  0  0  0  0
  3  4  2  0  0  0  0
  4  5  1  0  0  0  0
  4 10  1  0  0  0  0
  6  2  1  0  0  0  0
  7  3  1  0  0  0  0
  8  9  1  0  0  0  0
  9 15  1  0  0  0  0
 10 11  1  0  0  0  0
 10  9  2  0  0  0  0
 11 12  2  0  0  0  0
 12 17  1  0  0  0  0
 12 13  1  0  0  0  0
 13 14  1  0  0  0  0
 15 13  2  0  0  0  0
 15 18  1  0  0  0  0
 16 11  1  0  0  0  0
 19 20  2  0  0  0  0
 19 24  1  0  0  0  0
 20 21  1  0  0  0  0
 21  1  1  0  0  0  0
 21 22  2  0  0  0  0
 23 22  1  0  0  0  0
 23 27  1  0  0  0  0
 24 23  2  0  0  0  0
 25 19  1  0  0  0  0
 26 20  1  0  0  0  0
 27 29  1  0  0  0  0
 28 27  2  0  0  0  0
 29 31  1  0  0  0  0
 31 32  1  0  0  0  0
 31 30  2  0  0  0  0
 32 33  1  0  0  0  0
 34 31  1  0  0  0  0
 35 34  1  0  0  0  0
M  END
>  <minimizedAffinity>
-6.28504276

$$$$

 OpenBabel03272503213D

 35 37  0  0  0  0  0  0  0  0999 V2000
   37.3190   27.4480   34.4670 C   0  0  0  0  0  0  0  0  0  0  0  0
   37.9300   27.7190   35.6140 C   0  0  0  0  0  0  0  0  0  0  0  0
   38.7550   26.7950   36.1530 C   0  0  0  0  0  0  0  0  0  0  0  0
   38.9150   25.6130   35.4710 C   0  0  0  0  0  0  0  0  0  0  0  0
   37.8420   25.8570   34.0170 S   0  0  0  0  0  0  0  0  0  0  0  0
   37.7480   28.6790   36.0900 H   0  0  0  0  0  0  0  0  0  0  0  0
   39.3190   26.8710   37.0760 H   0  0  0  0  0  0  0  0  0  0  0  0
   37.5770   23.5340   37.2540 Cl  0  0  0  0  0  0  0  0  0  0  0  0
   39.1630   23.4400   36.5010 C   0  0  0  0  0  0  0  0  0  0  0  0
   39.6870   24.4190   35.7160 C   0  0  0  0  0  0  0  0  0  0  0  0
   40.8890   24.3860   35.1250 C   0  0  0  0  0  0  0  0  0  0  0  0
   41.7100   23.2730   35.3010 C   0  0  0  0  0  0  0  0  0  0  0  0
   41.2320   22.2490   36.0870 C   0  0  0  0  0  0  0  0  0  0  0  0
   42.1810   20.7990   36.3770 Cl  0  0  0  0  0  0  0  0  0  0  0  0
   39.9720   22.3280   36.6820 C   0  0  0  0  0  0  0  0  0  0  0  0
   41.3240   25.1580   34.4940 H   0  0  0  0  0  0  0  0  0  0  0  0
   42.6890   23.2050   34.8410 H   0  0  0  0  0  0  0  0  0  0  0  0
   39.6320   21.4900   37.2990 H   0  0  0  0  0  0  0  0  0  0  0  0
   35.5230   29.0070   31.5330 C   0  0  0  0  0  0  0  0  0  0  0  0
   36.4470   28.2260   32.2380 C   0  0  0  0  0  0  0  0  0  0  0  0
   36.3800   28.2440   33.6530 C   0  0  0  0  0  0  0  0  0  0  0  0
   35.4520   28.9960   34.2380 N   0  0  0  0  0  0  0  0  0  0  0  0
   34.5800   29.7340   33.5390 C   0  0  0  0  0  0  0  0  0  0  0  0
   34.6180   29.7390   32.2080 N   0  0  0  0  0  0  0  0  0  0  0  0
   35.5770   28.9910   30.4570 H   0  0  0  0  0  0  0  0  0  0  0  0
   37.2010   27.6150   31.7550 H   0  0  0  0  0  0  0  0  0  0  0  0
   33.6040   30.5220   34.2720 C   0  0  0  0  0  0  0  0  0  0  0  0
   32.5820   30.9500   33.6860 O   0  0  0  0  0  0  0  0  0  0  0  0
   33.6980   30.8610   35.6150 O   0  0  0  0  0  0  0  0  0  0  0  0
   34.9340   33.0970   35.2170 O   0  0  0  0  0  0  0  0  0  0  0  0
   34.9550   31.9090   36.1850 P   0  0  0  0  0  0  0  0  0  0  0  0
   36.4350   31.1320   36.1790 O   0  0  0  0  0  0  0  0  0  0  0  0
   37.0020   31.5390   35.4530 H   0  0  0  0  0  0  0  0  0  0  0  0
   34.4930   32.4810   37.6980 O   0  0  0  0  0  0  0  0  0  0  0  0
   33.5220   32.4840   37.8370 H   0  0  0  0  0  0  0  0  0  0  0  0
  1  2  2  0  0  0  0
  2  6  1  0  0  0  0
  2  3  1  0  0  0  0
  3  7  1  0  0  0  0
  4 10  1  0  0  0  0
  4  3  2  0  0  0  0
  5  1  1  0  0  0  0
  5  4  1  0  0  0  0
  9 15  1  0  0  0  0
  9  8  1  0  0  0  0
 10  9  2  0  0  0  0
 11 12  2  0  0  0  0
 11 10  1  0  0  0  0
 12 13  1  0  0  0  0
 13 14  1  0  0  0  0
 13 15  2  0  0  0  0
 15 18  1  0  0  0  0
 16 11  1  0  0  0  0
 17 12  1  0  0  0  0
 19 24  2  0  0  0  0
 19 20  1  0  0  0  0
 20 21  2  0  0  0  0
 21 22  1  0  0  0  0
 21  1  1  0  0  0  0
 23 22  2  0  0  0  0
 23 27  1  0  0  0  0
 24 23  1  0  0  0  0
 25 19  1  0  0  0  0
 26 20  1  0  0  0  0
 27 29  1  0  0  0  0
 28 27  2  0  0  0  0
 29 31  1  0  0  0  0
 30 31  2  0  0  0  0
 31 34  1  0  0  0  0
 32 31  1  0  0  0  0
 33 32  1  0  0  0  0
 34 35  1  0  0  0  0
M  END
>  <minimizedAffinity>
-6.05887938

$$$$

 OpenBabel03272503213D

 35 37  0  0  0  0  0  0  0  0999 V2000
   37.7040   27.1410   33.9810 C   0  0  0  0  0  0  0  0  0  0  0  0
   37.8430   27.3860   35.2790 C   0  0  0  0  0  0  0  0  0  0  0  0
   38.5200   26.5040   36.0450 C   0  0  0  0  0  0  0  0  0  0  0  0
   39.0330   25.3890   35.4260 C   0  0  0  0  0  0  0  0  0  0  0  0
   38.5170   25.6360   33.6950 S   0  0  0  0  0  0  0  0  0  0  0  0
   37.4050   28.2910   35.6900 H   0  0  0  0  0  0  0  0  0  0  0  0
   38.7140   26.5660   37.1110 H   0  0  0  0  0  0  0  0  0  0  0  0
   37.5790   23.5500   37.3740 Cl  0  0  0  0  0  0  0  0  0  0  0  0
   39.2180   23.3820   36.7620 C   0  0  0  0  0  0  0  0  0  0  0  0
   39.7930   24.2540   35.8900 C   0  0  0  0  0  0  0  0  0  0  0  0
   41.0370   24.1610   35.4010 C   0  0  0  0  0  0  0  0  0  0  0  0
   41.8500   23.0980   35.7890 C   0  0  0  0  0  0  0  0  0  0  0  0
   41.3210   22.1830   36.6710 C   0  0  0  0  0  0  0  0  0  0  0  0
   42.2560   20.8030   37.2290 Cl  0  0  0  0  0  0  0  0  0  0  0  0
   40.0190   22.3200   37.1540 C   0  0  0  0  0  0  0  0  0  0  0  0
   41.5130   24.8470   34.7040 H   0  0  0  0  0  0  0  0  0  0  0  0
   42.8620   22.9850   35.4170 H   0  0  0  0  0  0  0  0  0  0  0  0
   39.6380   21.5690   37.8540 H   0  0  0  0  0  0  0  0  0  0  0  0
   36.8680   28.6900   30.6400 C   0  0  0  0  0  0  0  0  0  0  0  0
   37.5610   27.9450   31.6010 C   0  0  0  0  0  0  0  0  0  0  0  0
   37.0310   27.9040   32.9130 C   0  0  0  0  0  0  0  0  0  0  0  0
   35.9090   28.5720   33.1680 N   0  0  0  0  0  0  0  0  0  0  0  0
   35.2650   29.2790   32.2300 C   0  0  0  0  0  0  0  0  0  0  0  0
   35.7390   29.3350   30.9870 N   0  0  0  0  0  0  0  0  0  0  0  0
   37.2740   28.7190   29.6420 H   0  0  0  0  0  0  0  0  0  0  0  0
   38.4760   27.4030   31.3870 H   0  0  0  0  0  0  0  0  0  0  0  0
   34.0460   29.9730   32.6080 C   0  0  0  0  0  0  0  0  0  0  0  0
   33.4060   30.6230   31.7490 O   0  0  0  0  0  0  0  0  0  0  0  0
   33.4980   29.9870   33.8840 O   0  0  0  0  0  0  0  0  0  0  0  0
   31.0380   30.6840   34.2700 O   0  0  0  0  0  0  0  0  0  0  0  0
   31.8880   29.4130   34.1700 P   0  0  0  0  0  0  0  0  0  0  0  0
   31.8120   28.5050   35.5710 O   0  0  0  0  0  0  0  0  0  0  0  0
   31.2960   29.0300   36.2590 H   0  0  0  0  0  0  0  0  0  0  0  0
   31.3940   28.5810   32.7930 O   0  0  0  0  0  0  0  0  0  0  0  0
   31.8540   28.8670   31.9750 H   0  0  0  0  0  0  0  0  0  0  0  0
  1  2  2  0  0  0  0
  2  6  1  0  0  0  0
  2  3  1  0  0  0  0
  3  7  1  0  0  0  0
  4 10  1  0  0  0  0
  4  3  2  0  0  0  0
  5  1  1  0  0  0  0
  5  4  1  0  0  0  0
  9 15  1  0  0  0  0
  9  8  1  0  0  0  0
 10  9  2  0  0  0  0
 11 12  2  0  0  0  0
 11 10  1  0  0  0  0
 12 13  1  0  0  0  0
 13 15  2  0  0  0  0
 13 14  1  0  0  0  0
 15 18  1  0  0  0  0
 16 11  1  0  0  0  0
 17 12  1  0  0  0  0
 19 24  2  0  0  0  0
 19 20  1  0  0  0  0
 20 21  2  0  0  0  0
 21 22  1  0  0  0  0
 21  1  1  0  0  0  0
 23 27  1  0  0  0  0
 23 22  2  0  0  0  0
 24 23  1  0  0  0  0
 25 19  1  0  0  0  0
 26 20  1  0  0  0  0
 27 29  1  0  0  0  0
 28 27  2  0  0  0  0
 29 31  1  0  0  0  0
 31 30  2  0  0  0  0
 31 32  1  0  0  0  0
 32 33  1  0  0  0  0
 34 31  1  0  0  0  0
 35 34  1  0  0  0  0
M  END
>  <minimizedAffinity>
-5.86867094

$$$$

 OpenBabel03272503213D

 35 37  0  0  0  0  0  0  0  0999 V2000
   36.7040   27.5020   32.7360 C   0  0  0  0  0  0  0  0  0  0  0  0
   35.9920   28.3340   31.9850 C   0  0  0  0  0  0  0  0  0  0  0  0
   35.3830   29.3890   32.5690 C   0  0  0  0  0  0  0  0  0  0  0  0
   35.5400   29.5400   33.9260 C   0  0  0  0  0  0  0  0  0  0  0  0
   36.5960   28.1170   34.3540 S   0  0  0  0  0  0  0  0  0  0  0  0
   35.9170   28.1420   30.9180 H   0  0  0  0  0  0  0  0  0  0  0  0
   34.7720   30.1480   32.0920 H   0  0  0  0  0  0  0  0  0  0  0  0
   32.5940   29.2990   34.6700 Cl  0  0  0  0  0  0  0  0  0  0  0  0
   33.7580   30.4720   35.2680 C   0  0  0  0  0  0  0  0  0  0  0  0
   35.0610   30.5090   34.8820 C   0  0  0  0  0  0  0  0  0  0  0  0
   35.9790   31.3860   35.3130 C   0  0  0  0  0  0  0  0  0  0  0  0
   35.6140   32.3610   36.2390 C   0  0  0  0  0  0  0  0  0  0  0  0
   34.3060   32.3730   36.6680 C   0  0  0  0  0  0  0  0  0  0  0  0
   33.7340   33.5580   37.8330 Cl  0  0  0  0  0  0  0  0  0  0  0  0
   33.3840   31.4380   36.1900 C   0  0  0  0  0  0  0  0  0  0  0  0
   37.0240   31.4310   35.0160 H   0  0  0  0  0  0  0  0  0  0  0  0
   36.3240   33.0890   36.6150 H   0  0  0  0  0  0  0  0  0  0  0  0
   32.3550   31.4840   36.5580 H   0  0  0  0  0  0  0  0  0  0  0  0
   39.5060   25.1660   31.7620 C   0  0  0  0  0  0  0  0  0  0  0  0
   38.8490   26.3590   32.0840 C   0  0  0  0  0  0  0  0  0  0  0  0
   37.4670   26.2890   32.3880 C   0  0  0  0  0  0  0  0  0  0  0  0
   36.8670   25.1020   32.3540 N   0  0  0  0  0  0  0  0  0  0  0  0
   37.5200   23.9750   32.0430 C   0  0  0  0  0  0  0  0  0  0  0  0
   38.8190   24.0090   31.7520 N   0  0  0  0  0  0  0  0  0  0  0  0
   40.5580   25.2230   31.5310 H   0  0  0  0  0  0  0  0  0  0  0  0
   39.3440   27.3230   32.1090 H   0  0  0  0  0  0  0  0  0  0  0  0
   36.7740   22.7280   32.0340 C   0  0  0  0  0  0  0  0  0  0  0  0
   36.2350   22.3320   30.9740 O   0  0  0  0  0  0  0  0  0  0  0  0
   36.5940   21.8980   33.1320 O   0  0  0  0  0  0  0  0  0  0  0  0
   36.6860   19.4250   32.3800 O   0  0  0  0  0  0  0  0  0  0  0  0
   35.6970   20.4210   32.9950 P   0  0  0  0  0  0  0  0  0  0  0  0
   34.3450   20.6240   32.0340 O   0  0  0  0  0  0  0  0  0  0  0  0
   34.4920   20.1240   31.1730 H   0  0  0  0  0  0  0  0  0  0  0  0
   35.3510   19.8910   34.5540 O   0  0  0  0  0  0  0  0  0  0  0  0
   35.9850   20.2140   35.2290 H   0  0  0  0  0  0  0  0  0  0  0  0
  1  5  1  0  0  0  0
  2  3  1  0  0  0  0
  2  1  2  0  0  0  0
  3  4  2  0  0  0  0
  4  5  1  0  0  0  0
  4 10  1  0  0  0  0
  6  2  1  0  0  0  0
  7  3  1  0  0  0  0
  8  9  1  0  0  0  0
  9 15  1  0  0  0  0
 10  9  2  0  0  0  0
 10 11  1  0  0  0  0
 11 12  2  0  0  0  0
 12 17  1  0  0  0  0
 12 13  1  0  0  0  0
 13 14  1  0  0  0  0
 15 18  1  0  0  0  0
 15 13  2  0  0  0  0
 16 11  1  0  0  0  0
 19 20  1  0  0  0  0
 20 26  1  0  0  0  0
 20 21  2  0  0  0  0
 21  1  1  0  0  0  0
 22 21  1  0  0  0  0
 23 22  2  0  0  0  0
 24 19  2  0  0  0  0
 24 23  1  0  0  0  0
 25 19  1  0  0  0  0
 27 23  1  0  0  0  0
 27 29  1  0  0  0  0
 28 27  2  0  0  0  0
 30 31  2  0  0  0  0
 31 29  1  0  0  0  0
 31 34  1  0  0  0  0
 32 31  1  0  0  0  0
 33 32  1  0  0  0  0
 34 35  1  0  0  0  0
M  END
>  <minimizedAffinity>
-5.73811865

$$$$

 OpenBabel03272503213D

 35 37  0  0  0  0  0  0  0  0999 V2000
   37.4200   27.6130   33.0920 C   0  0  0  0  0  0  0  0  0  0  0  0
   36.9080   28.4260   32.1760 C   0  0  0  0  0  0  0  0  0  0  0  0
   35.8690   29.2220   32.5110 C   0  0  0  0  0  0  0  0  0  0  0  0
   35.3990   29.1420   33.8000 C   0  0  0  0  0  0  0  0  0  0  0  0
   36.4940   27.8820   34.5340 S   0  0  0  0  0  0  0  0  0  0  0  0
   37.3380   28.4280   31.1780 H   0  0  0  0  0  0  0  0  0  0  0  0
   35.3490   29.9320   31.8780 H   0  0  0  0  0  0  0  0  0  0  0  0
   36.3000   31.3070   35.7470 Cl  0  0  0  0  0  0  0  0  0  0  0  0
   34.6560   30.7890   35.4060 C   0  0  0  0  0  0  0  0  0  0  0  0
   34.3400   29.8100   34.5170 C   0  0  0  0  0  0  0  0  0  0  0  0
   33.1010   29.3870   34.2290 C   0  0  0  0  0  0  0  0  0  0  0  0
   32.0100   29.9710   34.8690 C   0  0  0  0  0  0  0  0  0  0  0  0
   32.2680   30.9700   35.7810 C   0  0  0  0  0  0  0  0  0  0  0  0
   30.9700   31.7760   36.6480 Cl  0  0  0  0  0  0  0  0  0  0  0  0
   33.5760   31.3780   36.0490 C   0  0  0  0  0  0  0  0  0  0  0  0
   32.8300   28.6060   33.5220 H   0  0  0  0  0  0  0  0  0  0  0  0
   30.9920   29.6590   34.6660 H   0  0  0  0  0  0  0  0  0  0  0  0
   33.7360   32.1760   36.7810 H   0  0  0  0  0  0  0  0  0  0  0  0
   40.6100   25.8600   32.0860 C   0  0  0  0  0  0  0  0  0  0  0  0
   39.5880   26.8170   32.0930 C   0  0  0  0  0  0  0  0  0  0  0  0
   38.5330   26.6470   33.0230 C   0  0  0  0  0  0  0  0  0  0  0  0
   38.5640   25.5950   33.8360 N   0  0  0  0  0  0  0  0  0  0  0  0
   39.5530   24.6930   33.8080 C   0  0  0  0  0  0  0  0  0  0  0  0
   40.5590   24.8260   32.9450 N   0  0  0  0  0  0  0  0  0  0  0  0
   41.4110   25.9920   31.3770 H   0  0  0  0  0  0  0  0  0  0  0  0
   39.5690   27.6720   31.4280 H   0  0  0  0  0  0  0  0  0  0  0  0
   39.4950   23.5790   34.7370 C   0  0  0  0  0  0  0  0  0  0  0  0
   39.3330   22.4140   34.3050 O   0  0  0  0  0  0  0  0  0  0  0  0
   39.6070   23.6840   36.1180 O   0  0  0  0  0  0  0  0  0  0  0  0
   37.3670   24.4200   37.1790 O   0  0  0  0  0  0  0  0  0  0  0  0
   38.3040   23.2080   37.1570 P   0  0  0  0  0  0  0  0  0  0  0  0
   38.8610   22.8280   38.6870 O   0  0  0  0  0  0  0  0  0  0  0  0
   38.5500   23.5440   39.3220 H   0  0  0  0  0  0  0  0  0  0  0  0
   37.4840   21.9490   36.3990 O   0  0  0  0  0  0  0  0  0  0  0  0
   37.5790   21.9500   35.4230 H   0  0  0  0  0  0  0  0  0  0  0  0
  1  5  1  0  0  0  0
  2  3  1  0  0  0  0
  2  1  2  0  0  0  0
  3  4  2  0  0  0  0
  4 10  1  0  0  0  0
  4  5  1  0  0  0  0
  6  2  1  0  0  0  0
  7  3  1  0  0  0  0
  9  8  1  0  0  0  0
  9 15  1  0  0  0  0
 10  9  2  0  0  0  0
 11 10  1  0  0  0  0
 11 12  2  0  0  0  0
 12 13  1  0  0  0  0
 13 15  2  0  0  0  0
 13 14  1  0  0  0  0
 15 18  1  0  0  0  0
 16 11  1  0  0  0  0
 17 12  1  0  0  0  0
 19 20  2  0  0  0  0
 19 24  1  0  0  0  0
 20 21  1  0  0  0  0
 21  1  1  0  0  0  0
 21 22  2  0  0  0  0
 23 22  1  0  0  0  0
 23 27  1  0  0  0  0
 24 23  2  0  0  0  0
 25 19  1  0  0  0  0
 26 20  1  0  0  0  0
 27 29  1  0  0  0  0
 28 27  2  0  0  0  0
 29 31  1  0  0  0  0
 31 30  2  0  0  0  0
 31 32  1  0  0  0  0
 32 33  1  0  0  0  0
 34 31  1  0  0  0  0
 35 34  1  0  0  0  0
M  END
>  <minimizedAffinity>
-5.73030949

$$$$

 OpenBabel03272503213D

 35 37  0  0  0  0  0  0  0  0999 V2000
   37.3080   27.5820   34.1290 C   0  0  0  0  0  0  0  0  0  0  0  0
   37.6650   27.8010   35.3890 C   0  0  0  0  0  0  0  0  0  0  0  0
   38.4210   26.8810   36.0270 C   0  0  0  0  0  0  0  0  0  0  0  0
   38.7800   25.7570   35.3230 C   0  0  0  0  0  0  0  0  0  0  0  0
   38.0010   26.0510   33.7010 S   0  0  0  0  0  0  0  0  0  0  0  0
   37.3380   28.7170   35.8740 H   0  0  0  0  0  0  0  0  0  0  0  0
   38.7880   26.9190   37.0470 H   0  0  0  0  0  0  0  0  0  0  0  0
   37.4860   23.8360   37.3050 Cl  0  0  0  0  0  0  0  0  0  0  0  0
   39.0530   23.6760   36.5240 C   0  0  0  0  0  0  0  0  0  0  0  0
   39.5570   24.5850   35.6470 C   0  0  0  0  0  0  0  0  0  0  0  0
   40.7440   24.5000   35.0310 C   0  0  0  0  0  0  0  0  0  0  0  0
   41.5690   23.4040   35.2780 C   0  0  0  0  0  0  0  0  0  0  0  0
   41.1100   22.4500   36.1580 C   0  0  0  0  0  0  0  0  0  0  0  0
   42.0650   21.0270   36.5440 Cl  0  0  0  0  0  0  0  0  0  0  0  0
   39.8650   22.5810   36.7760 C   0  0  0  0  0  0  0  0  0  0  0  0
   41.1640   25.2160   34.3280 H   0  0  0  0  0  0  0  0  0  0  0  0
   42.5360   23.2960   34.8010 H   0  0  0  0  0  0  0  0  0  0  0  0
   39.5400   21.7990   37.4690 H   0  0  0  0  0  0  0  0  0  0  0  0
   34.5210   29.6380   32.6210 C   0  0  0  0  0  0  0  0  0  0  0  0
   35.2270   28.8800   33.5630 C   0  0  0  0  0  0  0  0  0  0  0  0
   36.5020   28.3880   33.1920 C   0  0  0  0  0  0  0  0  0  0  0  0
   36.9630   28.6670   31.9760 N   0  0  0  0  0  0  0  0  0  0  0  0
   36.2670   29.3940   31.0920 C   0  0  0  0  0  0  0  0  0  0  0  0
   35.0650   29.8700   31.4120 N   0  0  0  0  0  0  0  0  0  0  0  0
   33.5510   30.0100   32.9070 H   0  0  0  0  0  0  0  0  0  0  0  0
   34.8460   28.6570   34.5530 H   0  0  0  0  0  0  0  0  0  0  0  0
   36.8580   29.6430   29.7890 C   0  0  0  0  0  0  0  0  0  0  0  0
   36.9020   30.8110   29.3370 O   0  0  0  0  0  0  0  0  0  0  0  0
   37.4020   28.6710   28.9600 O   0  0  0  0  0  0  0  0  0  0  0  0
   39.2640   27.5710   27.5420 O   0  0  0  0  0  0  0  0  0  0  0  0
   38.9130   28.9320   28.1520 P   0  0  0  0  0  0  0  0  0  0  0  0
   40.0870   29.4520   29.2230 O   0  0  0  0  0  0  0  0  0  0  0  0
   40.7570   28.7100   29.3400 H   0  0  0  0  0  0  0  0  0  0  0  0
   38.6320   29.9980   26.8810 O   0  0  0  0  0  0  0  0  0  0  0  0
   37.7070   29.9860   26.5560 H   0  0  0  0  0  0  0  0  0  0  0  0
  1  2  2  0  0  0  0
  2  6  1  0  0  0  0
  2  3  1  0  0  0  0
  3  7  1  0  0  0  0
  4 10  1  0  0  0  0
  4  3  2  0  0  0  0
  5  1  1  0  0  0  0
  5  4  1  0  0  0  0
  9 15  1  0  0  0  0
  9  8  1  0  0  0  0
 10  9  2  0  0  0  0
 11 12  2  0  0  0  0
 11 10  1  0  0  0  0
 12 13  1  0  0  0  0
 13 14  1  0  0  0  0
 13 15  2  0  0  0  0
 15 18  1  0  0  0  0
 16 11  1  0  0  0  0
 17 12  1  0  0  0  0
 19 25  1  0  0  0  0
 19 20  1  0  0  0  0
 20 26  1  0  0  0  0
 21 20  2  0  0  0  0
 21  1  1  0  0  0  0
 22 21  1  0  0  0  0
 23 24  1  0  0  0  0
 23 22  2  0  0  0  0
 24 19  2  0  0  0  0
 27 23  1  0  0  0  0
 28 27  2  0  0  0  0
 29 27  1  0  0  0  0
 30 31  2  0  0  0  0
 31 29  1  0  0  0  0
 31 32  1  0  0  0  0
 32 33  1  0  0  0  0
 34 31  1  0  0  0  0
 35 34  1  0  0  0  0
M  END
>  <minimizedAffinity>
-5.7124033

$$$$

 OpenBabel03272503213D

 35 37  0  0  0  0  0  0  0  0999 V2000
   36.5850   27.4700   33.0180 C   0  0  0  0  0  0  0  0  0  0  0  0
   36.7740   26.3820   32.2820 C   0  0  0  0  0  0  0  0  0  0  0  0
   37.4690   25.3480   32.8040 C   0  0  0  0  0  0  0  0  0  0  0  0
   37.9450   25.4870   34.0860 C   0  0  0  0  0  0  0  0  0  0  0  0
   37.3660   27.1570   34.5340 S   0  0  0  0  0  0  0  0  0  0  0  0
   36.3640   26.3520   31.2760 H   0  0  0  0  0  0  0  0  0  0  0  0
   37.7030   24.4010   32.3290 H   0  0  0  0  0  0  0  0  0  0  0  0
   40.9310   25.3320   33.4910 Cl  0  0  0  0  0  0  0  0  0  0  0  0
   40.0470   24.5070   34.7670 C   0  0  0  0  0  0  0  0  0  0  0  0
   38.7070   24.6330   34.9630 C   0  0  0  0  0  0  0  0  0  0  0  0
   37.9980   24.0220   35.9220 C   0  0  0  0  0  0  0  0  0  0  0  0
   38.6450   23.1750   36.8210 C   0  0  0  0  0  0  0  0  0  0  0  0
   40.0030   23.0090   36.6720 C   0  0  0  0  0  0  0  0  0  0  0  0
   40.9210   21.9660   37.7470 Cl  0  0  0  0  0  0  0  0  0  0  0  0
   40.7010   23.6670   35.6560 C   0  0  0  0  0  0  0  0  0  0  0  0
   36.9270   24.1110   36.0940 H   0  0  0  0  0  0  0  0  0  0  0  0
   38.1100   22.6620   37.6110 H   0  0  0  0  0  0  0  0  0  0  0  0
   41.7800   23.5060   35.5740 H   0  0  0  0  0  0  0  0  0  0  0  0
   35.4130   30.6280   31.3100 C   0  0  0  0  0  0  0  0  0  0  0  0
   36.1180   29.4370   31.5190 C   0  0  0  0  0  0  0  0  0  0  0  0
   35.8800   28.7330   32.7240 C   0  0  0  0  0  0  0  0  0  0  0  0
   35.0060   29.2340   33.5930 N   0  0  0  0  0  0  0  0  0  0  0  0
   34.3440   30.3770   33.3680 C   0  0  0  0  0  0  0  0  0  0  0  0
   34.5470   31.0610   32.2440 N   0  0  0  0  0  0  0  0  0  0  0  0
   35.5960   31.1610   30.3910 H   0  0  0  0  0  0  0  0  0  0  0  0
   36.8290   29.0340   30.8070 H   0  0  0  0  0  0  0  0  0  0  0  0
   33.4100   30.8400   34.3790 C   0  0  0  0  0  0  0  0  0  0  0  0
   32.2350   31.1330   34.0560 O   0  0  0  0  0  0  0  0  0  0  0  0
   33.7050   30.9970   35.7280 O   0  0  0  0  0  0  0  0  0  0  0  0
   35.1460   33.1050   35.3200 O   0  0  0  0  0  0  0  0  0  0  0  0
   35.1080   31.8780   36.2370 P   0  0  0  0  0  0  0  0  0  0  0  0
   36.4900   30.9490   36.0860 O   0  0  0  0  0  0  0  0  0  0  0  0
   37.0420   31.3270   35.3340 H   0  0  0  0  0  0  0  0  0  0  0  0
   34.8230   32.4250   37.8030 O   0  0  0  0  0  0  0  0  0  0  0  0
   33.8710   32.5250   38.0170 H   0  0  0  0  0  0  0  0  0  0  0  0
  1  5  1  0  0  0  0
  2  3  1  0  0  0  0
  2  1  2  0  0  0  0
  3  4  2  0  0  0  0
  4  5  1  0  0  0  0
  4 10  1  0  0  0  0
  6  2  1  0  0  0  0
  7  3  1  0  0  0  0
  8  9  1  0  0  0  0
  9 10  2  0  0  0  0
  9 15  1  0  0  0  0
 10 11  1  0  0  0  0
 11 16  1  0  0  0  0
 11 12  2  0  0  0  0
 12 17  1  0  0  0  0
 13 12  1  0  0  0  0
 13 14  1  0  0  0  0
 15 13  2  0  0  0  0
 18 15  1  0  0  0  0
 19 20  2  0  0  0  0
 19 24  1  0  0  0  0
 20 21  1  0  0  0  0
 21  1  1  0  0  0  0
 21 22  2  0  0  0  0
 23 22  1  0  0  0  0
 23 27  1  0  0  0  0
 24 23  2  0  0  0  0
 25 19  1  0  0  0  0
 26 20  1  0  0  0  0
 27 29  1  0  0  0  0
 28 27  2  0  0  0  0
 29 31  1  0  0  0  0
 30 31  2  0  0  0  0
 31 34  1  0  0  0  0
 32 31  1  0  0  0  0
 33 32  1  0  0  0  0
 34 35  1  0  0  0  0
M  END
>  <minimizedAffinity>
-5.7003603

$$$$

 OpenBabel03272503213D

 35 37  0  0  0  0  0  0  0  0999 V2000
   37.0970   27.7090   34.4650 C   0  0  0  0  0  0  0  0  0  0  0  0
   37.7700   27.9280   35.5890 C   0  0  0  0  0  0  0  0  0  0  0  0
   38.6870   27.0220   35.9920 C   0  0  0  0  0  0  0  0  0  0  0  0
   38.8720   25.9120   35.2030 C   0  0  0  0  0  0  0  0  0  0  0  0
   37.6860   26.1990   33.8490 S   0  0  0  0  0  0  0  0  0  0  0  0
   37.5630   28.8320   36.1550 H   0  0  0  0  0  0  0  0  0  0  0  0
   39.3100   27.0620   36.8800 H   0  0  0  0  0  0  0  0  0  0  0  0
   41.7650   26.3660   34.3580 Cl  0  0  0  0  0  0  0  0  0  0  0  0
   41.0390   24.8740   34.9370 C   0  0  0  0  0  0  0  0  0  0  0  0
   39.7320   24.7580   35.2950 C   0  0  0  0  0  0  0  0  0  0  0  0
   39.1410   23.6400   35.7400 C   0  0  0  0  0  0  0  0  0  0  0  0
   39.8900   22.4710   35.8650 C   0  0  0  0  0  0  0  0  0  0  0  0
   41.2200   22.5280   35.5170 C   0  0  0  0  0  0  0  0  0  0  0  0
   42.2580   21.1150   35.6330 Cl  0  0  0  0  0  0  0  0  0  0  0  0
   41.7930   23.7160   35.0580 C   0  0  0  0  0  0  0  0  0  0  0  0
   38.0990   23.5280   36.0310 H   0  0  0  0  0  0  0  0  0  0  0  0
   39.4510   21.5460   36.2210 H   0  0  0  0  0  0  0  0  0  0  0  0
   42.8550   23.7160   34.7920 H   0  0  0  0  0  0  0  0  0  0  0  0
   35.2290   29.7530   31.8970 C   0  0  0  0  0  0  0  0  0  0  0  0
   36.2630   29.0090   32.4780 C   0  0  0  0  0  0  0  0  0  0  0  0
   36.0560   28.5020   33.7840 C   0  0  0  0  0  0  0  0  0  0  0  0
   34.8990   28.7560   34.3900 N   0  0  0  0  0  0  0  0  0  0  0  0
   33.9260   29.4710   33.8110 C   0  0  0  0  0  0  0  0  0  0  0  0
   34.0910   29.9610   32.5840 N   0  0  0  0  0  0  0  0  0  0  0  0
   35.3910   30.1370   30.9030 H   0  0  0  0  0  0  0  0  0  0  0  0
   37.2030   28.8060   31.9790 H   0  0  0  0  0  0  0  0  0  0  0  0
   32.6990   29.6930   34.5560 C   0  0  0  0  0  0  0  0  0  0  0  0
   32.6780   30.5310   35.4880 O   0  0  0  0  0  0  0  0  0  0  0  0
   31.4960   29.0380   34.3260 O   0  0  0  0  0  0  0  0  0  0  0  0
   29.5240   28.6840   35.9610 O   0  0  0  0  0  0  0  0  0  0  0  0
   30.8120   27.9830   35.5190 P   0  0  0  0  0  0  0  0  0  0  0  0
   31.8650   27.7590   36.7990 O   0  0  0  0  0  0  0  0  0  0  0  0
   31.4860   28.2280   37.6040 H   0  0  0  0  0  0  0  0  0  0  0  0
   30.3710   26.5570   34.7430 O   0  0  0  0  0  0  0  0  0  0  0  0
   30.1900   26.6700   33.7860 H   0  0  0  0  0  0  0  0  0  0  0  0
  1  2  2  0  0  0  0
  2  3  1  0  0  0  0
  2  6  1  0  0  0  0
  3  7  1  0  0  0  0
  4 10  1  0  0  0  0
  4  3  2  0  0  0  0
  5  1  1  0  0  0  0
  5  4  1  0  0  0  0
  8  9  1  0  0  0  0
  9 15  2  0  0  0  0
  9 10  1  0  0  0  0
 10 11  2  0  0  0  0
 11 12  1  0  0  0  0
 11 16  1  0  0  0  0
 12 17  1  0  0  0  0
 13 14  1  0  0  0  0
 13 12  2  0  0  0  0
 15 13  1  0  0  0  0
 18 15  1  0  0  0  0
 19 20  2  0  0  0  0
 19 24  1  0  0  0  0
 20 21  1  0  0  0  0
 21 22  2  0  0  0  0
 21  1  1  0  0  0  0
 23 22  1  0  0  0  0
 23 27  1  0  0  0  0
 24 23  2  0  0  0  0
 25 19  1  0  0  0  0
 26 20  1  0  0  0  0
 27 28  2  0  0  0  0
 29 27  1  0  0  0  0
 29 31  1  0  0  0  0
 31 30  2  0  0  0  0
 31 32  1  0  0  0  0
 32 33  1  0  0  0  0
 34 31  1  0  0  0  0
 35 34  1  0  0  0  0
M  END
>  <minimizedAffinity>
-5.67818594

$$$$

 OpenBabel03272503213D

 35 37  0  0  0  0  0  0  0  0999 V2000
   39.3750   26.2270   33.6840 C   0  0  0  0  0  0  0  0  0  0  0  0
   39.1870   26.4560   32.3900 C   0  0  0  0  0  0  0  0  0  0  0  0
   38.1760   27.2650   32.0050 C   0  0  0  0  0  0  0  0  0  0  0  0
   37.3910   27.8110   32.9920 C   0  0  0  0  0  0  0  0  0  0  0  0
   38.1450   27.1310   34.5070 S   0  0  0  0  0  0  0  0  0  0  0  0
   39.8530   25.9830   31.6730 H   0  0  0  0  0  0  0  0  0  0  0  0
   37.9000   27.5430   30.9940 H   0  0  0  0  0  0  0  0  0  0  0  0
   36.6600   28.9720   30.2700 Cl  0  0  0  0  0  0  0  0  0  0  0  0
   35.8580   29.2580   31.8080 C   0  0  0  0  0  0  0  0  0  0  0  0
   36.2520   28.6960   32.9820 C   0  0  0  0  0  0  0  0  0  0  0  0
   35.6690   28.8880   34.1740 C   0  0  0  0  0  0  0  0  0  0  0  0
   34.5590   29.7270   34.2670 C   0  0  0  0  0  0  0  0  0  0  0  0
   34.1140   30.3240   33.1100 C   0  0  0  0  0  0  0  0  0  0  0  0
   32.7250   31.4000   33.1100 Cl  0  0  0  0  0  0  0  0  0  0  0  0
   34.7550   30.0940   31.8900 C   0  0  0  0  0  0  0  0  0  0  0  0
   35.9690   28.4490   35.1220 H   0  0  0  0  0  0  0  0  0  0  0  0
   34.0580   29.9100   35.2110 H   0  0  0  0  0  0  0  0  0  0  0  0
   34.3670   30.5890   30.9950 H   0  0  0  0  0  0  0  0  0  0  0  0
   42.6510   24.7610   34.8590 C   0  0  0  0  0  0  0  0  0  0  0  0
   41.7610   25.5760   34.1500 C   0  0  0  0  0  0  0  0  0  0  0  0
   40.3760   25.4060   34.3920 C   0  0  0  0  0  0  0  0  0  0  0  0
   39.9910   24.4870   35.2730 N   0  0  0  0  0  0  0  0  0  0  0  0
   40.8640   23.7190   35.9380 C   0  0  0  0  0  0  0  0  0  0  0  0
   42.1720   23.8560   35.7320 N   0  0  0  0  0  0  0  0  0  0  0  0
   43.7040   24.8930   34.6720 H   0  0  0  0  0  0  0  0  0  0  0  0
   42.0810   26.3240   33.4330 H   0  0  0  0  0  0  0  0  0  0  0  0
   40.3440   22.7440   36.8800 C   0  0  0  0  0  0  0  0  0  0  0  0
   40.4160   21.5210   36.6160 O   0  0  0  0  0  0  0  0  0  0  0  0
   39.7480   23.0490   38.0980 O   0  0  0  0  0  0  0  0  0  0  0  0
   38.0820   24.8430   38.9290 O   0  0  0  0  0  0  0  0  0  0  0  0
   38.0780   23.5030   38.1850 P   0  0  0  0  0  0  0  0  0  0  0  0
   37.1810   22.3480   38.9940 O   0  0  0  0  0  0  0  0  0  0  0  0
   36.8980   22.7340   39.8800 H   0  0  0  0  0  0  0  0  0  0  0  0
   37.5500   23.7980   36.6150 O   0  0  0  0  0  0  0  0  0  0  0  0
   38.2690   24.0560   36.0000 H   0  0  0  0  0  0  0  0  0  0  0  0
  1 21  1  0  0  0  0
  1  5  1  0  0  0  0
  2  1  2  0  0  0  0
  3  2  1  0  0  0  0
  3  4  2  0  0  0  0
  4  5  1  0  0  0  0
  6  2  1  0  0  0  0
  7  3  1  0  0  0  0
  8  9  1  0  0  0  0
  9 15  2  0  0  0  0
  9 10  1  0  0  0  0
 10  4  1  0  0  0  0
 10 11  2  0  0  0  0
 11 12  1  0  0  0  0
 11 16  1  0  0  0  0
 12 17  1  0  0  0  0
 13 14  1  0  0  0  0
 13 12  2  0  0  0  0
 15 13  1  0  0  0  0
 18 15  1  0  0  0  0
 19 24  1  0  0  0  0
 20 21  1  0  0  0  0
 20 19  2  0  0  0  0
 21 22  2  0  0  0  0
 22 23  1  0  0  0  0
 23 27  1  0  0  0  0
 24 23  2  0  0  0  0
 25 19  1  0  0  0  0
 26 20  1  0  0  0  0
 27 29  1  0  0  0  0
 28 27  2  0  0  0  0
 29 31  1  0  0  0  0
 31 30  2  0  0  0  0
 31 32  1  0  0  0  0
 32 33  1  0  0  0  0
 34 31  1  0  0  0  0
 35 34  1  0  0  0  0
M  END
>  <minimizedAffinity>
-5.66343641

$$$$
