
 OpenBabel03262521023D

 35 36  0  0  1  0  0  0  0  0999 V2000
   36.2660   25.3980   31.2790 S   0  0  0  0  0  0  0  0  0  0  0  0
   38.2520   27.1730   31.8430 N   0  0  0  0  0  0  0  0  0  0  0  0
   36.8220   27.0270   31.9260 C   0  0  1  0  0  0  0  0  0  0  0  0
   36.1370   28.0670   31.0880 C   0  0  0  0  0  0  0  0  0  0  0  0
   36.6030   27.8780   29.7160 N   0  0  0  0  0  0  0  0  0  0  0  0
   38.0130   28.2960   29.7330 C   0  0  0  0  0  0  0  0  0  0  0  0
   38.7560   27.2150   30.5120 C   0  0  2  0  0  0  0  0  0  0  0  0
   38.4910   28.0480   32.3190 H   0  0  0  0  0  0  0  0  0  0  0  0
   36.5540   27.0930   32.9940 H   0  0  0  0  0  0  0  0  0  0  0  0
   36.3630   29.0640   31.4840 H   0  0  0  0  0  0  0  0  0  0  0  0
   35.0440   27.8320   31.1080 H   0  0  0  0  0  0  0  0  0  0  0  0
   36.5620   26.8610   29.5030 H   0  0  0  0  0  0  0  0  0  0  0  0
   38.1450   29.2610   30.2390 H   0  0  0  0  0  0  0  0  0  0  0  0
   38.4030   28.3160   28.7000 H   0  0  0  0  0  0  0  0  0  0  0  0
   39.8160   27.5500   30.5450 H   0  0  0  0  0  0  0  0  0  0  0  0
   38.6140   25.9680   29.8020 N   0  0  0  0  0  0  0  0  0  0  0  0
   39.0880   25.1850   30.2650 H   0  0  0  0  0  0  0  0  0  0  0  0
   39.0310   26.1020   28.8520 H   0  0  0  0  0  0  0  0  0  0  0  0
   37.1060   21.8740   33.1020 C   0  0  0  0  0  0  0  0  0  0  0  0
   36.5350   22.7750   32.2340 C   0  0  0  0  0  0  0  0  0  0  0  0
   36.9030   24.0980   32.3240 C   0  0  0  0  0  0  0  0  0  0  0  0
   37.8330   24.4640   33.2840 N   0  0  0  0  0  0  0  0  0  0  0  0
   38.3450   23.5330   34.0910 C   0  0  0  0  0  0  0  0  0  0  0  0
   38.0070   22.2490   34.0270 N   0  0  0  0  0  0  0  0  0  0  0  0
   36.8350   20.8340   33.0530 H   0  0  0  0  0  0  0  0  0  0  0  0
   35.8060   22.5050   31.4760 H   0  0  0  0  0  0  0  0  0  0  0  0
   39.3290   23.9490   35.0880 C   0  0  0  0  0  0  0  0  0  0  0  0
   40.5630   23.9130   34.9190 O   0  0  0  0  0  0  0  0  0  0  0  0
   38.8810   24.4220   36.3150 O   0  0  0  0  0  0  0  0  0  0  0  0
   37.7710   24.3770   38.6470 O   0  0  0  0  0  0  0  0  0  0  0  0
   38.3890   23.4340   37.6170 P   0  0  0  0  0  0  0  0  0  0  0  0
   39.6300   22.5580   38.3090 O   0  0  0  0  0  0  0  0  0  0  0  0
   40.4970   23.0280   38.2420 H   0  0  0  0  0  0  0  0  0  0  0  0
   37.1110   22.4020   37.1400 O   0  0  0  0  0  0  0  0  0  0  0  0
   36.6490   22.8110   36.3540 H   0  0  0  0  0  0  0  0  0  0  0  0
  1  3  1  0  0  0  0
  1 21  1  0  0  0  0
  2  3  1  0  0  0  0
  2  8  1  0  0  0  0
  3  9  1  1  0  0  0
  4 11  1  0  0  0  0
  4 10  1  0  0  0  0
  4  3  1  0  0  0  0
  5  6  1  0  0  0  0
  5  4  1  0  0  0  0
  6 13  1  0  0  0  0
  6  7  1  0  0  0  0
  7 15  1  1  0  0  0
  7  2  1  0  0  0  0
 12  5  1  0  0  0  0
 14  6  1  0  0  0  0
 16 17  1  0  0  0  0
 16  7  1  0  0  0  0
 18 16  1  0  0  0  0
 19 24  1  0  0  0  0
 20 21  1  0  0  0  0
 20 19  2  0  0  0  0
 21 22  2  0  0  0  0
 22 23  1  0  0  0  0
 23 27  1  0  0  0  0
 24 23  2  0  0  0  0
 25 19  1  0  0  0  0
 26 20  1  0  0  0  0
 27 29  1  0  0  0  0
 28 27  2  0  0  0  0
 29 31  1  0  0  0  0
 31 32  1  0  0  0  0
 31 30  2  0  0  0  0
 33 32  1  0  0  0  0
 34 31  1  0  0  0  0
 35 34  1  0  0  0  0
M  END
>  <minimizedAffinity>
-5.23527813

$$$$

 OpenBabel03262521023D

 35 36  0  0  1  0  0  0  0  0999 V2000
   38.6790   21.9450   34.4490 S   0  0  0  0  0  0  0  0  0  0  0  0
   37.8510   24.1450   35.8230 N   0  0  0  0  0  0  0  0  0  0  0  0
   39.0040   23.6180   35.1390 C   0  0  1  0  0  0  0  0  0  0  0  0
   40.1550   23.4640   36.0900 C   0  0  0  0  0  0  0  0  0  0  0  0
   39.7130   22.5550   37.1450 N   0  0  0  0  0  0  0  0  0  0  0  0
   38.7110   23.3160   37.9080 C   0  0  0  0  0  0  0  0  0  0  0  0
   37.4910   23.4240   36.9980 C   0  0  2  0  0  0  0  0  0  0  0  0
   38.0710   25.1120   36.0780 H   0  0  0  0  0  0  0  0  0  0  0  0
   39.2250   24.3070   34.3060 H   0  0  0  0  0  0  0  0  0  0  0  0
   40.4510   24.4490   36.4690 H   0  0  0  0  0  0  0  0  0  0  0  0
   40.9750   22.9530   35.5270 H   0  0  0  0  0  0  0  0  0  0  0  0
   39.2390   21.7470   36.6920 H   0  0  0  0  0  0  0  0  0  0  0  0
   39.0680   24.3250   38.1530 H   0  0  0  0  0  0  0  0  0  0  0  0
   38.4270   22.7490   38.8110 H   0  0  0  0  0  0  0  0  0  0  0  0
   36.7490   24.0240   37.5670 H   0  0  0  0  0  0  0  0  0  0  0  0
   37.0080   22.0920   36.7300 N   0  0  0  0  0  0  0  0  0  0  0  0
   36.1830   22.0780   36.1200 H   0  0  0  0  0  0  0  0  0  0  0  0
   36.7540   21.6630   37.6500 H   0  0  0  0  0  0  0  0  0  0  0  0
   35.9330   21.2280   31.5520 C   0  0  0  0  0  0  0  0  0  0  0  0
   36.8510   20.9910   32.5470 C   0  0  0  0  0  0  0  0  0  0  0  0
   37.4670   22.0680   33.1440 C   0  0  0  0  0  0  0  0  0  0  0  0
   37.1340   23.3440   32.7150 N   0  0  0  0  0  0  0  0  0  0  0  0
   36.2330   23.4950   31.7440 C   0  0  0  0  0  0  0  0  0  0  0  0
   35.6230   22.4730   31.1510 N   0  0  0  0  0  0  0  0  0  0  0  0
   35.4370   20.4040   31.0700 H   0  0  0  0  0  0  0  0  0  0  0  0
   37.1230   19.9990   32.8960 H   0  0  0  0  0  0  0  0  0  0  0  0
   35.8970   24.8530   31.3200 C   0  0  0  0  0  0  0  0  0  0  0  0
   34.7450   25.2440   31.0510 O   0  0  0  0  0  0  0  0  0  0  0  0
   36.9170   25.7890   31.2010 O   0  0  0  0  0  0  0  0  0  0  0  0
   37.9500   28.1070   31.6820 O   0  0  0  0  0  0  0  0  0  0  0  0
   36.6830   27.4770   31.1070 P   0  0  0  0  0  0  0  0  0  0  0  0
   35.3410   28.0220   31.9350 O   0  0  0  0  0  0  0  0  0  0  0  0
   35.1360   27.4570   32.7210 H   0  0  0  0  0  0  0  0  0  0  0  0
   36.6370   27.9880   29.4750 O   0  0  0  0  0  0  0  0  0  0  0  0
   37.1180   27.3120   28.9160 H   0  0  0  0  0  0  0  0  0  0  0  0
  1  3  1  0  0  0  0
  2  8  1  0  0  0  0
  2  7  1  0  0  0  0
  3  9  1  6  0  0  0
  3  2  1  0  0  0  0
  3  4  1  0  0  0  0
  4 10  1  0  0  0  0
  4  5  1  0  0  0  0
  5  6  1  0  0  0  0
  6 13  1  0  0  0  0
  6 14  1  0  0  0  0
  7 15  1  1  0  0  0
  7  6  1  0  0  0  0
 11  4  1  0  0  0  0
 12  5  1  0  0  0  0
 16  7  1  0  0  0  0
 16 18  1  0  0  0  0
 17 16  1  0  0  0  0
 19 20  1  0  0  0  0
 20 26  1  0  0  0  0
 20 21  2  0  0  0  0
 21  1  1  0  0  0  0
 22 21  1  0  0  0  0
 23 22  2  0  0  0  0
 24 19  2  0  0  0  0
 24 23  1  0  0  0  0
 25 19  1  0  0  0  0
 27 23  1  0  0  0  0
 28 27  2  0  0  0  0
 29 27  1  0  0  0  0
 31 29  1  0  0  0  0
 31 30  2  0  0  0  0
 31 32  1  0  0  0  0
 32 33  1  0  0  0  0
 34 31  1  0  0  0  0
 35 34  1  0  0  0  0
M  END
>  <minimizedAffinity>
-5.19317198

$$$$

 OpenBabel03262521023D

 35 36  0  0  1  0  0  0  0  0999 V2000
   38.9330   22.1590   35.0180 S   0  0  0  0  0  0  0  0  0  0  0  0
   38.5770   24.4180   36.4950 N   0  0  0  0  0  0  0  0  0  0  0  0
   39.6150   23.6330   35.8790 C   0  0  1  0  0  0  0  0  0  0  0  0
   40.5670   23.1120   36.9160 C   0  0  0  0  0  0  0  0  0  0  0  0
   39.7790   22.3000   37.8410 N   0  0  0  0  0  0  0  0  0  0  0  0
   38.9400   23.2630   38.5710 C   0  0  0  0  0  0  0  0  0  0  0  0
   37.9050   23.7570   37.5640 C   0  0  2  0  0  0  0  0  0  0  0  0
   39.0180   25.2700   36.8540 H   0  0  0  0  0  0  0  0  0  0  0  0
   40.1070   24.2810   35.1340 H   0  0  0  0  0  0  0  0  0  0  0  0
   41.0720   23.9520   37.4060 H   0  0  0  0  0  0  0  0  0  0  0  0
   41.2770   22.4280   36.3890 H   0  0  0  0  0  0  0  0  0  0  0  0
   39.1600   21.6830   37.2770 H   0  0  0  0  0  0  0  0  0  0  0  0
   39.5240   24.1170   38.9360 H   0  0  0  0  0  0  0  0  0  0  0  0
   38.4130   22.7450   39.3900 H   0  0  0  0  0  0  0  0  0  0  0  0
   37.2920   24.5050   38.1120 H   0  0  0  0  0  0  0  0  0  0  0  0
   37.1150   22.6290   37.1380 N   0  0  0  0  0  0  0  0  0  0  0  0
   36.3920   22.8790   36.4540 H   0  0  0  0  0  0  0  0  0  0  0  0
   36.6530   22.2340   37.9890 H   0  0  0  0  0  0  0  0  0  0  0  0
   36.2770   22.3860   31.9610 C   0  0  0  0  0  0  0  0  0  0  0  0
   37.0800   21.8420   32.9370 C   0  0  0  0  0  0  0  0  0  0  0  0
   37.8400   22.6900   33.7100 C   0  0  0  0  0  0  0  0  0  0  0  0
   37.7630   24.0540   33.4710 N   0  0  0  0  0  0  0  0  0  0  0  0
   36.9610   24.5070   32.5070 C   0  0  0  0  0  0  0  0  0  0  0  0
   36.2160   23.7110   31.7460 N   0  0  0  0  0  0  0  0  0  0  0  0
   35.6730   21.7450   31.3440 H   0  0  0  0  0  0  0  0  0  0  0  0
   37.1520   20.7780   33.1370 H   0  0  0  0  0  0  0  0  0  0  0  0
   36.8960   25.9500   32.2860 C   0  0  0  0  0  0  0  0  0  0  0  0
   36.9020   26.8040   33.1930 O   0  0  0  0  0  0  0  0  0  0  0  0
   36.8230   26.4250   30.9830 O   0  0  0  0  0  0  0  0  0  0  0  0
   38.8610   27.9460   30.5290 O   0  0  0  0  0  0  0  0  0  0  0  0
   37.3340   27.9750   30.4820 P   0  0  0  0  0  0  0  0  0  0  0  0
   36.7510   29.2190   31.4270 O   0  0  0  0  0  0  0  0  0  0  0  0
   36.6100   28.9370   32.3650 H   0  0  0  0  0  0  0  0  0  0  0  0
   36.9490   28.2320   28.8350 O   0  0  0  0  0  0  0  0  0  0  0  0
   36.8560   27.3430   28.3870 H   0  0  0  0  0  0  0  0  0  0  0  0
  1  3  1  0  0  0  0
  2  8  1  0  0  0  0
  2  7  1  0  0  0  0
  3  9  1  6  0  0  0
  3  2  1  0  0  0  0
  3  4  1  0  0  0  0
  4 10  1  0  0  0  0
  4  5  1  0  0  0  0
  5  6  1  0  0  0  0
  6 13  1  0  0  0  0
  6 14  1  0  0  0  0
  7 15  1  1  0  0  0
  7  6  1  0  0  0  0
 11  4  1  0  0  0  0
 12  5  1  0  0  0  0
 16  7  1  0  0  0  0
 16 18  1  0  0  0  0
 17 16  1  0  0  0  0
 19 20  1  0  0  0  0
 20 26  1  0  0  0  0
 20 21  2  0  0  0  0
 21  1  1  0  0  0  0
 22 21  1  0  0  0  0
 23 22  2  0  0  0  0
 24 19  2  0  0  0  0
 24 23  1  0  0  0  0
 25 19  1  0  0  0  0
 27 23  1  0  0  0  0
 27 28  2  0  0  0  0
 29 27  1  0  0  0  0
 31 30  2  0  0  0  0
 31 29  1  0  0  0  0
 31 32  1  0  0  0  0
 32 33  1  0  0  0  0
 34 31  1  0  0  0  0
 35 34  1  0  0  0  0
M  END
>  <minimizedAffinity>
-5.15863514

$$$$

 OpenBabel03262521023D

 35 36  0  0  1  0  0  0  0  0999 V2000
   37.3990   22.6480   31.5910 S   0  0  0  0  0  0  0  0  0  0  0  0
   36.8600   21.1870   33.8240 N   0  0  0  0  0  0  0  0  0  0  0  0
   37.8690   21.3560   32.8110 C   0  0  1  0  0  0  0  0  0  0  0  0
   38.0490   20.0860   32.0300 C   0  0  0  0  0  0  0  0  0  0  0  0
   36.7550   19.7730   31.4300 N   0  0  0  0  0  0  0  0  0  0  0  0
   35.8960   19.3850   32.5590 C   0  0  0  0  0  0  0  0  0  0  0  0
   35.6250   20.6710   33.3340 C   0  0  2  0  0  0  0  0  0  0  0  0
   37.2400   20.5390   34.5200 H   0  0  0  0  0  0  0  0  0  0  0  0
   38.7900   21.6750   33.3270 H   0  0  0  0  0  0  0  0  0  0  0  0
   38.4160   19.2960   32.6950 H   0  0  0  0  0  0  0  0  0  0  0  0
   38.7600   20.3150   31.1980 H   0  0  0  0  0  0  0  0  0  0  0  0
   36.3760   20.6470   31.0120 H   0  0  0  0  0  0  0  0  0  0  0  0
   36.3940   18.6640   33.2200 H   0  0  0  0  0  0  0  0  0  0  0  0
   34.9360   18.9970   32.1760 H   0  0  0  0  0  0  0  0  0  0  0  0
   35.0000   20.3680   34.2020 H   0  0  0  0  0  0  0  0  0  0  0  0
   34.9250   21.5830   32.4650 N   0  0  0  0  0  0  0  0  0  0  0  0
   34.7050   22.4790   32.9150 H   0  0  0  0  0  0  0  0  0  0  0  0
   34.0310   21.1190   32.1830 H   0  0  0  0  0  0  0  0  0  0  0  0
   36.7360   26.5170   32.6090 C   0  0  0  0  0  0  0  0  0  0  0  0
   36.7390   25.3600   31.8670 C   0  0  0  0  0  0  0  0  0  0  0  0
   37.3100   24.2320   32.4100 C   0  0  0  0  0  0  0  0  0  0  0  0
   37.8580   24.3120   33.6810 N   0  0  0  0  0  0  0  0  0  0  0  0
   37.8170   25.4700   34.3410 C   0  0  0  0  0  0  0  0  0  0  0  0
   37.2720   26.5750   33.8410 N   0  0  0  0  0  0  0  0  0  0  0  0
   36.2950   27.4130   32.2080 H   0  0  0  0  0  0  0  0  0  0  0  0
   36.3140   25.2790   30.8710 H   0  0  0  0  0  0  0  0  0  0  0  0
   38.3960   25.5200   35.6820 C   0  0  0  0  0  0  0  0  0  0  0  0
   38.3100   26.4960   36.4520 O   0  0  0  0  0  0  0  0  0  0  0  0
   39.0950   24.4150   36.1520 O   0  0  0  0  0  0  0  0  0  0  0  0
   37.6700   24.1440   38.2900 O   0  0  0  0  0  0  0  0  0  0  0  0
   38.5060   23.3150   37.3170 P   0  0  0  0  0  0  0  0  0  0  0  0
   39.7030   22.4940   38.1400 O   0  0  0  0  0  0  0  0  0  0  0  0
   40.5290   23.0310   38.2240 H   0  0  0  0  0  0  0  0  0  0  0  0
   37.3990   22.2220   36.6060 O   0  0  0  0  0  0  0  0  0  0  0  0
   37.0220   22.6420   35.7810 H   0  0  0  0  0  0  0  0  0  0  0  0
  1 21  1  0  0  0  0
  1  3  1  0  0  0  0
  2  8  1  0  0  0  0
  3  9  1  1  0  0  0
  3  2  1  0  0  0  0
  4 10  1  0  0  0  0
  4  3  1  0  0  0  0
  5  4  1  0  0  0  0
  5  6  1  0  0  0  0
  6 13  1  0  0  0  0
  6  7  1  0  0  0  0
  7  2  1  0  0  0  0
  7 15  1  1  0  0  0
 11  4  1  0  0  0  0
 12  5  1  0  0  0  0
 14  6  1  0  0  0  0
 16 17  1  0  0  0  0
 16  7  1  0  0  0  0
 18 16  1  0  0  0  0
 19 24  1  0  0  0  0
 20 21  1  0  0  0  0
 20 19  2  0  0  0  0
 21 22  2  0  0  0  0
 22 23  1  0  0  0  0
 23 27  1  0  0  0  0
 24 23  2  0  0  0  0
 25 19  1  0  0  0  0
 26 20  1  0  0  0  0
 27 29  1  0  0  0  0
 27 28  2  0  0  0  0
 29 31  1  0  0  0  0
 31 32  1  0  0  0  0
 31 30  2  0  0  0  0
 32 33  1  0  0  0  0
 34 31  1  0  0  0  0
 35 34  1  0  0  0  0
M  END
>  <minimizedAffinity>
-4.99160528

$$$$

 OpenBabel03262521023D

 35 36  0  0  1  0  0  0  0  0999 V2000
   38.2200   26.1790   30.6980 S   0  0  0  0  0  0  0  0  0  0  0  0
   39.5660   28.4450   30.0160 N   0  0  0  0  0  0  0  0  0  0  0  0
   38.4760   27.9940   30.8420 C   0  0  1  0  0  0  0  0  0  0  0  0
   37.1890   28.6360   30.4120 C   0  0  0  0  0  0  0  0  0  0  0  0
   36.9760   28.2610   29.0160 N   0  0  0  0  0  0  0  0  0  0  0  0
   38.0120   28.9870   28.2650 C   0  0  0  0  0  0  0  0  0  0  0  0
   39.3320   28.3070   28.6170 C   0  0  2  0  0  0  0  0  0  0  0  0
   39.7170   29.4340   30.2340 H   0  0  0  0  0  0  0  0  0  0  0  0
   38.7460   28.2310   31.8850 H   0  0  0  0  0  0  0  0  0  0  0  0
   37.2530   29.7200   30.5600 H   0  0  0  0  0  0  0  0  0  0  0  0
   36.3750   28.1650   31.0160 H   0  0  0  0  0  0  0  0  0  0  0  0
   37.1590   27.2400   28.9290 H   0  0  0  0  0  0  0  0  0  0  0  0
   38.0610   30.0430   28.5580 H   0  0  0  0  0  0  0  0  0  0  0  0
   37.8340   28.8670   27.1830 H   0  0  0  0  0  0  0  0  0  0  0  0
   40.1140   28.8770   28.0700 H   0  0  0  0  0  0  0  0  0  0  0  0
   39.2660   26.9360   28.1780 N   0  0  0  0  0  0  0  0  0  0  0  0
   40.1210   26.4060   28.3800 H   0  0  0  0  0  0  0  0  0  0  0  0
   39.1140   26.9480   27.1430 H   0  0  0  0  0  0  0  0  0  0  0  0
   41.2960   24.5490   32.7790 C   0  0  0  0  0  0  0  0  0  0  0  0
   40.6200   25.2220   31.7890 C   0  0  0  0  0  0  0  0  0  0  0  0
   39.2520   25.3390   31.8880 C   0  0  0  0  0  0  0  0  0  0  0  0
   38.6160   24.7730   32.9820 N   0  0  0  0  0  0  0  0  0  0  0  0
   39.3380   24.1350   33.9040 C   0  0  0  0  0  0  0  0  0  0  0  0
   40.6600   24.0070   33.8330 N   0  0  0  0  0  0  0  0  0  0  0  0
   42.3650   24.4440   32.7250 H   0  0  0  0  0  0  0  0  0  0  0  0
   41.1020   25.6720   30.9260 H   0  0  0  0  0  0  0  0  0  0  0  0
   38.6390   23.5550   35.0490 C   0  0  0  0  0  0  0  0  0  0  0  0
   37.9400   22.5250   35.0010 O   0  0  0  0  0  0  0  0  0  0  0  0
   38.7470   24.1790   36.2850 O   0  0  0  0  0  0  0  0  0  0  0  0
   37.9900   24.5720   38.7230 O   0  0  0  0  0  0  0  0  0  0  0  0
   38.3960   23.4390   37.7820 P   0  0  0  0  0  0  0  0  0  0  0  0
   39.6720   22.5810   38.4300 O   0  0  0  0  0  0  0  0  0  0  0  0
   40.5460   22.9650   38.1710 H   0  0  0  0  0  0  0  0  0  0  0  0
   37.0050   22.4520   37.6540 O   0  0  0  0  0  0  0  0  0  0  0  0
   36.4560   22.7740   36.8830 H   0  0  0  0  0  0  0  0  0  0  0  0
  1  3  1  0  0  0  0
  1 21  1  0  0  0  0
  2  8  1  0  0  0  0
  2  3  1  0  0  0  0
  3  9  1  1  0  0  0
  4 10  1  0  0  0  0
  4  3  1  0  0  0  0
  4 11  1  0  0  0  0
  5  4  1  0  0  0  0
  6 13  1  0  0  0  0
  6  7  1  0  0  0  0
  6  5  1  0  0  0  0
  7 15  1  6  0  0  0
  7  2  1  0  0  0  0
 12  5  1  0  0  0  0
 14  6  1  0  0  0  0
 16 17  1  0  0  0  0
 16  7  1  0  0  0  0
 18 16  1  0  0  0  0
 19 24  1  0  0  0  0
 20 21  1  0  0  0  0
 20 19  2  0  0  0  0
 21 22  2  0  0  0  0
 22 23  1  0  0  0  0
 23 27  1  0  0  0  0
 24 23  2  0  0  0  0
 25 19  1  0  0  0  0
 26 20  1  0  0  0  0
 27 29  1  0  0  0  0
 28 27  2  0  0  0  0
 29 31  1  0  0  0  0
 31 32  1  0  0  0  0
 31 30  2  0  0  0  0
 33 32  1  0  0  0  0
 34 31  1  0  0  0  0
 35 34  1  0  0  0  0
M  END
>  <minimizedAffinity>
-4.80309391

$$$$

 OpenBabel03262521023D

 35 36  0  0  1  0  0  0  0  0999 V2000
   36.8890   25.5390   31.9020 S   0  0  0  0  0  0  0  0  0  0  0  0
   38.3250   27.8060   31.4450 N   0  0  0  0  0  0  0  0  0  0  0  0
   37.8430   26.9830   32.5230 C   0  0  1  0  0  0  0  0  0  0  0  0
   36.9060   27.7600   33.4010 C   0  0  0  0  0  0  0  0  0  0  0  0
   35.8040   28.2050   32.5510 N   0  0  0  0  0  0  0  0  0  0  0  0
   36.3940   29.2190   31.6630 C   0  0  0  0  0  0  0  0  0  0  0  0
   37.2970   28.4520   30.7010 C   0  0  2  0  0  0  0  0  0  0  0  0
   38.9340   28.5170   31.8610 H   0  0  0  0  0  0  0  0  0  0  0  0
   38.7300   26.6130   33.0650 H   0  0  0  0  0  0  0  0  0  0  0  0
   37.4460   28.5890   33.8710 H   0  0  0  0  0  0  0  0  0  0  0  0
   36.4860   27.0390   34.1460 H   0  0  0  0  0  0  0  0  0  0  0  0
   35.5000   27.3960   31.9720 H   0  0  0  0  0  0  0  0  0  0  0  0
   36.9980   29.9460   32.2210 H   0  0  0  0  0  0  0  0  0  0  0  0
   35.5950   29.7090   31.0810 H   0  0  0  0  0  0  0  0  0  0  0  0
   37.7620   29.2250   30.0520 H   0  0  0  0  0  0  0  0  0  0  0  0
   36.4770   27.5410   29.9420 N   0  0  0  0  0  0  0  0  0  0  0  0
   37.0130   26.9830   29.2680 H   0  0  0  0  0  0  0  0  0  0  0  0
   35.7740   28.1150   29.4210 H   0  0  0  0  0  0  0  0  0  0  0  0
   37.8860   21.7620   32.9940 C   0  0  0  0  0  0  0  0  0  0  0  0
   37.4640   22.8110   32.2110 C   0  0  0  0  0  0  0  0  0  0  0  0
   37.4090   24.0680   32.7700 C   0  0  0  0  0  0  0  0  0  0  0  0
   37.7820   24.2210   34.0970 N   0  0  0  0  0  0  0  0  0  0  0  0
   38.1810   23.1560   34.7930 C   0  0  0  0  0  0  0  0  0  0  0  0
   38.2430   21.9320   34.2790 N   0  0  0  0  0  0  0  0  0  0  0  0
   37.9390   20.7700   32.5810 H   0  0  0  0  0  0  0  0  0  0  0  0
   37.1700   22.7100   31.1710 H   0  0  0  0  0  0  0  0  0  0  0  0
   38.5740   23.3510   36.1870 C   0  0  0  0  0  0  0  0  0  0  0  0
   37.7910   23.3010   37.1560 O   0  0  0  0  0  0  0  0  0  0  0  0
   39.9080   23.6130   36.4770 O   0  0  0  0  0  0  0  0  0  0  0  0
   42.4250   23.1880   36.8680 O   0  0  0  0  0  0  0  0  0  0  0  0
   41.1380   22.4310   36.5470 P   0  0  0  0  0  0  0  0  0  0  0  0
   41.3190   21.5560   35.1390 O   0  0  0  0  0  0  0  0  0  0  0  0
   41.0790   22.0870   34.3400 H   0  0  0  0  0  0  0  0  0  0  0  0
   40.8940   21.3890   37.8820 O   0  0  0  0  0  0  0  0  0  0  0  0
   40.3380   21.8670   38.5610 H   0  0  0  0  0  0  0  0  0  0  0  0
  1  3  1  0  0  0  0
  1 21  1  0  0  0  0
  2  8  1  0  0  0  0
  2  3  1  0  0  0  0
  3  9  1  1  0  0  0
  3  4  1  0  0  0  0
  4 10  1  0  0  0  0
  4 11  1  0  0  0  0
  5  4  1  0  0  0  0
  6 13  1  0  0  0  0
  6  5  1  0  0  0  0
  7 15  1  6  0  0  0
  7  2  1  0  0  0  0
  7  6  1  0  0  0  0
 12  5  1  0  0  0  0
 14  6  1  0  0  0  0
 16  7  1  0  0  0  0
 17 16  1  0  0  0  0
 18 16  1  0  0  0  0
 19 24  1  0  0  0  0
 20 21  1  0  0  0  0
 20 19  2  0  0  0  0
 21 22  2  0  0  0  0
 22 23  1  0  0  0  0
 23 27  1  0  0  0  0
 24 23  2  0  0  0  0
 25 19  1  0  0  0  0
 26 20  1  0  0  0  0
 27 29  1  0  0  0  0
 27 28  2  0  0  0  0
 29 31  1  0  0  0  0
 31 30  2  0  0  0  0
 31 34  1  0  0  0  0
 32 31  1  0  0  0  0
 33 32  1  0  0  0  0
 34 35  1  0  0  0  0
M  END
>  <minimizedAffinity>
-4.74926043

$$$$

 OpenBabel03262521023D

 35 36  0  0  1  0  0  0  0  0999 V2000
   38.3220   25.2930   36.4730 S   0  0  0  0  0  0  0  0  0  0  0  0
   38.4730   22.6700   35.7600 N   0  0  0  0  0  0  0  0  0  0  0  0
   37.7980   23.5440   36.6840 C   0  0  1  0  0  0  0  0  0  0  0  0
   38.1330   23.1730   38.1000 C   0  0  0  0  0  0  0  0  0  0  0  0
   39.5830   23.2900   38.2350 N   0  0  0  0  0  0  0  0  0  0  0  0
   40.1300   22.1860   37.4320 C   0  0  0  0  0  0  0  0  0  0  0  0
   39.8770   22.5680   35.9760 C   0  0  2  0  0  0  0  0  0  0  0  0
   38.0510   21.7420   35.8620 H   0  0  0  0  0  0  0  0  0  0  0  0
   36.7190   23.4690   36.4660 H   0  0  0  0  0  0  0  0  0  0  0  0
   37.7630   22.1640   38.3120 H   0  0  0  0  0  0  0  0  0  0  0  0
   37.6690   23.9500   38.7570 H   0  0  0  0  0  0  0  0  0  0  0  0
   39.8720   24.1910   37.8000 H   0  0  0  0  0  0  0  0  0  0  0  0
   39.6250   21.2370   37.6480 H   0  0  0  0  0  0  0  0  0  0  0  0
   41.2200   22.1180   37.5930 H   0  0  0  0  0  0  0  0  0  0  0  0
   40.2670   21.7180   35.3750 H   0  0  0  0  0  0  0  0  0  0  0  0
   40.5920   23.7890   35.6980 N   0  0  0  0  0  0  0  0  0  0  0  0
   40.4720   24.1150   34.7330 H   0  0  0  0  0  0  0  0  0  0  0  0
   41.6070   23.6000   35.8670 H   0  0  0  0  0  0  0  0  0  0  0  0
   36.8550   27.5950   33.4720 C   0  0  0  0  0  0  0  0  0  0  0  0
   37.3480   27.2430   34.7070 C   0  0  0  0  0  0  0  0  0  0  0  0
   37.6700   25.9240   34.9350 C   0  0  0  0  0  0  0  0  0  0  0  0
   37.4840   25.0090   33.9100 N   0  0  0  0  0  0  0  0  0  0  0  0
   37.0020   25.4260   32.7380 C   0  0  0  0  0  0  0  0  0  0  0  0
   36.6820   26.6920   32.4910 N   0  0  0  0  0  0  0  0  0  0  0  0
   36.5960   28.6190   33.2690 H   0  0  0  0  0  0  0  0  0  0  0  0
   37.5000   27.9460   35.5200 H   0  0  0  0  0  0  0  0  0  0  0  0
   36.8250   24.4380   31.6750 C   0  0  0  0  0  0  0  0  0  0  0  0
   37.4810   24.4160   30.6160 O   0  0  0  0  0  0  0  0  0  0  0  0
   35.8640   23.4480   31.8350 O   0  0  0  0  0  0  0  0  0  0  0  0
   36.8090   21.6040   33.3780 O   0  0  0  0  0  0  0  0  0  0  0  0
   36.2020   21.7810   31.9880 P   0  0  0  0  0  0  0  0  0  0  0  0
   37.2420   21.1900   30.8250 O   0  0  0  0  0  0  0  0  0  0  0  0
   37.8810   21.8790   30.5160 H   0  0  0  0  0  0  0  0  0  0  0  0
   34.7510   20.8750   32.0210 O   0  0  0  0  0  0  0  0  0  0  0  0
   34.0090   21.4730   32.3220 H   0  0  0  0  0  0  0  0  0  0  0  0
  1  3  1  0  0  0  0
  2  8  1  0  0  0  0
  2  7  1  0  0  0  0
  2  3  1  0  0  0  0
  3  9  1  6  0  0  0
  3  4  1  0  0  0  0
  4  5  1  0  0  0  0
  4 10  1  0  0  0  0
  4 11  1  0  0  0  0
  6 14  1  0  0  0  0
  6 13  1  0  0  0  0
  6  5  1  0  0  0  0
  7 15  1  6  0  0  0
  7  6  1  0  0  0  0
 12  5  1  0  0  0  0
 16 18  1  0  0  0  0
 16  7  1  0  0  0  0
 17 16  1  0  0  0  0
 19 20  1  0  0  0  0
 20 21  2  0  0  0  0
 20 26  1  0  0  0  0
 21  1  1  0  0  0  0
 22 21  1  0  0  0  0
 23 22  2  0  0  0  0
 24 23  1  0  0  0  0
 24 19  2  0  0  0  0
 25 19  1  0  0  0  0
 27 29  1  0  0  0  0
 27 23  1  0  0  0  0
 28 27  2  0  0  0  0
 29 31  1  0  0  0  0
 31 34  1  0  0  0  0
 31 30  2  0  0  0  0
 32 31  1  0  0  0  0
 33 32  1  0  0  0  0
 34 35  1  0  0  0  0
M  END
>  <minimizedAffinity>
-4.64472914

$$$$

 OpenBabel03262521023D

 35 36  0  0  1  0  0  0  0  0999 V2000
   38.2230   22.4770   33.5900 S   0  0  0  0  0  0  0  0  0  0  0  0
   38.7640   21.7790   36.1660 N   0  0  0  0  0  0  0  0  0  0  0  0
   37.9050   22.6390   35.3940 C   0  0  1  0  0  0  0  0  0  0  0  0
   38.1570   24.0780   35.7370 C   0  0  0  0  0  0  0  0  0  0  0  0
   39.5630   24.3430   35.4420 N   0  0  0  0  0  0  0  0  0  0  0  0
   40.3130   23.5920   36.4600 C   0  0  0  0  0  0  0  0  0  0  0  0
   40.1450   22.1200   36.0950 C   0  0  2  0  0  0  0  0  0  0  0  0
   38.4530   21.8420   37.1400 H   0  0  0  0  0  0  0  0  0  0  0  0
   36.8680   22.3250   35.5990 H   0  0  0  0  0  0  0  0  0  0  0  0
   37.8980   24.2560   36.7870 H   0  0  0  0  0  0  0  0  0  0  0  0
   37.5430   24.6920   35.0310 H   0  0  0  0  0  0  0  0  0  0  0  0
   39.7750   23.9370   34.5070 H   0  0  0  0  0  0  0  0  0  0  0  0
   39.9130   23.7610   37.4670 H   0  0  0  0  0  0  0  0  0  0  0  0
   41.3840   23.8500   36.3930 H   0  0  0  0  0  0  0  0  0  0  0  0
   40.6890   21.5550   36.8830 H   0  0  0  0  0  0  0  0  0  0  0  0
   40.7240   21.9080   34.7920 N   0  0  0  0  0  0  0  0  0  0  0  0
   40.6500   20.9360   34.4710 H   0  0  0  0  0  0  0  0  0  0  0  0
   41.7360   22.1670   34.8550 H   0  0  0  0  0  0  0  0  0  0  0  0
   35.5590   24.3670   31.1860 C   0  0  0  0  0  0  0  0  0  0  0  0
   36.2490   23.3470   31.7980 C   0  0  0  0  0  0  0  0  0  0  0  0
   37.2330   23.6700   32.7050 C   0  0  0  0  0  0  0  0  0  0  0  0
   37.4840   25.0090   32.9630 N   0  0  0  0  0  0  0  0  0  0  0  0
   36.7730   25.9430   32.3310 C   0  0  0  0  0  0  0  0  0  0  0  0
   35.8180   25.6600   31.4500 N   0  0  0  0  0  0  0  0  0  0  0  0
   34.7850   24.1420   30.4740 H   0  0  0  0  0  0  0  0  0  0  0  0
   36.0650   22.2940   31.6080 H   0  0  0  0  0  0  0  0  0  0  0  0
   37.0560   27.3450   32.6300 C   0  0  0  0  0  0  0  0  0  0  0  0
   36.5480   27.9820   33.5740 O   0  0  0  0  0  0  0  0  0  0  0  0
   37.9490   28.0360   31.8210 O   0  0  0  0  0  0  0  0  0  0  0  0
   39.1170   28.8690   29.6740 O   0  0  0  0  0  0  0  0  0  0  0  0
   38.0630   27.8610   30.1270 P   0  0  0  0  0  0  0  0  0  0  0  0
   36.6270   28.1260   29.3200 O   0  0  0  0  0  0  0  0  0  0  0  0
   36.0520   28.7780   29.7930 H   0  0  0  0  0  0  0  0  0  0  0  0
   38.7130   26.3310   29.7230 O   0  0  0  0  0  0  0  0  0  0  0  0
   39.2400   25.9930   30.5020 H   0  0  0  0  0  0  0  0  0  0  0  0
  1  3  1  0  0  0  0
  2  8  1  0  0  0  0
  3  9  1  1  0  0  0
  3  4  1  0  0  0  0
  3  2  1  0  0  0  0
  4 10  1  0  0  0  0
  5  4  1  0  0  0  0
  5  6  1  0  0  0  0
  6 13  1  0  0  0  0
  7  2  1  0  0  0  0
  7  6  1  0  0  0  0
  7 15  1  1  0  0  0
 11  4  1  0  0  0  0
 12  5  1  0  0  0  0
 14  6  1  0  0  0  0
 16 18  1  0  0  0  0
 16  7  1  0  0  0  0
 17 16  1  0  0  0  0
 19 24  2  0  0  0  0
 19 20  1  0  0  0  0
 20 21  2  0  0  0  0
 21 22  1  0  0  0  0
 21  1  1  0  0  0  0
 23 27  1  0  0  0  0
 23 22  2  0  0  0  0
 24 23  1  0  0  0  0
 25 19  1  0  0  0  0
 26 20  1  0  0  0  0
 27 28  2  0  0  0  0
 29 27  1  0  0  0  0
 30 31  2  0  0  0  0
 31 29  1  0  0  0  0
 32 33  1  0  0  0  0
 32 31  1  0  0  0  0
 34 31  1  0  0  0  0
 34 35  1  0  0  0  0
M  END
>  <minimizedAffinity>
-4.57541275

$$$$

 OpenBabel03262521023D

 35 36  0  0  1  0  0  0  0  0999 V2000
   37.7480   27.9500   30.3960 S   0  0  0  0  0  0  0  0  0  0  0  0
   39.2700   26.6010   28.5860 N   0  0  0  0  0  0  0  0  0  0  0  0
   39.2480   26.9740   29.9760 C   0  0  1  0  0  0  0  0  0  0  0  0
   40.4230   27.8480   30.3040 C   0  0  0  0  0  0  0  0  0  0  0  0
   40.3260   29.0270   29.4460 N   0  0  0  0  0  0  0  0  0  0  0  0
   40.6090   28.5330   28.0900 C   0  0  0  0  0  0  0  0  0  0  0  0
   39.3940   27.7010   27.6900 C   0  0  2  0  0  0  0  0  0  0  0  0
   40.0690   25.9730   28.4570 H   0  0  0  0  0  0  0  0  0  0  0  0
   39.2350   26.0380   30.5590 H   0  0  0  0  0  0  0  0  0  0  0  0
   41.3520   27.2860   30.1560 H   0  0  0  0  0  0  0  0  0  0  0  0
   40.2890   28.1890   31.3610 H   0  0  0  0  0  0  0  0  0  0  0  0
   39.3410   29.3630   29.4770 H   0  0  0  0  0  0  0  0  0  0  0  0
   41.5040   27.8990   28.0660 H   0  0  0  0  0  0  0  0  0  0  0  0
   40.6930   29.3880   27.3970 H   0  0  0  0  0  0  0  0  0  0  0  0
   39.6250   27.3080   26.6760 H   0  0  0  0  0  0  0  0  0  0  0  0
   38.2400   28.5650   27.6750 N   0  0  0  0  0  0  0  0  0  0  0  0
   37.3750   28.0770   27.4150 H   0  0  0  0  0  0  0  0  0  0  0  0
   38.4250   29.3200   26.9760 H   0  0  0  0  0  0  0  0  0  0  0  0
   37.2720   26.4640   34.1390 C   0  0  0  0  0  0  0  0  0  0  0  0
   37.6660   26.5490   32.8240 C   0  0  0  0  0  0  0  0  0  0  0  0
   37.3200   27.6720   32.1070 C   0  0  0  0  0  0  0  0  0  0  0  0
   36.5920   28.6660   32.7410 N   0  0  0  0  0  0  0  0  0  0  0  0
   36.2460   28.5130   34.0200 C   0  0  0  0  0  0  0  0  0  0  0  0
   36.5660   27.4390   34.7360 N   0  0  0  0  0  0  0  0  0  0  0  0
   37.5300   25.5970   34.7220 H   0  0  0  0  0  0  0  0  0  0  0  0
   38.2370   25.7810   32.3120 H   0  0  0  0  0  0  0  0  0  0  0  0
   35.4860   29.5820   34.6620 C   0  0  0  0  0  0  0  0  0  0  0  0
   34.2440   29.6850   34.6270 O   0  0  0  0  0  0  0  0  0  0  0  0
   36.1720   30.5630   35.3660 O   0  0  0  0  0  0  0  0  0  0  0  0
   36.5940   33.0970   35.6440 O   0  0  0  0  0  0  0  0  0  0  0  0
   35.5020   32.0520   35.8660 P   0  0  0  0  0  0  0  0  0  0  0  0
   35.0010   32.0700   37.4570 O   0  0  0  0  0  0  0  0  0  0  0  0
   35.5430   31.4660   38.0220 H   0  0  0  0  0  0  0  0  0  0  0  0
   34.2280   32.5180   34.8230 O   0  0  0  0  0  0  0  0  0  0  0  0
   34.3560   32.0640   33.9410 H   0  0  0  0  0  0  0  0  0  0  0  0
  1 21  1  0  0  0  0
  2  3  1  0  0  0  0
  3  4  1  0  0  0  0
  3  1  1  0  0  0  0
  3  9  1  1  0  0  0
  4 11  1  0  0  0  0
  5 12  1  0  0  0  0
  5  4  1  0  0  0  0
  6  5  1  0  0  0  0
  7 15  1  6  0  0  0
  7  6  1  0  0  0  0
  7  2  1  0  0  0  0
  8  2  1  0  0  0  0
 10  4  1  0  0  0  0
 13  6  1  0  0  0  0
 14  6  1  0  0  0  0
 16  7  1  0  0  0  0
 17 16  1  0  0  0  0
 18 16  1  0  0  0  0
 19 25  1  0  0  0  0
 19 24  1  0  0  0  0
 20 19  2  0  0  0  0
 21 22  2  0  0  0  0
 21 20  1  0  0  0  0
 22 23  1  0  0  0  0
 23 27  1  0  0  0  0
 23 24  2  0  0  0  0
 26 20  1  0  0  0  0
 27 29  1  0  0  0  0
 28 27  2  0  0  0  0
 29 31  1  0  0  0  0
 30 31  2  0  0  0  0
 31 32  1  0  0  0  0
 32 33  1  0  0  0  0
 34 31  1  0  0  0  0
 35 34  1  0  0  0  0
M  END
>  <minimizedAffinity>
-4.52163219

$$$$
