
 OpenBabel03272508423D

 18 18  0  0  0  0  0  0  0  0999 V2000
   37.6770   30.3840   51.2460 C   0  0  0  0  0  0  0  0  0  0  0  0
   38.3040   30.8480   50.0800 C   0  0  0  0  0  0  0  0  0  0  0  0
   37.6240   30.7010   48.8560 C   0  0  0  0  0  0  0  0  0  0  0  0
   36.3980   30.1180   48.8770 N   0  0  0  0  0  0  0  0  0  0  0  0
   35.8400   29.6900   50.0160 C   0  0  0  0  0  0  0  0  0  0  0  0
   36.4540   29.8130   51.1870 N   0  0  0  0  0  0  0  0  0  0  0  0
   38.2050   30.5000   52.1820 H   0  0  0  0  0  0  0  0  0  0  0  0
   39.2830   31.3140   50.0680 H   0  0  0  0  0  0  0  0  0  0  0  0
   38.0270   31.0280   47.9070 H   0  0  0  0  0  0  0  0  0  0  0  0
   34.5150   29.0590   50.0420 C   0  0  0  0  0  0  0  0  0  0  0  0
   33.5270   29.5260   50.6740 O   0  0  0  0  0  0  0  0  0  0  0  0
   34.4710   27.9020   49.3020 O   0  0  0  0  0  0  0  0  0  0  0  0
   33.4960   26.3890   47.4370 O   0  0  0  0  0  0  0  0  0  0  0  0
   33.5270   27.8360   47.8680 P   0  0  0  0  0  0  0  0  0  0  0  0
   31.9560   28.3520   48.1190 O   0  0  0  0  0  0  0  0  0  0  0  0
   31.8750   29.3270   48.2590 H   0  0  0  0  0  0  0  0  0  0  0  0
   34.3360   28.7420   46.6940 O   0  0  0  0  0  0  0  0  0  0  0  0
   34.8930   29.4650   47.0980 H   0  0  0  0  0  0  0  0  0  0  0  0
  1  7  1  0  0  0  0
  2  1  2  0  0  0  0
  3  4  2  0  0  0  0
  3  2  1  0  0  0  0
  4  5  1  0  0  0  0
  5 10  1  0  0  0  0
  5  6  2  0  0  0  0
  6  1  1  0  0  0  0
  8  2  1  0  0  0  0
  9  3  1  0  0  0  0
 10 11  2  0  0  0  0
 12 10  1  0  0  0  0
 13 14  2  0  0  0  0
 14 15  1  0  0  0  0
 14 12  1  0  0  0  0
 15 16  1  0  0  0  0
 17 18  1  0  0  0  0
 17 14  1  0  0  0  0
M  END
>  <minimizedAffinity>
-3.77451229

>  <minimizedRMSD>
1.42175281

$$$$
