
 OpenBabel03262522083D

 18 18  0  0  0  0  0  0  0  0999 V2000
   37.1560   30.1500   50.4750 C   0  0  0  0  0  0  0  0  0  0  0  0
   36.7790   30.6080   49.1740 C   0  0  0  0  0  0  0  0  0  0  0  0
   35.4730   30.3330   48.7290 C   0  0  0  0  0  0  0  0  0  0  0  0
   34.6470   29.6490   49.5570 N   0  0  0  0  0  0  0  0  0  0  0  0
   35.0410   29.2360   50.7710 C   0  0  0  0  0  0  0  0  0  0  0  0
   36.2650   29.4760   51.2270 N   0  0  0  0  0  0  0  0  0  0  0  0
   38.1680   30.3760   50.7900 H   0  0  0  0  0  0  0  0  0  0  0  0
   35.2090   30.6890   47.7410 H   0  0  0  0  0  0  0  0  0  0  0  0
   34.3230   28.6840   51.3980 H   0  0  0  0  0  0  0  0  0  0  0  0
   37.7810   31.3440   48.3760 C   0  0  0  0  0  0  0  0  0  0  0  0
   37.5370   31.4060   47.1670 O   0  0  0  0  0  0  0  0  0  0  0  0
   38.9070   31.9110   48.9830 O   0  0  0  0  0  0  0  0  0  0  0  0
   39.8070   34.0690   47.8530 O   0  0  0  0  0  0  0  0  0  0  0  0
   39.0870   33.6070   49.1190 P   0  0  0  0  0  0  0  0  0  0  0  0
   39.9690   34.0490   50.4660 O   0  0  0  0  0  0  0  0  0  0  0  0
   40.9340   33.9610   50.2810 H   0  0  0  0  0  0  0  0  0  0  0  0
   37.5350   34.2730   49.1270 O   0  0  0  0  0  0  0  0  0  0  0  0
   36.8970   33.7290   48.5970 H   0  0  0  0  0  0  0  0  0  0  0  0
  1  7  1  0  0  0  0
  1  6  1  0  0  0  0
  2  1  2  0  0  0  0
  3  2  1  0  0  0  0
  3  4  2  0  0  0  0
  4  5  1  0  0  0  0
  5  6  2  0  0  0  0
  5  9  1  0  0  0  0
  8  3  1  0  0  0  0
 10 12  1  0  0  0  0
 10  2  1  0  0  0  0
 11 10  2  0  0  0  0
 12 14  1  0  0  0  0
 13 14  2  0  0  0  0
 14 17  1  0  0  0  0
 14 15  1  0  0  0  0
 16 15  1  0  0  0  0
 18 17  1  0  0  0  0
M  END
>  <minimizedAffinity>
-3.28732824

>  <minimizedRMSD>
2.64050078

$$$$
