
 OpenBabel03272507423D

 39 41  0  0  0  0  0  0  0  0999 V2000
   36.7420   32.2900   49.3000 O   0  0  0  0  0  0  0  0  0  0  0  0
   38.2360   32.2650   47.3310 C   0  0  0  0  0  0  0  0  0  0  0  0
   37.8580   32.7000   48.5850 C   0  0  0  0  0  0  0  0  0  0  0  0
   38.6290   33.6390   49.2500 C   0  0  0  0  0  0  0  0  0  0  0  0
   39.7770   34.1360   48.6490 C   0  0  0  0  0  0  0  0  0  0  0  0
   40.1420   33.6960   47.4010 C   0  0  0  0  0  0  0  0  0  0  0  0
   39.3620   32.7630   46.7590 C   0  0  0  0  0  0  0  0  0  0  0  0
   38.3940   34.0230   50.2320 H   0  0  0  0  0  0  0  0  0  0  0  0
   40.3780   34.8740   49.1770 H   0  0  0  0  0  0  0  0  0  0  0  0
   41.0290   34.0700   46.9160 H   0  0  0  0  0  0  0  0  0  0  0  0
   39.7650   32.2970   45.4160 C   0  0  0  0  0  0  0  0  0  0  0  0
   40.5940   31.2550   45.0690 C   0  0  0  0  0  0  0  0  0  0  0  0
   40.6480   31.2340   43.6720 C   0  0  0  0  0  0  0  0  0  0  0  0
   39.8490   32.2660   43.2650 C   0  0  0  0  0  0  0  0  0  0  0  0
   39.3350   32.8850   44.3120 O   0  0  0  0  0  0  0  0  0  0  0  0
   41.0340   30.6660   45.8540 H   0  0  0  0  0  0  0  0  0  0  0  0
   41.2650   30.4650   43.2290 H   0  0  0  0  0  0  0  0  0  0  0  0
   39.7320   32.4530   42.2090 H   0  0  0  0  0  0  0  0  0  0  0  0
   36.7070   30.5210   46.1930 N   0  0  0  0  0  0  0  0  0  0  0  0
   37.3920   31.2940   46.7040 C   0  0  0  0  0  0  0  0  0  0  0  0
   36.7120   31.2130   50.1210 C   0  0  0  0  0  0  0  0  0  0  0  0
   35.5970   30.4030   49.8820 C   0  0  0  0  0  0  0  0  0  0  0  0
   35.3890   29.2500   50.6240 C   0  0  0  0  0  0  0  0  0  0  0  0
   36.3110   28.9480   51.5790 N   0  0  0  0  0  0  0  0  0  0  0  0
   37.3910   29.7500   51.7950 C   0  0  0  0  0  0  0  0  0  0  0  0
   37.5700   30.8420   51.0810 N   0  0  0  0  0  0  0  0  0  0  0  0
   34.5620   28.5850   50.4970 H   0  0  0  0  0  0  0  0  0  0  0  0
   38.1290   29.5060   52.5650 H   0  0  0  0  0  0  0  0  0  0  0  0
   34.1910   29.5790   48.0670 C   0  0  0  0  0  0  0  0  0  0  0  0
   34.6240   28.3840   47.8570 O   0  0  0  0  0  0  0  0  0  0  0  0
   34.6040   30.6380   48.9220 N   0  0  0  0  0  0  0  0  0  0  0  0
   34.1430   31.5290   48.7830 H   0  0  0  0  0  0  0  0  0  0  0  0
   33.0950   29.7390   47.2230 O   0  0  0  0  0  0  0  0  0  0  0  0
   33.8560   29.0560   44.7430 O   0  0  0  0  0  0  0  0  0  0  0  0
   32.8430   28.7540   45.8420 P   0  0  0  0  0  0  0  0  0  0  0  0
   32.8690   27.1190   46.1690 O   0  0  0  0  0  0  0  0  0  0  0  0
   33.7240   26.7570   45.8920 H   0  0  0  0  0  0  0  0  0  0  0  0
   31.3330   29.2240   45.1950 O   0  0  0  0  0  0  0  0  0  0  0  0
   31.4220   30.2120   45.0120 H   0  0  0  0  0  0  0  0  0  0  0  0
  1 21  1  0  0  0  0
  2  3  1  0  0  0  0
  3  4  2  0  0  0  0
  3  1  1  0  0  0  0
  4  8  1  0  0  0  0
  5  9  1  0  0  0  0
  5  4  1  0  0  0  0
  6  5  2  0  0  0  0
  7  2  2  0  0  0  0
  7  6  1  0  0  0  0
 10  6  1  0  0  0  0
 11  7  1  0  0  0  0
 12 11  2  0  0  0  0
 12 16  1  0  0  0  0
 13 12  1  0  0  0  0
 14 13  2  0  0  0  0
 14 15  1  0  0  0  0
 15 11  1  0  0  0  0
 17 13  1  0  0  0  0
 18 14  1  0  0  0  0
 19 20  3  0  0  0  0
 20  2  1  0  0  0  0
 21 26  1  0  0  0  0
 22 21  2  0  0  0  0
 22 23  1  0  0  0  0
 23 24  2  0  0  0  0
 24 25  1  0  0  0  0
 25 28  1  0  0  0  0
 26 25  2  0  0  0  0
 27 23  1  0  0  0  0
 29 31  1  0  0  0  0
 30 29  2  0  0  0  0
 31 22  1  0  0  0  0
 32 31  1  0  0  0  0
 33 29  1  0  0  0  0
 34 35  2  0  0  0  0
 35 36  1  0  0  0  0
 35 33  1  0  0  0  0
 37 36  1  0  0  0  0
 38 35  1  0  0  0  0
 39 38  1  0  0  0  0
M  END
>  <minimizedAffinity>
-5.55688143

>  <minimizedRMSD>
0.191507608

$$$$
