
 OpenBabel03272507423D

 39 41  0  0  0  0  0  0  0  0999 V2000
   36.6740   32.2250   49.2550 O   0  0  0  0  0  0  0  0  0  0  0  0
   38.1870   32.2070   47.3000 C   0  0  0  0  0  0  0  0  0  0  0  0
   37.7960   32.6390   48.5510 C   0  0  0  0  0  0  0  0  0  0  0  0
   38.5570   33.5800   49.2240 C   0  0  0  0  0  0  0  0  0  0  0  0
   39.7100   34.0820   48.6360 C   0  0  0  0  0  0  0  0  0  0  0  0
   40.0880   33.6440   47.3900 C   0  0  0  0  0  0  0  0  0  0  0  0
   39.3170   32.7090   46.7400 C   0  0  0  0  0  0  0  0  0  0  0  0
   38.3110   33.9620   50.2040 H   0  0  0  0  0  0  0  0  0  0  0  0
   40.3030   34.8200   49.1700 H   0  0  0  0  0  0  0  0  0  0  0  0
   40.9780   34.0210   46.9150 H   0  0  0  0  0  0  0  0  0  0  0  0
   39.7350   32.2470   45.4000 C   0  0  0  0  0  0  0  0  0  0  0  0
   40.5740   31.2100   45.0600 C   0  0  0  0  0  0  0  0  0  0  0  0
   40.6400   31.1900   43.6640 C   0  0  0  0  0  0  0  0  0  0  0  0
   39.8370   32.2160   43.2500 C   0  0  0  0  0  0  0  0  0  0  0  0
   39.3110   32.8310   44.2930 O   0  0  0  0  0  0  0  0  0  0  0  0
   41.0110   30.6240   45.8490 H   0  0  0  0  0  0  0  0  0  0  0  0
   41.2660   30.4250   43.2260 H   0  0  0  0  0  0  0  0  0  0  0  0
   39.7280   32.4020   42.1930 H   0  0  0  0  0  0  0  0  0  0  0  0
   36.6740   30.4600   46.1450 N   0  0  0  0  0  0  0  0  0  0  0  0
   37.3530   31.2350   46.6630 C   0  0  0  0  0  0  0  0  0  0  0  0
   36.6540   31.1830   50.1190 C   0  0  0  0  0  0  0  0  0  0  0  0
   35.5600   30.3410   49.9010 C   0  0  0  0  0  0  0  0  0  0  0  0
   35.3650   29.2160   50.6880 C   0  0  0  0  0  0  0  0  0  0  0  0
   36.2790   28.9740   51.6670 N   0  0  0  0  0  0  0  0  0  0  0  0
   37.3400   29.8070   51.8630 C   0  0  0  0  0  0  0  0  0  0  0  0
   37.5070   30.8720   51.1060 N   0  0  0  0  0  0  0  0  0  0  0  0
   34.5530   28.5290   50.5790 H   0  0  0  0  0  0  0  0  0  0  0  0
   38.0720   29.6100   52.6520 H   0  0  0  0  0  0  0  0  0  0  0  0
   34.2150   29.4200   48.0860 C   0  0  0  0  0  0  0  0  0  0  0  0
   34.6950   28.2360   47.9150 O   0  0  0  0  0  0  0  0  0  0  0  0
   34.5760   30.5150   48.9190 N   0  0  0  0  0  0  0  0  0  0  0  0
   34.0840   31.3840   48.7490 H   0  0  0  0  0  0  0  0  0  0  0  0
   33.1290   29.5170   47.2210 O   0  0  0  0  0  0  0  0  0  0  0  0
   31.9510   27.6200   45.7320 O   0  0  0  0  0  0  0  0  0  0  0  0
   31.9330   28.2920   47.1000 P   0  0  0  0  0  0  0  0  0  0  0  0
   32.0490   27.1210   48.2810 O   0  0  0  0  0  0  0  0  0  0  0  0
   32.4610   26.3300   47.9000 H   0  0  0  0  0  0  0  0  0  0  0  0
   30.4260   29.0940   47.1820 O   0  0  0  0  0  0  0  0  0  0  0  0
   30.4420   29.7600   46.4250 H   0  0  0  0  0  0  0  0  0  0  0  0
  1 21  1  0  0  0  0
  2  3  1  0  0  0  0
  3  4  2  0  0  0  0
  3  1  1  0  0  0  0
  4  8  1  0  0  0  0
  5  9  1  0  0  0  0
  5  4  1  0  0  0  0
  6  5  2  0  0  0  0
  7  2  2  0  0  0  0
  7  6  1  0  0  0  0
 10  6  1  0  0  0  0
 11  7  1  0  0  0  0
 12 11  2  0  0  0  0
 12 16  1  0  0  0  0
 13 12  1  0  0  0  0
 14 13  2  0  0  0  0
 14 15  1  0  0  0  0
 15 11  1  0  0  0  0
 17 13  1  0  0  0  0
 18 14  1  0  0  0  0
 19 20  3  0  0  0  0
 20  2  1  0  0  0  0
 21 26  1  0  0  0  0
 22 21  2  0  0  0  0
 22 23  1  0  0  0  0
 23 24  2  0  0  0  0
 24 25  1  0  0  0  0
 25 28  1  0  0  0  0
 26 25  2  0  0  0  0
 27 23  1  0  0  0  0
 29 31  1  0  0  0  0
 30 29  2  0  0  0  0
 31 22  1  0  0  0  0
 32 31  1  0  0  0  0
 33 29  1  0  0  0  0
 34 35  2  0  0  0  0
 35 38  1  0  0  0  0
 35 33  1  0  0  0  0
 35 36  1  0  0  0  0
 37 36  1  0  0  0  0
 39 38  1  0  0  0  0
M  END
>  <minimizedAffinity>
-5.88392258

>  <minimizedRMSD>
0.499044925

$$$$
