
 OpenBabel03272507423D

 39 41  0  0  0  0  0  0  0  0999 V2000
   36.6750   32.2330   49.2620 O   0  0  0  0  0  0  0  0  0  0  0  0
   38.1920   32.2240   47.3110 C   0  0  0  0  0  0  0  0  0  0  0  0
   37.7990   32.6490   48.5640 C   0  0  0  0  0  0  0  0  0  0  0  0
   38.5610   33.5840   49.2450 C   0  0  0  0  0  0  0  0  0  0  0  0
   39.7160   34.0870   48.6620 C   0  0  0  0  0  0  0  0  0  0  0  0
   40.0960   33.6560   47.4150 C   0  0  0  0  0  0  0  0  0  0  0  0
   39.3250   32.7280   46.7570 C   0  0  0  0  0  0  0  0  0  0  0  0
   38.3140   33.9600   50.2270 H   0  0  0  0  0  0  0  0  0  0  0  0
   40.3100   34.8210   49.2020 H   0  0  0  0  0  0  0  0  0  0  0  0
   40.9880   34.0350   46.9440 H   0  0  0  0  0  0  0  0  0  0  0  0
   39.7440   32.2730   45.4150 C   0  0  0  0  0  0  0  0  0  0  0  0
   40.5800   31.2350   45.0700 C   0  0  0  0  0  0  0  0  0  0  0  0
   40.6500   31.2240   43.6740 C   0  0  0  0  0  0  0  0  0  0  0  0
   39.8530   32.2570   43.2650 C   0  0  0  0  0  0  0  0  0  0  0  0
   39.3250   32.8670   44.3100 O   0  0  0  0  0  0  0  0  0  0  0  0
   41.0130   30.6410   45.8560 H   0  0  0  0  0  0  0  0  0  0  0  0
   41.2750   30.4600   43.2320 H   0  0  0  0  0  0  0  0  0  0  0  0
   39.7480   32.4510   42.2090 H   0  0  0  0  0  0  0  0  0  0  0  0
   36.6780   30.4870   46.1420 N   0  0  0  0  0  0  0  0  0  0  0  0
   37.3570   31.2580   46.6660 C   0  0  0  0  0  0  0  0  0  0  0  0
   36.6470   31.1750   50.1070 C   0  0  0  0  0  0  0  0  0  0  0  0
   35.5490   30.3430   49.8700 C   0  0  0  0  0  0  0  0  0  0  0  0
   35.3460   29.2050   50.6350 C   0  0  0  0  0  0  0  0  0  0  0  0
   36.2560   28.9400   51.6130 N   0  0  0  0  0  0  0  0  0  0  0  0
   37.3190   29.7630   51.8270 C   0  0  0  0  0  0  0  0  0  0  0  0
   37.4950   30.8410   51.0910 N   0  0  0  0  0  0  0  0  0  0  0  0
   34.5310   28.5240   50.5110 H   0  0  0  0  0  0  0  0  0  0  0  0
   38.0480   29.5480   52.6150 H   0  0  0  0  0  0  0  0  0  0  0  0
   34.2000   29.4600   48.0390 C   0  0  0  0  0  0  0  0  0  0  0  0
   34.6680   28.2730   47.8530 O   0  0  0  0  0  0  0  0  0  0  0  0
   34.5690   30.5400   48.8880 N   0  0  0  0  0  0  0  0  0  0  0  0
   34.0870   31.4160   48.7290 H   0  0  0  0  0  0  0  0  0  0  0  0
   33.1170   29.5800   47.1730 O   0  0  0  0  0  0  0  0  0  0  0  0
   31.9430   27.7010   45.6610 O   0  0  0  0  0  0  0  0  0  0  0  0
   31.9100   28.3680   47.0310 P   0  0  0  0  0  0  0  0  0  0  0  0
   31.9970   27.1920   48.2100 O   0  0  0  0  0  0  0  0  0  0  0  0
   32.4060   26.3980   47.8320 H   0  0  0  0  0  0  0  0  0  0  0  0
   30.4110   29.1850   47.0920 O   0  0  0  0  0  0  0  0  0  0  0  0
   30.4450   29.8530   46.3380 H   0  0  0  0  0  0  0  0  0  0  0  0
  1 21  1  0  0  0  0
  2  3  1  0  0  0  0
  3  4  2  0  0  0  0
  3  1  1  0  0  0  0
  4  8  1  0  0  0  0
  5  9  1  0  0  0  0
  5  4  1  0  0  0  0
  6  5  2  0  0  0  0
  7  2  2  0  0  0  0
  7  6  1  0  0  0  0
 10  6  1  0  0  0  0
 11  7  1  0  0  0  0
 12 11  2  0  0  0  0
 12 16  1  0  0  0  0
 13 12  1  0  0  0  0
 14 13  2  0  0  0  0
 14 15  1  0  0  0  0
 15 11  1  0  0  0  0
 17 13  1  0  0  0  0
 18 14  1  0  0  0  0
 19 20  3  0  0  0  0
 20  2  1  0  0  0  0
 21 26  1  0  0  0  0
 22 21  2  0  0  0  0
 22 23  1  0  0  0  0
 23 24  2  0  0  0  0
 24 25  1  0  0  0  0
 25 28  1  0  0  0  0
 26 25  2  0  0  0  0
 27 23  1  0  0  0  0
 29 31  1  0  0  0  0
 30 29  2  0  0  0  0
 31 22  1  0  0  0  0
 32 31  1  0  0  0  0
 33 29  1  0  0  0  0
 34 35  2  0  0  0  0
 35 38  1  0  0  0  0
 35 33  1  0  0  0  0
 35 36  1  0  0  0  0
 37 36  1  0  0  0  0
 39 38  1  0  0  0  0
M  END
>  <minimizedAffinity>
-5.8983655

>  <minimizedRMSD>
0.334700823

$$$$
