
 OpenBabel03262522003D

 18 18  0  0  0  0  0  0  0  0999 V2000
   37.8120   30.9180   49.3460 C   0  0  0  0  0  0  0  0  0  0  0  0
   38.1390   32.2350   49.7100 C   0  0  0  0  0  0  0  0  0  0  0  0
   38.7230   33.0540   48.7420 C   0  0  0  0  0  0  0  0  0  0  0  0
   38.9470   32.5380   47.4910 N   0  0  0  0  0  0  0  0  0  0  0  0
   38.6200   31.2720   47.1800 C   0  0  0  0  0  0  0  0  0  0  0  0
   38.0600   30.4820   48.1050 N   0  0  0  0  0  0  0  0  0  0  0  0
   37.9640   32.6350   50.6850 H   0  0  0  0  0  0  0  0  0  0  0  0
   38.9970   34.0600   48.9440 H   0  0  0  0  0  0  0  0  0  0  0  0
   38.7900   30.8500   46.1970 H   0  0  0  0  0  0  0  0  0  0  0  0
   37.2010   30.0410   50.3330 C   0  0  0  0  0  0  0  0  0  0  0  0
   37.3850   30.2070   51.5620 O   0  0  0  0  0  0  0  0  0  0  0  0
   36.4030   29.0010   49.8960 O   0  0  0  0  0  0  0  0  0  0  0  0
   34.1190   27.9570   49.2540 O   0  0  0  0  0  0  0  0  0  0  0  0
   34.8890   29.2720   49.1460 P   0  0  0  0  0  0  0  0  0  0  0  0
   34.0340   30.5410   49.8520 O   0  0  0  0  0  0  0  0  0  0  0  0
   33.2130   30.1800   50.3090 H   0  0  0  0  0  0  0  0  0  0  0  0
   35.1350   29.5610   47.4810 O   0  0  0  0  0  0  0  0  0  0  0  0
   36.0040   29.1550   47.2440 H   0  0  0  0  0  0  0  0  0  0  0  0
  1  2  1  0  0  0  0
  1 10  1  0  0  0  0
  2  7  1  0  0  0  0
  3  8  1  0  0  0  0
  3  2  2  0  0  0  0
  4  3  1  0  0  0  0
  5  4  2  0  0  0  0
  5  6  1  0  0  0  0
  6  1  2  0  0  0  0
  9  5  1  0  0  0  0
 10 11  2  0  0  0  0
 12 10  1  0  0  0  0
 14 13  2  0  0  0  0
 14 15  1  0  0  0  0
 14 12  1  0  0  0  0
 15 16  1  0  0  0  0
 17 14  1  0  0  0  0
 18 17  1  0  0  0  0
M  END
>  <minimizedAffinity>
-4.50692987

>  <minimizedRMSD>
1.41221905

$$$$
