
 OpenBabel03272507423D

 39 41  0  0  0  0  0  0  0  0999 V2000
   36.6740   32.2320   49.2650 O   0  0  0  0  0  0  0  0  0  0  0  0
   38.1920   32.2250   47.3140 C   0  0  0  0  0  0  0  0  0  0  0  0
   37.7980   32.6490   48.5660 C   0  0  0  0  0  0  0  0  0  0  0  0
   38.5590   33.5840   49.2470 C   0  0  0  0  0  0  0  0  0  0  0  0
   39.7140   34.0880   48.6650 C   0  0  0  0  0  0  0  0  0  0  0  0
   40.0940   33.6580   47.4180 C   0  0  0  0  0  0  0  0  0  0  0  0
   39.3240   32.7290   46.7600 C   0  0  0  0  0  0  0  0  0  0  0  0
   38.3120   33.9610   50.2300 H   0  0  0  0  0  0  0  0  0  0  0  0
   40.3070   34.8230   49.2060 H   0  0  0  0  0  0  0  0  0  0  0  0
   40.9860   34.0370   46.9470 H   0  0  0  0  0  0  0  0  0  0  0  0
   39.7440   32.2740   45.4180 C   0  0  0  0  0  0  0  0  0  0  0  0
   40.5760   31.2330   45.0730 C   0  0  0  0  0  0  0  0  0  0  0  0
   40.6490   31.2240   43.6770 C   0  0  0  0  0  0  0  0  0  0  0  0
   39.8560   32.2610   43.2680 C   0  0  0  0  0  0  0  0  0  0  0  0
   39.3300   32.8710   44.3130 O   0  0  0  0  0  0  0  0  0  0  0  0
   41.0050   30.6360   45.8590 H   0  0  0  0  0  0  0  0  0  0  0  0
   41.2710   30.4580   43.2350 H   0  0  0  0  0  0  0  0  0  0  0  0
   39.7540   32.4570   42.2120 H   0  0  0  0  0  0  0  0  0  0  0  0
   36.6790   30.4860   46.1450 N   0  0  0  0  0  0  0  0  0  0  0  0
   37.3580   31.2570   46.6690 C   0  0  0  0  0  0  0  0  0  0  0  0
   36.6460   31.1730   50.1080 C   0  0  0  0  0  0  0  0  0  0  0  0
   35.5490   30.3410   49.8690 C   0  0  0  0  0  0  0  0  0  0  0  0
   35.3460   29.2010   50.6320 C   0  0  0  0  0  0  0  0  0  0  0  0
   36.2550   28.9350   51.6100 N   0  0  0  0  0  0  0  0  0  0  0  0
   37.3180   29.7580   51.8270 C   0  0  0  0  0  0  0  0  0  0  0  0
   37.4940   30.8380   51.0910 N   0  0  0  0  0  0  0  0  0  0  0  0
   34.5310   28.5200   50.5070 H   0  0  0  0  0  0  0  0  0  0  0  0
   38.0470   29.5430   52.6140 H   0  0  0  0  0  0  0  0  0  0  0  0
   34.1990   29.4590   48.0380 C   0  0  0  0  0  0  0  0  0  0  0  0
   34.6650   28.2720   47.8530 O   0  0  0  0  0  0  0  0  0  0  0  0
   34.5690   30.5390   48.8870 N   0  0  0  0  0  0  0  0  0  0  0  0
   34.0880   31.4160   48.7280 H   0  0  0  0  0  0  0  0  0  0  0  0
   33.1160   29.5810   47.1720 O   0  0  0  0  0  0  0  0  0  0  0  0
   31.9390   27.7030   45.6590 O   0  0  0  0  0  0  0  0  0  0  0  0
   31.9080   28.3700   47.0300 P   0  0  0  0  0  0  0  0  0  0  0  0
   31.9920   27.1940   48.2090 O   0  0  0  0  0  0  0  0  0  0  0  0
   32.4000   26.4000   47.8300 H   0  0  0  0  0  0  0  0  0  0  0  0
   30.4090   29.1890   47.0910 O   0  0  0  0  0  0  0  0  0  0  0  0
   30.4440   29.8580   46.3370 H   0  0  0  0  0  0  0  0  0  0  0  0
  1 21  1  0  0  0  0
  2  3  1  0  0  0  0
  3  4  2  0  0  0  0
  3  1  1  0  0  0  0
  4  8  1  0  0  0  0
  5  9  1  0  0  0  0
  5  4  1  0  0  0  0
  6  5  2  0  0  0  0
  7  2  2  0  0  0  0
  7  6  1  0  0  0  0
 10  6  1  0  0  0  0
 11  7  1  0  0  0  0
 12 11  2  0  0  0  0
 12 16  1  0  0  0  0
 13 12  1  0  0  0  0
 14 13  2  0  0  0  0
 14 15  1  0  0  0  0
 15 11  1  0  0  0  0
 17 13  1  0  0  0  0
 18 14  1  0  0  0  0
 19 20  3  0  0  0  0
 20  2  1  0  0  0  0
 21 26  1  0  0  0  0
 22 21  2  0  0  0  0
 22 23  1  0  0  0  0
 23 24  2  0  0  0  0
 24 25  1  0  0  0  0
 25 28  1  0  0  0  0
 26 25  2  0  0  0  0
 27 23  1  0  0  0  0
 29 31  1  0  0  0  0
 30 29  2  0  0  0  0
 31 22  1  0  0  0  0
 32 31  1  0  0  0  0
 33 29  1  0  0  0  0
 34 35  2  0  0  0  0
 35 38  1  0  0  0  0
 35 33  1  0  0  0  0
 35 36  1  0  0  0  0
 37 36  1  0  0  0  0
 39 38  1  0  0  0  0
M  END
>  <minimizedAffinity>
-5.89636469

>  <minimizedRMSD>
0.382074684

$$$$
