
 OpenBabel03272508433D

 18 18  0  0  0  0  0  0  0  0999 V2000
   35.6650   20.7270   35.1290 C   0  0  0  0  0  0  0  0  0  0  0  0
   35.6370   20.4930   33.7450 C   0  0  0  0  0  0  0  0  0  0  0  0
   36.6670   21.0410   32.9580 C   0  0  0  0  0  0  0  0  0  0  0  0
   37.6290   21.7650   33.5850 N   0  0  0  0  0  0  0  0  0  0  0  0
   37.6140   21.9610   34.9090 C   0  0  0  0  0  0  0  0  0  0  0  0
   36.6570   21.4580   35.6810 N   0  0  0  0  0  0  0  0  0  0  0  0
   34.8710   20.3020   35.7270 H   0  0  0  0  0  0  0  0  0  0  0  0
   34.8670   19.9150   33.2480 H   0  0  0  0  0  0  0  0  0  0  0  0
   36.7290   20.9150   31.8850 H   0  0  0  0  0  0  0  0  0  0  0  0
   38.6530   22.7430   35.5910 C   0  0  0  0  0  0  0  0  0  0  0  0
   39.8900   22.6010   35.3820 O   0  0  0  0  0  0  0  0  0  0  0  0
   38.1270   23.6470   36.4830 O   0  0  0  0  0  0  0  0  0  0  0  0
   38.0950   24.6770   38.8600 O   0  0  0  0  0  0  0  0  0  0  0  0
   38.2200   23.3410   38.1710 P   0  0  0  0  0  0  0  0  0  0  0  0
   36.9880   22.3440   38.7030 O   0  0  0  0  0  0  0  0  0  0  0  0
   37.0830   21.4040   38.4160 H   0  0  0  0  0  0  0  0  0  0  0  0
   39.7550   22.7060   38.4790 O   0  0  0  0  0  0  0  0  0  0  0  0
   40.1270   22.2240   37.6880 H   0  0  0  0  0  0  0  0  0  0  0  0
  1  6  1  0  0  0  0
  1  7  1  0  0  0  0
  2  1  2  0  0  0  0
  3  4  2  0  0  0  0
  3  2  1  0  0  0  0
  4  5  1  0  0  0  0
  5 10  1  0  0  0  0
  5  6  2  0  0  0  0
  8  2  1  0  0  0  0
  9  3  1  0  0  0  0
 10 12  1  0  0  0  0
 11 10  2  0  0  0  0
 12 14  1  0  0  0  0
 14 17  1  0  0  0  0
 14 15  1  0  0  0  0
 14 13  2  0  0  0  0
 16 15  1  0  0  0  0
 18 17  1  0  0  0  0
M  END
>  <minimizedAffinity>
-4.21875334

$$$$

 OpenBabel03272508433D

 18 18  0  0  0  0  0  0  0  0999 V2000
   37.4190   27.5130   35.0820 C   0  0  0  0  0  0  0  0  0  0  0  0
   36.9970   27.4400   33.7450 C   0  0  0  0  0  0  0  0  0  0  0  0
   37.1480   26.2160   33.0670 C   0  0  0  0  0  0  0  0  0  0  0  0
   37.6950   25.1760   33.7470 N   0  0  0  0  0  0  0  0  0  0  0  0
   38.0840   25.2940   35.0230 C   0  0  0  0  0  0  0  0  0  0  0  0
   37.9550   26.4340   35.6920 N   0  0  0  0  0  0  0  0  0  0  0  0
   37.2990   28.4570   35.5960 H   0  0  0  0  0  0  0  0  0  0  0  0
   36.5600   28.2730   33.2060 H   0  0  0  0  0  0  0  0  0  0  0  0
   36.8530   26.0640   32.0370 H   0  0  0  0  0  0  0  0  0  0  0  0
   38.6750   24.1720   35.7620 C   0  0  0  0  0  0  0  0  0  0  0  0
   39.8880   23.8340   35.6740 O   0  0  0  0  0  0  0  0  0  0  0  0
   37.7600   23.5320   36.5620 O   0  0  0  0  0  0  0  0  0  0  0  0
   38.0480   24.6400   38.8860 O   0  0  0  0  0  0  0  0  0  0  0  0
   38.1000   23.2840   38.2280 P   0  0  0  0  0  0  0  0  0  0  0  0
   36.9750   22.2880   38.9620 O   0  0  0  0  0  0  0  0  0  0  0  0
   37.0460   21.3400   38.6930 H   0  0  0  0  0  0  0  0  0  0  0  0
   39.6750   22.6820   38.3310 O   0  0  0  0  0  0  0  0  0  0  0  0
   39.9390   22.1800   37.5110 H   0  0  0  0  0  0  0  0  0  0  0  0
  1  7  1  0  0  0  0
  1  6  1  0  0  0  0
  2  1  2  0  0  0  0
  3  2  1  0  0  0  0
  3  4  2  0  0  0  0
  4  5  1  0  0  0  0
  5  6  2  0  0  0  0
  5 10  1  0  0  0  0
  8  2  1  0  0  0  0
  9  3  1  0  0  0  0
 10 12  1  0  0  0  0
 11 10  2  0  0  0  0
 12 14  1  0  0  0  0
 14 17  1  0  0  0  0
 14 13  2  0  0  0  0
 14 15  1  0  0  0  0
 16 15  1  0  0  0  0
 18 17  1  0  0  0  0
M  END
>  <minimizedAffinity>
-4.14494801

$$$$

 OpenBabel03272508433D

 18 18  0  0  0  0  0  0  0  0999 V2000
   36.5980   23.9050   31.9410 C   0  0  0  0  0  0  0  0  0  0  0  0
   35.6040   24.2300   31.0040 C   0  0  0  0  0  0  0  0  0  0  0  0
   35.1980   25.5750   30.9060 C   0  0  0  0  0  0  0  0  0  0  0  0
   35.7930   26.4800   31.7250 N   0  0  0  0  0  0  0  0  0  0  0  0
   36.7370   26.1220   32.6040 C   0  0  0  0  0  0  0  0  0  0  0  0
   37.1430   24.8630   32.7220 N   0  0  0  0  0  0  0  0  0  0  0  0
   36.9040   22.8710   32.0100 H   0  0  0  0  0  0  0  0  0  0  0  0
   35.1310   23.5050   30.3520 H   0  0  0  0  0  0  0  0  0  0  0  0
   34.4400   25.9200   30.2150 H   0  0  0  0  0  0  0  0  0  0  0  0
   37.3830   27.0970   33.4910 C   0  0  0  0  0  0  0  0  0  0  0  0
   36.7560   27.9790   34.1400 O   0  0  0  0  0  0  0  0  0  0  0  0
   38.7470   26.9410   33.5350 O   0  0  0  0  0  0  0  0  0  0  0  0
   39.2060   25.2390   35.4340 O   0  0  0  0  0  0  0  0  0  0  0  0
   39.5310   26.6580   35.0380 P   0  0  0  0  0  0  0  0  0  0  0  0
   41.1920   26.8160   34.9250 O   0  0  0  0  0  0  0  0  0  0  0  0
   41.4970   27.7490   34.8160 H   0  0  0  0  0  0  0  0  0  0  0  0
   38.8470   27.7150   36.1640 O   0  0  0  0  0  0  0  0  0  0  0  0
   38.4990   28.5450   35.7350 H   0  0  0  0  0  0  0  0  0  0  0  0
  1  7  1  0  0  0  0
  1  6  1  0  0  0  0
  2  1  2  0  0  0  0
  3  2  1  0  0  0  0
  3  4  2  0  0  0  0
  4  5  1  0  0  0  0
  5  6  2  0  0  0  0
  5 10  1  0  0  0  0
  8  2  1  0  0  0  0
  9  3  1  0  0  0  0
 10 12  1  0  0  0  0
 10 11  2  0  0  0  0
 12 14  1  0  0  0  0
 14 13  2  0  0  0  0
 14 17  1  0  0  0  0
 15 14  1  0  0  0  0
 16 15  1  0  0  0  0
 18 17  1  0  0  0  0
M  END
>  <minimizedAffinity>
-3.9307301

$$$$

 OpenBabel03272508433D

 18 18  0  0  0  0  0  0  0  0999 V2000
   38.1910   26.0730   36.3080 C   0  0  0  0  0  0  0  0  0  0  0  0
   38.8550   26.6920   35.2370 C   0  0  0  0  0  0  0  0  0  0  0  0
   39.4700   25.8710   34.2740 C   0  0  0  0  0  0  0  0  0  0  0  0
   39.3850   24.5260   34.4370 N   0  0  0  0  0  0  0  0  0  0  0  0
   38.7400   23.9810   35.4760 C   0  0  0  0  0  0  0  0  0  0  0  0
   38.1490   24.7270   36.4030 N   0  0  0  0  0  0  0  0  0  0  0  0
   37.7210   26.7110   37.0440 H   0  0  0  0  0  0  0  0  0  0  0  0
   38.9200   27.7670   35.1100 H   0  0  0  0  0  0  0  0  0  0  0  0
   40.0030   26.2570   33.4150 H   0  0  0  0  0  0  0  0  0  0  0  0
   38.6460   22.5280   35.6570 C   0  0  0  0  0  0  0  0  0  0  0  0
   37.5550   21.8930   35.6850 O   0  0  0  0  0  0  0  0  0  0  0  0
   39.8780   21.9350   35.7920 O   0  0  0  0  0  0  0  0  0  0  0  0
   41.8900   23.2180   36.8030 O   0  0  0  0  0  0  0  0  0  0  0  0
   40.8220   22.2290   37.1980 P   0  0  0  0  0  0  0  0  0  0  0  0
   39.9180   22.8840   38.4420 O   0  0  0  0  0  0  0  0  0  0  0  0
   39.2930   22.2430   38.8610 H   0  0  0  0  0  0  0  0  0  0  0  0
   41.5550   20.7670   37.6200 O   0  0  0  0  0  0  0  0  0  0  0  0
   41.0200   19.9790   37.3250 H   0  0  0  0  0  0  0  0  0  0  0  0
  1  6  1  0  0  0  0
  1  7  1  0  0  0  0
  2  1  2  0  0  0  0
  3  4  2  0  0  0  0
  3  2  1  0  0  0  0
  4  5  1  0  0  0  0
  5 10  1  0  0  0  0
  5  6  2  0  0  0  0
  8  2  1  0  0  0  0
  9  3  1  0  0  0  0
 10 11  2  0  0  0  0
 10 12  1  0  0  0  0
 12 14  1  0  0  0  0
 13 14  2  0  0  0  0
 14 17  1  0  0  0  0
 14 15  1  0  0  0  0
 15 16  1  0  0  0  0
 18 17  1  0  0  0  0
M  END
>  <minimizedAffinity>
-3.85881734

$$$$

 OpenBabel03272508433D

 18 18  0  0  0  0  0  0  0  0999 V2000
   39.8130   22.8580   37.7180 C   0  0  0  0  0  0  0  0  0  0  0  0
   38.9400   23.2720   38.7360 C   0  0  0  0  0  0  0  0  0  0  0  0
   37.7930   24.0020   38.3710 C   0  0  0  0  0  0  0  0  0  0  0  0
   37.5990   24.2640   37.0540 N   0  0  0  0  0  0  0  0  0  0  0  0
   38.4610   23.8490   36.1180 C   0  0  0  0  0  0  0  0  0  0  0  0
   39.5520   23.1580   36.4270 N   0  0  0  0  0  0  0  0  0  0  0  0
   40.6910   22.2980   38.0060 H   0  0  0  0  0  0  0  0  0  0  0  0
   39.0980   23.0610   39.7870 H   0  0  0  0  0  0  0  0  0  0  0  0
   37.0630   24.3630   39.0850 H   0  0  0  0  0  0  0  0  0  0  0  0
   38.2550   24.1290   34.6910 C   0  0  0  0  0  0  0  0  0  0  0  0
   38.2410   23.2410   33.7950 O   0  0  0  0  0  0  0  0  0  0  0  0
   38.0790   25.4690   34.4420 O   0  0  0  0  0  0  0  0  0  0  0  0
   39.5040   27.4320   33.5300 O   0  0  0  0  0  0  0  0  0  0  0  0
   39.3530   26.5770   34.7640 P   0  0  0  0  0  0  0  0  0  0  0  0
   39.0140   27.5690   36.0660 O   0  0  0  0  0  0  0  0  0  0  0  0
   39.0470   27.1080   36.9390 H   0  0  0  0  0  0  0  0  0  0  0  0
   40.7610   25.6690   34.9810 O   0  0  0  0  0  0  0  0  0  0  0  0
   40.5670   24.7520   35.3220 H   0  0  0  0  0  0  0  0  0  0  0  0
  1  7  1  0  0  0  0
  1  2  1  0  0  0  0
  2  8  1  0  0  0  0
  3  2  2  0  0  0  0
  3  9  1  0  0  0  0
  4  3  1  0  0  0  0
  5  6  1  0  0  0  0
  5  4  2  0  0  0  0
  6  1  2  0  0  0  0
 10  5  1  0  0  0  0
 11 10  2  0  0  0  0
 12 10  1  0  0  0  0
 12 14  1  0  0  0  0
 13 14  2  0  0  0  0
 14 17  1  0  0  0  0
 14 15  1  0  0  0  0
 15 16  1  0  0  0  0
 17 18  1  0  0  0  0
M  END
>  <minimizedAffinity>
-3.84428501

$$$$

 OpenBabel03272508433D

 18 18  0  0  0  0  0  0  0  0999 V2000
   40.9410   21.7880   37.5220 C   0  0  0  0  0  0  0  0  0  0  0  0
   42.1060   21.8370   36.7410 C   0  0  0  0  0  0  0  0  0  0  0  0
   42.1730   22.7910   35.7080 C   0  0  0  0  0  0  0  0  0  0  0  0
   41.1050   23.6080   35.5270 N   0  0  0  0  0  0  0  0  0  0  0  0
   40.0130   23.5230   36.2980 C   0  0  0  0  0  0  0  0  0  0  0  0
   39.9170   22.6350   37.2810 N   0  0  0  0  0  0  0  0  0  0  0  0
   40.8970   21.0530   38.3140 H   0  0  0  0  0  0  0  0  0  0  0  0
   42.9580   21.1830   36.8890 H   0  0  0  0  0  0  0  0  0  0  0  0
   43.0290   22.9030   35.0550 H   0  0  0  0  0  0  0  0  0  0  0  0
   38.8550   24.4050   36.1060 C   0  0  0  0  0  0  0  0  0  0  0  0
   37.9070   24.5100   36.9330 O   0  0  0  0  0  0  0  0  0  0  0  0
   38.9190   25.1030   34.9240 O   0  0  0  0  0  0  0  0  0  0  0  0
   38.9130   27.3530   33.6390 O   0  0  0  0  0  0  0  0  0  0  0  0
   39.4190   26.7480   34.9250 P   0  0  0  0  0  0  0  0  0  0  0  0
   38.7780   27.6030   36.2100 O   0  0  0  0  0  0  0  0  0  0  0  0
   39.1740   27.3680   37.0830 H   0  0  0  0  0  0  0  0  0  0  0  0
   41.1080   26.7560   34.9100 O   0  0  0  0  0  0  0  0  0  0  0  0
   41.4910   25.9380   35.3350 H   0  0  0  0  0  0  0  0  0  0  0  0
  1  7  1  0  0  0  0
  2  8  1  0  0  0  0
  2  1  2  0  0  0  0
  3  2  1  0  0  0  0
  4  3  2  0  0  0  0
  4  5  1  0  0  0  0
  5  6  2  0  0  0  0
  6  1  1  0  0  0  0
  9  3  1  0  0  0  0
 10  5  1  0  0  0  0
 10 11  2  0  0  0  0
 12 14  1  0  0  0  0
 12 10  1  0  0  0  0
 13 14  2  0  0  0  0
 14 15  1  0  0  0  0
 15 16  1  0  0  0  0
 17 14  1  0  0  0  0
 17 18  1  0  0  0  0
M  END
>  <minimizedAffinity>
-3.81097746

$$$$

 OpenBabel03272508433D

 18 18  0  0  0  0  0  0  0  0999 V2000
   37.0020   27.5440   34.4000 C   0  0  0  0  0  0  0  0  0  0  0  0
   37.0320   27.0990   33.0690 C   0  0  0  0  0  0  0  0  0  0  0  0
   37.4920   25.7930   32.8170 C   0  0  0  0  0  0  0  0  0  0  0  0
   37.8810   25.0390   33.8770 N   0  0  0  0  0  0  0  0  0  0  0  0
   37.8340   25.5090   35.1300 C   0  0  0  0  0  0  0  0  0  0  0  0
   37.4050   26.7350   35.4040 N   0  0  0  0  0  0  0  0  0  0  0  0
   36.6460   28.5480   34.5870 H   0  0  0  0  0  0  0  0  0  0  0  0
   36.7200   27.7030   32.2260 H   0  0  0  0  0  0  0  0  0  0  0  0
   37.5510   25.3630   31.8250 H   0  0  0  0  0  0  0  0  0  0  0  0
   38.2530   24.6970   36.2800 C   0  0  0  0  0  0  0  0  0  0  0  0
   37.5650   24.5580   37.3290 O   0  0  0  0  0  0  0  0  0  0  0  0
   39.4790   24.1070   36.0850 O   0  0  0  0  0  0  0  0  0  0  0  0
   40.7340   21.9190   35.4920 O   0  0  0  0  0  0  0  0  0  0  0  0
   39.7000   22.4440   36.4570 P   0  0  0  0  0  0  0  0  0  0  0  0
   40.2540   22.2120   38.0170 O   0  0  0  0  0  0  0  0  0  0  0  0
   39.5760   22.3910   38.7120 H   0  0  0  0  0  0  0  0  0  0  0  0
   38.2290   21.6680   36.1620 O   0  0  0  0  0  0  0  0  0  0  0  0
   37.4510   22.2820   36.2740 H   0  0  0  0  0  0  0  0  0  0  0  0
  1  7  1  0  0  0  0
  1  6  1  0  0  0  0
  2  1  2  0  0  0  0
  3  2  1  0  0  0  0
  3  4  2  0  0  0  0
  4  5  1  0  0  0  0
  5  6  2  0  0  0  0
  5 10  1  0  0  0  0
  8  2  1  0  0  0  0
  9  3  1  0  0  0  0
 10 11  2  0  0  0  0
 12 10  1  0  0  0  0
 12 14  1  0  0  0  0
 13 14  2  0  0  0  0
 14 15  1  0  0  0  0
 15 16  1  0  0  0  0
 17 18  1  0  0  0  0
 17 14  1  0  0  0  0
M  END
>  <minimizedAffinity>
-3.76461029

$$$$

 OpenBabel03272508433D

 18 18  0  0  0  0  0  0  0  0999 V2000
   36.2310   22.5290   31.7530 C   0  0  0  0  0  0  0  0  0  0  0  0
   35.2370   21.5440   31.8600 C   0  0  0  0  0  0  0  0  0  0  0  0
   35.2670   20.6880   32.9770 C   0  0  0  0  0  0  0  0  0  0  0  0
   36.2590   20.8660   33.8870 N   0  0  0  0  0  0  0  0  0  0  0  0
   37.1870   21.8200   33.7420 C   0  0  0  0  0  0  0  0  0  0  0  0
   37.1870   22.6440   32.7010 N   0  0  0  0  0  0  0  0  0  0  0  0
   36.2010   23.1830   30.8930 H   0  0  0  0  0  0  0  0  0  0  0  0
   34.4470   21.4060   31.1310 H   0  0  0  0  0  0  0  0  0  0  0  0
   34.5440   19.9010   33.1450 H   0  0  0  0  0  0  0  0  0  0  0  0
   38.2600   22.0160   34.7240 C   0  0  0  0  0  0  0  0  0  0  0  0
   39.4890   21.9760   34.4380 O   0  0  0  0  0  0  0  0  0  0  0  0
   37.7770   22.2480   35.9890 O   0  0  0  0  0  0  0  0  0  0  0  0
   37.5810   24.0680   37.8230 O   0  0  0  0  0  0  0  0  0  0  0  0
   38.6250   23.2980   37.0530 P   0  0  0  0  0  0  0  0  0  0  0  0
   39.5830   22.4600   38.1370 O   0  0  0  0  0  0  0  0  0  0  0  0
   40.3830   22.0490   37.7290 H   0  0  0  0  0  0  0  0  0  0  0  0
   39.5070   24.3730   36.0940 O   0  0  0  0  0  0  0  0  0  0  0  0
   39.7460   23.9790   35.2100 H   0  0  0  0  0  0  0  0  0  0  0  0
  1  2  2  0  0  0  0
  1  6  1  0  0  0  0
  2  3  1  0  0  0  0
  3  9  1  0  0  0  0
  3  4  2  0  0  0  0
  5  4  1  0  0  0  0
  5 10  1  0  0  0  0
  6  5  2  0  0  0  0
  7  1  1  0  0  0  0
  8  2  1  0  0  0  0
 10 12  1  0  0  0  0
 11 10  2  0  0  0  0
 12 14  1  0  0  0  0
 14 13  2  0  0  0  0
 14 15  1  0  0  0  0
 16 15  1  0  0  0  0
 17 14  1  0  0  0  0
 18 17  1  0  0  0  0
M  END
>  <minimizedAffinity>
-3.6922462

$$$$

 OpenBabel03272508433D

 18 18  0  0  0  0  0  0  0  0999 V2000
   37.4080   27.5210   34.9830 C   0  0  0  0  0  0  0  0  0  0  0  0
   38.5470   27.3250   35.7800 C   0  0  0  0  0  0  0  0  0  0  0  0
   39.7540   26.9820   35.1410 C   0  0  0  0  0  0  0  0  0  0  0  0
   39.7450   26.8610   33.7890 N   0  0  0  0  0  0  0  0  0  0  0  0
   38.6330   27.0580   33.0710 C   0  0  0  0  0  0  0  0  0  0  0  0
   37.4780   27.3820   33.6410 N   0  0  0  0  0  0  0  0  0  0  0  0
   36.4850   27.7840   35.4800 H   0  0  0  0  0  0  0  0  0  0  0  0
   38.5500   27.4220   36.8600 H   0  0  0  0  0  0  0  0  0  0  0  0
   40.6820   26.8110   35.6720 H   0  0  0  0  0  0  0  0  0  0  0  0
   38.6190   26.9280   31.6090 C   0  0  0  0  0  0  0  0  0  0  0  0
   38.7470   25.8300   30.9990 O   0  0  0  0  0  0  0  0  0  0  0  0
   38.4510   28.1370   30.9780 O   0  0  0  0  0  0  0  0  0  0  0  0
   36.4500   29.6680   30.3740 O   0  0  0  0  0  0  0  0  0  0  0  0
   37.1070   28.3830   29.9360 P   0  0  0  0  0  0  0  0  0  0  0  0
   37.5660   28.5320   28.3350 O   0  0  0  0  0  0  0  0  0  0  0  0
   37.8680   27.6860   27.9260 H   0  0  0  0  0  0  0  0  0  0  0  0
   36.0360   27.1020   30.1930 O   0  0  0  0  0  0  0  0  0  0  0  0
   36.5040   26.2770   30.5000 H   0  0  0  0  0  0  0  0  0  0  0  0
  1  7  1  0  0  0  0
  1  2  1  0  0  0  0
  2  8  1  0  0  0  0
  3  9  1  0  0  0  0
  3  2  2  0  0  0  0
  4  3  1  0  0  0  0
  5  6  1  0  0  0  0
  5  4  2  0  0  0  0
  6  1  2  0  0  0  0
 10  5  1  0  0  0  0
 11 10  2  0  0  0  0
 12 10  1  0  0  0  0
 14 17  1  0  0  0  0
 14 13  2  0  0  0  0
 14 12  1  0  0  0  0
 15 14  1  0  0  0  0
 16 15  1  0  0  0  0
 17 18  1  0  0  0  0
M  END
>  <minimizedAffinity>
-3.67037559

$$$$
