
 OpenBabel03272507423D

 39 41  0  0  0  0  0  0  0  0999 V2000
   36.7370   32.2980   49.3120 O   0  0  0  0  0  0  0  0  0  0  0  0
   38.2450   32.2810   47.3530 C   0  0  0  0  0  0  0  0  0  0  0  0
   37.8560   32.7140   48.6040 C   0  0  0  0  0  0  0  0  0  0  0  0
   38.6170   33.6560   49.2750 C   0  0  0  0  0  0  0  0  0  0  0  0
   39.7680   34.1600   48.6830 C   0  0  0  0  0  0  0  0  0  0  0  0
   40.1430   33.7220   47.4370 C   0  0  0  0  0  0  0  0  0  0  0  0
   39.3730   32.7850   46.7890 C   0  0  0  0  0  0  0  0  0  0  0  0
   38.3740   34.0390   50.2550 H   0  0  0  0  0  0  0  0  0  0  0  0
   40.3610   34.9010   49.2150 H   0  0  0  0  0  0  0  0  0  0  0  0
   41.0310   34.1000   46.9590 H   0  0  0  0  0  0  0  0  0  0  0  0
   39.7880   32.3220   45.4490 C   0  0  0  0  0  0  0  0  0  0  0  0
   40.6350   31.2920   45.1080 C   0  0  0  0  0  0  0  0  0  0  0  0
   40.6940   31.2680   43.7120 C   0  0  0  0  0  0  0  0  0  0  0  0
   39.8790   32.2860   43.2990 C   0  0  0  0  0  0  0  0  0  0  0  0
   39.3520   32.8990   44.3420 O   0  0  0  0  0  0  0  0  0  0  0  0
   41.0820   30.7130   45.8970 H   0  0  0  0  0  0  0  0  0  0  0  0
   41.3250   30.5080   43.2720 H   0  0  0  0  0  0  0  0  0  0  0  0
   39.7630   32.4670   42.2420 H   0  0  0  0  0  0  0  0  0  0  0  0
   36.7330   30.5290   46.2040 N   0  0  0  0  0  0  0  0  0  0  0  0
   37.4110   31.3060   46.7190 C   0  0  0  0  0  0  0  0  0  0  0  0
   36.6990   31.2040   50.1090 C   0  0  0  0  0  0  0  0  0  0  0  0
   35.5790   30.4060   49.8530 C   0  0  0  0  0  0  0  0  0  0  0  0
   35.3630   29.2400   50.5700 C   0  0  0  0  0  0  0  0  0  0  0  0
   36.2810   28.9120   51.5200 N   0  0  0  0  0  0  0  0  0  0  0  0
   37.3650   29.7030   51.7540 C   0  0  0  0  0  0  0  0  0  0  0  0
   37.5530   30.8080   51.0630 N   0  0  0  0  0  0  0  0  0  0  0  0
   34.5310   28.5830   50.4280 H   0  0  0  0  0  0  0  0  0  0  0  0
   38.1010   29.4370   52.5200 H   0  0  0  0  0  0  0  0  0  0  0  0
   34.1700   29.6290   48.0190 C   0  0  0  0  0  0  0  0  0  0  0  0
   34.5950   28.4350   47.7870 O   0  0  0  0  0  0  0  0  0  0  0  0
   34.5900   30.6680   48.8960 N   0  0  0  0  0  0  0  0  0  0  0  0
   34.1350   31.5640   48.7740 H   0  0  0  0  0  0  0  0  0  0  0  0
   33.0760   29.8130   47.1780 O   0  0  0  0  0  0  0  0  0  0  0  0
   32.8810   30.9170   44.7400 O   0  0  0  0  0  0  0  0  0  0  0  0
   33.1770   29.6150   45.4760 P   0  0  0  0  0  0  0  0  0  0  0  0
   34.6450   29.0190   44.9550 O   0  0  0  0  0  0  0  0  0  0  0  0
   35.1710   29.7490   44.5950 H   0  0  0  0  0  0  0  0  0  0  0  0
   31.9020   28.5610   45.0470 O   0  0  0  0  0  0  0  0  0  0  0  0
   31.0650   29.0120   45.3810 H   0  0  0  0  0  0  0  0  0  0  0  0
  1 21  1  0  0  0  0
  2  3  1  0  0  0  0
  3  4  2  0  0  0  0
  3  1  1  0  0  0  0
  4  8  1  0  0  0  0
  5  9  1  0  0  0  0
  5  4  1  0  0  0  0
  6  5  2  0  0  0  0
  7  2  2  0  0  0  0
  7  6  1  0  0  0  0
 10  6  1  0  0  0  0
 11  7  1  0  0  0  0
 12 11  2  0  0  0  0
 12 16  1  0  0  0  0
 13 12  1  0  0  0  0
 14 13  2  0  0  0  0
 14 15  1  0  0  0  0
 15 11  1  0  0  0  0
 17 13  1  0  0  0  0
 18 14  1  0  0  0  0
 19 20  3  0  0  0  0
 20  2  1  0  0  0  0
 21 26  1  0  0  0  0
 22 21  2  0  0  0  0
 22 23  1  0  0  0  0
 23 24  2  0  0  0  0
 24 25  1  0  0  0  0
 25 28  1  0  0  0  0
 26 25  2  0  0  0  0
 27 23  1  0  0  0  0
 29 31  1  0  0  0  0
 30 29  2  0  0  0  0
 31 22  1  0  0  0  0
 32 31  1  0  0  0  0
 33 29  1  0  0  0  0
 34 35  2  0  0  0  0
 35 33  1  0  0  0  0
 36 35  1  0  0  0  0
 37 36  1  0  0  0  0
 38 39  1  0  0  0  0
 38 35  1  0  0  0  0
M  END
>  <minimizedAffinity>
-5.62968826

>  <minimizedRMSD>
0.548235118

$$$$
