
 OpenBabel03262522093D

 18 18  0  0  0  0  0  0  0  0999 V2000
   37.4860   26.6060   35.2700 C   0  0  0  0  0  0  0  0  0  0  0  0
   37.9220   25.3360   34.7770 C   0  0  0  0  0  0  0  0  0  0  0  0
   37.7680   25.0720   33.4040 C   0  0  0  0  0  0  0  0  0  0  0  0
   37.2150   26.0340   32.6260 N   0  0  0  0  0  0  0  0  0  0  0  0
   36.8190   27.2130   33.1290 C   0  0  0  0  0  0  0  0  0  0  0  0
   36.9470   27.5000   34.4190 N   0  0  0  0  0  0  0  0  0  0  0  0
   37.6170   26.7810   36.3310 H   0  0  0  0  0  0  0  0  0  0  0  0
   38.1040   24.1050   33.0530 H   0  0  0  0  0  0  0  0  0  0  0  0
   36.3770   27.9550   32.4450 H   0  0  0  0  0  0  0  0  0  0  0  0
   38.5080   24.3790   35.7380 C   0  0  0  0  0  0  0  0  0  0  0  0
   39.7390   24.2930   35.6990 O   0  0  0  0  0  0  0  0  0  0  0  0
   37.6930   23.6450   36.6070 O   0  0  0  0  0  0  0  0  0  0  0  0
   38.0880   24.6800   38.9560 O   0  0  0  0  0  0  0  0  0  0  0  0
   38.1620   23.3410   38.2250 P   0  0  0  0  0  0  0  0  0  0  0  0
   39.7070   22.7180   38.3350 O   0  0  0  0  0  0  0  0  0  0  0  0
   40.3680   23.4480   38.2800 H   0  0  0  0  0  0  0  0  0  0  0  0
   37.0080   22.3020   38.8900 O   0  0  0  0  0  0  0  0  0  0  0  0
   36.1110   22.4420   38.4900 H   0  0  0  0  0  0  0  0  0  0  0  0
  1  7  1  0  0  0  0
  2  1  1  0  0  0  0
  2 10  1  0  0  0  0
  3  2  2  0  0  0  0
  4  5  2  0  0  0  0
  4  3  1  0  0  0  0
  5  6  1  0  0  0  0
  6  1  2  0  0  0  0
  8  3  1  0  0  0  0
  9  5  1  0  0  0  0
 10 12  1  0  0  0  0
 11 10  2  0  0  0  0
 12 14  1  0  0  0  0
 14 15  1  0  0  0  0
 14 17  1  0  0  0  0
 14 13  2  0  0  0  0
 16 15  1  0  0  0  0
 18 17  1  0  0  0  0
M  END
>  <minimizedAffinity>
-4.08353853

$$$$

 OpenBabel03262522093D

 18 18  0  0  0  0  0  0  0  0999 V2000
   37.1450   24.6780   32.5890 C   0  0  0  0  0  0  0  0  0  0  0  0
   36.8010   26.0560   32.4270 C   0  0  0  0  0  0  0  0  0  0  0  0
   35.7830   26.3800   31.5120 C   0  0  0  0  0  0  0  0  0  0  0  0
   35.1850   25.3690   30.8360 N   0  0  0  0  0  0  0  0  0  0  0  0
   35.5380   24.0870   31.0180 C   0  0  0  0  0  0  0  0  0  0  0  0
   36.4950   23.7410   31.8720 N   0  0  0  0  0  0  0  0  0  0  0  0
   37.9330   24.4590   33.3000 H   0  0  0  0  0  0  0  0  0  0  0  0
   35.5390   27.4290   31.4050 H   0  0  0  0  0  0  0  0  0  0  0  0
   35.0150   23.3100   30.4400 H   0  0  0  0  0  0  0  0  0  0  0  0
   37.5340   27.0570   33.2290 C   0  0  0  0  0  0  0  0  0  0  0  0
   36.8430   27.9850   33.6580 O   0  0  0  0  0  0  0  0  0  0  0  0
   38.9080   26.9250   33.4590 O   0  0  0  0  0  0  0  0  0  0  0  0
   39.1890   25.2220   35.4000 O   0  0  0  0  0  0  0  0  0  0  0  0
   39.5270   26.6660   35.0330 P   0  0  0  0  0  0  0  0  0  0  0  0
   38.8660   27.7080   36.1580 O   0  0  0  0  0  0  0  0  0  0  0  0
   37.9850   27.3730   36.4490 H   0  0  0  0  0  0  0  0  0  0  0  0
   41.2070   26.8160   34.9380 O   0  0  0  0  0  0  0  0  0  0  0  0
   41.5530   26.5370   34.0510 H   0  0  0  0  0  0  0  0  0  0  0  0
  1  7  1  0  0  0  0
  2  1  1  0  0  0  0
  2 10  1  0  0  0  0
  3  2  2  0  0  0  0
  4  5  2  0  0  0  0
  4  3  1  0  0  0  0
  5  6  1  0  0  0  0
  6  1  2  0  0  0  0
  8  3  1  0  0  0  0
  9  5  1  0  0  0  0
 10 12  1  0  0  0  0
 10 11  2  0  0  0  0
 12 14  1  0  0  0  0
 14 13  2  0  0  0  0
 14 15  1  0  0  0  0
 15 16  1  0  0  0  0
 17 14  1  0  0  0  0
 18 17  1  0  0  0  0
M  END
>  <minimizedAffinity>
-3.82511735

$$$$

 OpenBabel03262522093D

 18 18  0  0  0  0  0  0  0  0999 V2000
   36.8610   27.7280   34.6950 C   0  0  0  0  0  0  0  0  0  0  0  0
   37.3950   26.4080   34.5690 C   0  0  0  0  0  0  0  0  0  0  0  0
   37.2820   25.7660   33.3220 C   0  0  0  0  0  0  0  0  0  0  0  0
   36.6740   26.4340   32.3120 N   0  0  0  0  0  0  0  0  0  0  0  0
   36.1860   27.6730   32.4730 C   0  0  0  0  0  0  0  0  0  0  0  0
   36.2730   28.3120   33.6340 N   0  0  0  0  0  0  0  0  0  0  0  0
   36.9630   28.1970   35.6670 H   0  0  0  0  0  0  0  0  0  0  0  0
   37.6920   24.7670   33.2490 H   0  0  0  0  0  0  0  0  0  0  0  0
   35.7030   28.1640   31.6140 H   0  0  0  0  0  0  0  0  0  0  0  0
   38.0330   25.7960   35.7530 C   0  0  0  0  0  0  0  0  0  0  0  0
   38.3730   26.5960   36.6290 O   0  0  0  0  0  0  0  0  0  0  0  0
   38.2200   24.4120   35.8330 O   0  0  0  0  0  0  0  0  0  0  0  0
   39.5740   23.0150   37.5530 O   0  0  0  0  0  0  0  0  0  0  0  0
   38.1770   23.5920   37.3350 P   0  0  0  0  0  0  0  0  0  0  0  0
   37.0450   22.3650   37.3600 O   0  0  0  0  0  0  0  0  0  0  0  0
   37.4140   21.5580   36.9290 H   0  0  0  0  0  0  0  0  0  0  0  0
   37.8830   24.7530   38.5270 O   0  0  0  0  0  0  0  0  0  0  0  0
   38.2590   25.6370   38.2810 H   0  0  0  0  0  0  0  0  0  0  0  0
  1  7  1  0  0  0  0
  2  1  1  0  0  0  0
  2 10  1  0  0  0  0
  3  2  2  0  0  0  0
  4  5  2  0  0  0  0
  4  3  1  0  0  0  0
  5  6  1  0  0  0  0
  6  1  2  0  0  0  0
  8  3  1  0  0  0  0
  9  5  1  0  0  0  0
 10 12  1  0  0  0  0
 10 11  2  0  0  0  0
 12 14  1  0  0  0  0
 14 15  1  0  0  0  0
 14 13  2  0  0  0  0
 14 17  1  0  0  0  0
 16 15  1  0  0  0  0
 18 17  1  0  0  0  0
M  END
>  <minimizedAffinity>
-3.81377435

$$$$

 OpenBabel03262522093D

 18 18  0  0  0  0  0  0  0  0999 V2000
   37.4410   25.6160   33.4920 C   0  0  0  0  0  0  0  0  0  0  0  0
   37.4770   26.4280   34.6680 C   0  0  0  0  0  0  0  0  0  0  0  0
   36.9000   27.7090   34.6050 C   0  0  0  0  0  0  0  0  0  0  0  0
   36.3430   28.1020   33.4340 N   0  0  0  0  0  0  0  0  0  0  0  0
   36.3310   27.3080   32.3520 C   0  0  0  0  0  0  0  0  0  0  0  0
   36.8650   26.0930   32.3720 N   0  0  0  0  0  0  0  0  0  0  0  0
   37.8940   24.6350   33.5700 H   0  0  0  0  0  0  0  0  0  0  0  0
   36.9380   28.3060   35.5070 H   0  0  0  0  0  0  0  0  0  0  0  0
   35.8620   27.6840   31.4280 H   0  0  0  0  0  0  0  0  0  0  0  0
   38.1170   25.8730   35.8790 C   0  0  0  0  0  0  0  0  0  0  0  0
   38.3220   26.6930   36.7790 O   0  0  0  0  0  0  0  0  0  0  0  0
   38.4490   24.5160   35.9580 O   0  0  0  0  0  0  0  0  0  0  0  0
   36.9300   22.7680   37.1340 O   0  0  0  0  0  0  0  0  0  0  0  0
   38.1780   23.6140   37.3860 P   0  0  0  0  0  0  0  0  0  0  0  0
   37.9430   24.5880   38.7220 O   0  0  0  0  0  0  0  0  0  0  0  0
   37.0100   24.9070   38.7460 H   0  0  0  0  0  0  0  0  0  0  0  0
   39.4980   22.5780   37.5790 O   0  0  0  0  0  0  0  0  0  0  0  0
   39.8870   22.3100   36.7060 H   0  0  0  0  0  0  0  0  0  0  0  0
  1  7  1  0  0  0  0
  1  2  1  0  0  0  0
  2 10  1  0  0  0  0
  3  2  2  0  0  0  0
  3  8  1  0  0  0  0
  4  3  1  0  0  0  0
  5  6  1  0  0  0  0
  5  4  2  0  0  0  0
  6  1  2  0  0  0  0
  9  5  1  0  0  0  0
 10 12  1  0  0  0  0
 10 11  2  0  0  0  0
 12 14  1  0  0  0  0
 13 14  2  0  0  0  0
 14 17  1  0  0  0  0
 14 15  1  0  0  0  0
 15 16  1  0  0  0  0
 18 17  1  0  0  0  0
M  END
>  <minimizedAffinity>
-3.77028823

$$$$

 OpenBabel03262522093D

 18 18  0  0  0  0  0  0  0  0999 V2000
   40.1140   23.4230   35.3330 C   0  0  0  0  0  0  0  0  0  0  0  0
   39.4150   23.6210   36.5650 C   0  0  0  0  0  0  0  0  0  0  0  0
   39.7820   22.8280   37.6670 C   0  0  0  0  0  0  0  0  0  0  0  0
   40.7760   21.9220   37.5000 N   0  0  0  0  0  0  0  0  0  0  0  0
   41.4060   21.7670   36.3260 C   0  0  0  0  0  0  0  0  0  0  0  0
   41.0890   22.4960   35.2630 N   0  0  0  0  0  0  0  0  0  0  0  0
   39.8100   24.0470   34.5010 H   0  0  0  0  0  0  0  0  0  0  0  0
   39.2400   22.9940   38.5890 H   0  0  0  0  0  0  0  0  0  0  0  0
   42.2070   21.0140   36.2540 H   0  0  0  0  0  0  0  0  0  0  0  0
   38.3510   24.6450   36.6060 C   0  0  0  0  0  0  0  0  0  0  0  0
   37.9570   24.9370   37.7390 O   0  0  0  0  0  0  0  0  0  0  0  0
   37.8570   25.2150   35.4280 O   0  0  0  0  0  0  0  0  0  0  0  0
   36.6940   27.4440   34.7780 O   0  0  0  0  0  0  0  0  0  0  0  0
   38.0800   26.8750   35.0790 P   0  0  0  0  0  0  0  0  0  0  0  0
   39.0910   27.1230   33.7740 O   0  0  0  0  0  0  0  0  0  0  0  0
   38.5880   27.0130   32.9330 H   0  0  0  0  0  0  0  0  0  0  0  0
   38.6660   27.6050   36.4850 O   0  0  0  0  0  0  0  0  0  0  0  0
   38.3310   27.1530   37.3020 H   0  0  0  0  0  0  0  0  0  0  0  0
  1  2  1  0  0  0  0
  2 10  1  0  0  0  0
  2  3  2  0  0  0  0
  3  8  1  0  0  0  0
  4  3  1  0  0  0  0
  5  4  2  0  0  0  0
  6  1  2  0  0  0  0
  6  5  1  0  0  0  0
  7  1  1  0  0  0  0
  9  5  1  0  0  0  0
 10 11  2  0  0  0  0
 12 10  1  0  0  0  0
 13 14  2  0  0  0  0
 14 12  1  0  0  0  0
 14 17  1  0  0  0  0
 15 14  1  0  0  0  0
 16 15  1  0  0  0  0
 17 18  1  0  0  0  0
M  END
>  <minimizedAffinity>
-3.74501061

$$$$

 OpenBabel03262522093D

 18 18  0  0  0  0  0  0  0  0999 V2000
   42.0020   24.6350   34.5380 C   0  0  0  0  0  0  0  0  0  0  0  0
   40.6890   24.9740   34.9900 C   0  0  0  0  0  0  0  0  0  0  0  0
   40.2370   26.2890   34.7820 C   0  0  0  0  0  0  0  0  0  0  0  0
   41.0710   27.1610   34.1650 N   0  0  0  0  0  0  0  0  0  0  0  0
   42.2970   26.8030   33.7560 C   0  0  0  0  0  0  0  0  0  0  0  0
   42.7600   25.5710   33.9350 N   0  0  0  0  0  0  0  0  0  0  0  0
   42.3240   23.6150   34.7130 H   0  0  0  0  0  0  0  0  0  0  0  0
   39.2400   26.5240   35.1320 H   0  0  0  0  0  0  0  0  0  0  0  0
   42.9280   27.5570   33.2600 H   0  0  0  0  0  0  0  0  0  0  0  0
   39.8850   23.9230   35.6490 C   0  0  0  0  0  0  0  0  0  0  0  0
   40.3270   22.7770   35.5240 O   0  0  0  0  0  0  0  0  0  0  0  0
   38.7180   24.2460   36.3490 O   0  0  0  0  0  0  0  0  0  0  0  0
   37.8180   24.5020   38.7720 O   0  0  0  0  0  0  0  0  0  0  0  0
   38.2890   23.4300   37.7910 P   0  0  0  0  0  0  0  0  0  0  0  0
   39.5680   22.5810   38.4480 O   0  0  0  0  0  0  0  0  0  0  0  0
   40.1460   23.1900   38.9650 H   0  0  0  0  0  0  0  0  0  0  0  0
   36.9810   22.4260   37.4240 O   0  0  0  0  0  0  0  0  0  0  0  0
   36.4170   22.8050   36.7000 H   0  0  0  0  0  0  0  0  0  0  0  0
  1  7  1  0  0  0  0
  1  2  1  0  0  0  0
  2 10  1  0  0  0  0
  3  2  2  0  0  0  0
  3  8  1  0  0  0  0
  4  3  1  0  0  0  0
  5  6  1  0  0  0  0
  5  4  2  0  0  0  0
  6  1  2  0  0  0  0
  9  5  1  0  0  0  0
 10 12  1  0  0  0  0
 11 10  2  0  0  0  0
 12 14  1  0  0  0  0
 14 15  1  0  0  0  0
 14 13  2  0  0  0  0
 15 16  1  0  0  0  0
 17 14  1  0  0  0  0
 18 17  1  0  0  0  0
M  END
>  <minimizedAffinity>
-3.71975756

$$$$

 OpenBabel03262522093D

 18 18  0  0  0  0  0  0  0  0999 V2000
   37.2720   26.4500   34.8410 C   0  0  0  0  0  0  0  0  0  0  0  0
   38.1860   25.5100   34.2700 C   0  0  0  0  0  0  0  0  0  0  0  0
   38.7340   25.8050   33.0080 C   0  0  0  0  0  0  0  0  0  0  0  0
   38.3650   26.9610   32.4050 N   0  0  0  0  0  0  0  0  0  0  0  0
   37.5030   27.8160   32.9760 C   0  0  0  0  0  0  0  0  0  0  0  0
   36.9650   27.5740   34.1650 N   0  0  0  0  0  0  0  0  0  0  0  0
   36.8660   26.1960   35.8130 H   0  0  0  0  0  0  0  0  0  0  0  0
   39.4240   25.0800   32.5940 H   0  0  0  0  0  0  0  0  0  0  0  0
   37.2430   28.7400   32.4360 H   0  0  0  0  0  0  0  0  0  0  0  0
   38.5010   24.2880   35.0370 C   0  0  0  0  0  0  0  0  0  0  0  0
   38.1750   23.2320   34.4870 O   0  0  0  0  0  0  0  0  0  0  0  0
   39.1220   24.3670   36.2890 O   0  0  0  0  0  0  0  0  0  0  0  0
   38.0070   24.5900   38.6240 O   0  0  0  0  0  0  0  0  0  0  0  0
   38.5030   23.5270   37.6450 P   0  0  0  0  0  0  0  0  0  0  0  0
   39.6550   22.5690   38.3830 O   0  0  0  0  0  0  0  0  0  0  0  0
   40.2180   23.1190   38.9790 H   0  0  0  0  0  0  0  0  0  0  0  0
   37.1760   22.6280   37.1110 O   0  0  0  0  0  0  0  0  0  0  0  0
   36.7120   23.0710   36.3550 H   0  0  0  0  0  0  0  0  0  0  0  0
  1  7  1  0  0  0  0
  2  1  1  0  0  0  0
  2 10  1  0  0  0  0
  3  2  2  0  0  0  0
  4  5  2  0  0  0  0
  4  3  1  0  0  0  0
  5  6  1  0  0  0  0
  6  1  2  0  0  0  0
  8  3  1  0  0  0  0
  9  5  1  0  0  0  0
 10 12  1  0  0  0  0
 11 10  2  0  0  0  0
 12 14  1  0  0  0  0
 14 15  1  0  0  0  0
 14 13  2  0  0  0  0
 15 16  1  0  0  0  0
 17 14  1  0  0  0  0
 18 17  1  0  0  0  0
M  END
>  <minimizedAffinity>
-3.71891737

$$$$

 OpenBabel03262522093D

 18 18  0  0  0  0  0  0  0  0999 V2000
   38.0650   25.3380   35.7050 C   0  0  0  0  0  0  0  0  0  0  0  0
   38.0720   24.4600   34.5760 C   0  0  0  0  0  0  0  0  0  0  0  0
   38.1410   23.0760   34.8160 C   0  0  0  0  0  0  0  0  0  0  0  0
   38.1970   22.6520   36.1020 N   0  0  0  0  0  0  0  0  0  0  0  0
   38.1880   23.5100   37.1330 C   0  0  0  0  0  0  0  0  0  0  0  0
   38.1240   24.8240   36.9480 N   0  0  0  0  0  0  0  0  0  0  0  0
   38.0110   26.3990   35.4890 H   0  0  0  0  0  0  0  0  0  0  0  0
   38.1460   22.4300   33.9480 H   0  0  0  0  0  0  0  0  0  0  0  0
   38.2360   23.1050   38.1570 H   0  0  0  0  0  0  0  0  0  0  0  0
   38.0060   25.0580   33.2270 C   0  0  0  0  0  0  0  0  0  0  0  0
   39.1020   25.2690   32.6990 O   0  0  0  0  0  0  0  0  0  0  0  0
   36.7740   25.3470   32.6290 O   0  0  0  0  0  0  0  0  0  0  0  0
   35.5810   23.3110   31.5450 O   0  0  0  0  0  0  0  0  0  0  0  0
   36.2990   24.6040   31.1630 P   0  0  0  0  0  0  0  0  0  0  0  0
   37.5970   24.2610   30.1710 O   0  0  0  0  0  0  0  0  0  0  0  0
   38.0270   23.4210   30.4580 H   0  0  0  0  0  0  0  0  0  0  0  0
   35.1860   25.6360   30.4200 O   0  0  0  0  0  0  0  0  0  0  0  0
   34.6620   26.1530   31.0850 H   0  0  0  0  0  0  0  0  0  0  0  0
  1  6  1  0  0  0  0
  2  3  1  0  0  0  0
  2  1  2  0  0  0  0
  3  4  2  0  0  0  0
  4  5  1  0  0  0  0
  5  9  1  0  0  0  0
  6  5  2  0  0  0  0
  7  1  1  0  0  0  0
  8  3  1  0  0  0  0
 10  2  1  0  0  0  0
 11 10  2  0  0  0  0
 12 10  1  0  0  0  0
 14 13  2  0  0  0  0
 14 12  1  0  0  0  0
 15 16  1  0  0  0  0
 15 14  1  0  0  0  0
 17 18  1  0  0  0  0
 17 14  1  0  0  0  0
M  END
>  <minimizedAffinity>
-3.57174468

$$$$

 OpenBabel03262522093D

 18 18  0  0  0  0  0  0  0  0999 V2000
   36.4980   21.6550   36.5310 C   0  0  0  0  0  0  0  0  0  0  0  0
   37.5630   22.3210   35.8480 C   0  0  0  0  0  0  0  0  0  0  0  0
   37.6680   22.1440   34.4560 C   0  0  0  0  0  0  0  0  0  0  0  0
   36.7560   21.3530   33.8410 N   0  0  0  0  0  0  0  0  0  0  0  0
   35.7710   20.7450   34.5200 C   0  0  0  0  0  0  0  0  0  0  0  0
   35.6380   20.8870   35.8340 N   0  0  0  0  0  0  0  0  0  0  0  0
   36.4420   21.8090   37.6020 H   0  0  0  0  0  0  0  0  0  0  0  0
   38.4820   22.6580   33.9600 H   0  0  0  0  0  0  0  0  0  0  0  0
   35.0600   20.1140   33.9640 H   0  0  0  0  0  0  0  0  0  0  0  0
   38.4880   23.1550   36.6430 C   0  0  0  0  0  0  0  0  0  0  0  0
   38.0290   23.5620   37.7140 O   0  0  0  0  0  0  0  0  0  0  0  0
   39.7770   23.4380   36.1790 O   0  0  0  0  0  0  0  0  0  0  0  0
   41.2990   21.5230   35.3060 O   0  0  0  0  0  0  0  0  0  0  0  0
   41.0980   22.4100   36.5330 P   0  0  0  0  0  0  0  0  0  0  0  0
   40.8250   21.4620   37.8810 O   0  0  0  0  0  0  0  0  0  0  0  0
   40.2800   20.6780   37.6350 H   0  0  0  0  0  0  0  0  0  0  0  0
   42.4600   23.3940   36.7140 O   0  0  0  0  0  0  0  0  0  0  0  0
   42.4040   24.2070   36.1490 H   0  0  0  0  0  0  0  0  0  0  0  0
  1  7  1  0  0  0  0
  2  1  1  0  0  0  0
  2 10  1  0  0  0  0
  3  2  2  0  0  0  0
  4  3  1  0  0  0  0
  4  5  2  0  0  0  0
  5  6  1  0  0  0  0
  6  1  2  0  0  0  0
  8  3  1  0  0  0  0
  9  5  1  0  0  0  0
 10 11  2  0  0  0  0
 12 14  1  0  0  0  0
 12 10  1  0  0  0  0
 13 14  2  0  0  0  0
 14 17  1  0  0  0  0
 14 15  1  0  0  0  0
 16 15  1  0  0  0  0
 18 17  1  0  0  0  0
M  END
>  <minimizedAffinity>
-3.5396955

$$$$
