
 OpenBabel03272510293D

 26 27  0  0  0  0  0  0  0  0999 V2000
   37.2210   31.3150   49.3290 C   0  0  0  0  0  0  0  0  0  0  0  0
   37.4660   32.5690   49.8970 C   0  0  0  0  0  0  0  0  0  0  0  0
   38.3590   33.3790   49.1940 C   0  0  0  0  0  0  0  0  0  0  0  0
   38.9240   32.9170   48.0330 N   0  0  0  0  0  0  0  0  0  0  0  0
   38.6470   31.6900   47.5310 C   0  0  0  0  0  0  0  0  0  0  0  0
   37.7750   30.8620   48.1940 N   0  0  0  0  0  0  0  0  0  0  0  0
   36.9940   32.8750   50.8080 H   0  0  0  0  0  0  0  0  0  0  0  0
   38.6020   34.3650   49.5670 H   0  0  0  0  0  0  0  0  0  0  0  0
   36.2400   30.4310   50.0400 C   0  0  0  0  0  0  0  0  0  0  0  0
   36.1640   29.0070   49.8160 C   0  0  0  0  0  0  0  0  0  0  0  0
   36.9040   29.4850   51.0510 C   0  0  0  0  0  0  0  0  0  0  0  0
   35.3700   31.0150   50.4650 H   0  0  0  0  0  0  0  0  0  0  0  0
   36.8060   28.5000   49.0670 H   0  0  0  0  0  0  0  0  0  0  0  0
   35.2010   28.4780   49.9530 H   0  0  0  0  0  0  0  0  0  0  0  0
   36.3550   29.3520   52.0040 H   0  0  0  0  0  0  0  0  0  0  0  0
   38.0040   29.4180   51.0730 H   0  0  0  0  0  0  0  0  0  0  0  0
   39.2330   31.2030   46.2880 C   0  0  0  0  0  0  0  0  0  0  0  0
   40.3530   31.2270   46.2800 H   0  0  0  0  0  0  0  0  0  0  0  0
   38.9660   30.1560   46.1080 H   0  0  0  0  0  0  0  0  0  0  0  0
   38.8490   32.0830   45.2750 O   0  0  0  0  0  0  0  0  0  0  0  0
   37.9180   30.6380   43.3400 O   0  0  0  0  0  0  0  0  0  0  0  0
   37.4760   31.5620   44.4480 P   0  0  0  0  0  0  0  0  0  0  0  0
   36.3440   30.8260   45.4650 O   0  0  0  0  0  0  0  0  0  0  0  0
   36.7590   29.9570   45.7580 H   0  0  0  0  0  0  0  0  0  0  0  0
   36.6930   32.9070   43.7600 O   0  0  0  0  0  0  0  0  0  0  0  0
   36.2910   33.4340   44.4800 H   0  0  0  0  0  0  0  0  0  0  0  0
  1  2  1  0  0  0  0
  1  9  1  0  0  0  0
  2  7  1  0  0  0  0
  3  8  1  0  0  0  0
  3  2  2  0  0  0  0
  4  3  1  0  0  0  0
  5  4  2  0  0  0  0
  5  6  1  0  0  0  0
  6  1  2  0  0  0  0
  9 12  1  0  0  0  0
  9 11  1  0  0  0  0
 10 14  1  0  0  0  0
 10  9  1  0  0  0  0
 10 11  1  0  0  0  0
 11 16  1  0  0  0  0
 11 15  1  0  0  0  0
 13 10  1  0  0  0  0
 17  5  1  0  0  0  0
 18 17  1  0  0  0  0
 19 17  1  0  0  0  0
 20 17  1  0  0  0  0
 21 22  2  0  0  0  0
 22 20  1  0  0  0  0
 22 23  1  0  0  0  0
 23 24  1  0  0  0  0
 25 22  1  0  0  0  0
 25 26  1  0  0  0  0
M  END
>  <minimizedAffinity>
-5.09107637

>  <minimizedRMSD>
1.23606563

$$$$
