
 OpenBabel03262523313D

 31 33  0  0  0  0  0  0  0  0999 V2000
   39.9430   25.8030   32.2200 C   0  0  0  0  0  0  0  0  0  0  0  0
   39.0590   26.8660   32.0640 C   0  0  0  0  0  0  0  0  0  0  0  0
   37.9570   26.9480   32.9270 C   0  0  0  0  0  0  0  0  0  0  0  0
   37.7870   25.9820   33.8900 N   0  0  0  0  0  0  0  0  0  0  0  0
   38.6810   24.9670   33.9950 C   0  0  0  0  0  0  0  0  0  0  0  0
   39.7390   24.8780   33.1780 N   0  0  0  0  0  0  0  0  0  0  0  0
   40.8010   25.7130   31.5710 H   0  0  0  0  0  0  0  0  0  0  0  0
   39.1810   27.6180   31.3230 H   0  0  0  0  0  0  0  0  0  0  0  0
   36.3130   28.3270   34.0430 C   0  0  0  0  0  0  0  0  0  0  0  0
   36.9640   28.0060   32.8670 C   0  0  0  0  0  0  0  0  0  0  0  0
   36.6610   28.6850   31.6930 C   0  0  0  0  0  0  0  0  0  0  0  0
   35.7030   29.6740   31.7380 C   0  0  0  0  0  0  0  0  0  0  0  0
   35.2300   30.4740   30.7510 N   0  0  0  0  0  0  0  0  0  0  0  0
   34.2980   31.2820   31.2960 C   0  0  0  0  0  0  0  0  0  0  0  0
   34.1620   31.0230   32.6030 N   0  0  0  0  0  0  0  0  0  0  0  0
   35.0260   30.0230   32.9110 C   0  0  0  0  0  0  0  0  0  0  0  0
   35.3430   29.3320   34.0780 C   0  0  0  0  0  0  0  0  0  0  0  0
   36.5000   27.8410   34.9820 H   0  0  0  0  0  0  0  0  0  0  0  0
   37.1600   28.4410   30.7870 H   0  0  0  0  0  0  0  0  0  0  0  0
   35.4830   30.5210   29.7390 H   0  0  0  0  0  0  0  0  0  0  0  0
   33.6680   32.0630   30.9050 H   0  0  0  0  0  0  0  0  0  0  0  0
   34.8160   29.6050   34.9830 H   0  0  0  0  0  0  0  0  0  0  0  0
   38.4570   23.9700   35.0320 C   0  0  0  0  0  0  0  0  0  0  0  0
   37.9550   22.8460   34.7660 O   0  0  0  0  0  0  0  0  0  0  0  0
   38.8290   24.3350   36.3190 O   0  0  0  0  0  0  0  0  0  0  0  0
   37.9520   24.4630   38.7910 O   0  0  0  0  0  0  0  0  0  0  0  0
   38.3710   23.4590   37.7280 P   0  0  0  0  0  0  0  0  0  0  0  0
   37.0190   22.5050   37.4090 O   0  0  0  0  0  0  0  0  0  0  0  0
   37.0160   22.2020   36.4680 H   0  0  0  0  0  0  0  0  0  0  0  0
   39.6680   22.5860   38.3470 O   0  0  0  0  0  0  0  0  0  0  0  0
   39.5000   22.4630   39.3180 H   0  0  0  0  0  0  0  0  0  0  0  0
  1  6  1  0  0  0  0
  2  1  2  0  0  0  0
  2  3  1  0  0  0  0
  3  4  2  0  0  0  0
  4  5  1  0  0  0  0
  5 23  1  0  0  0  0
  6  5  2  0  0  0  0
  7  1  1  0  0  0  0
  8  2  1  0  0  0  0
  9 17  1  0  0  0  0
  9 18  1  0  0  0  0
 10  3  1  0  0  0  0
 10  9  2  0  0  0  0
 11 12  2  0  0  0  0
 11 10  1  0  0  0  0
 12 16  1  0  0  0  0
 13 14  1  0  0  0  0
 13 12  1  0  0  0  0
 14 15  2  0  0  0  0
 15 16  1  0  0  0  0
 16 17  2  0  0  0  0
 17 22  1  0  0  0  0
 19 11  1  0  0  0  0
 20 13  1  0  0  0  0
 21 14  1  0  0  0  0
 23 25  1  0  0  0  0
 24 23  2  0  0  0  0
 25 27  1  0  0  0  0
 27 30  1  0  0  0  0
 27 26  2  0  0  0  0
 28 27  1  0  0  0  0
 29 28  1  0  0  0  0
 30 31  1  0  0  0  0
M  END
>  <minimizedAffinity>
-5.63277483

$$$$

 OpenBabel03262523313D

 31 33  0  0  0  0  0  0  0  0999 V2000
   35.6900   29.7150   31.5110 C   0  0  0  0  0  0  0  0  0  0  0  0
   36.4930   28.7280   32.0710 C   0  0  0  0  0  0  0  0  0  0  0  0
   36.2850   28.3820   33.4140 C   0  0  0  0  0  0  0  0  0  0  0  0
   35.3010   29.0260   34.1270 N   0  0  0  0  0  0  0  0  0  0  0  0
   34.5480   29.9810   33.5270 C   0  0  0  0  0  0  0  0  0  0  0  0
   34.7350   30.3210   32.2450 N   0  0  0  0  0  0  0  0  0  0  0  0
   35.8260   30.0030   30.4790 H   0  0  0  0  0  0  0  0  0  0  0  0
   37.2560   28.2240   31.5290 H   0  0  0  0  0  0  0  0  0  0  0  0
   37.6320   27.7340   35.3170 C   0  0  0  0  0  0  0  0  0  0  0  0
   37.0560   27.3700   34.1140 C   0  0  0  0  0  0  0  0  0  0  0  0
   37.2250   26.0810   33.6200 C   0  0  0  0  0  0  0  0  0  0  0  0
   37.9750   25.1920   34.3580 C   0  0  0  0  0  0  0  0  0  0  0  0
   38.2870   23.8970   34.1060 N   0  0  0  0  0  0  0  0  0  0  0  0
   39.0450   23.4560   35.1300 C   0  0  0  0  0  0  0  0  0  0  0  0
   39.2260   24.4310   36.0310 N   0  0  0  0  0  0  0  0  0  0  0  0
   38.5700   25.5290   35.5790 C   0  0  0  0  0  0  0  0  0  0  0  0
   38.3900   26.8250   36.0570 C   0  0  0  0  0  0  0  0  0  0  0  0
   37.5400   28.7120   35.7510 H   0  0  0  0  0  0  0  0  0  0  0  0
   36.7840   25.7980   32.6960 H   0  0  0  0  0  0  0  0  0  0  0  0
   38.0310   23.2850   33.2990 H   0  0  0  0  0  0  0  0  0  0  0  0
   39.5140   22.5130   35.3590 H   0  0  0  0  0  0  0  0  0  0  0  0
   38.8530   27.0810   37.0010 H   0  0  0  0  0  0  0  0  0  0  0  0
   33.5190   30.6330   34.3250 C   0  0  0  0  0  0  0  0  0  0  0  0
   32.4260   30.9990   33.8190 O   0  0  0  0  0  0  0  0  0  0  0  0
   33.8180   30.8220   35.6680 O   0  0  0  0  0  0  0  0  0  0  0  0
   35.1310   33.0690   35.3220 O   0  0  0  0  0  0  0  0  0  0  0  0
   35.0800   31.8490   36.2290 P   0  0  0  0  0  0  0  0  0  0  0  0
   34.7280   32.4150   37.7760 O   0  0  0  0  0  0  0  0  0  0  0  0
   34.2070   31.7470   38.2860 H   0  0  0  0  0  0  0  0  0  0  0  0
   36.5730   31.0850   36.1250 O   0  0  0  0  0  0  0  0  0  0  0  0
   37.2610   31.7970   36.0430 H   0  0  0  0  0  0  0  0  0  0  0  0
  1  2  2  0  0  0  0
  1  6  1  0  0  0  0
  2  3  1  0  0  0  0
  3 10  1  0  0  0  0
  3  4  2  0  0  0  0
  5  4  1  0  0  0  0
  5 23  1  0  0  0  0
  6  5  2  0  0  0  0
  7  1  1  0  0  0  0
  8  2  1  0  0  0  0
  9 18  1  0  0  0  0
  9 17  1  0  0  0  0
 10  9  2  0  0  0  0
 11 10  1  0  0  0  0
 11 12  2  0  0  0  0
 12 16  1  0  0  0  0
 13 12  1  0  0  0  0
 13 14  1  0  0  0  0
 14 21  1  0  0  0  0
 14 15  2  0  0  0  0
 16 15  1  0  0  0  0
 16 17  2  0  0  0  0
 17 22  1  0  0  0  0
 19 11  1  0  0  0  0
 20 13  1  0  0  0  0
 23 25  1  0  0  0  0
 24 23  2  0  0  0  0
 25 27  1  0  0  0  0
 26 27  2  0  0  0  0
 27 28  1  0  0  0  0
 28 29  1  0  0  0  0
 30 27  1  0  0  0  0
 31 30  1  0  0  0  0
M  END
>  <minimizedAffinity>
-5.57613707

$$$$

 OpenBabel03262523313D

 31 33  0  0  0  0  0  0  0  0999 V2000
   38.1640   26.1710   36.5450 C   0  0  0  0  0  0  0  0  0  0  0  0
   38.2600   26.8600   35.3410 C   0  0  0  0  0  0  0  0  0  0  0  0
   38.4360   26.1210   34.1630 C   0  0  0  0  0  0  0  0  0  0  0  0
   38.5070   24.7500   34.2360 N   0  0  0  0  0  0  0  0  0  0  0  0
   38.4060   24.1310   35.4400 C   0  0  0  0  0  0  0  0  0  0  0  0
   38.2380   24.8260   36.5730 N   0  0  0  0  0  0  0  0  0  0  0  0
   38.0280   26.7130   37.4700 H   0  0  0  0  0  0  0  0  0  0  0  0
   38.2070   27.9200   35.2730 H   0  0  0  0  0  0  0  0  0  0  0  0
   39.8270   26.9370   32.3590 C   0  0  0  0  0  0  0  0  0  0  0  0
   38.5510   26.7200   32.8450 C   0  0  0  0  0  0  0  0  0  0  0  0
   37.4430   27.0720   32.0820 C   0  0  0  0  0  0  0  0  0  0  0  0
   37.6560   27.6350   30.8430 C   0  0  0  0  0  0  0  0  0  0  0  0
   36.7640   28.0600   29.9150 N   0  0  0  0  0  0  0  0  0  0  0  0
   37.4650   28.5350   28.8660 C   0  0  0  0  0  0  0  0  0  0  0  0
   38.7790   28.4260   29.0950 N   0  0  0  0  0  0  0  0  0  0  0  0
   38.9330   27.8680   30.3220 C   0  0  0  0  0  0  0  0  0  0  0  0
   40.0310   27.5090   31.1010 C   0  0  0  0  0  0  0  0  0  0  0  0
   40.7220   26.6900   32.8980 H   0  0  0  0  0  0  0  0  0  0  0  0
   36.4620   26.9060   32.4520 H   0  0  0  0  0  0  0  0  0  0  0  0
   35.7190   28.0560   29.9300 H   0  0  0  0  0  0  0  0  0  0  0  0
   37.1880   28.9670   27.9180 H   0  0  0  0  0  0  0  0  0  0  0  0
   41.0170   27.6920   30.6940 H   0  0  0  0  0  0  0  0  0  0  0  0
   38.4870   22.6780   35.4640 C   0  0  0  0  0  0  0  0  0  0  0  0
   37.4560   21.9600   35.3860 O   0  0  0  0  0  0  0  0  0  0  0  0
   39.7630   22.1410   35.5770 O   0  0  0  0  0  0  0  0  0  0  0  0
   41.7150   23.2840   36.9090 O   0  0  0  0  0  0  0  0  0  0  0  0
   40.6860   22.1710   37.0290 P   0  0  0  0  0  0  0  0  0  0  0  0
   39.7010   22.5660   38.3380 O   0  0  0  0  0  0  0  0  0  0  0  0
   38.7810   22.2310   38.2000 H   0  0  0  0  0  0  0  0  0  0  0  0
   41.5270   20.7310   37.2420 O   0  0  0  0  0  0  0  0  0  0  0  0
   42.3200   20.9370   37.8030 H   0  0  0  0  0  0  0  0  0  0  0  0
  1  6  1  0  0  0  0
  1  7  1  0  0  0  0
  2  1  2  0  0  0  0
  3  4  2  0  0  0  0
  3  2  1  0  0  0  0
  4  5  1  0  0  0  0
  5 23  1  0  0  0  0
  5  6  2  0  0  0  0
  8  2  1  0  0  0  0
  9 10  1  0  0  0  0
  9 18  1  0  0  0  0
 10  3  1  0  0  0  0
 11 19  1  0  0  0  0
 11 10  2  0  0  0  0
 12 11  1  0  0  0  0
 13 20  1  0  0  0  0
 13 12  1  0  0  0  0
 14 15  2  0  0  0  0
 14 13  1  0  0  0  0
 15 16  1  0  0  0  0
 16 12  2  0  0  0  0
 16 17  1  0  0  0  0
 17  9  2  0  0  0  0
 21 14  1  0  0  0  0
 22 17  1  0  0  0  0
 23 25  1  0  0  0  0
 24 23  2  0  0  0  0
 25 27  1  0  0  0  0
 26 27  2  0  0  0  0
 27 30  1  0  0  0  0
 27 28  1  0  0  0  0
 29 28  1  0  0  0  0
 30 31  1  0  0  0  0
M  END
>  <minimizedAffinity>
-5.53053141

$$$$

 OpenBabel03262523313D

 31 33  0  0  0  0  0  0  0  0999 V2000
   36.3420   29.0320   30.9440 C   0  0  0  0  0  0  0  0  0  0  0  0
   35.7110   29.8320   31.8910 C   0  0  0  0  0  0  0  0  0  0  0  0
   35.7510   29.4320   33.2340 C   0  0  0  0  0  0  0  0  0  0  0  0
   36.4060   28.2700   33.5680 N   0  0  0  0  0  0  0  0  0  0  0  0
   37.0040   27.5300   32.6010 C   0  0  0  0  0  0  0  0  0  0  0  0
   36.9750   27.9010   31.3140 N   0  0  0  0  0  0  0  0  0  0  0  0
   36.3290   29.3150   29.9020 H   0  0  0  0  0  0  0  0  0  0  0  0
   35.2020   30.7320   31.6440 H   0  0  0  0  0  0  0  0  0  0  0  0
   35.9750   30.8470   35.1830 C   0  0  0  0  0  0  0  0  0  0  0  0
   35.1320   30.1770   34.3160 C   0  0  0  0  0  0  0  0  0  0  0  0
   33.7550   30.2330   34.4970 C   0  0  0  0  0  0  0  0  0  0  0  0
   33.2630   30.9670   35.5530 C   0  0  0  0  0  0  0  0  0  0  0  0
   31.9840   31.1810   35.9450 N   0  0  0  0  0  0  0  0  0  0  0  0
   32.0200   31.9690   37.0380 C   0  0  0  0  0  0  0  0  0  0  0  0
   33.2860   32.2670   37.3560 N   0  0  0  0  0  0  0  0  0  0  0  0
   34.0890   31.6570   36.4490 C   0  0  0  0  0  0  0  0  0  0  0  0
   35.4660   31.5890   36.2520 C   0  0  0  0  0  0  0  0  0  0  0  0
   37.0450   30.8440   35.0990 H   0  0  0  0  0  0  0  0  0  0  0  0
   33.1050   29.7190   33.8320 H   0  0  0  0  0  0  0  0  0  0  0  0
   31.0850   30.8380   35.5360 H   0  0  0  0  0  0  0  0  0  0  0  0
   31.2640   32.3910   37.6800 H   0  0  0  0  0  0  0  0  0  0  0  0
   36.0990   32.1240   36.9470 H   0  0  0  0  0  0  0  0  0  0  0  0
   37.6860   26.3090   33.0060 C   0  0  0  0  0  0  0  0  0  0  0  0
   37.0890   25.2000   33.0350 O   0  0  0  0  0  0  0  0  0  0  0  0
   39.0240   26.4440   33.3540 O   0  0  0  0  0  0  0  0  0  0  0  0
   39.3000   25.2160   35.6580 O   0  0  0  0  0  0  0  0  0  0  0  0
   39.5800   26.5480   34.9800 P   0  0  0  0  0  0  0  0  0  0  0  0
   41.2510   26.7620   35.0120 O   0  0  0  0  0  0  0  0  0  0  0  0
   41.5560   27.2740   34.2230 H   0  0  0  0  0  0  0  0  0  0  0  0
   38.7430   27.7300   35.8320 O   0  0  0  0  0  0  0  0  0  0  0  0
   38.7770   27.4780   36.7920 H   0  0  0  0  0  0  0  0  0  0  0  0
  1  6  2  0  0  0  0
  1  2  1  0  0  0  0
  2  3  2  0  0  0  0
  3  4  1  0  0  0  0
  3 10  1  0  0  0  0
  5 23  1  0  0  0  0
  5  4  2  0  0  0  0
  6  5  1  0  0  0  0
  7  1  1  0  0  0  0
  8  2  1  0  0  0  0
  9 17  1  0  0  0  0
 10 11  1  0  0  0  0
 10  9  2  0  0  0  0
 11 12  2  0  0  0  0
 12 13  1  0  0  0  0
 12 16  1  0  0  0  0
 13 14  1  0  0  0  0
 14 15  2  0  0  0  0
 14 21  1  0  0  0  0
 16 15  1  0  0  0  0
 17 16  2  0  0  0  0
 17 22  1  0  0  0  0
 18  9  1  0  0  0  0
 19 11  1  0  0  0  0
 20 13  1  0  0  0  0
 23 24  2  0  0  0  0
 23 25  1  0  0  0  0
 25 27  1  0  0  0  0
 27 28  1  0  0  0  0
 27 26  2  0  0  0  0
 27 30  1  0  0  0  0
 29 28  1  0  0  0  0
 30 31  1  0  0  0  0
M  END
>  <minimizedAffinity>
-5.42563677

$$$$

 OpenBabel03262523313D

 31 33  0  0  0  0  0  0  0  0999 V2000
   37.3150   28.3160   31.8600 C   0  0  0  0  0  0  0  0  0  0  0  0
   37.9310   27.2760   32.5490 C   0  0  0  0  0  0  0  0  0  0  0  0
   37.5270   27.0200   33.8670 C   0  0  0  0  0  0  0  0  0  0  0  0
   36.5450   27.7990   34.4310 N   0  0  0  0  0  0  0  0  0  0  0  0
   35.9790   28.7990   33.7100 C   0  0  0  0  0  0  0  0  0  0  0  0
   36.3540   29.0550   32.4500 N   0  0  0  0  0  0  0  0  0  0  0  0
   37.6040   28.5380   30.8430 H   0  0  0  0  0  0  0  0  0  0  0  0
   38.6920   26.6680   32.1230 H   0  0  0  0  0  0  0  0  0  0  0  0
   39.0810   25.1840   34.1260 C   0  0  0  0  0  0  0  0  0  0  0  0
   38.0920   25.9660   34.6920 C   0  0  0  0  0  0  0  0  0  0  0  0
   37.6740   25.7300   35.9960 C   0  0  0  0  0  0  0  0  0  0  0  0
   38.2710   24.7060   36.6990 C   0  0  0  0  0  0  0  0  0  0  0  0
   38.0520   24.2750   37.9650 N   0  0  0  0  0  0  0  0  0  0  0  0
   38.8870   23.2410   38.1920 C   0  0  0  0  0  0  0  0  0  0  0  0
   39.6350   22.9990   37.1070 N   0  0  0  0  0  0  0  0  0  0  0  0
   39.2750   23.8960   36.1560 C   0  0  0  0  0  0  0  0  0  0  0  0
   39.6800   24.1470   34.8470 C   0  0  0  0  0  0  0  0  0  0  0  0
   39.4470   25.3130   33.1260 H   0  0  0  0  0  0  0  0  0  0  0  0
   36.9140   26.3300   36.4340 H   0  0  0  0  0  0  0  0  0  0  0  0
   37.3850   24.6210   38.6910 H   0  0  0  0  0  0  0  0  0  0  0  0
   39.0660   22.5980   39.0380 H   0  0  0  0  0  0  0  0  0  0  0  0
   40.4560   23.5180   34.4320 H   0  0  0  0  0  0  0  0  0  0  0  0
   34.9420   29.5950   34.3520 C   0  0  0  0  0  0  0  0  0  0  0  0
   33.7200   29.3660   34.1550 O   0  0  0  0  0  0  0  0  0  0  0  0
   35.3850   30.6120   35.1880 O   0  0  0  0  0  0  0  0  0  0  0  0
   34.1460   32.9270   35.1850 O   0  0  0  0  0  0  0  0  0  0  0  0
   34.3300   31.6780   36.0330 P   0  0  0  0  0  0  0  0  0  0  0  0
   32.8060   30.9800   36.1990 O   0  0  0  0  0  0  0  0  0  0  0  0
   32.8740   29.9970   36.2720 H   0  0  0  0  0  0  0  0  0  0  0  0
   35.0020   32.1600   37.4960 O   0  0  0  0  0  0  0  0  0  0  0  0
   34.6030   33.0400   37.7250 H   0  0  0  0  0  0  0  0  0  0  0  0
  1  6  2  0  0  0  0
  1  2  1  0  0  0  0
  2  3  2  0  0  0  0
  3  4  1  0  0  0  0
  3 10  1  0  0  0  0
  5 23  1  0  0  0  0
  5  4  2  0  0  0  0
  6  5  1  0  0  0  0
  7  1  1  0  0  0  0
  8  2  1  0  0  0  0
  9 10  2  0  0  0  0
  9 17  1  0  0  0  0
 10 11  1  0  0  0  0
 11 19  1  0  0  0  0
 11 12  2  0  0  0  0
 12 13  1  0  0  0  0
 13 14  1  0  0  0  0
 13 20  1  0  0  0  0
 14 21  1  0  0  0  0
 15 14  2  0  0  0  0
 16 12  1  0  0  0  0
 16 15  1  0  0  0  0
 17 16  2  0  0  0  0
 18  9  1  0  0  0  0
 22 17  1  0  0  0  0
 23 25  1  0  0  0  0
 24 23  2  0  0  0  0
 25 27  1  0  0  0  0
 26 27  2  0  0  0  0
 27 28  1  0  0  0  0
 27 30  1  0  0  0  0
 28 29  1  0  0  0  0
 30 31  1  0  0  0  0
M  END
>  <minimizedAffinity>
-5.41955471

$$$$

 OpenBabel03262523313D

 31 33  0  0  0  0  0  0  0  0999 V2000
   35.5370   29.6730   31.6120 C   0  0  0  0  0  0  0  0  0  0  0  0
   36.2920   28.6260   32.1310 C   0  0  0  0  0  0  0  0  0  0  0  0
   36.3190   28.4510   33.5210 C   0  0  0  0  0  0  0  0  0  0  0  0
   35.6060   29.3120   34.3210 N   0  0  0  0  0  0  0  0  0  0  0  0
   34.8860   30.3150   33.7580 C   0  0  0  0  0  0  0  0  0  0  0  0
   34.8510   30.4940   32.4310 N   0  0  0  0  0  0  0  0  0  0  0  0
   35.4960   29.8340   30.5450 H   0  0  0  0  0  0  0  0  0  0  0  0
   36.8480   27.9550   31.5230 H   0  0  0  0  0  0  0  0  0  0  0  0
   37.6250   27.6990   35.4150 C   0  0  0  0  0  0  0  0  0  0  0  0
   37.0680   27.3980   34.1860 C   0  0  0  0  0  0  0  0  0  0  0  0
   37.2350   26.1330   33.6330 C   0  0  0  0  0  0  0  0  0  0  0  0
   37.9630   25.2020   34.3410 C   0  0  0  0  0  0  0  0  0  0  0  0
   38.2680   23.9180   34.0330 N   0  0  0  0  0  0  0  0  0  0  0  0
   39.0030   23.4210   35.0480 C   0  0  0  0  0  0  0  0  0  0  0  0
   39.1760   24.3490   35.9970 N   0  0  0  0  0  0  0  0  0  0  0  0
   38.5390   25.4740   35.5870 C   0  0  0  0  0  0  0  0  0  0  0  0
   38.3610   26.7470   36.1240 C   0  0  0  0  0  0  0  0  0  0  0  0
   37.5340   28.6550   35.8940 H   0  0  0  0  0  0  0  0  0  0  0  0
   36.8090   25.8990   32.6890 H   0  0  0  0  0  0  0  0  0  0  0  0
   38.0220   23.3470   33.1930 H   0  0  0  0  0  0  0  0  0  0  0  0
   39.4600   22.4630   35.2400 H   0  0  0  0  0  0  0  0  0  0  0  0
   38.8090   26.9530   37.0870 H   0  0  0  0  0  0  0  0  0  0  0  0
   34.1470   31.2000   34.6470 C   0  0  0  0  0  0  0  0  0  0  0  0
   34.3540   32.4420   34.6610 O   0  0  0  0  0  0  0  0  0  0  0  0
   33.2080   30.5920   35.4700 O   0  0  0  0  0  0  0  0  0  0  0  0
   31.5400   32.1790   36.7310 O   0  0  0  0  0  0  0  0  0  0  0  0
   32.7070   31.2370   36.9850 P   0  0  0  0  0  0  0  0  0  0  0  0
   32.1250   30.0070   37.9790 O   0  0  0  0  0  0  0  0  0  0  0  0
   32.5940   29.1560   37.7970 H   0  0  0  0  0  0  0  0  0  0  0  0
   33.9350   32.1390   37.6940 O   0  0  0  0  0  0  0  0  0  0  0  0
   33.5010   32.8020   38.2940 H   0  0  0  0  0  0  0  0  0  0  0  0
  1  2  2  0  0  0  0
  1  6  1  0  0  0  0
  2  3  1  0  0  0  0
  3 10  1  0  0  0  0
  3  4  2  0  0  0  0
  5  4  1  0  0  0  0
  5 23  1  0  0  0  0
  6  5  2  0  0  0  0
  7  1  1  0  0  0  0
  8  2  1  0  0  0  0
  9 18  1  0  0  0  0
  9 17  1  0  0  0  0
 10  9  2  0  0  0  0
 11 10  1  0  0  0  0
 11 12  2  0  0  0  0
 12 16  1  0  0  0  0
 13 12  1  0  0  0  0
 13 14  1  0  0  0  0
 14 21  1  0  0  0  0
 14 15  2  0  0  0  0
 16 15  1  0  0  0  0
 16 17  2  0  0  0  0
 17 22  1  0  0  0  0
 19 11  1  0  0  0  0
 20 13  1  0  0  0  0
 23 24  2  0  0  0  0
 23 25  1  0  0  0  0
 25 27  1  0  0  0  0
 26 27  2  0  0  0  0
 27 30  1  0  0  0  0
 27 28  1  0  0  0  0
 29 28  1  0  0  0  0
 30 31  1  0  0  0  0
M  END
>  <minimizedAffinity>
-5.4171567

$$$$

 OpenBabel03262523313D

 31 33  0  0  0  0  0  0  0  0999 V2000
   36.6750   27.0120   32.2840 C   0  0  0  0  0  0  0  0  0  0  0  0
   36.1220   28.2520   32.5870 C   0  0  0  0  0  0  0  0  0  0  0  0
   36.1730   28.6970   33.9150 C   0  0  0  0  0  0  0  0  0  0  0  0
   36.7640   27.9000   34.8680 N   0  0  0  0  0  0  0  0  0  0  0  0
   37.2880   26.7000   34.5130 C   0  0  0  0  0  0  0  0  0  0  0  0
   37.2460   26.2620   33.2480 N   0  0  0  0  0  0  0  0  0  0  0  0
   36.6510   26.6420   31.2700 H   0  0  0  0  0  0  0  0  0  0  0  0
   35.6630   28.8760   31.8590 H   0  0  0  0  0  0  0  0  0  0  0  0
   35.0250   30.7650   33.4060 C   0  0  0  0  0  0  0  0  0  0  0  0
   35.6320   29.9700   34.3590 C   0  0  0  0  0  0  0  0  0  0  0  0
   35.7070   30.3960   35.6800 C   0  0  0  0  0  0  0  0  0  0  0  0
   35.1640   31.6200   36.0040 C   0  0  0  0  0  0  0  0  0  0  0  0
   35.1040   32.2580   37.1980 N   0  0  0  0  0  0  0  0  0  0  0  0
   34.4730   33.4330   37.0000 C   0  0  0  0  0  0  0  0  0  0  0  0
   34.1250   33.5640   35.7130 N   0  0  0  0  0  0  0  0  0  0  0  0
   34.5430   32.4490   35.0630 C   0  0  0  0  0  0  0  0  0  0  0  0
   34.4780   32.0050   33.7440 C   0  0  0  0  0  0  0  0  0  0  0  0
   34.9360   30.4950   32.3710 H   0  0  0  0  0  0  0  0  0  0  0  0
   36.1730   29.7870   36.4160 H   0  0  0  0  0  0  0  0  0  0  0  0
   35.4550   31.9670   38.1380 H   0  0  0  0  0  0  0  0  0  0  0  0
   34.2020   34.2530   37.6440 H   0  0  0  0  0  0  0  0  0  0  0  0
   33.9970   32.6500   33.0210 H   0  0  0  0  0  0  0  0  0  0  0  0
   37.9020   25.8940   35.5580 C   0  0  0  0  0  0  0  0  0  0  0  0
   38.3370   26.4120   36.6190 O   0  0  0  0  0  0  0  0  0  0  0  0
   37.9750   24.5290   35.3110 O   0  0  0  0  0  0  0  0  0  0  0  0
   39.7810   23.1850   36.6620 O   0  0  0  0  0  0  0  0  0  0  0  0
   38.2750   23.3540   36.5320 P   0  0  0  0  0  0  0  0  0  0  0  0
   37.7240   23.9090   38.0240 O   0  0  0  0  0  0  0  0  0  0  0  0
   36.9340   24.4920   37.9130 H   0  0  0  0  0  0  0  0  0  0  0  0
   37.6380   21.8590   36.1030 O   0  0  0  0  0  0  0  0  0  0  0  0
   38.1690   21.1680   36.5790 H   0  0  0  0  0  0  0  0  0  0  0  0
  1  2  2  0  0  0  0
  1  6  1  0  0  0  0
  2  3  1  0  0  0  0
  3 10  1  0  0  0  0
  3  4  2  0  0  0  0
  5  4  1  0  0  0  0
  5 23  1  0  0  0  0
  6  5  2  0  0  0  0
  7  1  1  0  0  0  0
  8  2  1  0  0  0  0
  9 17  2  0  0  0  0
  9 10  1  0  0  0  0
 10 11  2  0  0  0  0
 11 12  1  0  0  0  0
 11 19  1  0  0  0  0
 12 13  1  0  0  0  0
 13 20  1  0  0  0  0
 14 13  1  0  0  0  0
 14 21  1  0  0  0  0
 15 14  2  0  0  0  0
 16 15  1  0  0  0  0
 16 12  2  0  0  0  0
 17 16  1  0  0  0  0
 18  9  1  0  0  0  0
 22 17  1  0  0  0  0
 23 24  2  0  0  0  0
 25 23  1  0  0  0  0
 25 27  1  0  0  0  0
 27 26  2  0  0  0  0
 27 28  1  0  0  0  0
 29 28  1  0  0  0  0
 30 27  1  0  0  0  0
 30 31  1  0  0  0  0
M  END
>  <minimizedAffinity>
-5.40607214

$$$$

 OpenBabel03262523313D

 31 33  0  0  0  0  0  0  0  0999 V2000
   35.5830   29.3720   31.8290 C   0  0  0  0  0  0  0  0  0  0  0  0
   36.1610   28.1440   32.1320 C   0  0  0  0  0  0  0  0  0  0  0  0
   36.4760   27.8680   33.4690 C   0  0  0  0  0  0  0  0  0  0  0  0
   36.2070   28.8140   34.4310 N   0  0  0  0  0  0  0  0  0  0  0  0
   35.6410   29.9950   34.0770 C   0  0  0  0  0  0  0  0  0  0  0  0
   35.3340   30.2710   32.8020 N   0  0  0  0  0  0  0  0  0  0  0  0
   35.3280   29.6140   30.8080 H   0  0  0  0  0  0  0  0  0  0  0  0
   36.3740   27.4060   31.3970 H   0  0  0  0  0  0  0  0  0  0  0  0
   37.3620   25.6780   32.9480 C   0  0  0  0  0  0  0  0  0  0  0  0
   37.0820   26.6250   33.9140 C   0  0  0  0  0  0  0  0  0  0  0  0
   37.3790   26.3720   35.2490 C   0  0  0  0  0  0  0  0  0  0  0  0
   37.9540   25.1620   35.5720 C   0  0  0  0  0  0  0  0  0  0  0  0
   38.3360   24.6740   36.7770 N   0  0  0  0  0  0  0  0  0  0  0  0
   38.8460   23.4420   36.5720 C   0  0  0  0  0  0  0  0  0  0  0  0
   38.8010   23.1290   35.2710 N   0  0  0  0  0  0  0  0  0  0  0  0
   38.2490   24.1820   34.6180 C   0  0  0  0  0  0  0  0  0  0  0  0
   37.9440   24.4540   33.2860 C   0  0  0  0  0  0  0  0  0  0  0  0
   37.1560   25.8110   31.9030 H   0  0  0  0  0  0  0  0  0  0  0  0
   37.1660   27.0980   35.9940 H   0  0  0  0  0  0  0  0  0  0  0  0
   38.2820   25.1020   37.7280 H   0  0  0  0  0  0  0  0  0  0  0  0
   39.2650   22.6910   37.2210 H   0  0  0  0  0  0  0  0  0  0  0  0
   38.1740   23.6930   32.5530 H   0  0  0  0  0  0  0  0  0  0  0  0
   35.3750   30.9620   35.1310 C   0  0  0  0  0  0  0  0  0  0  0  0
   36.3090   31.5050   35.7780 O   0  0  0  0  0  0  0  0  0  0  0  0
   34.0370   31.2450   35.3750 O   0  0  0  0  0  0  0  0  0  0  0  0
   32.6790   30.9180   37.5980 O   0  0  0  0  0  0  0  0  0  0  0  0
   33.4650   31.9690   36.8280 P   0  0  0  0  0  0  0  0  0  0  0  0
   34.7610   32.4130   37.8080 O   0  0  0  0  0  0  0  0  0  0  0  0
   35.5450   32.6670   37.2620 H   0  0  0  0  0  0  0  0  0  0  0  0
   32.4150   33.2390   36.4990 O   0  0  0  0  0  0  0  0  0  0  0  0
   31.8150   33.3330   37.2850 H   0  0  0  0  0  0  0  0  0  0  0  0
  1  2  2  0  0  0  0
  1  6  1  0  0  0  0
  2  3  1  0  0  0  0
  3 10  1  0  0  0  0
  3  4  2  0  0  0  0
  5  4  1  0  0  0  0
  5 23  1  0  0  0  0
  6  5  2  0  0  0  0
  7  1  1  0  0  0  0
  8  2  1  0  0  0  0
  9 17  2  0  0  0  0
  9 10  1  0  0  0  0
 10 11  2  0  0  0  0
 11 12  1  0  0  0  0
 11 19  1  0  0  0  0
 12 13  1  0  0  0  0
 13 20  1  0  0  0  0
 14 13  1  0  0  0  0
 14 21  1  0  0  0  0
 15 14  2  0  0  0  0
 16 15  1  0  0  0  0
 16 12  2  0  0  0  0
 17 16  1  0  0  0  0
 18  9  1  0  0  0  0
 22 17  1  0  0  0  0
 23 25  1  0  0  0  0
 23 24  2  0  0  0  0
 25 27  1  0  0  0  0
 27 26  2  0  0  0  0
 27 28  1  0  0  0  0
 29 28  1  0  0  0  0
 30 27  1  0  0  0  0
 30 31  1  0  0  0  0
M  END
>  <minimizedAffinity>
-5.36611605

$$$$

 OpenBabel03262523313D

 31 33  0  0  0  0  0  0  0  0999 V2000
   36.7840   28.9560   30.9740 C   0  0  0  0  0  0  0  0  0  0  0  0
   36.0340   29.7340   31.8490 C   0  0  0  0  0  0  0  0  0  0  0  0
   35.8450   29.2710   33.1580 C   0  0  0  0  0  0  0  0  0  0  0  0
   36.4020   28.0710   33.5320 N   0  0  0  0  0  0  0  0  0  0  0  0
   37.1250   27.3540   32.6350 C   0  0  0  0  0  0  0  0  0  0  0  0
   37.3150   27.7850   31.3810 N   0  0  0  0  0  0  0  0  0  0  0  0
   36.9480   29.2860   29.9590 H   0  0  0  0  0  0  0  0  0  0  0  0
   35.5980   30.6630   31.5710 H   0  0  0  0  0  0  0  0  0  0  0  0
   33.7230   29.7440   34.2210 C   0  0  0  0  0  0  0  0  0  0  0  0
   35.0830   29.9890   34.1650 C   0  0  0  0  0  0  0  0  0  0  0  0
   35.6680   30.8900   35.0470 C   0  0  0  0  0  0  0  0  0  0  0  0
   34.8600   31.5220   35.9670 C   0  0  0  0  0  0  0  0  0  0  0  0
   35.1750   32.4280   36.9240 N   0  0  0  0  0  0  0  0  0  0  0  0
   34.0350   32.7490   37.5700 C   0  0  0  0  0  0  0  0  0  0  0  0
   33.0010   32.0720   37.0540 N   0  0  0  0  0  0  0  0  0  0  0  0
   33.4820   31.2960   36.0500 C   0  0  0  0  0  0  0  0  0  0  0  0
   32.9130   30.3910   35.1580 C   0  0  0  0  0  0  0  0  0  0  0  0
   33.2110   29.0630   33.5690 H   0  0  0  0  0  0  0  0  0  0  0  0
   36.7120   31.0800   35.0070 H   0  0  0  0  0  0  0  0  0  0  0  0
   36.0960   32.8510   37.1790 H   0  0  0  0  0  0  0  0  0  0  0  0
   33.8010   33.4130   38.3860 H   0  0  0  0  0  0  0  0  0  0  0  0
   31.8470   30.2200   35.2260 H   0  0  0  0  0  0  0  0  0  0  0  0
   37.6950   26.0900   33.0800 C   0  0  0  0  0  0  0  0  0  0  0  0
   38.3640   25.3600   32.3030 O   0  0  0  0  0  0  0  0  0  0  0  0
   37.4560   25.7460   34.4040 O   0  0  0  0  0  0  0  0  0  0  0  0
   39.9480   25.7240   35.2320 O   0  0  0  0  0  0  0  0  0  0  0  0
   38.5460   26.0930   35.6910 P   0  0  0  0  0  0  0  0  0  0  0  0
   38.5650   27.7480   36.0080 O   0  0  0  0  0  0  0  0  0  0  0  0
   37.6820   28.1520   35.8240 H   0  0  0  0  0  0  0  0  0  0  0  0
   38.1990   25.1610   37.0460 O   0  0  0  0  0  0  0  0  0  0  0  0
   39.0430   25.0730   37.5630 H   0  0  0  0  0  0  0  0  0  0  0  0
  1  6  2  0  0  0  0
  1  2  1  0  0  0  0
  2  3  2  0  0  0  0
  3  4  1  0  0  0  0
  3 10  1  0  0  0  0
  5 23  1  0  0  0  0
  5  4  2  0  0  0  0
  6  5  1  0  0  0  0
  7  1  1  0  0  0  0
  8  2  1  0  0  0  0
  9 17  1  0  0  0  0
 10  9  2  0  0  0  0
 10 11  1  0  0  0  0
 11 12  2  0  0  0  0
 12 16  1  0  0  0  0
 12 13  1  0  0  0  0
 13 20  1  0  0  0  0
 13 14  1  0  0  0  0
 14 21  1  0  0  0  0
 15 14  2  0  0  0  0
 16 15  1  0  0  0  0
 17 22  1  0  0  0  0
 17 16  2  0  0  0  0
 18  9  1  0  0  0  0
 19 11  1  0  0  0  0
 23 25  1  0  0  0  0
 24 23  2  0  0  0  0
 25 27  1  0  0  0  0
 26 27  2  0  0  0  0
 27 28  1  0  0  0  0
 27 30  1  0  0  0  0
 29 28  1  0  0  0  0
 30 31  1  0  0  0  0
M  END
>  <minimizedAffinity>
-5.31326628

$$$$
