
 OpenBabel03272510293D

 26 27  0  0  0  0  0  0  0  0999 V2000
   37.1900   31.3190   49.1910 C   0  0  0  0  0  0  0  0  0  0  0  0
   37.3620   32.5660   49.7970 C   0  0  0  0  0  0  0  0  0  0  0  0
   38.3210   33.3910   49.2070 C   0  0  0  0  0  0  0  0  0  0  0  0
   39.0130   32.9480   48.1090 N   0  0  0  0  0  0  0  0  0  0  0  0
   38.8010   31.7260   47.5640 C   0  0  0  0  0  0  0  0  0  0  0  0
   37.8670   30.8850   48.1170 N   0  0  0  0  0  0  0  0  0  0  0  0
   36.7910   32.8580   50.6560 H   0  0  0  0  0  0  0  0  0  0  0  0
   38.5140   34.3730   49.6160 H   0  0  0  0  0  0  0  0  0  0  0  0
   36.1430   30.4200   49.7780 C   0  0  0  0  0  0  0  0  0  0  0  0
   36.1470   28.9880   49.5930 C   0  0  0  0  0  0  0  0  0  0  0  0
   36.6800   29.5280   50.9070 C   0  0  0  0  0  0  0  0  0  0  0  0
   35.2010   30.9830   50.0510 H   0  0  0  0  0  0  0  0  0  0  0  0
   36.9090   28.4840   48.9650 H   0  0  0  0  0  0  0  0  0  0  0  0
   35.1920   28.4280   49.6050 H   0  0  0  0  0  0  0  0  0  0  0  0
   36.0000   29.4020   51.7730 H   0  0  0  0  0  0  0  0  0  0  0  0
   37.7660   29.5030   51.0930 H   0  0  0  0  0  0  0  0  0  0  0  0
   39.5220   31.2600   46.3870 C   0  0  0  0  0  0  0  0  0  0  0  0
   40.5610   30.9030   46.6080 H   0  0  0  0  0  0  0  0  0  0  0  0
   39.0160   30.4040   45.9260 H   0  0  0  0  0  0  0  0  0  0  0  0
   39.6940   32.3570   45.5420 O   0  0  0  0  0  0  0  0  0  0  0  0
   38.8610   30.8300   43.6250 O   0  0  0  0  0  0  0  0  0  0  0  0
   38.7700   32.2470   44.1370 P   0  0  0  0  0  0  0  0  0  0  0  0
   37.1670   32.7270   44.3740 O   0  0  0  0  0  0  0  0  0  0  0  0
   36.7500   32.0220   44.9580 H   0  0  0  0  0  0  0  0  0  0  0  0
   39.4110   33.2970   42.9620 O   0  0  0  0  0  0  0  0  0  0  0  0
   39.2300   34.2180   43.2360 H   0  0  0  0  0  0  0  0  0  0  0  0
  1  9  1  0  0  0  0
  1  2  1  0  0  0  0
  2  7  1  0  0  0  0
  3  8  1  0  0  0  0
  3  2  2  0  0  0  0
  4  3  1  0  0  0  0
  5  4  2  0  0  0  0
  5  6  1  0  0  0  0
  6  1  2  0  0  0  0
  9 12  1  0  0  0  0
  9 11  1  0  0  0  0
 10 14  1  0  0  0  0
 10  9  1  0  0  0  0
 10 11  1  0  0  0  0
 11 16  1  0  0  0  0
 11 15  1  0  0  0  0
 13 10  1  0  0  0  0
 17 18  1  0  0  0  0
 17  5  1  0  0  0  0
 19 17  1  0  0  0  0
 20 17  1  0  0  0  0
 21 22  2  0  0  0  0
 22 23  1  0  0  0  0
 22 20  1  0  0  0  0
 23 24  1  0  0  0  0
 25 26  1  0  0  0  0
 25 22  1  0  0  0  0
M  END
>  <minimizedAffinity>
-5.15733862

>  <minimizedRMSD>
1.82853425

$$$$
