
 OpenBabel03272507063D

 29 31  0  0  0  0  0  0  0  0999 V2000
   40.5100   25.5880   34.6780 C   0  0  0  0  0  0  0  0  0  0  0  0
   40.0090   24.5190   35.4480 C   0  0  0  0  0  0  0  0  0  0  0  0
   38.6140   24.4610   35.6070 C   0  0  0  0  0  0  0  0  0  0  0  0
   37.8480   25.4140   35.0210 N   0  0  0  0  0  0  0  0  0  0  0  0
   38.3540   26.4140   34.2970 C   0  0  0  0  0  0  0  0  0  0  0  0
   39.6860   26.5010   34.1250 N   0  0  0  0  0  0  0  0  0  0  0  0
   41.5700   25.5910   34.5850 H   0  0  0  0  0  0  0  0  0  0  0  0
   40.5740   23.7560   35.9200 H   0  0  0  0  0  0  0  0  0  0  0  0
   37.5700   27.6800   32.3360 C   0  0  0  0  0  0  0  0  0  0  0  0
   37.4750   27.4120   33.6910 C   0  0  0  0  0  0  0  0  0  0  0  0
   36.5610   28.0670   34.5080 C   0  0  0  0  0  0  0  0  0  0  0  0
   35.7170   29.0180   33.9520 C   0  0  0  0  0  0  0  0  0  0  0  0
   34.7550   29.7990   34.4650 N   0  0  0  0  0  0  0  0  0  0  0  0
   34.2960   30.5180   33.3970 C   0  0  0  0  0  0  0  0  0  0  0  0
   34.9480   30.1900   32.2810 N   0  0  0  0  0  0  0  0  0  0  0  0
   35.8490   29.2510   32.5910 C   0  0  0  0  0  0  0  0  0  0  0  0
   36.7420   28.6190   31.7650 C   0  0  0  0  0  0  0  0  0  0  0  0
   38.2860   27.1630   31.7080 H   0  0  0  0  0  0  0  0  0  0  0  0
   36.4640   27.8800   35.5690 H   0  0  0  0  0  0  0  0  0  0  0  0
   34.4450   29.8300   35.4650 H   0  0  0  0  0  0  0  0  0  0  0  0
   33.4900   31.2430   33.5530 H   0  0  0  0  0  0  0  0  0  0  0  0
   36.8250   28.8160   30.7210 H   0  0  0  0  0  0  0  0  0  0  0  0
   37.9290   23.4910   36.3260 O   0  0  0  0  0  0  0  0  0  0  0  0
   38.0620   24.7300   38.6290 O   0  0  0  0  0  0  0  0  0  0  0  0
   38.1980   23.3700   38.0110 P   0  0  0  0  0  0  0  0  0  0  0  0
   37.0280   22.3450   38.7070 O   0  0  0  0  0  0  0  0  0  0  0  0
   36.1420   22.5070   38.2690 H   0  0  0  0  0  0  0  0  0  0  0  0
   39.6970   22.6500   38.3650 O   0  0  0  0  0  0  0  0  0  0  0  0
   39.6060   21.6570   38.3280 H   0  0  0  0  0  0  0  0  0  0  0  0
  1  2  1  0  0  0  0
  2  3  2  0  0  0  0
  2  8  1  0  0  0  0
  3 23  1  0  0  0  0
  4  3  1  0  0  0  0
  5  4  2  0  0  0  0
  6  5  1  0  0  0  0
  6  1  2  0  0  0  0
  7  1  1  0  0  0  0
  9 10  1  0  0  0  0
 10  5  1  0  0  0  0
 10 11  2  0  0  0  0
 11 19  1  0  0  0  0
 12 13  1  0  0  0  0
 12 11  1  0  0  0  0
 13 20  1  0  0  0  0
 14 21  1  0  0  0  0
 14 13  1  0  0  0  0
 15 16  1  0  0  0  0
 15 14  2  0  0  0  0
 16 12  2  0  0  0  0
 17  9  2  0  0  0  0
 17 16  1  0  0  0  0
 18  9  1  0  0  0  0
 22 17  1  0  0  0  0
 23 25  1  0  0  0  0
 25 28  1  0  0  0  0
 25 24  2  0  0  0  0
 25 26  1  0  0  0  0
 27 26  1  0  0  0  0
 29 28  1  0  0  0  0
M  END
>  <minimizedAffinity>
-5.58946609

$$$$

 OpenBabel03272507063D

 29 31  0  0  0  0  0  0  0  0999 V2000
   36.6380   28.7590   31.8590 C   0  0  0  0  0  0  0  0  0  0  0  0
   37.1420   27.5310   32.3310 C   0  0  0  0  0  0  0  0  0  0  0  0
   36.9590   27.2600   33.6970 C   0  0  0  0  0  0  0  0  0  0  0  0
   36.3190   28.1760   34.4660 N   0  0  0  0  0  0  0  0  0  0  0  0
   35.8520   29.3310   33.9880 C   0  0  0  0  0  0  0  0  0  0  0  0
   36.0110   29.6230   32.6840 N   0  0  0  0  0  0  0  0  0  0  0  0
   36.7990   28.9200   30.8190 H   0  0  0  0  0  0  0  0  0  0  0  0
   37.6460   26.7900   31.7620 H   0  0  0  0  0  0  0  0  0  0  0  0
   35.9150   31.1350   35.6620 C   0  0  0  0  0  0  0  0  0  0  0  0
   35.1710   30.2790   34.8680 C   0  0  0  0  0  0  0  0  0  0  0  0
   33.7810   30.2880   34.8760 C   0  0  0  0  0  0  0  0  0  0  0  0
   33.1150   31.1820   35.7030 C   0  0  0  0  0  0  0  0  0  0  0  0
   31.8170   31.4260   35.9290 N   0  0  0  0  0  0  0  0  0  0  0  0
   31.8160   32.4280   36.8580 C   0  0  0  0  0  0  0  0  0  0  0  0
   33.0600   32.7810   37.1850 N   0  0  0  0  0  0  0  0  0  0  0  0
   33.9030   32.0190   36.4800 C   0  0  0  0  0  0  0  0  0  0  0  0
   35.2740   32.0280   36.4900 C   0  0  0  0  0  0  0  0  0  0  0  0
   36.9980   31.1190   35.6480 H   0  0  0  0  0  0  0  0  0  0  0  0
   33.1740   29.6330   34.2660 H   0  0  0  0  0  0  0  0  0  0  0  0
   31.0040   30.9420   35.4790 H   0  0  0  0  0  0  0  0  0  0  0  0
   30.8570   32.8170   37.2170 H   0  0  0  0  0  0  0  0  0  0  0  0
   35.8570   32.6820   37.0970 H   0  0  0  0  0  0  0  0  0  0  0  0
   37.3810   26.1110   34.3500 O   0  0  0  0  0  0  0  0  0  0  0  0
   38.1290   25.2920   36.7220 O   0  0  0  0  0  0  0  0  0  0  0  0
   38.5010   26.2570   35.6360 P   0  0  0  0  0  0  0  0  0  0  0  0
   40.0640   25.8650   35.0830 O   0  0  0  0  0  0  0  0  0  0  0  0
   40.0090   25.0950   34.4450 H   0  0  0  0  0  0  0  0  0  0  0  0
   38.6100   27.8550   36.2050 O   0  0  0  0  0  0  0  0  0  0  0  0
   39.2370   28.3720   35.6260 H   0  0  0  0  0  0  0  0  0  0  0  0
  1  2  2  0  0  0  0
  1  6  1  0  0  0  0
  2  3  1  0  0  0  0
  3 23  1  0  0  0  0
  3  4  2  0  0  0  0
  5  4  1  0  0  0  0
  5 10  1  0  0  0  0
  6  5  2  0  0  0  0
  7  1  1  0  0  0  0
  8  2  1  0  0  0  0
  9 17  1  0  0  0  0
 10 11  1  0  0  0  0
 10  9  2  0  0  0  0
 11 12  2  0  0  0  0
 12 13  1  0  0  0  0
 12 16  1  0  0  0  0
 13 14  1  0  0  0  0
 14 15  2  0  0  0  0
 14 21  1  0  0  0  0
 16 17  2  0  0  0  0
 16 15  1  0  0  0  0
 17 22  1  0  0  0  0
 18  9  1  0  0  0  0
 19 11  1  0  0  0  0
 20 13  1  0  0  0  0
 23 25  1  0  0  0  0
 25 28  1  0  0  0  0
 25 24  2  0  0  0  0
 26 25  1  0  0  0  0
 27 26  1  0  0  0  0
 29 28  1  0  0  0  0
M  END
>  <minimizedAffinity>
-5.50248671

$$$$

 OpenBabel03272507063D

 29 31  0  0  0  0  0  0  0  0999 V2000
   36.8310   28.7200   31.6030 C   0  0  0  0  0  0  0  0  0  0  0  0
   37.4940   27.5690   32.0760 C   0  0  0  0  0  0  0  0  0  0  0  0
   37.2890   27.2360   33.4250 C   0  0  0  0  0  0  0  0  0  0  0  0
   36.4800   28.0240   34.1770 N   0  0  0  0  0  0  0  0  0  0  0  0
   35.8660   29.1080   33.7000 C   0  0  0  0  0  0  0  0  0  0  0  0
   36.0420   29.4560   32.4110 N   0  0  0  0  0  0  0  0  0  0  0  0
   37.0170   28.9320   30.5770 H   0  0  0  0  0  0  0  0  0  0  0  0
   38.1320   26.9290   31.5200 H   0  0  0  0  0  0  0  0  0  0  0  0
   33.6340   29.7450   34.5190 C   0  0  0  0  0  0  0  0  0  0  0  0
   35.0070   29.9170   34.5610 C   0  0  0  0  0  0  0  0  0  0  0  0
   35.6080   30.8430   35.4060 C   0  0  0  0  0  0  0  0  0  0  0  0
   34.8100   31.6210   36.2340 C   0  0  0  0  0  0  0  0  0  0  0  0
   35.0840   32.5740   37.1350 N   0  0  0  0  0  0  0  0  0  0  0  0
   33.8600   32.9510   37.6130 C   0  0  0  0  0  0  0  0  0  0  0  0
   32.8820   32.2580   37.0290 N   0  0  0  0  0  0  0  0  0  0  0  0
   33.4410   31.4130   36.1560 C   0  0  0  0  0  0  0  0  0  0  0  0
   32.8250   30.5070   35.3320 C   0  0  0  0  0  0  0  0  0  0  0  0
   33.1760   29.0210   33.8570 H   0  0  0  0  0  0  0  0  0  0  0  0
   36.6770   30.9990   35.4620 H   0  0  0  0  0  0  0  0  0  0  0  0
   36.0330   32.9310   37.3970 H   0  0  0  0  0  0  0  0  0  0  0  0
   33.8080   33.7340   38.3790 H   0  0  0  0  0  0  0  0  0  0  0  0
   31.7700   30.3660   35.2910 H   0  0  0  0  0  0  0  0  0  0  0  0
   37.8490   26.1470   34.0760 O   0  0  0  0  0  0  0  0  0  0  0  0
   38.5520   25.2930   36.4500 O   0  0  0  0  0  0  0  0  0  0  0  0
   38.7830   26.4180   35.4840 P   0  0  0  0  0  0  0  0  0  0  0  0
   40.4380   26.4450   35.0790 O   0  0  0  0  0  0  0  0  0  0  0  0
   40.6220   25.7470   34.3840 H   0  0  0  0  0  0  0  0  0  0  0  0
   38.4620   27.9370   36.1760 O   0  0  0  0  0  0  0  0  0  0  0  0
   39.0000   28.6350   35.7090 H   0  0  0  0  0  0  0  0  0  0  0  0
  1  2  2  0  0  0  0
  1  6  1  0  0  0  0
  2  3  1  0  0  0  0
  3 23  1  0  0  0  0
  3  4  2  0  0  0  0
  5  4  1  0  0  0  0
  5 10  1  0  0  0  0
  6  5  2  0  0  0  0
  7  1  1  0  0  0  0
  8  2  1  0  0  0  0
  9 10  2  0  0  0  0
  9 17  1  0  0  0  0
 10 11  1  0  0  0  0
 11 19  1  0  0  0  0
 11 12  2  0  0  0  0
 12 13  1  0  0  0  0
 13 20  1  0  0  0  0
 13 14  1  0  0  0  0
 14 21  1  0  0  0  0
 15 14  2  0  0  0  0
 16 12  1  0  0  0  0
 16 15  1  0  0  0  0
 17 16  2  0  0  0  0
 18  9  1  0  0  0  0
 22 17  1  0  0  0  0
 23 25  1  0  0  0  0
 25 28  1  0  0  0  0
 25 24  2  0  0  0  0
 26 25  1  0  0  0  0
 27 26  1  0  0  0  0
 29 28  1  0  0  0  0
M  END
>  <minimizedAffinity>
-5.43094635

$$$$

 OpenBabel03272507063D

 29 31  0  0  0  0  0  0  0  0999 V2000
   36.1490   25.0670   31.8050 C   0  0  0  0  0  0  0  0  0  0  0  0
   35.5160   23.9540   31.2160 C   0  0  0  0  0  0  0  0  0  0  0  0
   36.0020   22.6880   31.5810 C   0  0  0  0  0  0  0  0  0  0  0  0
   37.0300   22.6110   32.4630 N   0  0  0  0  0  0  0  0  0  0  0  0
   37.6090   23.6850   33.0050 C   0  0  0  0  0  0  0  0  0  0  0  0
   37.1680   24.9130   32.6750 N   0  0  0  0  0  0  0  0  0  0  0  0
   35.7480   26.0030   31.4980 H   0  0  0  0  0  0  0  0  0  0  0  0
   34.7110   23.9730   30.5240 H   0  0  0  0  0  0  0  0  0  0  0  0
   39.8600   24.2960   33.7900 C   0  0  0  0  0  0  0  0  0  0  0  0
   38.7130   23.5370   33.9490 C   0  0  0  0  0  0  0  0  0  0  0  0
   38.5720   22.6270   34.9910 C   0  0  0  0  0  0  0  0  0  0  0  0
   39.6100   22.4720   35.8990 C   0  0  0  0  0  0  0  0  0  0  0  0
   39.7700   21.6970   36.9810 N   0  0  0  0  0  0  0  0  0  0  0  0
   41.0170   22.0130   37.4440 C   0  0  0  0  0  0  0  0  0  0  0  0
   41.5920   22.9420   36.6790 N   0  0  0  0  0  0  0  0  0  0  0  0
   40.7380   23.2540   35.6980 C   0  0  0  0  0  0  0  0  0  0  0  0
   40.9010   24.1580   34.6800 C   0  0  0  0  0  0  0  0  0  0  0  0
   39.9600   25.0030   32.9750 H   0  0  0  0  0  0  0  0  0  0  0  0
   37.6890   22.0210   35.1410 H   0  0  0  0  0  0  0  0  0  0  0  0
   39.0780   21.0100   37.3640 H   0  0  0  0  0  0  0  0  0  0  0  0
   41.3940   21.5060   38.3390 H   0  0  0  0  0  0  0  0  0  0  0  0
   41.7790   24.7470   34.5470 H   0  0  0  0  0  0  0  0  0  0  0  0
   35.5140   21.4760   31.1140 O   0  0  0  0  0  0  0  0  0  0  0  0
   36.7140   19.3270   32.0080 O   0  0  0  0  0  0  0  0  0  0  0  0
   35.4640   20.1390   32.1800 P   0  0  0  0  0  0  0  0  0  0  0  0
   35.4010   20.6910   33.7910 O   0  0  0  0  0  0  0  0  0  0  0  0
   35.9930   21.4930   33.8910 H   0  0  0  0  0  0  0  0  0  0  0  0
   34.0580   19.2090   31.9670 O   0  0  0  0  0  0  0  0  0  0  0  0
   33.3060   19.6200   32.4780 H   0  0  0  0  0  0  0  0  0  0  0  0
  1  6  1  0  0  0  0
  2  3  1  0  0  0  0
  2  1  2  0  0  0  0
  3  4  2  0  0  0  0
  4  5  1  0  0  0  0
  5 10  1  0  0  0  0
  6  5  2  0  0  0  0
  7  1  1  0  0  0  0
  8  2  1  0  0  0  0
  9 10  2  0  0  0  0
  9 17  1  0  0  0  0
 10 11  1  0  0  0  0
 11 19  1  0  0  0  0
 11 12  2  0  0  0  0
 12 13  1  0  0  0  0
 13 20  1  0  0  0  0
 13 14  1  0  0  0  0
 14 21  1  0  0  0  0
 15 14  2  0  0  0  0
 16 12  1  0  0  0  0
 16 15  1  0  0  0  0
 17 16  2  0  0  0  0
 18  9  1  0  0  0  0
 22 17  1  0  0  0  0
 23  3  1  0  0  0  0
 23 25  1  0  0  0  0
 24 25  2  0  0  0  0
 25 26  1  0  0  0  0
 26 27  1  0  0  0  0
 28 25  1  0  0  0  0
 28 29  1  0  0  0  0
M  END
>  <minimizedAffinity>
-5.30284786

$$$$

 OpenBabel03272507063D

 29 31  0  0  0  0  0  0  0  0999 V2000
   37.4730   25.9780   33.5450 C   0  0  0  0  0  0  0  0  0  0  0  0
   38.2210   25.8680   34.7340 C   0  0  0  0  0  0  0  0  0  0  0  0
   38.5820   24.5690   35.1320 C   0  0  0  0  0  0  0  0  0  0  0  0
   38.1980   23.5200   34.3630 N   0  0  0  0  0  0  0  0  0  0  0  0
   37.4900   23.6570   33.2400 C   0  0  0  0  0  0  0  0  0  0  0  0
   37.1260   24.8870   32.8310 N   0  0  0  0  0  0  0  0  0  0  0  0
   37.2230   26.9790   33.2840 H   0  0  0  0  0  0  0  0  0  0  0  0
   38.5390   26.6630   35.3610 H   0  0  0  0  0  0  0  0  0  0  0  0
   35.9360   22.5090   31.7140 C   0  0  0  0  0  0  0  0  0  0  0  0
   37.1060   22.4860   32.4550 C   0  0  0  0  0  0  0  0  0  0  0  0
   37.9410   21.3750   32.4780 C   0  0  0  0  0  0  0  0  0  0  0  0
   37.5950   20.2530   31.7380 C   0  0  0  0  0  0  0  0  0  0  0  0
   38.1780   19.0590   31.5610 N   0  0  0  0  0  0  0  0  0  0  0  0
   37.3370   18.3930   30.7140 C   0  0  0  0  0  0  0  0  0  0  0  0
   36.2870   19.1470   30.3870 N   0  0  0  0  0  0  0  0  0  0  0  0
   36.4150   20.3230   31.0130 C   0  0  0  0  0  0  0  0  0  0  0  0
   35.5760   21.4060   30.9740 C   0  0  0  0  0  0  0  0  0  0  0  0
   35.2930   23.3800   31.7030 H   0  0  0  0  0  0  0  0  0  0  0  0
   38.8610   21.3290   33.0460 H   0  0  0  0  0  0  0  0  0  0  0  0
   39.0780   18.7350   31.9890 H   0  0  0  0  0  0  0  0  0  0  0  0
   37.5940   17.3730   30.4070 H   0  0  0  0  0  0  0  0  0  0  0  0
   34.6730   21.4350   30.4080 H   0  0  0  0  0  0  0  0  0  0  0  0
   39.3140   24.2530   36.2660 O   0  0  0  0  0  0  0  0  0  0  0  0
   37.8550   24.4750   38.4290 O   0  0  0  0  0  0  0  0  0  0  0  0
   38.5290   23.4550   37.5600 P   0  0  0  0  0  0  0  0  0  0  0  0
   37.3380   22.4020   36.9470 O   0  0  0  0  0  0  0  0  0  0  0  0
   36.8810   22.8340   36.1670 H   0  0  0  0  0  0  0  0  0  0  0  0
   39.5970   22.4660   38.4380 O   0  0  0  0  0  0  0  0  0  0  0  0
   39.6900   21.5860   37.9780 H   0  0  0  0  0  0  0  0  0  0  0  0
  1  2  1  0  0  0  0
  2  3  2  0  0  0  0
  2  8  1  0  0  0  0
  3 23  1  0  0  0  0
  4  3  1  0  0  0  0
  5  4  2  0  0  0  0
  6  5  1  0  0  0  0
  6  1  2  0  0  0  0
  7  1  1  0  0  0  0
  9 10  1  0  0  0  0
 10 11  2  0  0  0  0
 10  5  1  0  0  0  0
 11 19  1  0  0  0  0
 12 11  1  0  0  0  0
 13 12  1  0  0  0  0
 13 20  1  0  0  0  0
 14 13  1  0  0  0  0
 15 14  2  0  0  0  0
 15 16  1  0  0  0  0
 16 12  2  0  0  0  0
 17 16  1  0  0  0  0
 17  9  2  0  0  0  0
 18  9  1  0  0  0  0
 21 14  1  0  0  0  0
 22 17  1  0  0  0  0
 23 25  1  0  0  0  0
 25 24  2  0  0  0  0
 25 28  1  0  0  0  0
 26 25  1  0  0  0  0
 27 26  1  0  0  0  0
 29 28  1  0  0  0  0
M  END
>  <minimizedAffinity>
-5.23474884

$$$$

 OpenBabel03272507063D

 29 31  0  0  0  0  0  0  0  0999 V2000
   37.9780   27.5550   35.6640 C   0  0  0  0  0  0  0  0  0  0  0  0
   37.1080   27.4040   34.5650 C   0  0  0  0  0  0  0  0  0  0  0  0
   37.2630   26.2370   33.7980 C   0  0  0  0  0  0  0  0  0  0  0  0
   38.2200   25.3430   34.1530 N   0  0  0  0  0  0  0  0  0  0  0  0
   39.0280   25.5160   35.2010 C   0  0  0  0  0  0  0  0  0  0  0  0
   38.9070   26.6230   35.9570 N   0  0  0  0  0  0  0  0  0  0  0  0
   37.8230   28.4530   36.2150 H   0  0  0  0  0  0  0  0  0  0  0  0
   36.3500   28.0780   34.2570 H   0  0  0  0  0  0  0  0  0  0  0  0
   41.2600   24.5290   34.8780 C   0  0  0  0  0  0  0  0  0  0  0  0
   40.0400   24.5160   35.5320 C   0  0  0  0  0  0  0  0  0  0  0  0
   39.7390   23.5720   36.5070 C   0  0  0  0  0  0  0  0  0  0  0  0
   40.6870   22.6140   36.8380 C   0  0  0  0  0  0  0  0  0  0  0  0
   40.6950   21.5980   37.7130 N   0  0  0  0  0  0  0  0  0  0  0  0
   41.9270   21.0270   37.5580 C   0  0  0  0  0  0  0  0  0  0  0  0
   42.6410   21.6660   36.6310 N   0  0  0  0  0  0  0  0  0  0  0  0
   41.8940   22.6680   36.1550 C   0  0  0  0  0  0  0  0  0  0  0  0
   42.2140   23.5880   35.1900 C   0  0  0  0  0  0  0  0  0  0  0  0
   41.4840   25.2690   34.1190 H   0  0  0  0  0  0  0  0  0  0  0  0
   38.7960   23.5360   37.0360 H   0  0  0  0  0  0  0  0  0  0  0  0
   39.9170   21.3260   38.3590 H   0  0  0  0  0  0  0  0  0  0  0  0
   42.1890   20.1590   38.1730 H   0  0  0  0  0  0  0  0  0  0  0  0
   43.1490   23.6090   34.6790 H   0  0  0  0  0  0  0  0  0  0  0  0
   36.5080   25.9050   32.6820 O   0  0  0  0  0  0  0  0  0  0  0  0
   37.5920   24.8020   30.5690 O   0  0  0  0  0  0  0  0  0  0  0  0
   37.1870   26.1340   31.1280 P   0  0  0  0  0  0  0  0  0  0  0  0
   36.0250   26.8210   30.0890 O   0  0  0  0  0  0  0  0  0  0  0  0
   35.1290   26.4160   30.2790 H   0  0  0  0  0  0  0  0  0  0  0  0
   38.4790   27.2390   31.1560 O   0  0  0  0  0  0  0  0  0  0  0  0
   38.1210   28.1690   31.1160 H   0  0  0  0  0  0  0  0  0  0  0  0
  1  6  1  0  0  0  0
  1  7  1  0  0  0  0
  2  1  2  0  0  0  0
  3  4  2  0  0  0  0
  3  2  1  0  0  0  0
  4  5  1  0  0  0  0
  5 10  1  0  0  0  0
  5  6  2  0  0  0  0
  8  2  1  0  0  0  0
  9 17  2  0  0  0  0
  9 10  1  0  0  0  0
 10 11  2  0  0  0  0
 11 12  1  0  0  0  0
 11 19  1  0  0  0  0
 12 13  1  0  0  0  0
 13 20  1  0  0  0  0
 14 13  1  0  0  0  0
 14 21  1  0  0  0  0
 15 14  2  0  0  0  0
 16 15  1  0  0  0  0
 16 12  2  0  0  0  0
 17 16  1  0  0  0  0
 18  9  1  0  0  0  0
 22 17  1  0  0  0  0
 23  3  1  0  0  0  0
 24 25  2  0  0  0  0
 25 28  1  0  0  0  0
 25 23  1  0  0  0  0
 26 27  1  0  0  0  0
 26 25  1  0  0  0  0
 29 28  1  0  0  0  0
M  END
>  <minimizedAffinity>
-5.19678736

$$$$

 OpenBabel03272507063D

 29 31  0  0  0  0  0  0  0  0999 V2000
   35.5050   29.6410   31.7500 C   0  0  0  0  0  0  0  0  0  0  0  0
   34.7280   30.5220   32.5280 C   0  0  0  0  0  0  0  0  0  0  0  0
   34.7700   30.3340   33.9200 C   0  0  0  0  0  0  0  0  0  0  0  0
   35.5410   29.3380   34.4220 N   0  0  0  0  0  0  0  0  0  0  0  0
   36.2670   28.5200   33.6580 C   0  0  0  0  0  0  0  0  0  0  0  0
   36.2490   28.6720   32.3200 N   0  0  0  0  0  0  0  0  0  0  0  0
   35.4420   29.8220   30.7030 H   0  0  0  0  0  0  0  0  0  0  0  0
   34.1140   31.3110   32.1730 H   0  0  0  0  0  0  0  0  0  0  0  0
   37.7200   27.6930   35.4650 C   0  0  0  0  0  0  0  0  0  0  0  0
   37.0780   27.4650   34.2590 C   0  0  0  0  0  0  0  0  0  0  0  0
   37.1780   26.2490   33.5920 C   0  0  0  0  0  0  0  0  0  0  0  0
   37.9420   25.2330   34.1470 C   0  0  0  0  0  0  0  0  0  0  0  0
   38.2250   23.9830   33.7550 N   0  0  0  0  0  0  0  0  0  0  0  0
   39.0340   23.4920   34.7420 C   0  0  0  0  0  0  0  0  0  0  0  0
   39.2360   24.4020   35.6950 N   0  0  0  0  0  0  0  0  0  0  0  0
   38.5660   25.5090   35.3550 C   0  0  0  0  0  0  0  0  0  0  0  0
   38.4830   26.6980   36.0320 C   0  0  0  0  0  0  0  0  0  0  0  0
   37.6360   28.6440   35.9770 H   0  0  0  0  0  0  0  0  0  0  0  0
   36.6880   26.0410   32.6500 H   0  0  0  0  0  0  0  0  0  0  0  0
   37.8880   23.5110   32.8830 H   0  0  0  0  0  0  0  0  0  0  0  0
   39.4100   22.4660   34.6580 H   0  0  0  0  0  0  0  0  0  0  0  0
   38.9720   26.8870   36.9600 H   0  0  0  0  0  0  0  0  0  0  0  0
   34.0790   31.0940   34.8520 O   0  0  0  0  0  0  0  0  0  0  0  0
   35.0350   33.4200   35.5850 O   0  0  0  0  0  0  0  0  0  0  0  0
   34.9670   31.9840   36.0130 P   0  0  0  0  0  0  0  0  0  0  0  0
   34.1770   31.9100   37.5210 O   0  0  0  0  0  0  0  0  0  0  0  0
   33.1870   31.9640   37.3800 H   0  0  0  0  0  0  0  0  0  0  0  0
   36.5090   31.3190   36.2790 O   0  0  0  0  0  0  0  0  0  0  0  0
   36.4400   30.5700   36.9340 H   0  0  0  0  0  0  0  0  0  0  0  0
  1  6  2  0  0  0  0
  1  2  1  0  0  0  0
  2  3  2  0  0  0  0
  3  4  1  0  0  0  0
  3 23  1  0  0  0  0
  5 10  1  0  0  0  0
  5  4  2  0  0  0  0
  6  5  1  0  0  0  0
  7  1  1  0  0  0  0
  8  2  1  0  0  0  0
  9 18  1  0  0  0  0
  9 17  1  0  0  0  0
 10  9  2  0  0  0  0
 11 12  2  0  0  0  0
 11 10  1  0  0  0  0
 12 16  1  0  0  0  0
 13 12  1  0  0  0  0
 13 14  1  0  0  0  0
 14 15  2  0  0  0  0
 16 15  1  0  0  0  0
 16 17  2  0  0  0  0
 17 22  1  0  0  0  0
 19 11  1  0  0  0  0
 20 13  1  0  0  0  0
 21 14  1  0  0  0  0
 23 25  1  0  0  0  0
 24 25  2  0  0  0  0
 25 28  1  0  0  0  0
 25 26  1  0  0  0  0
 27 26  1  0  0  0  0
 28 29  1  0  0  0  0
M  END
>  <minimizedAffinity>
-5.1493392

$$$$

 OpenBabel03272507063D

 29 31  0  0  0  0  0  0  0  0999 V2000
   35.6280   26.3840   31.2480 C   0  0  0  0  0  0  0  0  0  0  0  0
   36.5230   27.1880   31.9810 C   0  0  0  0  0  0  0  0  0  0  0  0
   37.4680   26.5150   32.7740 C   0  0  0  0  0  0  0  0  0  0  0  0
   37.4640   25.1590   32.7860 N   0  0  0  0  0  0  0  0  0  0  0  0
   36.6020   24.4250   32.0790 C   0  0  0  0  0  0  0  0  0  0  0  0
   35.6830   25.0380   31.3100 N   0  0  0  0  0  0  0  0  0  0  0  0
   34.9320   26.9370   30.6630 H   0  0  0  0  0  0  0  0  0  0  0  0
   36.5580   28.2490   31.9970 H   0  0  0  0  0  0  0  0  0  0  0  0
   37.8640   22.3210   32.2860 C   0  0  0  0  0  0  0  0  0  0  0  0
   36.6480   22.9660   32.1350 C   0  0  0  0  0  0  0  0  0  0  0  0
   35.4520   22.2650   32.0340 C   0  0  0  0  0  0  0  0  0  0  0  0
   35.4730   20.8780   32.0860 C   0  0  0  0  0  0  0  0  0  0  0  0
   34.5130   19.9450   32.0180 N   0  0  0  0  0  0  0  0  0  0  0  0
   35.1830   18.7590   32.1310 C   0  0  0  0  0  0  0  0  0  0  0  0
   36.4950   18.9590   32.2620 N   0  0  0  0  0  0  0  0  0  0  0  0
   36.7150   20.2780   32.2380 C   0  0  0  0  0  0  0  0  0  0  0  0
   37.9070   20.9470   32.3400 C   0  0  0  0  0  0  0  0  0  0  0  0
   38.7910   22.8770   32.3640 H   0  0  0  0  0  0  0  0  0  0  0  0
   34.4870   22.7400   31.9160 H   0  0  0  0  0  0  0  0  0  0  0  0
   33.4860   20.1150   31.9040 H   0  0  0  0  0  0  0  0  0  0  0  0
   34.6130   17.8240   32.1050 H   0  0  0  0  0  0  0  0  0  0  0  0
   38.8490   20.4620   32.4560 H   0  0  0  0  0  0  0  0  0  0  0  0
   38.4310   27.1250   33.5650 O   0  0  0  0  0  0  0  0  0  0  0  0
   40.0810   25.8150   35.1200 O   0  0  0  0  0  0  0  0  0  0  0  0
   38.7410   26.4900   35.1240 P   0  0  0  0  0  0  0  0  0  0  0  0
   38.7810   27.7560   36.2630 O   0  0  0  0  0  0  0  0  0  0  0  0
   39.2340   28.5530   35.8580 H   0  0  0  0  0  0  0  0  0  0  0  0
   37.5000   25.4520   35.6450 O   0  0  0  0  0  0  0  0  0  0  0  0
   36.7570   25.9910   36.0340 H   0  0  0  0  0  0  0  0  0  0  0  0
  1  6  2  0  0  0  0
  1  2  1  0  0  0  0
  2  8  1  0  0  0  0
  2  3  2  0  0  0  0
  3  4  1  0  0  0  0
  3 23  1  0  0  0  0
  5 10  1  0  0  0  0
  5  4  2  0  0  0  0
  6  5  1  0  0  0  0
  7  1  1  0  0  0  0
  9 17  1  0  0  0  0
  9 18  1  0  0  0  0
 10  9  2  0  0  0  0
 11 12  2  0  0  0  0
 11 10  1  0  0  0  0
 12 16  1  0  0  0  0
 13 12  1  0  0  0  0
 13 14  1  0  0  0  0
 14 15  2  0  0  0  0
 16 15  1  0  0  0  0
 16 17  2  0  0  0  0
 17 22  1  0  0  0  0
 19 11  1  0  0  0  0
 20 13  1  0  0  0  0
 21 14  1  0  0  0  0
 23 25  1  0  0  0  0
 24 25  2  0  0  0  0
 25 28  1  0  0  0  0
 25 26  1  0  0  0  0
 27 26  1  0  0  0  0
 28 29  1  0  0  0  0
M  END
>  <minimizedAffinity>
-5.13516474

$$$$

 OpenBabel03272507063D

 29 31  0  0  0  0  0  0  0  0999 V2000
   38.4050   22.0320   32.0170 C   0  0  0  0  0  0  0  0  0  0  0  0
   38.5650   21.4960   33.3110 C   0  0  0  0  0  0  0  0  0  0  0  0
   38.3380   22.3720   34.3850 C   0  0  0  0  0  0  0  0  0  0  0  0
   37.9840   23.6540   34.1200 N   0  0  0  0  0  0  0  0  0  0  0  0
   37.8400   24.1320   32.8830 C   0  0  0  0  0  0  0  0  0  0  0  0
   38.0520   23.3200   31.8300 N   0  0  0  0  0  0  0  0  0  0  0  0
   38.5870   21.3320   31.2360 H   0  0  0  0  0  0  0  0  0  0  0  0
   38.8390   20.5010   33.5570 H   0  0  0  0  0  0  0  0  0  0  0  0
   37.3370   26.3830   33.7420 C   0  0  0  0  0  0  0  0  0  0  0  0
   37.4580   25.5240   32.6620 C   0  0  0  0  0  0  0  0  0  0  0  0
   37.2270   25.9450   31.3580 C   0  0  0  0  0  0  0  0  0  0  0  0
   36.8640   27.2650   31.1270 C   0  0  0  0  0  0  0  0  0  0  0  0
   36.5810   27.9540   30.0120 N   0  0  0  0  0  0  0  0  0  0  0  0
   36.2960   29.2150   30.4560 C   0  0  0  0  0  0  0  0  0  0  0  0
   36.4010   29.2930   31.7830 N   0  0  0  0  0  0  0  0  0  0  0  0
   36.7550   28.0860   32.2390 C   0  0  0  0  0  0  0  0  0  0  0  0
   36.9780   27.6950   33.5340 C   0  0  0  0  0  0  0  0  0  0  0  0
   37.5200   26.0450   34.7550 H   0  0  0  0  0  0  0  0  0  0  0  0
   37.3140   25.2980   30.4950 H   0  0  0  0  0  0  0  0  0  0  0  0
   36.5850   27.5840   29.0330 H   0  0  0  0  0  0  0  0  0  0  0  0
   36.0290   29.9860   29.7250 H   0  0  0  0  0  0  0  0  0  0  0  0
   36.8880   28.3470   34.3730 H   0  0  0  0  0  0  0  0  0  0  0  0
   38.4420   22.0380   35.7280 O   0  0  0  0  0  0  0  0  0  0  0  0
   40.6060   23.4250   36.2300 O   0  0  0  0  0  0  0  0  0  0  0  0
   39.2470   23.1150   36.7860 P   0  0  0  0  0  0  0  0  0  0  0  0
   38.3700   24.5700   36.9010 O   0  0  0  0  0  0  0  0  0  0  0  0
   37.9990   24.8070   36.0010 H   0  0  0  0  0  0  0  0  0  0  0  0
   39.3250   22.5070   38.3720 O   0  0  0  0  0  0  0  0  0  0  0  0
   38.4710   22.7090   38.8470 H   0  0  0  0  0  0  0  0  0  0  0  0
  1  2  1  0  0  0  0
  2  8  1  0  0  0  0
  2  3  2  0  0  0  0
  3 23  1  0  0  0  0
  4  3  1  0  0  0  0
  5  4  2  0  0  0  0
  6  1  2  0  0  0  0
  6  5  1  0  0  0  0
  7  1  1  0  0  0  0
  9 18  1  0  0  0  0
 10  5  1  0  0  0  0
 10  9  2  0  0  0  0
 11 10  1  0  0  0  0
 12 11  2  0  0  0  0
 12 16  1  0  0  0  0
 13 14  1  0  0  0  0
 13 12  1  0  0  0  0
 14 15  2  0  0  0  0
 15 16  1  0  0  0  0
 16 17  2  0  0  0  0
 17  9  1  0  0  0  0
 17 22  1  0  0  0  0
 19 11  1  0  0  0  0
 20 13  1  0  0  0  0
 21 14  1  0  0  0  0
 23 25  1  0  0  0  0
 24 25  2  0  0  0  0
 25 26  1  0  0  0  0
 25 28  1  0  0  0  0
 27 26  1  0  0  0  0
 28 29  1  0  0  0  0
M  END
>  <minimizedAffinity>
-5.11312914

$$$$
