
 OpenBabel03272510293D

 26 27  0  0  0  0  0  0  0  0999 V2000
   37.1800   31.3090   49.1960 C   0  0  0  0  0  0  0  0  0  0  0  0
   37.3620   32.5590   49.7950 C   0  0  0  0  0  0  0  0  0  0  0  0
   38.3230   33.3750   49.1960 C   0  0  0  0  0  0  0  0  0  0  0  0
   39.0090   32.9210   48.0980 N   0  0  0  0  0  0  0  0  0  0  0  0
   38.7870   31.6970   47.5610 C   0  0  0  0  0  0  0  0  0  0  0  0
   37.8500   30.8650   48.1220 N   0  0  0  0  0  0  0  0  0  0  0  0
   36.7960   32.8590   50.6540 H   0  0  0  0  0  0  0  0  0  0  0  0
   38.5240   34.3580   49.5990 H   0  0  0  0  0  0  0  0  0  0  0  0
   36.1300   30.4200   49.7920 C   0  0  0  0  0  0  0  0  0  0  0  0
   36.1190   28.9880   49.6070 C   0  0  0  0  0  0  0  0  0  0  0  0
   36.6690   29.5220   50.9160 C   0  0  0  0  0  0  0  0  0  0  0  0
   35.1960   30.9910   50.0740 H   0  0  0  0  0  0  0  0  0  0  0  0
   36.8700   28.4780   48.9710 H   0  0  0  0  0  0  0  0  0  0  0  0
   35.1580   28.4370   49.6270 H   0  0  0  0  0  0  0  0  0  0  0  0
   35.9950   29.4020   51.7870 H   0  0  0  0  0  0  0  0  0  0  0  0
   37.7560   29.4860   51.0920 H   0  0  0  0  0  0  0  0  0  0  0  0
   39.5010   31.2200   46.3830 C   0  0  0  0  0  0  0  0  0  0  0  0
   40.4830   31.7330   46.2150 H   0  0  0  0  0  0  0  0  0  0  0  0
   39.7440   30.1560   46.4720 H   0  0  0  0  0  0  0  0  0  0  0  0
   38.7300   31.5490   45.2680 O   0  0  0  0  0  0  0  0  0  0  0  0
   40.4410   31.3150   43.3400 O   0  0  0  0  0  0  0  0  0  0  0  0
   39.1820   30.6910   43.8890 P   0  0  0  0  0  0  0  0  0  0  0  0
   39.3780   29.0390   44.1870 O   0  0  0  0  0  0  0  0  0  0  0  0
   40.1970   28.9570   44.7670 H   0  0  0  0  0  0  0  0  0  0  0  0
   37.9530   30.8200   42.7210 O   0  0  0  0  0  0  0  0  0  0  0  0
   37.1810   30.3000   43.0220 H   0  0  0  0  0  0  0  0  0  0  0  0
  1  9  1  0  0  0  0
  1  2  1  0  0  0  0
  2  7  1  0  0  0  0
  3  8  1  0  0  0  0
  3  2  2  0  0  0  0
  4  3  1  0  0  0  0
  5  4  2  0  0  0  0
  5  6  1  0  0  0  0
  6  1  2  0  0  0  0
  9 12  1  0  0  0  0
  9 11  1  0  0  0  0
 10 14  1  0  0  0  0
 10  9  1  0  0  0  0
 10 11  1  0  0  0  0
 11 16  1  0  0  0  0
 11 15  1  0  0  0  0
 13 10  1  0  0  0  0
 17 19  1  0  0  0  0
 17  5  1  0  0  0  0
 18 17  1  0  0  0  0
 20 17  1  0  0  0  0
 21 22  2  0  0  0  0
 22 23  1  0  0  0  0
 22 20  1  0  0  0  0
 23 24  1  0  0  0  0
 25 26  1  0  0  0  0
 25 22  1  0  0  0  0
M  END
>  <minimizedAffinity>
-4.92262936

>  <minimizedRMSD>
0.66794765

$$$$
