
 OpenBabel03272500583D

 33 34  0  0  0  0  0  0  0  0999 V2000
   38.3180   31.9930   47.3990 C   0  0  0  0  0  0  0  0  0  0  0  0
   38.8900   32.9260   48.2340 C   0  0  0  0  0  0  0  0  0  0  0  0
   38.4670   33.0560   49.5670 C   0  0  0  0  0  0  0  0  0  0  0  0
   37.4120   32.1790   50.0360 C   0  0  0  0  0  0  0  0  0  0  0  0
   36.9030   31.2890   49.1570 C   0  0  0  0  0  0  0  0  0  0  0  0
   37.3040   31.1610   47.8770 C   0  0  0  0  0  0  0  0  0  0  0  0
   39.6820   33.5970   47.9110 H   0  0  0  0  0  0  0  0  0  0  0  0
   38.9470   33.8050   50.1800 H   0  0  0  0  0  0  0  0  0  0  0  0
   37.1960   32.3940   51.0730 H   0  0  0  0  0  0  0  0  0  0  0  0
   36.1680   30.7320   49.7170 H   0  0  0  0  0  0  0  0  0  0  0  0
   40.0850   31.2670   45.8740 C   0  0  0  0  0  0  0  0  0  0  0  0
   38.8620   31.9570   46.0650 C   0  0  0  0  0  0  0  0  0  0  0  0
   38.3410   32.5120   44.9220 C   0  0  0  0  0  0  0  0  0  0  0  0
   38.9630   32.3920   43.7410 N   0  0  0  0  0  0  0  0  0  0  0  0
   40.0960   31.7480   43.5800 C   0  0  0  0  0  0  0  0  0  0  0  0
   40.6470   31.1910   44.6470 N   0  0  0  0  0  0  0  0  0  0  0  0
   40.5980   30.7820   46.7120 H   0  0  0  0  0  0  0  0  0  0  0  0
   37.4000   33.0440   45.0700 H   0  0  0  0  0  0  0  0  0  0  0  0
   40.5290   31.7000   42.5880 H   0  0  0  0  0  0  0  0  0  0  0  0
   35.2920   30.1090   47.2550 C   0  0  0  0  0  0  0  0  0  0  0  0
   34.7540   30.7800   48.2230 O   0  0  0  0  0  0  0  0  0  0  0  0
   36.7190   30.2550   47.0260 N   0  0  0  0  0  0  0  0  0  0  0  0
   37.2210   29.7160   46.2880 H   0  0  0  0  0  0  0  0  0  0  0  0
   34.5100   29.2880   46.4860 O   0  0  0  0  0  0  0  0  0  0  0  0
   33.1620   29.0300   46.7340 C   0  0  0  0  0  0  0  0  0  0  0  0
   32.2070   29.5060   45.9670 O   0  0  0  0  0  0  0  0  0  0  0  0
   32.5930   28.2660   47.7420 O   0  0  0  0  0  0  0  0  0  0  0  0
   31.1310   26.2070   48.5170 O   0  0  0  0  0  0  0  0  0  0  0  0
   31.4640   27.0500   47.2950 P   0  0  0  0  0  0  0  0  0  0  0  0
   29.9870   27.7810   46.8400 O   0  0  0  0  0  0  0  0  0  0  0  0
   29.2830   27.0930   46.8300 H   0  0  0  0  0  0  0  0  0  0  0  0
   32.0320   26.0260   46.1020 O   0  0  0  0  0  0  0  0  0  0  0  0
   32.1190   26.4250   45.2130 H   0  0  0  0  0  0  0  0  0  0  0  0
  1  6  2  0  0  0  0
  1  2  1  0  0  0  0
  2  3  2  0  0  0  0
  3  4  1  0  0  0  0
  3  8  1  0  0  0  0
  4  9  1  0  0  0  0
  5 10  1  0  0  0  0
  5  4  2  0  0  0  0
  6  5  1  0  0  0  0
  7  2  1  0  0  0  0
 11 12  1  0  0  0  0
 11 17  1  0  0  0  0
 12  1  1  0  0  0  0
 13 18  1  0  0  0  0
 13 12  2  0  0  0  0
 14 13  1  0  0  0  0
 15 14  2  0  0  0  0
 15 16  1  0  0  0  0
 16 11  2  0  0  0  0
 19 15  1  0  0  0  0
 20 21  2  0  0  0  0
 22 20  1  0  0  0  0
 22  6  1  0  0  0  0
 23 22  1  0  0  0  0
 24 25  1  0  0  0  0
 24 20  1  0  0  0  0
 25 27  1  0  0  0  0
 26 25  2  0  0  0  0
 29 27  1  0  0  0  0
 29 28  2  0  0  0  0
 30 29  1  0  0  0  0
 31 30  1  0  0  0  0
 32 29  1  0  0  0  0
 33 32  1  0  0  0  0
M  END
>  <minimizedAffinity>
-5.23416281

>  <minimizedRMSD>
2.13336182

$$$$
