
 OpenBabel03272509143D

 38 40  0  0  1  0  0  0  0  0999 V2000
   37.8680   23.6330   32.2320 C   0  0  0  0  0  0  0  0  0  0  0  0
   38.1240   23.9720   33.5910 C   0  0  0  0  0  0  0  0  0  0  0  0
   38.1510   22.9270   34.5120 C   0  0  0  0  0  0  0  0  0  0  0  0
   37.9330   21.6560   34.0690 N   0  0  0  0  0  0  0  0  0  0  0  0
   37.6930   21.3780   32.7780 C   0  0  0  0  0  0  0  0  0  0  0  0
   37.6620   22.3700   31.8610 N   0  0  0  0  0  0  0  0  0  0  0  0
   37.8230   24.3330   31.4200 H   0  0  0  0  0  0  0  0  0  0  0  0
   37.5320   20.3260   32.5310 H   0  0  0  0  0  0  0  0  0  0  0  0
   38.3110   25.3510   33.8380 N   0  0  0  0  0  0  0  0  0  0  0  0
   39.3660   26.2450   34.3590 C   0  0  0  0  0  0  0  0  0  0  0  0
   38.6030   27.0390   35.4240 C   0  0  0  0  0  0  0  0  0  0  0  0
   37.2190   27.1950   34.8400 C   0  0  0  0  0  0  0  0  0  0  0  0
   37.2830   26.3370   33.5760 C   0  0  1  0  0  0  0  0  0  0  0  0
   39.7210   26.9470   33.5990 H   0  0  0  0  0  0  0  0  0  0  0  0
   40.1620   25.6230   34.7860 H   0  0  0  0  0  0  0  0  0  0  0  0
   39.0890   28.0100   35.6090 H   0  0  0  0  0  0  0  0  0  0  0  0
   38.6050   26.3710   36.3270 H   0  0  0  0  0  0  0  0  0  0  0  0
   36.4170   26.8990   35.5240 H   0  0  0  0  0  0  0  0  0  0  0  0
   37.1030   28.2430   34.4990 H   0  0  0  0  0  0  0  0  0  0  0  0
   36.2660   25.9080   33.4970 H   0  0  0  0  0  0  0  0  0  0  0  0
   37.5170   27.1240   32.4630 O   0  0  0  0  0  0  0  0  0  0  0  0
   35.3900   25.8720   31.5480 O   0  0  0  0  0  0  0  0  0  0  0  0
   36.0840   27.2140   31.5730 P   0  0  0  0  0  0  0  0  0  0  0  0
   36.4980   27.6180   29.9860 O   0  0  0  0  0  0  0  0  0  0  0  0
   36.4040   26.8080   29.4330 H   0  0  0  0  0  0  0  0  0  0  0  0
   35.0270   28.3610   32.2370 O   0  0  0  0  0  0  0  0  0  0  0  0
   34.7710   28.9720   31.5030 H   0  0  0  0  0  0  0  0  0  0  0  0
   38.4040   23.1540   35.9070 C   0  0  0  0  0  0  0  0  0  0  0  0
   39.5740   22.6950   36.4520 C   0  0  0  0  0  0  0  0  0  0  0  0
   39.9090   22.8650   37.7800 C   0  0  0  0  0  0  0  0  0  0  0  0
   38.9880   23.5390   38.5700 C   0  0  0  0  0  0  0  0  0  0  0  0
   37.7760   24.0350   38.0910 C   0  0  0  0  0  0  0  0  0  0  0  0
   37.5150   23.8200   36.7320 C   0  0  0  0  0  0  0  0  0  0  0  0
   40.3390   22.1580   35.8820 H   0  0  0  0  0  0  0  0  0  0  0  0
   40.8200   22.5120   38.2180 H   0  0  0  0  0  0  0  0  0  0  0  0
   39.1740   23.7140   39.6250 H   0  0  0  0  0  0  0  0  0  0  0  0
   37.0830   24.5490   38.7140 H   0  0  0  0  0  0  0  0  0  0  0  0
   36.5820   24.1910   36.3220 H   0  0  0  0  0  0  0  0  0  0  0  0
  1  2  1  0  0  0  0
  2  9  1  0  0  0  0
  2  3  2  0  0  0  0
  3 28  1  0  0  0  0
  4  3  1  0  0  0  0
  5  4  2  0  0  0  0
  6  1  2  0  0  0  0
  6  5  1  0  0  0  0
  7  1  1  0  0  0  0
  8  5  1  0  0  0  0
  9 10  1  0  0  0  0
 10 15  1  0  0  0  0
 10 11  1  0  0  0  0
 11 16  1  0  0  0  0
 11 17  1  0  0  0  0
 12 11  1  0  0  0  0
 12 18  1  0  0  0  0
 13 20  1  6  0  0  0
 13  9  1  0  0  0  0
 13 12  1  0  0  0  0
 14 10  1  0  0  0  0
 19 12  1  0  0  0  0
 21 13  1  0  0  0  0
 22 23  2  0  0  0  0
 23 26  1  0  0  0  0
 23 21  1  0  0  0  0
 24 23  1  0  0  0  0
 25 24  1  0  0  0  0
 27 26  1  0  0  0  0
 28 29  2  0  0  0  0
 28 33  1  0  0  0  0
 29 30  1  0  0  0  0
 30 35  1  0  0  0  0
 30 31  2  0  0  0  0
 31 36  1  0  0  0  0
 32 31  1  0  0  0  0
 32 37  1  0  0  0  0
 33 32  2  0  0  0  0
 34 29  1  0  0  0  0
 38 33  1  0  0  0  0
M  END
>  <minimizedAffinity>
-5.76915693

$$$$

 OpenBabel03272509143D

 38 40  0  0  1  0  0  0  0  0999 V2000
   37.9380   24.0180   32.4270 C   0  0  0  0  0  0  0  0  0  0  0  0
   38.2300   24.2480   33.8010 C   0  0  0  0  0  0  0  0  0  0  0  0
   38.1210   23.1590   34.6640 C   0  0  0  0  0  0  0  0  0  0  0  0
   37.7440   21.9520   34.1540 N   0  0  0  0  0  0  0  0  0  0  0  0
   37.4760   21.7770   32.8510 C   0  0  0  0  0  0  0  0  0  0  0  0
   37.5740   22.8130   31.9900 N   0  0  0  0  0  0  0  0  0  0  0  0
   37.9850   24.7600   31.6540 H   0  0  0  0  0  0  0  0  0  0  0  0
   37.1830   20.7680   32.5490 H   0  0  0  0  0  0  0  0  0  0  0  0
   38.5900   25.5770   34.1220 N   0  0  0  0  0  0  0  0  0  0  0  0
   39.6500   26.2810   34.8720 C   0  0  0  0  0  0  0  0  0  0  0  0
   38.8280   27.1990   35.7830 C   0  0  0  0  0  0  0  0  0  0  0  0
   37.6390   27.5840   34.9350 C   0  0  0  0  0  0  0  0  0  0  0  0
   37.8170   26.7210   33.6850 C   0  0  1  0  0  0  0  0  0  0  0  0
   40.2650   26.9090   34.2210 H   0  0  0  0  0  0  0  0  0  0  0  0
   40.2260   25.5360   35.4340 H   0  0  0  0  0  0  0  0  0  0  0  0
   39.4210   28.0750   36.0910 H   0  0  0  0  0  0  0  0  0  0  0  0
   38.5330   26.5450   36.6470 H   0  0  0  0  0  0  0  0  0  0  0  0
   36.6760   27.4320   35.4330 H   0  0  0  0  0  0  0  0  0  0  0  0
   37.7720   28.6350   34.6080 H   0  0  0  0  0  0  0  0  0  0  0  0
   36.7810   26.4690   33.3890 H   0  0  0  0  0  0  0  0  0  0  0  0
   38.4030   27.4500   32.6670 O   0  0  0  0  0  0  0  0  0  0  0  0
   36.8970   29.2300   31.4430 O   0  0  0  0  0  0  0  0  0  0  0  0
   37.2240   27.7560   31.4960 P   0  0  0  0  0  0  0  0  0  0  0  0
   35.8260   26.9260   31.9570 O   0  0  0  0  0  0  0  0  0  0  0  0
   35.1830   27.5870   32.3030 H   0  0  0  0  0  0  0  0  0  0  0  0
   37.7480   27.2600   29.9620 O   0  0  0  0  0  0  0  0  0  0  0  0
   37.0450   26.6680   29.5980 H   0  0  0  0  0  0  0  0  0  0  0  0
   38.3940   23.2770   36.0690 C   0  0  0  0  0  0  0  0  0  0  0  0
   39.5670   22.7660   36.5610 C   0  0  0  0  0  0  0  0  0  0  0  0
   39.9220   22.8310   37.8930 C   0  0  0  0  0  0  0  0  0  0  0  0
   39.0200   23.4520   38.7450 C   0  0  0  0  0  0  0  0  0  0  0  0
   37.8070   23.9970   38.3220 C   0  0  0  0  0  0  0  0  0  0  0  0
   37.5250   23.8880   36.9550 C   0  0  0  0  0  0  0  0  0  0  0  0
   40.3180   22.2650   35.9410 H   0  0  0  0  0  0  0  0  0  0  0  0
   40.8340   22.4360   38.2900 H   0  0  0  0  0  0  0  0  0  0  0  0
   39.2220   23.5460   39.8080 H   0  0  0  0  0  0  0  0  0  0  0  0
   37.1280   24.4700   38.9930 H   0  0  0  0  0  0  0  0  0  0  0  0
   36.5910   24.2990   36.5870 H   0  0  0  0  0  0  0  0  0  0  0  0
  1  2  1  0  0  0  0
  2  9  1  0  0  0  0
  2  3  2  0  0  0  0
  3 28  1  0  0  0  0
  4  3  1  0  0  0  0
  5  4  2  0  0  0  0
  6  1  2  0  0  0  0
  6  5  1  0  0  0  0
  7  1  1  0  0  0  0
  8  5  1  0  0  0  0
  9 10  1  0  0  0  0
 10 15  1  0  0  0  0
 10 11  1  0  0  0  0
 11 16  1  0  0  0  0
 11 17  1  0  0  0  0
 12 18  1  0  0  0  0
 12 11  1  0  0  0  0
 13 20  1  6  0  0  0
 13  9  1  0  0  0  0
 13 12  1  0  0  0  0
 14 10  1  0  0  0  0
 19 12  1  0  0  0  0
 21 13  1  0  0  0  0
 22 23  2  0  0  0  0
 23 24  1  0  0  0  0
 23 21  1  0  0  0  0
 24 25  1  0  0  0  0
 26 23  1  0  0  0  0
 27 26  1  0  0  0  0
 28 29  2  0  0  0  0
 28 33  1  0  0  0  0
 29 30  1  0  0  0  0
 30 35  1  0  0  0  0
 30 31  2  0  0  0  0
 31 36  1  0  0  0  0
 32 31  1  0  0  0  0
 32 37  1  0  0  0  0
 33 32  2  0  0  0  0
 34 29  1  0  0  0  0
 38 33  1  0  0  0  0
M  END
>  <minimizedAffinity>
-5.70007277

$$$$

 OpenBabel03272509143D

 38 40  0  0  1  0  0  0  0  0999 V2000
   36.9590   25.9160   32.6470 C   0  0  0  0  0  0  0  0  0  0  0  0
   37.0000   24.4930   32.6590 C   0  0  0  0  0  0  0  0  0  0  0  0
   36.1650   23.8260   31.7640 C   0  0  0  0  0  0  0  0  0  0  0  0
   35.3660   24.5610   30.9390 N   0  0  0  0  0  0  0  0  0  0  0  0
   35.3570   25.9030   30.9590 C   0  0  0  0  0  0  0  0  0  0  0  0
   36.1560   26.5770   31.8150 N   0  0  0  0  0  0  0  0  0  0  0  0
   37.5490   26.5540   33.2760 H   0  0  0  0  0  0  0  0  0  0  0  0
   34.6790   26.3930   30.2560 H   0  0  0  0  0  0  0  0  0  0  0  0
   37.8890   23.9280   33.6020 N   0  0  0  0  0  0  0  0  0  0  0  0
   38.4100   22.5930   33.9640 C   0  0  0  0  0  0  0  0  0  0  0  0
   38.1550   22.5600   35.4750 C   0  0  0  0  0  0  0  0  0  0  0  0
   38.3830   23.9870   35.9140 C   0  0  0  0  0  0  0  0  0  0  0  0
   38.5870   24.7240   34.5900 C   0  0  1  0  0  0  0  0  0  0  0  0
   39.4880   22.5160   33.7980 H   0  0  0  0  0  0  0  0  0  0  0  0
   37.8270   21.8390   33.4220 H   0  0  0  0  0  0  0  0  0  0  0  0
   38.8420   21.8560   35.9700 H   0  0  0  0  0  0  0  0  0  0  0  0
   37.0770   22.2590   35.5700 H   0  0  0  0  0  0  0  0  0  0  0  0
   37.5670   24.3970   36.5170 H   0  0  0  0  0  0  0  0  0  0  0  0
   39.3530   24.0340   36.4480 H   0  0  0  0  0  0  0  0  0  0  0  0
   38.1270   25.7150   34.7670 H   0  0  0  0  0  0  0  0  0  0  0  0
   39.9340   24.9020   34.3320 O   0  0  0  0  0  0  0  0  0  0  0  0
   40.0630   27.2710   33.1920 O   0  0  0  0  0  0  0  0  0  0  0  0
   40.2870   26.5450   34.4980 P   0  0  0  0  0  0  0  0  0  0  0  0
   41.9250   26.6740   34.8940 O   0  0  0  0  0  0  0  0  0  0  0  0
   42.4050   26.9880   34.0940 H   0  0  0  0  0  0  0  0  0  0  0  0
   39.3150   27.2580   35.6900 O   0  0  0  0  0  0  0  0  0  0  0  0
   39.9250   27.7170   36.3190 H   0  0  0  0  0  0  0  0  0  0  0  0
   36.1270   22.3920   31.6900 C   0  0  0  0  0  0  0  0  0  0  0  0
   35.1990   21.7140   32.4360 C   0  0  0  0  0  0  0  0  0  0  0  0
   35.0810   20.3400   32.4310 C   0  0  0  0  0  0  0  0  0  0  0  0
   35.9650   19.6450   31.6190 C   0  0  0  0  0  0  0  0  0  0  0  0
   36.9370   20.2600   30.8310 C   0  0  0  0  0  0  0  0  0  0  0  0
   36.9880   21.6590   30.8940 C   0  0  0  0  0  0  0  0  0  0  0  0
   34.4750   22.2050   33.0950 H   0  0  0  0  0  0  0  0  0  0  0  0
   34.3600   19.7990   33.0090 H   0  0  0  0  0  0  0  0  0  0  0  0
   35.9400   18.5610   31.5570 H   0  0  0  0  0  0  0  0  0  0  0  0
   37.6070   19.7080   30.2140 H   0  0  0  0  0  0  0  0  0  0  0  0
   37.7320   22.1740   30.2960 H   0  0  0  0  0  0  0  0  0  0  0  0
  1  2  1  0  0  0  0
  1  7  1  0  0  0  0
  2  9  1  0  0  0  0
  3  2  2  0  0  0  0
  4  5  2  0  0  0  0
  4  3  1  0  0  0  0
  5  6  1  0  0  0  0
  6  1  2  0  0  0  0
  8  5  1  0  0  0  0
  9 10  1  0  0  0  0
  9 13  1  0  0  0  0
 10 11  1  0  0  0  0
 11 17  1  0  0  0  0
 11 12  1  0  0  0  0
 11 16  1  0  0  0  0
 12 19  1  0  0  0  0
 12 18  1  0  0  0  0
 13 20  1  1  0  0  0
 13 12  1  0  0  0  0
 14 10  1  0  0  0  0
 15 10  1  0  0  0  0
 21 23  1  0  0  0  0
 21 13  1  0  0  0  0
 22 23  2  0  0  0  0
 23 24  1  0  0  0  0
 23 26  1  0  0  0  0
 25 24  1  0  0  0  0
 26 27  1  0  0  0  0
 28  3  1  0  0  0  0
 28 29  1  0  0  0  0
 29 34  1  0  0  0  0
 30 29  2  0  0  0  0
 30 35  1  0  0  0  0
 31 30  1  0  0  0  0
 32 33  1  0  0  0  0
 32 31  2  0  0  0  0
 33 28  2  0  0  0  0
 36 31  1  0  0  0  0
 37 32  1  0  0  0  0
 38 33  1  0  0  0  0
M  END
>  <minimizedAffinity>
-5.59081078

$$$$

 OpenBabel03272509143D

 38 40  0  0  1  0  0  0  0  0999 V2000
   37.1220   25.7360   32.4230 C   0  0  0  0  0  0  0  0  0  0  0  0
   37.1650   24.3130   32.4040 C   0  0  0  0  0  0  0  0  0  0  0  0
   36.1470   23.6560   31.7170 C   0  0  0  0  0  0  0  0  0  0  0  0
   35.1770   24.4000   31.1120 N   0  0  0  0  0  0  0  0  0  0  0  0
   35.1710   25.7410   31.1540 C   0  0  0  0  0  0  0  0  0  0  0  0
   36.1460   26.4060   31.8110 N   0  0  0  0  0  0  0  0  0  0  0  0
   37.8400   26.3690   32.9070 H   0  0  0  0  0  0  0  0  0  0  0  0
   34.3480   26.2380   30.6350 H   0  0  0  0  0  0  0  0  0  0  0  0
   38.2500   23.7390   33.1050 N   0  0  0  0  0  0  0  0  0  0  0  0
   39.6920   23.4910   32.8940 C   0  0  0  0  0  0  0  0  0  0  0  0
   39.8040   22.0010   33.2350 C   0  0  0  0  0  0  0  0  0  0  0  0
   38.8050   21.8080   34.3520 C   0  0  0  0  0  0  0  0  0  0  0  0
   38.1090   23.1670   34.4280 C   0  0  1  0  0  0  0  0  0  0  0  0
   40.3110   24.0510   33.6010 H   0  0  0  0  0  0  0  0  0  0  0  0
   39.9260   23.7020   31.8440 H   0  0  0  0  0  0  0  0  0  0  0  0
   40.8300   21.7490   33.5450 H   0  0  0  0  0  0  0  0  0  0  0  0
   39.4890   21.4750   32.2950 H   0  0  0  0  0  0  0  0  0  0  0  0
   38.1150   20.9750   34.1840 H   0  0  0  0  0  0  0  0  0  0  0  0
   39.3660   21.6930   35.3010 H   0  0  0  0  0  0  0  0  0  0  0  0
   37.0650   22.9130   34.6910 H   0  0  0  0  0  0  0  0  0  0  0  0
   38.6470   23.9360   35.4430 O   0  0  0  0  0  0  0  0  0  0  0  0
   37.7580   24.3610   37.8840 O   0  0  0  0  0  0  0  0  0  0  0  0
   38.1600   23.2710   36.9180 P   0  0  0  0  0  0  0  0  0  0  0  0
   39.4900   22.4590   37.5710 O   0  0  0  0  0  0  0  0  0  0  0  0
   39.8450   23.0040   38.3090 H   0  0  0  0  0  0  0  0  0  0  0  0
   36.8480   22.2200   36.7070 O   0  0  0  0  0  0  0  0  0  0  0  0
   37.0970   21.3630   37.1320 H   0  0  0  0  0  0  0  0  0  0  0  0
   36.0940   22.2240   31.6310 C   0  0  0  0  0  0  0  0  0  0  0  0
   35.1690   21.5480   32.3840 C   0  0  0  0  0  0  0  0  0  0  0  0
   35.0380   20.1750   32.3700 C   0  0  0  0  0  0  0  0  0  0  0  0
   35.9050   19.4780   31.5400 C   0  0  0  0  0  0  0  0  0  0  0  0
   36.8720   20.0910   30.7440 C   0  0  0  0  0  0  0  0  0  0  0  0
   36.9370   21.4890   30.8180 C   0  0  0  0  0  0  0  0  0  0  0  0
   34.4580   22.0410   33.0570 H   0  0  0  0  0  0  0  0  0  0  0  0
   34.3200   19.6360   32.9530 H   0  0  0  0  0  0  0  0  0  0  0  0
   35.8690   18.3950   31.4700 H   0  0  0  0  0  0  0  0  0  0  0  0
   37.5280   19.5380   30.1140 H   0  0  0  0  0  0  0  0  0  0  0  0
   37.6770   22.0020   30.2140 H   0  0  0  0  0  0  0  0  0  0  0  0
  1  7  1  0  0  0  0
  2  1  1  0  0  0  0
  2  9  1  0  0  0  0
  3  2  2  0  0  0  0
  4  5  2  0  0  0  0
  4  3  1  0  0  0  0
  5  6  1  0  0  0  0
  6  1  2  0  0  0  0
  8  5  1  0  0  0  0
  9 13  1  0  0  0  0
 10  9  1  0  0  0  0
 10 11  1  0  0  0  0
 10 14  1  0  0  0  0
 11 16  1  0  0  0  0
 11 12  1  0  0  0  0
 12 13  1  0  0  0  0
 12 19  1  0  0  0  0
 13 20  1  1  0  0  0
 13 21  1  0  0  0  0
 15 10  1  0  0  0  0
 17 11  1  0  0  0  0
 18 12  1  0  0  0  0
 21 23  1  0  0  0  0
 23 24  1  0  0  0  0
 23 22  2  0  0  0  0
 24 25  1  0  0  0  0
 26 23  1  0  0  0  0
 26 27  1  0  0  0  0
 28  3  1  0  0  0  0
 28 29  1  0  0  0  0
 29 34  1  0  0  0  0
 30 29  2  0  0  0  0
 30 35  1  0  0  0  0
 31 30  1  0  0  0  0
 32 33  1  0  0  0  0
 32 31  2  0  0  0  0
 33 28  2  0  0  0  0
 36 31  1  0  0  0  0
 37 32  1  0  0  0  0
 38 33  1  0  0  0  0
M  END
>  <minimizedAffinity>
-5.53459358

$$$$

 OpenBabel03272509143D

 38 40  0  0  1  0  0  0  0  0999 V2000
   37.4650   25.8440   32.9110 C   0  0  0  0  0  0  0  0  0  0  0  0
   37.5050   24.4230   32.8270 C   0  0  0  0  0  0  0  0  0  0  0  0
   36.5400   23.8070   32.0320 C   0  0  0  0  0  0  0  0  0  0  0  0
   35.6230   24.5860   31.3900 N   0  0  0  0  0  0  0  0  0  0  0  0
   35.6200   25.9240   31.4960 C   0  0  0  0  0  0  0  0  0  0  0  0
   36.5430   26.5500   32.2580 N   0  0  0  0  0  0  0  0  0  0  0  0
   38.1470   26.4470   33.4790 H   0  0  0  0  0  0  0  0  0  0  0  0
   34.8410   26.4510   30.9390 H   0  0  0  0  0  0  0  0  0  0  0  0
   38.5290   23.8080   33.5820 N   0  0  0  0  0  0  0  0  0  0  0  0
   39.9620   23.4790   33.4330 C   0  0  0  0  0  0  0  0  0  0  0  0
   39.9810   21.9930   33.8090 C   0  0  0  0  0  0  0  0  0  0  0  0
   38.9320   21.8780   34.8890 C   0  0  0  0  0  0  0  0  0  0  0  0
   38.3070   23.2730   34.9090 C   0  0  1  0  0  0  0  0  0  0  0  0
   40.5840   24.0200   34.1520 H   0  0  0  0  0  0  0  0  0  0  0  0
   40.2480   23.6540   32.3880 H   0  0  0  0  0  0  0  0  0  0  0  0
   40.9790   21.6940   34.1630 H   0  0  0  0  0  0  0  0  0  0  0  0
   39.6740   21.4630   32.8670 H   0  0  0  0  0  0  0  0  0  0  0  0
   38.2040   21.0800   34.7110 H   0  0  0  0  0  0  0  0  0  0  0  0
   39.4490   21.7550   35.8610 H   0  0  0  0  0  0  0  0  0  0  0  0
   37.2410   23.0810   35.1370 H   0  0  0  0  0  0  0  0  0  0  0  0
   38.8460   24.0350   35.9290 O   0  0  0  0  0  0  0  0  0  0  0  0
   37.8730   24.5790   38.3140 O   0  0  0  0  0  0  0  0  0  0  0  0
   38.2560   23.4410   37.3960 P   0  0  0  0  0  0  0  0  0  0  0  0
   39.5060   22.5740   38.1310 O   0  0  0  0  0  0  0  0  0  0  0  0
   39.8580   23.1200   38.8710 H   0  0  0  0  0  0  0  0  0  0  0  0
   36.8960   22.4600   37.1510 O   0  0  0  0  0  0  0  0  0  0  0  0
   37.0760   21.6020   37.6090 H   0  0  0  0  0  0  0  0  0  0  0  0
   36.4880   22.3810   31.8740 C   0  0  0  0  0  0  0  0  0  0  0  0
   37.3370   21.7820   30.9810 C   0  0  0  0  0  0  0  0  0  0  0  0
   37.3660   20.4200   30.7590 C   0  0  0  0  0  0  0  0  0  0  0  0
   36.4750   19.6530   31.4960 C   0  0  0  0  0  0  0  0  0  0  0  0
   35.5790   20.1870   32.4230 C   0  0  0  0  0  0  0  0  0  0  0  0
   35.6170   21.5780   32.5870 C   0  0  0  0  0  0  0  0  0  0  0  0
   38.0630   22.3320   30.3710 H   0  0  0  0  0  0  0  0  0  0  0  0
   38.0250   19.9400   30.0650 H   0  0  0  0  0  0  0  0  0  0  0  0
   36.4320   18.5740   31.3820 H   0  0  0  0  0  0  0  0  0  0  0  0
   34.9030   19.5810   32.9780 H   0  0  0  0  0  0  0  0  0  0  0  0
   34.9350   22.0300   33.2990 H   0  0  0  0  0  0  0  0  0  0  0  0
  1  7  1  0  0  0  0
  2  1  1  0  0  0  0
  2  9  1  0  0  0  0
  3  2  2  0  0  0  0
  4  5  2  0  0  0  0
  4  3  1  0  0  0  0
  5  6  1  0  0  0  0
  6  1  2  0  0  0  0
  8  5  1  0  0  0  0
  9 13  1  0  0  0  0
 10  9  1  0  0  0  0
 10 11  1  0  0  0  0
 10 14  1  0  0  0  0
 11 16  1  0  0  0  0
 11 12  1  0  0  0  0
 12 13  1  0  0  0  0
 12 19  1  0  0  0  0
 13 20  1  1  0  0  0
 13 21  1  0  0  0  0
 15 10  1  0  0  0  0
 17 11  1  0  0  0  0
 18 12  1  0  0  0  0
 21 23  1  0  0  0  0
 23 24  1  0  0  0  0
 23 22  2  0  0  0  0
 24 25  1  0  0  0  0
 26 23  1  0  0  0  0
 26 27  1  0  0  0  0
 28  3  1  0  0  0  0
 28 33  1  0  0  0  0
 29 28  2  0  0  0  0
 30 29  1  0  0  0  0
 30 31  2  0  0  0  0
 31 32  1  0  0  0  0
 32 33  2  0  0  0  0
 32 37  1  0  0  0  0
 33 38  1  0  0  0  0
 34 29  1  0  0  0  0
 35 30  1  0  0  0  0
 36 31  1  0  0  0  0
M  END
>  <minimizedAffinity>
-5.42653036

$$$$

 OpenBabel03272509143D

 38 40  0  0  1  0  0  0  0  0999 V2000
   37.0740   25.9390   32.6130 C   0  0  0  0  0  0  0  0  0  0  0  0
   37.7030   25.0000   33.4780 C   0  0  0  0  0  0  0  0  0  0  0  0
   37.8750   25.3780   34.8080 C   0  0  0  0  0  0  0  0  0  0  0  0
   37.4380   26.6080   35.2030 N   0  0  0  0  0  0  0  0  0  0  0  0
   36.8490   27.4650   34.3550 C   0  0  0  0  0  0  0  0  0  0  0  0
   36.6690   27.1270   33.0600 N   0  0  0  0  0  0  0  0  0  0  0  0
   36.8740   25.7800   31.5710 H   0  0  0  0  0  0  0  0  0  0  0  0
   36.5370   28.4250   34.7760 H   0  0  0  0  0  0  0  0  0  0  0  0
   38.0910   23.7880   32.8630 N   0  0  0  0  0  0  0  0  0  0  0  0
   39.3140   23.1790   32.3000 C   0  0  0  0  0  0  0  0  0  0  0  0
   38.8250   22.7180   30.9220 C   0  0  0  0  0  0  0  0  0  0  0  0
   37.3970   22.2940   31.1660 C   0  0  0  0  0  0  0  0  0  0  0  0
   37.1610   22.7040   32.6200 C   0  0  1  0  0  0  0  0  0  0  0  0
   39.6290   22.2960   32.8630 H   0  0  0  0  0  0  0  0  0  0  0  0
   40.0850   23.9560   32.2350 H   0  0  0  0  0  0  0  0  0  0  0  0
   39.4480   21.8920   30.5450 H   0  0  0  0  0  0  0  0  0  0  0  0
   38.8860   23.6390   30.2810 H   0  0  0  0  0  0  0  0  0  0  0  0
   36.6810   22.7390   30.4680 H   0  0  0  0  0  0  0  0  0  0  0  0
   37.3570   21.1860   31.1450 H   0  0  0  0  0  0  0  0  0  0  0  0
   36.1000   23.0190   32.6360 H   0  0  0  0  0  0  0  0  0  0  0  0
   37.3140   21.6200   33.4650 O   0  0  0  0  0  0  0  0  0  0  0  0
   34.7910   21.4860   32.7240 O   0  0  0  0  0  0  0  0  0  0  0  0
   35.8910   20.7120   33.4150 P   0  0  0  0  0  0  0  0  0  0  0  0
   35.4110   20.4350   35.0110 O   0  0  0  0  0  0  0  0  0  0  0  0
   34.6420   21.0200   35.2020 H   0  0  0  0  0  0  0  0  0  0  0  0
   36.1300   19.2520   32.5890 O   0  0  0  0  0  0  0  0  0  0  0  0
   35.8140   18.5300   33.1870 H   0  0  0  0  0  0  0  0  0  0  0  0
   38.4950   24.5080   35.7680 C   0  0  0  0  0  0  0  0  0  0  0  0
   39.8000   24.1340   35.5770 C   0  0  0  0  0  0  0  0  0  0  0  0
   40.4840   23.3050   36.4420 C   0  0  0  0  0  0  0  0  0  0  0  0
   39.7820   22.8470   37.5480 C   0  0  0  0  0  0  0  0  0  0  0  0
   38.4530   23.1810   37.8110 C   0  0  0  0  0  0  0  0  0  0  0  0
   37.8340   24.0280   36.8830 C   0  0  0  0  0  0  0  0  0  0  0  0
   40.4060   24.4620   34.7260 H   0  0  0  0  0  0  0  0  0  0  0  0
   41.5030   23.0060   36.3050 H   0  0  0  0  0  0  0  0  0  0  0  0
   40.2460   22.1910   38.2770 H   0  0  0  0  0  0  0  0  0  0  0  0
   37.9320   22.8190   38.6660 H   0  0  0  0  0  0  0  0  0  0  0  0
   36.8000   24.3100   37.0540 H   0  0  0  0  0  0  0  0  0  0  0  0
  1  6  2  0  0  0  0
  1  2  1  0  0  0  0
  2  3  2  0  0  0  0
  3  4  1  0  0  0  0
  3 28  1  0  0  0  0
  5  8  1  0  0  0  0
  5  4  2  0  0  0  0
  6  5  1  0  0  0  0
  7  1  1  0  0  0  0
  9  2  1  0  0  0  0
 10  9  1  0  0  0  0
 10 14  1  0  0  0  0
 11 12  1  0  0  0  0
 11 10  1  0  0  0  0
 12 13  1  0  0  0  0
 13 20  1  1  0  0  0
 13  9  1  0  0  0  0
 13 21  1  0  0  0  0
 15 10  1  0  0  0  0
 16 11  1  0  0  0  0
 17 11  1  0  0  0  0
 18 12  1  0  0  0  0
 19 12  1  0  0  0  0
 22 23  2  0  0  0  0
 23 21  1  0  0  0  0
 23 24  1  0  0  0  0
 24 25  1  0  0  0  0
 26 27  1  0  0  0  0
 26 23  1  0  0  0  0
 28 33  1  0  0  0  0
 29 28  2  0  0  0  0
 29 30  1  0  0  0  0
 30 31  2  0  0  0  0
 31 32  1  0  0  0  0
 31 36  1  0  0  0  0
 32 37  1  0  0  0  0
 33 38  1  0  0  0  0
 33 32  2  0  0  0  0
 34 29  1  0  0  0  0
 35 30  1  0  0  0  0
M  END
>  <minimizedAffinity>
-5.35427046

$$$$

 OpenBabel03272509143D

 38 40  0  0  1  0  0  0  0  0999 V2000
   36.9320   25.6530   31.9350 C   0  0  0  0  0  0  0  0  0  0  0  0
   37.0790   24.2560   32.1680 C   0  0  0  0  0  0  0  0  0  0  0  0
   36.0780   23.4210   31.6740 C   0  0  0  0  0  0  0  0  0  0  0  0
   35.0280   23.9790   31.0070 N   0  0  0  0  0  0  0  0  0  0  0  0
   34.9260   25.3020   30.8090 C   0  0  0  0  0  0  0  0  0  0  0  0
   35.8810   26.1370   31.2740 N   0  0  0  0  0  0  0  0  0  0  0  0
   37.6250   26.4070   32.2530 H   0  0  0  0  0  0  0  0  0  0  0  0
   34.0430   25.6440   30.2610 H   0  0  0  0  0  0  0  0  0  0  0  0
   38.2360   23.8890   32.8920 N   0  0  0  0  0  0  0  0  0  0  0  0
   39.5720   23.3180   32.6190 C   0  0  0  0  0  0  0  0  0  0  0  0
   39.6270   22.1640   33.6250 C   0  0  0  0  0  0  0  0  0  0  0  0
   38.8800   22.6920   34.8270 C   0  0  0  0  0  0  0  0  0  0  0  0
   38.3350   24.0310   34.3290 C   0  0  1  0  0  0  0  0  0  0  0  0
   40.3740   24.0210   32.8620 H   0  0  0  0  0  0  0  0  0  0  0  0
   39.5910   22.9730   31.5790 H   0  0  0  0  0  0  0  0  0  0  0  0
   40.6710   21.9050   33.8640 H   0  0  0  0  0  0  0  0  0  0  0  0
   39.0740   21.3270   33.1210 H   0  0  0  0  0  0  0  0  0  0  0  0
   38.1010   22.0150   35.1920 H   0  0  0  0  0  0  0  0  0  0  0  0
   39.6200   22.9320   35.6170 H   0  0  0  0  0  0  0  0  0  0  0  0
   37.3540   24.1190   34.8340 H   0  0  0  0  0  0  0  0  0  0  0  0
   39.1420   25.0730   34.7460 O   0  0  0  0  0  0  0  0  0  0  0  0
   36.9060   26.3610   35.2680 O   0  0  0  0  0  0  0  0  0  0  0  0
   38.2610   26.0130   35.8390 P   0  0  0  0  0  0  0  0  0  0  0  0
   39.1150   27.4530   36.0710 O   0  0  0  0  0  0  0  0  0  0  0  0
   38.6430   28.1660   35.5830 H   0  0  0  0  0  0  0  0  0  0  0  0
   38.0400   25.1940   37.3060 O   0  0  0  0  0  0  0  0  0  0  0  0
   38.3540   25.7990   38.0220 H   0  0  0  0  0  0  0  0  0  0  0  0
   36.1260   21.9970   31.8490 C   0  0  0  0  0  0  0  0  0  0  0  0
   35.5310   21.4440   32.9530 C   0  0  0  0  0  0  0  0  0  0  0  0
   35.5210   20.0890   33.2100 C   0  0  0  0  0  0  0  0  0  0  0  0
   36.1560   19.2780   32.2810 C   0  0  0  0  0  0  0  0  0  0  0  0
   36.7850   19.7620   31.1340 C   0  0  0  0  0  0  0  0  0  0  0  0
   36.7480   21.1500   30.9500 C   0  0  0  0  0  0  0  0  0  0  0  0
   35.0150   22.0310   33.7210 H   0  0  0  0  0  0  0  0  0  0  0  0
   35.0600   19.6450   34.0680 H   0  0  0  0  0  0  0  0  0  0  0  0
   36.1950   18.2000   32.4070 H   0  0  0  0  0  0  0  0  0  0  0  0
   37.2670   19.1220   30.4320 H   0  0  0  0  0  0  0  0  0  0  0  0
   37.2260   21.5660   30.0690 H   0  0  0  0  0  0  0  0  0  0  0  0
  1  2  1  0  0  0  0
  1  7  1  0  0  0  0
  2  9  1  0  0  0  0
  3 28  1  0  0  0  0
  3  2  2  0  0  0  0
  4  3  1  0  0  0  0
  5  4  2  0  0  0  0
  5  6  1  0  0  0  0
  6  1  2  0  0  0  0
  8  5  1  0  0  0  0
  9 13  1  0  0  0  0
 10 14  1  0  0  0  0
 10  9  1  0  0  0  0
 10 11  1  0  0  0  0
 11 16  1  0  0  0  0
 11 12  1  0  0  0  0
 12 18  1  0  0  0  0
 12 19  1  0  0  0  0
 13 21  1  0  0  0  0
 13 12  1  0  0  0  0
 13 20  1  1  0  0  0
 15 10  1  0  0  0  0
 17 11  1  0  0  0  0
 21 23  1  0  0  0  0
 22 23  2  0  0  0  0
 23 24  1  0  0  0  0
 23 26  1  0  0  0  0
 25 24  1  0  0  0  0
 26 27  1  0  0  0  0
 28 29  1  0  0  0  0
 29 30  2  0  0  0  0
 29 34  1  0  0  0  0
 30 35  1  0  0  0  0
 31 36  1  0  0  0  0
 31 30  1  0  0  0  0
 32 31  2  0  0  0  0
 33 32  1  0  0  0  0
 33 28  2  0  0  0  0
 37 32  1  0  0  0  0
 38 33  1  0  0  0  0
M  END
>  <minimizedAffinity>
-5.30410862

$$$$

 OpenBabel03272509143D

 38 40  0  0  1  0  0  0  0  0999 V2000
   37.4300   23.5590   32.4080 C   0  0  0  0  0  0  0  0  0  0  0  0
   37.8480   23.8460   33.7390 C   0  0  0  0  0  0  0  0  0  0  0  0
   37.9330   22.7720   34.6230 C   0  0  0  0  0  0  0  0  0  0  0  0
   37.6140   21.5250   34.1740 N   0  0  0  0  0  0  0  0  0  0  0  0
   37.2230   21.2960   32.9110 C   0  0  0  0  0  0  0  0  0  0  0  0
   37.1320   22.3160   32.0300 N   0  0  0  0  0  0  0  0  0  0  0  0
   37.3250   24.2840   31.6250 H   0  0  0  0  0  0  0  0  0  0  0  0
   36.9920   20.2590   32.6550 H   0  0  0  0  0  0  0  0  0  0  0  0
   38.1180   25.2080   33.9990 N   0  0  0  0  0  0  0  0  0  0  0  0
   37.4160   26.3840   34.5550 C   0  0  0  0  0  0  0  0  0  0  0  0
   37.6630   27.4360   33.4680 C   0  0  0  0  0  0  0  0  0  0  0  0
   39.0510   27.1190   32.9640 C   0  0  0  0  0  0  0  0  0  0  0  0
   39.3940   25.8230   33.6980 C   0  0  1  0  0  0  0  0  0  0  0  0
   37.8780   26.7370   35.4820 H   0  0  0  0  0  0  0  0  0  0  0  0
   36.3550   26.1310   34.6640 H   0  0  0  0  0  0  0  0  0  0  0  0
   37.5930   28.4520   33.8870 H   0  0  0  0  0  0  0  0  0  0  0  0
   36.8770   27.2270   32.6940 H   0  0  0  0  0  0  0  0  0  0  0  0
   39.1130   27.0300   31.8750 H   0  0  0  0  0  0  0  0  0  0  0  0
   39.7450   27.8900   33.3540 H   0  0  0  0  0  0  0  0  0  0  0  0
   39.9960   25.2560   32.9630 H   0  0  0  0  0  0  0  0  0  0  0  0
   40.1790   26.0820   34.8070 O   0  0  0  0  0  0  0  0  0  0  0  0
   42.5240   25.0620   35.4310 O   0  0  0  0  0  0  0  0  0  0  0  0
   41.7940   25.8530   34.3700 P   0  0  0  0  0  0  0  0  0  0  0  0
   42.5130   27.3790   34.2690 O   0  0  0  0  0  0  0  0  0  0  0  0
   43.0860   27.4960   35.0610 H   0  0  0  0  0  0  0  0  0  0  0  0
   41.9150   25.0250   32.8960 O   0  0  0  0  0  0  0  0  0  0  0  0
   42.4980   25.5670   32.3110 H   0  0  0  0  0  0  0  0  0  0  0  0
   38.3460   22.9470   35.9870 C   0  0  0  0  0  0  0  0  0  0  0  0
   39.6320   22.6270   36.3360 C   0  0  0  0  0  0  0  0  0  0  0  0
   40.1250   22.7610   37.6180 C   0  0  0  0  0  0  0  0  0  0  0  0
   39.2430   23.2460   38.5730 C   0  0  0  0  0  0  0  0  0  0  0  0
   37.9200   23.5920   38.2980 C   0  0  0  0  0  0  0  0  0  0  0  0
   37.5010   23.4260   36.9720 C   0  0  0  0  0  0  0  0  0  0  0  0
   40.3750   22.2420   35.6290 H   0  0  0  0  0  0  0  0  0  0  0  0
   41.1270   22.5160   37.9030 H   0  0  0  0  0  0  0  0  0  0  0  0
   39.5490   23.3810   39.6060 H   0  0  0  0  0  0  0  0  0  0  0  0
   37.2580   23.9620   39.0460 H   0  0  0  0  0  0  0  0  0  0  0  0
   36.4780   23.6840   36.7180 H   0  0  0  0  0  0  0  0  0  0  0  0
  1  2  1  0  0  0  0
  2  9  1  0  0  0  0
  2  3  2  0  0  0  0
  3 28  1  0  0  0  0
  4  3  1  0  0  0  0
  5  4  2  0  0  0  0
  6  1  2  0  0  0  0
  6  5  1  0  0  0  0
  7  1  1  0  0  0  0
  8  5  1  0  0  0  0
  9 10  1  0  0  0  0
 10 15  1  0  0  0  0
 10 14  1  0  0  0  0
 11 16  1  0  0  0  0
 11 10  1  0  0  0  0
 12 19  1  0  0  0  0
 12 11  1  0  0  0  0
 12 13  1  0  0  0  0
 13 20  1  6  0  0  0
 13  9  1  0  0  0  0
 13 21  1  0  0  0  0
 17 11  1  0  0  0  0
 18 12  1  0  0  0  0
 23 21  1  0  0  0  0
 23 22  2  0  0  0  0
 24 23  1  0  0  0  0
 24 25  1  0  0  0  0
 26 23  1  0  0  0  0
 27 26  1  0  0  0  0
 28 29  2  0  0  0  0
 28 33  1  0  0  0  0
 29 30  1  0  0  0  0
 30 35  1  0  0  0  0
 30 31  2  0  0  0  0
 31 36  1  0  0  0  0
 32 31  1  0  0  0  0
 32 37  1  0  0  0  0
 33 32  2  0  0  0  0
 34 29  1  0  0  0  0
 38 33  1  0  0  0  0
M  END
>  <minimizedAffinity>
-5.26989222

$$$$

 OpenBabel03272509143D

 38 40  0  0  1  0  0  0  0  0999 V2000
   40.2150   26.4190   32.2220 C   0  0  0  0  0  0  0  0  0  0  0  0
   39.5480   25.6250   33.1970 C   0  0  0  0  0  0  0  0  0  0  0  0
   40.0820   25.6170   34.4840 C   0  0  0  0  0  0  0  0  0  0  0  0
   41.1990   26.3570   34.7350 N   0  0  0  0  0  0  0  0  0  0  0  0
   41.8000   27.0930   33.7870 C   0  0  0  0  0  0  0  0  0  0  0  0
   41.3050   27.1210   32.5310 N   0  0  0  0  0  0  0  0  0  0  0  0
   39.9130   26.5210   31.1980 H   0  0  0  0  0  0  0  0  0  0  0  0
   42.6890   27.6490   34.0960 H   0  0  0  0  0  0  0  0  0  0  0  0
   38.4140   24.9250   32.7230 N   0  0  0  0  0  0  0  0  0  0  0  0
   37.6860   23.6740   33.0230 C   0  0  0  0  0  0  0  0  0  0  0  0
   37.5900   23.0310   31.6350 C   0  0  0  0  0  0  0  0  0  0  0  0
   37.4220   24.2050   30.7000 C   0  0  0  0  0  0  0  0  0  0  0  0
   37.6010   25.4080   31.6270 C   0  0  1  0  0  0  0  0  0  0  0  0
   36.6710   23.8670   33.3800 H   0  0  0  0  0  0  0  0  0  0  0  0
   38.2920   23.0840   33.7210 H   0  0  0  0  0  0  0  0  0  0  0  0
   36.7380   22.3350   31.5870 H   0  0  0  0  0  0  0  0  0  0  0  0
   38.5800   22.5200   31.4940 H   0  0  0  0  0  0  0  0  0  0  0  0
   38.1210   24.1990   29.8580 H   0  0  0  0  0  0  0  0  0  0  0  0
   36.3680   24.2290   30.3600 H   0  0  0  0  0  0  0  0  0  0  0  0
   38.1130   26.1560   30.9910 H   0  0  0  0  0  0  0  0  0  0  0  0
   36.3730   25.9180   32.0080 O   0  0  0  0  0  0  0  0  0  0  0  0
   37.4430   28.3230   32.0460 O   0  0  0  0  0  0  0  0  0  0  0  0
   36.2880   27.5230   31.4890 P   0  0  0  0  0  0  0  0  0  0  0  0
   34.8550   28.1780   32.1010 O   0  0  0  0  0  0  0  0  0  0  0  0
   35.0910   28.7760   32.8460 H   0  0  0  0  0  0  0  0  0  0  0  0
   36.3270   27.6170   29.7970 O   0  0  0  0  0  0  0  0  0  0  0  0
   35.5450   28.1570   29.5230 H   0  0  0  0  0  0  0  0  0  0  0  0
   39.4880   24.8530   35.5450 C   0  0  0  0  0  0  0  0  0  0  0  0
   40.0370   23.6430   35.8780 C   0  0  0  0  0  0  0  0  0  0  0  0
   39.5410   22.8370   36.8820 C   0  0  0  0  0  0  0  0  0  0  0  0
   38.4300   23.3100   37.5650 C   0  0  0  0  0  0  0  0  0  0  0  0
   37.8130   24.5300   37.2860 C   0  0  0  0  0  0  0  0  0  0  0  0
   38.3800   25.2850   36.2520 C   0  0  0  0  0  0  0  0  0  0  0  0
   40.9130   23.2160   35.3780 H   0  0  0  0  0  0  0  0  0  0  0  0
   39.9620   21.8900   37.1530 H   0  0  0  0  0  0  0  0  0  0  0  0
   37.9770   22.7380   38.3690 H   0  0  0  0  0  0  0  0  0  0  0  0
   36.9600   24.8750   37.8210 H   0  0  0  0  0  0  0  0  0  0  0  0
   37.9280   26.2400   36.0040 H   0  0  0  0  0  0  0  0  0  0  0  0
  1  6  2  0  0  0  0
  1  2  1  0  0  0  0
  2  3  2  0  0  0  0
  3  4  1  0  0  0  0
  3 28  1  0  0  0  0
  5  8  1  0  0  0  0
  5  4  2  0  0  0  0
  6  5  1  0  0  0  0
  7  1  1  0  0  0  0
  9 10  1  0  0  0  0
  9  2  1  0  0  0  0
 10 14  1  0  0  0  0
 10 15  1  0  0  0  0
 11 10  1  0  0  0  0
 12 13  1  0  0  0  0
 12 11  1  0  0  0  0
 13 20  1  6  0  0  0
 13 21  1  0  0  0  0
 13  9  1  0  0  0  0
 16 11  1  0  0  0  0
 17 11  1  0  0  0  0
 18 12  1  0  0  0  0
 19 12  1  0  0  0  0
 23 21  1  0  0  0  0
 23 22  2  0  0  0  0
 23 24  1  0  0  0  0
 24 25  1  0  0  0  0
 26 23  1  0  0  0  0
 27 26  1  0  0  0  0
 28 29  2  0  0  0  0
 28 33  1  0  0  0  0
 29 30  1  0  0  0  0
 30 35  1  0  0  0  0
 30 31  2  0  0  0  0
 31 36  1  0  0  0  0
 32 31  1  0  0  0  0
 32 37  1  0  0  0  0
 33 32  2  0  0  0  0
 34 29  1  0  0  0  0
 38 33  1  0  0  0  0
M  END
>  <minimizedAffinity>
-5.09850454

$$$$
