
 OpenBabel03272509123D

 38 40  0  0  1  0  0  0  0  0999 V2000
   35.2570   29.9760   46.3150 C   0  0  0  0  0  0  0  0  0  0  0  0
   36.5250   30.6190   46.4070 C   0  0  0  0  0  0  0  0  0  0  0  0
   37.2740   30.7150   45.2360 C   0  0  0  0  0  0  0  0  0  0  0  0
   36.7620   30.1950   44.0840 N   0  0  0  0  0  0  0  0  0  0  0  0
   35.5620   29.5960   44.0400 C   0  0  0  0  0  0  0  0  0  0  0  0
   34.8120   29.4880   45.1590 N   0  0  0  0  0  0  0  0  0  0  0  0
   34.5760   29.8370   47.1330 H   0  0  0  0  0  0  0  0  0  0  0  0
   35.2470   29.2140   43.0650 H   0  0  0  0  0  0  0  0  0  0  0  0
   36.8710   31.0750   47.6990 N   0  0  0  0  0  0  0  0  0  0  0  0
   37.5020   32.2600   48.3170 C   0  0  0  0  0  0  0  0  0  0  0  0
   38.5780   31.6160   49.1980 C   0  0  0  0  0  0  0  0  0  0  0  0
   37.9370   30.3350   49.6760 C   0  0  0  0  0  0  0  0  0  0  0  0
   36.6240   30.2960   48.8950 C   0  0  1  0  0  0  0  0  0  0  0  0
   36.8080   32.8010   48.9670 H   0  0  0  0  0  0  0  0  0  0  0  0
   37.9260   32.8790   47.5170 H   0  0  0  0  0  0  0  0  0  0  0  0
   38.8500   32.2830   50.0310 H   0  0  0  0  0  0  0  0  0  0  0  0
   39.4340   31.4210   48.4960 H   0  0  0  0  0  0  0  0  0  0  0  0
   38.5600   29.4480   49.5220 H   0  0  0  0  0  0  0  0  0  0  0  0
   37.6610   30.4630   50.7420 H   0  0  0  0  0  0  0  0  0  0  0  0
   36.4670   29.2190   48.6970 H   0  0  0  0  0  0  0  0  0  0  0  0
   35.5780   30.7600   49.6720 O   0  0  0  0  0  0  0  0  0  0  0  0
   34.9510   28.2070   49.5200 O   0  0  0  0  0  0  0  0  0  0  0  0
   34.8390   29.4290   50.4030 P   0  0  0  0  0  0  0  0  0  0  0  0
   33.1980   29.7960   50.5800 O   0  0  0  0  0  0  0  0  0  0  0  0
   32.7000   29.2850   49.9020 H   0  0  0  0  0  0  0  0  0  0  0  0
   35.5510   29.0850   51.9020 O   0  0  0  0  0  0  0  0  0  0  0  0
   34.8180   29.0490   52.5650 H   0  0  0  0  0  0  0  0  0  0  0  0
   38.5640   31.3450   45.2130 C   0  0  0  0  0  0  0  0  0  0  0  0
   38.6570   32.6500   44.8070 C   0  0  0  0  0  0  0  0  0  0  0  0
   39.8490   33.3430   44.7520 C   0  0  0  0  0  0  0  0  0  0  0  0
   40.9880   32.6490   45.1350 C   0  0  0  0  0  0  0  0  0  0  0  0
   40.9760   31.3210   45.5600 C   0  0  0  0  0  0  0  0  0  0  0  0
   39.7250   30.6920   45.5860 C   0  0  0  0  0  0  0  0  0  0  0  0
   37.7960   33.2510   44.4930 H   0  0  0  0  0  0  0  0  0  0  0  0
   39.9350   34.3630   44.4370 H   0  0  0  0  0  0  0  0  0  0  0  0
   41.9660   33.1200   45.1210 H   0  0  0  0  0  0  0  0  0  0  0  0
   41.8620   30.8050   45.8490 H   0  0  0  0  0  0  0  0  0  0  0  0
   39.6750   29.6580   45.9100 H   0  0  0  0  0  0  0  0  0  0  0  0
  1  2  1  0  0  0  0
  1  7  1  0  0  0  0
  2  9  1  0  0  0  0
  3  2  2  0  0  0  0
  4  3  1  0  0  0  0
  5  4  2  0  0  0  0
  5  6  1  0  0  0  0
  6  1  2  0  0  0  0
  8  5  1  0  0  0  0
  9 10  1  0  0  0  0
  9 13  1  0  0  0  0
 10 14  1  0  0  0  0
 10 11  1  0  0  0  0
 11 12  1  0  0  0  0
 11 16  1  0  0  0  0
 12 19  1  0  0  0  0
 13 20  1  6  0  0  0
 13 21  1  0  0  0  0
 13 12  1  0  0  0  0
 15 10  1  0  0  0  0
 17 11  1  0  0  0  0
 18 12  1  0  0  0  0
 21 23  1  0  0  0  0
 22 23  2  0  0  0  0
 23 24  1  0  0  0  0
 23 26  1  0  0  0  0
 25 24  1  0  0  0  0
 26 27  1  0  0  0  0
 28  3  1  0  0  0  0
 28 33  1  0  0  0  0
 29 28  2  0  0  0  0
 30 29  1  0  0  0  0
 30 31  2  0  0  0  0
 31 32  1  0  0  0  0
 32 33  2  0  0  0  0
 32 37  1  0  0  0  0
 33 38  1  0  0  0  0
 34 29  1  0  0  0  0
 35 30  1  0  0  0  0
 36 31  1  0  0  0  0
M  END
>  <minimizedAffinity>
-5.98145771

>  <minimizedRMSD>
1.8714571

$$$$
