
 OpenBabel03272508523D

 36 38  0  0  1  0  0  0  0  0999 V2000
   38.1520   31.1720   44.8760 C   0  0  0  0  0  0  0  0  0  0  0  0
   37.1210   30.4710   45.1010 O   0  0  0  0  0  0  0  0  0  0  0  0
   38.6020   32.1350   45.8350 N   0  0  0  0  0  0  0  0  0  0  0  0
   39.3430   32.8460   45.6470 H   0  0  0  0  0  0  0  0  0  0  0  0
   38.9070   31.0130   43.6250 C   0  0  0  0  0  0  0  0  0  0  0  0
   40.0660   30.2840   43.6580 C   0  0  0  0  0  0  0  0  0  0  0  0
   40.7800   30.1270   42.4860 C   0  0  0  0  0  0  0  0  0  0  0  0
   40.2810   30.7170   41.3420 C   0  0  0  0  0  0  0  0  0  0  0  0
   39.1050   31.4610   41.2990 C   0  0  0  0  0  0  0  0  0  0  0  0
   38.4660   31.5700   42.4760 N   0  0  0  0  0  0  0  0  0  0  0  0
   40.4920   29.8050   44.5300 H   0  0  0  0  0  0  0  0  0  0  0  0
   41.7000   29.5680   42.4230 H   0  0  0  0  0  0  0  0  0  0  0  0
   40.8160   30.6150   40.4000 H   0  0  0  0  0  0  0  0  0  0  0  0
   38.6570   32.0280   40.1210 O   0  0  0  0  0  0  0  0  0  0  0  0
   37.9390   34.3080   38.9330 O   0  0  0  0  0  0  0  0  0  0  0  0
   37.9180   33.5860   40.2610 P   0  0  0  0  0  0  0  0  0  0  0  0
   36.3520   33.4610   40.8390 O   0  0  0  0  0  0  0  0  0  0  0  0
   36.0760   34.3620   41.1550 H   0  0  0  0  0  0  0  0  0  0  0  0
   38.9080   34.4510   41.3520 O   0  0  0  0  0  0  0  0  0  0  0  0
   38.5400   35.3300   41.5650 H   0  0  0  0  0  0  0  0  0  0  0  0
   38.6210   31.3540   48.1980 C   0  0  2  0  0  0  0  0  0  0  0  0
   38.8390   32.8060   48.2430 C   0  0  0  0  0  0  0  0  0  0  0  0
   37.9820   32.1120   47.1500 C   0  0  1  0  0  0  0  0  0  0  0  0
   39.5580   30.7760   47.9950 H   0  0  0  0  0  0  0  0  0  0  0  0
   39.8120   33.2210   47.9220 H   0  0  0  0  0  0  0  0  0  0  0  0
   38.3030   33.4790   48.9290 H   0  0  0  0  0  0  0  0  0  0  0  0
   36.8950   32.3580   47.2110 H   0  0  0  0  0  0  0  0  0  0  0  0
   36.0390   29.1690   49.6760 C   0  0  0  0  0  0  0  0  0  0  0  0
   36.2730   29.3260   51.0800 C   0  0  0  0  0  0  0  0  0  0  0  0
   37.3330   30.2040   51.4760 C   0  0  0  0  0  0  0  0  0  0  0  0
   38.0600   30.8400   50.5220 N   0  0  0  0  0  0  0  0  0  0  0  0
   37.7790   30.6430   49.2020 C   0  0  0  0  0  0  0  0  0  0  0  0
   36.7760   29.8140   48.7430 N   0  0  0  0  0  0  0  0  0  0  0  0
   35.2490   28.5160   49.3560 H   0  0  0  0  0  0  0  0  0  0  0  0
   35.6620   28.7930   51.7850 H   0  0  0  0  0  0  0  0  0  0  0  0
   37.5170   30.3270   52.5220 H   0  0  0  0  0  0  0  0  0  0  0  0
  1  2  2  0  0  0  0
  1  3  1  0  0  0  0
  3 23  1  0  0  0  0
  4  3  1  0  0  0  0
  5  6  1  0  0  0  0
  5  1  1  0  0  0  0
  6 11  1  0  0  0  0
  7  6  2  0  0  0  0
  8  7  1  0  0  0  0
  9  8  2  0  0  0  0
  9 10  1  0  0  0  0
 10  5  2  0  0  0  0
 12  7  1  0  0  0  0
 13  8  1  0  0  0  0
 14 16  1  0  0  0  0
 14  9  1  0  0  0  0
 15 16  2  0  0  0  0
 16 17  1  0  0  0  0
 16 19  1  0  0  0  0
 17 18  1  0  0  0  0
 19 20  1  0  0  0  0
 21 24  1  6  0  0  0
 21 22  1  0  0  0  0
 21 32  1  0  0  0  0
 22 26  1  0  0  0  0
 23 27  1  1  0  0  0
 23 21  1  0  0  0  0
 23 22  1  0  0  0  0
 25 22  1  0  0  0  0
 28 29  1  0  0  0  0
 29 30  2  0  0  0  0
 29 35  1  0  0  0  0
 30 36  1  0  0  0  0
 31 30  1  0  0  0  0
 32 31  2  0  0  0  0
 33 32  1  0  0  0  0
 33 28  2  0  0  0  0
 34 28  1  0  0  0  0
M  END
>  <minimizedAffinity>
-5.2361455

>  <minimizedRMSD>
1.68755245

$$$$
