
 OpenBabel03272505223D

 33 35  0  0  0  0  0  0  0  0999 V2000
   36.7900   30.8620   47.0280 Br  0  0  0  0  0  0  0  0  0  0  0  0
   35.3150   29.6650   46.8010 C   0  0  0  0  0  0  0  0  0  0  0  0
   34.8310   28.9470   47.8810 C   0  0  0  0  0  0  0  0  0  0  0  0
   33.7460   28.0950   47.6590 C   0  0  0  0  0  0  0  0  0  0  0  0
   33.1970   27.9890   46.4040 C   0  0  0  0  0  0  0  0  0  0  0  0
   33.6890   28.7150   45.3180 C   0  0  0  0  0  0  0  0  0  0  0  0
   34.7540   29.5500   45.5410 C   0  0  0  0  0  0  0  0  0  0  0  0
   33.4010   27.5540   48.5300 H   0  0  0  0  0  0  0  0  0  0  0  0
   32.3610   27.3100   46.3110 H   0  0  0  0  0  0  0  0  0  0  0  0
   33.2370   28.6080   44.3530 H   0  0  0  0  0  0  0  0  0  0  0  0
   37.4460   29.4640   50.5470 C   0  0  0  0  0  0  0  0  0  0  0  0
   36.8450   29.2640   49.3070 C   0  0  0  0  0  0  0  0  0  0  0  0
   35.4860   29.1440   49.1620 C   0  0  0  0  0  0  0  0  0  0  0  0
   34.7450   29.2300   50.3150 N   0  0  0  0  0  0  0  0  0  0  0  0
   35.3250   29.4220   51.5210 C   0  0  0  0  0  0  0  0  0  0  0  0
   36.6550   29.5390   51.6440 N   0  0  0  0  0  0  0  0  0  0  0  0
   38.5190   29.5610   50.6690 H   0  0  0  0  0  0  0  0  0  0  0  0
   37.5410   29.1990   48.4990 H   0  0  0  0  0  0  0  0  0  0  0  0
   34.6810   29.4820   52.4030 H   0  0  0  0  0  0  0  0  0  0  0  0
   35.3020   30.3250   44.4360 C   0  0  0  0  0  0  0  0  0  0  0  0
   34.6070   31.1160   43.5680 C   0  0  0  0  0  0  0  0  0  0  0  0
   35.4390   31.6770   42.6790 N   0  0  0  0  0  0  0  0  0  0  0  0
   36.6720   31.2520   42.9660 C   0  0  0  0  0  0  0  0  0  0  0  0
   36.6140   30.4270   44.0330 N   0  0  0  0  0  0  0  0  0  0  0  0
   33.5340   31.2930   43.5640 H   0  0  0  0  0  0  0  0  0  0  0  0
   35.2210   32.3270   41.8930 H   0  0  0  0  0  0  0  0  0  0  0  0
   37.9050   31.5090   42.3810 O   0  0  0  0  0  0  0  0  0  0  0  0
   39.3650   33.6540   42.3000 O   0  0  0  0  0  0  0  0  0  0  0  0
   39.0330   32.5180   43.2220 P   0  0  0  0  0  0  0  0  0  0  0  0
   40.4150   31.6780   43.6380 O   0  0  0  0  0  0  0  0  0  0  0  0
   40.2860   30.7380   43.8480 H   0  0  0  0  0  0  0  0  0  0  0  0
   38.2820   33.0420   44.6350 O   0  0  0  0  0  0  0  0  0  0  0  0
   37.4960   32.4920   44.8410 H   0  0  0  0  0  0  0  0  0  0  0  0
  2  1  1  0  0  0  0
  2  3  1  0  0  0  0
  3 13  1  0  0  0  0
  4  3  2  0  0  0  0
  4  8  1  0  0  0  0
  5  4  1  0  0  0  0
  6  7  1  0  0  0  0
  6  5  2  0  0  0  0
  7  2  2  0  0  0  0
  9  5  1  0  0  0  0
 10  6  1  0  0  0  0
 11 17  1  0  0  0  0
 11 16  1  0  0  0  0
 12 11  2  0  0  0  0
 13 12  1  0  0  0  0
 13 14  2  0  0  0  0
 14 15  1  0  0  0  0
 15 16  2  0  0  0  0
 15 19  1  0  0  0  0
 18 12  1  0  0  0  0
 20  7  1  0  0  0  0
 21 20  2  0  0  0  0
 22 23  1  0  0  0  0
 22 21  1  0  0  0  0
 23 24  2  0  0  0  0
 24 20  1  0  0  0  0
 25 21  1  0  0  0  0
 26 22  1  0  0  0  0
 27 23  1  0  0  0  0
 27 29  1  0  0  0  0
 28 29  2  0  0  0  0
 29 30  1  0  0  0  0
 29 32  1  0  0  0  0
 30 31  1  0  0  0  0
 32 33  1  0  0  0  0
M  END
>  <minimizedAffinity>
-4.77433109

>  <minimizedRMSD>
3.67908168

$$$$
