
 OpenBabel03272510293D

 26 27  0  0  0  0  0  0  0  0999 V2000
   37.1860   31.3130   49.1950 C   0  0  0  0  0  0  0  0  0  0  0  0
   37.3680   32.5620   49.7950 C   0  0  0  0  0  0  0  0  0  0  0  0
   38.3290   33.3790   49.1960 C   0  0  0  0  0  0  0  0  0  0  0  0
   39.0140   32.9260   48.0970 N   0  0  0  0  0  0  0  0  0  0  0  0
   38.7930   31.7030   47.5600 C   0  0  0  0  0  0  0  0  0  0  0  0
   37.8570   30.8690   48.1200 N   0  0  0  0  0  0  0  0  0  0  0  0
   36.8020   32.8620   50.6540 H   0  0  0  0  0  0  0  0  0  0  0  0
   38.5290   34.3620   49.6000 H   0  0  0  0  0  0  0  0  0  0  0  0
   36.1370   30.4230   49.7920 C   0  0  0  0  0  0  0  0  0  0  0  0
   36.1250   28.9910   49.6030 C   0  0  0  0  0  0  0  0  0  0  0  0
   36.6770   29.5230   50.9120 C   0  0  0  0  0  0  0  0  0  0  0  0
   35.2030   30.9950   50.0760 H   0  0  0  0  0  0  0  0  0  0  0  0
   36.8750   28.4820   48.9650 H   0  0  0  0  0  0  0  0  0  0  0  0
   35.1640   28.4410   49.6240 H   0  0  0  0  0  0  0  0  0  0  0  0
   36.0050   29.4010   51.7850 H   0  0  0  0  0  0  0  0  0  0  0  0
   37.7640   29.4860   51.0880 H   0  0  0  0  0  0  0  0  0  0  0  0
   39.5060   31.2260   46.3820 C   0  0  0  0  0  0  0  0  0  0  0  0
   40.4840   31.7470   46.2080 H   0  0  0  0  0  0  0  0  0  0  0  0
   39.7580   30.1640   46.4740 H   0  0  0  0  0  0  0  0  0  0  0  0
   38.7290   31.5450   45.2670 O   0  0  0  0  0  0  0  0  0  0  0  0
   40.4480   31.3080   43.3470 O   0  0  0  0  0  0  0  0  0  0  0  0
   39.1850   30.6870   43.8900 P   0  0  0  0  0  0  0  0  0  0  0  0
   39.3760   29.0340   44.1880 O   0  0  0  0  0  0  0  0  0  0  0  0
   40.1930   28.9500   44.7710 H   0  0  0  0  0  0  0  0  0  0  0  0
   37.9610   30.8190   42.7170 O   0  0  0  0  0  0  0  0  0  0  0  0
   37.1870   30.3010   43.0140 H   0  0  0  0  0  0  0  0  0  0  0  0
  1  9  1  0  0  0  0
  1  2  1  0  0  0  0
  2  7  1  0  0  0  0
  3  8  1  0  0  0  0
  3  2  2  0  0  0  0
  4  3  1  0  0  0  0
  5  4  2  0  0  0  0
  5  6  1  0  0  0  0
  6  1  2  0  0  0  0
  9 12  1  0  0  0  0
  9 11  1  0  0  0  0
 10 14  1  0  0  0  0
 10  9  1  0  0  0  0
 10 11  1  0  0  0  0
 11 16  1  0  0  0  0
 11 15  1  0  0  0  0
 13 10  1  0  0  0  0
 17 19  1  0  0  0  0
 17  5  1  0  0  0  0
 18 17  1  0  0  0  0
 20 17  1  0  0  0  0
 21 22  2  0  0  0  0
 22 23  1  0  0  0  0
 22 20  1  0  0  0  0
 23 24  1  0  0  0  0
 25 26  1  0  0  0  0
 25 22  1  0  0  0  0
M  END
>  <minimizedAffinity>
-4.92147446

>  <minimizedRMSD>
0.866501093

$$$$
