
 OpenBabel03272507353D

 34 36  0  0  1  0  0  0  0  0999 V2000
   39.3880   26.3480   34.7910 C   0  0  0  0  0  0  0  0  0  0  0  0
   40.5480   26.8480   34.2440 C   0  0  0  0  0  0  0  0  0  0  0  0
   41.5680   25.9250   34.5120 C   0  0  0  0  0  0  0  0  0  0  0  0
   40.9540   24.9120   35.2130 C   0  0  0  0  0  0  0  0  0  0  0  0
   39.6790   25.2000   35.3540 O   0  0  0  0  0  0  0  0  0  0  0  0
   40.7090   27.7590   33.7030 H   0  0  0  0  0  0  0  0  0  0  0  0
   42.6110   25.9850   34.2350 H   0  0  0  0  0  0  0  0  0  0  0  0
   38.1200   27.0550   34.6970 C   0  0  0  0  0  0  0  0  0  0  0  0
   37.8010   27.8500   35.5910 O   0  0  0  0  0  0  0  0  0  0  0  0
   37.3040   26.7790   33.5480 C   0  0  0  0  0  0  0  0  0  0  0  0
   36.6470   27.8530   32.9710 C   0  0  0  0  0  0  0  0  0  0  0  0
   35.8430   27.6140   31.8510 C   0  0  0  0  0  0  0  0  0  0  0  0
   35.7480   26.3240   31.3830 N   0  0  0  0  0  0  0  0  0  0  0  0
   36.3980   25.3100   31.9680 C   0  0  0  0  0  0  0  0  0  0  0  0
   37.1720   25.5290   33.0420 N   0  0  0  0  0  0  0  0  0  0  0  0
   36.7170   28.8720   33.3330 H   0  0  0  0  0  0  0  0  0  0  0  0
   35.3160   28.4220   31.3740 H   0  0  0  0  0  0  0  0  0  0  0  0
   36.3280   24.2910   31.6050 H   0  0  0  0  0  0  0  0  0  0  0  0
   41.6110   23.7060   35.7180 C   0  0  0  0  0  0  0  0  0  0  0  0
   42.8470   23.7710   36.0270 O   0  0  0  0  0  0  0  0  0  0  0  0
   40.8460   22.4210   35.8600 C   0  0  1  0  0  0  0  0  0  0  0  0
   41.5560   21.4960   36.9270 C   0  0  0  0  0  0  0  0  0  0  0  0
   40.2110   22.0680   37.1290 C   0  0  1  0  0  0  0  0  0  0  0  0
   40.7160   21.8240   34.9170 H   0  0  0  0  0  0  0  0  0  0  0  0
   41.6010   20.4280   36.6520 H   0  0  0  0  0  0  0  0  0  0  0  0
   42.4530   21.8700   37.4000 H   0  0  0  0  0  0  0  0  0  0  0  0
   39.3520   21.3670   37.1170 H   0  0  0  0  0  0  0  0  0  0  0  0
   39.9940   23.1320   37.9970 O   0  0  0  0  0  0  0  0  0  0  0  0
   38.1570   24.8780   38.7900 O   0  0  0  0  0  0  0  0  0  0  0  0
   38.3760   23.5070   38.2350 P   0  0  0  0  0  0  0  0  0  0  0  0
   37.6570   23.5160   36.6810 O   0  0  0  0  0  0  0  0  0  0  0  0
   37.7890   24.3980   36.2450 H   0  0  0  0  0  0  0  0  0  0  0  0
   37.5770   22.3520   39.1780 O   0  0  0  0  0  0  0  0  0  0  0  0
   37.4060   22.7690   40.0590 H   0  0  0  0  0  0  0  0  0  0  0  0
  1  5  1  0  0  0  0
  2  3  1  0  0  0  0
  2  1  2  0  0  0  0
  3  4  2  0  0  0  0
  4  5  1  0  0  0  0
  4 19  1  0  0  0  0
  6  2  1  0  0  0  0
  7  3  1  0  0  0  0
  8  1  1  0  0  0  0
  8  9  2  0  0  0  0
 10  8  1  0  0  0  0
 11 16  1  0  0  0  0
 11 10  2  0  0  0  0
 12 11  1  0  0  0  0
 13 12  2  0  0  0  0
 13 14  1  0  0  0  0
 14 15  2  0  0  0  0
 15 10  1  0  0  0  0
 17 12  1  0  0  0  0
 18 14  1  0  0  0  0
 19 21  1  0  0  0  0
 19 20  2  0  0  0  0
 21 24  1  6  0  0  0
 21 22  1  0  0  0  0
 21 23  1  0  0  0  0
 22 23  1  0  0  0  0
 22 26  1  0  0  0  0
 23 27  1  6  0  0  0
 23 28  1  0  0  0  0
 25 22  1  0  0  0  0
 28 30  1  0  0  0  0
 30 29  2  0  0  0  0
 30 33  1  0  0  0  0
 31 30  1  0  0  0  0
 32 31  1  0  0  0  0
 33 34  1  0  0  0  0
M  END
>  <minimizedAffinity>
-5.37277031

$$$$

 OpenBabel03272507353D

 34 36  0  0  1  0  0  0  0  0999 V2000
   35.6660   29.7960   33.7910 C   0  0  0  0  0  0  0  0  0  0  0  0
   35.9160   29.7060   32.4410 C   0  0  0  0  0  0  0  0  0  0  0  0
   36.6260   28.5170   32.2250 C   0  0  0  0  0  0  0  0  0  0  0  0
   36.7610   27.9550   33.4740 C   0  0  0  0  0  0  0  0  0  0  0  0
   36.1860   28.7350   34.3610 O   0  0  0  0  0  0  0  0  0  0  0  0
   35.6480   30.3800   31.6510 H   0  0  0  0  0  0  0  0  0  0  0  0
   36.9920   28.1200   31.2890 H   0  0  0  0  0  0  0  0  0  0  0  0
   34.9400   30.9150   34.3720 C   0  0  0  0  0  0  0  0  0  0  0  0
   35.2650   32.0710   34.0710 O   0  0  0  0  0  0  0  0  0  0  0  0
   33.8700   30.5980   35.2750 C   0  0  0  0  0  0  0  0  0  0  0  0
   33.7350   31.4000   36.3970 C   0  0  0  0  0  0  0  0  0  0  0  0
   32.7020   31.1130   37.2960 C   0  0  0  0  0  0  0  0  0  0  0  0
   31.8750   30.0490   37.0180 N   0  0  0  0  0  0  0  0  0  0  0  0
   32.0360   29.2960   35.9230 C   0  0  0  0  0  0  0  0  0  0  0  0
   33.0230   29.5630   35.0550 N   0  0  0  0  0  0  0  0  0  0  0  0
   34.3820   32.2390   36.6220 H   0  0  0  0  0  0  0  0  0  0  0  0
   32.5650   31.7130   38.1790 H   0  0  0  0  0  0  0  0  0  0  0  0
   31.3880   28.4560   35.6990 H   0  0  0  0  0  0  0  0  0  0  0  0
   37.4350   26.6900   33.7700 C   0  0  0  0  0  0  0  0  0  0  0  0
   36.9220   25.6100   33.3230 O   0  0  0  0  0  0  0  0  0  0  0  0
   38.6940   26.6660   34.5880 C   0  0  1  0  0  0  0  0  0  0  0  0
   38.3930   27.2170   36.0390 C   0  0  0  0  0  0  0  0  0  0  0  0
   38.7930   25.8210   35.7770 C   0  0  1  0  0  0  0  0  0  0  0  0
   39.5580   27.2490   34.1700 H   0  0  0  0  0  0  0  0  0  0  0  0
   39.1710   27.8840   36.4490 H   0  0  0  0  0  0  0  0  0  0  0  0
   37.3810   27.5280   36.2610 H   0  0  0  0  0  0  0  0  0  0  0  0
   39.7990   25.5060   36.1220 H   0  0  0  0  0  0  0  0  0  0  0  0
   37.8780   24.7760   35.8380 O   0  0  0  0  0  0  0  0  0  0  0  0
   39.5500   23.1700   37.1310 O   0  0  0  0  0  0  0  0  0  0  0  0
   38.1500   23.6950   37.0920 P   0  0  0  0  0  0  0  0  0  0  0  0
   37.9470   24.5850   38.5390 O   0  0  0  0  0  0  0  0  0  0  0  0
   38.7880   25.0580   38.7740 H   0  0  0  0  0  0  0  0  0  0  0  0
   37.0400   22.4190   37.0970 O   0  0  0  0  0  0  0  0  0  0  0  0
   37.5290   21.6100   36.8050 H   0  0  0  0  0  0  0  0  0  0  0  0
  1  5  1  0  0  0  0
  1  8  1  0  0  0  0
  2  1  2  0  0  0  0
  3  2  1  0  0  0  0
  3  4  2  0  0  0  0
  4 19  1  0  0  0  0
  4  5  1  0  0  0  0
  6  2  1  0  0  0  0
  7  3  1  0  0  0  0
  8 10  1  0  0  0  0
  9  8  2  0  0  0  0
 10 11  1  0  0  0  0
 11 16  1  0  0  0  0
 11 12  2  0  0  0  0
 12 17  1  0  0  0  0
 13 12  1  0  0  0  0
 14 13  2  0  0  0  0
 15 10  2  0  0  0  0
 15 14  1  0  0  0  0
 18 14  1  0  0  0  0
 19 21  1  0  0  0  0
 20 19  2  0  0  0  0
 21 24  1  6  0  0  0
 21 23  1  0  0  0  0
 21 22  1  0  0  0  0
 22 26  1  0  0  0  0
 22 25  1  0  0  0  0
 23 28  1  0  0  0  0
 23 22  1  0  0  0  0
 23 27  1  1  0  0  0
 28 30  1  0  0  0  0
 30 33  1  0  0  0  0
 30 29  2  0  0  0  0
 30 31  1  0  0  0  0
 31 32  1  0  0  0  0
 34 33  1  0  0  0  0
M  END
>  <minimizedAffinity>
-5.35760832

$$$$

 OpenBabel03272507353D

 34 36  0  0  1  0  0  0  0  0999 V2000
   35.6890   29.1790   33.2360 C   0  0  0  0  0  0  0  0  0  0  0  0
   36.3940   29.2600   32.0580 C   0  0  0  0  0  0  0  0  0  0  0  0
   37.2730   28.1680   32.0200 C   0  0  0  0  0  0  0  0  0  0  0  0
   37.0400   27.4870   33.1940 C   0  0  0  0  0  0  0  0  0  0  0  0
   36.1070   28.1130   33.8760 O   0  0  0  0  0  0  0  0  0  0  0  0
   36.3330   29.9890   31.2740 H   0  0  0  0  0  0  0  0  0  0  0  0
   37.9820   27.9090   31.2470 H   0  0  0  0  0  0  0  0  0  0  0  0
   34.6790   30.1600   33.6030 C   0  0  0  0  0  0  0  0  0  0  0  0
   34.9750   31.3620   33.6110 O   0  0  0  0  0  0  0  0  0  0  0  0
   33.3760   29.6580   33.9390 C   0  0  0  0  0  0  0  0  0  0  0  0
   32.9930   29.7440   35.2680 C   0  0  0  0  0  0  0  0  0  0  0  0
   31.7300   29.2600   35.6260 C   0  0  0  0  0  0  0  0  0  0  0  0
   30.9350   28.7260   34.6380 N   0  0  0  0  0  0  0  0  0  0  0  0
   31.3390   28.6600   33.3630 C   0  0  0  0  0  0  0  0  0  0  0  0
   32.5490   29.1200   33.0100 N   0  0  0  0  0  0  0  0  0  0  0  0
   33.6130   30.1630   36.0510 H   0  0  0  0  0  0  0  0  0  0  0  0
   31.3960   29.3080   36.6470 H   0  0  0  0  0  0  0  0  0  0  0  0
   30.7190   28.2400   32.5810 H   0  0  0  0  0  0  0  0  0  0  0  0
   37.7190   26.2610   33.6160 C   0  0  0  0  0  0  0  0  0  0  0  0
   37.2570   25.1420   33.2150 O   0  0  0  0  0  0  0  0  0  0  0  0
   38.9260   26.3240   34.5080 C   0  0  1  0  0  0  0  0  0  0  0  0
   38.5780   27.1430   35.8150 C   0  0  0  0  0  0  0  0  0  0  0  0
   38.9060   25.7050   35.8330 C   0  0  1  0  0  0  0  0  0  0  0  0
   39.8470   26.7780   34.0520 H   0  0  0  0  0  0  0  0  0  0  0  0
   39.3700   27.8340   36.1500 H   0  0  0  0  0  0  0  0  0  0  0  0
   37.5760   27.5400   35.9090 H   0  0  0  0  0  0  0  0  0  0  0  0
   39.8690   25.4080   36.2950 H   0  0  0  0  0  0  0  0  0  0  0  0
   37.9270   24.7350   36.0170 O   0  0  0  0  0  0  0  0  0  0  0  0
   37.8760   24.4390   38.6550 O   0  0  0  0  0  0  0  0  0  0  0  0
   38.1710   23.7560   37.3580 P   0  0  0  0  0  0  0  0  0  0  0  0
   37.0310   22.4850   37.2320 O   0  0  0  0  0  0  0  0  0  0  0  0
   36.1570   22.7680   37.6070 H   0  0  0  0  0  0  0  0  0  0  0  0
   39.7190   23.0750   37.3860 O   0  0  0  0  0  0  0  0  0  0  0  0
   40.2210   23.5310   38.1070 H   0  0  0  0  0  0  0  0  0  0  0  0
  1  8  1  0  0  0  0
  1  5  1  0  0  0  0
  2  1  2  0  0  0  0
  3  2  1  0  0  0  0
  3  4  2  0  0  0  0
  4 19  1  0  0  0  0
  4  5  1  0  0  0  0
  6  2  1  0  0  0  0
  7  3  1  0  0  0  0
  8  9  2  0  0  0  0
  8 10  1  0  0  0  0
 10 11  1  0  0  0  0
 11 12  2  0  0  0  0
 11 16  1  0  0  0  0
 12 17  1  0  0  0  0
 13 12  1  0  0  0  0
 14 13  2  0  0  0  0
 15 14  1  0  0  0  0
 15 10  2  0  0  0  0
 18 14  1  0  0  0  0
 19 21  1  0  0  0  0
 20 19  2  0  0  0  0
 21 24  1  6  0  0  0
 21 22  1  0  0  0  0
 21 23  1  0  0  0  0
 22 23  1  0  0  0  0
 22 26  1  0  0  0  0
 22 25  1  0  0  0  0
 23 28  1  0  0  0  0
 23 27  1  1  0  0  0
 28 30  1  0  0  0  0
 30 33  1  0  0  0  0
 30 29  2  0  0  0  0
 31 30  1  0  0  0  0
 31 32  1  0  0  0  0
 33 34  1  0  0  0  0
M  END
>  <minimizedAffinity>
-5.25975037

$$$$

 OpenBabel03272507353D

 34 36  0  0  1  0  0  0  0  0999 V2000
   36.8230   27.9890   33.0920 C   0  0  0  0  0  0  0  0  0  0  0  0
   36.6070   28.1610   34.4400 C   0  0  0  0  0  0  0  0  0  0  0  0
   37.6710   27.5490   35.1160 C   0  0  0  0  0  0  0  0  0  0  0  0
   38.4750   27.0390   34.1210 C   0  0  0  0  0  0  0  0  0  0  0  0
   37.9420   27.3190   32.9530 O   0  0  0  0  0  0  0  0  0  0  0  0
   35.8010   28.6570   34.9430 H   0  0  0  0  0  0  0  0  0  0  0  0
   37.8340   27.4840   36.1820 H   0  0  0  0  0  0  0  0  0  0  0  0
   35.9060   28.5060   32.0880 C   0  0  0  0  0  0  0  0  0  0  0  0
   34.6860   28.4420   32.2900 O   0  0  0  0  0  0  0  0  0  0  0  0
   36.4880   29.0670   30.9020 C   0  0  0  0  0  0  0  0  0  0  0  0
   36.5120   30.4490   30.8060 C   0  0  0  0  0  0  0  0  0  0  0  0
   37.0710   31.0250   29.6600 C   0  0  0  0  0  0  0  0  0  0  0  0
   37.5690   30.1870   28.6880 N   0  0  0  0  0  0  0  0  0  0  0  0
   37.5290   28.8540   28.8160 C   0  0  0  0  0  0  0  0  0  0  0  0
   36.9940   28.2930   29.9110 N   0  0  0  0  0  0  0  0  0  0  0  0
   36.1230   31.1150   31.5660 H   0  0  0  0  0  0  0  0  0  0  0  0
   37.1090   32.0940   29.5480 H   0  0  0  0  0  0  0  0  0  0  0  0
   37.9180   28.1890   28.0540 H   0  0  0  0  0  0  0  0  0  0  0  0
   39.7240   26.3060   34.3290 C   0  0  0  0  0  0  0  0  0  0  0  0
   40.7760   26.9680   34.6180 O   0  0  0  0  0  0  0  0  0  0  0  0
   39.7650   24.8110   34.1950 C   0  0  1  0  0  0  0  0  0  0  0  0
   40.8950   24.2250   35.1320 C   0  0  0  0  0  0  0  0  0  0  0  0
   39.4600   23.9520   35.3390 C   0  0  1  0  0  0  0  0  0  0  0  0
   39.9390   24.4180   33.1570 H   0  0  0  0  0  0  0  0  0  0  0  0
   41.4910   23.4130   34.6820 H   0  0  0  0  0  0  0  0  0  0  0  0
   41.4730   24.9230   35.7220 H   0  0  0  0  0  0  0  0  0  0  0  0
   39.1050   22.9190   35.1480 H   0  0  0  0  0  0  0  0  0  0  0  0
   38.7410   24.5620   36.3600 O   0  0  0  0  0  0  0  0  0  0  0  0
   39.6440   22.8430   38.1710 O   0  0  0  0  0  0  0  0  0  0  0  0
   38.4320   23.5660   37.6750 P   0  0  0  0  0  0  0  0  0  0  0  0
   37.9520   24.5990   38.9520 O   0  0  0  0  0  0  0  0  0  0  0  0
   38.7490   24.9590   39.4220 H   0  0  0  0  0  0  0  0  0  0  0  0
   37.1730   22.4760   37.3770 O   0  0  0  0  0  0  0  0  0  0  0  0
   37.5840   21.5800   37.2830 H   0  0  0  0  0  0  0  0  0  0  0  0
  1  2  2  0  0  0  0
  2  6  1  0  0  0  0
  2  3  1  0  0  0  0
  3  7  1  0  0  0  0
  4 19  1  0  0  0  0
  4  3  2  0  0  0  0
  5  1  1  0  0  0  0
  5  4  1  0  0  0  0
  8  9  2  0  0  0  0
  8  1  1  0  0  0  0
 10  8  1  0  0  0  0
 11 10  1  0  0  0  0
 11 16  1  0  0  0  0
 12 11  2  0  0  0  0
 13 14  2  0  0  0  0
 13 12  1  0  0  0  0
 14 15  1  0  0  0  0
 15 10  2  0  0  0  0
 17 12  1  0  0  0  0
 18 14  1  0  0  0  0
 19 20  2  0  0  0  0
 21 24  1  6  0  0  0
 21 19  1  0  0  0  0
 21 22  1  0  0  0  0
 21 23  1  0  0  0  0
 22 23  1  0  0  0  0
 22 26  1  0  0  0  0
 23 27  1  6  0  0  0
 23 28  1  0  0  0  0
 25 22  1  0  0  0  0
 28 30  1  0  0  0  0
 30 29  2  0  0  0  0
 30 31  1  0  0  0  0
 31 32  1  0  0  0  0
 33 30  1  0  0  0  0
 34 33  1  0  0  0  0
M  END
>  <minimizedAffinity>
-5.23106194

$$$$

 OpenBabel03272507353D

 34 36  0  0  1  0  0  0  0  0999 V2000
   37.7170   25.9890   34.7740 C   0  0  0  0  0  0  0  0  0  0  0  0
   38.2990   26.9110   35.6130 C   0  0  0  0  0  0  0  0  0  0  0  0
   37.6880   28.1470   35.3650 C   0  0  0  0  0  0  0  0  0  0  0  0
   36.7610   27.8920   34.3790 C   0  0  0  0  0  0  0  0  0  0  0  0
   36.8120   26.6170   34.0620 O   0  0  0  0  0  0  0  0  0  0  0  0
   39.0750   26.7770   36.3400 H   0  0  0  0  0  0  0  0  0  0  0  0
   37.8900   29.0980   35.8370 H   0  0  0  0  0  0  0  0  0  0  0  0
   38.1140   24.5890   34.7660 C   0  0  0  0  0  0  0  0  0  0  0  0
   38.0800   23.9550   33.7030 O   0  0  0  0  0  0  0  0  0  0  0  0
   38.5280   24.0230   36.0180 C   0  0  0  0  0  0  0  0  0  0  0  0
   37.6110   24.0540   37.0560 C   0  0  0  0  0  0  0  0  0  0  0  0
   37.9880   23.5110   38.2900 C   0  0  0  0  0  0  0  0  0  0  0  0
   39.2490   22.9760   38.4060 N   0  0  0  0  0  0  0  0  0  0  0  0
   40.1090   22.9630   37.3800 C   0  0  0  0  0  0  0  0  0  0  0  0
   39.7580   23.4810   36.1930 N   0  0  0  0  0  0  0  0  0  0  0  0
   36.6160   24.4740   36.9730 H   0  0  0  0  0  0  0  0  0  0  0  0
   37.3030   23.5160   39.1210 H   0  0  0  0  0  0  0  0  0  0  0  0
   41.1050   22.5430   37.4650 H   0  0  0  0  0  0  0  0  0  0  0  0
   35.8610   28.8780   33.7800 C   0  0  0  0  0  0  0  0  0  0  0  0
   35.4790   28.7000   32.5760 O   0  0  0  0  0  0  0  0  0  0  0  0
   35.4090   30.0760   34.5650 C   0  0  1  0  0  0  0  0  0  0  0  0
   34.3930   30.9250   33.7000 C   0  0  0  0  0  0  0  0  0  0  0  0
   34.0040   30.2310   34.9430 C   0  0  1  0  0  0  0  0  0  0  0  0
   36.2230   30.7650   34.9170 H   0  0  0  0  0  0  0  0  0  0  0  0
   34.5320   32.0170   33.7680 H   0  0  0  0  0  0  0  0  0  0  0  0
   34.1580   30.5690   32.7070 H   0  0  0  0  0  0  0  0  0  0  0  0
   33.7570   30.8610   35.8220 H   0  0  0  0  0  0  0  0  0  0  0  0
   33.2540   29.0610   34.9220 O   0  0  0  0  0  0  0  0  0  0  0  0
   32.0740   30.1270   37.0490 O   0  0  0  0  0  0  0  0  0  0  0  0
   32.0010   29.0270   36.0380 P   0  0  0  0  0  0  0  0  0  0  0  0
   30.5650   29.3070   35.1490 O   0  0  0  0  0  0  0  0  0  0  0  0
   30.4200   30.2820   35.0270 H   0  0  0  0  0  0  0  0  0  0  0  0
   31.8610   27.5260   36.8060 O   0  0  0  0  0  0  0  0  0  0  0  0
   32.1740   27.6490   37.7370 H   0  0  0  0  0  0  0  0  0  0  0  0
  1  2  2  0  0  0  0
  2  6  1  0  0  0  0
  3  2  1  0  0  0  0
  3  7  1  0  0  0  0
  4  3  2  0  0  0  0
  5  4  1  0  0  0  0
  5  1  1  0  0  0  0
  8  1  1  0  0  0  0
  8 10  1  0  0  0  0
  9  8  2  0  0  0  0
 10 15  2  0  0  0  0
 10 11  1  0  0  0  0
 11 12  2  0  0  0  0
 12 13  1  0  0  0  0
 12 17  1  0  0  0  0
 14 18  1  0  0  0  0
 14 13  2  0  0  0  0
 15 14  1  0  0  0  0
 16 11  1  0  0  0  0
 19  4  1  0  0  0  0
 19 21  1  0  0  0  0
 20 19  2  0  0  0  0
 21 24  1  1  0  0  0
 21 23  1  0  0  0  0
 22 25  1  0  0  0  0
 22 21  1  0  0  0  0
 22 23  1  0  0  0  0
 23 27  1  1  0  0  0
 26 22  1  0  0  0  0
 28 23  1  0  0  0  0
 28 30  1  0  0  0  0
 30 33  1  0  0  0  0
 30 29  2  0  0  0  0
 31 30  1  0  0  0  0
 32 31  1  0  0  0  0
 33 34  1  0  0  0  0
M  END
>  <minimizedAffinity>
-5.20065975

$$$$

 OpenBabel03272507353D

 34 36  0  0  1  0  0  0  0  0999 V2000
   36.5910   21.3540   33.0300 C   0  0  0  0  0  0  0  0  0  0  0  0
   35.7380   20.6890   33.8800 C   0  0  0  0  0  0  0  0  0  0  0  0
   36.1580   20.9590   35.1900 C   0  0  0  0  0  0  0  0  0  0  0  0
   37.2530   21.7810   35.0470 C   0  0  0  0  0  0  0  0  0  0  0  0
   37.4720   21.9870   33.7680 O   0  0  0  0  0  0  0  0  0  0  0  0
   34.8940   20.0680   33.6520 H   0  0  0  0  0  0  0  0  0  0  0  0
   35.7260   20.6050   36.1150 H   0  0  0  0  0  0  0  0  0  0  0  0
   36.4440   21.2950   31.5840 C   0  0  0  0  0  0  0  0  0  0  0  0
   35.4530   20.7360   31.0970 O   0  0  0  0  0  0  0  0  0  0  0  0
   37.4810   21.9030   30.7990 C   0  0  0  0  0  0  0  0  0  0  0  0
   38.4310   21.0580   30.2480 C   0  0  0  0  0  0  0  0  0  0  0  0
   39.4560   21.6240   29.4810 C   0  0  0  0  0  0  0  0  0  0  0  0
   39.4650   22.9890   29.3140 N   0  0  0  0  0  0  0  0  0  0  0  0
   38.5290   23.7740   29.8620 C   0  0  0  0  0  0  0  0  0  0  0  0
   37.5430   23.2430   30.6000 N   0  0  0  0  0  0  0  0  0  0  0  0
   38.4300   19.9820   30.3750 H   0  0  0  0  0  0  0  0  0  0  0  0
   40.2120   21.0000   29.0360 H   0  0  0  0  0  0  0  0  0  0  0  0
   38.5310   24.8510   29.7350 H   0  0  0  0  0  0  0  0  0  0  0  0
   38.0460   22.3410   36.1420 C   0  0  0  0  0  0  0  0  0  0  0  0
   39.2410   21.9230   36.3020 O   0  0  0  0  0  0  0  0  0  0  0  0
   37.4600   23.3750   37.0600 C   0  0  1  0  0  0  0  0  0  0  0  0
   38.5130   23.7520   38.1770 C   0  0  0  0  0  0  0  0  0  0  0  0
   38.0520   24.7090   37.1530 C   0  0  1  0  0  0  0  0  0  0  0  0
   36.5020   23.0880   37.5720 H   0  0  0  0  0  0  0  0  0  0  0  0
   38.0890   23.8690   39.1890 H   0  0  0  0  0  0  0  0  0  0  0  0
   39.4720   23.2520   38.1540 H   0  0  0  0  0  0  0  0  0  0  0  0
   37.4150   25.5510   37.4930 H   0  0  0  0  0  0  0  0  0  0  0  0
   38.8570   25.0740   36.0800 O   0  0  0  0  0  0  0  0  0  0  0  0
   36.9120   26.5480   35.0340 O   0  0  0  0  0  0  0  0  0  0  0  0
   38.3810   26.4880   35.3130 P   0  0  0  0  0  0  0  0  0  0  0  0
   38.6950   27.7580   36.4170 O   0  0  0  0  0  0  0  0  0  0  0  0
   37.9390   27.8570   37.0530 H   0  0  0  0  0  0  0  0  0  0  0  0
   39.2640   26.7870   33.9020 O   0  0  0  0  0  0  0  0  0  0  0  0
   38.6540   26.6210   33.1390 H   0  0  0  0  0  0  0  0  0  0  0  0
  1  5  1  0  0  0  0
  1  2  2  0  0  0  0
  2  3  1  0  0  0  0
  3  7  1  0  0  0  0
  4  3  2  0  0  0  0
  4 19  1  0  0  0  0
  5  4  1  0  0  0  0
  6  2  1  0  0  0  0
  8  1  1  0  0  0  0
  9  8  2  0  0  0  0
 10  8  1  0  0  0  0
 11 16  1  0  0  0  0
 11 10  2  0  0  0  0
 12 11  1  0  0  0  0
 13 12  2  0  0  0  0
 13 14  1  0  0  0  0
 14 15  2  0  0  0  0
 15 10  1  0  0  0  0
 17 12  1  0  0  0  0
 18 14  1  0  0  0  0
 19 20  2  0  0  0  0
 19 21  1  0  0  0  0
 21 23  1  0  0  0  0
 21 24  1  1  0  0  0
 21 22  1  0  0  0  0
 22 25  1  0  0  0  0
 23 27  1  1  0  0  0
 23 22  1  0  0  0  0
 26 22  1  0  0  0  0
 28 23  1  0  0  0  0
 29 30  2  0  0  0  0
 30 28  1  0  0  0  0
 30 31  1  0  0  0  0
 31 32  1  0  0  0  0
 33 30  1  0  0  0  0
 34 33  1  0  0  0  0
M  END
>  <minimizedAffinity>
-5.18779135

$$$$

 OpenBabel03272507353D

 34 36  0  0  1  0  0  0  0  0999 V2000
   37.0800   23.7610   31.6900 C   0  0  0  0  0  0  0  0  0  0  0  0
   36.1550   24.5730   31.0750 C   0  0  0  0  0  0  0  0  0  0  0  0
   36.1310   25.7860   31.7770 C   0  0  0  0  0  0  0  0  0  0  0  0
   37.0550   25.6290   32.7860 C   0  0  0  0  0  0  0  0  0  0  0  0
   37.5870   24.4300   32.6980 O   0  0  0  0  0  0  0  0  0  0  0  0
   35.5380   24.3790   30.2200 H   0  0  0  0  0  0  0  0  0  0  0  0
   35.5240   26.6590   31.5800 H   0  0  0  0  0  0  0  0  0  0  0  0
   37.3650   22.4150   31.2160 C   0  0  0  0  0  0  0  0  0  0  0  0
   38.2010   22.2530   30.3170 O   0  0  0  0  0  0  0  0  0  0  0  0
   36.6420   21.3400   31.8360 C   0  0  0  0  0  0  0  0  0  0  0  0
   36.2990   20.2660   31.0300 C   0  0  0  0  0  0  0  0  0  0  0  0
   35.5920   19.2050   31.6070 C   0  0  0  0  0  0  0  0  0  0  0  0
   35.2760   19.2850   32.9430 N   0  0  0  0  0  0  0  0  0  0  0  0
   35.6240   20.3400   33.6900 C   0  0  0  0  0  0  0  0  0  0  0  0
   36.3020   21.3620   33.1470 N   0  0  0  0  0  0  0  0  0  0  0  0
   36.5450   20.1960   29.9780 H   0  0  0  0  0  0  0  0  0  0  0  0
   35.3080   18.3530   31.0140 H   0  0  0  0  0  0  0  0  0  0  0  0
   35.3770   20.4100   34.7440 H   0  0  0  0  0  0  0  0  0  0  0  0
   37.3960   26.6350   33.7920 C   0  0  0  0  0  0  0  0  0  0  0  0
   36.5800   27.5940   33.9940 O   0  0  0  0  0  0  0  0  0  0  0  0
   38.6830   26.5410   34.5620 C   0  0  1  0  0  0  0  0  0  0  0  0
   38.5050   27.2220   35.9770 C   0  0  0  0  0  0  0  0  0  0  0  0
   38.7510   25.7780   35.8070 C   0  0  1  0  0  0  0  0  0  0  0  0
   39.5810   27.0000   34.0680 H   0  0  0  0  0  0  0  0  0  0  0  0
   39.3630   27.8330   36.3050 H   0  0  0  0  0  0  0  0  0  0  0  0
   37.5410   27.6510   36.2130 H   0  0  0  0  0  0  0  0  0  0  0  0
   39.7350   25.3860   36.1370 H   0  0  0  0  0  0  0  0  0  0  0  0
   37.7400   24.8390   35.9820 O   0  0  0  0  0  0  0  0  0  0  0  0
   39.4780   23.1500   37.0670 O   0  0  0  0  0  0  0  0  0  0  0  0
   38.2880   23.2640   36.1680 P   0  0  0  0  0  0  0  0  0  0  0  0
   37.0280   22.4130   36.9560 O   0  0  0  0  0  0  0  0  0  0  0  0
   37.0870   22.5420   37.9380 H   0  0  0  0  0  0  0  0  0  0  0  0
   38.5900   22.5050   34.6870 O   0  0  0  0  0  0  0  0  0  0  0  0
   39.5740   22.4290   34.5980 H   0  0  0  0  0  0  0  0  0  0  0  0
  1  5  1  0  0  0  0
  2  1  2  0  0  0  0
  2  3  1  0  0  0  0
  3  4  2  0  0  0  0
  4 19  1  0  0  0  0
  5  4  1  0  0  0  0
  6  2  1  0  0  0  0
  7  3  1  0  0  0  0
  8  1  1  0  0  0  0
  8 10  1  0  0  0  0
  9  8  2  0  0  0  0
 10 15  1  0  0  0  0
 11 12  1  0  0  0  0
 11 10  2  0  0  0  0
 12 13  2  0  0  0  0
 13 14  1  0  0  0  0
 14 18  1  0  0  0  0
 15 14  2  0  0  0  0
 16 11  1  0  0  0  0
 17 12  1  0  0  0  0
 19 20  2  0  0  0  0
 19 21  1  0  0  0  0
 21 24  1  6  0  0  0
 21 23  1  0  0  0  0
 21 22  1  0  0  0  0
 22 26  1  0  0  0  0
 22 25  1  0  0  0  0
 23 22  1  0  0  0  0
 23 28  1  0  0  0  0
 23 27  1  1  0  0  0
 28 30  1  0  0  0  0
 30 31  1  0  0  0  0
 30 29  2  0  0  0  0
 31 32  1  0  0  0  0
 33 30  1  0  0  0  0
 34 33  1  0  0  0  0
M  END
>  <minimizedAffinity>
-5.18631506

$$$$

 OpenBabel03272507353D

 34 36  0  0  1  0  0  0  0  0999 V2000
   37.8630   25.5670   35.8630 C   0  0  0  0  0  0  0  0  0  0  0  0
   38.5260   26.6720   36.3430 C   0  0  0  0  0  0  0  0  0  0  0  0
   38.1810   27.7560   35.5230 C   0  0  0  0  0  0  0  0  0  0  0  0
   37.3200   27.2300   34.5870 C   0  0  0  0  0  0  0  0  0  0  0  0
   37.1610   25.9470   34.8220 O   0  0  0  0  0  0  0  0  0  0  0  0
   39.1920   26.7590   37.1790 H   0  0  0  0  0  0  0  0  0  0  0  0
   38.5130   28.7810   35.5990 H   0  0  0  0  0  0  0  0  0  0  0  0
   37.9920   24.2560   36.4830 C   0  0  0  0  0  0  0  0  0  0  0  0
   37.1100   23.8630   37.2580 O   0  0  0  0  0  0  0  0  0  0  0  0
   39.1580   23.4890   36.1470 C   0  0  0  0  0  0  0  0  0  0  0  0
   39.7910   22.8210   37.1830 C   0  0  0  0  0  0  0  0  0  0  0  0
   40.9310   22.0670   36.8860 C   0  0  0  0  0  0  0  0  0  0  0  0
   41.3640   22.0290   35.5800 N   0  0  0  0  0  0  0  0  0  0  0  0
   40.7260   22.6890   34.6050 C   0  0  0  0  0  0  0  0  0  0  0  0
   39.6320   23.4150   34.8800 N   0  0  0  0  0  0  0  0  0  0  0  0
   39.4560   22.8450   38.2130 H   0  0  0  0  0  0  0  0  0  0  0  0
   41.4510   21.5330   37.6630 H   0  0  0  0  0  0  0  0  0  0  0  0
   41.0620   22.6640   33.5750 H   0  0  0  0  0  0  0  0  0  0  0  0
   36.6790   27.9780   33.5050 C   0  0  0  0  0  0  0  0  0  0  0  0
   35.5800   28.5780   33.7490 O   0  0  0  0  0  0  0  0  0  0  0  0
   37.3000   28.0280   32.1380 C   0  0  1  0  0  0  0  0  0  0  0  0
   38.4450   26.9430   32.0350 C   0  0  0  0  0  0  0  0  0  0  0  0
   37.2070   26.8810   31.2360 C   0  0  1  0  0  0  0  0  0  0  0  0
   37.7340   29.0180   31.8350 H   0  0  0  0  0  0  0  0  0  0  0  0
   39.3550   27.2820   31.5110 H   0  0  0  0  0  0  0  0  0  0  0  0
   38.6390   26.3310   32.9060 H   0  0  0  0  0  0  0  0  0  0  0  0
   37.2960   27.0550   30.1440 H   0  0  0  0  0  0  0  0  0  0  0  0
   36.1920   25.9770   31.5310 O   0  0  0  0  0  0  0  0  0  0  0  0
   35.5050   23.4550   31.0640 O   0  0  0  0  0  0  0  0  0  0  0  0
   36.6430   24.3670   31.3950 P   0  0  0  0  0  0  0  0  0  0  0  0
   37.7090   24.2830   30.0570 O   0  0  0  0  0  0  0  0  0  0  0  0
   37.1950   24.2030   29.2120 H   0  0  0  0  0  0  0  0  0  0  0  0
   37.4690   23.8100   32.7620 O   0  0  0  0  0  0  0  0  0  0  0  0
   36.8550   23.1980   33.2400 H   0  0  0  0  0  0  0  0  0  0  0  0
  1  2  2  0  0  0  0
  1  8  1  0  0  0  0
  2  6  1  0  0  0  0
  3  7  1  0  0  0  0
  3  2  1  0  0  0  0
  4  5  1  0  0  0  0
  4  3  2  0  0  0  0
  5  1  1  0  0  0  0
  8  9  2  0  0  0  0
 10  8  1  0  0  0  0
 10 11  1  0  0  0  0
 11 16  1  0  0  0  0
 12 11  2  0  0  0  0
 12 17  1  0  0  0  0
 13 12  1  0  0  0  0
 14 15  1  0  0  0  0
 14 13  2  0  0  0  0
 15 10  2  0  0  0  0
 18 14  1  0  0  0  0
 19 20  2  0  0  0  0
 19  4  1  0  0  0  0
 21 24  1  6  0  0  0
 21 19  1  0  0  0  0
 22 21  1  0  0  0  0
 22 26  1  0  0  0  0
 23 27  1  6  0  0  0
 23 28  1  0  0  0  0
 23 22  1  0  0  0  0
 23 21  1  0  0  0  0
 25 22  1  0  0  0  0
 29 30  2  0  0  0  0
 30 28  1  0  0  0  0
 30 33  1  0  0  0  0
 31 30  1  0  0  0  0
 32 31  1  0  0  0  0
 33 34  1  0  0  0  0
M  END
>  <minimizedAffinity>
-5.15757036

$$$$

 OpenBabel03272507353D

 34 36  0  0  1  0  0  0  0  0999 V2000
   36.5450   25.8030   31.7820 C   0  0  0  0  0  0  0  0  0  0  0  0
   35.3770   25.7930   31.0540 C   0  0  0  0  0  0  0  0  0  0  0  0
   34.9860   24.4550   30.9090 C   0  0  0  0  0  0  0  0  0  0  0  0
   35.9550   23.7300   31.5660 C   0  0  0  0  0  0  0  0  0  0  0  0
   36.8480   24.5570   32.0620 O   0  0  0  0  0  0  0  0  0  0  0  0
   34.8200   26.6130   30.6480 H   0  0  0  0  0  0  0  0  0  0  0  0
   34.1190   24.0660   30.3950 H   0  0  0  0  0  0  0  0  0  0  0  0
   37.2350   27.0380   32.1240 C   0  0  0  0  0  0  0  0  0  0  0  0
   37.1550   28.0080   31.3600 O   0  0  0  0  0  0  0  0  0  0  0  0
   37.9790   27.0490   33.3510 C   0  0  0  0  0  0  0  0  0  0  0  0
   37.2980   27.4300   34.4960 C   0  0  0  0  0  0  0  0  0  0  0  0
   37.9980   27.4530   35.7070 C   0  0  0  0  0  0  0  0  0  0  0  0
   39.3270   27.0960   35.6960 N   0  0  0  0  0  0  0  0  0  0  0  0
   39.9520   26.7330   34.5700 C   0  0  0  0  0  0  0  0  0  0  0  0
   39.2900   26.7080   33.4030 N   0  0  0  0  0  0  0  0  0  0  0  0
   36.2520   27.7120   34.5130 H   0  0  0  0  0  0  0  0  0  0  0  0
   37.5040   27.7430   36.6180 H   0  0  0  0  0  0  0  0  0  0  0  0
   40.9980   26.4510   34.5540 H   0  0  0  0  0  0  0  0  0  0  0  0
   35.9860   22.2730   31.6970 C   0  0  0  0  0  0  0  0  0  0  0  0
   36.4860   21.5880   30.7430 O   0  0  0  0  0  0  0  0  0  0  0  0
   35.4340   21.6030   32.9220 C   0  0  1  0  0  0  0  0  0  0  0  0
   35.8300   20.0720   32.9140 C   0  0  0  0  0  0  0  0  0  0  0  0
   36.3290   21.0260   33.9230 C   0  0  1  0  0  0  0  0  0  0  0  0
   34.3200   21.6700   33.0550 H   0  0  0  0  0  0  0  0  0  0  0  0
   35.0270   19.3880   33.2380 H   0  0  0  0  0  0  0  0  0  0  0  0
   36.4140   19.7070   32.0810 H   0  0  0  0  0  0  0  0  0  0  0  0
   35.9600   20.9080   34.9620 H   0  0  0  0  0  0  0  0  0  0  0  0
   37.6350   21.5030   33.8930 O   0  0  0  0  0  0  0  0  0  0  0  0
   39.5040   22.0850   35.6880 O   0  0  0  0  0  0  0  0  0  0  0  0
   38.0910   22.3460   35.2700 P   0  0  0  0  0  0  0  0  0  0  0  0
   38.0300   24.0050   34.8530 O   0  0  0  0  0  0  0  0  0  0  0  0
   38.8750   24.2820   34.4130 H   0  0  0  0  0  0  0  0  0  0  0  0
   37.0340   22.0890   36.5650 O   0  0  0  0  0  0  0  0  0  0  0  0
   37.5140   21.5220   37.2200 H   0  0  0  0  0  0  0  0  0  0  0  0
  1  5  1  0  0  0  0
  1  8  1  0  0  0  0
  2  1  2  0  0  0  0
  3  2  1  0  0  0  0
  3  4  2  0  0  0  0
  4 19  1  0  0  0  0
  4  5  1  0  0  0  0
  6  2  1  0  0  0  0
  7  3  1  0  0  0  0
  8 10  1  0  0  0  0
  9  8  2  0  0  0  0
 10 15  2  0  0  0  0
 10 11  1  0  0  0  0
 11 16  1  0  0  0  0
 11 12  2  0  0  0  0
 12 17  1  0  0  0  0
 13 12  1  0  0  0  0
 14 13  2  0  0  0  0
 15 14  1  0  0  0  0
 18 14  1  0  0  0  0
 19 21  1  0  0  0  0
 20 19  2  0  0  0  0
 21 24  1  1  0  0  0
 21 23  1  0  0  0  0
 22 21  1  0  0  0  0
 22 25  1  0  0  0  0
 22 23  1  0  0  0  0
 23 27  1  1  0  0  0
 26 22  1  0  0  0  0
 28 23  1  0  0  0  0
 28 30  1  0  0  0  0
 30 29  2  0  0  0  0
 30 33  1  0  0  0  0
 31 30  1  0  0  0  0
 32 31  1  0  0  0  0
 33 34  1  0  0  0  0
M  END
>  <minimizedAffinity>
-5.15581751

$$$$
