
 OpenBabel03272509393D

 33 34  0  0  1  0  0  0  0  0999 V2000
   37.0910   30.9660   49.0460 C   0  0  0  0  0  0  0  0  0  0  0  0
   36.8440   31.9230   50.0410 C   0  0  0  0  0  0  0  0  0  0  0  0
   37.4620   33.1630   50.0530 C   0  0  0  0  0  0  0  0  0  0  0  0
   38.3650   33.4870   49.0440 C   0  0  0  0  0  0  0  0  0  0  0  0
   38.6010   32.5450   48.0720 C   0  0  0  0  0  0  0  0  0  0  0  0
   37.9690   31.3150   48.0870 C   0  0  0  0  0  0  0  0  0  0  0  0
   36.1490   31.6940   50.8320 H   0  0  0  0  0  0  0  0  0  0  0  0
   37.2160   33.8430   50.8580 H   0  0  0  0  0  0  0  0  0  0  0  0
   38.8300   34.4540   49.0740 H   0  0  0  0  0  0  0  0  0  0  0  0
   39.3140   32.8770   47.3270 H   0  0  0  0  0  0  0  0  0  0  0  0
   36.3980   29.7010   49.1210 C   0  0  1  0  0  0  0  0  0  0  0  0
   36.9200   28.8540   49.9360 O   0  0  0  0  0  0  0  0  0  0  0  0
   33.6250   30.1700   46.8340 C   0  0  0  0  0  0  0  0  0  0  0  0
   32.9600   28.9390   46.8440 C   0  0  0  0  0  0  0  0  0  0  0  0
   33.4740   27.9490   47.6440 C   0  0  0  0  0  0  0  0  0  0  0  0
   34.5830   28.1870   48.3820 N   0  0  0  0  0  0  0  0  0  0  0  0
   35.2000   29.3570   48.3600 C   0  0  0  0  0  0  0  0  0  0  0  0
   34.7080   30.3330   47.5850 N   0  0  0  0  0  0  0  0  0  0  0  0
   33.2330   30.9670   46.2080 H   0  0  0  0  0  0  0  0  0  0  0  0
   32.0800   28.8610   46.2130 H   0  0  0  0  0  0  0  0  0  0  0  0
   32.9620   26.9970   47.6540 H   0  0  0  0  0  0  0  0  0  0  0  0
   38.3300   30.4380   46.9920 C   0  0  0  0  0  0  0  0  0  0  0  0
   38.8980   30.7900   45.8470 C   0  0  0  0  0  0  0  0  0  0  0  0
   39.3110   30.0100   44.6720 C   0  0  0  0  0  0  0  0  0  0  0  0
   38.4310   29.7770   44.0090 H   0  0  0  0  0  0  0  0  0  0  0  0
   39.6630   29.0170   45.0320 H   0  0  0  0  0  0  0  0  0  0  0  0
   40.3450   30.6000   43.9520 O   0  0  0  0  0  0  0  0  0  0  0  0
   41.7310   29.1990   42.1910 O   0  0  0  0  0  0  0  0  0  0  0  0
   40.4420   29.9670   42.3940 P   0  0  0  0  0  0  0  0  0  0  0  0
   40.4100   31.2730   41.3200 O   0  0  0  0  0  0  0  0  0  0  0  0
   40.7980   32.0820   41.7600 H   0  0  0  0  0  0  0  0  0  0  0  0
   39.1490   28.9220   42.1660 O   0  0  0  0  0  0  0  0  0  0  0  0
   38.4650   29.2830   41.5500 H   0  0  0  0  0  0  0  0  0  0  0  0
  1 11  1  0  0  0  0
  1  2  1  0  0  0  0
  2  3  2  0  0  0  0
  2  7  1  0  0  0  0
  3  8  1  0  0  0  0
  4  9  1  0  0  0  0
  4  3  1  0  0  0  0
  5  6  1  0  0  0  0
  5  4  2  0  0  0  0
  6  1  2  0  0  0  0
 10  5  1  0  0  0  0
 11 12  1  1  0  0  0
 13 14  2  0  0  0  0
 13 18  1  0  0  0  0
 14 15  1  0  0  0  0
 15 21  1  0  0  0  0
 15 16  2  0  0  0  0
 17 16  1  0  0  0  0
 17 11  1  0  0  0  0
 18 17  2  0  0  0  0
 19 13  1  0  0  0  0
 20 14  1  0  0  0  0
 22  6  1  0  0  0  0
 23 22  2  0  0  0  0
 24 26  1  0  0  0  0
 24 23  1  0  0  0  0
 25 24  1  0  0  0  0
 27 24  1  0  0  0  0
 28 29  2  0  0  0  0
 29 27  1  0  0  0  0
 30 31  1  0  0  0  0
 30 29  1  0  0  0  0
 32 29  1  0  0  0  0
 33 32  1  0  0  0  0
M  END
>  <minimizedAffinity>
-5.72098684

>  <minimizedRMSD>
0.555093944

$$$$
