
 OpenBabel03272510293D

 26 27  0  0  0  0  0  0  0  0999 V2000
   36.9760   31.1300   49.2450 C   0  0  0  0  0  0  0  0  0  0  0  0
   37.3460   32.3870   49.7340 C   0  0  0  0  0  0  0  0  0  0  0  0
   38.3120   33.0600   48.9850 C   0  0  0  0  0  0  0  0  0  0  0  0
   38.8250   32.4730   47.8560 N   0  0  0  0  0  0  0  0  0  0  0  0
   38.4260   31.2500   47.4310 C   0  0  0  0  0  0  0  0  0  0  0  0
   37.4780   30.5560   48.1410 N   0  0  0  0  0  0  0  0  0  0  0  0
   36.9090   32.7950   50.6240 H   0  0  0  0  0  0  0  0  0  0  0  0
   38.6530   34.0380   49.2960 H   0  0  0  0  0  0  0  0  0  0  0  0
   35.9140   30.3940   50.0060 C   0  0  0  0  0  0  0  0  0  0  0  0
   35.7380   28.9640   49.9190 C   0  0  0  0  0  0  0  0  0  0  0  0
   36.4810   29.5070   51.1250 C   0  0  0  0  0  0  0  0  0  0  0  0
   35.0800   31.0780   50.3460 H   0  0  0  0  0  0  0  0  0  0  0  0
   36.3590   28.3410   49.2440 H   0  0  0  0  0  0  0  0  0  0  0  0
   34.7350   28.5210   50.0770 H   0  0  0  0  0  0  0  0  0  0  0  0
   35.9010   29.5090   52.0680 H   0  0  0  0  0  0  0  0  0  0  0  0
   37.5720   29.3640   51.1880 H   0  0  0  0  0  0  0  0  0  0  0  0
   38.9560   30.6320   46.2220 C   0  0  0  0  0  0  0  0  0  0  0  0
   40.0650   30.4720   46.2480 H   0  0  0  0  0  0  0  0  0  0  0  0
   38.5250   29.6370   46.0650 H   0  0  0  0  0  0  0  0  0  0  0  0
   38.7490   31.5270   45.1720 O   0  0  0  0  0  0  0  0  0  0  0  0
   41.0740   32.6580   45.1020 O   0  0  0  0  0  0  0  0  0  0  0  0
   40.1450   31.8090   44.2730 P   0  0  0  0  0  0  0  0  0  0  0  0
   40.8880   30.3800   43.7610 O   0  0  0  0  0  0  0  0  0  0  0  0
   41.2550   29.9460   44.5920 H   0  0  0  0  0  0  0  0  0  0  0  0
   39.7380   32.6630   42.8580 O   0  0  0  0  0  0  0  0  0  0  0  0
   39.2470   32.0630   42.2620 H   0  0  0  0  0  0  0  0  0  0  0  0
  1  2  1  0  0  0  0
  1  9  1  0  0  0  0
  2  7  1  0  0  0  0
  3  8  1  0  0  0  0
  3  2  2  0  0  0  0
  4  3  1  0  0  0  0
  5  4  2  0  0  0  0
  5  6  1  0  0  0  0
  6  1  2  0  0  0  0
  9 12  1  0  0  0  0
  9 11  1  0  0  0  0
 10  9  1  0  0  0  0
 10 14  1  0  0  0  0
 10 11  1  0  0  0  0
 11 16  1  0  0  0  0
 11 15  1  0  0  0  0
 13 10  1  0  0  0  0
 17 18  1  0  0  0  0
 17  5  1  0  0  0  0
 19 17  1  0  0  0  0
 20 17  1  0  0  0  0
 22 21  2  0  0  0  0
 22 20  1  0  0  0  0
 23 22  1  0  0  0  0
 23 24  1  0  0  0  0
 25 22  1  0  0  0  0
 26 25  1  0  0  0  0
M  END
>  <minimizedAffinity>
-5.16380739

>  <minimizedRMSD>
1.09290707

$$$$
