
 OpenBabel03272510293D

 26 27  0  0  0  0  0  0  0  0999 V2000
   37.1860   31.3150   49.2000 C   0  0  0  0  0  0  0  0  0  0  0  0
   37.3410   32.5790   49.7780 C   0  0  0  0  0  0  0  0  0  0  0  0
   38.3050   33.3940   49.1830 C   0  0  0  0  0  0  0  0  0  0  0  0
   39.0190   32.9270   48.1090 N   0  0  0  0  0  0  0  0  0  0  0  0
   38.8240   31.6900   47.5930 C   0  0  0  0  0  0  0  0  0  0  0  0
   37.8850   30.8580   48.1500 N   0  0  0  0  0  0  0  0  0  0  0  0
   36.7530   32.8890   50.6180 H   0  0  0  0  0  0  0  0  0  0  0  0
   38.4860   34.3870   49.5710 H   0  0  0  0  0  0  0  0  0  0  0  0
   36.1340   30.4250   49.7920 C   0  0  0  0  0  0  0  0  0  0  0  0
   36.1290   28.9930   49.6120 C   0  0  0  0  0  0  0  0  0  0  0  0
   36.6680   29.5330   50.9230 C   0  0  0  0  0  0  0  0  0  0  0  0
   35.1970   30.9960   50.0660 H   0  0  0  0  0  0  0  0  0  0  0  0
   36.8860   28.4820   48.9830 H   0  0  0  0  0  0  0  0  0  0  0  0
   35.1690   28.4390   49.6270 H   0  0  0  0  0  0  0  0  0  0  0  0
   35.9890   29.4140   51.7900 H   0  0  0  0  0  0  0  0  0  0  0  0
   37.7540   29.5010   51.1080 H   0  0  0  0  0  0  0  0  0  0  0  0
   39.5680   31.1980   46.4400 C   0  0  0  0  0  0  0  0  0  0  0  0
   40.1600   31.9930   45.9150 H   0  0  0  0  0  0  0  0  0  0  0  0
   40.3020   30.4410   46.7370 H   0  0  0  0  0  0  0  0  0  0  0  0
   38.6360   30.7660   45.4960 O   0  0  0  0  0  0  0  0  0  0  0  0
   37.3600   32.5410   44.1110 O   0  0  0  0  0  0  0  0  0  0  0  0
   38.6240   31.7190   44.1080 P   0  0  0  0  0  0  0  0  0  0  0  0
   40.0030   32.6880   43.9740 O   0  0  0  0  0  0  0  0  0  0  0  0
   39.9300   33.3770   44.7040 H   0  0  0  0  0  0  0  0  0  0  0  0
   38.6200   30.7120   42.7360 O   0  0  0  0  0  0  0  0  0  0  0  0
   39.4950   30.2800   42.6630 H   0  0  0  0  0  0  0  0  0  0  0  0
  1  2  1  0  0  0  0
  1  9  1  0  0  0  0
  2  7  1  0  0  0  0
  3  8  1  0  0  0  0
  3  2  2  0  0  0  0
  4  3  1  0  0  0  0
  5  4  2  0  0  0  0
  5  6  1  0  0  0  0
  6  1  2  0  0  0  0
  9 12  1  0  0  0  0
  9 11  1  0  0  0  0
 10 14  1  0  0  0  0
 10  9  1  0  0  0  0
 10 11  1  0  0  0  0
 11 16  1  0  0  0  0
 11 15  1  0  0  0  0
 13 10  1  0  0  0  0
 17 19  1  0  0  0  0
 17  5  1  0  0  0  0
 18 17  1  0  0  0  0
 20 17  1  0  0  0  0
 22 21  2  0  0  0  0
 22 20  1  0  0  0  0
 23 22  1  0  0  0  0
 23 24  1  0  0  0  0
 25 22  1  0  0  0  0
 26 25  1  0  0  0  0
M  END
>  <minimizedAffinity>
-4.73051977

>  <minimizedRMSD>
1.17633688

$$$$
