
 OpenBabel03272500583D

 33 34  0  0  0  0  0  0  0  0999 V2000
   38.1040   31.8860   47.4190 C   0  0  0  0  0  0  0  0  0  0  0  0
   38.5830   32.7980   48.3310 C   0  0  0  0  0  0  0  0  0  0  0  0
   38.0560   32.8630   49.6310 C   0  0  0  0  0  0  0  0  0  0  0  0
   36.9950   31.9400   49.9830 C   0  0  0  0  0  0  0  0  0  0  0  0
   36.5810   31.0740   49.0330 C   0  0  0  0  0  0  0  0  0  0  0  0
   37.0820   31.0090   47.7840 C   0  0  0  0  0  0  0  0  0  0  0  0
   39.3780   33.5030   48.0960 H   0  0  0  0  0  0  0  0  0  0  0  0
   38.4660   33.5990   50.3080 H   0  0  0  0  0  0  0  0  0  0  0  0
   36.6940   32.1070   51.0070 H   0  0  0  0  0  0  0  0  0  0  0  0
   35.8220   30.4750   49.5130 H   0  0  0  0  0  0  0  0  0  0  0  0
   40.0020   31.2670   46.0080 C   0  0  0  0  0  0  0  0  0  0  0  0
   38.7500   31.9190   46.1300 C   0  0  0  0  0  0  0  0  0  0  0  0
   38.3030   32.5080   44.9730 C   0  0  0  0  0  0  0  0  0  0  0  0
   39.0160   32.4520   43.8400 N   0  0  0  0  0  0  0  0  0  0  0  0
   40.1760   31.8430   43.7420 C   0  0  0  0  0  0  0  0  0  0  0  0
   40.6580   31.2550   44.8250 N   0  0  0  0  0  0  0  0  0  0  0  0
   40.4620   30.7590   46.8620 H   0  0  0  0  0  0  0  0  0  0  0  0
   37.3390   33.0100   45.0700 H   0  0  0  0  0  0  0  0  0  0  0  0
   40.6840   31.8470   42.7860 H   0  0  0  0  0  0  0  0  0  0  0  0
   35.1520   29.9410   46.9600 C   0  0  0  0  0  0  0  0  0  0  0  0
   34.5210   30.5650   47.9010 O   0  0  0  0  0  0  0  0  0  0  0  0
   36.5910   30.1230   46.8560 N   0  0  0  0  0  0  0  0  0  0  0  0
   37.1640   29.6200   46.1450 H   0  0  0  0  0  0  0  0  0  0  0  0
   34.4570   29.1330   46.0990 O   0  0  0  0  0  0  0  0  0  0  0  0
   33.1680   29.4040   45.6390 C   0  0  0  0  0  0  0  0  0  0  0  0
   32.8510   30.5540   45.0880 O   0  0  0  0  0  0  0  0  0  0  0  0
   32.0510   28.5830   45.6440 O   0  0  0  0  0  0  0  0  0  0  0  0
   31.0600   26.5660   47.0320 O   0  0  0  0  0  0  0  0  0  0  0  0
   31.4620   28.0270   47.1610 P   0  0  0  0  0  0  0  0  0  0  0  0
   32.7310   28.0410   48.3050 O   0  0  0  0  0  0  0  0  0  0  0  0
   32.4640   27.4970   49.0820 H   0  0  0  0  0  0  0  0  0  0  0  0
   30.1340   28.8800   47.7090 O   0  0  0  0  0  0  0  0  0  0  0  0
   30.3160   29.8000   47.9930 H   0  0  0  0  0  0  0  0  0  0  0  0
  1  6  2  0  0  0  0
  1  2  1  0  0  0  0
  2  3  2  0  0  0  0
  3  4  1  0  0  0  0
  3  8  1  0  0  0  0
  4  9  1  0  0  0  0
  5 10  1  0  0  0  0
  5  4  2  0  0  0  0
  6  5  1  0  0  0  0
  7  2  1  0  0  0  0
 11 12  1  0  0  0  0
 11 17  1  0  0  0  0
 12  1  1  0  0  0  0
 13 18  1  0  0  0  0
 13 12  2  0  0  0  0
 14 13  1  0  0  0  0
 15 14  2  0  0  0  0
 15 16  1  0  0  0  0
 16 11  2  0  0  0  0
 19 15  1  0  0  0  0
 20 21  2  0  0  0  0
 22 20  1  0  0  0  0
 22  6  1  0  0  0  0
 23 22  1  0  0  0  0
 24 20  1  0  0  0  0
 25 27  1  0  0  0  0
 25 24  1  0  0  0  0
 26 25  2  0  0  0  0
 27 29  1  0  0  0  0
 28 29  2  0  0  0  0
 29 32  1  0  0  0  0
 29 30  1  0  0  0  0
 30 31  1  0  0  0  0
 32 33  1  0  0  0  0
M  END
>  <minimizedAffinity>
-5.44843721

>  <minimizedRMSD>
0.530326843

$$$$
