
 OpenBabel03272500583D

 33 34  0  0  0  0  0  0  0  0999 V2000
   38.0950   31.8590   47.4290 C   0  0  0  0  0  0  0  0  0  0  0  0
   38.6030   32.7460   48.3500 C   0  0  0  0  0  0  0  0  0  0  0  0
   38.0890   32.8010   49.6560 C   0  0  0  0  0  0  0  0  0  0  0  0
   37.0120   31.8960   50.0040 C   0  0  0  0  0  0  0  0  0  0  0  0
   36.5690   31.0540   49.0450 C   0  0  0  0  0  0  0  0  0  0  0  0
   37.0570   30.9980   47.7900 C   0  0  0  0  0  0  0  0  0  0  0  0
   39.4100   33.4370   48.1180 H   0  0  0  0  0  0  0  0  0  0  0  0
   38.5220   33.5170   50.3400 H   0  0  0  0  0  0  0  0  0  0  0  0
   36.7240   32.0540   51.0330 H   0  0  0  0  0  0  0  0  0  0  0  0
   35.8030   30.4650   49.5220 H   0  0  0  0  0  0  0  0  0  0  0  0
   39.9790   31.2450   45.9970 C   0  0  0  0  0  0  0  0  0  0  0  0
   38.7290   31.8980   46.1340 C   0  0  0  0  0  0  0  0  0  0  0  0
   38.2720   32.4940   44.9840 C   0  0  0  0  0  0  0  0  0  0  0  0
   38.9750   32.4430   43.8450 N   0  0  0  0  0  0  0  0  0  0  0  0
   40.1330   31.8340   43.7330 C   0  0  0  0  0  0  0  0  0  0  0  0
   40.6250   31.2390   44.8090 N   0  0  0  0  0  0  0  0  0  0  0  0
   40.4470   30.7330   46.8440 H   0  0  0  0  0  0  0  0  0  0  0  0
   37.3090   32.9960   45.0920 H   0  0  0  0  0  0  0  0  0  0  0  0
   40.6320   31.8420   42.7720 H   0  0  0  0  0  0  0  0  0  0  0  0
   35.0930   30.0090   46.9490 C   0  0  0  0  0  0  0  0  0  0  0  0
   34.4810   30.6500   47.8920 O   0  0  0  0  0  0  0  0  0  0  0  0
   36.5380   30.1380   46.8530 N   0  0  0  0  0  0  0  0  0  0  0  0
   37.0960   29.6200   46.1410 H   0  0  0  0  0  0  0  0  0  0  0  0
   34.3720   29.2340   46.0780 O   0  0  0  0  0  0  0  0  0  0  0  0
   33.3020   29.7010   45.3160 C   0  0  0  0  0  0  0  0  0  0  0  0
   33.4480   30.6420   44.4100 O   0  0  0  0  0  0  0  0  0  0  0  0
   31.9770   29.2930   45.3330 O   0  0  0  0  0  0  0  0  0  0  0  0
   30.4680   27.1840   45.8360 O   0  0  0  0  0  0  0  0  0  0  0  0
   31.5150   28.0880   46.4690 P   0  0  0  0  0  0  0  0  0  0  0  0
   32.8490   27.0670   46.7900 O   0  0  0  0  0  0  0  0  0  0  0  0
   32.5230   26.2490   47.2320 H   0  0  0  0  0  0  0  0  0  0  0  0
   30.8720   28.7160   47.8760 O   0  0  0  0  0  0  0  0  0  0  0  0
   31.5090   29.1760   48.4600 H   0  0  0  0  0  0  0  0  0  0  0  0
  1  6  2  0  0  0  0
  1  2  1  0  0  0  0
  2  3  2  0  0  0  0
  3  4  1  0  0  0  0
  3  8  1  0  0  0  0
  4  9  1  0  0  0  0
  5 10  1  0  0  0  0
  5  4  2  0  0  0  0
  6  5  1  0  0  0  0
  7  2  1  0  0  0  0
 11 12  1  0  0  0  0
 11 17  1  0  0  0  0
 12  1  1  0  0  0  0
 13 18  1  0  0  0  0
 13 12  2  0  0  0  0
 14 13  1  0  0  0  0
 15 14  2  0  0  0  0
 15 16  1  0  0  0  0
 16 11  2  0  0  0  0
 19 15  1  0  0  0  0
 20 21  2  0  0  0  0
 22 20  1  0  0  0  0
 22  6  1  0  0  0  0
 23 22  1  0  0  0  0
 24 20  1  0  0  0  0
 25 27  1  0  0  0  0
 25 24  1  0  0  0  0
 26 25  2  0  0  0  0
 27 29  1  0  0  0  0
 28 29  2  0  0  0  0
 29 30  1  0  0  0  0
 29 32  1  0  0  0  0
 30 31  1  0  0  0  0
 32 33  1  0  0  0  0
M  END
>  <minimizedAffinity>
-5.27693796

>  <minimizedRMSD>
0.953190267

$$$$
