
 OpenBabel03272510293D

 26 27  0  0  0  0  0  0  0  0999 V2000
   37.1780   31.3120   49.2000 C   0  0  0  0  0  0  0  0  0  0  0  0
   37.3500   32.5640   49.7990 C   0  0  0  0  0  0  0  0  0  0  0  0
   38.3120   33.3830   49.2070 C   0  0  0  0  0  0  0  0  0  0  0  0
   39.0080   32.9310   48.1140 N   0  0  0  0  0  0  0  0  0  0  0  0
   38.7970   31.7060   47.5780 C   0  0  0  0  0  0  0  0  0  0  0  0
   37.8600   30.8690   48.1320 N   0  0  0  0  0  0  0  0  0  0  0  0
   36.7750   32.8620   50.6520 H   0  0  0  0  0  0  0  0  0  0  0  0
   38.5050   34.3680   49.6100 H   0  0  0  0  0  0  0  0  0  0  0  0
   36.1280   30.4190   49.7890 C   0  0  0  0  0  0  0  0  0  0  0  0
   36.1260   28.9870   49.6060 C   0  0  0  0  0  0  0  0  0  0  0  0
   36.6620   29.5260   50.9180 C   0  0  0  0  0  0  0  0  0  0  0  0
   35.1890   30.9860   50.0620 H   0  0  0  0  0  0  0  0  0  0  0  0
   36.8850   28.4790   48.9770 H   0  0  0  0  0  0  0  0  0  0  0  0
   35.1670   28.4310   49.6190 H   0  0  0  0  0  0  0  0  0  0  0  0
   35.9820   29.4040   51.7850 H   0  0  0  0  0  0  0  0  0  0  0  0
   37.7470   29.4950   51.1040 H   0  0  0  0  0  0  0  0  0  0  0  0
   39.5230   31.2300   46.4060 C   0  0  0  0  0  0  0  0  0  0  0  0
   40.5570   31.6530   46.3170 H   0  0  0  0  0  0  0  0  0  0  0  0
   39.6580   30.1430   46.4390 H   0  0  0  0  0  0  0  0  0  0  0  0
   38.8470   31.6990   45.2790 O   0  0  0  0  0  0  0  0  0  0  0  0
   40.3730   31.3970   43.2100 O   0  0  0  0  0  0  0  0  0  0  0  0
   39.1760   30.7890   43.9000 P   0  0  0  0  0  0  0  0  0  0  0  0
   39.4130   29.1510   44.2420 O   0  0  0  0  0  0  0  0  0  0  0  0
   40.2830   29.0970   44.7450 H   0  0  0  0  0  0  0  0  0  0  0  0
   37.8420   30.8650   42.8470 O   0  0  0  0  0  0  0  0  0  0  0  0
   37.1050   30.3530   43.2400 H   0  0  0  0  0  0  0  0  0  0  0  0
  1  9  1  0  0  0  0
  1  2  1  0  0  0  0
  2  7  1  0  0  0  0
  3  8  1  0  0  0  0
  3  2  2  0  0  0  0
  4  3  1  0  0  0  0
  5  4  2  0  0  0  0
  5  6  1  0  0  0  0
  6  1  2  0  0  0  0
  9 12  1  0  0  0  0
  9 11  1  0  0  0  0
 10 14  1  0  0  0  0
 10  9  1  0  0  0  0
 10 11  1  0  0  0  0
 11 16  1  0  0  0  0
 11 15  1  0  0  0  0
 13 10  1  0  0  0  0
 17 19  1  0  0  0  0
 17  5  1  0  0  0  0
 18 17  1  0  0  0  0
 20 17  1  0  0  0  0
 21 22  2  0  0  0  0
 22 23  1  0  0  0  0
 22 20  1  0  0  0  0
 23 24  1  0  0  0  0
 25 26  1  0  0  0  0
 25 22  1  0  0  0  0
M  END
>  <minimizedAffinity>
-4.9132266

>  <minimizedRMSD>
1.1009953

$$$$
