
 OpenBabel03272510293D

 26 27  0  0  0  0  0  0  0  0999 V2000
   37.3170   31.4120   49.2310 C   0  0  0  0  0  0  0  0  0  0  0  0
   37.6070   32.6010   49.9060 C   0  0  0  0  0  0  0  0  0  0  0  0
   38.5110   33.4490   49.2650 C   0  0  0  0  0  0  0  0  0  0  0  0
   39.0440   33.0810   48.0550 N   0  0  0  0  0  0  0  0  0  0  0  0
   38.7240   31.9130   47.4490 C   0  0  0  0  0  0  0  0  0  0  0  0
   37.8390   31.0510   48.0480 N   0  0  0  0  0  0  0  0  0  0  0  0
   37.1580   32.8350   50.8510 H   0  0  0  0  0  0  0  0  0  0  0  0
   38.7870   34.3890   49.7220 H   0  0  0  0  0  0  0  0  0  0  0  0
   36.3220   30.4930   49.8750 C   0  0  0  0  0  0  0  0  0  0  0  0
   36.2400   29.0860   49.5620 C   0  0  0  0  0  0  0  0  0  0  0  0
   36.9700   29.4810   50.8320 C   0  0  0  0  0  0  0  0  0  0  0  0
   35.4520   31.0550   50.3280 H   0  0  0  0  0  0  0  0  0  0  0  0
   36.8860   28.6220   48.7900 H   0  0  0  0  0  0  0  0  0  0  0  0
   35.2710   28.5560   49.6570 H   0  0  0  0  0  0  0  0  0  0  0  0
   36.4100   29.2930   51.7690 H   0  0  0  0  0  0  0  0  0  0  0  0
   38.0690   29.4050   50.8620 H   0  0  0  0  0  0  0  0  0  0  0  0
   39.2750   31.5280   46.1550 C   0  0  0  0  0  0  0  0  0  0  0  0
   40.3860   31.6570   46.0840 H   0  0  0  0  0  0  0  0  0  0  0  0
   39.0950   30.4670   45.9490 H   0  0  0  0  0  0  0  0  0  0  0  0
   38.7520   32.4030   45.2030 O   0  0  0  0  0  0  0  0  0  0  0  0
   38.0150   30.8500   43.2680 O   0  0  0  0  0  0  0  0  0  0  0  0
   37.4580   31.7380   44.3530 P   0  0  0  0  0  0  0  0  0  0  0  0
   36.3810   30.9060   45.3540 O   0  0  0  0  0  0  0  0  0  0  0  0
   36.8710   30.0860   45.6680 H   0  0  0  0  0  0  0  0  0  0  0  0
   36.5620   32.9900   43.6290 O   0  0  0  0  0  0  0  0  0  0  0  0
   36.0930   33.4850   44.3310 H   0  0  0  0  0  0  0  0  0  0  0  0
  1  9  1  0  0  0  0
  1  2  1  0  0  0  0
  2  7  1  0  0  0  0
  3  8  1  0  0  0  0
  3  2  2  0  0  0  0
  4  3  1  0  0  0  0
  5  6  1  0  0  0  0
  5  4  2  0  0  0  0
  6  1  2  0  0  0  0
  9 12  1  0  0  0  0
  9 11  1  0  0  0  0
 10 14  1  0  0  0  0
 10  9  1  0  0  0  0
 10 11  1  0  0  0  0
 11 16  1  0  0  0  0
 11 15  1  0  0  0  0
 13 10  1  0  0  0  0
 17  5  1  0  0  0  0
 18 17  1  0  0  0  0
 19 17  1  0  0  0  0
 20 17  1  0  0  0  0
 21 22  2  0  0  0  0
 22 20  1  0  0  0  0
 22 23  1  0  0  0  0
 23 24  1  0  0  0  0
 25 26  1  0  0  0  0
 25 22  1  0  0  0  0
M  END
>  <minimizedAffinity>
-5.03329039

>  <minimizedRMSD>
1.23173237

$$$$
