
 OpenBabel03262523303D

 31 33  0  0  0  0  0  0  0  0999 V2000
   36.5060   29.8090   50.7730 C   0  0  0  0  0  0  0  0  0  0  0  0
   37.1900   30.5140   49.7880 C   0  0  0  0  0  0  0  0  0  0  0  0
   36.7930   30.3480   48.4540 C   0  0  0  0  0  0  0  0  0  0  0  0
   35.7500   29.5000   48.1640 N   0  0  0  0  0  0  0  0  0  0  0  0
   35.1190   28.8390   49.1670 C   0  0  0  0  0  0  0  0  0  0  0  0
   35.4880   28.9890   50.4470 N   0  0  0  0  0  0  0  0  0  0  0  0
   36.7880   29.9160   51.8100 H   0  0  0  0  0  0  0  0  0  0  0  0
   37.9980   31.1710   50.0000 H   0  0  0  0  0  0  0  0  0  0  0  0
   36.9630   30.7200   46.0690 C   0  0  0  0  0  0  0  0  0  0  0  0
   37.4260   31.0250   47.3350 C   0  0  0  0  0  0  0  0  0  0  0  0
   38.4540   31.9460   47.5000 C   0  0  0  0  0  0  0  0  0  0  0  0
   38.9900   32.5360   46.3760 C   0  0  0  0  0  0  0  0  0  0  0  0
   39.9830   33.4510   46.2630 N   0  0  0  0  0  0  0  0  0  0  0  0
   40.1430   33.7150   44.9500 C   0  0  0  0  0  0  0  0  0  0  0  0
   39.2800   32.9970   44.2210 N   0  0  0  0  0  0  0  0  0  0  0  0
   38.5450   32.2490   45.0810 C   0  0  0  0  0  0  0  0  0  0  0  0
   37.5140   31.3240   44.9360 C   0  0  0  0  0  0  0  0  0  0  0  0
   36.1740   30.0190   45.8740 H   0  0  0  0  0  0  0  0  0  0  0  0
   38.8120   32.1830   48.4720 H   0  0  0  0  0  0  0  0  0  0  0  0
   40.5650   33.9130   46.9980 H   0  0  0  0  0  0  0  0  0  0  0  0
   40.8000   34.3640   44.3940 H   0  0  0  0  0  0  0  0  0  0  0  0
   37.1730   31.1050   43.9330 H   0  0  0  0  0  0  0  0  0  0  0  0
   34.0210   27.9540   48.8090 C   0  0  0  0  0  0  0  0  0  0  0  0
   34.1980   26.9500   48.0710 O   0  0  0  0  0  0  0  0  0  0  0  0
   32.7770   28.2850   49.3310 O   0  0  0  0  0  0  0  0  0  0  0  0
   31.1470   28.3570   47.2740 O   0  0  0  0  0  0  0  0  0  0  0  0
   31.2870   27.7450   48.6590 P   0  0  0  0  0  0  0  0  0  0  0  0
   31.3150   26.0740   48.4460 O   0  0  0  0  0  0  0  0  0  0  0  0
   31.8710   25.6390   49.1380 H   0  0  0  0  0  0  0  0  0  0  0  0
   29.9820   28.2750   49.5760 O   0  0  0  0  0  0  0  0  0  0  0  0
   29.1970   28.3190   48.9690 H   0  0  0  0  0  0  0  0  0  0  0  0
  1  7  1  0  0  0  0
  2  8  1  0  0  0  0
  2  1  2  0  0  0  0
  3  2  1  0  0  0  0
  4  3  2  0  0  0  0
  4  5  1  0  0  0  0
  5  6  2  0  0  0  0
  6  1  1  0  0  0  0
  9 10  1  0  0  0  0
 10 11  2  0  0  0  0
 10  3  1  0  0  0  0
 11 19  1  0  0  0  0
 12 11  1  0  0  0  0
 13 12  1  0  0  0  0
 13 20  1  0  0  0  0
 14 13  1  0  0  0  0
 15 14  2  0  0  0  0
 15 16  1  0  0  0  0
 16 12  2  0  0  0  0
 17 16  1  0  0  0  0
 17  9  2  0  0  0  0
 18  9  1  0  0  0  0
 21 14  1  0  0  0  0
 22 17  1  0  0  0  0
 23  5  1  0  0  0  0
 23 25  1  0  0  0  0
 24 23  2  0  0  0  0
 26 27  2  0  0  0  0
 27 25  1  0  0  0  0
 27 30  1  0  0  0  0
 28 27  1  0  0  0  0
 28 29  1  0  0  0  0
 31 30  1  0  0  0  0
M  END
>  <minimizedAffinity>
-6.15752411

>  <minimizedRMSD>
1.71700227

$$$$
