
 OpenBabel03272507033D

 29 31  0  0  0  0  0  0  0  0999 V2000
   37.7550   30.2230   50.7730 C   0  0  0  0  0  0  0  0  0  0  0  0
   38.3930   31.3030   50.1300 C   0  0  0  0  0  0  0  0  0  0  0  0
   37.8230   31.7400   48.9230 C   0  0  0  0  0  0  0  0  0  0  0  0
   36.7140   31.1130   48.4580 N   0  0  0  0  0  0  0  0  0  0  0  0
   36.1320   30.0920   49.0920 C   0  0  0  0  0  0  0  0  0  0  0  0
   36.6530   29.6470   50.2500 N   0  0  0  0  0  0  0  0  0  0  0  0
   38.2220   29.9270   51.6820 H   0  0  0  0  0  0  0  0  0  0  0  0
   39.2590   31.8180   50.4610 H   0  0  0  0  0  0  0  0  0  0  0  0
   34.6120   28.1640   48.9130 C   0  0  0  0  0  0  0  0  0  0  0  0
   34.9380   29.4570   48.5390 C   0  0  0  0  0  0  0  0  0  0  0  0
   34.1600   30.1830   47.6450 C   0  0  0  0  0  0  0  0  0  0  0  0
   33.0210   29.5980   47.1090 C   0  0  0  0  0  0  0  0  0  0  0  0
   32.0910   30.0300   46.2460 N   0  0  0  0  0  0  0  0  0  0  0  0
   31.2270   28.9780   46.1240 C   0  0  0  0  0  0  0  0  0  0  0  0
   31.6110   27.9490   46.8800 N   0  0  0  0  0  0  0  0  0  0  0  0
   32.7360   28.3020   47.5140 C   0  0  0  0  0  0  0  0  0  0  0  0
   33.4870   27.5660   48.3930 C   0  0  0  0  0  0  0  0  0  0  0  0
   35.2260   27.6070   49.6100 H   0  0  0  0  0  0  0  0  0  0  0  0
   34.3880   31.1940   47.3350 H   0  0  0  0  0  0  0  0  0  0  0  0
   32.0580   30.9690   45.7830 H   0  0  0  0  0  0  0  0  0  0  0  0
   30.3600   29.0780   45.4620 H   0  0  0  0  0  0  0  0  0  0  0  0
   33.2470   26.5700   48.6880 H   0  0  0  0  0  0  0  0  0  0  0  0
   38.3000   32.7830   48.1420 O   0  0  0  0  0  0  0  0  0  0  0  0
   37.8980   32.3380   45.5930 O   0  0  0  0  0  0  0  0  0  0  0  0
   38.9900   32.4250   46.6180 P   0  0  0  0  0  0  0  0  0  0  0  0
   40.0560   33.6730   46.1630 O   0  0  0  0  0  0  0  0  0  0  0  0
   39.6690   34.5570   46.4320 H   0  0  0  0  0  0  0  0  0  0  0  0
   39.9400   31.0160   46.6670 O   0  0  0  0  0  0  0  0  0  0  0  0
   40.8510   31.2400   47.0050 H   0  0  0  0  0  0  0  0  0  0  0  0
  1  7  1  0  0  0  0
  2  8  1  0  0  0  0
  2  1  2  0  0  0  0
  3  2  1  0  0  0  0
  4  3  2  0  0  0  0
  4  5  1  0  0  0  0
  5  6  2  0  0  0  0
  6  1  1  0  0  0  0
  9 18  1  0  0  0  0
 10  9  1  0  0  0  0
 10  5  1  0  0  0  0
 11 10  2  0  0  0  0
 12 16  2  0  0  0  0
 12 11  1  0  0  0  0
 13 12  1  0  0  0  0
 14 13  1  0  0  0  0
 14 15  2  0  0  0  0
 15 16  1  0  0  0  0
 16 17  1  0  0  0  0
 17 22  1  0  0  0  0
 17  9  2  0  0  0  0
 19 11  1  0  0  0  0
 20 13  1  0  0  0  0
 21 14  1  0  0  0  0
 23  3  1  0  0  0  0
 24 25  2  0  0  0  0
 25 28  1  0  0  0  0
 25 23  1  0  0  0  0
 26 27  1  0  0  0  0
 26 25  1  0  0  0  0
 28 29  1  0  0  0  0
M  END
>  <minimizedAffinity>
-6.29103279

>  <minimizedRMSD>
0.504170358

$$$$
