
 OpenBabel03272507243D

 28 29  0  0  1  0  0  0  0  0999 V2000
   38.6450   22.4840   35.9940 C   0  0  0  0  0  0  0  0  0  0  0  0
   37.5360   22.0570   35.2270 C   0  0  0  0  0  0  0  0  0  0  0  0
   37.6610   22.0770   33.8380 C   0  0  0  0  0  0  0  0  0  0  0  0
   38.8330   22.5050   33.2890 N   0  0  0  0  0  0  0  0  0  0  0  0
   39.8700   22.9060   34.0580 C   0  0  0  0  0  0  0  0  0  0  0  0
   39.7720   22.8940   35.4000 N   0  0  0  0  0  0  0  0  0  0  0  0
   36.5820   21.6600   33.0080 N   0  0  0  0  0  0  0  0  0  0  0  0
   35.6090   20.6400   33.3630 C   0  0  0  0  0  0  0  0  0  0  0  0
   34.7900   20.4290   32.1170 C   0  0  0  0  0  0  0  0  0  0  0  0
   35.7230   20.9120   31.0330 C   0  0  0  0  0  0  0  0  0  0  0  0
   36.2720   22.1640   31.6960 C   0  0  1  0  0  0  0  0  0  0  0  0
   38.5650   22.4740   37.0710 H   0  0  0  0  0  0  0  0  0  0  0  0
   36.6040   21.7170   35.6890 H   0  0  0  0  0  0  0  0  0  0  0  0
   40.7240   23.2140   33.4470 H   0  0  0  0  0  0  0  0  0  0  0  0
   34.9310   21.1170   34.1170 H   0  0  0  0  0  0  0  0  0  0  0  0
   36.0730   19.7150   33.7620 H   0  0  0  0  0  0  0  0  0  0  0  0
   34.6790   19.3310   31.9560 H   0  0  0  0  0  0  0  0  0  0  0  0
   33.8180   20.9200   32.1130 H   0  0  0  0  0  0  0  0  0  0  0  0
   35.1210   21.2230   30.1570 H   0  0  0  0  0  0  0  0  0  0  0  0
   36.5120   20.1910   30.8340 H   0  0  0  0  0  0  0  0  0  0  0  0
   37.2410   22.4980   31.2470 H   0  0  0  0  0  0  0  0  0  0  0  0
   35.3510   23.1860   31.7070 O   0  0  0  0  0  0  0  0  0  0  0  0
   36.7010   25.3060   32.4970 O   0  0  0  0  0  0  0  0  0  0  0  0
   36.2140   24.5920   31.2580 P   0  0  0  0  0  0  0  0  0  0  0  0
   35.2330   25.6770   30.4110 O   0  0  0  0  0  0  0  0  0  0  0  0
   35.6420   26.5720   30.5220 H   0  0  0  0  0  0  0  0  0  0  0  0
   37.4740   24.1080   30.2440 O   0  0  0  0  0  0  0  0  0  0  0  0
   37.5880   24.7520   29.4900 H   0  0  0  0  0  0  0  0  0  0  0  0
  1 12  1  0  0  0  0
  2 13  1  0  0  0  0
  2  1  2  0  0  0  0
  3  2  1  0  0  0  0
  4  3  2  0  0  0  0
  4  5  1  0  0  0  0
  5  6  2  0  0  0  0
  6  1  1  0  0  0  0
  7  8  1  0  0  0  0
  7  3  1  0  0  0  0
  8 16  1  0  0  0  0
  8 15  1  0  0  0  0
  9  8  1  0  0  0  0
 10 11  1  0  0  0  0
 10  9  1  0  0  0  0
 11 21  1  6  0  0  0
 11 22  1  0  0  0  0
 11  7  1  0  0  0  0
 14  5  1  0  0  0  0
 17  9  1  0  0  0  0
 18  9  1  0  0  0  0
 19 10  1  0  0  0  0
 20 10  1  0  0  0  0
 24 22  1  0  0  0  0
 24 23  2  0  0  0  0
 25 26  1  0  0  0  0
 25 24  1  0  0  0  0
 27 24  1  0  0  0  0
 28 27  1  0  0  0  0
M  END
>  <minimizedAffinity>
-4.59414625

$$$$

 OpenBabel03272507243D

 28 29  0  0  1  0  0  0  0  0999 V2000
   36.2080   23.1140   31.8830 C   0  0  0  0  0  0  0  0  0  0  0  0
   37.3040   23.7710   32.4910 C   0  0  0  0  0  0  0  0  0  0  0  0
   37.9980   23.0890   33.4890 C   0  0  0  0  0  0  0  0  0  0  0  0
   37.5930   21.8320   33.8310 N   0  0  0  0  0  0  0  0  0  0  0  0
   36.5400   21.2390   33.2260 C   0  0  0  0  0  0  0  0  0  0  0  0
   35.8550   21.8790   32.2600 N   0  0  0  0  0  0  0  0  0  0  0  0
   39.1110   23.6930   34.1400 N   0  0  0  0  0  0  0  0  0  0  0  0
   40.0200   24.6420   33.5190 C   0  0  0  0  0  0  0  0  0  0  0  0
   41.1140   24.8560   34.5300 C   0  0  0  0  0  0  0  0  0  0  0  0
   41.0300   23.6020   35.3660 C   0  0  0  0  0  0  0  0  0  0  0  0
   39.5230   23.4750   35.5020 C   0  0  1  0  0  0  0  0  0  0  0  0
   35.6590   23.6280   31.1090 H   0  0  0  0  0  0  0  0  0  0  0  0
   37.6110   24.7810   32.2000 H   0  0  0  0  0  0  0  0  0  0  0  0
   36.3630   20.2370   33.6280 H   0  0  0  0  0  0  0  0  0  0  0  0
   39.4530   25.6060   33.4490 H   0  0  0  0  0  0  0  0  0  0  0  0
   40.3830   24.3110   32.5240 H   0  0  0  0  0  0  0  0  0  0  0  0
   42.0940   24.8030   34.0000 H   0  0  0  0  0  0  0  0  0  0  0  0
   41.0380   25.7760   35.1080 H   0  0  0  0  0  0  0  0  0  0  0  0
   41.4490   23.8130   36.3700 H   0  0  0  0  0  0  0  0  0  0  0  0
   41.4540   22.7460   34.8470 H   0  0  0  0  0  0  0  0  0  0  0  0
   39.2010   22.4380   35.7690 H   0  0  0  0  0  0  0  0  0  0  0  0
   39.0060   24.3980   36.3830 O   0  0  0  0  0  0  0  0  0  0  0  0
   37.7270   24.4210   38.6860 O   0  0  0  0  0  0  0  0  0  0  0  0
   38.3230   23.4880   37.6580 P   0  0  0  0  0  0  0  0  0  0  0  0
   39.4890   22.5560   38.4490 O   0  0  0  0  0  0  0  0  0  0  0  0
   39.1390   22.3780   39.3580 H   0  0  0  0  0  0  0  0  0  0  0  0
   37.1790   22.4480   36.9790 O   0  0  0  0  0  0  0  0  0  0  0  0
   37.2190   21.5490   37.4110 H   0  0  0  0  0  0  0  0  0  0  0  0
  1  6  2  0  0  0  0
  1  2  1  0  0  0  0
  2  3  2  0  0  0  0
  3  4  1  0  0  0  0
  3  7  1  0  0  0  0
  5 14  1  0  0  0  0
  5  4  2  0  0  0  0
  6  5  1  0  0  0  0
  7 11  1  0  0  0  0
  8  7  1  0  0  0  0
  8  9  1  0  0  0  0
  9 18  1  0  0  0  0
  9 10  1  0  0  0  0
 10 11  1  0  0  0  0
 10 19  1  0  0  0  0
 11 21  1  1  0  0  0
 11 22  1  0  0  0  0
 12  1  1  0  0  0  0
 13  2  1  0  0  0  0
 15  8  1  0  0  0  0
 16  8  1  0  0  0  0
 17  9  1  0  0  0  0
 20 10  1  0  0  0  0
 22 24  1  0  0  0  0
 24 25  1  0  0  0  0
 24 23  2  0  0  0  0
 25 26  1  0  0  0  0
 27 28  1  0  0  0  0
 27 24  1  0  0  0  0
M  END
>  <minimizedAffinity>
-4.52635622

$$$$

 OpenBabel03272507243D

 28 29  0  0  1  0  0  0  0  0999 V2000
   38.1540   21.3360   31.7120 C   0  0  0  0  0  0  0  0  0  0  0  0
   38.4090   21.6590   33.0650 C   0  0  0  0  0  0  0  0  0  0  0  0
   37.9360   22.8820   33.5400 C   0  0  0  0  0  0  0  0  0  0  0  0
   37.2590   23.7020   32.6880 N   0  0  0  0  0  0  0  0  0  0  0  0
   37.0370   23.3560   31.4000 C   0  0  0  0  0  0  0  0  0  0  0  0
   37.4830   22.1810   30.9190 N   0  0  0  0  0  0  0  0  0  0  0  0
   38.1580   23.2670   34.8930 N   0  0  0  0  0  0  0  0  0  0  0  0
   38.2490   22.3470   36.0140 C   0  0  0  0  0  0  0  0  0  0  0  0
   38.3100   23.2220   37.2370 C   0  0  0  0  0  0  0  0  0  0  0  0
   37.6790   24.5040   36.7470 C   0  0  0  0  0  0  0  0  0  0  0  0
   38.3290   24.6120   35.3780 C   0  0  1  0  0  0  0  0  0  0  0  0
   38.5130   20.3930   31.3270 H   0  0  0  0  0  0  0  0  0  0  0  0
   38.9550   20.9850   33.7320 H   0  0  0  0  0  0  0  0  0  0  0  0
   36.4800   24.1340   30.8690 H   0  0  0  0  0  0  0  0  0  0  0  0
   39.2500   21.8520   35.9210 H   0  0  0  0  0  0  0  0  0  0  0  0
   37.4270   21.6010   36.0320 H   0  0  0  0  0  0  0  0  0  0  0  0
   37.6070   22.8080   37.9970 H   0  0  0  0  0  0  0  0  0  0  0  0
   39.3040   23.3550   37.6620 H   0  0  0  0  0  0  0  0  0  0  0  0
   38.0480   25.3430   37.3700 H   0  0  0  0  0  0  0  0  0  0  0  0
   36.5990   24.4120   36.6660 H   0  0  0  0  0  0  0  0  0  0  0  0
   37.7580   25.2760   34.6830 H   0  0  0  0  0  0  0  0  0  0  0  0
   39.6470   24.9980   35.4640 O   0  0  0  0  0  0  0  0  0  0  0  0
   38.9700   26.6780   33.5500 O   0  0  0  0  0  0  0  0  0  0  0  0
   39.6990   26.6010   34.8710 P   0  0  0  0  0  0  0  0  0  0  0  0
   41.2870   27.1080   34.5940 O   0  0  0  0  0  0  0  0  0  0  0  0
   41.2380   27.8360   33.9240 H   0  0  0  0  0  0  0  0  0  0  0  0
   39.0200   27.5980   36.0520 O   0  0  0  0  0  0  0  0  0  0  0  0
   39.5350   28.4490   36.1350 H   0  0  0  0  0  0  0  0  0  0  0  0
  1  2  1  0  0  0  0
  2  3  2  0  0  0  0
  2 13  1  0  0  0  0
  3  7  1  0  0  0  0
  4  3  1  0  0  0  0
  5  4  2  0  0  0  0
  6  5  1  0  0  0  0
  6  1  2  0  0  0  0
  7 11  1  0  0  0  0
  7  8  1  0  0  0  0
  8 16  1  0  0  0  0
  8  9  1  0  0  0  0
  9 18  1  0  0  0  0
  9 17  1  0  0  0  0
 10  9  1  0  0  0  0
 10 19  1  0  0  0  0
 11 21  1  6  0  0  0
 11 22  1  0  0  0  0
 11 10  1  0  0  0  0
 12  1  1  0  0  0  0
 14  5  1  0  0  0  0
 15  8  1  0  0  0  0
 20 10  1  0  0  0  0
 23 24  2  0  0  0  0
 24 22  1  0  0  0  0
 24 27  1  0  0  0  0
 25 24  1  0  0  0  0
 26 25  1  0  0  0  0
 27 28  1  0  0  0  0
M  END
>  <minimizedAffinity>
-4.37845707

$$$$

 OpenBabel03272507243D

 28 29  0  0  1  0  0  0  0  0999 V2000
   36.5760   23.6950   31.0920 C   0  0  0  0  0  0  0  0  0  0  0  0
   36.5970   24.6300   32.1530 C   0  0  0  0  0  0  0  0  0  0  0  0
   37.7200   24.6490   32.9800 C   0  0  0  0  0  0  0  0  0  0  0  0
   38.7350   23.7730   32.7320 N   0  0  0  0  0  0  0  0  0  0  0  0
   38.6760   22.8930   31.7070 C   0  0  0  0  0  0  0  0  0  0  0  0
   37.6030   22.8580   30.8960 N   0  0  0  0  0  0  0  0  0  0  0  0
   37.8040   25.5660   34.0660 N   0  0  0  0  0  0  0  0  0  0  0  0
   37.2030   26.8900   34.0820 C   0  0  0  0  0  0  0  0  0  0  0  0
   37.7070   27.5350   35.3450 C   0  0  0  0  0  0  0  0  0  0  0  0
   38.9700   26.7550   35.6230 C   0  0  0  0  0  0  0  0  0  0  0  0
   38.4850   25.3490   35.3150 C   0  0  1  0  0  0  0  0  0  0  0  0
   35.7150   23.6660   30.4420 H   0  0  0  0  0  0  0  0  0  0  0  0
   35.7700   25.3240   32.3340 H   0  0  0  0  0  0  0  0  0  0  0  0
   39.5760   22.2740   31.6620 H   0  0  0  0  0  0  0  0  0  0  0  0
   36.1040   26.7240   34.2210 H   0  0  0  0  0  0  0  0  0  0  0  0
   37.4120   27.4740   33.1620 H   0  0  0  0  0  0  0  0  0  0  0  0
   38.0370   28.5710   35.0990 H   0  0  0  0  0  0  0  0  0  0  0  0
   37.0020   27.5400   36.1750 H   0  0  0  0  0  0  0  0  0  0  0  0
   39.1930   26.8110   36.7070 H   0  0  0  0  0  0  0  0  0  0  0  0
   39.7760   27.0500   34.9560 H   0  0  0  0  0  0  0  0  0  0  0  0
   39.3250   24.6420   35.0990 H   0  0  0  0  0  0  0  0  0  0  0  0
   37.6660   24.8590   36.3060 O   0  0  0  0  0  0  0  0  0  0  0  0
   39.0330   23.4120   38.0320 O   0  0  0  0  0  0  0  0  0  0  0  0
   38.2990   23.3250   36.7150 P   0  0  0  0  0  0  0  0  0  0  0  0
   39.4110   22.7860   35.5610 O   0  0  0  0  0  0  0  0  0  0  0  0
   39.9980   22.1330   36.0190 H   0  0  0  0  0  0  0  0  0  0  0  0
   37.0060   22.2400   36.7570 O   0  0  0  0  0  0  0  0  0  0  0  0
   37.2660   21.3650   36.3530 H   0  0  0  0  0  0  0  0  0  0  0  0
  1  2  1  0  0  0  0
  2 13  1  0  0  0  0
  2  3  2  0  0  0  0
  3  7  1  0  0  0  0
  4  3  1  0  0  0  0
  5  4  2  0  0  0  0
  6  1  2  0  0  0  0
  6  5  1  0  0  0  0
  7  8  1  0  0  0  0
  7 11  1  0  0  0  0
  8 15  1  0  0  0  0
  8  9  1  0  0  0  0
  9 10  1  0  0  0  0
  9 18  1  0  0  0  0
 10 19  1  0  0  0  0
 11 21  1  6  0  0  0
 11 10  1  0  0  0  0
 11 22  1  0  0  0  0
 12  1  1  0  0  0  0
 14  5  1  0  0  0  0
 16  8  1  0  0  0  0
 17  9  1  0  0  0  0
 20 10  1  0  0  0  0
 22 24  1  0  0  0  0
 24 27  1  0  0  0  0
 24 23  2  0  0  0  0
 25 26  1  0  0  0  0
 25 24  1  0  0  0  0
 28 27  1  0  0  0  0
M  END
>  <minimizedAffinity>
-4.3336277

$$$$

 OpenBabel03272507243D

 28 29  0  0  1  0  0  0  0  0999 V2000
   35.8660   22.3720   31.2920 C   0  0  0  0  0  0  0  0  0  0  0  0
   35.6580   23.7520   31.5220 C   0  0  0  0  0  0  0  0  0  0  0  0
   36.7740   24.5400   31.8020 C   0  0  0  0  0  0  0  0  0  0  0  0
   38.0020   23.9500   31.8430 N   0  0  0  0  0  0  0  0  0  0  0  0
   38.1590   22.6260   31.6180 C   0  0  0  0  0  0  0  0  0  0  0  0
   37.0960   21.8470   31.3450 N   0  0  0  0  0  0  0  0  0  0  0  0
   36.6330   25.9360   32.0430 N   0  0  0  0  0  0  0  0  0  0  0  0
   35.6170   26.7830   31.4400 C   0  0  0  0  0  0  0  0  0  0  0  0
   35.9790   28.1850   31.8540 C   0  0  0  0  0  0  0  0  0  0  0  0
   37.4520   28.0600   32.1590 C   0  0  0  0  0  0  0  0  0  0  0  0
   37.4560   26.7390   32.9080 C   0  0  1  0  0  0  0  0  0  0  0  0
   35.0130   21.7480   31.0740 H   0  0  0  0  0  0  0  0  0  0  0  0
   34.6620   24.2050   31.4840 H   0  0  0  0  0  0  0  0  0  0  0  0
   39.2100   22.3310   31.6920 H   0  0  0  0  0  0  0  0  0  0  0  0
   34.6590   26.5290   31.9630 H   0  0  0  0  0  0  0  0  0  0  0  0
   35.5290   26.6450   30.3430 H   0  0  0  0  0  0  0  0  0  0  0  0
   35.9080   28.8420   30.9560 H   0  0  0  0  0  0  0  0  0  0  0  0
   35.3920   28.5910   32.6770 H   0  0  0  0  0  0  0  0  0  0  0  0
   37.7380   28.8600   32.8710 H   0  0  0  0  0  0  0  0  0  0  0  0
   38.0440   28.0010   31.2490 H   0  0  0  0  0  0  0  0  0  0  0  0
   38.4650   26.2570   32.9230 H   0  0  0  0  0  0  0  0  0  0  0  0
   36.9480   26.8680   34.1800 O   0  0  0  0  0  0  0  0  0  0  0  0
   37.6130   25.3030   36.1930 O   0  0  0  0  0  0  0  0  0  0  0  0
   38.1800   26.3190   35.2290 P   0  0  0  0  0  0  0  0  0  0  0  0
   38.8160   27.5820   36.1540 O   0  0  0  0  0  0  0  0  0  0  0  0
   39.2090   27.1690   36.9640 H   0  0  0  0  0  0  0  0  0  0  0  0
   39.4170   25.6880   34.2680 O   0  0  0  0  0  0  0  0  0  0  0  0
   40.3110   25.9430   34.6300 H   0  0  0  0  0  0  0  0  0  0  0  0
  1  6  2  0  0  0  0
  1  2  1  0  0  0  0
  2  3  2  0  0  0  0
  3  4  1  0  0  0  0
  3  7  1  0  0  0  0
  5 14  1  0  0  0  0
  5  4  2  0  0  0  0
  6  5  1  0  0  0  0
  7 11  1  0  0  0  0
  8  9  1  0  0  0  0
  8 15  1  0  0  0  0
  8  7  1  0  0  0  0
  9 10  1  0  0  0  0
  9 18  1  0  0  0  0
 10 19  1  0  0  0  0
 10 11  1  0  0  0  0
 11 21  1  1  0  0  0
 11 22  1  0  0  0  0
 12  1  1  0  0  0  0
 13  2  1  0  0  0  0
 16  8  1  0  0  0  0
 17  9  1  0  0  0  0
 20 10  1  0  0  0  0
 22 24  1  0  0  0  0
 24 25  1  0  0  0  0
 24 23  2  0  0  0  0
 25 26  1  0  0  0  0
 27 28  1  0  0  0  0
 27 24  1  0  0  0  0
M  END
>  <minimizedAffinity>
-4.28366566

$$$$

 OpenBabel03272507243D

 28 29  0  0  1  0  0  0  0  0999 V2000
   35.8000   24.7910   31.5070 C   0  0  0  0  0  0  0  0  0  0  0  0
   36.6810   25.4300   32.4100 C   0  0  0  0  0  0  0  0  0  0  0  0
   37.7340   24.6800   32.9310 C   0  0  0  0  0  0  0  0  0  0  0  0
   37.8650   23.3770   32.5520 N   0  0  0  0  0  0  0  0  0  0  0  0
   37.0000   22.8020   31.6860 C   0  0  0  0  0  0  0  0  0  0  0  0
   35.9770   23.5070   31.1700 N   0  0  0  0  0  0  0  0  0  0  0  0
   38.6570   25.2640   33.8450 N   0  0  0  0  0  0  0  0  0  0  0  0
   39.0500   26.6630   33.8460 C   0  0  0  0  0  0  0  0  0  0  0  0
   40.1570   26.7590   34.8610 C   0  0  0  0  0  0  0  0  0  0  0  0
   40.6680   25.3400   34.9160 C   0  0  0  0  0  0  0  0  0  0  0  0
   39.3500   24.5840   34.9080 C   0  0  1  0  0  0  0  0  0  0  0  0
   34.9790   25.3570   31.0940 H   0  0  0  0  0  0  0  0  0  0  0  0
   36.5560   26.4780   32.7010 H   0  0  0  0  0  0  0  0  0  0  0  0
   37.2610   21.7560   31.4990 H   0  0  0  0  0  0  0  0  0  0  0  0
   38.1760   27.2250   34.2670 H   0  0  0  0  0  0  0  0  0  0  0  0
   39.3270   27.0390   32.8390 H   0  0  0  0  0  0  0  0  0  0  0  0
   40.9830   27.3630   34.4200 H   0  0  0  0  0  0  0  0  0  0  0  0
   39.8620   27.1590   35.8310 H   0  0  0  0  0  0  0  0  0  0  0  0
   41.1530   25.1730   35.8990 H   0  0  0  0  0  0  0  0  0  0  0  0
   41.2680   25.0970   34.0430 H   0  0  0  0  0  0  0  0  0  0  0  0
   39.4670   23.5210   34.5810 H   0  0  0  0  0  0  0  0  0  0  0  0
   38.7030   24.6640   36.1200 O   0  0  0  0  0  0  0  0  0  0  0  0
   37.0240   22.9260   37.1700 O   0  0  0  0  0  0  0  0  0  0  0  0
   38.4170   23.0490   36.5990 P   0  0  0  0  0  0  0  0  0  0  0  0
   39.4940   22.5600   37.8070 O   0  0  0  0  0  0  0  0  0  0  0  0
   39.0560   21.8150   38.2910 H   0  0  0  0  0  0  0  0  0  0  0  0
   38.6570   22.0700   35.2440 O   0  0  0  0  0  0  0  0  0  0  0  0
   39.1330   21.2300   35.4950 H   0  0  0  0  0  0  0  0  0  0  0  0
  1  2  1  0  0  0  0
  2 13  1  0  0  0  0
  2  3  2  0  0  0  0
  3  7  1  0  0  0  0
  4  3  1  0  0  0  0
  5  4  2  0  0  0  0
  6  1  2  0  0  0  0
  6  5  1  0  0  0  0
  7  8  1  0  0  0  0
  7 11  1  0  0  0  0
  8 15  1  0  0  0  0
  8  9  1  0  0  0  0
  9 10  1  0  0  0  0
  9 18  1  0  0  0  0
 10 19  1  0  0  0  0
 11 21  1  6  0  0  0
 11 10  1  0  0  0  0
 11 22  1  0  0  0  0
 12  1  1  0  0  0  0
 14  5  1  0  0  0  0
 16  8  1  0  0  0  0
 17  9  1  0  0  0  0
 20 10  1  0  0  0  0
 22 24  1  0  0  0  0
 24 23  2  0  0  0  0
 24 25  1  0  0  0  0
 25 26  1  0  0  0  0
 27 28  1  0  0  0  0
 27 24  1  0  0  0  0
M  END
>  <minimizedAffinity>
-4.26778316

$$$$

 OpenBabel03272507243D

 28 29  0  0  1  0  0  0  0  0999 V2000
   35.6140   23.1230   31.6360 C   0  0  0  0  0  0  0  0  0  0  0  0
   36.2340   24.3780   31.4370 C   0  0  0  0  0  0  0  0  0  0  0  0
   37.5320   24.5450   31.9190 C   0  0  0  0  0  0  0  0  0  0  0  0
   38.1370   23.5020   32.5550 N   0  0  0  0  0  0  0  0  0  0  0  0
   37.5080   22.3170   32.7260 C   0  0  0  0  0  0  0  0  0  0  0  0
   36.2570   22.1330   32.2690 N   0  0  0  0  0  0  0  0  0  0  0  0
   38.2130   25.7840   31.7520 N   0  0  0  0  0  0  0  0  0  0  0  0
   38.0230   26.6890   30.6310 C   0  0  0  0  0  0  0  0  0  0  0  0
   39.0720   27.7550   30.8050 C   0  0  0  0  0  0  0  0  0  0  0  0
   40.1020   27.0560   31.6590 C   0  0  0  0  0  0  0  0  0  0  0  0
   39.1910   26.3470   32.6460 C   0  0  1  0  0  0  0  0  0  0  0  0
   34.6090   22.9760   31.2690 H   0  0  0  0  0  0  0  0  0  0  0  0
   35.7290   25.2020   30.9240 H   0  0  0  0  0  0  0  0  0  0  0  0
   38.1450   21.6010   33.2550 H   0  0  0  0  0  0  0  0  0  0  0  0
   37.0310   27.1820   30.8010 H   0  0  0  0  0  0  0  0  0  0  0  0
   38.0580   26.1780   29.6470 H   0  0  0  0  0  0  0  0  0  0  0  0
   39.5610   27.9270   29.8180 H   0  0  0  0  0  0  0  0  0  0  0  0
   38.7140   28.6930   31.2270 H   0  0  0  0  0  0  0  0  0  0  0  0
   40.6820   27.8190   32.2150 H   0  0  0  0  0  0  0  0  0  0  0  0
   40.6860   26.3460   31.0790 H   0  0  0  0  0  0  0  0  0  0  0  0
   39.6920   25.4850   33.1510 H   0  0  0  0  0  0  0  0  0  0  0  0
   38.6520   27.2170   33.5660 O   0  0  0  0  0  0  0  0  0  0  0  0
   38.7580   25.3330   35.4040 O   0  0  0  0  0  0  0  0  0  0  0  0
   39.2600   26.7210   35.0840 P   0  0  0  0  0  0  0  0  0  0  0  0
   38.7350   27.7400   36.3260 O   0  0  0  0  0  0  0  0  0  0  0  0
   38.7810   27.2120   37.1620 H   0  0  0  0  0  0  0  0  0  0  0  0
   40.9450   26.8040   35.0040 O   0  0  0  0  0  0  0  0  0  0  0  0
   41.3220   27.1650   35.8550 H   0  0  0  0  0  0  0  0  0  0  0  0
  1  6  1  0  0  0  0
  2  1  2  0  0  0  0
  2  3  1  0  0  0  0
  3  4  2  0  0  0  0
  4  5  1  0  0  0  0
  5 14  1  0  0  0  0
  6  5  2  0  0  0  0
  7  3  1  0  0  0  0
  7 11  1  0  0  0  0
  8 15  1  0  0  0  0
  8  9  1  0  0  0  0
  8  7  1  0  0  0  0
  9 18  1  0  0  0  0
  9 10  1  0  0  0  0
 10 19  1  0  0  0  0
 10 11  1  0  0  0  0
 11 21  1  1  0  0  0
 11 22  1  0  0  0  0
 12  1  1  0  0  0  0
 13  2  1  0  0  0  0
 16  8  1  0  0  0  0
 17  9  1  0  0  0  0
 20 10  1  0  0  0  0
 22 24  1  0  0  0  0
 24 23  2  0  0  0  0
 24 25  1  0  0  0  0
 25 26  1  0  0  0  0
 27 24  1  0  0  0  0
 27 28  1  0  0  0  0
M  END
>  <minimizedAffinity>
-4.23403358

$$$$

 OpenBabel03272507243D

 28 29  0  0  1  0  0  0  0  0999 V2000
   37.7400   22.7170   31.8570 C   0  0  0  0  0  0  0  0  0  0  0  0
   37.9850   23.8910   32.6050 C   0  0  0  0  0  0  0  0  0  0  0  0
   37.0220   24.8990   32.5660 C   0  0  0  0  0  0  0  0  0  0  0  0
   35.9000   24.7090   31.8140 N   0  0  0  0  0  0  0  0  0  0  0  0
   35.7050   23.5700   31.1110 C   0  0  0  0  0  0  0  0  0  0  0  0
   36.6200   22.5850   31.1350 N   0  0  0  0  0  0  0  0  0  0  0  0
   37.2060   26.1060   33.2980 N   0  0  0  0  0  0  0  0  0  0  0  0
   37.9240   26.2120   34.5570 C   0  0  0  0  0  0  0  0  0  0  0  0
   37.7000   27.6260   35.0200 C   0  0  0  0  0  0  0  0  0  0  0  0
   36.4320   28.0060   34.2930 C   0  0  0  0  0  0  0  0  0  0  0  0
   36.7230   27.4100   32.9260 C   0  0  1  0  0  0  0  0  0  0  0  0
   38.4760   21.9270   31.8760 H   0  0  0  0  0  0  0  0  0  0  0  0
   38.8930   24.0230   33.2020 H   0  0  0  0  0  0  0  0  0  0  0  0
   34.7540   23.5950   30.5700 H   0  0  0  0  0  0  0  0  0  0  0  0
   39.0110   26.1260   34.2960 H   0  0  0  0  0  0  0  0  0  0  0  0
   37.6230   25.4410   35.2960 H   0  0  0  0  0  0  0  0  0  0  0  0
   37.4350   27.6010   36.1020 H   0  0  0  0  0  0  0  0  0  0  0  0
   38.5300   28.3090   34.8420 H   0  0  0  0  0  0  0  0  0  0  0  0
   36.3980   29.1080   34.1870 H   0  0  0  0  0  0  0  0  0  0  0  0
   35.5590   27.5450   34.7470 H   0  0  0  0  0  0  0  0  0  0  0  0
   35.7950   27.2460   32.3230 H   0  0  0  0  0  0  0  0  0  0  0  0
   37.6450   28.1550   32.2260 O   0  0  0  0  0  0  0  0  0  0  0  0
   35.7860   29.5330   30.9660 O   0  0  0  0  0  0  0  0  0  0  0  0
   36.8970   28.5360   30.7370 P   0  0  0  0  0  0  0  0  0  0  0  0
   36.2020   27.1700   30.0250 O   0  0  0  0  0  0  0  0  0  0  0  0
   35.4920   27.5000   29.4170 H   0  0  0  0  0  0  0  0  0  0  0  0
   38.0980   29.1220   29.7050 O   0  0  0  0  0  0  0  0  0  0  0  0
   37.9700   28.7720   28.7790 H   0  0  0  0  0  0  0  0  0  0  0  0
  1 12  1  0  0  0  0
  1  2  1  0  0  0  0
  2 13  1  0  0  0  0
  3  2  2  0  0  0  0
  3  7  1  0  0  0  0
  4  3  1  0  0  0  0
  5  6  1  0  0  0  0
  5  4  2  0  0  0  0
  6  1  2  0  0  0  0
  7  8  1  0  0  0  0
  8  9  1  0  0  0  0
  8 16  1  0  0  0  0
  9 17  1  0  0  0  0
 10 20  1  0  0  0  0
 10  9  1  0  0  0  0
 11 21  1  6  0  0  0
 11  7  1  0  0  0  0
 11 10  1  0  0  0  0
 14  5  1  0  0  0  0
 15  8  1  0  0  0  0
 18  9  1  0  0  0  0
 19 10  1  0  0  0  0
 22 11  1  0  0  0  0
 24 23  2  0  0  0  0
 24 22  1  0  0  0  0
 25 24  1  0  0  0  0
 26 25  1  0  0  0  0
 27 24  1  0  0  0  0
 28 27  1  0  0  0  0
M  END
>  <minimizedAffinity>
-4.2289238

$$$$

 OpenBabel03272507243D

 28 29  0  0  1  0  0  0  0  0999 V2000
   39.9630   22.7210   37.7130 C   0  0  0  0  0  0  0  0  0  0  0  0
   39.9540   22.5000   36.3160 C   0  0  0  0  0  0  0  0  0  0  0  0
   38.7840   22.8020   35.6180 C   0  0  0  0  0  0  0  0  0  0  0  0
   37.7140   23.2890   36.3070 N   0  0  0  0  0  0  0  0  0  0  0  0
   37.7630   23.4850   37.6440 C   0  0  0  0  0  0  0  0  0  0  0  0
   38.8810   23.2020   38.3380 N   0  0  0  0  0  0  0  0  0  0  0  0
   38.7100   22.6030   34.2110 N   0  0  0  0  0  0  0  0  0  0  0  0
   39.8310   22.7260   33.2940 C   0  0  0  0  0  0  0  0  0  0  0  0
   39.2310   22.6010   31.9200 C   0  0  0  0  0  0  0  0  0  0  0  0
   37.7920   22.9910   32.1600 C   0  0  0  0  0  0  0  0  0  0  0  0
   37.5320   22.2520   33.4610 C   0  0  1  0  0  0  0  0  0  0  0  0
   40.8600   22.4930   38.2680 H   0  0  0  0  0  0  0  0  0  0  0  0
   40.8250   22.1080   35.7830 H   0  0  0  0  0  0  0  0  0  0  0  0
   36.8160   23.8800   38.0230 H   0  0  0  0  0  0  0  0  0  0  0  0
   40.4590   21.8120   33.4570 H   0  0  0  0  0  0  0  0  0  0  0  0
   40.4200   23.6540   33.4480 H   0  0  0  0  0  0  0  0  0  0  0  0
   39.6610   23.4050   31.2770 H   0  0  0  0  0  0  0  0  0  0  0  0
   39.3500   21.6250   31.4490 H   0  0  0  0  0  0  0  0  0  0  0  0
   37.1620   22.5320   31.3720 H   0  0  0  0  0  0  0  0  0  0  0  0
   37.6860   24.0650   32.2870 H   0  0  0  0  0  0  0  0  0  0  0  0
   36.6610   22.6690   34.0250 H   0  0  0  0  0  0  0  0  0  0  0  0
   37.3940   20.8970   33.2640 O   0  0  0  0  0  0  0  0  0  0  0  0
   35.4870   20.8030   35.0790 O   0  0  0  0  0  0  0  0  0  0  0  0
   35.7600   20.5410   33.6170 P   0  0  0  0  0  0  0  0  0  0  0  0
   35.4020   18.9150   33.3270 O   0  0  0  0  0  0  0  0  0  0  0  0
   34.6160   18.6950   33.8880 H   0  0  0  0  0  0  0  0  0  0  0  0
   34.8060   21.4870   32.5940 O   0  0  0  0  0  0  0  0  0  0  0  0
   34.0250   20.9650   32.2560 H   0  0  0  0  0  0  0  0  0  0  0  0
  1 12  1  0  0  0  0
  1  6  1  0  0  0  0
  2  1  2  0  0  0  0
  3  4  2  0  0  0  0
  3  2  1  0  0  0  0
  4  5  1  0  0  0  0
  5 14  1  0  0  0  0
  5  6  2  0  0  0  0
  7  3  1  0  0  0  0
  8 16  1  0  0  0  0
  8 15  1  0  0  0  0
  8  7  1  0  0  0  0
  9 10  1  0  0  0  0
  9  8  1  0  0  0  0
 10 20  1  0  0  0  0
 10 11  1  0  0  0  0
 11 21  1  1  0  0  0
 11  7  1  0  0  0  0
 13  2  1  0  0  0  0
 17  9  1  0  0  0  0
 18  9  1  0  0  0  0
 19 10  1  0  0  0  0
 22 11  1  0  0  0  0
 22 24  1  0  0  0  0
 24 23  2  0  0  0  0
 25 24  1  0  0  0  0
 25 26  1  0  0  0  0
 27 24  1  0  0  0  0
 28 27  1  0  0  0  0
M  END
>  <minimizedAffinity>
-4.21339798

$$$$
