
 OpenBabel03272509003D

 29 30  0  0  0  0  0  0  0  0999 V2000
   38.3250   31.6130   47.5830 Cl  0  0  0  0  0  0  0  0  0  0  0  0
   36.9560   30.8100   46.8490 C   0  0  0  0  0  0  0  0  0  0  0  0
   36.9060   30.6700   45.4690 C   0  0  0  0  0  0  0  0  0  0  0  0
   35.8600   30.0570   44.8640 C   0  0  0  0  0  0  0  0  0  0  0  0
   34.8100   29.5490   45.5950 C   0  0  0  0  0  0  0  0  0  0  0  0
   34.8220   29.6670   46.9580 C   0  0  0  0  0  0  0  0  0  0  0  0
   33.5650   29.0790   48.0260 Cl  0  0  0  0  0  0  0  0  0  0  0  0
   35.8950   30.2960   47.5510 C   0  0  0  0  0  0  0  0  0  0  0  0
   35.8310   29.9520   43.7790 H   0  0  0  0  0  0  0  0  0  0  0  0
   33.9680   29.0580   45.1510 H   0  0  0  0  0  0  0  0  0  0  0  0
   39.0110   32.8970   43.4550 C   0  0  0  0  0  0  0  0  0  0  0  0
   40.1240   32.1200   43.1620 C   0  0  0  0  0  0  0  0  0  0  0  0
   40.1400   30.8080   43.6700 C   0  0  0  0  0  0  0  0  0  0  0  0
   39.0730   30.4050   44.4030 N   0  0  0  0  0  0  0  0  0  0  0  0
   37.9960   31.1960   44.6720 C   0  0  0  0  0  0  0  0  0  0  0  0
   37.9950   32.4320   44.1860 N   0  0  0  0  0  0  0  0  0  0  0  0
   39.0190   33.9150   43.0500 H   0  0  0  0  0  0  0  0  0  0  0  0
   40.9820   32.4210   42.5790 H   0  0  0  0  0  0  0  0  0  0  0  0
   40.9490   30.1130   43.5070 H   0  0  0  0  0  0  0  0  0  0  0  0
   35.9660   30.4540   49.0580 C   0  0  0  0  0  0  0  0  0  0  0  0
   36.5810   31.3420   49.2960 H   0  0  0  0  0  0  0  0  0  0  0  0
   34.9400   30.5150   49.4830 H   0  0  0  0  0  0  0  0  0  0  0  0
   36.6370   29.3200   49.4960 O   0  0  0  0  0  0  0  0  0  0  0  0
   36.6420   29.8730   52.0050 O   0  0  0  0  0  0  0  0  0  0  0  0
   37.5870   29.5710   50.8500 P   0  0  0  0  0  0  0  0  0  0  0  0
   38.7380   30.7620   50.6660 O   0  0  0  0  0  0  0  0  0  0  0  0
   38.3810   31.5600   50.2540 H   0  0  0  0  0  0  0  0  0  0  0  0
   38.3290   28.0850   51.2310 O   0  0  0  0  0  0  0  0  0  0  0  0
   38.1140   27.3760   50.5710 H   0  0  0  0  0  0  0  0  0  0  0  0
  2  8  1  0  0  0  0
  2  1  1  0  0  0  0
  3  2  2  0  0  0  0
  4  3  1  0  0  0  0
  4  5  2  0  0  0  0
  5  6  1  0  0  0  0
  6  8  2  0  0  0  0
  6  7  1  0  0  0  0
  8 20  1  0  0  0  0
  9  4  1  0  0  0  0
 10  5  1  0  0  0  0
 11 16  1  0  0  0  0
 12 11  2  0  0  0  0
 12 13  1  0  0  0  0
 13 14  2  0  0  0  0
 14 15  1  0  0  0  0
 15  3  1  0  0  0  0
 16 15  2  0  0  0  0
 17 11  1  0  0  0  0
 18 12  1  0  0  0  0
 19 13  1  0  0  0  0
 20 21  1  0  0  0  0
 20 22  1  0  0  0  0
 20 23  1  0  0  0  0
 23 25  1  0  0  0  0
 25 28  1  0  0  0  0
 25 24  2  0  0  0  0
 26 25  1  0  0  0  0
 27 26  1  0  0  0  0
 29 28  1  0  0  0  0
M  END
>  <minimizedAffinity>
-5.17933369

>  <minimizedRMSD>
2.22003508

$$$$
