
 OpenBabel03272509013D

 29 30  0  0  0  0  0  0  0  0999 V2000
   38.1580   23.2730   33.2750 Cl  0  0  0  0  0  0  0  0  0  0  0  0
   36.9820   24.1930   32.3640 C   0  0  0  0  0  0  0  0  0  0  0  0
   35.9850   23.5260   31.6650 C   0  0  0  0  0  0  0  0  0  0  0  0
   35.0590   24.2040   30.9470 C   0  0  0  0  0  0  0  0  0  0  0  0
   35.0700   25.5800   30.8840 C   0  0  0  0  0  0  0  0  0  0  0  0
   36.0370   26.2740   31.5600 C   0  0  0  0  0  0  0  0  0  0  0  0
   36.1890   28.0180   31.5770 Cl  0  0  0  0  0  0  0  0  0  0  0  0
   36.9690   25.5630   32.2830 C   0  0  0  0  0  0  0  0  0  0  0  0
   34.2800   23.6700   30.4010 H   0  0  0  0  0  0  0  0  0  0  0  0
   34.3540   26.1480   30.3270 H   0  0  0  0  0  0  0  0  0  0  0  0
   35.2060   20.0740   32.6300 C   0  0  0  0  0  0  0  0  0  0  0  0
   35.9310   19.3100   31.7260 C   0  0  0  0  0  0  0  0  0  0  0  0
   36.6980   20.0030   30.7720 C   0  0  0  0  0  0  0  0  0  0  0  0
   36.6710   21.3580   30.8090 N   0  0  0  0  0  0  0  0  0  0  0  0
   35.9480   22.0770   31.7110 C   0  0  0  0  0  0  0  0  0  0  0  0
   35.2280   21.4100   32.6060 N   0  0  0  0  0  0  0  0  0  0  0  0
   34.6160   19.5160   33.3640 H   0  0  0  0  0  0  0  0  0  0  0  0
   35.9670   18.2310   31.6810 H   0  0  0  0  0  0  0  0  0  0  0  0
   37.3010   19.5170   30.0210 H   0  0  0  0  0  0  0  0  0  0  0  0
   38.0620   26.2780   33.0540 C   0  0  0  0  0  0  0  0  0  0  0  0
   38.9090   25.5820   33.2030 H   0  0  0  0  0  0  0  0  0  0  0  0
   38.3580   27.2070   32.5210 H   0  0  0  0  0  0  0  0  0  0  0  0
   37.4930   26.5530   34.2900 O   0  0  0  0  0  0  0  0  0  0  0  0
   39.8880   25.9640   35.0090 O   0  0  0  0  0  0  0  0  0  0  0  0
   38.5160   26.2850   35.5860 P   0  0  0  0  0  0  0  0  0  0  0  0
   37.9950   25.1000   36.6360 O   0  0  0  0  0  0  0  0  0  0  0  0
   37.6910   24.3070   36.1740 H   0  0  0  0  0  0  0  0  0  0  0  0
   38.6910   27.7680   36.4080 O   0  0  0  0  0  0  0  0  0  0  0  0
   38.1300   28.4850   36.0150 H   0  0  0  0  0  0  0  0  0  0  0  0
  2  1  1  0  0  0  0
  3 15  1  0  0  0  0
  3  2  2  0  0  0  0
  4  3  1  0  0  0  0
  5  4  2  0  0  0  0
  5  6  1  0  0  0  0
  6  7  1  0  0  0  0
  6  8  2  0  0  0  0
  8  2  1  0  0  0  0
  8 20  1  0  0  0  0
  9  4  1  0  0  0  0
 10  5  1  0  0  0  0
 11 17  1  0  0  0  0
 12 11  2  0  0  0  0
 13 14  2  0  0  0  0
 13 12  1  0  0  0  0
 14 15  1  0  0  0  0
 15 16  2  0  0  0  0
 16 11  1  0  0  0  0
 18 12  1  0  0  0  0
 19 13  1  0  0  0  0
 20 21  1  0  0  0  0
 20 23  1  0  0  0  0
 22 20  1  0  0  0  0
 23 25  1  0  0  0  0
 24 25  2  0  0  0  0
 25 28  1  0  0  0  0
 25 26  1  0  0  0  0
 27 26  1  0  0  0  0
 29 28  1  0  0  0  0
M  END
>  <minimizedAffinity>
-5.11342955

$$$$

 OpenBabel03272509013D

 29 30  0  0  0  0  0  0  0  0999 V2000
   38.1730   27.2790   35.1010 Cl  0  0  0  0  0  0  0  0  0  0  0  0
   37.8860   25.8400   34.1490 C   0  0  0  0  0  0  0  0  0  0  0  0
   37.2830   25.9540   32.9040 C   0  0  0  0  0  0  0  0  0  0  0  0
   37.0420   24.8610   32.1390 C   0  0  0  0  0  0  0  0  0  0  0  0
   37.3880   23.5990   32.5670 C   0  0  0  0  0  0  0  0  0  0  0  0
   37.9840   23.4450   33.7890 C   0  0  0  0  0  0  0  0  0  0  0  0
   38.4790   21.9130   34.4770 Cl  0  0  0  0  0  0  0  0  0  0  0  0
   38.2180   24.5700   34.5500 C   0  0  0  0  0  0  0  0  0  0  0  0
   36.5670   24.9620   31.1620 H   0  0  0  0  0  0  0  0  0  0  0  0
   37.2130   22.7150   31.9900 H   0  0  0  0  0  0  0  0  0  0  0  0
   35.5420   29.1520   32.4650 C   0  0  0  0  0  0  0  0  0  0  0  0
   36.2600   29.7800   31.4560 C   0  0  0  0  0  0  0  0  0  0  0  0
   37.3600   29.0830   30.9240 C   0  0  0  0  0  0  0  0  0  0  0  0
   37.6330   27.8560   31.4350 N   0  0  0  0  0  0  0  0  0  0  0  0
   36.9060   27.2690   32.4260 C   0  0  0  0  0  0  0  0  0  0  0  0
   35.8710   27.9390   32.9200 N   0  0  0  0  0  0  0  0  0  0  0  0
   34.6910   29.7110   32.8660 H   0  0  0  0  0  0  0  0  0  0  0  0
   36.0590   30.7540   31.0360 H   0  0  0  0  0  0  0  0  0  0  0  0
   37.9910   29.4680   30.1380 H   0  0  0  0  0  0  0  0  0  0  0  0
   38.8790   24.4630   35.9110 C   0  0  0  0  0  0  0  0  0  0  0  0
   39.5680   23.5980   35.9070 H   0  0  0  0  0  0  0  0  0  0  0  0
   39.3880   25.4180   36.1630 H   0  0  0  0  0  0  0  0  0  0  0  0
   37.8330   24.1920   36.7840 O   0  0  0  0  0  0  0  0  0  0  0  0
   38.3780   24.5040   39.2760 O   0  0  0  0  0  0  0  0  0  0  0  0
   38.3060   23.4310   38.1970 P   0  0  0  0  0  0  0  0  0  0  0  0
   39.7350   22.5830   38.0730 O   0  0  0  0  0  0  0  0  0  0  0  0
   40.4250   23.0880   37.6210 H   0  0  0  0  0  0  0  0  0  0  0  0
   37.0390   22.3900   38.6600 O   0  0  0  0  0  0  0  0  0  0  0  0
   36.2970   22.3810   38.0010 H   0  0  0  0  0  0  0  0  0  0  0  0
  2  8  1  0  0  0  0
  2  1  1  0  0  0  0
  3  2  2  0  0  0  0
  4  5  2  0  0  0  0
  4  3  1  0  0  0  0
  5  6  1  0  0  0  0
  6  7  1  0  0  0  0
  6  8  2  0  0  0  0
  8 20  1  0  0  0  0
  9  4  1  0  0  0  0
 10  5  1  0  0  0  0
 11 17  1  0  0  0  0
 11 16  1  0  0  0  0
 12 11  2  0  0  0  0
 13 14  2  0  0  0  0
 13 12  1  0  0  0  0
 14 15  1  0  0  0  0
 15  3  1  0  0  0  0
 15 16  2  0  0  0  0
 18 12  1  0  0  0  0
 19 13  1  0  0  0  0
 20 22  1  0  0  0  0
 20 23  1  0  0  0  0
 21 20  1  0  0  0  0
 23 25  1  0  0  0  0
 25 28  1  0  0  0  0
 25 24  2  0  0  0  0
 26 25  1  0  0  0  0
 27 26  1  0  0  0  0
 29 28  1  0  0  0  0
M  END
>  <minimizedAffinity>
-5.03794956

$$$$

 OpenBabel03272509013D

 29 30  0  0  0  0  0  0  0  0999 V2000
   36.4160   28.1020   34.8130 Cl  0  0  0  0  0  0  0  0  0  0  0  0
   36.2040   28.9430   33.2940 C   0  0  0  0  0  0  0  0  0  0  0  0
   35.5440   30.1640   33.2760 C   0  0  0  0  0  0  0  0  0  0  0  0
   35.3590   30.8430   32.1190 C   0  0  0  0  0  0  0  0  0  0  0  0
   35.8190   30.3490   30.9190 C   0  0  0  0  0  0  0  0  0  0  0  0
   36.4750   29.1480   30.8950 C   0  0  0  0  0  0  0  0  0  0  0  0
   37.1140   28.3840   29.4550 Cl  0  0  0  0  0  0  0  0  0  0  0  0
   36.6500   28.4740   32.0840 C   0  0  0  0  0  0  0  0  0  0  0  0
   34.8390   31.8020   32.1160 H   0  0  0  0  0  0  0  0  0  0  0  0
   35.6900   30.8580   29.9860 H   0  0  0  0  0  0  0  0  0  0  0  0
   35.3190   31.9560   36.4680 C   0  0  0  0  0  0  0  0  0  0  0  0
   34.0180   31.7150   36.8870 C   0  0  0  0  0  0  0  0  0  0  0  0
   33.2120   30.9220   36.0520 C   0  0  0  0  0  0  0  0  0  0  0  0
   33.7650   30.4540   34.9050 N   0  0  0  0  0  0  0  0  0  0  0  0
   35.0480   30.7100   34.5240 C   0  0  0  0  0  0  0  0  0  0  0  0
   35.7970   31.4610   35.3230 N   0  0  0  0  0  0  0  0  0  0  0  0
   35.9290   32.5760   37.1330 H   0  0  0  0  0  0  0  0  0  0  0  0
   33.5590   32.0770   37.7960 H   0  0  0  0  0  0  0  0  0  0  0  0
   32.1870   30.6670   36.2730 H   0  0  0  0  0  0  0  0  0  0  0  0
   37.3720   27.1410   32.1210 C   0  0  0  0  0  0  0  0  0  0  0  0
   37.8050   26.9400   31.1230 H   0  0  0  0  0  0  0  0  0  0  0  0
   38.1340   27.1420   32.9290 H   0  0  0  0  0  0  0  0  0  0  0  0
   36.3690   26.2100   32.3620 O   0  0  0  0  0  0  0  0  0  0  0  0
   35.6180   23.8280   31.7600 O   0  0  0  0  0  0  0  0  0  0  0  0
   36.1530   25.1050   31.1250 P   0  0  0  0  0  0  0  0  0  0  0  0
   37.5220   24.8170   30.2190 O   0  0  0  0  0  0  0  0  0  0  0  0
   38.3060   24.6800   30.7680 H   0  0  0  0  0  0  0  0  0  0  0  0
   34.8990   25.6930   30.1330 O   0  0  0  0  0  0  0  0  0  0  0  0
   34.5720   26.5830   30.4270 H   0  0  0  0  0  0  0  0  0  0  0  0
  2  1  1  0  0  0  0
  3  2  1  0  0  0  0
  3 15  1  0  0  0  0
  4  3  2  0  0  0  0
  5  4  1  0  0  0  0
  6  5  2  0  0  0  0
  6  8  1  0  0  0  0
  7  6  1  0  0  0  0
  8 20  1  0  0  0  0
  8  2  2  0  0  0  0
  9  4  1  0  0  0  0
 10  5  1  0  0  0  0
 11 12  1  0  0  0  0
 11 17  1  0  0  0  0
 12 18  1  0  0  0  0
 13 19  1  0  0  0  0
 13 12  2  0  0  0  0
 14 13  1  0  0  0  0
 15 14  2  0  0  0  0
 15 16  1  0  0  0  0
 16 11  2  0  0  0  0
 20 23  1  0  0  0  0
 20 22  1  0  0  0  0
 21 20  1  0  0  0  0
 25 24  2  0  0  0  0
 25 23  1  0  0  0  0
 26 27  1  0  0  0  0
 26 25  1  0  0  0  0
 28 29  1  0  0  0  0
 28 25  1  0  0  0  0
M  END
>  <minimizedAffinity>
-5.02304268

$$$$

 OpenBabel03272509013D

 29 30  0  0  0  0  0  0  0  0999 V2000
   37.8240   24.4050   33.6150 Cl  0  0  0  0  0  0  0  0  0  0  0  0
   39.3190   25.2860   33.8390 C   0  0  0  0  0  0  0  0  0  0  0  0
   39.4470   26.5600   33.3060 C   0  0  0  0  0  0  0  0  0  0  0  0
   40.5900   27.2710   33.4560 C   0  0  0  0  0  0  0  0  0  0  0  0
   41.6660   26.7570   34.1450 C   0  0  0  0  0  0  0  0  0  0  0  0
   41.5790   25.5030   34.6860 C   0  0  0  0  0  0  0  0  0  0  0  0
   42.8550   24.7080   35.5830 Cl  0  0  0  0  0  0  0  0  0  0  0  0
   40.4070   24.7980   34.5190 C   0  0  0  0  0  0  0  0  0  0  0  0
   40.6800   28.2730   33.0330 H   0  0  0  0  0  0  0  0  0  0  0  0
   42.5840   27.2900   34.2840 H   0  0  0  0  0  0  0  0  0  0  0  0
   37.1990   27.5900   30.5970 C   0  0  0  0  0  0  0  0  0  0  0  0
   36.1650   28.2390   31.2590 C   0  0  0  0  0  0  0  0  0  0  0  0
   36.2520   28.3190   32.6600 C   0  0  0  0  0  0  0  0  0  0  0  0
   37.3340   27.7590   33.2560 N   0  0  0  0  0  0  0  0  0  0  0  0
   38.3320   27.1290   32.5750 C   0  0  0  0  0  0  0  0  0  0  0  0
   38.2370   27.0600   31.2510 N   0  0  0  0  0  0  0  0  0  0  0  0
   37.1110   27.5380   29.5070 H   0  0  0  0  0  0  0  0  0  0  0  0
   35.2960   28.6920   30.8040 H   0  0  0  0  0  0  0  0  0  0  0  0
   35.5110   28.7980   33.2810 H   0  0  0  0  0  0  0  0  0  0  0  0
   40.2500   23.4050   35.0980 C   0  0  0  0  0  0  0  0  0  0  0  0
   39.2860   22.9830   34.7590 H   0  0  0  0  0  0  0  0  0  0  0  0
   41.1210   22.7750   34.8140 H   0  0  0  0  0  0  0  0  0  0  0  0
   40.1870   23.6050   36.4710 O   0  0  0  0  0  0  0  0  0  0  0  0
   37.7840   24.3530   36.9910 O   0  0  0  0  0  0  0  0  0  0  0  0
   38.7250   23.1670   37.1570 P   0  0  0  0  0  0  0  0  0  0  0  0
   38.8340   22.6830   38.7480 O   0  0  0  0  0  0  0  0  0  0  0  0
   39.3810   23.2790   39.2780 H   0  0  0  0  0  0  0  0  0  0  0  0
   38.0720   21.9160   36.2010 O   0  0  0  0  0  0  0  0  0  0  0  0
   38.6820   21.6440   35.4680 H   0  0  0  0  0  0  0  0  0  0  0  0
  1  2  1  0  0  0  0
  2  8  1  0  0  0  0
  3  4  1  0  0  0  0
  3  2  2  0  0  0  0
  4  5  2  0  0  0  0
  5 10  1  0  0  0  0
  5  6  1  0  0  0  0
  6  7  1  0  0  0  0
  8  6  2  0  0  0  0
  8 20  1  0  0  0  0
  9  4  1  0  0  0  0
 11 16  2  0  0  0  0
 11 12  1  0  0  0  0
 12 13  2  0  0  0  0
 13 14  1  0  0  0  0
 13 19  1  0  0  0  0
 15 14  2  0  0  0  0
 15  3  1  0  0  0  0
 16 15  1  0  0  0  0
 17 11  1  0  0  0  0
 18 12  1  0  0  0  0
 20 23  1  0  0  0  0
 21 20  1  0  0  0  0
 22 20  1  0  0  0  0
 23 25  1  0  0  0  0
 24 25  2  0  0  0  0
 25 26  1  0  0  0  0
 26 27  1  0  0  0  0
 28 25  1  0  0  0  0
 29 28  1  0  0  0  0
M  END
>  <minimizedAffinity>
-4.88749456

$$$$

 OpenBabel03272509013D

 29 30  0  0  0  0  0  0  0  0999 V2000
   38.9210   24.6600   34.0850 Cl  0  0  0  0  0  0  0  0  0  0  0  0
   37.8840   23.2690   33.8630 C   0  0  0  0  0  0  0  0  0  0  0  0
   37.6240   22.4320   34.9390 C   0  0  0  0  0  0  0  0  0  0  0  0
   36.8280   21.3440   34.8040 C   0  0  0  0  0  0  0  0  0  0  0  0
   36.2470   21.0280   33.5960 C   0  0  0  0  0  0  0  0  0  0  0  0
   36.4790   21.8290   32.5110 C   0  0  0  0  0  0  0  0  0  0  0  0
   35.8200   21.5630   30.9110 Cl  0  0  0  0  0  0  0  0  0  0  0  0
   37.2930   22.9300   32.6710 C   0  0  0  0  0  0  0  0  0  0  0  0
   36.6300   20.6920   35.6570 H   0  0  0  0  0  0  0  0  0  0  0  0
   35.6130   20.1780   33.4540 H   0  0  0  0  0  0  0  0  0  0  0  0
   39.9910   22.6600   37.7310 C   0  0  0  0  0  0  0  0  0  0  0  0
   39.2880   23.3650   38.6990 C   0  0  0  0  0  0  0  0  0  0  0  0
   37.9790   23.7630   38.3770 C   0  0  0  0  0  0  0  0  0  0  0  0
   37.5040   23.4300   37.1500 N   0  0  0  0  0  0  0  0  0  0  0  0
   38.2220   22.7370   36.2230 C   0  0  0  0  0  0  0  0  0  0  0  0
   39.4580   22.3670   36.5410 N   0  0  0  0  0  0  0  0  0  0  0  0
   41.0080   22.3590   38.0020 H   0  0  0  0  0  0  0  0  0  0  0  0
   39.6470   23.6380   39.6800 H   0  0  0  0  0  0  0  0  0  0  0  0
   37.3370   24.3140   39.0470 H   0  0  0  0  0  0  0  0  0  0  0  0
   37.5840   23.8550   31.5060 C   0  0  0  0  0  0  0  0  0  0  0  0
   38.6060   24.2630   31.6190 H   0  0  0  0  0  0  0  0  0  0  0  0
   37.4400   23.3140   30.5450 H   0  0  0  0  0  0  0  0  0  0  0  0
   36.6750   24.8950   31.6510 O   0  0  0  0  0  0  0  0  0  0  0  0
   37.7630   27.1690   32.1470 O   0  0  0  0  0  0  0  0  0  0  0  0
   37.1900   26.3470   31.0000 P   0  0  0  0  0  0  0  0  0  0  0  0
   36.0100   27.1820   30.1710 O   0  0  0  0  0  0  0  0  0  0  0  0
   35.1740   27.2160   30.6550 H   0  0  0  0  0  0  0  0  0  0  0  0
   38.5050   26.0030   29.9720 O   0  0  0  0  0  0  0  0  0  0  0  0
   38.6860   25.0300   29.9040 H   0  0  0  0  0  0  0  0  0  0  0  0
  2  1  1  0  0  0  0
  2  3  1  0  0  0  0
  3 15  1  0  0  0  0
  4  3  2  0  0  0  0
  4  9  1  0  0  0  0
  5  4  1  0  0  0  0
  6  8  1  0  0  0  0
  6  5  2  0  0  0  0
  7  6  1  0  0  0  0
  8  2  2  0  0  0  0
 10  5  1  0  0  0  0
 11 17  1  0  0  0  0
 11 12  1  0  0  0  0
 12 18  1  0  0  0  0
 13 12  2  0  0  0  0
 13 19  1  0  0  0  0
 14 13  1  0  0  0  0
 15 16  1  0  0  0  0
 15 14  2  0  0  0  0
 16 11  2  0  0  0  0
 20 21  1  0  0  0  0
 20 23  1  0  0  0  0
 20  8  1  0  0  0  0
 22 20  1  0  0  0  0
 25 23  1  0  0  0  0
 25 24  2  0  0  0  0
 26 27  1  0  0  0  0
 26 25  1  0  0  0  0
 28 25  1  0  0  0  0
 29 28  1  0  0  0  0
M  END
>  <minimizedAffinity>
-4.87955666

$$$$

 OpenBabel03272509013D

 29 30  0  0  0  0  0  0  0  0999 V2000
   38.3200   26.9160   33.3120 Cl  0  0  0  0  0  0  0  0  0  0  0  0
   37.2960   25.7180   32.5530 C   0  0  0  0  0  0  0  0  0  0  0  0
   36.2700   26.1290   31.7130 C   0  0  0  0  0  0  0  0  0  0  0  0
   35.4560   25.2300   31.1100 C   0  0  0  0  0  0  0  0  0  0  0  0
   35.6150   23.8770   31.3070 C   0  0  0  0  0  0  0  0  0  0  0  0
   36.6150   23.4310   32.1280 C   0  0  0  0  0  0  0  0  0  0  0  0
   36.9450   21.7480   32.4830 Cl  0  0  0  0  0  0  0  0  0  0  0  0
   37.4310   24.3640   32.7310 C   0  0  0  0  0  0  0  0  0  0  0  0
   34.6530   25.5640   30.4520 H   0  0  0  0  0  0  0  0  0  0  0  0
   34.9910   23.1390   30.8470 H   0  0  0  0  0  0  0  0  0  0  0  0
   35.1220   29.5980   32.0280 C   0  0  0  0  0  0  0  0  0  0  0  0
   35.7670   30.2520   30.9870 C   0  0  0  0  0  0  0  0  0  0  0  0
   36.6090   29.4780   30.1680 C   0  0  0  0  0  0  0  0  0  0  0  0
   36.7260   28.1580   30.4570 N   0  0  0  0  0  0  0  0  0  0  0  0
   36.0770   27.5470   31.4870 C   0  0  0  0  0  0  0  0  0  0  0  0
   35.2850   28.2910   32.2530 N   0  0  0  0  0  0  0  0  0  0  0  0
   34.4720   30.2180   32.6530 H   0  0  0  0  0  0  0  0  0  0  0  0
   35.6870   31.3000   30.7400 H   0  0  0  0  0  0  0  0  0  0  0  0
   37.1610   29.8750   29.3300 H   0  0  0  0  0  0  0  0  0  0  0  0
   38.5570   23.9300   33.6500 C   0  0  0  0  0  0  0  0  0  0  0  0
   38.7990   22.8710   33.4440 H   0  0  0  0  0  0  0  0  0  0  0  0
   39.4320   24.6040   33.5230 H   0  0  0  0  0  0  0  0  0  0  0  0
   38.0190   24.0210   34.9270 O   0  0  0  0  0  0  0  0  0  0  0  0
   39.6550   22.0840   35.3450 O   0  0  0  0  0  0  0  0  0  0  0  0
   38.4030   22.7320   35.9210 P   0  0  0  0  0  0  0  0  0  0  0  0
   37.1700   21.6280   36.1150 O   0  0  0  0  0  0  0  0  0  0  0  0
   36.7470   21.3960   35.2770 H   0  0  0  0  0  0  0  0  0  0  0  0
   38.8640   23.3750   37.4300 O   0  0  0  0  0  0  0  0  0  0  0  0
   38.7710   24.3630   37.4640 H   0  0  0  0  0  0  0  0  0  0  0  0
  2  8  1  0  0  0  0
  2  1  1  0  0  0  0
  3  2  2  0  0  0  0
  4  5  2  0  0  0  0
  4  3  1  0  0  0  0
  5  6  1  0  0  0  0
  6  7  1  0  0  0  0
  6  8  2  0  0  0  0
  8 20  1  0  0  0  0
  9  4  1  0  0  0  0
 10  5  1  0  0  0  0
 11 16  1  0  0  0  0
 11 17  1  0  0  0  0
 12 11  2  0  0  0  0
 13 14  2  0  0  0  0
 13 12  1  0  0  0  0
 14 15  1  0  0  0  0
 15  3  1  0  0  0  0
 15 16  2  0  0  0  0
 18 12  1  0  0  0  0
 19 13  1  0  0  0  0
 20 23  1  0  0  0  0
 21 20  1  0  0  0  0
 22 20  1  0  0  0  0
 23 25  1  0  0  0  0
 24 25  2  0  0  0  0
 25 26  1  0  0  0  0
 25 28  1  0  0  0  0
 27 26  1  0  0  0  0
 28 29  1  0  0  0  0
M  END
>  <minimizedAffinity>
-4.85996532

$$$$

 OpenBabel03272509013D

 29 30  0  0  0  0  0  0  0  0999 V2000
   38.4270   21.7590   34.3540 Cl  0  0  0  0  0  0  0  0  0  0  0  0
   37.9180   23.2880   33.6750 C   0  0  0  0  0  0  0  0  0  0  0  0
   37.0960   23.2990   32.5570 C   0  0  0  0  0  0  0  0  0  0  0  0
   36.6840   24.4640   32.0020 C   0  0  0  0  0  0  0  0  0  0  0  0
   37.0630   25.6800   32.5260 C   0  0  0  0  0  0  0  0  0  0  0  0
   37.8740   25.7110   33.6280 C   0  0  0  0  0  0  0  0  0  0  0  0
   38.4470   27.1690   34.4090 Cl  0  0  0  0  0  0  0  0  0  0  0  0
   38.2810   24.5130   34.1750 C   0  0  0  0  0  0  0  0  0  0  0  0
   36.0370   24.4610   31.1230 H   0  0  0  0  0  0  0  0  0  0  0  0
   36.7570   26.6190   32.1140 H   0  0  0  0  0  0  0  0  0  0  0  0
   35.1950   20.2550   31.8030 C   0  0  0  0  0  0  0  0  0  0  0  0
   35.9580   19.6260   30.8280 C   0  0  0  0  0  0  0  0  0  0  0  0
   37.1440   20.2670   30.4300 C   0  0  0  0  0  0  0  0  0  0  0  0
   37.4520   21.4460   31.0270 N   0  0  0  0  0  0  0  0  0  0  0  0
   36.6790   22.0360   31.9820 C   0  0  0  0  0  0  0  0  0  0  0  0
   35.5610   21.4190   32.3470 N   0  0  0  0  0  0  0  0  0  0  0  0
   34.2760   19.7390   32.0980 H   0  0  0  0  0  0  0  0  0  0  0  0
   35.7320   18.6880   30.3420 H   0  0  0  0  0  0  0  0  0  0  0  0
   37.8170   19.8750   29.6830 H   0  0  0  0  0  0  0  0  0  0  0  0
   39.1780   24.4850   35.3980 C   0  0  0  0  0  0  0  0  0  0  0  0
   39.6330   23.4800   35.4850 H   0  0  0  0  0  0  0  0  0  0  0  0
   39.9350   25.2960   35.3340 H   0  0  0  0  0  0  0  0  0  0  0  0
   38.3120   24.6720   36.4680 O   0  0  0  0  0  0  0  0  0  0  0  0
   38.2600   24.1530   38.9840 O   0  0  0  0  0  0  0  0  0  0  0  0
   38.3940   23.4710   37.6290 P   0  0  0  0  0  0  0  0  0  0  0  0
   39.7660   22.5300   37.5450 O   0  0  0  0  0  0  0  0  0  0  0  0
   40.5690   23.0580   37.4350 H   0  0  0  0  0  0  0  0  0  0  0  0
   37.0020   22.5040   37.4560 O   0  0  0  0  0  0  0  0  0  0  0  0
   36.4400   22.7840   36.6870 H   0  0  0  0  0  0  0  0  0  0  0  0
  2  8  1  0  0  0  0
  2  1  1  0  0  0  0
  3  2  2  0  0  0  0
  4  5  2  0  0  0  0
  4  3  1  0  0  0  0
  5  6  1  0  0  0  0
  6  8  2  0  0  0  0
  6  7  1  0  0  0  0
  8 20  1  0  0  0  0
  9  4  1  0  0  0  0
 10  5  1  0  0  0  0
 11 17  1  0  0  0  0
 11 16  1  0  0  0  0
 12 11  2  0  0  0  0
 13 12  1  0  0  0  0
 13 14  2  0  0  0  0
 14 15  1  0  0  0  0
 15 16  2  0  0  0  0
 15  3  1  0  0  0  0
 18 12  1  0  0  0  0
 19 13  1  0  0  0  0
 20 21  1  0  0  0  0
 20 23  1  0  0  0  0
 22 20  1  0  0  0  0
 23 25  1  0  0  0  0
 25 24  2  0  0  0  0
 26 25  1  0  0  0  0
 27 26  1  0  0  0  0
 28 25  1  0  0  0  0
 29 28  1  0  0  0  0
M  END
>  <minimizedAffinity>
-4.85455513

$$$$

 OpenBabel03272509013D

 29 30  0  0  0  0  0  0  0  0999 V2000
   37.6970   25.2530   32.9380 Cl  0  0  0  0  0  0  0  0  0  0  0  0
   39.2580   26.0160   33.1400 C   0  0  0  0  0  0  0  0  0  0  0  0
   39.9490   25.8530   34.3330 C   0  0  0  0  0  0  0  0  0  0  0  0
   41.1590   26.4310   34.5260 C   0  0  0  0  0  0  0  0  0  0  0  0
   41.7490   27.1990   33.5480 C   0  0  0  0  0  0  0  0  0  0  0  0
   41.0990   27.3830   32.3570 C   0  0  0  0  0  0  0  0  0  0  0  0
   41.7120   28.3320   31.0190 Cl  0  0  0  0  0  0  0  0  0  0  0  0
   39.8690   26.7870   32.1830 C   0  0  0  0  0  0  0  0  0  0  0  0
   41.6930   26.2970   35.4680 H   0  0  0  0  0  0  0  0  0  0  0  0
   42.7030   27.6700   33.6660 H   0  0  0  0  0  0  0  0  0  0  0  0
   37.9070   24.7770   37.1820 C   0  0  0  0  0  0  0  0  0  0  0  0
   38.2640   23.4460   37.3570 C   0  0  0  0  0  0  0  0  0  0  0  0
   39.2250   22.9200   36.4750 C   0  0  0  0  0  0  0  0  0  0  0  0
   39.7270   23.7490   35.5260 N   0  0  0  0  0  0  0  0  0  0  0  0
   39.3530   25.0510   35.3820 C   0  0  0  0  0  0  0  0  0  0  0  0
   38.4440   25.5340   36.2220 N   0  0  0  0  0  0  0  0  0  0  0  0
   37.1570   25.1660   37.8790 H   0  0  0  0  0  0  0  0  0  0  0  0
   37.8780   22.7710   38.1060 H   0  0  0  0  0  0  0  0  0  0  0  0
   39.5810   21.9020   36.5140 H   0  0  0  0  0  0  0  0  0  0  0  0
   39.1040   26.9530   30.8840 C   0  0  0  0  0  0  0  0  0  0  0  0
   39.8240   27.1330   30.0650 H   0  0  0  0  0  0  0  0  0  0  0  0
   38.4610   26.0640   30.7050 H   0  0  0  0  0  0  0  0  0  0  0  0
   38.3490   28.1040   31.0710 O   0  0  0  0  0  0  0  0  0  0  0  0
   36.2420   29.4600   30.4990 O   0  0  0  0  0  0  0  0  0  0  0  0
   36.9620   28.1670   30.1370 P   0  0  0  0  0  0  0  0  0  0  0  0
   35.9670   26.8400   30.3000 O   0  0  0  0  0  0  0  0  0  0  0  0
   35.8360   26.5890   31.2250 H   0  0  0  0  0  0  0  0  0  0  0  0
   37.4510   28.3450   28.5150 O   0  0  0  0  0  0  0  0  0  0  0  0
   38.4370   28.3230   28.4130 H   0  0  0  0  0  0  0  0  0  0  0  0
  1  2  1  0  0  0  0
  2  3  1  0  0  0  0
  3  4  2  0  0  0  0
  3 15  1  0  0  0  0
  4  9  1  0  0  0  0
  5 10  1  0  0  0  0
  5  4  1  0  0  0  0
  6  5  2  0  0  0  0
  7  6  1  0  0  0  0
  8  6  1  0  0  0  0
  8  2  2  0  0  0  0
 11 12  1  0  0  0  0
 11 17  1  0  0  0  0
 12 18  1  0  0  0  0
 13 19  1  0  0  0  0
 13 12  2  0  0  0  0
 14 13  1  0  0  0  0
 15 14  2  0  0  0  0
 15 16  1  0  0  0  0
 16 11  2  0  0  0  0
 20 23  1  0  0  0  0
 20  8  1  0  0  0  0
 21 20  1  0  0  0  0
 22 20  1  0  0  0  0
 25 26  1  0  0  0  0
 25 24  2  0  0  0  0
 25 23  1  0  0  0  0
 26 27  1  0  0  0  0
 28 25  1  0  0  0  0
 29 28  1  0  0  0  0
M  END
>  <minimizedAffinity>
-4.73644495

$$$$

 OpenBabel03272509013D

 29 30  0  0  0  0  0  0  0  0999 V2000
   36.2960   28.0170   34.5820 Cl  0  0  0  0  0  0  0  0  0  0  0  0
   35.9350   29.2230   33.3680 C   0  0  0  0  0  0  0  0  0  0  0  0
   36.0080   28.8830   32.0240 C   0  0  0  0  0  0  0  0  0  0  0  0
   35.7380   29.7910   31.0560 C   0  0  0  0  0  0  0  0  0  0  0  0
   35.3800   31.0840   31.3680 C   0  0  0  0  0  0  0  0  0  0  0  0
   35.2960   31.4580   32.6820 C   0  0  0  0  0  0  0  0  0  0  0  0
   34.8600   33.0590   33.2410 Cl  0  0  0  0  0  0  0  0  0  0  0  0
   35.5770   30.5180   33.6490 C   0  0  0  0  0  0  0  0  0  0  0  0
   35.7980   29.5130   30.0030 H   0  0  0  0  0  0  0  0  0  0  0  0
   35.1590   31.8270   30.6300 H   0  0  0  0  0  0  0  0  0  0  0  0
   37.9740   25.8970   31.2070 C   0  0  0  0  0  0  0  0  0  0  0  0
   37.0110   24.9240   30.9760 C   0  0  0  0  0  0  0  0  0  0  0  0
   35.6650   25.3120   31.1050 C   0  0  0  0  0  0  0  0  0  0  0  0
   35.4120   26.6010   31.4440 N   0  0  0  0  0  0  0  0  0  0  0  0
   36.3830   27.5300   31.6640 C   0  0  0  0  0  0  0  0  0  0  0  0
   37.6500   27.1500   31.5390 N   0  0  0  0  0  0  0  0  0  0  0  0
   39.0150   25.5740   31.1020 H   0  0  0  0  0  0  0  0  0  0  0  0
   37.1910   23.8950   30.7040 H   0  0  0  0  0  0  0  0  0  0  0  0
   34.8320   24.6450   30.9490 H   0  0  0  0  0  0  0  0  0  0  0  0
   35.4990   30.8730   35.1220 C   0  0  0  0  0  0  0  0  0  0  0  0
   36.0940   30.1410   35.6990 H   0  0  0  0  0  0  0  0  0  0  0  0
   35.8350   31.9210   35.2790 H   0  0  0  0  0  0  0  0  0  0  0  0
   34.1590   30.7100   35.4480 O   0  0  0  0  0  0  0  0  0  0  0  0
   32.8480   32.8370   36.0490 O   0  0  0  0  0  0  0  0  0  0  0  0
   33.6340   31.7010   36.6900 P   0  0  0  0  0  0  0  0  0  0  0  0
   34.8540   32.2710   37.6720 O   0  0  0  0  0  0  0  0  0  0  0  0
   35.6100   32.6000   37.1670 H   0  0  0  0  0  0  0  0  0  0  0  0
   32.5050   30.8120   37.6050 O   0  0  0  0  0  0  0  0  0  0  0  0
   32.4070   29.8790   37.2810 H   0  0  0  0  0  0  0  0  0  0  0  0
  2  8  1  0  0  0  0
  2  1  1  0  0  0  0
  3  2  2  0  0  0  0
  4  5  2  0  0  0  0
  4  3  1  0  0  0  0
  5  6  1  0  0  0  0
  6  7  1  0  0  0  0
  6  8  2  0  0  0  0
  8 20  1  0  0  0  0
  9  4  1  0  0  0  0
 10  5  1  0  0  0  0
 11 16  1  0  0  0  0
 12 13  1  0  0  0  0
 12 11  2  0  0  0  0
 13 14  2  0  0  0  0
 14 15  1  0  0  0  0
 15  3  1  0  0  0  0
 16 15  2  0  0  0  0
 17 11  1  0  0  0  0
 18 12  1  0  0  0  0
 19 13  1  0  0  0  0
 20 22  1  0  0  0  0
 20 23  1  0  0  0  0
 20 21  1  0  0  0  0
 23 25  1  0  0  0  0
 24 25  2  0  0  0  0
 25 28  1  0  0  0  0
 25 26  1  0  0  0  0
 27 26  1  0  0  0  0
 29 28  1  0  0  0  0
M  END
>  <minimizedAffinity>
-4.72125006

$$$$
