
 OpenBabel03272500583D

 33 34  0  0  0  0  0  0  0  0999 V2000
   38.1520   31.8370   47.4000 C   0  0  0  0  0  0  0  0  0  0  0  0
   38.7440   32.6340   48.3530 C   0  0  0  0  0  0  0  0  0  0  0  0
   38.2600   32.6600   49.6710 C   0  0  0  0  0  0  0  0  0  0  0  0
   37.1230   31.8230   49.9970 C   0  0  0  0  0  0  0  0  0  0  0  0
   36.5990   31.0680   49.0060 C   0  0  0  0  0  0  0  0  0  0  0  0
   37.0570   31.0410   47.7400 C   0  0  0  0  0  0  0  0  0  0  0  0
   39.5980   33.2730   48.1390 H   0  0  0  0  0  0  0  0  0  0  0  0
   38.7590   33.3040   50.3820 H   0  0  0  0  0  0  0  0  0  0  0  0
   36.8670   31.9480   51.0390 H   0  0  0  0  0  0  0  0  0  0  0  0
   35.7980   30.5140   49.4710 H   0  0  0  0  0  0  0  0  0  0  0  0
   39.9970   31.2230   45.9190 C   0  0  0  0  0  0  0  0  0  0  0  0
   38.7630   31.8960   46.0950 C   0  0  0  0  0  0  0  0  0  0  0  0
   38.2970   32.5280   44.9680 C   0  0  0  0  0  0  0  0  0  0  0  0
   38.9780   32.4920   43.8150 N   0  0  0  0  0  0  0  0  0  0  0  0
   40.1220   31.8630   43.6670 C   0  0  0  0  0  0  0  0  0  0  0  0
   40.6220   31.2340   44.7190 N   0  0  0  0  0  0  0  0  0  0  0  0
   40.4710   30.6820   46.7460 H   0  0  0  0  0  0  0  0  0  0  0  0
   37.3470   33.0460   45.1060 H   0  0  0  0  0  0  0  0  0  0  0  0
   40.6040   31.8850   42.6980 H   0  0  0  0  0  0  0  0  0  0  0  0
   35.0450   30.0430   47.0340 C   0  0  0  0  0  0  0  0  0  0  0  0
   34.5370   30.5220   48.1240 O   0  0  0  0  0  0  0  0  0  0  0  0
   36.4560   30.2730   46.7730 N   0  0  0  0  0  0  0  0  0  0  0  0
   36.9360   29.8830   45.9330 H   0  0  0  0  0  0  0  0  0  0  0  0
   34.2490   29.3390   46.1700 O   0  0  0  0  0  0  0  0  0  0  0  0
   32.9270   29.6700   45.8760 C   0  0  0  0  0  0  0  0  0  0  0  0
   32.4490   30.8780   46.0710 O   0  0  0  0  0  0  0  0  0  0  0  0
   31.9270   28.8700   45.3420 O   0  0  0  0  0  0  0  0  0  0  0  0
   29.4610   27.9330   45.4670 O   0  0  0  0  0  0  0  0  0  0  0  0
   30.3150   29.1180   45.8880 P   0  0  0  0  0  0  0  0  0  0  0  0
   30.2840   29.1050   47.5980 O   0  0  0  0  0  0  0  0  0  0  0  0
   29.3530   28.9940   47.8970 H   0  0  0  0  0  0  0  0  0  0  0  0
   29.6140   30.5040   45.2750 O   0  0  0  0  0  0  0  0  0  0  0  0
   29.9760   31.3460   45.6200 H   0  0  0  0  0  0  0  0  0  0  0  0
  1  6  2  0  0  0  0
  1  2  1  0  0  0  0
  2  3  2  0  0  0  0
  3  4  1  0  0  0  0
  3  8  1  0  0  0  0
  4  9  1  0  0  0  0
  5 10  1  0  0  0  0
  5  4  2  0  0  0  0
  6  5  1  0  0  0  0
  7  2  1  0  0  0  0
 11 12  1  0  0  0  0
 11 17  1  0  0  0  0
 12  1  1  0  0  0  0
 13 18  1  0  0  0  0
 13 12  2  0  0  0  0
 14 13  1  0  0  0  0
 15 14  2  0  0  0  0
 15 16  1  0  0  0  0
 16 11  2  0  0  0  0
 19 15  1  0  0  0  0
 20 21  2  0  0  0  0
 22 20  1  0  0  0  0
 22  6  1  0  0  0  0
 23 22  1  0  0  0  0
 24 20  1  0  0  0  0
 25 26  2  0  0  0  0
 25 24  1  0  0  0  0
 27 25  1  0  0  0  0
 27 29  1  0  0  0  0
 28 29  2  0  0  0  0
 29 30  1  0  0  0  0
 30 31  1  0  0  0  0
 32 33  1  0  0  0  0
 32 29  1  0  0  0  0
M  END
>  <minimizedAffinity>
-5.5525918

>  <minimizedRMSD>
0.757778585

$$$$
