
 OpenBabel03272505453D

 23 24  0  0  0  0  0  0  0  0999 V2000
   36.5240   30.1910   48.4770 C   0  0  0  0  0  0  0  0  0  0  0  0
   35.2930   29.8600   47.7230 C   0  0  0  0  0  0  0  0  0  0  0  0
   35.2680   30.8440   48.8730 C   0  0  0  0  0  0  0  0  0  0  0  0
   35.2660   30.2110   46.6800 H   0  0  0  0  0  0  0  0  0  0  0  0
   34.7650   28.9260   47.9560 H   0  0  0  0  0  0  0  0  0  0  0  0
   34.7370   30.5980   49.7950 H   0  0  0  0  0  0  0  0  0  0  0  0
   35.1470   31.9030   48.4980 H   0  0  0  0  0  0  0  0  0  0  0  0
   38.9200   32.9650   47.7800 C   0  0  0  0  0  0  0  0  0  0  0  0
   39.5680   32.4830   46.6370 C   0  0  0  0  0  0  0  0  0  0  0  0
   39.1830   31.2200   46.1030 C   0  0  0  0  0  0  0  0  0  0  0  0
   38.2020   30.5450   46.7350 N   0  0  0  0  0  0  0  0  0  0  0  0
   37.5880   31.0340   47.8400 C   0  0  0  0  0  0  0  0  0  0  0  0
   37.9350   32.2380   48.3710 N   0  0  0  0  0  0  0  0  0  0  0  0
   39.2250   33.9270   48.1700 H   0  0  0  0  0  0  0  0  0  0  0  0
   40.3410   33.0320   46.1560 H   0  0  0  0  0  0  0  0  0  0  0  0
   39.6560   30.8040   45.2220 H   0  0  0  0  0  0  0  0  0  0  0  0
   37.0110   29.1420   49.2490 O   0  0  0  0  0  0  0  0  0  0  0  0
   37.4450   30.9210   51.1820 O   0  0  0  0  0  0  0  0  0  0  0  0
   37.0130   29.5030   50.8900 P   0  0  0  0  0  0  0  0  0  0  0  0
   38.1210   28.4780   51.6500 O   0  0  0  0  0  0  0  0  0  0  0  0
   39.0260   28.5420   51.2590 H   0  0  0  0  0  0  0  0  0  0  0  0
   35.4950   29.1820   51.5860 O   0  0  0  0  0  0  0  0  0  0  0  0
   35.4620   29.6710   52.4380 H   0  0  0  0  0  0  0  0  0  0  0  0
  1  3  1  0  0  0  0
  1 17  1  0  0  0  0
  2  5  1  0  0  0  0
  2  1  1  0  0  0  0
  2  3  1  0  0  0  0
  3  6  1  0  0  0  0
  4  2  1  0  0  0  0
  7  3  1  0  0  0  0
  8 14  1  0  0  0  0
  8 13  1  0  0  0  0
  9  8  2  0  0  0  0
 10  9  1  0  0  0  0
 10 11  2  0  0  0  0
 11 12  1  0  0  0  0
 12 13  2  0  0  0  0
 12  1  1  0  0  0  0
 15  9  1  0  0  0  0
 16 10  1  0  0  0  0
 17 19  1  0  0  0  0
 19 18  2  0  0  0  0
 19 22  1  0  0  0  0
 19 20  1  0  0  0  0
 21 20  1  0  0  0  0
 22 23  1  0  0  0  0
M  END
>  <minimizedAffinity>
-4.29665852

>  <minimizedRMSD>
2.17649627

$$$$
