
 OpenBabel03272501503D

 15 15  0  0  0  0  0  0  0  0999 V2000
   40.1820   22.7530   35.1890 C   0  0  0  0  0  0  0  0  0  0  0  0
   39.2830   23.4150   36.0170 C   0  0  0  0  0  0  0  0  0  0  0  0
   39.3480   23.1530   37.3990 C   0  0  0  0  0  0  0  0  0  0  0  0
   40.2980   22.2590   37.8410 N   0  0  0  0  0  0  0  0  0  0  0  0
   41.1390   21.6500   36.9910 C   0  0  0  0  0  0  0  0  0  0  0  0
   41.1010   21.8830   35.6480 N   0  0  0  0  0  0  0  0  0  0  0  0
   42.0710   20.7450   37.6020 N   0  0  0  0  0  0  0  0  0  0  0  0
   40.0860   22.9930   34.1390 H   0  0  0  0  0  0  0  0  0  0  0  0
   38.5390   24.1110   35.7020 H   0  0  0  0  0  0  0  0  0  0  0  0
   42.9550   21.1840   37.9450 H   0  0  0  0  0  0  0  0  0  0  0  0
   41.8740   19.7150   37.6950 H   0  0  0  0  0  0  0  0  0  0  0  0
   38.4480   23.7900   38.3900 C   0  0  0  0  0  0  0  0  0  0  0  0
   37.9410   24.9750   37.9580 F   0  0  0  0  0  0  0  0  0  0  0  0
   37.3980   22.9300   38.6580 F   0  0  0  0  0  0  0  0  0  0  0  0
   39.1840   23.8970   39.5730 F   0  0  0  0  0  0  0  0  0  0  0  0
  1  6  2  0  0  0  0
  1  2  1  0  0  0  0
  2  3  2  0  0  0  0
  3  4  1  0  0  0  0
  3 12  1  0  0  0  0
  5  7  1  0  0  0  0
  5  4  2  0  0  0  0
  6  5  1  0  0  0  0
  7 11  1  0  0  0  0
  7 10  1  0  0  0  0
  8  1  1  0  0  0  0
  9  2  1  0  0  0  0
 12 14  1  0  0  0  0
 12 15  1  0  0  0  0
 13 12  1  0  0  0  0
M  END
>  <minimizedAffinity>
-4.15034962

$$$$

 OpenBabel03272501503D

 15 15  0  0  0  0  0  0  0  0999 V2000
   38.1760   24.3860   34.5930 C   0  0  0  0  0  0  0  0  0  0  0  0
   38.2150   23.6810   35.7910 C   0  0  0  0  0  0  0  0  0  0  0  0
   38.2160   24.4230   36.9890 C   0  0  0  0  0  0  0  0  0  0  0  0
   38.1780   25.7970   36.8950 N   0  0  0  0  0  0  0  0  0  0  0  0
   38.1410   26.4200   35.7080 C   0  0  0  0  0  0  0  0  0  0  0  0
   38.1380   25.7300   34.5310 N   0  0  0  0  0  0  0  0  0  0  0  0
   38.1040   27.8530   35.7740 N   0  0  0  0  0  0  0  0  0  0  0  0
   38.1760   23.7660   33.7070 H   0  0  0  0  0  0  0  0  0  0  0  0
   38.2460   22.6200   35.8910 H   0  0  0  0  0  0  0  0  0  0  0  0
   37.1490   28.2680   35.8660 H   0  0  0  0  0  0  0  0  0  0  0  0
   38.9780   28.4390   35.7330 H   0  0  0  0  0  0  0  0  0  0  0  0
   38.2570   23.7970   38.3310 C   0  0  0  0  0  0  0  0  0  0  0  0
   37.2920   22.8550   38.5060 F   0  0  0  0  0  0  0  0  0  0  0  0
   39.4940   23.2020   38.5100 F   0  0  0  0  0  0  0  0  0  0  0  0
   38.1860   24.8440   39.2530 F   0  0  0  0  0  0  0  0  0  0  0  0
  1  2  1  0  0  0  0
  2  9  1  0  0  0  0
  2  3  2  0  0  0  0
  3 12  1  0  0  0  0
  4  3  1  0  0  0  0
  5  7  1  0  0  0  0
  5  4  2  0  0  0  0
  6  1  2  0  0  0  0
  6  5  1  0  0  0  0
  7 10  1  0  0  0  0
  8  1  1  0  0  0  0
 11  7  1  0  0  0  0
 12 13  1  0  0  0  0
 12 14  1  0  0  0  0
 12 15  1  0  0  0  0
M  END
>  <minimizedAffinity>
-4.0750885

$$$$

 OpenBabel03272501503D

 15 15  0  0  0  0  0  0  0  0999 V2000
   38.1260   25.3720   35.0080 C   0  0  0  0  0  0  0  0  0  0  0  0
   38.1460   25.2940   36.3970 C   0  0  0  0  0  0  0  0  0  0  0  0
   38.1500   24.0130   36.9820 C   0  0  0  0  0  0  0  0  0  0  0  0
   38.1340   22.9220   36.1420 N   0  0  0  0  0  0  0  0  0  0  0  0
   38.1140   23.0620   34.8080 C   0  0  0  0  0  0  0  0  0  0  0  0
   38.1100   24.2880   34.2110 N   0  0  0  0  0  0  0  0  0  0  0  0
   38.0980   21.8320   34.0680 N   0  0  0  0  0  0  0  0  0  0  0  0
   38.1240   26.3800   34.6150 H   0  0  0  0  0  0  0  0  0  0  0  0
   38.1590   26.1220   37.0690 H   0  0  0  0  0  0  0  0  0  0  0  0
   39.0390   21.4200   33.8730 H   0  0  0  0  0  0  0  0  0  0  0  0
   37.2020   21.3820   33.7480 H   0  0  0  0  0  0  0  0  0  0  0  0
   38.1700   23.7910   38.4470 C   0  0  0  0  0  0  0  0  0  0  0  0
   37.2880   22.8380   38.8500 F   0  0  0  0  0  0  0  0  0  0  0  0
   39.4440   23.4010   38.8220 F   0  0  0  0  0  0  0  0  0  0  0  0
   37.9500   25.0390   39.0340 F   0  0  0  0  0  0  0  0  0  0  0  0
  1  2  1  0  0  0  0
  2  3  2  0  0  0  0
  2  9  1  0  0  0  0
  3 12  1  0  0  0  0
  4  3  1  0  0  0  0
  5  4  2  0  0  0  0
  6  5  1  0  0  0  0
  6  1  2  0  0  0  0
  7  5  1  0  0  0  0
  8  1  1  0  0  0  0
 10  7  1  0  0  0  0
 11  7  1  0  0  0  0
 12 14  1  0  0  0  0
 12 13  1  0  0  0  0
 12 15  1  0  0  0  0
M  END
>  <minimizedAffinity>
-4.05333567

$$$$

 OpenBabel03272501503D

 15 15  0  0  0  0  0  0  0  0999 V2000
   38.2380   23.0070   35.0030 C   0  0  0  0  0  0  0  0  0  0  0  0
   38.2260   24.3840   34.8090 C   0  0  0  0  0  0  0  0  0  0  0  0
   38.3130   25.2080   35.9480 C   0  0  0  0  0  0  0  0  0  0  0  0
   38.4050   24.5970   37.1790 N   0  0  0  0  0  0  0  0  0  0  0  0
   38.4110   23.2610   37.3020 C   0  0  0  0  0  0  0  0  0  0  0  0
   38.3290   22.4370   36.2190 N   0  0  0  0  0  0  0  0  0  0  0  0
   38.5120   22.7750   38.6480 N   0  0  0  0  0  0  0  0  0  0  0  0
   38.1690   22.4250   34.0940 H   0  0  0  0  0  0  0  0  0  0  0  0
   38.1560   24.8820   33.8690 H   0  0  0  0  0  0  0  0  0  0  0  0
   39.4860   22.6750   39.0120 H   0  0  0  0  0  0  0  0  0  0  0  0
   37.6620   22.5380   39.2240 H   0  0  0  0  0  0  0  0  0  0  0  0
   38.3100   26.6890   35.8810 C   0  0  0  0  0  0  0  0  0  0  0  0
   37.2610   27.1850   35.1720 F   0  0  0  0  0  0  0  0  0  0  0  0
   38.2530   27.1940   37.1680 F   0  0  0  0  0  0  0  0  0  0  0  0
   39.5550   27.0580   35.3660 F   0  0  0  0  0  0  0  0  0  0  0  0
  1  6  1  0  0  0  0
  2  1  2  0  0  0  0
  2  3  1  0  0  0  0
  3  4  2  0  0  0  0
  4  5  1  0  0  0  0
  5  7  1  0  0  0  0
  6  5  2  0  0  0  0
  7 10  1  0  0  0  0
  7 11  1  0  0  0  0
  8  1  1  0  0  0  0
  9  2  1  0  0  0  0
 12  3  1  0  0  0  0
 12 14  1  0  0  0  0
 13 12  1  0  0  0  0
 15 12  1  0  0  0  0
M  END
>  <minimizedAffinity>
-3.99517608

$$$$

 OpenBabel03272501503D

 15 15  0  0  0  0  0  0  0  0999 V2000
   40.1770   22.4230   35.5380 C   0  0  0  0  0  0  0  0  0  0  0  0
   39.8450   22.5870   36.8790 C   0  0  0  0  0  0  0  0  0  0  0  0
   38.8200   23.5000   37.1930 C   0  0  0  0  0  0  0  0  0  0  0  0
   38.2130   24.1700   36.1550 N   0  0  0  0  0  0  0  0  0  0  0  0
   38.5780   23.9680   34.8800 C   0  0  0  0  0  0  0  0  0  0  0  0
   39.5670   23.0920   34.5420 N   0  0  0  0  0  0  0  0  0  0  0  0
   37.8530   24.7400   33.9100 N   0  0  0  0  0  0  0  0  0  0  0  0
   40.9700   21.7100   35.3570 H   0  0  0  0  0  0  0  0  0  0  0  0
   40.2990   22.0820   37.7010 H   0  0  0  0  0  0  0  0  0  0  0  0
   36.9610   24.3090   33.5780 H   0  0  0  0  0  0  0  0  0  0  0  0
   38.2000   25.6720   33.5620 H   0  0  0  0  0  0  0  0  0  0  0  0
   38.3700   23.7690   38.5800 C   0  0  0  0  0  0  0  0  0  0  0  0
   39.3830   23.7160   39.4850 F   0  0  0  0  0  0  0  0  0  0  0  0
   37.8000   25.0290   38.6290 F   0  0  0  0  0  0  0  0  0  0  0  0
   37.3420   22.8600   38.8400 F   0  0  0  0  0  0  0  0  0  0  0  0
  1  2  1  0  0  0  0
  2  3  2  0  0  0  0
  2  9  1  0  0  0  0
  3 12  1  0  0  0  0
  4  3  1  0  0  0  0
  5  4  2  0  0  0  0
  6  5  1  0  0  0  0
  6  1  2  0  0  0  0
  7  5  1  0  0  0  0
  8  1  1  0  0  0  0
 10  7  1  0  0  0  0
 11  7  1  0  0  0  0
 12 14  1  0  0  0  0
 12 15  1  0  0  0  0
 12 13  1  0  0  0  0
M  END
>  <minimizedAffinity>
-3.7941165

$$$$

 OpenBabel03272501503D

 15 15  0  0  0  0  0  0  0  0999 V2000
   38.5320   22.5870   34.3990 C   0  0  0  0  0  0  0  0  0  0  0  0
   38.8480   23.2230   35.5950 C   0  0  0  0  0  0  0  0  0  0  0  0
   38.0300   22.9640   36.7120 C   0  0  0  0  0  0  0  0  0  0  0  0
   36.9710   22.1000   36.5480 N   0  0  0  0  0  0  0  0  0  0  0  0
   36.7160   21.5170   35.3670 C   0  0  0  0  0  0  0  0  0  0  0  0
   37.4890   21.7470   34.2670 N   0  0  0  0  0  0  0  0  0  0  0  0
   35.5780   20.6430   35.3530 N   0  0  0  0  0  0  0  0  0  0  0  0
   39.1940   22.8230   33.5770 H   0  0  0  0  0  0  0  0  0  0  0  0
   39.6610   23.8950   35.7490 H   0  0  0  0  0  0  0  0  0  0  0  0
   35.7720   19.6570   35.6400 H   0  0  0  0  0  0  0  0  0  0  0  0
   34.6180   20.9750   35.0720 H   0  0  0  0  0  0  0  0  0  0  0  0
   38.2560   23.5750   38.0430 C   0  0  0  0  0  0  0  0  0  0  0  0
   38.0790   24.9230   38.0440 F   0  0  0  0  0  0  0  0  0  0  0  0
   37.3750   23.0130   38.9490 F   0  0  0  0  0  0  0  0  0  0  0  0
   39.5360   23.1810   38.4410 F   0  0  0  0  0  0  0  0  0  0  0  0
  1  2  1  0  0  0  0
  2  9  1  0  0  0  0
  2  3  2  0  0  0  0
  3 12  1  0  0  0  0
  4  3  1  0  0  0  0
  5  4  2  0  0  0  0
  6  1  2  0  0  0  0
  6  5  1  0  0  0  0
  7  5  1  0  0  0  0
  7 10  1  0  0  0  0
  8  1  1  0  0  0  0
 11  7  1  0  0  0  0
 12 13  1  0  0  0  0
 12 15  1  0  0  0  0
 12 14  1  0  0  0  0
M  END
>  <minimizedAffinity>
-3.77625537

$$$$

 OpenBabel03272501503D

 15 15  0  0  0  0  0  0  0  0999 V2000
   38.2150   23.4180   37.8960 C   0  0  0  0  0  0  0  0  0  0  0  0
   39.5480   23.0500   38.0500 C   0  0  0  0  0  0  0  0  0  0  0  0
   40.1470   22.3050   37.0160 C   0  0  0  0  0  0  0  0  0  0  0  0
   39.3760   21.9890   35.9200 N   0  0  0  0  0  0  0  0  0  0  0  0
   38.0940   22.3730   35.8280 C   0  0  0  0  0  0  0  0  0  0  0  0
   37.4850   23.0950   36.8120 N   0  0  0  0  0  0  0  0  0  0  0  0
   37.4210   21.9670   34.6270 N   0  0  0  0  0  0  0  0  0  0  0  0
   37.8090   23.9880   38.7200 H   0  0  0  0  0  0  0  0  0  0  0  0
   40.1670   23.2810   38.8870 H   0  0  0  0  0  0  0  0  0  0  0  0
   37.5300   22.6190   33.8170 H   0  0  0  0  0  0  0  0  0  0  0  0
   36.8610   21.0770   34.5700 H   0  0  0  0  0  0  0  0  0  0  0  0
   41.5570   21.8500   37.0550 C   0  0  0  0  0  0  0  0  0  0  0  0
   41.8180   21.0230   38.1020 F   0  0  0  0  0  0  0  0  0  0  0  0
   41.8440   21.1790   35.8790 F   0  0  0  0  0  0  0  0  0  0  0  0
   42.3400   23.0070   37.0500 F   0  0  0  0  0  0  0  0  0  0  0  0
  1  2  1  0  0  0  0
  1  8  1  0  0  0  0
  2  9  1  0  0  0  0
  3 12  1  0  0  0  0
  3  2  2  0  0  0  0
  4  3  1  0  0  0  0
  5  4  2  0  0  0  0
  5  6  1  0  0  0  0
  6  1  2  0  0  0  0
  7  5  1  0  0  0  0
 10  7  1  0  0  0  0
 11  7  1  0  0  0  0
 12 13  1  0  0  0  0
 14 12  1  0  0  0  0
 15 12  1  0  0  0  0
M  END
>  <minimizedAffinity>
-3.66581011

$$$$

 OpenBabel03272501503D

 15 15  0  0  0  0  0  0  0  0999 V2000
   37.9270   22.2680   34.7310 C   0  0  0  0  0  0  0  0  0  0  0  0
   37.8340   22.3430   36.1170 C   0  0  0  0  0  0  0  0  0  0  0  0
   38.3310   23.5010   36.7450 C   0  0  0  0  0  0  0  0  0  0  0  0
   38.8770   24.4830   35.9480 N   0  0  0  0  0  0  0  0  0  0  0  0
   38.9380   24.3520   34.6150 C   0  0  0  0  0  0  0  0  0  0  0  0
   38.4660   23.2440   33.9760 N   0  0  0  0  0  0  0  0  0  0  0  0
   39.5340   25.4590   33.9220 N   0  0  0  0  0  0  0  0  0  0  0  0
   37.5290   21.3580   34.3030 H   0  0  0  0  0  0  0  0  0  0  0  0
   37.4170   21.5990   36.7560 H   0  0  0  0  0  0  0  0  0  0  0  0
   38.8780   26.2340   33.6760 H   0  0  0  0  0  0  0  0  0  0  0  0
   40.5590   25.4830   33.6800 H   0  0  0  0  0  0  0  0  0  0  0  0
   38.2940   23.7080   38.2130 C   0  0  0  0  0  0  0  0  0  0  0  0
   37.9850   24.9850   38.5600 F   0  0  0  0  0  0  0  0  0  0  0  0
   37.3480   22.8590   38.7600 F   0  0  0  0  0  0  0  0  0  0  0  0
   39.5330   23.2830   38.6980 F   0  0  0  0  0  0  0  0  0  0  0  0
  1  2  1  0  0  0  0
  2  3  2  0  0  0  0
  2  9  1  0  0  0  0
  3 12  1  0  0  0  0
  4  3  1  0  0  0  0
  5  4  2  0  0  0  0
  6  5  1  0  0  0  0
  6  1  2  0  0  0  0
  7  5  1  0  0  0  0
  8  1  1  0  0  0  0
 10  7  1  0  0  0  0
 11  7  1  0  0  0  0
 12 13  1  0  0  0  0
 12 15  1  0  0  0  0
 12 14  1  0  0  0  0
M  END
>  <minimizedAffinity>
-3.65159559

$$$$

 OpenBabel03272501503D

 15 15  0  0  0  0  0  0  0  0999 V2000
   38.9480   24.2690   36.0010 C   0  0  0  0  0  0  0  0  0  0  0  0
   40.2510   23.8860   35.7010 C   0  0  0  0  0  0  0  0  0  0  0  0
   40.9130   23.0420   36.6140 C   0  0  0  0  0  0  0  0  0  0  0  0
   40.2280   22.6510   37.7430 N   0  0  0  0  0  0  0  0  0  0  0  0
   38.9710   23.0550   37.9770 C   0  0  0  0  0  0  0  0  0  0  0  0
   38.3020   23.8710   37.1130 N   0  0  0  0  0  0  0  0  0  0  0  0
   38.3910   22.5640   39.1950 N   0  0  0  0  0  0  0  0  0  0  0  0
   38.4900   24.9160   35.2650 H   0  0  0  0  0  0  0  0  0  0  0  0
   40.8030   24.1740   34.8360 H   0  0  0  0  0  0  0  0  0  0  0  0
   37.9300   21.6290   39.1210 H   0  0  0  0  0  0  0  0  0  0  0  0
   38.4300   23.1100   40.0940 H   0  0  0  0  0  0  0  0  0  0  0  0
   42.3010   22.5620   36.4150 C   0  0  0  0  0  0  0  0  0  0  0  0
   42.5700   22.2400   35.1220 F   0  0  0  0  0  0  0  0  0  0  0  0
   43.1790   23.5530   36.8160 F   0  0  0  0  0  0  0  0  0  0  0  0
   42.4760   21.4970   37.3020 F   0  0  0  0  0  0  0  0  0  0  0  0
  1  6  1  0  0  0  0
  2  1  2  0  0  0  0
  2  3  1  0  0  0  0
  3  4  2  0  0  0  0
  4  5  1  0  0  0  0
  5  7  1  0  0  0  0
  6  5  2  0  0  0  0
  7 11  1  0  0  0  0
  8  1  1  0  0  0  0
  9  2  1  0  0  0  0
 10  7  1  0  0  0  0
 12  3  1  0  0  0  0
 12 14  1  0  0  0  0
 12 15  1  0  0  0  0
 13 12  1  0  0  0  0
M  END
>  <minimizedAffinity>
-3.56243968

$$$$
