
 OpenBabel03262520093D

 23 24  0  0  0  0  0  0  0  0999 V2000
   40.6800   23.9560   34.4620 Br  0  0  0  0  0  0  0  0  0  0  0  0
   39.5970   23.8350   36.0340 C   0  0  0  0  0  0  0  0  0  0  0  0
   38.4090   24.5340   36.1260 C   0  0  0  0  0  0  0  0  0  0  0  0
   37.6840   24.3950   37.2890 C   0  0  0  0  0  0  0  0  0  0  0  0
   38.0650   23.6120   38.3520 C   0  0  0  0  0  0  0  0  0  0  0  0
   39.2490   22.9340   38.2230 C   0  0  0  0  0  0  0  0  0  0  0  0
   40.0150   23.0480   37.0600 C   0  0  0  0  0  0  0  0  0  0  0  0
   36.7580   24.9430   37.3560 H   0  0  0  0  0  0  0  0  0  0  0  0
   37.4800   23.5170   39.2590 H   0  0  0  0  0  0  0  0  0  0  0  0
   39.5860   22.3000   39.0500 H   0  0  0  0  0  0  0  0  0  0  0  0
   37.4790   27.5420   34.2690 C   0  0  0  0  0  0  0  0  0  0  0  0
   37.1040   27.0500   32.9960 C   0  0  0  0  0  0  0  0  0  0  0  0
   37.1780   25.6670   32.7950 C   0  0  0  0  0  0  0  0  0  0  0  0
   37.6020   24.8730   33.8190 N   0  0  0  0  0  0  0  0  0  0  0  0
   37.9520   25.3860   35.0220 C   0  0  0  0  0  0  0  0  0  0  0  0
   37.8910   26.7260   35.2490 N   0  0  0  0  0  0  0  0  0  0  0  0
   37.4070   28.6140   34.3810 H   0  0  0  0  0  0  0  0  0  0  0  0
   36.7690   27.6890   32.1900 H   0  0  0  0  0  0  0  0  0  0  0  0
   36.9140   25.1950   31.8610 H   0  0  0  0  0  0  0  0  0  0  0  0
   41.3160   22.3040   36.9170 C   0  0  0  0  0  0  0  0  0  0  0  0
   41.2460   21.5390   35.7560 F   0  0  0  0  0  0  0  0  0  0  0  0
   42.3830   23.1750   36.8830 F   0  0  0  0  0  0  0  0  0  0  0  0
   41.4100   21.4480   37.9760 F   0  0  0  0  0  0  0  0  0  0  0  0
  1  2  1  0  0  0  0
  2  3  2  0  0  0  0
  2  7  1  0  0  0  0
  3  4  1  0  0  0  0
  4  8  1  0  0  0  0
  4  5  2  0  0  0  0
  5  9  1  0  0  0  0
  6  5  1  0  0  0  0
  6 10  1  0  0  0  0
  7  6  2  0  0  0  0
 11 17  1  0  0  0  0
 11 16  1  0  0  0  0
 12 11  2  0  0  0  0
 13 12  1  0  0  0  0
 13 14  2  0  0  0  0
 14 15  1  0  0  0  0
 15 16  2  0  0  0  0
 15  3  1  0  0  0  0
 18 12  1  0  0  0  0
 19 13  1  0  0  0  0
 20  7  1  0  0  0  0
 20 23  1  0  0  0  0
 21 20  1  0  0  0  0
 22 20  1  0  0  0  0
M  END
>  <minimizedAffinity>
-4.89537954

$$$$

 OpenBabel03262520093D

 23 24  0  0  0  0  0  0  0  0999 V2000
   38.1530   22.6450   35.0800 Br  0  0  0  0  0  0  0  0  0  0  0  0
   38.1880   24.5490   35.2620 C   0  0  0  0  0  0  0  0  0  0  0  0
   38.1900   25.3640   34.1460 C   0  0  0  0  0  0  0  0  0  0  0  0
   38.2140   26.7240   34.3580 C   0  0  0  0  0  0  0  0  0  0  0  0
   38.2370   27.3160   35.5980 C   0  0  0  0  0  0  0  0  0  0  0  0
   38.2340   26.4760   36.6800 C   0  0  0  0  0  0  0  0  0  0  0  0
   38.2100   25.0890   36.5090 C   0  0  0  0  0  0  0  0  0  0  0  0
   38.2160   27.3550   33.4830 H   0  0  0  0  0  0  0  0  0  0  0  0
   38.2570   28.3900   35.7430 H   0  0  0  0  0  0  0  0  0  0  0  0
   38.2520   26.9110   37.6850 H   0  0  0  0  0  0  0  0  0  0  0  0
   39.3910   23.9860   30.9800 C   0  0  0  0  0  0  0  0  0  0  0  0
   38.2030   23.7030   30.2630 C   0  0  0  0  0  0  0  0  0  0  0  0
   36.9880   23.9960   30.8930 C   0  0  0  0  0  0  0  0  0  0  0  0
   37.0070   24.5310   32.1470 N   0  0  0  0  0  0  0  0  0  0  0  0
   38.1670   24.7870   32.7960 C   0  0  0  0  0  0  0  0  0  0  0  0
   39.3640   24.5130   32.2120 N   0  0  0  0  0  0  0  0  0  0  0  0
   40.3050   23.7460   30.4580 H   0  0  0  0  0  0  0  0  0  0  0  0
   38.2010   23.2770   29.2690 H   0  0  0  0  0  0  0  0  0  0  0  0
   36.0300   23.8160   30.4310 H   0  0  0  0  0  0  0  0  0  0  0  0
   38.2070   24.1650   37.6970 C   0  0  0  0  0  0  0  0  0  0  0  0
   37.0700   23.3670   37.6150 F   0  0  0  0  0  0  0  0  0  0  0  0
   39.3550   23.4040   37.7350 F   0  0  0  0  0  0  0  0  0  0  0  0
   38.0920   24.9420   38.8130 F   0  0  0  0  0  0  0  0  0  0  0  0
  1  2  1  0  0  0  0
  2  7  1  0  0  0  0
  3  4  1  0  0  0  0
  3  2  2  0  0  0  0
  4  5  2  0  0  0  0
  5  9  1  0  0  0  0
  5  6  1  0  0  0  0
  6 10  1  0  0  0  0
  7  6  2  0  0  0  0
  7 20  1  0  0  0  0
  8  4  1  0  0  0  0
 11 16  1  0  0  0  0
 12 13  1  0  0  0  0
 12 11  2  0  0  0  0
 13 14  2  0  0  0  0
 14 15  1  0  0  0  0
 15  3  1  0  0  0  0
 16 15  2  0  0  0  0
 17 11  1  0  0  0  0
 18 12  1  0  0  0  0
 19 13  1  0  0  0  0
 20 22  1  0  0  0  0
 20 23  1  0  0  0  0
 21 20  1  0  0  0  0
M  END
>  <minimizedAffinity>
-4.82672501

$$$$

 OpenBabel03262520093D

 23 24  0  0  0  0  0  0  0  0999 V2000
   38.0640   23.5300   33.2170 Br  0  0  0  0  0  0  0  0  0  0  0  0
   37.8950   25.2380   34.0620 C   0  0  0  0  0  0  0  0  0  0  0  0
   38.4760   25.4760   35.2920 C   0  0  0  0  0  0  0  0  0  0  0  0
   38.3120   26.7300   35.8350 C   0  0  0  0  0  0  0  0  0  0  0  0
   37.6140   27.7510   35.2360 C   0  0  0  0  0  0  0  0  0  0  0  0
   37.0530   27.4770   34.0150 C   0  0  0  0  0  0  0  0  0  0  0  0
   37.1950   26.2160   33.4300 C   0  0  0  0  0  0  0  0  0  0  0  0
   38.7660   26.9100   36.7970 H   0  0  0  0  0  0  0  0  0  0  0  0
   37.4960   28.7320   35.6810 H   0  0  0  0  0  0  0  0  0  0  0  0
   36.4890   28.2650   33.5070 H   0  0  0  0  0  0  0  0  0  0  0  0
   39.3200   22.8970   37.7410 C   0  0  0  0  0  0  0  0  0  0  0  0
   40.5940   22.4410   37.3250 C   0  0  0  0  0  0  0  0  0  0  0  0
   41.1500   23.0390   36.1890 C   0  0  0  0  0  0  0  0  0  0  0  0
   40.4490   24.0160   35.5480 N   0  0  0  0  0  0  0  0  0  0  0  0
   39.2330   24.4230   35.9810 C   0  0  0  0  0  0  0  0  0  0  0  0
   38.6650   23.8610   37.0820 N   0  0  0  0  0  0  0  0  0  0  0  0
   38.9280   22.4090   38.6220 H   0  0  0  0  0  0  0  0  0  0  0  0
   41.1420   21.6630   37.8420 H   0  0  0  0  0  0  0  0  0  0  0  0
   42.1150   22.7610   35.7920 H   0  0  0  0  0  0  0  0  0  0  0  0
   36.5800   25.9140   32.0900 C   0  0  0  0  0  0  0  0  0  0  0  0
   37.6100   25.7920   31.1630 F   0  0  0  0  0  0  0  0  0  0  0  0
   35.8120   24.7710   32.1440 F   0  0  0  0  0  0  0  0  0  0  0  0
   35.8280   26.9980   31.7380 F   0  0  0  0  0  0  0  0  0  0  0  0
  1  2  1  0  0  0  0
  2  3  1  0  0  0  0
  3  4  2  0  0  0  0
  3 15  1  0  0  0  0
  4  8  1  0  0  0  0
  5  9  1  0  0  0  0
  5  4  1  0  0  0  0
  6  5  2  0  0  0  0
  7  6  1  0  0  0  0
  7  2  2  0  0  0  0
 10  6  1  0  0  0  0
 11 17  1  0  0  0  0
 12 11  1  0  0  0  0
 12 18  1  0  0  0  0
 13 12  2  0  0  0  0
 14 15  2  0  0  0  0
 14 13  1  0  0  0  0
 15 16  1  0  0  0  0
 16 11  2  0  0  0  0
 19 13  1  0  0  0  0
 20 22  1  0  0  0  0
 20  7  1  0  0  0  0
 21 20  1  0  0  0  0
 23 20  1  0  0  0  0
M  END
>  <minimizedAffinity>
-4.76495028

$$$$

 OpenBabel03262520093D

 23 24  0  0  0  0  0  0  0  0999 V2000
   37.9250   25.4720   35.7220 Br  0  0  0  0  0  0  0  0  0  0  0  0
   39.3660   24.2910   36.1520 C   0  0  0  0  0  0  0  0  0  0  0  0
   40.5230   24.2880   35.3980 C   0  0  0  0  0  0  0  0  0  0  0  0
   41.5170   23.4110   35.7700 C   0  0  0  0  0  0  0  0  0  0  0  0
   41.4310   22.5460   36.8340 C   0  0  0  0  0  0  0  0  0  0  0  0
   40.2680   22.5780   37.5590 C   0  0  0  0  0  0  0  0  0  0  0  0
   39.2340   23.4530   37.2140 C   0  0  0  0  0  0  0  0  0  0  0  0
   42.4180   23.4130   35.1770 H   0  0  0  0  0  0  0  0  0  0  0  0
   42.2250   21.8620   37.1100 H   0  0  0  0  0  0  0  0  0  0  0  0
   40.1610   21.9030   38.4140 H   0  0  0  0  0  0  0  0  0  0  0  0
   41.3800   27.2660   33.4590 C   0  0  0  0  0  0  0  0  0  0  0  0
   40.9830   26.9370   32.1410 C   0  0  0  0  0  0  0  0  0  0  0  0
   40.4160   25.6730   31.9380 C   0  0  0  0  0  0  0  0  0  0  0  0
   40.2780   24.8340   33.0040 N   0  0  0  0  0  0  0  0  0  0  0  0
   40.6720   25.1900   34.2490 C   0  0  0  0  0  0  0  0  0  0  0  0
   41.2260   26.4110   34.4780 N   0  0  0  0  0  0  0  0  0  0  0  0
   41.8120   28.2500   33.5710 H   0  0  0  0  0  0  0  0  0  0  0  0
   41.0980   27.6110   31.3020 H   0  0  0  0  0  0  0  0  0  0  0  0
   40.0820   25.3280   30.9720 H   0  0  0  0  0  0  0  0  0  0  0  0
   37.9560   23.4890   38.0080 C   0  0  0  0  0  0  0  0  0  0  0  0
   37.8070   24.7740   38.5200 F   0  0  0  0  0  0  0  0  0  0  0  0
   36.8790   23.1280   37.2290 F   0  0  0  0  0  0  0  0  0  0  0  0
   38.1120   22.6360   39.0620 F   0  0  0  0  0  0  0  0  0  0  0  0
  1  2  1  0  0  0  0
  2  7  1  0  0  0  0
  3  4  1  0  0  0  0
  3  2  2  0  0  0  0
  4  5  2  0  0  0  0
  5  9  1  0  0  0  0
  5  6  1  0  0  0  0
  6 10  1  0  0  0  0
  7  6  2  0  0  0  0
  7 20  1  0  0  0  0
  8  4  1  0  0  0  0
 11 17  1  0  0  0  0
 11 16  1  0  0  0  0
 12 11  2  0  0  0  0
 13 12  1  0  0  0  0
 13 14  2  0  0  0  0
 14 15  1  0  0  0  0
 15 16  2  0  0  0  0
 15  3  1  0  0  0  0
 18 12  1  0  0  0  0
 19 13  1  0  0  0  0
 20 21  1  0  0  0  0
 20 23  1  0  0  0  0
 22 20  1  0  0  0  0
M  END
>  <minimizedAffinity>
-4.71448565

$$$$

 OpenBabel03262520093D

 23 24  0  0  0  0  0  0  0  0999 V2000
   35.9290   20.8610   35.5080 Br  0  0  0  0  0  0  0  0  0  0  0  0
   37.0560   21.4700   34.0870 C   0  0  0  0  0  0  0  0  0  0  0  0
   38.1530   22.2660   34.3500 C   0  0  0  0  0  0  0  0  0  0  0  0
   38.9170   22.6630   33.2750 C   0  0  0  0  0  0  0  0  0  0  0  0
   38.6590   22.3190   31.9700 C   0  0  0  0  0  0  0  0  0  0  0  0
   37.5620   21.5270   31.7490 C   0  0  0  0  0  0  0  0  0  0  0  0
   36.7600   21.1040   32.8120 C   0  0  0  0  0  0  0  0  0  0  0  0
   39.7720   23.2850   33.4870 H   0  0  0  0  0  0  0  0  0  0  0  0
   39.2730   22.6430   31.1380 H   0  0  0  0  0  0  0  0  0  0  0  0
   37.3240   21.2330   30.7220 H   0  0  0  0  0  0  0  0  0  0  0  0
   39.9270   22.4630   37.5400 C   0  0  0  0  0  0  0  0  0  0  0  0
   39.1510   23.3680   38.3030 C   0  0  0  0  0  0  0  0  0  0  0  0
   38.0100   23.9050   37.6960 C   0  0  0  0  0  0  0  0  0  0  0  0
   37.7070   23.5360   36.4190 N   0  0  0  0  0  0  0  0  0  0  0  0
   38.4780   22.6660   35.7250 C   0  0  0  0  0  0  0  0  0  0  0  0
   39.5930   22.1270   36.2870 N   0  0  0  0  0  0  0  0  0  0  0  0
   40.7980   22.0730   38.0460 H   0  0  0  0  0  0  0  0  0  0  0  0
   39.4010   23.6550   39.3160 H   0  0  0  0  0  0  0  0  0  0  0  0
   37.3540   24.6030   38.1930 H   0  0  0  0  0  0  0  0  0  0  0  0
   35.5560   20.2340   32.5710 C   0  0  0  0  0  0  0  0  0  0  0  0
   35.5890   19.8160   31.2440 F   0  0  0  0  0  0  0  0  0  0  0  0
   35.5370   19.1630   33.4370 F   0  0  0  0  0  0  0  0  0  0  0  0
   34.4520   21.0200   32.7340 F   0  0  0  0  0  0  0  0  0  0  0  0
  2  3  1  0  0  0  0
  2  1  1  0  0  0  0
  3 15  1  0  0  0  0
  4  8  1  0  0  0  0
  4  3  2  0  0  0  0
  5  4  1  0  0  0  0
  6  5  2  0  0  0  0
  6  7  1  0  0  0  0
  7  2  2  0  0  0  0
  9  5  1  0  0  0  0
 10  6  1  0  0  0  0
 11 17  1  0  0  0  0
 11 12  1  0  0  0  0
 12 18  1  0  0  0  0
 13 19  1  0  0  0  0
 13 12  2  0  0  0  0
 14 13  1  0  0  0  0
 15 16  1  0  0  0  0
 15 14  2  0  0  0  0
 16 11  2  0  0  0  0
 20 23  1  0  0  0  0
 20  7  1  0  0  0  0
 20 22  1  0  0  0  0
 21 20  1  0  0  0  0
M  END
>  <minimizedAffinity>
-4.6541791

$$$$

 OpenBabel03262520093D

 23 24  0  0  0  0  0  0  0  0999 V2000
   38.4340   26.3200   36.2590 Br  0  0  0  0  0  0  0  0  0  0  0  0
   38.1610   24.5830   35.5070 C   0  0  0  0  0  0  0  0  0  0  0  0
   38.0420   24.4180   34.1400 C   0  0  0  0  0  0  0  0  0  0  0  0
   37.8490   23.1370   33.6740 C   0  0  0  0  0  0  0  0  0  0  0  0
   37.7680   22.0230   34.4750 C   0  0  0  0  0  0  0  0  0  0  0  0
   37.8910   22.2270   35.8250 C   0  0  0  0  0  0  0  0  0  0  0  0
   38.0870   23.5110   36.3390 C   0  0  0  0  0  0  0  0  0  0  0  0
   37.7560   23.0140   32.6070 H   0  0  0  0  0  0  0  0  0  0  0  0
   37.6140   21.0230   34.0870 H   0  0  0  0  0  0  0  0  0  0  0  0
   37.8310   21.3630   36.4950 H   0  0  0  0  0  0  0  0  0  0  0  0
   36.9800   27.2560   32.0970 C   0  0  0  0  0  0  0  0  0  0  0  0
   38.1880   27.7450   31.5430 C   0  0  0  0  0  0  0  0  0  0  0  0
   39.3680   27.0770   31.8890 C   0  0  0  0  0  0  0  0  0  0  0  0
   39.2980   26.0060   32.7290 N   0  0  0  0  0  0  0  0  0  0  0  0
   38.1200   25.5710   33.2360 C   0  0  0  0  0  0  0  0  0  0  0  0
   36.9550   26.1990   32.9190 N   0  0  0  0  0  0  0  0  0  0  0  0
   36.0930   27.8000   31.8040 H   0  0  0  0  0  0  0  0  0  0  0  0
   38.2310   28.5970   30.8780 H   0  0  0  0  0  0  0  0  0  0  0  0
   40.3380   27.3720   31.5200 H   0  0  0  0  0  0  0  0  0  0  0  0
   38.2220   23.7360   37.8210 C   0  0  0  0  0  0  0  0  0  0  0  0
   39.5500   23.5110   38.1680 F   0  0  0  0  0  0  0  0  0  0  0  0
   37.8190   25.0070   38.1670 F   0  0  0  0  0  0  0  0  0  0  0  0
   37.4610   22.7900   38.4440 F   0  0  0  0  0  0  0  0  0  0  0  0
  2  1  1  0  0  0  0
  2  7  1  0  0  0  0
  3  2  2  0  0  0  0
  4  3  1  0  0  0  0
  4  5  2  0  0  0  0
  5  6  1  0  0  0  0
  6  7  2  0  0  0  0
  6 10  1  0  0  0  0
  7 20  1  0  0  0  0
  8  4  1  0  0  0  0
  9  5  1  0  0  0  0
 11 16  1  0  0  0  0
 12 13  1  0  0  0  0
 12 11  2  0  0  0  0
 13 14  2  0  0  0  0
 14 15  1  0  0  0  0
 15  3  1  0  0  0  0
 16 15  2  0  0  0  0
 17 11  1  0  0  0  0
 18 12  1  0  0  0  0
 19 13  1  0  0  0  0
 20 22  1  0  0  0  0
 20 21  1  0  0  0  0
 20 23  1  0  0  0  0
M  END
>  <minimizedAffinity>
-4.61910105

$$$$

 OpenBabel03262520093D

 23 24  0  0  0  0  0  0  0  0999 V2000
   39.0450   26.8850   35.2210 Br  0  0  0  0  0  0  0  0  0  0  0  0
   38.4640   25.4860   34.0540 C   0  0  0  0  0  0  0  0  0  0  0  0
   38.2510   24.2090   34.5360 C   0  0  0  0  0  0  0  0  0  0  0  0
   37.8320   23.2560   33.6350 C   0  0  0  0  0  0  0  0  0  0  0  0
   37.6120   23.4930   32.3000 C   0  0  0  0  0  0  0  0  0  0  0  0
   37.8330   24.7720   31.8590 C   0  0  0  0  0  0  0  0  0  0  0  0
   38.2600   25.7690   32.7410 C   0  0  0  0  0  0  0  0  0  0  0  0
   37.6680   22.2610   34.0170 H   0  0  0  0  0  0  0  0  0  0  0  0
   37.2830   22.7280   31.6070 H   0  0  0  0  0  0  0  0  0  0  0  0
   37.6700   25.0000   30.8000 H   0  0  0  0  0  0  0  0  0  0  0  0
   39.8550   22.9340   37.5640 C   0  0  0  0  0  0  0  0  0  0  0  0
   38.9480   23.2760   38.5950 C   0  0  0  0  0  0  0  0  0  0  0  0
   37.7800   23.9510   38.2250 C   0  0  0  0  0  0  0  0  0  0  0  0
   37.5750   24.2420   36.9090 N   0  0  0  0  0  0  0  0  0  0  0  0
   38.4700   23.8970   35.9540 C   0  0  0  0  0  0  0  0  0  0  0  0
   39.6150   23.2400   36.2820 N   0  0  0  0  0  0  0  0  0  0  0  0
   40.7430   22.4150   37.8930 H   0  0  0  0  0  0  0  0  0  0  0  0
   39.1220   23.0400   39.6370 H   0  0  0  0  0  0  0  0  0  0  0  0
   37.0270   24.2550   38.9370 H   0  0  0  0  0  0  0  0  0  0  0  0
   38.5030   27.1740   32.2580 C   0  0  0  0  0  0  0  0  0  0  0  0
   37.5910   28.0090   32.8950 F   0  0  0  0  0  0  0  0  0  0  0  0
   39.8020   27.5630   32.5030 F   0  0  0  0  0  0  0  0  0  0  0  0
   38.2250   27.1950   30.9210 F   0  0  0  0  0  0  0  0  0  0  0  0
  2  3  1  0  0  0  0
  2  1  1  0  0  0  0
  3 15  1  0  0  0  0
  4  8  1  0  0  0  0
  4  3  2  0  0  0  0
  5  4  1  0  0  0  0
  6  5  2  0  0  0  0
  6  7  1  0  0  0  0
  7  2  2  0  0  0  0
  9  5  1  0  0  0  0
 10  6  1  0  0  0  0
 11 17  1  0  0  0  0
 11 12  1  0  0  0  0
 12 18  1  0  0  0  0
 13 12  2  0  0  0  0
 13 19  1  0  0  0  0
 14 13  1  0  0  0  0
 15 16  1  0  0  0  0
 15 14  2  0  0  0  0
 16 11  2  0  0  0  0
 20 22  1  0  0  0  0
 20  7  1  0  0  0  0
 20 21  1  0  0  0  0
 23 20  1  0  0  0  0
M  END
>  <minimizedAffinity>
-4.58896589

$$$$

 OpenBabel03262520093D

 23 24  0  0  0  0  0  0  0  0999 V2000
   38.6890   25.1480   33.1710 Br  0  0  0  0  0  0  0  0  0  0  0  0
   38.3180   24.4000   34.8920 C   0  0  0  0  0  0  0  0  0  0  0  0
   38.0970   23.0440   35.0370 C   0  0  0  0  0  0  0  0  0  0  0  0
   37.8380   22.5790   36.3070 C   0  0  0  0  0  0  0  0  0  0  0  0
   37.7860   23.3720   37.4280 C   0  0  0  0  0  0  0  0  0  0  0  0
   38.0110   24.7110   37.2440 C   0  0  0  0  0  0  0  0  0  0  0  0
   38.2770   25.2240   35.9710 C   0  0  0  0  0  0  0  0  0  0  0  0
   37.6650   21.5200   36.4140 H   0  0  0  0  0  0  0  0  0  0  0  0
   37.5790   22.9860   38.4200 H   0  0  0  0  0  0  0  0  0  0  0  0
   37.9770   25.3750   38.1140 H   0  0  0  0  0  0  0  0  0  0  0  0
   36.9580   21.0880   32.1660 C   0  0  0  0  0  0  0  0  0  0  0  0
   38.1410   20.4760   31.6840 C   0  0  0  0  0  0  0  0  0  0  0  0
   39.3300   20.7520   32.3680 C   0  0  0  0  0  0  0  0  0  0  0  0
   39.2930   21.5840   33.4470 N   0  0  0  0  0  0  0  0  0  0  0  0
   38.1390   22.1480   33.8750 C   0  0  0  0  0  0  0  0  0  0  0  0
   36.9660   21.9000   33.2320 N   0  0  0  0  0  0  0  0  0  0  0  0
   36.0630   20.8480   31.6110 H   0  0  0  0  0  0  0  0  0  0  0  0
   38.1580   19.8180   30.8260 H   0  0  0  0  0  0  0  0  0  0  0  0
   40.2830   20.3350   32.0790 H   0  0  0  0  0  0  0  0  0  0  0  0
   38.5240   26.6940   35.7680 C   0  0  0  0  0  0  0  0  0  0  0  0
   39.8580   26.8580   35.4080 F   0  0  0  0  0  0  0  0  0  0  0  0
   37.6770   27.2100   34.8120 F   0  0  0  0  0  0  0  0  0  0  0  0
   38.3380   27.3050   36.9740 F   0  0  0  0  0  0  0  0  0  0  0  0
  1  2  1  0  0  0  0
  2  3  2  0  0  0  0
  2  7  1  0  0  0  0
  3  4  1  0  0  0  0
  4  8  1  0  0  0  0
  4  5  2  0  0  0  0
  5  9  1  0  0  0  0
  6  5  1  0  0  0  0
  6 10  1  0  0  0  0
  7  6  2  0  0  0  0
 11 16  1  0  0  0  0
 12 11  2  0  0  0  0
 12 13  1  0  0  0  0
 13 14  2  0  0  0  0
 14 15  1  0  0  0  0
 15  3  1  0  0  0  0
 16 15  2  0  0  0  0
 17 11  1  0  0  0  0
 18 12  1  0  0  0  0
 19 13  1  0  0  0  0
 20  7  1  0  0  0  0
 20 23  1  0  0  0  0
 21 20  1  0  0  0  0
 22 20  1  0  0  0  0
M  END
>  <minimizedAffinity>
-4.48314095

$$$$

 OpenBabel03262520093D

 23 24  0  0  0  0  0  0  0  0999 V2000
   32.5310   29.4380   33.9780 Br  0  0  0  0  0  0  0  0  0  0  0  0
   33.6080   30.5310   35.1200 C   0  0  0  0  0  0  0  0  0  0  0  0
   34.9800   30.5700   34.9680 C   0  0  0  0  0  0  0  0  0  0  0  0
   35.6870   31.3810   35.8260 C   0  0  0  0  0  0  0  0  0  0  0  0
   35.1190   32.1480   36.8150 C   0  0  0  0  0  0  0  0  0  0  0  0
   33.7550   32.0830   36.9350 C   0  0  0  0  0  0  0  0  0  0  0  0
   33.0010   31.2710   36.0840 C   0  0  0  0  0  0  0  0  0  0  0  0
   36.7590   31.4070   35.7030 H   0  0  0  0  0  0  0  0  0  0  0  0
   35.6950   32.7790   37.4810 H   0  0  0  0  0  0  0  0  0  0  0  0
   33.2660   32.6800   37.7120 H   0  0  0  0  0  0  0  0  0  0  0  0
   36.3890   29.6470   31.7230 C   0  0  0  0  0  0  0  0  0  0  0  0
   36.8760   28.3340   31.9280 C   0  0  0  0  0  0  0  0  0  0  0  0
   36.7080   27.7780   33.2010 C   0  0  0  0  0  0  0  0  0  0  0  0
   36.0940   28.5180   34.1680 N   0  0  0  0  0  0  0  0  0  0  0  0
   35.6430   29.7710   33.9290 C   0  0  0  0  0  0  0  0  0  0  0  0
   35.7900   30.3390   32.7020 N   0  0  0  0  0  0  0  0  0  0  0  0
   36.5380   30.0370   30.7270 H   0  0  0  0  0  0  0  0  0  0  0  0
   37.3630   27.7560   31.1530 H   0  0  0  0  0  0  0  0  0  0  0  0
   37.0450   26.7850   33.4570 H   0  0  0  0  0  0  0  0  0  0  0  0
   31.5030   31.2000   36.2140 C   0  0  0  0  0  0  0  0  0  0  0  0
   30.9500   31.5250   34.9800 F   0  0  0  0  0  0  0  0  0  0  0  0
   31.1020   29.9500   36.6330 F   0  0  0  0  0  0  0  0  0  0  0  0
   31.1290   32.1630   37.1060 F   0  0  0  0  0  0  0  0  0  0  0  0
  1  2  1  0  0  0  0
  2  7  1  0  0  0  0
  3  2  2  0  0  0  0
  3  4  1  0  0  0  0
  4  5  2  0  0  0  0
  5  6  1  0  0  0  0
  5  9  1  0  0  0  0
  6 10  1  0  0  0  0
  7 20  1  0  0  0  0
  7  6  2  0  0  0  0
  8  4  1  0  0  0  0
 11 12  2  0  0  0  0
 11 16  1  0  0  0  0
 12 13  1  0  0  0  0
 13 19  1  0  0  0  0
 13 14  2  0  0  0  0
 15 14  1  0  0  0  0
 15  3  1  0  0  0  0
 16 15  2  0  0  0  0
 17 11  1  0  0  0  0
 18 12  1  0  0  0  0
 20 22  1  0  0  0  0
 20 23  1  0  0  0  0
 21 20  1  0  0  0  0
M  END
>  <minimizedAffinity>
-4.46869183

$$$$
