
 OpenBabel03262522443D

 30 32  0  0  1  0  0  0  0  0999 V2000
   36.6450   31.2040   46.3440 C   0  0  1  0  0  0  0  0  0  0  0  0
   35.4750   30.3110   46.4600 C   0  0  0  0  0  0  0  0  0  0  0  0
   36.7040   29.8310   47.0600 C   0  0  2  0  0  0  0  0  0  0  0  0
   36.8670   32.0300   47.0280 H   0  0  0  0  0  0  0  0  0  0  0  0
   34.6330   30.8270   46.9180 H   0  0  0  0  0  0  0  0  0  0  0  0
   35.1490   29.8190   45.4860 H   0  0  0  0  0  0  0  0  0  0  0  0
   37.5500   29.3270   46.5310 H   0  0  0  0  0  0  0  0  0  0  0  0
   34.7140   28.1340   48.7790 Cl  0  0  0  0  0  0  0  0  0  0  0  0
   36.0070   29.1110   49.4420 C   0  0  0  0  0  0  0  0  0  0  0  0
   36.7990   29.7410   48.5070 C   0  0  0  0  0  0  0  0  0  0  0  0
   37.8470   30.4580   48.9850 C   0  0  0  0  0  0  0  0  0  0  0  0
   38.1210   30.5570   50.3630 C   0  0  0  0  0  0  0  0  0  0  0  0
   37.2940   29.9000   51.2830 C   0  0  0  0  0  0  0  0  0  0  0  0
   37.5740   29.8880   53.0010 Cl  0  0  0  0  0  0  0  0  0  0  0  0
   36.2210   29.1700   50.7850 C   0  0  0  0  0  0  0  0  0  0  0  0
   38.5820   31.0250   48.4290 H   0  0  0  0  0  0  0  0  0  0  0  0
   38.9290   31.1070   50.8020 H   0  0  0  0  0  0  0  0  0  0  0  0
   35.5230   28.6300   51.4080 H   0  0  0  0  0  0  0  0  0  0  0  0
   37.0850   30.3380   43.9770 C   0  0  0  0  0  0  0  0  0  0  0  0
   37.3290   31.3040   45.0210 C   0  0  0  0  0  0  0  0  0  0  0  0
   38.2430   32.3140   44.7630 C   0  0  0  0  0  0  0  0  0  0  0  0
   38.8610   32.3410   43.5390 N   0  0  0  0  0  0  0  0  0  0  0  0
   38.6090   31.4190   42.5810 C   0  0  0  0  0  0  0  0  0  0  0  0
   37.7260   30.4280   42.8050 N   0  0  0  0  0  0  0  0  0  0  0  0
   36.3780   29.5510   44.1670 H   0  0  0  0  0  0  0  0  0  0  0  0
   38.4590   33.0580   45.5090 H   0  0  0  0  0  0  0  0  0  0  0  0
   39.3950   31.6520   41.3400 C   0  0  0  0  0  0  0  0  0  0  0  0
   38.9040   30.9030   40.2850 F   0  0  0  0  0  0  0  0  0  0  0  0
   40.7290   31.2590   41.4850 F   0  0  0  0  0  0  0  0  0  0  0  0
   39.2870   32.9870   41.0000 F   0  0  0  0  0  0  0  0  0  0  0  0
  1  2  1  0  0  0  0
  1  4  1  1  0  0  0
  1  3  1  0  0  0  0
  2  5  1  0  0  0  0
  2  3  1  0  0  0  0
  3  7  1  6  0  0  0
  3 10  1  0  0  0  0
  6  2  1  0  0  0  0
  8  9  1  0  0  0  0
  9 15  1  0  0  0  0
 10 11  1  0  0  0  0
 10  9  2  0  0  0  0
 11 12  2  0  0  0  0
 12 17  1  0  0  0  0
 12 13  1  0  0  0  0
 13 14  1  0  0  0  0
 15 13  2  0  0  0  0
 15 18  1  0  0  0  0
 16 11  1  0  0  0  0
 19 25  1  0  0  0  0
 19 20  1  0  0  0  0
 20  1  1  0  0  0  0
 21 20  2  0  0  0  0
 21 26  1  0  0  0  0
 22 21  1  0  0  0  0
 23 24  1  0  0  0  0
 23 22  2  0  0  0  0
 24 19  2  0  0  0  0
 27 29  1  0  0  0  0
 27 23  1  0  0  0  0
 28 27  1  0  0  0  0
 30 27  1  0  0  0  0
M  END
>  <minimizedAffinity>
-4.41641378

>  <minimizedRMSD>
1.60741937

$$$$
