
 OpenBabel03272509493D

 28 29  0  0  0  0  0  0  0  0999 V2000
   33.8920   28.6730   48.7890 C   0  0  0  0  0  0  0  0  0  0  0  0
   33.2570   29.2990   49.4810 H   0  0  0  0  0  0  0  0  0  0  0  0
   34.2030   29.3330   47.9730 H   0  0  0  0  0  0  0  0  0  0  0  0
   33.0460   27.5070   48.3580 C   0  0  0  0  0  0  0  0  0  0  0  0
   33.1090   26.7020   49.1360 H   0  0  0  0  0  0  0  0  0  0  0  0
   33.4920   27.0280   47.4410 H   0  0  0  0  0  0  0  0  0  0  0  0
   31.6230   27.8750   48.1690 C   0  0  0  0  0  0  0  0  0  0  0  0
   30.7620   27.6190   49.2100 C   0  0  0  0  0  0  0  0  0  0  0  0
   29.4230   27.9130   49.1580 C   0  0  0  0  0  0  0  0  0  0  0  0
   28.9200   28.4740   48.0510 N   0  0  0  0  0  0  0  0  0  0  0  0
   29.7660   28.7250   47.0290 C   0  0  0  0  0  0  0  0  0  0  0  0
   31.0810   28.4410   47.0680 N   0  0  0  0  0  0  0  0  0  0  0  0
   31.1120   27.1630   50.1410 H   0  0  0  0  0  0  0  0  0  0  0  0
   28.7270   27.7130   49.9860 H   0  0  0  0  0  0  0  0  0  0  0  0
   29.4000   29.1750   46.1200 H   0  0  0  0  0  0  0  0  0  0  0  0
   34.9830   28.2160   49.5720 O   0  0  0  0  0  0  0  0  0  0  0  0
   37.4540   30.2710   51.2380 C   0  0  0  0  0  0  0  0  0  0  0  0
   37.9690   30.9840   50.1480 C   0  0  0  0  0  0  0  0  0  0  0  0
   37.4220   30.7060   48.8960 C   0  0  0  0  0  0  0  0  0  0  0  0
   36.4340   29.7690   48.8150 N   0  0  0  0  0  0  0  0  0  0  0  0
   35.9730   29.1100   49.8840 C   0  0  0  0  0  0  0  0  0  0  0  0
   36.4900   29.3690   51.0950 N   0  0  0  0  0  0  0  0  0  0  0  0
   37.9000   30.5100   52.1990 H   0  0  0  0  0  0  0  0  0  0  0  0
   38.7530   31.7220   50.2450 H   0  0  0  0  0  0  0  0  0  0  0  0
   37.9060   31.4190   47.6620 C   0  0  0  0  0  0  0  0  0  0  0  0
   36.8850   31.2550   46.7180 F   0  0  0  0  0  0  0  0  0  0  0  0
   38.1090   32.7660   47.9430 F   0  0  0  0  0  0  0  0  0  0  0  0
   39.0720   30.8290   47.2720 F   0  0  0  0  0  0  0  0  0  0  0  0
  1  2  1  0  0  0  0
  1 16  1  0  0  0  0
  3  1  1  0  0  0  0
  4  1  1  0  0  0  0
  4  5  1  0  0  0  0
  6  4  1  0  0  0  0
  7  4  1  0  0  0  0
  7  8  1  0  0  0  0
  8 13  1  0  0  0  0
  9  8  2  0  0  0  0
  9 14  1  0  0  0  0
 10  9  1  0  0  0  0
 11 12  1  0  0  0  0
 11 10  2  0  0  0  0
 12  7  2  0  0  0  0
 15 11  1  0  0  0  0
 16 21  1  0  0  0  0
 17 23  1  0  0  0  0
 18 24  1  0  0  0  0
 18 17  2  0  0  0  0
 19 18  1  0  0  0  0
 20 19  2  0  0  0  0
 20 21  1  0  0  0  0
 21 22  2  0  0  0  0
 22 17  1  0  0  0  0
 25 27  1  0  0  0  0
 25 19  1  0  0  0  0
 26 25  1  0  0  0  0
 28 25  1  0  0  0  0
M  END
>  <minimizedAffinity>
-5.17801857

>  <minimizedRMSD>
0.638406694

$$$$
