
 OpenBabel03272508393D

 27 28  0  0  1  0  0  0  0  0999 V2000
   36.4800   30.1500   47.7100 N   0  0  0  0  0  0  0  0  0  0  0  0
   36.3210   29.5640   49.0140 C   0  0  0  0  0  0  0  0  0  0  0  0
   36.8190   30.4250   50.1450 C   0  0  2  0  0  0  0  0  0  0  0  0
   38.0160   31.1360   49.8620 N   0  0  0  0  0  0  0  0  0  0  0  0
   37.9310   31.8170   48.5670 C   0  0  0  0  0  0  0  0  0  0  0  0
   37.8000   30.6550   47.5810 C   0  0  0  0  0  0  0  0  0  0  0  0
   36.9400   28.6270   48.9950 H   0  0  0  0  0  0  0  0  0  0  0  0
   35.2990   29.2360   49.2510 H   0  0  0  0  0  0  0  0  0  0  0  0
   36.0180   31.1620   50.3700 H   0  0  0  0  0  0  0  0  0  0  0  0
   38.2080   31.7780   50.6470 H   0  0  0  0  0  0  0  0  0  0  0  0
   38.8010   32.4420   48.3710 H   0  0  0  0  0  0  0  0  0  0  0  0
   37.0010   32.4440   48.5620 H   0  0  0  0  0  0  0  0  0  0  0  0
   38.5900   29.9190   47.8320 H   0  0  0  0  0  0  0  0  0  0  0  0
   38.0500   31.0050   46.5370 H   0  0  0  0  0  0  0  0  0  0  0  0
   35.4610   30.1990   46.7300 C   0  0  0  0  0  0  0  0  0  0  0  0
   35.7220   30.1730   45.3490 C   0  0  0  0  0  0  0  0  0  0  0  0
   34.6540   30.2260   44.4620 C   0  0  0  0  0  0  0  0  0  0  0  0
   33.3900   30.3020   44.9630 N   0  0  0  0  0  0  0  0  0  0  0  0
   33.1740   30.3250   46.3060 C   0  0  0  0  0  0  0  0  0  0  0  0
   34.1860   30.2740   47.1880 N   0  0  0  0  0  0  0  0  0  0  0  0
   36.7280   30.1130   45.0180 H   0  0  0  0  0  0  0  0  0  0  0  0
   34.8100   30.2080   43.4060 H   0  0  0  0  0  0  0  0  0  0  0  0
   32.1370   30.3860   46.6060 H   0  0  0  0  0  0  0  0  0  0  0  0
   36.9860   29.5940   51.3840 C   0  0  0  0  0  0  0  0  0  0  0  0
   37.7420   28.4820   51.0350 F   0  0  0  0  0  0  0  0  0  0  0  0
   35.7190   29.1100   51.7310 F   0  0  0  0  0  0  0  0  0  0  0  0
   37.5040   30.2620   52.4500 F   0  0  0  0  0  0  0  0  0  0  0  0
  1  2  1  0  0  0  0
  2  8  1  0  0  0  0
  2  3  1  0  0  0  0
  3  9  1  1  0  0  0
  3 24  1  0  0  0  0
  4  3  1  0  0  0  0
  4 10  1  0  0  0  0
  5  4  1  0  0  0  0
  6  1  1  0  0  0  0
  6 13  1  0  0  0  0
  6  5  1  0  0  0  0
  7  2  1  0  0  0  0
 11  5  1  0  0  0  0
 12  5  1  0  0  0  0
 14  6  1  0  0  0  0
 15 20  1  0  0  0  0
 15  1  1  0  0  0  0
 16 15  2  0  0  0  0
 17 18  2  0  0  0  0
 17 16  1  0  0  0  0
 18 19  1  0  0  0  0
 19 23  1  0  0  0  0
 19 20  2  0  0  0  0
 21 16  1  0  0  0  0
 22 17  1  0  0  0  0
 24 26  1  0  0  0  0
 24 27  1  0  0  0  0
 25 24  1  0  0  0  0
M  END
>  <minimizedAffinity>
-4.97525072

>  <minimizedRMSD>
2.15450191

$$$$
