
 OpenBabel03272507593D

 27 28  0  0  0  0  0  0  0  0999 V2000
   38.5930   27.4020   32.3450 C   0  0  0  0  0  0  0  0  0  0  0  0
   38.9150   26.4880   33.3770 C   0  0  0  0  0  0  0  0  0  0  0  0
   38.1220   25.3450   33.5000 C   0  0  0  0  0  0  0  0  0  0  0  0
   37.0910   25.1690   32.6300 N   0  0  0  0  0  0  0  0  0  0  0  0
   36.8280   26.0870   31.6520 C   0  0  0  0  0  0  0  0  0  0  0  0
   37.5680   27.1920   31.5060 N   0  0  0  0  0  0  0  0  0  0  0  0
   35.7040   25.6830   30.8690 N   0  0  0  0  0  0  0  0  0  0  0  0
   39.1840   28.2990   32.2170 H   0  0  0  0  0  0  0  0  0  0  0  0
   35.7970   24.7810   30.3420 H   0  0  0  0  0  0  0  0  0  0  0  0
   34.9030   26.3320   30.9030 H   0  0  0  0  0  0  0  0  0  0  0  0
   38.4150   24.3690   34.5520 C   0  0  0  0  0  0  0  0  0  0  0  0
   38.9550   23.1930   34.0360 C   0  0  0  0  0  0  0  0  0  0  0  0
   39.2870   22.1670   34.9120 C   0  0  0  0  0  0  0  0  0  0  0  0
   39.0800   22.3260   36.2680 C   0  0  0  0  0  0  0  0  0  0  0  0
   38.5460   23.5030   36.7350 C   0  0  0  0  0  0  0  0  0  0  0  0
   38.2310   24.4810   35.8790 N   0  0  0  0  0  0  0  0  0  0  0  0
   39.1670   22.9380   33.0080 H   0  0  0  0  0  0  0  0  0  0  0  0
   39.7060   21.2280   34.6040 H   0  0  0  0  0  0  0  0  0  0  0  0
   39.3030   21.5960   37.0190 H   0  0  0  0  0  0  0  0  0  0  0  0
   38.2900   23.7550   38.1870 C   0  0  0  0  0  0  0  0  0  0  0  0
   37.9860   25.0750   38.4480 F   0  0  0  0  0  0  0  0  0  0  0  0
   37.2840   22.9370   38.6650 F   0  0  0  0  0  0  0  0  0  0  0  0
   39.4300   23.4620   38.9380 F   0  0  0  0  0  0  0  0  0  0  0  0
   40.0690   26.7730   34.2820 C   0  0  0  0  0  0  0  0  0  0  0  0
   40.8570   25.6560   34.4700 F   0  0  0  0  0  0  0  0  0  0  0  0
   40.8280   27.7510   33.7020 F   0  0  0  0  0  0  0  0  0  0  0  0
   39.6590   27.2230   35.5220 F   0  0  0  0  0  0  0  0  0  0  0  0
  1  2  1  0  0  0  0
  2  3  2  0  0  0  0
  2 24  1  0  0  0  0
  3 11  1  0  0  0  0
  4  3  1  0  0  0  0
  5  4  2  0  0  0  0
  6  5  1  0  0  0  0
  6  1  2  0  0  0  0
  7 10  1  0  0  0  0
  7  5  1  0  0  0  0
  8  1  1  0  0  0  0
  9  7  1  0  0  0  0
 11 16  1  0  0  0  0
 12 11  2  0  0  0  0
 12 13  1  0  0  0  0
 13 14  2  0  0  0  0
 14 15  1  0  0  0  0
 14 19  1  0  0  0  0
 15 20  1  0  0  0  0
 16 15  2  0  0  0  0
 17 12  1  0  0  0  0
 18 13  1  0  0  0  0
 20 21  1  0  0  0  0
 20 22  1  0  0  0  0
 20 23  1  0  0  0  0
 24 25  1  0  0  0  0
 24 27  1  0  0  0  0
 26 24  1  0  0  0  0
M  END
>  <minimizedAffinity>
-5.84020758

$$$$

 OpenBabel03272507593D

 27 28  0  0  0  0  0  0  0  0999 V2000
   37.2490   26.7720   33.5850 C   0  0  0  0  0  0  0  0  0  0  0  0
   38.0540   26.1490   34.5690 C   0  0  0  0  0  0  0  0  0  0  0  0
   38.2870   24.7780   34.4390 C   0  0  0  0  0  0  0  0  0  0  0  0
   37.7350   24.1180   33.3860 N   0  0  0  0  0  0  0  0  0  0  0  0
   36.9660   24.7730   32.4660 C   0  0  0  0  0  0  0  0  0  0  0  0
   36.7230   26.0850   32.5590 N   0  0  0  0  0  0  0  0  0  0  0  0
   36.5020   23.8720   31.4600 N   0  0  0  0  0  0  0  0  0  0  0  0
   37.0450   27.8320   33.6490 H   0  0  0  0  0  0  0  0  0  0  0  0
   37.2350   23.4010   30.8760 H   0  0  0  0  0  0  0  0  0  0  0  0
   35.4770   23.7770   31.4090 H   0  0  0  0  0  0  0  0  0  0  0  0
   39.1140   24.0870   35.4320 C   0  0  0  0  0  0  0  0  0  0  0  0
   38.3530   23.5870   36.4860 C   0  0  0  0  0  0  0  0  0  0  0  0
   38.9940   22.9030   37.5120 C   0  0  0  0  0  0  0  0  0  0  0  0
   40.3640   22.7320   37.4720 C   0  0  0  0  0  0  0  0  0  0  0  0
   41.0770   23.2420   36.4130 C   0  0  0  0  0  0  0  0  0  0  0  0
   40.4450   23.8970   35.4340 N   0  0  0  0  0  0  0  0  0  0  0  0
   37.2860   23.6490   36.6410 H   0  0  0  0  0  0  0  0  0  0  0  0
   38.4900   22.4850   38.3610 H   0  0  0  0  0  0  0  0  0  0  0  0
   40.9470   22.2220   38.2120 H   0  0  0  0  0  0  0  0  0  0  0  0
   42.5610   23.1010   36.2950 C   0  0  0  0  0  0  0  0  0  0  0  0
   43.2420   24.1010   36.9570 F   0  0  0  0  0  0  0  0  0  0  0  0
   42.9820   21.8650   36.7480 F   0  0  0  0  0  0  0  0  0  0  0  0
   42.9500   23.1850   34.9560 F   0  0  0  0  0  0  0  0  0  0  0  0
   38.6140   26.9630   35.6880 C   0  0  0  0  0  0  0  0  0  0  0  0
   39.9890   27.0530   35.6140 F   0  0  0  0  0  0  0  0  0  0  0  0
   38.0880   28.2220   35.5980 F   0  0  0  0  0  0  0  0  0  0  0  0
   38.2840   26.4440   36.9250 F   0  0  0  0  0  0  0  0  0  0  0  0
  1  8  1  0  0  0  0
  1  2  1  0  0  0  0
  2 24  1  0  0  0  0
  3  2  2  0  0  0  0
  3 11  1  0  0  0  0
  4  3  1  0  0  0  0
  5  6  1  0  0  0  0
  5  4  2  0  0  0  0
  6  1  2  0  0  0  0
  7  5  1  0  0  0  0
  9  7  1  0  0  0  0
 10  7  1  0  0  0  0
 11 16  2  0  0  0  0
 11 12  1  0  0  0  0
 12 17  1  0  0  0  0
 12 13  2  0  0  0  0
 13 18  1  0  0  0  0
 14 13  1  0  0  0  0
 14 19  1  0  0  0  0
 15 14  2  0  0  0  0
 16 15  1  0  0  0  0
 20 15  1  0  0  0  0
 20 22  1  0  0  0  0
 20 21  1  0  0  0  0
 23 20  1  0  0  0  0
 24 27  1  0  0  0  0
 25 24  1  0  0  0  0
 26 24  1  0  0  0  0
M  END
>  <minimizedAffinity>
-5.54226732

$$$$

 OpenBabel03272507593D

 27 28  0  0  0  0  0  0  0  0999 V2000
   40.9670   23.0540   36.4160 C   0  0  0  0  0  0  0  0  0  0  0  0
   40.3160   24.0190   35.6100 C   0  0  0  0  0  0  0  0  0  0  0  0
   39.0510   24.4510   36.0140 C   0  0  0  0  0  0  0  0  0  0  0  0
   38.5140   23.9290   37.1490 N   0  0  0  0  0  0  0  0  0  0  0  0
   39.1900   22.9990   37.8880 C   0  0  0  0  0  0  0  0  0  0  0  0
   40.4030   22.5640   37.5310 N   0  0  0  0  0  0  0  0  0  0  0  0
   38.4260   22.6050   39.0280 N   0  0  0  0  0  0  0  0  0  0  0  0
   41.9480   22.6940   36.1380 H   0  0  0  0  0  0  0  0  0  0  0  0
   38.1990   23.3550   39.7250 H   0  0  0  0  0  0  0  0  0  0  0  0
   38.1720   21.6060   39.0490 H   0  0  0  0  0  0  0  0  0  0  0  0
   38.3360   25.4480   35.2130 C   0  0  0  0  0  0  0  0  0  0  0  0
   38.3050   26.6930   35.8390 C   0  0  0  0  0  0  0  0  0  0  0  0
   37.6620   27.7480   35.2030 C   0  0  0  0  0  0  0  0  0  0  0  0
   37.0680   27.5490   33.9720 C   0  0  0  0  0  0  0  0  0  0  0  0
   37.1220   26.3040   33.3900 C   0  0  0  0  0  0  0  0  0  0  0  0
   37.7460   25.3000   34.0150 N   0  0  0  0  0  0  0  0  0  0  0  0
   38.7240   26.9840   36.7910 H   0  0  0  0  0  0  0  0  0  0  0  0
   37.5880   28.7370   35.6090 H   0  0  0  0  0  0  0  0  0  0  0  0
   36.5500   28.2950   33.4060 H   0  0  0  0  0  0  0  0  0  0  0  0
   36.5050   26.0050   32.0610 C   0  0  0  0  0  0  0  0  0  0  0  0
   37.4230   26.0400   31.0320 F   0  0  0  0  0  0  0  0  0  0  0  0
   35.8590   24.7830   32.0750 F   0  0  0  0  0  0  0  0  0  0  0  0
   35.5350   26.9620   31.7510 F   0  0  0  0  0  0  0  0  0  0  0  0
   40.9910   24.5300   34.3800 C   0  0  0  0  0  0  0  0  0  0  0  0
   41.0270   25.9100   34.3550 F   0  0  0  0  0  0  0  0  0  0  0  0
   42.2750   24.0610   34.3780 F   0  0  0  0  0  0  0  0  0  0  0  0
   40.3700   24.0950   33.2250 F   0  0  0  0  0  0  0  0  0  0  0  0
  1  6  1  0  0  0  0
  2  3  1  0  0  0  0
  2  1  2  0  0  0  0
  3  4  2  0  0  0  0
  4  5  1  0  0  0  0
  5  7  1  0  0  0  0
  6  5  2  0  0  0  0
  7 10  1  0  0  0  0
  7  9  1  0  0  0  0
  8  1  1  0  0  0  0
 11 12  1  0  0  0  0
 11  3  1  0  0  0  0
 12 17  1  0  0  0  0
 13 18  1  0  0  0  0
 13 12  2  0  0  0  0
 14 13  1  0  0  0  0
 15 14  2  0  0  0  0
 15 16  1  0  0  0  0
 16 11  2  0  0  0  0
 19 14  1  0  0  0  0
 20 22  1  0  0  0  0
 20 15  1  0  0  0  0
 21 20  1  0  0  0  0
 23 20  1  0  0  0  0
 24  2  1  0  0  0  0
 25 24  1  0  0  0  0
 26 24  1  0  0  0  0
 27 24  1  0  0  0  0
M  END
>  <minimizedAffinity>
-5.50040388

$$$$

 OpenBabel03272507593D

 27 28  0  0  0  0  0  0  0  0999 V2000
   36.5320   25.5940   31.8620 C   0  0  0  0  0  0  0  0  0  0  0  0
   37.3190   25.3880   33.0210 C   0  0  0  0  0  0  0  0  0  0  0  0
   37.5540   24.0690   33.4170 C   0  0  0  0  0  0  0  0  0  0  0  0
   37.0190   23.0600   32.6780 N   0  0  0  0  0  0  0  0  0  0  0  0
   36.2660   23.3200   31.5670 C   0  0  0  0  0  0  0  0  0  0  0  0
   36.0230   24.5700   31.1590 N   0  0  0  0  0  0  0  0  0  0  0  0
   35.8190   22.1060   30.9640 N   0  0  0  0  0  0  0  0  0  0  0  0
   36.3270   26.6000   31.5220 H   0  0  0  0  0  0  0  0  0  0  0  0
   36.5620   21.4540   30.6110 H   0  0  0  0  0  0  0  0  0  0  0  0
   34.7950   21.9930   30.9360 H   0  0  0  0  0  0  0  0  0  0  0  0
   38.3630   23.8040   34.6090 C   0  0  0  0  0  0  0  0  0  0  0  0
   39.6520   23.3880   34.2820 C   0  0  0  0  0  0  0  0  0  0  0  0
   40.5440   23.0970   35.3070 C   0  0  0  0  0  0  0  0  0  0  0  0
   40.1440   23.2230   36.6220 C   0  0  0  0  0  0  0  0  0  0  0  0
   38.8630   23.6370   36.9010 C   0  0  0  0  0  0  0  0  0  0  0  0
   38.0160   23.9130   35.9030 N   0  0  0  0  0  0  0  0  0  0  0  0
   40.0910   23.2480   33.3050 H   0  0  0  0  0  0  0  0  0  0  0  0
   41.5530   22.7710   35.1480 H   0  0  0  0  0  0  0  0  0  0  0  0
   40.7550   23.0230   37.4780 H   0  0  0  0  0  0  0  0  0  0  0  0
   38.3500   23.7980   38.2970 C   0  0  0  0  0  0  0  0  0  0  0  0
   37.9310   25.0850   38.5610 F   0  0  0  0  0  0  0  0  0  0  0  0
   37.3270   22.9060   38.5590 F   0  0  0  0  0  0  0  0  0  0  0  0
   39.3630   23.5210   39.2190 F   0  0  0  0  0  0  0  0  0  0  0  0
   37.8610   26.5640   33.7640 C   0  0  0  0  0  0  0  0  0  0  0  0
   39.2300   26.4830   33.9200 F   0  0  0  0  0  0  0  0  0  0  0  0
   37.5700   27.6890   33.0430 F   0  0  0  0  0  0  0  0  0  0  0  0
   37.2920   26.6960   35.0160 F   0  0  0  0  0  0  0  0  0  0  0  0
  1  2  1  0  0  0  0
  2  3  2  0  0  0  0
  2 24  1  0  0  0  0
  3 11  1  0  0  0  0
  4  3  1  0  0  0  0
  5  4  2  0  0  0  0
  6  5  1  0  0  0  0
  6  1  2  0  0  0  0
  7  5  1  0  0  0  0
  8  1  1  0  0  0  0
  9  7  1  0  0  0  0
 10  7  1  0  0  0  0
 11 16  1  0  0  0  0
 12 11  2  0  0  0  0
 12 13  1  0  0  0  0
 13 14  2  0  0  0  0
 14 15  1  0  0  0  0
 14 19  1  0  0  0  0
 15 20  1  0  0  0  0
 16 15  2  0  0  0  0
 17 12  1  0  0  0  0
 18 13  1  0  0  0  0
 20 22  1  0  0  0  0
 20 21  1  0  0  0  0
 20 23  1  0  0  0  0
 24 25  1  0  0  0  0
 24 27  1  0  0  0  0
 26 24  1  0  0  0  0
M  END
>  <minimizedAffinity>
-5.41440821

$$$$

 OpenBabel03272507593D

 27 28  0  0  0  0  0  0  0  0999 V2000
   35.7960   22.6580   31.5160 C   0  0  0  0  0  0  0  0  0  0  0  0
   36.6550   22.5400   32.6350 C   0  0  0  0  0  0  0  0  0  0  0  0
   37.3440   23.6840   33.0450 C   0  0  0  0  0  0  0  0  0  0  0  0
   37.1560   24.8410   32.3550 N   0  0  0  0  0  0  0  0  0  0  0  0
   36.3130   24.8950   31.2810 C   0  0  0  0  0  0  0  0  0  0  0  0
   35.6380   23.8190   30.8620 N   0  0  0  0  0  0  0  0  0  0  0  0
   36.2830   26.2110   30.7270 N   0  0  0  0  0  0  0  0  0  0  0  0
   35.2440   21.7950   31.1670 H   0  0  0  0  0  0  0  0  0  0  0  0
   35.9350   26.9770   31.3520 H   0  0  0  0  0  0  0  0  0  0  0  0
   36.6120   26.2720   29.7520 H   0  0  0  0  0  0  0  0  0  0  0  0
   38.2450   23.6120   34.1980 C   0  0  0  0  0  0  0  0  0  0  0  0
   39.5710   23.4250   33.8120 C   0  0  0  0  0  0  0  0  0  0  0  0
   40.5490   23.3380   34.7940 C   0  0  0  0  0  0  0  0  0  0  0  0
   40.1970   23.4350   36.1260 C   0  0  0  0  0  0  0  0  0  0  0  0
   38.8770   23.6190   36.4630 C   0  0  0  0  0  0  0  0  0  0  0  0
   37.9470   23.7020   35.5050 N   0  0  0  0  0  0  0  0  0  0  0  0
   39.9800   23.3330   32.8160 H   0  0  0  0  0  0  0  0  0  0  0  0
   41.5920   23.1940   34.5900 H   0  0  0  0  0  0  0  0  0  0  0  0
   40.8760   23.3800   36.9520 H   0  0  0  0  0  0  0  0  0  0  0  0
   38.4120   23.7340   37.8800 C   0  0  0  0  0  0  0  0  0  0  0  0
   38.0620   25.0250   38.2180 F   0  0  0  0  0  0  0  0  0  0  0  0
   37.3560   22.8790   38.1290 F   0  0  0  0  0  0  0  0  0  0  0  0
   39.4360   23.3660   38.7560 F   0  0  0  0  0  0  0  0  0  0  0  0
   36.7920   21.2220   33.3240 C   0  0  0  0  0  0  0  0  0  0  0  0
   35.9410   20.2760   32.7890 F   0  0  0  0  0  0  0  0  0  0  0  0
   38.0800   20.7930   33.1610 F   0  0  0  0  0  0  0  0  0  0  0  0
   36.5360   21.3130   34.6790 F   0  0  0  0  0  0  0  0  0  0  0  0
  1  2  1  0  0  0  0
  2  3  2  0  0  0  0
  2 24  1  0  0  0  0
  3 11  1  0  0  0  0
  4  3  1  0  0  0  0
  5  4  2  0  0  0  0
  6  5  1  0  0  0  0
  6  1  2  0  0  0  0
  7  5  1  0  0  0  0
  7  9  1  0  0  0  0
  8  1  1  0  0  0  0
 10  7  1  0  0  0  0
 11 16  1  0  0  0  0
 12 11  2  0  0  0  0
 12 13  1  0  0  0  0
 13 14  2  0  0  0  0
 14 15  1  0  0  0  0
 14 19  1  0  0  0  0
 15 20  1  0  0  0  0
 16 15  2  0  0  0  0
 17 12  1  0  0  0  0
 18 13  1  0  0  0  0
 20 22  1  0  0  0  0
 20 21  1  0  0  0  0
 20 23  1  0  0  0  0
 24 27  1  0  0  0  0
 25 24  1  0  0  0  0
 26 24  1  0  0  0  0
M  END
>  <minimizedAffinity>
-5.3838582

$$$$

 OpenBabel03272507593D

 27 28  0  0  0  0  0  0  0  0999 V2000
   36.9450   26.9940   33.3620 C   0  0  0  0  0  0  0  0  0  0  0  0
   37.9950   26.4580   34.1460 C   0  0  0  0  0  0  0  0  0  0  0  0
   38.7160   25.3850   33.6160 C   0  0  0  0  0  0  0  0  0  0  0  0
   38.3760   24.9150   32.3860 N   0  0  0  0  0  0  0  0  0  0  0  0
   37.3520   25.4730   31.6740 C   0  0  0  0  0  0  0  0  0  0  0  0
   36.6420   26.5010   32.1510 N   0  0  0  0  0  0  0  0  0  0  0  0
   37.1880   24.8110   30.4190 N   0  0  0  0  0  0  0  0  0  0  0  0
   36.3630   27.8250   33.7370 H   0  0  0  0  0  0  0  0  0  0  0  0
   38.0000   24.8520   29.7560 H   0  0  0  0  0  0  0  0  0  0  0  0
   36.2730   24.3540   30.2920 H   0  0  0  0  0  0  0  0  0  0  0  0
   39.8110   24.7960   34.3900 C   0  0  0  0  0  0  0  0  0  0  0  0
   41.0550   25.2660   33.9720 C   0  0  0  0  0  0  0  0  0  0  0  0
   42.1970   24.8000   34.6110 C   0  0  0  0  0  0  0  0  0  0  0  0
   42.0850   23.8860   35.6390 C   0  0  0  0  0  0  0  0  0  0  0  0
   40.8390   23.4490   36.0200 C   0  0  0  0  0  0  0  0  0  0  0  0
   39.7490   23.9070   35.3960 N   0  0  0  0  0  0  0  0  0  0  0  0
   41.2840   25.9730   33.1880 H   0  0  0  0  0  0  0  0  0  0  0  0
   43.1930   25.1050   34.3550 H   0  0  0  0  0  0  0  0  0  0  0  0
   42.9030   23.4690   36.1910 H   0  0  0  0  0  0  0  0  0  0  0  0
   40.6300   22.4610   37.1240 C   0  0  0  0  0  0  0  0  0  0  0  0
   39.6830   21.5080   36.8090 F   0  0  0  0  0  0  0  0  0  0  0  0
   41.8170   21.8460   37.4730 F   0  0  0  0  0  0  0  0  0  0  0  0
   40.1660   23.1080   38.2720 F   0  0  0  0  0  0  0  0  0  0  0  0
   38.2890   27.0460   35.4870 C   0  0  0  0  0  0  0  0  0  0  0  0
   37.5740   28.2080   35.7010 F   0  0  0  0  0  0  0  0  0  0  0  0
   37.9290   26.1310   36.4370 F   0  0  0  0  0  0  0  0  0  0  0  0
   39.6310   27.3310   35.6480 F   0  0  0  0  0  0  0  0  0  0  0  0
  1  8  1  0  0  0  0
  1  2  1  0  0  0  0
  2 24  1  0  0  0  0
  3  2  2  0  0  0  0
  3 11  1  0  0  0  0
  4  3  1  0  0  0  0
  5  6  1  0  0  0  0
  5  4  2  0  0  0  0
  6  1  2  0  0  0  0
  7  5  1  0  0  0  0
  9  7  1  0  0  0  0
 10  7  1  0  0  0  0
 11 16  1  0  0  0  0
 12 11  2  0  0  0  0
 12 13  1  0  0  0  0
 13 14  2  0  0  0  0
 14 15  1  0  0  0  0
 14 19  1  0  0  0  0
 15 20  1  0  0  0  0
 16 15  2  0  0  0  0
 17 12  1  0  0  0  0
 18 13  1  0  0  0  0
 20 22  1  0  0  0  0
 20 23  1  0  0  0  0
 21 20  1  0  0  0  0
 24 27  1  0  0  0  0
 24 25  1  0  0  0  0
 24 26  1  0  0  0  0
M  END
>  <minimizedAffinity>
-5.30964899

$$$$

 OpenBabel03272507593D

 27 28  0  0  0  0  0  0  0  0999 V2000
   36.1610   20.9630   33.4900 C   0  0  0  0  0  0  0  0  0  0  0  0
   37.2820   21.8250   33.5520 C   0  0  0  0  0  0  0  0  0  0  0  0
   37.6980   22.2550   34.8140 C   0  0  0  0  0  0  0  0  0  0  0  0
   37.0110   21.8280   35.9080 N   0  0  0  0  0  0  0  0  0  0  0  0
   35.9350   20.9950   35.7870 C   0  0  0  0  0  0  0  0  0  0  0  0
   35.5110   20.5640   34.5940 N   0  0  0  0  0  0  0  0  0  0  0  0
   35.3850   20.6890   37.0680 N   0  0  0  0  0  0  0  0  0  0  0  0
   35.8080   20.6070   32.5310 H   0  0  0  0  0  0  0  0  0  0  0  0
   36.0120   20.1840   37.7410 H   0  0  0  0  0  0  0  0  0  0  0  0
   34.4110   20.9990   37.2020 H   0  0  0  0  0  0  0  0  0  0  0  0
   38.8530   23.1480   34.9310 C   0  0  0  0  0  0  0  0  0  0  0  0
   40.0260   22.4490   35.2070 C   0  0  0  0  0  0  0  0  0  0  0  0
   41.2130   23.1580   35.3470 C   0  0  0  0  0  0  0  0  0  0  0  0
   41.2130   24.5320   35.2120 C   0  0  0  0  0  0  0  0  0  0  0  0
   40.0330   25.1830   34.9390 C   0  0  0  0  0  0  0  0  0  0  0  0
   38.8990   24.4860   34.8070 N   0  0  0  0  0  0  0  0  0  0  0  0
   40.1670   21.3860   35.3360 H   0  0  0  0  0  0  0  0  0  0  0  0
   42.1610   22.7030   35.5600 H   0  0  0  0  0  0  0  0  0  0  0  0
   42.0720   25.1640   35.3020 H   0  0  0  0  0  0  0  0  0  0  0  0
   39.9460   26.6670   34.7790 C   0  0  0  0  0  0  0  0  0  0  0  0
   39.3700   27.2840   35.8700 F   0  0  0  0  0  0  0  0  0  0  0  0
   41.1910   27.2150   34.5310 F   0  0  0  0  0  0  0  0  0  0  0  0
   39.1450   26.9900   33.6800 F   0  0  0  0  0  0  0  0  0  0  0  0
   37.9670   22.2370   32.2910 C   0  0  0  0  0  0  0  0  0  0  0  0
   39.2800   21.8110   32.2610 F   0  0  0  0  0  0  0  0  0  0  0  0
   37.3000   21.6660   31.2420 F   0  0  0  0  0  0  0  0  0  0  0  0
   37.9560   23.6070   32.1150 F   0  0  0  0  0  0  0  0  0  0  0  0
  1  2  2  0  0  0  0
  1  6  1  0  0  0  0
  2  3  1  0  0  0  0
  3 11  1  0  0  0  0
  3  4  2  0  0  0  0
  5  4  1  0  0  0  0
  5  7  1  0  0  0  0
  6  5  2  0  0  0  0
  7 10  1  0  0  0  0
  7  9  1  0  0  0  0
  8  1  1  0  0  0  0
 11 12  1  0  0  0  0
 12 17  1  0  0  0  0
 12 13  2  0  0  0  0
 13 18  1  0  0  0  0
 14 19  1  0  0  0  0
 14 13  1  0  0  0  0
 15 14  2  0  0  0  0
 16 11  2  0  0  0  0
 16 15  1  0  0  0  0
 20 15  1  0  0  0  0
 20 21  1  0  0  0  0
 22 20  1  0  0  0  0
 23 20  1  0  0  0  0
 24  2  1  0  0  0  0
 25 24  1  0  0  0  0
 26 24  1  0  0  0  0
 27 24  1  0  0  0  0
M  END
>  <minimizedAffinity>
-5.24879169

$$$$

 OpenBabel03272507593D

 27 28  0  0  0  0  0  0  0  0999 V2000
   36.8570   23.3390   31.6790 C   0  0  0  0  0  0  0  0  0  0  0  0
   37.5920   23.5400   32.8720 C   0  0  0  0  0  0  0  0  0  0  0  0
   37.8070   22.4310   33.6930 C   0  0  0  0  0  0  0  0  0  0  0  0
   37.3050   21.2270   33.3090 N   0  0  0  0  0  0  0  0  0  0  0  0
   36.6020   21.0930   32.1450 C   0  0  0  0  0  0  0  0  0  0  0  0
   36.3780   22.1340   31.3350 N   0  0  0  0  0  0  0  0  0  0  0  0
   36.1810   19.7410   31.9610 N   0  0  0  0  0  0  0  0  0  0  0  0
   36.6680   24.1730   31.0150 H   0  0  0  0  0  0  0  0  0  0  0  0
   36.9380   19.0200   31.8750 H   0  0  0  0  0  0  0  0  0  0  0  0
   35.1590   19.6110   31.9290 H   0  0  0  0  0  0  0  0  0  0  0  0
   38.5630   22.5880   34.9380 C   0  0  0  0  0  0  0  0  0  0  0  0
   39.8870   22.1780   34.7990 C   0  0  0  0  0  0  0  0  0  0  0  0
   40.7350   22.2650   35.8960 C   0  0  0  0  0  0  0  0  0  0  0  0
   40.2580   22.7520   37.0970 C   0  0  0  0  0  0  0  0  0  0  0  0
   38.9450   23.1470   37.1910 C   0  0  0  0  0  0  0  0  0  0  0  0
   38.1410   23.0560   36.1250 N   0  0  0  0  0  0  0  0  0  0  0  0
   40.3860   21.7810   33.9270 H   0  0  0  0  0  0  0  0  0  0  0  0
   41.7670   21.9720   35.8810 H   0  0  0  0  0  0  0  0  0  0  0  0
   40.8320   22.8580   37.9950 H   0  0  0  0  0  0  0  0  0  0  0  0
   38.3500   23.6850   38.4530 C   0  0  0  0  0  0  0  0  0  0  0  0
   37.9030   24.9830   38.3160 F   0  0  0  0  0  0  0  0  0  0  0  0
   37.3210   22.8780   38.9020 F   0  0  0  0  0  0  0  0  0  0  0  0
   39.3080   23.7080   39.4690 F   0  0  0  0  0  0  0  0  0  0  0  0
   38.1010   24.9040   33.2040 C   0  0  0  0  0  0  0  0  0  0  0  0
   37.8620   25.8000   32.1810 F   0  0  0  0  0  0  0  0  0  0  0  0
   37.4480   25.3370   34.3250 F   0  0  0  0  0  0  0  0  0  0  0  0
   39.4570   24.9040   33.4670 F   0  0  0  0  0  0  0  0  0  0  0  0
  1  2  1  0  0  0  0
  2 24  1  0  0  0  0
  2  3  2  0  0  0  0
  3 11  1  0  0  0  0
  4  3  1  0  0  0  0
  5  4  2  0  0  0  0
  6  1  2  0  0  0  0
  6  5  1  0  0  0  0
  7  5  1  0  0  0  0
  8  1  1  0  0  0  0
  9  7  1  0  0  0  0
 10  7  1  0  0  0  0
 11 16  1  0  0  0  0
 12 11  2  0  0  0  0
 12 13  1  0  0  0  0
 13 14  2  0  0  0  0
 14 15  1  0  0  0  0
 14 19  1  0  0  0  0
 15 20  1  0  0  0  0
 16 15  2  0  0  0  0
 17 12  1  0  0  0  0
 18 13  1  0  0  0  0
 20 22  1  0  0  0  0
 20 23  1  0  0  0  0
 21 20  1  0  0  0  0
 24 27  1  0  0  0  0
 24 26  1  0  0  0  0
 25 24  1  0  0  0  0
M  END
>  <minimizedAffinity>
-5.22611046

$$$$

 OpenBabel03272507593D

 27 28  0  0  0  0  0  0  0  0999 V2000
   38.2090   25.4380   36.2690 C   0  0  0  0  0  0  0  0  0  0  0  0
   38.1340   24.6730   35.0800 C   0  0  0  0  0  0  0  0  0  0  0  0
   38.1290   23.2820   35.2050 C   0  0  0  0  0  0  0  0  0  0  0  0
   38.1950   22.7380   36.4500 N   0  0  0  0  0  0  0  0  0  0  0  0
   38.2660   23.5280   37.5630 C   0  0  0  0  0  0  0  0  0  0  0  0
   38.2720   24.8630   37.4790 N   0  0  0  0  0  0  0  0  0  0  0  0
   38.3260   22.7310   38.7460 N   0  0  0  0  0  0  0  0  0  0  0  0
   38.2150   26.5180   36.2140 H   0  0  0  0  0  0  0  0  0  0  0  0
   37.5030   22.1090   38.9370 H   0  0  0  0  0  0  0  0  0  0  0  0
   39.1870   22.8510   39.3010 H   0  0  0  0  0  0  0  0  0  0  0  0
   38.0520   22.4470   34.0040 C   0  0  0  0  0  0  0  0  0  0  0  0
   39.2920   21.9100   33.6630 C   0  0  0  0  0  0  0  0  0  0  0  0
   39.3840   21.0930   32.5430 C   0  0  0  0  0  0  0  0  0  0  0  0
   38.2570   20.8270   31.7920 C   0  0  0  0  0  0  0  0  0  0  0  0
   37.0530   21.3770   32.1630 C   0  0  0  0  0  0  0  0  0  0  0  0
   36.9810   22.1610   33.2440 N   0  0  0  0  0  0  0  0  0  0  0  0
   40.2440   22.0360   34.1580 H   0  0  0  0  0  0  0  0  0  0  0  0
   40.2960   20.6380   32.2070 H   0  0  0  0  0  0  0  0  0  0  0  0
   38.2270   20.2120   30.9160 H   0  0  0  0  0  0  0  0  0  0  0  0
   35.7860   21.1390   31.4050 C   0  0  0  0  0  0  0  0  0  0  0  0
   35.9340   20.1920   30.4130 F   0  0  0  0  0  0  0  0  0  0  0  0
   34.7570   20.7760   32.2530 F   0  0  0  0  0  0  0  0  0  0  0  0
   35.3780   22.3120   30.7650 F   0  0  0  0  0  0  0  0  0  0  0  0
   38.0650   25.3670   33.7590 C   0  0  0  0  0  0  0  0  0  0  0  0
   38.1260   26.7380   33.9010 F   0  0  0  0  0  0  0  0  0  0  0  0
   39.1340   24.9570   33.0110 F   0  0  0  0  0  0  0  0  0  0  0  0
   36.9100   25.0570   33.0670 F   0  0  0  0  0  0  0  0  0  0  0  0
  1  6  1  0  0  0  0
  2  3  1  0  0  0  0
  2  1  2  0  0  0  0
  3  4  2  0  0  0  0
  4  5  1  0  0  0  0
  5  7  1  0  0  0  0
  6  5  2  0  0  0  0
  7  9  1  0  0  0  0
  7 10  1  0  0  0  0
  8  1  1  0  0  0  0
 11  3  1  0  0  0  0
 12 11  1  0  0  0  0
 12 17  1  0  0  0  0
 13 12  2  0  0  0  0
 14 15  2  0  0  0  0
 14 13  1  0  0  0  0
 15 16  1  0  0  0  0
 16 11  2  0  0  0  0
 18 13  1  0  0  0  0
 19 14  1  0  0  0  0
 20 15  1  0  0  0  0
 20 22  1  0  0  0  0
 21 20  1  0  0  0  0
 23 20  1  0  0  0  0
 24 25  1  0  0  0  0
 24  2  1  0  0  0  0
 26 24  1  0  0  0  0
 27 24  1  0  0  0  0
M  END
>  <minimizedAffinity>
-5.17063713

$$$$
