
 OpenBabel03272510333D

 23 24  0  0  0  0  0  0  0  0999 V2000
   36.1720   30.1270   48.4320 C   0  0  0  0  0  0  0  0  0  0  0  0
   35.1310   29.9140   47.5440 C   0  0  0  0  0  0  0  0  0  0  0  0
   34.0250   29.1710   47.9070 C   0  0  0  0  0  0  0  0  0  0  0  0
   33.9900   28.6440   49.1920 C   0  0  0  0  0  0  0  0  0  0  0  0
   35.0170   28.8460   50.0890 C   0  0  0  0  0  0  0  0  0  0  0  0
   36.1290   29.6010   49.7040 C   0  0  0  0  0  0  0  0  0  0  0  0
   35.1660   30.3280   46.5440 H   0  0  0  0  0  0  0  0  0  0  0  0
   33.1990   28.9810   47.2550 H   0  0  0  0  0  0  0  0  0  0  0  0
   33.1540   28.0520   49.5420 H   0  0  0  0  0  0  0  0  0  0  0  0
   34.9600   28.4230   51.0810 H   0  0  0  0  0  0  0  0  0  0  0  0
   38.5040   32.8970   48.1230 C   0  0  0  0  0  0  0  0  0  0  0  0
   39.3830   32.5180   47.1100 C   0  0  0  0  0  0  0  0  0  0  0  0
   39.1560   31.2630   46.5220 C   0  0  0  0  0  0  0  0  0  0  0  0
   38.1180   30.5030   46.9590 N   0  0  0  0  0  0  0  0  0  0  0  0
   37.2870   30.9170   47.9510 C   0  0  0  0  0  0  0  0  0  0  0  0
   37.5030   32.1140   48.5130 N   0  0  0  0  0  0  0  0  0  0  0  0
   38.6360   33.8630   48.6130 H   0  0  0  0  0  0  0  0  0  0  0  0
   40.1970   33.1460   46.7860 H   0  0  0  0  0  0  0  0  0  0  0  0
   39.8070   30.9040   45.7220 H   0  0  0  0  0  0  0  0  0  0  0  0
   37.2120   29.8090   50.6770 C   0  0  0  0  0  0  0  0  0  0  0  0
   38.4530   29.5990   50.1300 F   0  0  0  0  0  0  0  0  0  0  0  0
   37.0540   31.0410   51.2700 F   0  0  0  0  0  0  0  0  0  0  0  0
   37.1220   28.8690   51.7190 F   0  0  0  0  0  0  0  0  0  0  0  0
  1  6  1  0  0  0  0
  2  3  1  0  0  0  0
  2  1  2  0  0  0  0
  3  4  2  0  0  0  0
  4  9  1  0  0  0  0
  4  5  1  0  0  0  0
  5 10  1  0  0  0  0
  6  5  2  0  0  0  0
  6 20  1  0  0  0  0
  7  2  1  0  0  0  0
  8  3  1  0  0  0  0
 11 16  1  0  0  0  0
 11 17  1  0  0  0  0
 12 11  2  0  0  0  0
 13 14  2  0  0  0  0
 13 12  1  0  0  0  0
 14 15  1  0  0  0  0
 15  1  1  0  0  0  0
 15 16  2  0  0  0  0
 18 12  1  0  0  0  0
 19 13  1  0  0  0  0
 20 22  1  0  0  0  0
 20 23  1  0  0  0  0
 21 20  1  0  0  0  0
M  END
>  <minimizedAffinity>
-5.84694004

>  <minimizedRMSD>
0.869261265

$$$$
