
 OpenBabel03262520233D

 27 28  0  0  0  0  0  0  0  0999 V2000
   40.5210   23.6510   35.4280 C   0  0  0  0  0  0  0  0  0  0  0  0
   39.3280   24.0380   36.1140 C   0  0  0  0  0  0  0  0  0  0  0  0
   39.0260   23.3720   37.2720 C   0  0  0  0  0  0  0  0  0  0  0  0
   39.9010   22.3900   37.6710 N   0  0  0  0  0  0  0  0  0  0  0  0
   41.0110   22.0380   37.0260 C   0  0  0  0  0  0  0  0  0  0  0  0
   41.3060   22.6860   35.8940 N   0  0  0  0  0  0  0  0  0  0  0  0
   41.7770   21.0350   37.6280 N   0  0  0  0  0  0  0  0  0  0  0  0
   40.8750   24.0900   34.5080 H   0  0  0  0  0  0  0  0  0  0  0  0
   42.5050   21.5880   38.1640 H   0  0  0  0  0  0  0  0  0  0  0  0
   41.7150   20.0080   37.6060 H   0  0  0  0  0  0  0  0  0  0  0  0
   38.6790   25.1370   35.4140 C   0  0  0  0  0  0  0  0  0  0  0  0
   38.6610   26.4180   35.9830 C   0  0  0  0  0  0  0  0  0  0  0  0
   38.0780   27.5230   35.4700 C   0  0  0  0  0  0  0  0  0  0  0  0
   37.4300   27.4540   34.2890 C   0  0  0  0  0  0  0  0  0  0  0  0
   37.4380   26.2140   33.7180 C   0  0  0  0  0  0  0  0  0  0  0  0
   38.0260   25.1870   34.2790 N   0  0  0  0  0  0  0  0  0  0  0  0
   39.1890   26.5560   36.9830 H   0  0  0  0  0  0  0  0  0  0  0  0
   38.1470   28.4910   36.0490 H   0  0  0  0  0  0  0  0  0  0  0  0
   36.9560   28.2930   33.8440 H   0  0  0  0  0  0  0  0  0  0  0  0
   36.7350   26.0150   32.3780 C   0  0  0  0  0  0  0  0  0  0  0  0
   36.1460   24.7920   32.2980 F   0  0  0  0  0  0  0  0  0  0  0  0
   35.8280   27.0200   32.1730 F   0  0  0  0  0  0  0  0  0  0  0  0
   37.6950   26.1600   31.3690 F   0  0  0  0  0  0  0  0  0  0  0  0
   37.8200   23.7270   38.0200 C   0  0  0  0  0  0  0  0  0  0  0  0
   36.8370   23.9380   37.1710 F   0  0  0  0  0  0  0  0  0  0  0  0
   37.4340   22.7800   38.9520 F   0  0  0  0  0  0  0  0  0  0  0  0
   38.0230   24.9270   38.7590 F   0  0  0  0  0  0  0  0  0  0  0  0
  1  6  2  0  0  0  0
  1  2  1  0  0  0  0
  2  3  2  0  0  0  0
  3  4  1  0  0  0  0
  3 24  1  0  0  0  0
  5  7  1  0  0  0  0
  5  4  2  0  0  0  0
  6  5  1  0  0  0  0
  7  9  1  0  0  0  0
  8  1  1  0  0  0  0
 10  7  1  0  0  0  0
 11 12  1  0  0  0  0
 11  2  1  0  0  0  0
 12 17  1  0  0  0  0
 13 12  2  0  0  0  0
 13 18  1  0  0  0  0
 14 13  1  0  0  0  0
 15 16  1  0  0  0  0
 15 14  2  0  0  0  0
 16 11  2  0  0  0  0
 19 14  1  0  0  0  0
 20 15  1  0  0  0  0
 21 20  1  0  0  0  0
 22 20  1  0  0  0  0
 23 20  1  0  0  0  0
 24 27  1  0  0  0  0
 24 26  1  0  0  0  0
 25 24  1  0  0  0  0
M  END
>  <minimizedAffinity>
-6.19473028

$$$$

 OpenBabel03262520233D

 27 28  0  0  0  0  0  0  0  0999 V2000
   37.3010   23.7410   32.8120 C   0  0  0  0  0  0  0  0  0  0  0  0
   37.6790   24.7830   33.7150 C   0  0  0  0  0  0  0  0  0  0  0  0
   37.2720   26.0550   33.4100 C   0  0  0  0  0  0  0  0  0  0  0  0
   36.5340   26.2140   32.2610 N   0  0  0  0  0  0  0  0  0  0  0  0
   36.1850   25.2350   31.4280 C   0  0  0  0  0  0  0  0  0  0  0  0
   36.5840   23.9930   31.7240 N   0  0  0  0  0  0  0  0  0  0  0  0
   35.4010   25.6130   30.3340 N   0  0  0  0  0  0  0  0  0  0  0  0
   37.5560   22.6990   32.9310 H   0  0  0  0  0  0  0  0  0  0  0  0
   34.4180   25.4050   30.6690 H   0  0  0  0  0  0  0  0  0  0  0  0
   35.6400   26.0010   29.4110 H   0  0  0  0  0  0  0  0  0  0  0  0
   38.4230   24.2320   34.8380 C   0  0  0  0  0  0  0  0  0  0  0  0
   39.6380   23.5690   34.6170 C   0  0  0  0  0  0  0  0  0  0  0  0
   40.4220   22.9850   35.5480 C   0  0  0  0  0  0  0  0  0  0  0  0
   40.0550   23.0070   36.8460 C   0  0  0  0  0  0  0  0  0  0  0  0
   38.8740   23.6500   37.0810 C   0  0  0  0  0  0  0  0  0  0  0  0
   38.1670   24.1930   36.1220 N   0  0  0  0  0  0  0  0  0  0  0  0
   40.0150   23.5090   33.5430 H   0  0  0  0  0  0  0  0  0  0  0  0
   41.3790   22.4840   35.2150 H   0  0  0  0  0  0  0  0  0  0  0  0
   40.6360   22.5630   37.6150 H   0  0  0  0  0  0  0  0  0  0  0  0
   38.3570   23.7390   38.5150 C   0  0  0  0  0  0  0  0  0  0  0  0
   37.3820   22.8220   38.7540 F   0  0  0  0  0  0  0  0  0  0  0  0
   39.3970   23.6020   39.3950 F   0  0  0  0  0  0  0  0  0  0  0  0
   37.8640   25.0350   38.7090 F   0  0  0  0  0  0  0  0  0  0  0  0
   37.6250   27.1620   34.2980 C   0  0  0  0  0  0  0  0  0  0  0  0
   37.1160   28.2760   33.8150 F   0  0  0  0  0  0  0  0  0  0  0  0
   37.2110   26.9920   35.6060 F   0  0  0  0  0  0  0  0  0  0  0  0
   39.0380   27.3220   34.3640 F   0  0  0  0  0  0  0  0  0  0  0  0
  1  8  1  0  0  0  0
  1  2  1  0  0  0  0
  2 11  1  0  0  0  0
  3  2  2  0  0  0  0
  3 24  1  0  0  0  0
  4  3  1  0  0  0  0
  5  6  1  0  0  0  0
  5  4  2  0  0  0  0
  6  1  2  0  0  0  0
  7  9  1  0  0  0  0
  7  5  1  0  0  0  0
 10  7  1  0  0  0  0
 11 16  1  0  0  0  0
 12 11  2  0  0  0  0
 12 13  1  0  0  0  0
 13 14  2  0  0  0  0
 14 15  1  0  0  0  0
 14 19  1  0  0  0  0
 15 20  1  0  0  0  0
 16 15  2  0  0  0  0
 17 12  1  0  0  0  0
 18 13  1  0  0  0  0
 20 23  1  0  0  0  0
 20 21  1  0  0  0  0
 20 22  1  0  0  0  0
 24 27  1  0  0  0  0
 24 26  1  0  0  0  0
 25 24  1  0  0  0  0
M  END
>  <minimizedAffinity>
-5.8548789

$$$$

 OpenBabel03262520233D

 27 28  0  0  0  0  0  0  0  0999 V2000
   38.0640   23.8740   33.5990 C   0  0  0  0  0  0  0  0  0  0  0  0
   38.5080   24.7420   34.6450 C   0  0  0  0  0  0  0  0  0  0  0  0
   38.0750   26.0400   34.6090 C   0  0  0  0  0  0  0  0  0  0  0  0
   37.2490   26.3920   33.5680 N   0  0  0  0  0  0  0  0  0  0  0  0
   36.8400   25.5760   32.6000 C   0  0  0  0  0  0  0  0  0  0  0  0
   37.2630   24.3080   32.6320 N   0  0  0  0  0  0  0  0  0  0  0  0
   35.9710   26.1330   31.6550 N   0  0  0  0  0  0  0  0  0  0  0  0
   38.3300   22.8320   33.5060 H   0  0  0  0  0  0  0  0  0  0  0  0
   35.0180   25.8500   32.0210 H   0  0  0  0  0  0  0  0  0  0  0  0
   36.1360   26.6850   30.8030 H   0  0  0  0  0  0  0  0  0  0  0  0
   39.3390   24.0080   35.5890 C   0  0  0  0  0  0  0  0  0  0  0  0
   38.7650   23.4410   36.7360 C   0  0  0  0  0  0  0  0  0  0  0  0
   39.4070   22.7610   37.7100 C   0  0  0  0  0  0  0  0  0  0  0  0
   40.7400   22.5710   37.6310 C   0  0  0  0  0  0  0  0  0  0  0  0
   41.3170   23.1160   36.5190 C   0  0  0  0  0  0  0  0  0  0  0  0
   40.6260   23.7640   35.6160 N   0  0  0  0  0  0  0  0  0  0  0  0
   37.6400   23.5600   36.8720 H   0  0  0  0  0  0  0  0  0  0  0  0
   38.8050   22.3620   38.5790 H   0  0  0  0  0  0  0  0  0  0  0  0
   41.2900   22.0450   38.3690 H   0  0  0  0  0  0  0  0  0  0  0  0
   42.8230   22.9640   36.3220 C   0  0  0  0  0  0  0  0  0  0  0  0
   43.2670   21.7560   36.7640 F   0  0  0  0  0  0  0  0  0  0  0  0
   43.1450   23.1620   35.0060 F   0  0  0  0  0  0  0  0  0  0  0  0
   43.4500   23.9990   37.0260 F   0  0  0  0  0  0  0  0  0  0  0  0
   38.4930   26.9740   35.6540 C   0  0  0  0  0  0  0  0  0  0  0  0
   37.9030   28.1330   35.4530 F   0  0  0  0  0  0  0  0  0  0  0  0
   38.2300   26.5380   36.9400 F   0  0  0  0  0  0  0  0  0  0  0  0
   39.8990   27.1860   35.6050 F   0  0  0  0  0  0  0  0  0  0  0  0
  1  2  1  0  0  0  0
  2 11  1  0  0  0  0
  3  2  2  0  0  0  0
  3 24  1  0  0  0  0
  4  3  1  0  0  0  0
  5  6  1  0  0  0  0
  5  4  2  0  0  0  0
  6  1  2  0  0  0  0
  7  9  1  0  0  0  0
  7  5  1  0  0  0  0
  8  1  1  0  0  0  0
 10  7  1  0  0  0  0
 11 16  2  0  0  0  0
 11 12  1  0  0  0  0
 12 17  1  0  0  0  0
 12 13  2  0  0  0  0
 13 18  1  0  0  0  0
 14 13  1  0  0  0  0
 14 19  1  0  0  0  0
 15 14  2  0  0  0  0
 16 15  1  0  0  0  0
 20 15  1  0  0  0  0
 20 21  1  0  0  0  0
 20 23  1  0  0  0  0
 22 20  1  0  0  0  0
 24 26  1  0  0  0  0
 25 24  1  0  0  0  0
 27 24  1  0  0  0  0
M  END
>  <minimizedAffinity>
-5.63727474

$$$$

 OpenBabel03262520233D

 27 28  0  0  0  0  0  0  0  0999 V2000
   40.5550   22.5540   35.0160 C   0  0  0  0  0  0  0  0  0  0  0  0
   39.4570   23.1400   35.7190 C   0  0  0  0  0  0  0  0  0  0  0  0
   39.3520   22.8660   37.0570 C   0  0  0  0  0  0  0  0  0  0  0  0
   40.3150   22.0510   37.6030 N   0  0  0  0  0  0  0  0  0  0  0  0
   41.3360   21.5130   36.9380 C   0  0  0  0  0  0  0  0  0  0  0  0
   41.4390   21.7780   35.6320 N   0  0  0  0  0  0  0  0  0  0  0  0
   42.2220   20.7420   37.6980 N   0  0  0  0  0  0  0  0  0  0  0  0
   40.7540   22.6870   33.9630 H   0  0  0  0  0  0  0  0  0  0  0  0
   42.9950   21.4300   37.9240 H   0  0  0  0  0  0  0  0  0  0  0  0
   42.2010   19.7590   38.0000 H   0  0  0  0  0  0  0  0  0  0  0  0
   38.6690   23.9710   34.8210 C   0  0  0  0  0  0  0  0  0  0  0  0
   38.1430   23.4270   33.6410 C   0  0  0  0  0  0  0  0  0  0  0  0
   37.4210   24.0750   32.7020 C   0  0  0  0  0  0  0  0  0  0  0  0
   37.1400   25.3850   32.8570 C   0  0  0  0  0  0  0  0  0  0  0  0
   37.6430   25.9330   34.0020 C   0  0  0  0  0  0  0  0  0  0  0  0
   38.3370   25.2380   34.8660 N   0  0  0  0  0  0  0  0  0  0  0  0
   38.3380   22.3220   33.4410 H   0  0  0  0  0  0  0  0  0  0  0  0
   37.0640   23.4980   31.7990 H   0  0  0  0  0  0  0  0  0  0  0  0
   36.5780   25.9390   32.1480 H   0  0  0  0  0  0  0  0  0  0  0  0
   37.3880   27.4120   34.2840 C   0  0  0  0  0  0  0  0  0  0  0  0
   36.1320   27.6210   34.7610 F   0  0  0  0  0  0  0  0  0  0  0  0
   38.3360   27.8930   35.1460 F   0  0  0  0  0  0  0  0  0  0  0  0
   37.5760   28.1110   33.0850 F   0  0  0  0  0  0  0  0  0  0  0  0
   38.2520   23.4390   37.8310 C   0  0  0  0  0  0  0  0  0  0  0  0
   38.2690   22.9260   39.0430 F   0  0  0  0  0  0  0  0  0  0  0  0
   38.2760   24.8190   37.9120 F   0  0  0  0  0  0  0  0  0  0  0  0
   36.9980   23.1150   37.2390 F   0  0  0  0  0  0  0  0  0  0  0  0
  1  6  2  0  0  0  0
  1  2  1  0  0  0  0
  2  3  2  0  0  0  0
  3  4  1  0  0  0  0
  3 24  1  0  0  0  0
  5  4  2  0  0  0  0
  5  7  1  0  0  0  0
  6  5  1  0  0  0  0
  7  9  1  0  0  0  0
  7 10  1  0  0  0  0
  8  1  1  0  0  0  0
 11 16  1  0  0  0  0
 11  2  1  0  0  0  0
 12 11  2  0  0  0  0
 13 14  2  0  0  0  0
 13 12  1  0  0  0  0
 14 15  1  0  0  0  0
 15 20  1  0  0  0  0
 15 16  2  0  0  0  0
 17 12  1  0  0  0  0
 18 13  1  0  0  0  0
 19 14  1  0  0  0  0
 20 21  1  0  0  0  0
 20 22  1  0  0  0  0
 23 20  1  0  0  0  0
 24 26  1  0  0  0  0
 24 25  1  0  0  0  0
 27 24  1  0  0  0  0
M  END
>  <minimizedAffinity>
-5.56133938

$$$$

 OpenBabel03262520233D

 27 28  0  0  0  0  0  0  0  0999 V2000
   37.9880   24.0190   36.2890 C   0  0  0  0  0  0  0  0  0  0  0  0
   38.8330   24.7820   35.4240 C   0  0  0  0  0  0  0  0  0  0  0  0
   40.1700   24.4910   35.4360 C   0  0  0  0  0  0  0  0  0  0  0  0
   40.5810   23.4860   36.2800 N   0  0  0  0  0  0  0  0  0  0  0  0
   39.7850   22.7790   37.0800 C   0  0  0  0  0  0  0  0  0  0  0  0
   38.4790   23.0640   37.0710 N   0  0  0  0  0  0  0  0  0  0  0  0
   40.4080   21.7770   37.8320 N   0  0  0  0  0  0  0  0  0  0  0  0
   36.9200   24.1460   36.3790 H   0  0  0  0  0  0  0  0  0  0  0  0
   40.2480   20.9110   37.2430 H   0  0  0  0  0  0  0  0  0  0  0  0
   40.9090   21.7950   38.7300 H   0  0  0  0  0  0  0  0  0  0  0  0
   38.0400   25.7290   34.6530 C   0  0  0  0  0  0  0  0  0  0  0  0
   37.7060   26.9750   35.2020 C   0  0  0  0  0  0  0  0  0  0  0  0
   36.9590   27.9400   34.6240 C   0  0  0  0  0  0  0  0  0  0  0  0
   36.4520   27.7480   33.3890 C   0  0  0  0  0  0  0  0  0  0  0  0
   36.7680   26.5400   32.8370 C   0  0  0  0  0  0  0  0  0  0  0  0
   37.4990   25.6530   33.4620 N   0  0  0  0  0  0  0  0  0  0  0  0
   38.1000   27.2110   36.2450 H   0  0  0  0  0  0  0  0  0  0  0  0
   36.7740   28.8980   35.1950 H   0  0  0  0  0  0  0  0  0  0  0  0
   35.8600   28.4750   32.8920 H   0  0  0  0  0  0  0  0  0  0  0  0
   36.2480   26.2110   31.4390 C   0  0  0  0  0  0  0  0  0  0  0  0
   35.1780   25.3740   31.4880 F   0  0  0  0  0  0  0  0  0  0  0  0
   35.9480   27.3660   30.7690 F   0  0  0  0  0  0  0  0  0  0  0  0
   37.2970   25.6200   30.7250 F   0  0  0  0  0  0  0  0  0  0  0  0
   41.0840   25.2350   34.5690 C   0  0  0  0  0  0  0  0  0  0  0  0
   42.3040   24.7730   34.7370 F   0  0  0  0  0  0  0  0  0  0  0  0
   40.7520   25.1910   33.2270 F   0  0  0  0  0  0  0  0  0  0  0  0
   41.0900   26.6160   34.9150 F   0  0  0  0  0  0  0  0  0  0  0  0
  1  8  1  0  0  0  0
  1  6  1  0  0  0  0
  2  3  1  0  0  0  0
  2  1  2  0  0  0  0
  3  4  2  0  0  0  0
  4  5  1  0  0  0  0
  5  7  1  0  0  0  0
  6  5  2  0  0  0  0
  7 10  1  0  0  0  0
  9  7  1  0  0  0  0
 11 12  1  0  0  0  0
 11  2  1  0  0  0  0
 12 17  1  0  0  0  0
 13 18  1  0  0  0  0
 13 12  2  0  0  0  0
 14 13  1  0  0  0  0
 15 14  2  0  0  0  0
 15 16  1  0  0  0  0
 16 11  2  0  0  0  0
 19 14  1  0  0  0  0
 20 21  1  0  0  0  0
 20 15  1  0  0  0  0
 22 20  1  0  0  0  0
 23 20  1  0  0  0  0
 24 25  1  0  0  0  0
 24 27  1  0  0  0  0
 24  3  1  0  0  0  0
 26 24  1  0  0  0  0
M  END
>  <minimizedAffinity>
-5.52147722

$$$$

 OpenBabel03262520233D

 27 28  0  0  0  0  0  0  0  0999 V2000
   37.8680   23.9900   33.4460 C   0  0  0  0  0  0  0  0  0  0  0  0
   38.8530   24.7350   34.1670 C   0  0  0  0  0  0  0  0  0  0  0  0
   39.2590   25.9250   33.6260 C   0  0  0  0  0  0  0  0  0  0  0  0
   38.6780   26.2980   32.4360 N   0  0  0  0  0  0  0  0  0  0  0  0
   37.7590   25.5980   31.7750 C   0  0  0  0  0  0  0  0  0  0  0  0
   37.3640   24.4340   32.3010 N   0  0  0  0  0  0  0  0  0  0  0  0
   37.2760   26.1810   30.5980 N   0  0  0  0  0  0  0  0  0  0  0  0
   37.4630   23.0390   33.7580 H   0  0  0  0  0  0  0  0  0  0  0  0
   36.3880   26.6570   30.9230 H   0  0  0  0  0  0  0  0  0  0  0  0
   37.6310   26.1890   29.6330 H   0  0  0  0  0  0  0  0  0  0  0  0
   39.2030   24.0450   35.4000 C   0  0  0  0  0  0  0  0  0  0  0  0
   38.3890   24.1770   36.5340 C   0  0  0  0  0  0  0  0  0  0  0  0
   38.5970   23.6250   37.7480 C   0  0  0  0  0  0  0  0  0  0  0  0
   39.6840   22.8540   37.9590 C   0  0  0  0  0  0  0  0  0  0  0  0
   40.4890   22.7130   36.8650 C   0  0  0  0  0  0  0  0  0  0  0  0
   40.2200   23.2820   35.7170 N   0  0  0  0  0  0  0  0  0  0  0  0
   37.4500   24.8150   36.4330 H   0  0  0  0  0  0  0  0  0  0  0  0
   37.8470   23.8250   38.5700 H   0  0  0  0  0  0  0  0  0  0  0  0
   39.8920   22.3990   38.8940 H   0  0  0  0  0  0  0  0  0  0  0  0
   41.7500   21.8600   36.9850 C   0  0  0  0  0  0  0  0  0  0  0  0
   42.8730   22.6270   37.0010 F   0  0  0  0  0  0  0  0  0  0  0  0
   41.6720   21.0660   38.0970 F   0  0  0  0  0  0  0  0  0  0  0  0
   41.7740   20.9830   35.8940 F   0  0  0  0  0  0  0  0  0  0  0  0
   40.2610   26.7340   34.3190 C   0  0  0  0  0  0  0  0  0  0  0  0
   40.6080   27.7400   33.5450 F   0  0  0  0  0  0  0  0  0  0  0  0
   39.8480   27.2150   35.5480 F   0  0  0  0  0  0  0  0  0  0  0  0
   41.4300   25.9650   34.5840 F   0  0  0  0  0  0  0  0  0  0  0  0
  1  8  1  0  0  0  0
  1  2  1  0  0  0  0
  2 11  1  0  0  0  0
  3  2  2  0  0  0  0
  3 24  1  0  0  0  0
  4  3  1  0  0  0  0
  5  6  1  0  0  0  0
  5  4  2  0  0  0  0
  6  1  2  0  0  0  0
  7  9  1  0  0  0  0
  7  5  1  0  0  0  0
 10  7  1  0  0  0  0
 11 16  2  0  0  0  0
 11 12  1  0  0  0  0
 12 13  2  0  0  0  0
 13 14  1  0  0  0  0
 13 18  1  0  0  0  0
 14 19  1  0  0  0  0
 15 20  1  0  0  0  0
 15 14  2  0  0  0  0
 16 15  1  0  0  0  0
 17 12  1  0  0  0  0
 20 21  1  0  0  0  0
 20 22  1  0  0  0  0
 23 20  1  0  0  0  0
 24 27  1  0  0  0  0
 24 26  1  0  0  0  0
 25 24  1  0  0  0  0
M  END
>  <minimizedAffinity>
-5.39499187

$$$$

 OpenBabel03262520233D

 27 28  0  0  0  0  0  0  0  0999 V2000
   37.0790   25.6340   32.8670 C   0  0  0  0  0  0  0  0  0  0  0  0
   37.2560   24.2300   33.0700 C   0  0  0  0  0  0  0  0  0  0  0  0
   36.5730   23.3850   32.2370 C   0  0  0  0  0  0  0  0  0  0  0  0
   35.7770   23.9660   31.2770 N   0  0  0  0  0  0  0  0  0  0  0  0
   35.6220   25.2760   31.0950 C   0  0  0  0  0  0  0  0  0  0  0  0
   36.2870   26.1020   31.9100 N   0  0  0  0  0  0  0  0  0  0  0  0
   34.7900   25.6520   30.0350 N   0  0  0  0  0  0  0  0  0  0  0  0
   37.5550   26.4070   33.4520 H   0  0  0  0  0  0  0  0  0  0  0  0
   35.4800   25.8300   29.2510 H   0  0  0  0  0  0  0  0  0  0  0  0
   33.7700   25.7540   29.9570 H   0  0  0  0  0  0  0  0  0  0  0  0
   38.2000   23.9930   34.1520 C   0  0  0  0  0  0  0  0  0  0  0  0
   39.5460   23.7250   33.8630 C   0  0  0  0  0  0  0  0  0  0  0  0
   40.5270   23.4580   34.7520 C   0  0  0  0  0  0  0  0  0  0  0  0
   40.2490   23.4340   36.0720 C   0  0  0  0  0  0  0  0  0  0  0  0
   38.9430   23.6940   36.3730 C   0  0  0  0  0  0  0  0  0  0  0  0
   38.0470   23.9430   35.4520 N   0  0  0  0  0  0  0  0  0  0  0  0
   39.8580   23.7280   32.7670 H   0  0  0  0  0  0  0  0  0  0  0  0
   41.5700   23.2600   34.3650 H   0  0  0  0  0  0  0  0  0  0  0  0
   40.9840   23.2300   36.8090 H   0  0  0  0  0  0  0  0  0  0  0  0
   38.5110   23.6940   37.8370 C   0  0  0  0  0  0  0  0  0  0  0  0
   39.5010   23.2360   38.6510 F   0  0  0  0  0  0  0  0  0  0  0  0
   38.1040   24.9480   38.2050 F   0  0  0  0  0  0  0  0  0  0  0  0
   37.3770   22.8800   37.9450 F   0  0  0  0  0  0  0  0  0  0  0  0
   36.7160   21.9390   32.3920 C   0  0  0  0  0  0  0  0  0  0  0  0
   37.8990   21.5760   31.9450 F   0  0  0  0  0  0  0  0  0  0  0  0
   36.5550   21.4910   33.6910 F   0  0  0  0  0  0  0  0  0  0  0  0
   35.7320   21.2510   31.6280 F   0  0  0  0  0  0  0  0  0  0  0  0
  1  2  1  0  0  0  0
  1  8  1  0  0  0  0
  2 11  1  0  0  0  0
  3 24  1  0  0  0  0
  3  2  2  0  0  0  0
  4  3  1  0  0  0  0
  5  4  2  0  0  0  0
  5  6  1  0  0  0  0
  6  1  2  0  0  0  0
  7  5  1  0  0  0  0
  9  7  1  0  0  0  0
 10  7  1  0  0  0  0
 11 16  1  0  0  0  0
 12 11  2  0  0  0  0
 12 13  1  0  0  0  0
 13 14  2  0  0  0  0
 14 15  1  0  0  0  0
 14 19  1  0  0  0  0
 15 20  1  0  0  0  0
 16 15  2  0  0  0  0
 17 12  1  0  0  0  0
 18 13  1  0  0  0  0
 20 23  1  0  0  0  0
 20 22  1  0  0  0  0
 20 21  1  0  0  0  0
 24 26  1  0  0  0  0
 25 24  1  0  0  0  0
 27 24  1  0  0  0  0
M  END
>  <minimizedAffinity>
-5.37317753

$$$$

 OpenBabel03262520233D

 27 28  0  0  0  0  0  0  0  0999 V2000
   37.7200   26.7000   35.4020 C   0  0  0  0  0  0  0  0  0  0  0  0
   37.9480   25.3710   34.9270 C   0  0  0  0  0  0  0  0  0  0  0  0
   37.6920   25.1260   33.6050 C   0  0  0  0  0  0  0  0  0  0  0  0
   37.2400   26.1830   32.8510 N   0  0  0  0  0  0  0  0  0  0  0  0
   37.0330   27.4180   33.3040 C   0  0  0  0  0  0  0  0  0  0  0  0
   37.2800   27.6590   34.5960 N   0  0  0  0  0  0  0  0  0  0  0  0
   36.6020   28.3530   32.3560 N   0  0  0  0  0  0  0  0  0  0  0  0
   37.8780   27.0280   36.4190 H   0  0  0  0  0  0  0  0  0  0  0  0
   37.5060   28.8260   32.0700 H   0  0  0  0  0  0  0  0  0  0  0  0
   35.6720   28.5820   31.9820 H   0  0  0  0  0  0  0  0  0  0  0  0
   38.4620   24.5330   36.0010 C   0  0  0  0  0  0  0  0  0  0  0  0
   37.7750   24.4550   37.2210 C   0  0  0  0  0  0  0  0  0  0  0  0
   38.1410   23.7490   38.3110 C   0  0  0  0  0  0  0  0  0  0  0  0
   39.2750   23.0180   38.2900 C   0  0  0  0  0  0  0  0  0  0  0  0
   39.9570   23.0810   37.1090 C   0  0  0  0  0  0  0  0  0  0  0  0
   39.5380   23.7920   36.0930 N   0  0  0  0  0  0  0  0  0  0  0  0
   36.8050   25.0470   37.3150 H   0  0  0  0  0  0  0  0  0  0  0  0
   37.4800   23.7850   39.2270 H   0  0  0  0  0  0  0  0  0  0  0  0
   39.6050   22.4470   39.1200 H   0  0  0  0  0  0  0  0  0  0  0  0
   41.2580   22.2930   36.9680 C   0  0  0  0  0  0  0  0  0  0  0  0
   42.3420   23.1130   36.9700 F   0  0  0  0  0  0  0  0  0  0  0  0
   41.3430   21.3520   37.9590 F   0  0  0  0  0  0  0  0  0  0  0  0
   41.1910   21.5760   35.7680 F   0  0  0  0  0  0  0  0  0  0  0  0
   37.9110   23.7860   33.0590 C   0  0  0  0  0  0  0  0  0  0  0  0
   39.2040   23.5860   32.9230 F   0  0  0  0  0  0  0  0  0  0  0  0
   37.3610   22.7700   33.8190 F   0  0  0  0  0  0  0  0  0  0  0  0
   37.3130   23.6650   31.7730 F   0  0  0  0  0  0  0  0  0  0  0  0
  1  8  1  0  0  0  0
  2  1  1  0  0  0  0
  2 11  1  0  0  0  0
  3  2  2  0  0  0  0
  4  5  2  0  0  0  0
  4  3  1  0  0  0  0
  5  6  1  0  0  0  0
  6  1  2  0  0  0  0
  7  5  1  0  0  0  0
  9  7  1  0  0  0  0
 10  7  1  0  0  0  0
 11 16  2  0  0  0  0
 11 12  1  0  0  0  0
 12 17  1  0  0  0  0
 12 13  2  0  0  0  0
 13 18  1  0  0  0  0
 14 13  1  0  0  0  0
 14 19  1  0  0  0  0
 15 14  2  0  0  0  0
 16 15  1  0  0  0  0
 20 21  1  0  0  0  0
 20 15  1  0  0  0  0
 20 22  1  0  0  0  0
 23 20  1  0  0  0  0
 24  3  1  0  0  0  0
 24 26  1  0  0  0  0
 25 24  1  0  0  0  0
 27 24  1  0  0  0  0
M  END
>  <minimizedAffinity>
-5.36153269

$$$$

 OpenBabel03262520233D

 27 28  0  0  0  0  0  0  0  0999 V2000
   37.8980   25.2100   33.9100 C   0  0  0  0  0  0  0  0  0  0  0  0
   37.8820   23.7980   34.1330 C   0  0  0  0  0  0  0  0  0  0  0  0
   37.3420   23.0140   33.1500 C   0  0  0  0  0  0  0  0  0  0  0  0
   36.8640   23.6570   32.0320 N   0  0  0  0  0  0  0  0  0  0  0  0
   36.8860   24.9740   31.8330 C   0  0  0  0  0  0  0  0  0  0  0  0
   37.4110   25.7410   32.7950 N   0  0  0  0  0  0  0  0  0  0  0  0
   36.3780   25.4160   30.6070 N   0  0  0  0  0  0  0  0  0  0  0  0
   38.2910   25.9400   34.6020 H   0  0  0  0  0  0  0  0  0  0  0  0
   37.2520   25.5150   30.0160 H   0  0  0  0  0  0  0  0  0  0  0  0
   35.4220   25.6160   30.2850 H   0  0  0  0  0  0  0  0  0  0  0  0
   38.5070   23.4830   35.4100 C   0  0  0  0  0  0  0  0  0  0  0  0
   37.8940   23.8740   36.6080 C   0  0  0  0  0  0  0  0  0  0  0  0
   38.3630   23.6800   37.8590 C   0  0  0  0  0  0  0  0  0  0  0  0
   39.5400   23.0470   38.0440 C   0  0  0  0  0  0  0  0  0  0  0  0
   40.1520   22.6560   36.8880 C   0  0  0  0  0  0  0  0  0  0  0  0
   39.6330   22.8830   35.7080 N   0  0  0  0  0  0  0  0  0  0  0  0
   36.8940   24.4160   36.5320 H   0  0  0  0  0  0  0  0  0  0  0  0
   37.7520   24.0560   38.7320 H   0  0  0  0  0  0  0  0  0  0  0  0
   39.9510   22.8700   39.0050 H   0  0  0  0  0  0  0  0  0  0  0  0
   41.4920   21.9290   36.9740 C   0  0  0  0  0  0  0  0  0  0  0  0
   41.5620   21.1370   38.0780 F   0  0  0  0  0  0  0  0  0  0  0  0
   41.7070   21.2100   35.8290 F   0  0  0  0  0  0  0  0  0  0  0  0
   42.5000   22.9000   37.0070 F   0  0  0  0  0  0  0  0  0  0  0  0
   37.3010   21.5620   33.3190 C   0  0  0  0  0  0  0  0  0  0  0  0
   38.5310   21.0940   33.2990 F   0  0  0  0  0  0  0  0  0  0  0  0
   36.6650   21.1450   34.4740 F   0  0  0  0  0  0  0  0  0  0  0  0
   36.5860   20.9510   32.2500 F   0  0  0  0  0  0  0  0  0  0  0  0
  1  2  1  0  0  0  0
  1  8  1  0  0  0  0
  2 11  1  0  0  0  0
  3 24  1  0  0  0  0
  3  2  2  0  0  0  0
  4  3  1  0  0  0  0
  5  4  2  0  0  0  0
  5  6  1  0  0  0  0
  6  1  2  0  0  0  0
  7  5  1  0  0  0  0
  9  7  1  0  0  0  0
 10  7  1  0  0  0  0
 11 16  2  0  0  0  0
 11 12  1  0  0  0  0
 12 13  2  0  0  0  0
 13 14  1  0  0  0  0
 13 18  1  0  0  0  0
 14 19  1  0  0  0  0
 15 20  1  0  0  0  0
 15 14  2  0  0  0  0
 16 15  1  0  0  0  0
 17 12  1  0  0  0  0
 20 23  1  0  0  0  0
 20 21  1  0  0  0  0
 22 20  1  0  0  0  0
 24 26  1  0  0  0  0
 25 24  1  0  0  0  0
 27 24  1  0  0  0  0
M  END
>  <minimizedAffinity>
-5.28439283

$$$$
