
 OpenBabel03262520203D

 16 16  0  0  0  0  0  0  0  0999 V2000
   38.1590   23.5010   34.6700 C   0  0  0  0  0  0  0  0  0  0  0  0
   38.2220   23.1160   36.0340 C   0  0  0  0  0  0  0  0  0  0  0  0
   38.1870   24.1280   37.0090 C   0  0  0  0  0  0  0  0  0  0  0  0
   38.0950   25.4040   36.5670 N   0  0  0  0  0  0  0  0  0  0  0  0
   38.0370   25.7470   35.2650 C   0  0  0  0  0  0  0  0  0  0  0  0
   38.0700   24.7910   34.3360 N   0  0  0  0  0  0  0  0  0  0  0  0
   38.1890   22.6900   33.9450 H   0  0  0  0  0  0  0  0  0  0  0  0
   38.2950   22.0700   36.3110 H   0  0  0  0  0  0  0  0  0  0  0  0
   38.2500   23.7670   38.4470 C   0  0  0  0  0  0  0  0  0  0  0  0
   37.9660   24.9300   39.1280 F   0  0  0  0  0  0  0  0  0  0  0  0
   37.3000   22.8180   38.7910 F   0  0  0  0  0  0  0  0  0  0  0  0
   39.5050   23.3250   38.8200 F   0  0  0  0  0  0  0  0  0  0  0  0
   37.9370   27.1770   34.8610 C   0  0  0  0  0  0  0  0  0  0  0  0
   36.6190   27.6130   34.8830 F   0  0  0  0  0  0  0  0  0  0  0  0
   38.6260   27.9500   35.7660 F   0  0  0  0  0  0  0  0  0  0  0  0
   38.4090   27.3740   33.5920 F   0  0  0  0  0  0  0  0  0  0  0  0
  1  2  1  0  0  0  0
  2  8  1  0  0  0  0
  2  3  2  0  0  0  0
  3  9  1  0  0  0  0
  4  3  1  0  0  0  0
  5  4  2  0  0  0  0
  6  1  2  0  0  0  0
  6  5  1  0  0  0  0
  7  1  1  0  0  0  0
  9 11  1  0  0  0  0
  9 12  1  0  0  0  0
  9 10  1  0  0  0  0
 13 14  1  0  0  0  0
 13  5  1  0  0  0  0
 13 15  1  0  0  0  0
 16 13  1  0  0  0  0
M  END
>  <minimizedAffinity>
-4.84369755

$$$$

 OpenBabel03262520203D

 16 16  0  0  0  0  0  0  0  0999 V2000
   38.1920   23.4030   34.7710 C   0  0  0  0  0  0  0  0  0  0  0  0
   38.1170   24.7400   34.3010 C   0  0  0  0  0  0  0  0  0  0  0  0
   38.0750   25.7730   35.2540 C   0  0  0  0  0  0  0  0  0  0  0  0
   38.1110   25.4100   36.5570 N   0  0  0  0  0  0  0  0  0  0  0  0
   38.1810   24.1330   36.9800 C   0  0  0  0  0  0  0  0  0  0  0  0
   38.2210   23.1480   36.0810 N   0  0  0  0  0  0  0  0  0  0  0  0
   38.2220   22.6310   34.0050 H   0  0  0  0  0  0  0  0  0  0  0  0
   38.0920   24.9530   33.2380 H   0  0  0  0  0  0  0  0  0  0  0  0
   37.9970   27.1860   34.8040 C   0  0  0  0  0  0  0  0  0  0  0  0
   38.6840   27.9100   35.7540 F   0  0  0  0  0  0  0  0  0  0  0  0
   38.6140   27.3800   33.5790 F   0  0  0  0  0  0  0  0  0  0  0  0
   36.6950   27.6440   34.7470 F   0  0  0  0  0  0  0  0  0  0  0  0
   38.2150   23.8160   38.4350 C   0  0  0  0  0  0  0  0  0  0  0  0
   39.4650   23.3440   38.8160 F   0  0  0  0  0  0  0  0  0  0  0  0
   37.9910   24.9680   39.1520 F   0  0  0  0  0  0  0  0  0  0  0  0
   37.3000   22.8530   38.7610 F   0  0  0  0  0  0  0  0  0  0  0  0
  1  6  1  0  0  0  0
  2  1  2  0  0  0  0
  2  3  1  0  0  0  0
  3  4  2  0  0  0  0
  4  5  1  0  0  0  0
  5 13  1  0  0  0  0
  6  5  2  0  0  0  0
  7  1  1  0  0  0  0
  8  2  1  0  0  0  0
  9  3  1  0  0  0  0
  9 10  1  0  0  0  0
 11  9  1  0  0  0  0
 12  9  1  0  0  0  0
 13 16  1  0  0  0  0
 13 14  1  0  0  0  0
 13 15  1  0  0  0  0
M  END
>  <minimizedAffinity>
-4.83345413

$$$$

 OpenBabel03262520203D

 16 16  0  0  0  0  0  0  0  0999 V2000
   39.5680   22.6110   35.0510 C   0  0  0  0  0  0  0  0  0  0  0  0
   38.7750   23.1920   36.0750 C   0  0  0  0  0  0  0  0  0  0  0  0
   39.2170   23.0660   37.4040 C   0  0  0  0  0  0  0  0  0  0  0  0
   40.3750   22.3950   37.6050 N   0  0  0  0  0  0  0  0  0  0  0  0
   41.1110   21.8500   36.6170 C   0  0  0  0  0  0  0  0  0  0  0  0
   40.6970   21.9660   35.3550 N   0  0  0  0  0  0  0  0  0  0  0  0
   39.1930   22.7280   34.0360 H   0  0  0  0  0  0  0  0  0  0  0  0
   37.8570   23.7160   35.8340 H   0  0  0  0  0  0  0  0  0  0  0  0
   38.4180   23.6600   38.5040 C   0  0  0  0  0  0  0  0  0  0  0  0
   37.9480   24.8560   38.0100 F   0  0  0  0  0  0  0  0  0  0  0  0
   37.3290   22.8720   38.8450 F   0  0  0  0  0  0  0  0  0  0  0  0
   39.1820   23.9080   39.6290 F   0  0  0  0  0  0  0  0  0  0  0  0
   42.3750   21.1260   36.9240 C   0  0  0  0  0  0  0  0  0  0  0  0
   42.5830   20.0810   36.0330 F   0  0  0  0  0  0  0  0  0  0  0  0
   43.4360   21.9900   36.7770 F   0  0  0  0  0  0  0  0  0  0  0  0
   42.3540   20.5890   38.1820 F   0  0  0  0  0  0  0  0  0  0  0  0
  1  6  2  0  0  0  0
  1  2  1  0  0  0  0
  2  3  2  0  0  0  0
  3  4  1  0  0  0  0
  3  9  1  0  0  0  0
  5 13  1  0  0  0  0
  5  4  2  0  0  0  0
  6  5  1  0  0  0  0
  7  1  1  0  0  0  0
  8  2  1  0  0  0  0
  9 11  1  0  0  0  0
  9 12  1  0  0  0  0
 10  9  1  0  0  0  0
 13 16  1  0  0  0  0
 14 13  1  0  0  0  0
 15 13  1  0  0  0  0
M  END
>  <minimizedAffinity>
-4.56789684

$$$$

 OpenBabel03262520203D

 16 16  0  0  0  0  0  0  0  0999 V2000
   38.1300   23.0680   35.0630 C   0  0  0  0  0  0  0  0  0  0  0  0
   38.2130   24.3510   34.4630 C   0  0  0  0  0  0  0  0  0  0  0  0
   38.2570   25.4730   35.3090 C   0  0  0  0  0  0  0  0  0  0  0  0
   38.2170   25.2410   36.6420 N   0  0  0  0  0  0  0  0  0  0  0  0
   38.1360   24.0120   37.1890 C   0  0  0  0  0  0  0  0  0  0  0  0
   38.0940   22.9440   36.3910 N   0  0  0  0  0  0  0  0  0  0  0  0
   38.0970   22.2230   34.3760 H   0  0  0  0  0  0  0  0  0  0  0  0
   38.2420   24.4570   33.3840 H   0  0  0  0  0  0  0  0  0  0  0  0
   38.3460   26.8340   34.7220 C   0  0  0  0  0  0  0  0  0  0  0  0
   37.0460   27.2000   34.4520 F   0  0  0  0  0  0  0  0  0  0  0  0
   38.8830   27.7530   35.6090 F   0  0  0  0  0  0  0  0  0  0  0  0
   39.0690   26.8470   33.5440 F   0  0  0  0  0  0  0  0  0  0  0  0
   38.0950   23.8420   38.6670 C   0  0  0  0  0  0  0  0  0  0  0  0
   37.5590   24.9630   39.2870 F   0  0  0  0  0  0  0  0  0  0  0  0
   37.2710   22.7850   38.9760 F   0  0  0  0  0  0  0  0  0  0  0  0
   39.3470   23.6510   39.1850 F   0  0  0  0  0  0  0  0  0  0  0  0
  1  6  1  0  0  0  0
  2  1  2  0  0  0  0
  2  3  1  0  0  0  0
  3  4  2  0  0  0  0
  4  5  1  0  0  0  0
  5 13  1  0  0  0  0
  6  5  2  0  0  0  0
  7  1  1  0  0  0  0
  8  2  1  0  0  0  0
  9  3  1  0  0  0  0
  9 11  1  0  0  0  0
 10  9  1  0  0  0  0
 12  9  1  0  0  0  0
 13 15  1  0  0  0  0
 13 16  1  0  0  0  0
 13 14  1  0  0  0  0
M  END
>  <minimizedAffinity>
-4.5357914

$$$$

 OpenBabel03262520203D

 16 16  0  0  0  0  0  0  0  0999 V2000
   39.6490   22.9530   35.0910 C   0  0  0  0  0  0  0  0  0  0  0  0
   40.8090   22.1700   35.3270 C   0  0  0  0  0  0  0  0  0  0  0  0
   41.1680   21.9090   36.6610 C   0  0  0  0  0  0  0  0  0  0  0  0
   40.3740   22.4300   37.6250 N   0  0  0  0  0  0  0  0  0  0  0  0
   39.2770   23.1720   37.3770 C   0  0  0  0  0  0  0  0  0  0  0  0
   38.9310   23.4220   36.1130 N   0  0  0  0  0  0  0  0  0  0  0  0
   39.4030   23.1330   34.0460 H   0  0  0  0  0  0  0  0  0  0  0  0
   41.3970   21.7870   34.5000 H   0  0  0  0  0  0  0  0  0  0  0  0
   42.3740   21.0940   36.9520 C   0  0  0  0  0  0  0  0  0  0  0  0
   42.2280   20.6780   38.2570 F   0  0  0  0  0  0  0  0  0  0  0  0
   42.4550   19.9710   36.1440 F   0  0  0  0  0  0  0  0  0  0  0  0
   43.5400   21.8290   36.8440 F   0  0  0  0  0  0  0  0  0  0  0  0
   38.4550   23.7080   38.4960 C   0  0  0  0  0  0  0  0  0  0  0  0
   37.9320   24.9560   38.1810 F   0  0  0  0  0  0  0  0  0  0  0  0
   37.3840   22.8720   38.7100 F   0  0  0  0  0  0  0  0  0  0  0  0
   39.1950   23.8540   39.6370 F   0  0  0  0  0  0  0  0  0  0  0  0
  1  2  2  0  0  0  0
  1  6  1  0  0  0  0
  2  3  1  0  0  0  0
  3  9  1  0  0  0  0
  3  4  2  0  0  0  0
  5  4  1  0  0  0  0
  5 13  1  0  0  0  0
  6  5  2  0  0  0  0
  7  1  1  0  0  0  0
  8  2  1  0  0  0  0
  9 10  1  0  0  0  0
 11  9  1  0  0  0  0
 12  9  1  0  0  0  0
 13 15  1  0  0  0  0
 13 16  1  0  0  0  0
 14 13  1  0  0  0  0
M  END
>  <minimizedAffinity>
-4.48509979

$$$$

 OpenBabel03262520203D

 16 16  0  0  0  0  0  0  0  0999 V2000
   38.1220   25.5640   35.0560 C   0  0  0  0  0  0  0  0  0  0  0  0
   38.1700   25.3690   36.4610 C   0  0  0  0  0  0  0  0  0  0  0  0
   38.1730   24.0490   36.9440 C   0  0  0  0  0  0  0  0  0  0  0  0
   38.1300   23.0570   36.0240 N   0  0  0  0  0  0  0  0  0  0  0  0
   38.0840   23.2670   34.6940 C   0  0  0  0  0  0  0  0  0  0  0  0
   38.0810   24.5170   34.2290 N   0  0  0  0  0  0  0  0  0  0  0  0
   38.1210   26.6000   34.7200 H   0  0  0  0  0  0  0  0  0  0  0  0
   38.2030   26.2160   37.1370 H   0  0  0  0  0  0  0  0  0  0  0  0
   38.2240   23.8010   38.4060 C   0  0  0  0  0  0  0  0  0  0  0  0
   39.4910   23.3200   38.6520 F   0  0  0  0  0  0  0  0  0  0  0  0
   38.0490   24.9630   39.1410 F   0  0  0  0  0  0  0  0  0  0  0  0
   37.3000   22.8540   38.8070 F   0  0  0  0  0  0  0  0  0  0  0  0
   38.0380   22.1190   33.7460 C   0  0  0  0  0  0  0  0  0  0  0  0
   39.2100   21.3760   33.8000 F   0  0  0  0  0  0  0  0  0  0  0  0
   37.0150   21.2750   34.1110 F   0  0  0  0  0  0  0  0  0  0  0  0
   37.8840   22.5410   32.4540 F   0  0  0  0  0  0  0  0  0  0  0  0
  1  2  1  0  0  0  0
  2  3  2  0  0  0  0
  2  8  1  0  0  0  0
  3  9  1  0  0  0  0
  4  3  1  0  0  0  0
  5  4  2  0  0  0  0
  6  5  1  0  0  0  0
  6  1  2  0  0  0  0
  7  1  1  0  0  0  0
  9 10  1  0  0  0  0
  9 12  1  0  0  0  0
  9 11  1  0  0  0  0
 13 14  1  0  0  0  0
 13 15  1  0  0  0  0
 13  5  1  0  0  0  0
 16 13  1  0  0  0  0
M  END
>  <minimizedAffinity>
-4.2911849

$$$$

 OpenBabel03262520203D

 16 16  0  0  0  0  0  0  0  0999 V2000
   38.1190   25.5930   35.1760 C   0  0  0  0  0  0  0  0  0  0  0  0
   38.0860   24.5310   34.2350 C   0  0  0  0  0  0  0  0  0  0  0  0
   38.1000   23.2130   34.7260 C   0  0  0  0  0  0  0  0  0  0  0  0
   38.1440   23.0580   36.0700 N   0  0  0  0  0  0  0  0  0  0  0  0
   38.1760   24.0830   36.9450 C   0  0  0  0  0  0  0  0  0  0  0  0
   38.1630   25.3340   36.4850 N   0  0  0  0  0  0  0  0  0  0  0  0
   38.1080   26.5980   34.7590 H   0  0  0  0  0  0  0  0  0  0  0  0
   38.0520   24.7350   33.1710 H   0  0  0  0  0  0  0  0  0  0  0  0
   38.0650   22.0740   33.7760 C   0  0  0  0  0  0  0  0  0  0  0  0
   37.8590   22.6380   32.5370 F   0  0  0  0  0  0  0  0  0  0  0  0
   39.2650   21.3810   33.7450 F   0  0  0  0  0  0  0  0  0  0  0  0
   37.0300   21.1990   34.0480 F   0  0  0  0  0  0  0  0  0  0  0  0
   38.2230   23.8270   38.4110 C   0  0  0  0  0  0  0  0  0  0  0  0
   37.9240   24.9760   39.1310 F   0  0  0  0  0  0  0  0  0  0  0  0
   37.2670   22.8940   38.7370 F   0  0  0  0  0  0  0  0  0  0  0  0
   39.4650   23.4110   38.8080 F   0  0  0  0  0  0  0  0  0  0  0  0
  1  6  1  0  0  0  0
  2  3  1  0  0  0  0
  2  1  2  0  0  0  0
  3  4  2  0  0  0  0
  4  5  1  0  0  0  0
  5 13  1  0  0  0  0
  6  5  2  0  0  0  0
  7  1  1  0  0  0  0
  8  2  1  0  0  0  0
  9 12  1  0  0  0  0
  9  3  1  0  0  0  0
 10  9  1  0  0  0  0
 11  9  1  0  0  0  0
 13 15  1  0  0  0  0
 13 16  1  0  0  0  0
 13 14  1  0  0  0  0
M  END
>  <minimizedAffinity>
-4.19718552

$$$$

 OpenBabel03262520203D

 16 16  0  0  0  0  0  0  0  0999 V2000
   40.9030   22.3580   36.1650 C   0  0  0  0  0  0  0  0  0  0  0  0
   40.1440   22.0340   35.0100 C   0  0  0  0  0  0  0  0  0  0  0  0
   38.7580   22.2660   35.0450 C   0  0  0  0  0  0  0  0  0  0  0  0
   38.2490   22.7850   36.1870 N   0  0  0  0  0  0  0  0  0  0  0  0
   38.9900   23.0840   37.2720 C   0  0  0  0  0  0  0  0  0  0  0  0
   40.3050   22.8670   37.2450 N   0  0  0  0  0  0  0  0  0  0  0  0
   41.9720   22.1650   36.1000 H   0  0  0  0  0  0  0  0  0  0  0  0
   40.6240   21.6200   34.1300 H   0  0  0  0  0  0  0  0  0  0  0  0
   37.9280   21.9410   33.8580 C   0  0  0  0  0  0  0  0  0  0  0  0
   36.7800   21.3690   34.3600 F   0  0  0  0  0  0  0  0  0  0  0  0
   37.5720   23.0730   33.1420 F   0  0  0  0  0  0  0  0  0  0  0  0
   38.5500   21.0360   33.0180 F   0  0  0  0  0  0  0  0  0  0  0  0
   38.3530   23.6540   38.4910 C   0  0  0  0  0  0  0  0  0  0  0  0
   39.2710   23.7780   39.5260 F   0  0  0  0  0  0  0  0  0  0  0  0
   37.8960   24.9210   38.2110 F   0  0  0  0  0  0  0  0  0  0  0  0
   37.3360   22.8590   38.9440 F   0  0  0  0  0  0  0  0  0  0  0  0
  1  6  1  0  0  0  0
  2  3  1  0  0  0  0
  2  1  2  0  0  0  0
  3  4  2  0  0  0  0
  4  5  1  0  0  0  0
  5 13  1  0  0  0  0
  6  5  2  0  0  0  0
  7  1  1  0  0  0  0
  8  2  1  0  0  0  0
  9 10  1  0  0  0  0
  9  3  1  0  0  0  0
 11  9  1  0  0  0  0
 12  9  1  0  0  0  0
 13 16  1  0  0  0  0
 13 14  1  0  0  0  0
 15 13  1  0  0  0  0
M  END
>  <minimizedAffinity>
-4.10937023

$$$$

 OpenBabel03262520203D

 16 16  0  0  0  0  0  0  0  0999 V2000
   39.5320   22.9150   34.1750 C   0  0  0  0  0  0  0  0  0  0  0  0
   39.5030   23.3280   35.5320 C   0  0  0  0  0  0  0  0  0  0  0  0
   38.3830   22.9750   36.3060 C   0  0  0  0  0  0  0  0  0  0  0  0
   37.4110   22.2620   35.6910 N   0  0  0  0  0  0  0  0  0  0  0  0
   37.4600   21.8810   34.4000 C   0  0  0  0  0  0  0  0  0  0  0  0
   38.5190   22.2130   33.6610 N   0  0  0  0  0  0  0  0  0  0  0  0
   40.4140   23.2070   33.6080 H   0  0  0  0  0  0  0  0  0  0  0  0
   40.3220   23.8990   35.9550 H   0  0  0  0  0  0  0  0  0  0  0  0
   38.3140   23.3860   37.7300 C   0  0  0  0  0  0  0  0  0  0  0  0
   38.1480   24.7530   37.7080 F   0  0  0  0  0  0  0  0  0  0  0  0
   37.2290   22.8260   38.3860 F   0  0  0  0  0  0  0  0  0  0  0  0
   39.4770   23.0870   38.4160 F   0  0  0  0  0  0  0  0  0  0  0  0
   36.3460   21.0970   33.7970 C   0  0  0  0  0  0  0  0  0  0  0  0
   35.5230   20.5610   34.7780 F   0  0  0  0  0  0  0  0  0  0  0  0
   35.5640   21.9360   33.0370 F   0  0  0  0  0  0  0  0  0  0  0  0
   36.8150   20.0550   33.0460 F   0  0  0  0  0  0  0  0  0  0  0  0
  1  2  1  0  0  0  0
  2  8  1  0  0  0  0
  2  3  2  0  0  0  0
  3  9  1  0  0  0  0
  4  3  1  0  0  0  0
  5  4  2  0  0  0  0
  6  1  2  0  0  0  0
  6  5  1  0  0  0  0
  7  1  1  0  0  0  0
  9 11  1  0  0  0  0
  9 12  1  0  0  0  0
 10  9  1  0  0  0  0
 13  5  1  0  0  0  0
 13 14  1  0  0  0  0
 15 13  1  0  0  0  0
 16 13  1  0  0  0  0
M  END
>  <minimizedAffinity>
-4.08376026

$$$$
