
 OpenBabel03272509273D

 36 37  0  0  1  0  0  0  0  0999 V2000
   38.5910   32.1050   48.5270 C   0  0  2  0  0  0  0  0  0  0  0  0
   38.9360   33.2800   49.4050 C   0  0  0  0  0  0  0  0  0  0  0  0
   39.6360   34.3450   48.6250 C   0  0  0  0  0  0  0  0  0  0  0  0
   40.4020   33.7860   47.4750 C   0  0  0  0  0  0  0  0  0  0  0  0
   39.2930   33.4970   46.5140 C   0  0  0  0  0  0  0  0  0  0  0  0
   38.5290   32.3340   47.1120 C   0  0  1  0  0  0  0  0  0  0  0  0
   39.3140   31.3100   48.8120 H   0  0  0  0  0  0  0  0  0  0  0  0
   39.5930   33.0020   50.2730 H   0  0  0  0  0  0  0  0  0  0  0  0
   38.0330   33.7150   49.8780 H   0  0  0  0  0  0  0  0  0  0  0  0
   38.8640   35.0990   48.3050 H   0  0  0  0  0  0  0  0  0  0  0  0
   40.3310   34.8770   49.2660 H   0  0  0  0  0  0  0  0  0  0  0  0
   40.8970   32.8650   47.7900 H   0  0  0  0  0  0  0  0  0  0  0  0
   41.1410   34.5190   47.0660 H   0  0  0  0  0  0  0  0  0  0  0  0
   39.6640   33.3460   45.5060 H   0  0  0  0  0  0  0  0  0  0  0  0
   38.6010   34.3880   46.4450 H   0  0  0  0  0  0  0  0  0  0  0  0
   37.4830   32.4610   46.7690 H   0  0  0  0  0  0  0  0  0  0  0  0
   39.1680   31.1660   46.3710 C   0  0  0  0  0  0  0  0  0  0  0  0
   38.7130   29.9550   46.8590 F   0  0  0  0  0  0  0  0  0  0  0  0
   38.7840   31.1100   45.0200 F   0  0  0  0  0  0  0  0  0  0  0  0
   40.5310   31.2140   46.2740 F   0  0  0  0  0  0  0  0  0  0  0  0
   36.9770   31.5090   49.1300 S   0  0  0  0  0  0  0  0  0  0  0  0
   36.3870   30.0320   48.4650 C   0  0  0  0  0  0  0  0  0  0  0  0
   35.6400   29.7150   49.3170 H   0  0  0  0  0  0  0  0  0  0  0  0
   36.9970   29.1200   48.4240 H   0  0  0  0  0  0  0  0  0  0  0  0
   35.4550   30.1740   47.2880 C   0  0  0  0  0  0  0  0  0  0  0  0
   35.1350   31.2590   47.2870 H   0  0  0  0  0  0  0  0  0  0  0  0
   35.8770   29.8830   46.3270 H   0  0  0  0  0  0  0  0  0  0  0  0
   32.8940   27.9060   48.7740 C   0  0  0  0  0  0  0  0  0  0  0  0
   34.0590   28.6330   48.6010 C   0  0  0  0  0  0  0  0  0  0  0  0
   34.2370   29.3970   47.4840 C   0  0  0  0  0  0  0  0  0  0  0  0
   33.2060   29.4030   46.5510 N   0  0  0  0  0  0  0  0  0  0  0  0
   32.0970   28.6950   46.7420 C   0  0  0  0  0  0  0  0  0  0  0  0
   31.9010   27.9350   47.8360 N   0  0  0  0  0  0  0  0  0  0  0  0
   32.6080   27.2560   49.6040 H   0  0  0  0  0  0  0  0  0  0  0  0
   34.6860   28.4350   49.4570 H   0  0  0  0  0  0  0  0  0  0  0  0
   31.3530   28.7690   45.9520 H   0  0  0  0  0  0  0  0  0  0  0  0
  1  7  1  1  0  0  0
  1 21  1  0  0  0  0
  1  2  1  0  0  0  0
  2  9  1  0  0  0  0
  2  8  1  0  0  0  0
  3 11  1  0  0  0  0
  3  2  1  0  0  0  0
  4 12  1  0  0  0  0
  4  3  1  0  0  0  0
  5  6  1  0  0  0  0
  5  4  1  0  0  0  0
  6 16  1  6  0  0  0
  6  1  1  0  0  0  0
 10  3  1  0  0  0  0
 13  4  1  0  0  0  0
 14  5  1  0  0  0  0
 15  5  1  0  0  0  0
 17 18  1  0  0  0  0
 17  6  1  0  0  0  0
 19 17  1  0  0  0  0
 20 17  1  0  0  0  0
 22 21  1  0  0  0  0
 22 23  1  0  0  0  0
 24 22  1  0  0  0  0
 25 30  1  0  0  0  0
 25 22  1  0  0  0  0
 26 25  1  0  0  0  0
 27 25  1  0  0  0  0
 28 34  1  0  0  0  0
 29 28  1  0  0  0  0
 29 35  1  0  0  0  0
 30 29  2  0  0  0  0
 31 32  2  0  0  0  0
 31 30  1  0  0  0  0
 32 33  1  0  0  0  0
 33 28  2  0  0  0  0
 36 32  1  0  0  0  0
M  END
>  <minimizedAffinity>
-4.18751907

>  <minimizedRMSD>
0.568464994

$$$$
