
 OpenBabel03272506473D

 37 39  0  0  1  0  0  0  0  0999 V2000
   32.2920   28.5580   47.4450 C   0  0  2  0  0  0  0  0  0  0  0  0
   33.5510   28.2940   48.2150 C   0  0  1  0  0  0  0  0  0  0  0  0
   33.8850   26.9830   48.0430 O   0  0  0  0  0  0  0  0  0  0  0  0
   33.1220   26.4490   47.0100 C   0  0  0  0  0  0  0  0  0  0  0  0
   32.5430   27.6050   46.2340 C   0  0  1  0  0  0  0  0  0  0  0  0
   31.3650   28.2700   47.9320 H   0  0  0  0  0  0  0  0  0  0  0  0
   33.4340   28.6090   49.2680 H   0  0  0  0  0  0  0  0  0  0  0  0
   32.4160   25.7720   47.4640 H   0  0  0  0  0  0  0  0  0  0  0  0
   33.7850   25.8160   46.3630 H   0  0  0  0  0  0  0  0  0  0  0  0
   33.2320   28.1170   45.5740 H   0  0  0  0  0  0  0  0  0  0  0  0
   32.2650   29.8870   46.9760 O   0  0  0  0  0  0  0  0  0  0  0  0
   31.4260   30.3350   47.1750 H   0  0  0  0  0  0  0  0  0  0  0  0
   34.8830   29.3200   47.4700 S   0  0  0  0  0  0  0  0  0  0  0  0
   37.1770   29.3470   50.6940 C   0  0  0  0  0  0  0  0  0  0  0  0
   37.6630   30.6560   50.7930 C   0  0  0  0  0  0  0  0  0  0  0  0
   37.2530   31.5690   49.8050 C   0  0  0  0  0  0  0  0  0  0  0  0
   36.4220   31.1410   48.8240 N   0  0  0  0  0  0  0  0  0  0  0  0
   35.9800   29.8630   48.7750 C   0  0  0  0  0  0  0  0  0  0  0  0
   36.3510   28.9480   49.7090 N   0  0  0  0  0  0  0  0  0  0  0  0
   37.4780   28.6300   51.4420 H   0  0  0  0  0  0  0  0  0  0  0  0
   38.3270   30.9710   51.5890 H   0  0  0  0  0  0  0  0  0  0  0  0
   37.5800   32.5890   49.8080 H   0  0  0  0  0  0  0  0  0  0  0  0
   31.3580   27.2100   45.6630 O   0  0  0  0  0  0  0  0  0  0  0  0
   29.8710   29.5260   44.6130 Cl  0  0  0  0  0  0  0  0  0  0  0  0
   29.3630   28.3540   45.8060 C   0  0  0  0  0  0  0  0  0  0  0  0
   30.1510   27.3000   46.2110 C   0  0  0  0  0  0  0  0  0  0  0  0
   29.6270   26.4130   47.1540 C   0  0  0  0  0  0  0  0  0  0  0  0
   28.3550   26.5960   47.6590 C   0  0  0  0  0  0  0  0  0  0  0  0
   27.5570   27.6540   47.2580 C   0  0  0  0  0  0  0  0  0  0  0  0
   28.0860   28.5350   46.3170 C   0  0  0  0  0  0  0  0  0  0  0  0
   30.1620   25.5580   47.5280 H   0  0  0  0  0  0  0  0  0  0  0  0
   27.8910   25.9510   48.3880 H   0  0  0  0  0  0  0  0  0  0  0  0
   26.5610   27.8080   47.6450 H   0  0  0  0  0  0  0  0  0  0  0  0
   27.2360   29.6730   45.8800 C   0  0  0  0  0  0  0  0  0  0  0  0
   26.8240   29.5380   44.5670 F   0  0  0  0  0  0  0  0  0  0  0  0
   28.0290   30.8250   45.9710 F   0  0  0  0  0  0  0  0  0  0  0  0
   26.1830   29.8850   46.7270 F   0  0  0  0  0  0  0  0  0  0  0  0
  1  6  1  1  0  0  0
  1  2  1  0  0  0  0
  2  7  1  1  0  0  0
  3  2  1  0  0  0  0
  4  8  1  0  0  0  0
  4  3  1  0  0  0  0
  5 10  1  6  0  0  0
  5  4  1  0  0  0  0
  5  1  1  0  0  0  0
  9  4  1  0  0  0  0
 11 12  1  0  0  0  0
 11  1  1  0  0  0  0
 13  2  1  0  0  0  0
 13 18  1  0  0  0  0
 14 15  1  0  0  0  0
 14 20  1  0  0  0  0
 15 21  1  0  0  0  0
 16 22  1  0  0  0  0
 16 15  2  0  0  0  0
 17 16  1  0  0  0  0
 18 17  2  0  0  0  0
 18 19  1  0  0  0  0
 19 14  2  0  0  0  0
 23 26  1  0  0  0  0
 23  5  1  0  0  0  0
 24 25  1  0  0  0  0
 25 26  2  0  0  0  0
 25 30  1  0  0  0  0
 26 27  1  0  0  0  0
 27 31  1  0  0  0  0
 27 28  2  0  0  0  0
 28 32  1  0  0  0  0
 29 33  1  0  0  0  0
 29 28  1  0  0  0  0
 30 29  2  0  0  0  0
 34 36  1  0  0  0  0
 34 30  1  0  0  0  0
 34 37  1  0  0  0  0
 35 34  1  0  0  0  0
M  END
>  <minimizedAffinity>
-4.76559782

>  <minimizedRMSD>
0.404102325

$$$$
