
 OpenBabel03272510233D

 26 28  0  0  0  0  0  0  0  0999 V2000
   35.8460   30.1400   46.7970 C   0  0  0  0  0  0  0  0  0  0  0  0
   36.4610   30.5660   47.9510 C   0  0  0  0  0  0  0  0  0  0  0  0
   37.5440   31.4130   47.8930 C   0  0  0  0  0  0  0  0  0  0  0  0
   37.9770   31.8120   46.6420 C   0  0  0  0  0  0  0  0  0  0  0  0
   39.0200   32.6410   46.3330 N   0  0  0  0  0  0  0  0  0  0  0  0
   39.0640   32.7390   44.9980 C   0  0  0  0  0  0  0  0  0  0  0  0
   38.0870   32.0010   44.4380 N   0  0  0  0  0  0  0  0  0  0  0  0
   37.3920   31.4120   45.4460 C   0  0  0  0  0  0  0  0  0  0  0  0
   36.3070   30.5600   45.5420 C   0  0  0  0  0  0  0  0  0  0  0  0
   34.9960   29.4770   46.7690 H   0  0  0  0  0  0  0  0  0  0  0  0
   38.0200   31.7430   48.7950 H   0  0  0  0  0  0  0  0  0  0  0  0
   39.6740   33.1190   47.0130 H   0  0  0  0  0  0  0  0  0  0  0  0
   35.8260   30.2270   44.6160 H   0  0  0  0  0  0  0  0  0  0  0  0
   36.0460   29.3620   51.4990 C   0  0  0  0  0  0  0  0  0  0  0  0
   36.6540   29.8360   50.3410 C   0  0  0  0  0  0  0  0  0  0  0  0
   35.9030   30.0700   49.2050 C   0  0  0  0  0  0  0  0  0  0  0  0
   34.5600   29.8260   49.2550 N   0  0  0  0  0  0  0  0  0  0  0  0
   33.9920   29.3600   50.4120 C   0  0  0  0  0  0  0  0  0  0  0  0
   34.7190   29.1350   51.5020 N   0  0  0  0  0  0  0  0  0  0  0  0
   36.6590   29.1920   52.3610 H   0  0  0  0  0  0  0  0  0  0  0  0
   37.7020   30.0210   50.3200 H   0  0  0  0  0  0  0  0  0  0  0  0
   32.9200   29.2000   50.3360 H   0  0  0  0  0  0  0  0  0  0  0  0
   40.0820   33.5670   44.2840 C   0  0  0  0  0  0  0  0  0  0  0  0
   41.3480   33.0650   44.3640 F   0  0  0  0  0  0  0  0  0  0  0  0
   40.0710   34.8560   44.8100 F   0  0  0  0  0  0  0  0  0  0  0  0
   39.7550   33.7060   42.9470 F   0  0  0  0  0  0  0  0  0  0  0  0
  1  2  1  0  0  0  0
  2 16  1  0  0  0  0
  3  2  2  0  0  0  0
  3 11  1  0  0  0  0
  4  3  1  0  0  0  0
  5  4  1  0  0  0  0
  5 12  1  0  0  0  0
  6  5  1  0  0  0  0
  7  6  2  0  0  0  0
  7  8  1  0  0  0  0
  8  9  1  0  0  0  0
  8  4  2  0  0  0  0
  9  1  2  0  0  0  0
 10  1  1  0  0  0  0
 13  9  1  0  0  0  0
 14 19  1  0  0  0  0
 14 20  1  0  0  0  0
 15 14  2  0  0  0  0
 16 17  2  0  0  0  0
 16 15  1  0  0  0  0
 17 18  1  0  0  0  0
 18 19  2  0  0  0  0
 21 15  1  0  0  0  0
 22 18  1  0  0  0  0
 23 24  1  0  0  0  0
 23 25  1  0  0  0  0
 23  6  1  0  0  0  0
 26 23  1  0  0  0  0
M  END
>  <minimizedAffinity>
-5.02375078

>  <minimizedRMSD>
1.40189421

$$$$
