
 OpenBabel03272510333D

 23 24  0  0  0  0  0  0  0  0999 V2000
   36.1720   30.1280   48.4330 C   0  0  0  0  0  0  0  0  0  0  0  0
   35.1320   29.9160   47.5450 C   0  0  0  0  0  0  0  0  0  0  0  0
   34.0250   29.1730   47.9080 C   0  0  0  0  0  0  0  0  0  0  0  0
   33.9910   28.6450   49.1930 C   0  0  0  0  0  0  0  0  0  0  0  0
   35.0170   28.8460   50.0900 C   0  0  0  0  0  0  0  0  0  0  0  0
   36.1300   29.6010   49.7040 C   0  0  0  0  0  0  0  0  0  0  0  0
   35.1670   30.3300   46.5460 H   0  0  0  0  0  0  0  0  0  0  0  0
   33.1990   28.9830   47.2560 H   0  0  0  0  0  0  0  0  0  0  0  0
   33.1540   28.0530   49.5420 H   0  0  0  0  0  0  0  0  0  0  0  0
   34.9610   28.4230   51.0810 H   0  0  0  0  0  0  0  0  0  0  0  0
   38.5040   32.8980   48.1240 C   0  0  0  0  0  0  0  0  0  0  0  0
   39.3840   32.5190   47.1120 C   0  0  0  0  0  0  0  0  0  0  0  0
   39.1560   31.2640   46.5240 C   0  0  0  0  0  0  0  0  0  0  0  0
   38.1190   30.5040   46.9600 N   0  0  0  0  0  0  0  0  0  0  0  0
   37.2880   30.9180   47.9520 C   0  0  0  0  0  0  0  0  0  0  0  0
   37.5030   32.1150   48.5150 N   0  0  0  0  0  0  0  0  0  0  0  0
   38.6360   33.8640   48.6140 H   0  0  0  0  0  0  0  0  0  0  0  0
   40.1980   33.1470   46.7880 H   0  0  0  0  0  0  0  0  0  0  0  0
   39.8080   30.9050   45.7240 H   0  0  0  0  0  0  0  0  0  0  0  0
   37.2130   29.8080   50.6770 C   0  0  0  0  0  0  0  0  0  0  0  0
   38.4530   29.6010   50.1300 F   0  0  0  0  0  0  0  0  0  0  0  0
   37.0540   31.0400   51.2710 F   0  0  0  0  0  0  0  0  0  0  0  0
   37.1230   28.8670   51.7190 F   0  0  0  0  0  0  0  0  0  0  0  0
  1  6  1  0  0  0  0
  2  3  1  0  0  0  0
  2  1  2  0  0  0  0
  3  4  2  0  0  0  0
  4  9  1  0  0  0  0
  4  5  1  0  0  0  0
  5 10  1  0  0  0  0
  6  5  2  0  0  0  0
  6 20  1  0  0  0  0
  7  2  1  0  0  0  0
  8  3  1  0  0  0  0
 11 16  1  0  0  0  0
 11 17  1  0  0  0  0
 12 11  2  0  0  0  0
 13 14  2  0  0  0  0
 13 12  1  0  0  0  0
 14 15  1  0  0  0  0
 15  1  1  0  0  0  0
 15 16  2  0  0  0  0
 18 12  1  0  0  0  0
 19 13  1  0  0  0  0
 20 22  1  0  0  0  0
 20 23  1  0  0  0  0
 21 20  1  0  0  0  0
M  END
>  <minimizedAffinity>
-5.84648228

>  <minimizedRMSD>
0.879063249

$$$$
