
 OpenBabel03272507003D

 30 32  0  0  0  0  0  0  0  0999 V2000
   37.1690   25.3390   31.8450 C   0  0  0  0  0  0  0  0  0  0  0  0
   37.2420   24.3530   30.8660 C   0  0  0  0  0  0  0  0  0  0  0  0
   37.5950   23.0420   31.0550 C   0  0  0  0  0  0  0  0  0  0  0  0
   37.9010   22.6860   32.3290 N   0  0  0  0  0  0  0  0  0  0  0  0
   37.8380   23.6350   33.3140 C   0  0  0  0  0  0  0  0  0  0  0  0
   37.4870   24.9040   33.0770 N   0  0  0  0  0  0  0  0  0  0  0  0
   36.9990   24.6260   29.8380 H   0  0  0  0  0  0  0  0  0  0  0  0
   37.6300   22.3370   30.2560 H   0  0  0  0  0  0  0  0  0  0  0  0
   37.0190   28.5030   30.1060 C   0  0  0  0  0  0  0  0  0  0  0  0
   36.1070   29.2810   30.8400 C   0  0  0  0  0  0  0  0  0  0  0  0
   35.5490   28.6680   31.9570 C   0  0  0  0  0  0  0  0  0  0  0  0
   35.9040   27.3970   32.2640 N   0  0  0  0  0  0  0  0  0  0  0  0
   36.7790   26.7050   31.5270 C   0  0  0  0  0  0  0  0  0  0  0  0
   37.3760   27.2210   30.4160 N   0  0  0  0  0  0  0  0  0  0  0  0
   37.4890   28.9250   29.2230 H   0  0  0  0  0  0  0  0  0  0  0  0
   34.8380   29.2370   32.5510 H   0  0  0  0  0  0  0  0  0  0  0  0
   35.8020   30.5970   30.4400 N   0  0  0  0  0  0  0  0  0  0  0  0
   34.9370   31.0160   30.8420 H   0  0  0  0  0  0  0  0  0  0  0  0
   36.4490   31.0690   29.7750 H   0  0  0  0  0  0  0  0  0  0  0  0
   38.1440   23.3720   34.7180 C   0  0  0  0  0  0  0  0  0  0  0  0
   38.8920   22.2460   34.9890 C   0  0  0  0  0  0  0  0  0  0  0  0
   39.0910   22.1410   36.3300 N   0  0  0  0  0  0  0  0  0  0  0  0
   38.4560   23.2160   36.8910 C   0  0  0  0  0  0  0  0  0  0  0  0
   37.8890   23.9500   35.9040 N   0  0  0  0  0  0  0  0  0  0  0  0
   39.3340   21.4610   34.3560 H   0  0  0  0  0  0  0  0  0  0  0  0
   39.6090   21.4170   36.8750 H   0  0  0  0  0  0  0  0  0  0  0  0
   38.3480   23.6030   38.3250 C   0  0  0  0  0  0  0  0  0  0  0  0
   39.5170   23.3920   39.0170 F   0  0  0  0  0  0  0  0  0  0  0  0
   37.3660   22.8540   38.9770 F   0  0  0  0  0  0  0  0  0  0  0  0
   37.9740   24.9300   38.4650 F   0  0  0  0  0  0  0  0  0  0  0  0
  1  6  1  0  0  0  0
  2  3  1  0  0  0  0
  2  1  2  0  0  0  0
  3  4  2  0  0  0  0
  4  5  1  0  0  0  0
  5 20  1  0  0  0  0
  6  5  2  0  0  0  0
  7  2  1  0  0  0  0
  8  3  1  0  0  0  0
  9 14  2  0  0  0  0
  9 10  1  0  0  0  0
 10 11  2  0  0  0  0
 11 12  1  0  0  0  0
 11 16  1  0  0  0  0
 13  1  1  0  0  0  0
 13 12  2  0  0  0  0
 14 13  1  0  0  0  0
 15  9  1  0  0  0  0
 17 10  1  0  0  0  0
 17 18  1  0  0  0  0
 19 17  1  0  0  0  0
 20 21  2  0  0  0  0
 20 24  1  0  0  0  0
 21 22  1  0  0  0  0
 22 26  1  0  0  0  0
 22 23  1  0  0  0  0
 23 27  1  0  0  0  0
 24 23  2  0  0  0  0
 25 21  1  0  0  0  0
 27 30  1  0  0  0  0
 27 29  1  0  0  0  0
 27 28  1  0  0  0  0
M  END
>  <minimizedAffinity>
-5.87317944

$$$$

 OpenBabel03272507003D

 30 32  0  0  0  0  0  0  0  0999 V2000
   36.3090   28.3980   33.7910 C   0  0  0  0  0  0  0  0  0  0  0  0
   36.7510   28.2860   32.4770 C   0  0  0  0  0  0  0  0  0  0  0  0
   37.5380   27.2880   31.9640 C   0  0  0  0  0  0  0  0  0  0  0  0
   37.9140   26.3190   32.8390 N   0  0  0  0  0  0  0  0  0  0  0  0
   37.4940   26.4030   34.1390 C   0  0  0  0  0  0  0  0  0  0  0  0
   36.7250   27.4010   34.5910 N   0  0  0  0  0  0  0  0  0  0  0  0
   36.4560   29.0580   31.7650 H   0  0  0  0  0  0  0  0  0  0  0  0
   37.8410   27.2640   30.9420 H   0  0  0  0  0  0  0  0  0  0  0  0
   33.4640   30.6160   34.0010 C   0  0  0  0  0  0  0  0  0  0  0  0
   33.8150   31.5710   34.9720 C   0  0  0  0  0  0  0  0  0  0  0  0
   35.0720   31.4150   35.5480 C   0  0  0  0  0  0  0  0  0  0  0  0
   35.8600   30.3870   35.1540 N   0  0  0  0  0  0  0  0  0  0  0  0
   35.4710   29.5080   34.2240 C   0  0  0  0  0  0  0  0  0  0  0  0
   34.2590   29.5790   33.6050 N   0  0  0  0  0  0  0  0  0  0  0  0
   32.4960   30.6830   33.5140 H   0  0  0  0  0  0  0  0  0  0  0  0
   35.3800   32.1340   36.3040 H   0  0  0  0  0  0  0  0  0  0  0  0
   32.9240   32.6070   35.3140 N   0  0  0  0  0  0  0  0  0  0  0  0
   33.1110   33.1040   36.2100 H   0  0  0  0  0  0  0  0  0  0  0  0
   32.1400   32.8150   34.6610 H   0  0  0  0  0  0  0  0  0  0  0  0
   37.8340   25.4240   35.1690 C   0  0  0  0  0  0  0  0  0  0  0  0
   38.3330   24.2150   34.7340 C   0  0  0  0  0  0  0  0  0  0  0  0
   38.5990   23.4180   35.8030 N   0  0  0  0  0  0  0  0  0  0  0  0
   38.2590   24.1470   36.9110 C   0  0  0  0  0  0  0  0  0  0  0  0
   37.7990   25.3560   36.5110 N   0  0  0  0  0  0  0  0  0  0  0  0
   38.5450   23.7980   33.7360 H   0  0  0  0  0  0  0  0  0  0  0  0
   38.9830   22.4480   35.8360 H   0  0  0  0  0  0  0  0  0  0  0  0
   38.3420   23.7700   38.3490 C   0  0  0  0  0  0  0  0  0  0  0  0
   37.3660   22.8750   38.7160 F   0  0  0  0  0  0  0  0  0  0  0  0
   38.1800   24.8860   39.1730 F   0  0  0  0  0  0  0  0  0  0  0  0
   39.5830   23.2390   38.6630 F   0  0  0  0  0  0  0  0  0  0  0  0
  1 13  1  0  0  0  0
  1  6  1  0  0  0  0
  2  1  2  0  0  0  0
  3  2  1  0  0  0  0
  3  4  2  0  0  0  0
  4  5  1  0  0  0  0
  5  6  2  0  0  0  0
  5 20  1  0  0  0  0
  7  2  1  0  0  0  0
  8  3  1  0  0  0  0
  9 10  1  0  0  0  0
 10 17  1  0  0  0  0
 10 11  2  0  0  0  0
 11 16  1  0  0  0  0
 12 11  1  0  0  0  0
 13 12  2  0  0  0  0
 14  9  2  0  0  0  0
 14 13  1  0  0  0  0
 15  9  1  0  0  0  0
 17 18  1  0  0  0  0
 19 17  1  0  0  0  0
 20 24  1  0  0  0  0
 21 20  2  0  0  0  0
 21 22  1  0  0  0  0
 22 26  1  0  0  0  0
 22 23  1  0  0  0  0
 23 27  1  0  0  0  0
 24 23  2  0  0  0  0
 25 21  1  0  0  0  0
 27 30  1  0  0  0  0
 27 28  1  0  0  0  0
 27 29  1  0  0  0  0
M  END
>  <minimizedAffinity>
-5.72352934

$$$$

 OpenBabel03272507003D

 30 32  0  0  0  0  0  0  0  0999 V2000
   37.1830   26.0190   32.1280 C   0  0  0  0  0  0  0  0  0  0  0  0
   37.3850   25.1800   31.0360 C   0  0  0  0  0  0  0  0  0  0  0  0
   37.8050   23.8750   31.0780 C   0  0  0  0  0  0  0  0  0  0  0  0
   38.0420   23.3660   32.3150 N   0  0  0  0  0  0  0  0  0  0  0  0
   37.8520   24.1690   33.4080 C   0  0  0  0  0  0  0  0  0  0  0  0
   37.4410   25.4390   33.3130 N   0  0  0  0  0  0  0  0  0  0  0  0
   37.1980   25.5760   30.0380 H   0  0  0  0  0  0  0  0  0  0  0  0
   37.9390   23.2870   30.1990 H   0  0  0  0  0  0  0  0  0  0  0  0
   35.9200   29.2970   32.9730 C   0  0  0  0  0  0  0  0  0  0  0  0
   35.8640   29.9930   31.7530 C   0  0  0  0  0  0  0  0  0  0  0  0
   36.2800   29.2840   30.6300 C   0  0  0  0  0  0  0  0  0  0  0  0
   36.7010   28.0050   30.7720 N   0  0  0  0  0  0  0  0  0  0  0  0
   36.7330   27.3930   31.9610 C   0  0  0  0  0  0  0  0  0  0  0  0
   36.3460   28.0070   33.1150 N   0  0  0  0  0  0  0  0  0  0  0  0
   35.6090   29.7960   33.8850 H   0  0  0  0  0  0  0  0  0  0  0  0
   36.2510   29.7890   29.6680 H   0  0  0  0  0  0  0  0  0  0  0  0
   35.4090   31.3260   31.7080 N   0  0  0  0  0  0  0  0  0  0  0  0
   35.6460   31.8690   30.8510 H   0  0  0  0  0  0  0  0  0  0  0  0
   34.8690   31.6870   32.5210 H   0  0  0  0  0  0  0  0  0  0  0  0
   38.0750   23.7360   34.7850 C   0  0  0  0  0  0  0  0  0  0  0  0
   38.5440   22.4510   34.9620 C   0  0  0  0  0  0  0  0  0  0  0  0
   38.6990   22.1990   36.2890 N   0  0  0  0  0  0  0  0  0  0  0  0
   38.3200   23.3440   36.9370 C   0  0  0  0  0  0  0  0  0  0  0  0
   37.9460   24.2620   36.0150 N   0  0  0  0  0  0  0  0  0  0  0  0
   38.8010   21.6360   34.2660 H   0  0  0  0  0  0  0  0  0  0  0  0
   39.0320   21.3360   36.7720 H   0  0  0  0  0  0  0  0  0  0  0  0
   38.2880   23.6330   38.3970 C   0  0  0  0  0  0  0  0  0  0  0  0
   37.9770   24.9440   38.6680 F   0  0  0  0  0  0  0  0  0  0  0  0
   39.5330   23.3960   38.9850 F   0  0  0  0  0  0  0  0  0  0  0  0
   37.3900   22.8100   39.0570 F   0  0  0  0  0  0  0  0  0  0  0  0
  1  6  1  0  0  0  0
  2  3  1  0  0  0  0
  2  1  2  0  0  0  0
  3  4  2  0  0  0  0
  4  5  1  0  0  0  0
  5 20  1  0  0  0  0
  6  5  2  0  0  0  0
  7  2  1  0  0  0  0
  8  3  1  0  0  0  0
  9 14  1  0  0  0  0
  9 15  1  0  0  0  0
 10  9  2  0  0  0  0
 11 12  2  0  0  0  0
 11 10  1  0  0  0  0
 12 13  1  0  0  0  0
 13  1  1  0  0  0  0
 13 14  2  0  0  0  0
 16 11  1  0  0  0  0
 17 10  1  0  0  0  0
 17 19  1  0  0  0  0
 18 17  1  0  0  0  0
 20 21  2  0  0  0  0
 20 24  1  0  0  0  0
 21 22  1  0  0  0  0
 22 26  1  0  0  0  0
 22 23  1  0  0  0  0
 23 27  1  0  0  0  0
 24 23  2  0  0  0  0
 25 21  1  0  0  0  0
 27 28  1  0  0  0  0
 27 29  1  0  0  0  0
 27 30  1  0  0  0  0
M  END
>  <minimizedAffinity>
-5.66472387

$$$$

 OpenBabel03272507003D

 30 32  0  0  0  0  0  0  0  0999 V2000
   37.5540   26.0130   34.5090 C   0  0  0  0  0  0  0  0  0  0  0  0
   37.6230   25.7680   33.1410 C   0  0  0  0  0  0  0  0  0  0  0  0
   37.1350   26.5730   32.1440 C   0  0  0  0  0  0  0  0  0  0  0  0
   36.5270   27.7180   32.5480 N   0  0  0  0  0  0  0  0  0  0  0  0
   36.4440   27.9850   33.8880 C   0  0  0  0  0  0  0  0  0  0  0  0
   36.9380   27.1650   34.8240 N   0  0  0  0  0  0  0  0  0  0  0  0
   38.1090   24.8520   32.8030 H   0  0  0  0  0  0  0  0  0  0  0  0
   37.2230   26.3230   31.1110 H   0  0  0  0  0  0  0  0  0  0  0  0
   39.7990   23.5990   35.9890 C   0  0  0  0  0  0  0  0  0  0  0  0
   39.2430   23.3050   37.2470 C   0  0  0  0  0  0  0  0  0  0  0  0
   38.0640   23.9740   37.5590 C   0  0  0  0  0  0  0  0  0  0  0  0
   37.5360   24.8420   36.6640 N   0  0  0  0  0  0  0  0  0  0  0  0
   38.1110   25.0820   35.4800 C   0  0  0  0  0  0  0  0  0  0  0  0
   39.2660   24.4750   35.0870 N   0  0  0  0  0  0  0  0  0  0  0  0
   40.7200   23.1090   35.6860 H   0  0  0  0  0  0  0  0  0  0  0  0
   37.6030   23.7740   38.5240 H   0  0  0  0  0  0  0  0  0  0  0  0
   39.8690   22.3850   38.1100 N   0  0  0  0  0  0  0  0  0  0  0  0
   39.5790   22.4140   39.1100 H   0  0  0  0  0  0  0  0  0  0  0  0
   40.5750   21.7350   37.7060 H   0  0  0  0  0  0  0  0  0  0  0  0
   35.8150   29.1810   34.4430 C   0  0  0  0  0  0  0  0  0  0  0  0
   34.4560   29.3130   34.2460 C   0  0  0  0  0  0  0  0  0  0  0  0
   34.0220   30.4690   34.8160 N   0  0  0  0  0  0  0  0  0  0  0  0
   35.1280   31.0550   35.3700 C   0  0  0  0  0  0  0  0  0  0  0  0
   36.2020   30.2650   35.1360 N   0  0  0  0  0  0  0  0  0  0  0  0
   33.7000   28.6910   33.7410 H   0  0  0  0  0  0  0  0  0  0  0  0
   33.0620   30.8760   34.8560 H   0  0  0  0  0  0  0  0  0  0  0  0
   35.2390   32.3370   36.1210 C   0  0  0  0  0  0  0  0  0  0  0  0
   34.9390   32.1940   37.4550 F   0  0  0  0  0  0  0  0  0  0  0  0
   34.3520   33.2920   35.6200 F   0  0  0  0  0  0  0  0  0  0  0  0
   36.5040   32.8870   35.9990 F   0  0  0  0  0  0  0  0  0  0  0  0
  1  6  1  0  0  0  0
  1 13  1  0  0  0  0
  2  1  2  0  0  0  0
  3  4  2  0  0  0  0
  3  2  1  0  0  0  0
  4  5  1  0  0  0  0
  5 20  1  0  0  0  0
  5  6  2  0  0  0  0
  7  2  1  0  0  0  0
  8  3  1  0  0  0  0
  9 10  1  0  0  0  0
 10 11  2  0  0  0  0
 10 17  1  0  0  0  0
 11 16  1  0  0  0  0
 12 11  1  0  0  0  0
 13 12  2  0  0  0  0
 14 13  1  0  0  0  0
 14  9  2  0  0  0  0
 15  9  1  0  0  0  0
 17 18  1  0  0  0  0
 19 17  1  0  0  0  0
 20 24  1  0  0  0  0
 21 20  2  0  0  0  0
 21 22  1  0  0  0  0
 22 26  1  0  0  0  0
 22 23  1  0  0  0  0
 23 27  1  0  0  0  0
 24 23  2  0  0  0  0
 25 21  1  0  0  0  0
 27 28  1  0  0  0  0
 29 27  1  0  0  0  0
 30 27  1  0  0  0  0
M  END
>  <minimizedAffinity>
-5.66399717

$$$$

 OpenBabel03272507003D

 30 32  0  0  0  0  0  0  0  0999 V2000
   37.8860   24.6590   33.7110 C   0  0  0  0  0  0  0  0  0  0  0  0
   37.6430   24.1080   32.4570 C   0  0  0  0  0  0  0  0  0  0  0  0
   37.0030   24.7180   31.4100 C   0  0  0  0  0  0  0  0  0  0  0  0
   36.5710   25.9860   31.6340 N   0  0  0  0  0  0  0  0  0  0  0  0
   36.7960   26.5540   32.8600 C   0  0  0  0  0  0  0  0  0  0  0  0
   37.4270   25.9140   33.8520 N   0  0  0  0  0  0  0  0  0  0  0  0
   37.9850   23.0910   32.2640 H   0  0  0  0  0  0  0  0  0  0  0  0
   36.8500   24.2360   30.4710 H   0  0  0  0  0  0  0  0  0  0  0  0
   38.7580   23.4390   36.9990 C   0  0  0  0  0  0  0  0  0  0  0  0
   39.8260   22.5490   36.7890 C   0  0  0  0  0  0  0  0  0  0  0  0
   40.2290   22.3890   35.4670 C   0  0  0  0  0  0  0  0  0  0  0  0
   39.5920   23.0770   34.4900 N   0  0  0  0  0  0  0  0  0  0  0  0
   38.5800   23.9120   34.7520 C   0  0  0  0  0  0  0  0  0  0  0  0
   38.1150   24.1320   36.0140 N   0  0  0  0  0  0  0  0  0  0  0  0
   38.3960   23.6070   38.0090 H   0  0  0  0  0  0  0  0  0  0  0  0
   41.0520   21.7090   35.2620 H   0  0  0  0  0  0  0  0  0  0  0  0
   40.4250   21.8780   37.8730 N   0  0  0  0  0  0  0  0  0  0  0  0
   41.0050   21.0450   37.6400 H   0  0  0  0  0  0  0  0  0  0  0  0
   40.2570   22.2490   38.8310 H   0  0  0  0  0  0  0  0  0  0  0  0
   36.3780   27.9070   33.2190 C   0  0  0  0  0  0  0  0  0  0  0  0
   36.1100   28.7700   32.1770 C   0  0  0  0  0  0  0  0  0  0  0  0
   35.7360   29.9800   32.6700 N   0  0  0  0  0  0  0  0  0  0  0  0
   35.7750   29.8610   34.0340 C   0  0  0  0  0  0  0  0  0  0  0  0
   36.1650   28.6030   34.3490 N   0  0  0  0  0  0  0  0  0  0  0  0
   36.1400   28.6650   31.0810 H   0  0  0  0  0  0  0  0  0  0  0  0
   35.4650   30.8540   32.1670 H   0  0  0  0  0  0  0  0  0  0  0  0
   35.4630   30.8760   35.0780 C   0  0  0  0  0  0  0  0  0  0  0  0
   34.2320   30.6750   35.6560 F   0  0  0  0  0  0  0  0  0  0  0  0
   35.4370   32.1630   34.5370 F   0  0  0  0  0  0  0  0  0  0  0  0
   36.4300   30.8960   36.0700 F   0  0  0  0  0  0  0  0  0  0  0  0
  1  6  1  0  0  0  0
  1 13  1  0  0  0  0
  2  1  2  0  0  0  0
  3  4  2  0  0  0  0
  3  2  1  0  0  0  0
  4  5  1  0  0  0  0
  5 20  1  0  0  0  0
  5  6  2  0  0  0  0
  7  2  1  0  0  0  0
  8  3  1  0  0  0  0
  9 15  1  0  0  0  0
 10  9  1  0  0  0  0
 10 17  1  0  0  0  0
 11 10  2  0  0  0  0
 12 13  2  0  0  0  0
 12 11  1  0  0  0  0
 13 14  1  0  0  0  0
 14  9  2  0  0  0  0
 16 11  1  0  0  0  0
 17 19  1  0  0  0  0
 18 17  1  0  0  0  0
 20 24  1  0  0  0  0
 21 22  1  0  0  0  0
 21 20  2  0  0  0  0
 22 23  1  0  0  0  0
 23 24  2  0  0  0  0
 23 27  1  0  0  0  0
 25 21  1  0  0  0  0
 26 22  1  0  0  0  0
 27 28  1  0  0  0  0
 27 30  1  0  0  0  0
 29 27  1  0  0  0  0
M  END
>  <minimizedAffinity>
-5.5386219

$$$$

 OpenBabel03272507003D

 30 32  0  0  0  0  0  0  0  0999 V2000
   37.5400   27.8460   31.9680 C   0  0  0  0  0  0  0  0  0  0  0  0
   36.5890   28.7840   32.3560 C   0  0  0  0  0  0  0  0  0  0  0  0
   35.9710   28.8600   33.5780 C   0  0  0  0  0  0  0  0  0  0  0  0
   36.3360   27.9210   34.4880 N   0  0  0  0  0  0  0  0  0  0  0  0
   37.2700   26.9840   34.1340 C   0  0  0  0  0  0  0  0  0  0  0  0
   37.8440   26.9520   32.9250 N   0  0  0  0  0  0  0  0  0  0  0  0
   36.2880   29.5440   31.6340 H   0  0  0  0  0  0  0  0  0  0  0  0
   35.2480   29.6090   33.8090 H   0  0  0  0  0  0  0  0  0  0  0  0
   38.0900   28.7590   28.5150 C   0  0  0  0  0  0  0  0  0  0  0  0
   39.1760   27.9690   28.0960 C   0  0  0  0  0  0  0  0  0  0  0  0
   39.7070   27.1120   29.0550 C   0  0  0  0  0  0  0  0  0  0  0  0
   39.1660   27.0870   30.2960 N   0  0  0  0  0  0  0  0  0  0  0  0
   38.1310   27.8630   30.6370 C   0  0  0  0  0  0  0  0  0  0  0  0
   37.5450   28.7330   29.7670 N   0  0  0  0  0  0  0  0  0  0  0  0
   37.6320   29.4480   27.8130 H   0  0  0  0  0  0  0  0  0  0  0  0
   40.5480   26.4850   28.7700 H   0  0  0  0  0  0  0  0  0  0  0  0
   39.6690   28.0670   26.7800 N   0  0  0  0  0  0  0  0  0  0  0  0
   40.6210   27.6800   26.6100 H   0  0  0  0  0  0  0  0  0  0  0  0
   39.0610   28.5140   26.0620 H   0  0  0  0  0  0  0  0  0  0  0  0
   37.7390   25.9260   35.0250 C   0  0  0  0  0  0  0  0  0  0  0  0
   38.5600   24.9670   34.4690 C   0  0  0  0  0  0  0  0  0  0  0  0
   38.9100   24.0590   35.4170 N   0  0  0  0  0  0  0  0  0  0  0  0
   38.2960   24.4630   36.5720 C   0  0  0  0  0  0  0  0  0  0  0  0
   37.5930   25.5920   36.3180 N   0  0  0  0  0  0  0  0  0  0  0  0
   38.9630   24.8110   33.4550 H   0  0  0  0  0  0  0  0  0  0  0  0
   39.5160   23.2110   35.3430 H   0  0  0  0  0  0  0  0  0  0  0  0
   38.3300   23.8420   37.9250 C   0  0  0  0  0  0  0  0  0  0  0  0
   39.4950   23.1500   38.1580 F   0  0  0  0  0  0  0  0  0  0  0  0
   37.2900   22.9230   38.0840 F   0  0  0  0  0  0  0  0  0  0  0  0
   38.1610   24.7890   38.9220 F   0  0  0  0  0  0  0  0  0  0  0  0
  1  2  2  0  0  0  0
  1  6  1  0  0  0  0
  2  3  1  0  0  0  0
  3  8  1  0  0  0  0
  3  4  2  0  0  0  0
  5  4  1  0  0  0  0
  5 20  1  0  0  0  0
  6  5  2  0  0  0  0
  7  2  1  0  0  0  0
  9 14  1  0  0  0  0
 10  9  2  0  0  0  0
 10 11  1  0  0  0  0
 11 12  2  0  0  0  0
 12 13  1  0  0  0  0
 13  1  1  0  0  0  0
 14 13  2  0  0  0  0
 15  9  1  0  0  0  0
 16 11  1  0  0  0  0
 17 10  1  0  0  0  0
 18 17  1  0  0  0  0
 19 17  1  0  0  0  0
 20 24  1  0  0  0  0
 21 20  2  0  0  0  0
 21 22  1  0  0  0  0
 22 23  1  0  0  0  0
 23 27  1  0  0  0  0
 24 23  2  0  0  0  0
 25 21  1  0  0  0  0
 26 22  1  0  0  0  0
 27 29  1  0  0  0  0
 27 28  1  0  0  0  0
 27 30  1  0  0  0  0
M  END
>  <minimizedAffinity>
-5.46386862

$$$$

 OpenBabel03272507003D

 30 32  0  0  0  0  0  0  0  0999 V2000
   35.8480   28.8620   32.1320 C   0  0  0  0  0  0  0  0  0  0  0  0
   36.6940   28.7340   31.0350 C   0  0  0  0  0  0  0  0  0  0  0  0
   37.8720   28.0330   30.9930 C   0  0  0  0  0  0  0  0  0  0  0  0
   38.2340   27.4080   32.1430 N   0  0  0  0  0  0  0  0  0  0  0  0
   37.4200   27.5170   33.2390 C   0  0  0  0  0  0  0  0  0  0  0  0
   36.2780   28.2150   33.2290 N   0  0  0  0  0  0  0  0  0  0  0  0
   36.4150   29.2310   30.1050 H   0  0  0  0  0  0  0  0  0  0  0  0
   38.4750   27.9760   30.1150 H   0  0  0  0  0  0  0  0  0  0  0  0
   32.4430   29.8810   32.7850 C   0  0  0  0  0  0  0  0  0  0  0  0
   32.2450   31.0250   31.9920 C   0  0  0  0  0  0  0  0  0  0  0  0
   33.3340   31.4270   31.2250 C   0  0  0  0  0  0  0  0  0  0  0  0
   34.4860   30.7170   31.2850 N   0  0  0  0  0  0  0  0  0  0  0  0
   34.6150   29.6340   32.0590 C   0  0  0  0  0  0  0  0  0  0  0  0
   33.6050   29.1660   32.8440 N   0  0  0  0  0  0  0  0  0  0  0  0
   31.6300   29.5170   33.4060 H   0  0  0  0  0  0  0  0  0  0  0  0
   33.2200   32.3090   30.5990 H   0  0  0  0  0  0  0  0  0  0  0  0
   31.0070   31.6970   31.9990 N   0  0  0  0  0  0  0  0  0  0  0  0
   31.0030   32.6680   31.6230 H   0  0  0  0  0  0  0  0  0  0  0  0
   30.1770   31.1910   32.3730 H   0  0  0  0  0  0  0  0  0  0  0  0
   37.7030   26.8920   34.5290 C   0  0  0  0  0  0  0  0  0  0  0  0
   38.1530   27.7220   35.5340 C   0  0  0  0  0  0  0  0  0  0  0  0
   38.3700   26.9970   36.6630 N   0  0  0  0  0  0  0  0  0  0  0  0
   38.0500   25.7030   36.3480 C   0  0  0  0  0  0  0  0  0  0  0  0
   37.6490   25.6570   35.0560 N   0  0  0  0  0  0  0  0  0  0  0  0
   38.3570   28.8030   35.5880 H   0  0  0  0  0  0  0  0  0  0  0  0
   38.7080   27.3040   37.6020 H   0  0  0  0  0  0  0  0  0  0  0  0
   38.0990   24.4860   37.2040 C   0  0  0  0  0  0  0  0  0  0  0  0
   37.0570   23.6240   36.9550 F   0  0  0  0  0  0  0  0  0  0  0  0
   38.0170   24.8180   38.5580 F   0  0  0  0  0  0  0  0  0  0  0  0
   39.2950   23.8040   37.0480 F   0  0  0  0  0  0  0  0  0  0  0  0
  1  6  1  0  0  0  0
  2  1  2  0  0  0  0
  3  2  1  0  0  0  0
  3  4  2  0  0  0  0
  4  5  1  0  0  0  0
  5 20  1  0  0  0  0
  6  5  2  0  0  0  0
  7  2  1  0  0  0  0
  8  3  1  0  0  0  0
  9 14  1  0  0  0  0
  9 15  1  0  0  0  0
 10 17  1  0  0  0  0
 10  9  2  0  0  0  0
 11 12  2  0  0  0  0
 11 10  1  0  0  0  0
 12 13  1  0  0  0  0
 13  1  1  0  0  0  0
 13 14  2  0  0  0  0
 16 11  1  0  0  0  0
 17 19  1  0  0  0  0
 18 17  1  0  0  0  0
 20 24  1  0  0  0  0
 20 21  2  0  0  0  0
 21 25  1  0  0  0  0
 21 22  1  0  0  0  0
 22 26  1  0  0  0  0
 23 22  1  0  0  0  0
 23 27  1  0  0  0  0
 24 23  2  0  0  0  0
 27 29  1  0  0  0  0
 28 27  1  0  0  0  0
 30 27  1  0  0  0  0
M  END
>  <minimizedAffinity>
-5.36814499

$$$$

 OpenBabel03272507003D

 30 32  0  0  0  0  0  0  0  0999 V2000
   36.9230   27.2980   33.7580 C   0  0  0  0  0  0  0  0  0  0  0  0
   36.9970   27.5980   32.4020 C   0  0  0  0  0  0  0  0  0  0  0  0
   36.5530   28.7450   31.7960 C   0  0  0  0  0  0  0  0  0  0  0  0
   35.9900   29.6710   32.6140 N   0  0  0  0  0  0  0  0  0  0  0  0
   35.9040   29.4030   33.9540 C   0  0  0  0  0  0  0  0  0  0  0  0
   36.3520   28.2650   34.4980 N   0  0  0  0  0  0  0  0  0  0  0  0
   37.4470   26.8630   31.7340 H   0  0  0  0  0  0  0  0  0  0  0  0
   36.6420   28.9100   30.7460 H   0  0  0  0  0  0  0  0  0  0  0  0
   38.1810   23.9120   33.8380 C   0  0  0  0  0  0  0  0  0  0  0  0
   38.3940   23.6320   35.2000 C   0  0  0  0  0  0  0  0  0  0  0  0
   38.0850   24.6610   36.0850 C   0  0  0  0  0  0  0  0  0  0  0  0
   37.6130   25.8340   35.6010 N   0  0  0  0  0  0  0  0  0  0  0  0
   37.4300   26.0420   34.2920 C   0  0  0  0  0  0  0  0  0  0  0  0
   37.7040   25.0950   33.3510 N   0  0  0  0  0  0  0  0  0  0  0  0
   38.4020   23.1490   33.0970 H   0  0  0  0  0  0  0  0  0  0  0  0
   38.2370   24.4830   37.1470 H   0  0  0  0  0  0  0  0  0  0  0  0
   38.8900   22.3780   35.6050 N   0  0  0  0  0  0  0  0  0  0  0  0
   39.2830   22.3230   36.5680 H   0  0  0  0  0  0  0  0  0  0  0  0
   38.8350   21.5870   34.9300 H   0  0  0  0  0  0  0  0  0  0  0  0
   35.3190   30.3180   34.9310 C   0  0  0  0  0  0  0  0  0  0  0  0
   36.1990   31.0710   35.6790 C   0  0  0  0  0  0  0  0  0  0  0  0
   35.5060   31.8670   36.5360 N   0  0  0  0  0  0  0  0  0  0  0  0
   34.1820   31.6000   36.3130 C   0  0  0  0  0  0  0  0  0  0  0  0
   34.0860   30.6630   35.3400 N   0  0  0  0  0  0  0  0  0  0  0  0
   37.2980   31.1440   35.7090 H   0  0  0  0  0  0  0  0  0  0  0  0
   35.8530   32.5570   37.2390 H   0  0  0  0  0  0  0  0  0  0  0  0
   32.9790   32.1830   36.9700 C   0  0  0  0  0  0  0  0  0  0  0  0
   32.1390   32.8040   36.0760 F   0  0  0  0  0  0  0  0  0  0  0  0
   33.3380   33.1530   37.9080 F   0  0  0  0  0  0  0  0  0  0  0  0
   32.2660   31.2210   37.6660 F   0  0  0  0  0  0  0  0  0  0  0  0
  1 13  1  0  0  0  0
  1  6  1  0  0  0  0
  2  1  2  0  0  0  0
  3  2  1  0  0  0  0
  3  4  2  0  0  0  0
  4  5  1  0  0  0  0
  5  6  2  0  0  0  0
  5 20  1  0  0  0  0
  7  2  1  0  0  0  0
  8  3  1  0  0  0  0
  9 10  1  0  0  0  0
 10 17  1  0  0  0  0
 10 11  2  0  0  0  0
 11 16  1  0  0  0  0
 12 11  1  0  0  0  0
 13 12  2  0  0  0  0
 14  9  2  0  0  0  0
 14 13  1  0  0  0  0
 15  9  1  0  0  0  0
 17 18  1  0  0  0  0
 19 17  1  0  0  0  0
 20 24  1  0  0  0  0
 20 21  2  0  0  0  0
 21 25  1  0  0  0  0
 21 22  1  0  0  0  0
 22 26  1  0  0  0  0
 23 22  1  0  0  0  0
 23 27  1  0  0  0  0
 24 23  2  0  0  0  0
 27 30  1  0  0  0  0
 27 29  1  0  0  0  0
 28 27  1  0  0  0  0
M  END
>  <minimizedAffinity>
-5.31741142

$$$$

 OpenBabel03272507003D

 30 32  0  0  0  0  0  0  0  0999 V2000
   35.5630   29.9980   34.0100 C   0  0  0  0  0  0  0  0  0  0  0  0
   35.6930   30.2300   32.6450 C   0  0  0  0  0  0  0  0  0  0  0  0
   36.2820   29.3960   31.7300 C   0  0  0  0  0  0  0  0  0  0  0  0
   36.7810   28.2320   32.2210 N   0  0  0  0  0  0  0  0  0  0  0  0
   36.6660   27.9770   33.5610 C   0  0  0  0  0  0  0  0  0  0  0  0
   36.0820   28.8260   34.4150 N   0  0  0  0  0  0  0  0  0  0  0  0
   35.2970   31.1610   32.2380 H   0  0  0  0  0  0  0  0  0  0  0  0
   36.3480   29.6370   30.6930 H   0  0  0  0  0  0  0  0  0  0  0  0
   35.0560   32.2250   36.8110 C   0  0  0  0  0  0  0  0  0  0  0  0
   33.7770   32.7770   36.6140 C   0  0  0  0  0  0  0  0  0  0  0  0
   33.1020   32.3470   35.4750 C   0  0  0  0  0  0  0  0  0  0  0  0
   33.6940   31.4530   34.6500 N   0  0  0  0  0  0  0  0  0  0  0  0
   34.9150   30.9610   34.8900 C   0  0  0  0  0  0  0  0  0  0  0  0
   35.6520   31.3230   35.9780 N   0  0  0  0  0  0  0  0  0  0  0  0
   35.6340   32.5200   37.6820 H   0  0  0  0  0  0  0  0  0  0  0  0
   32.1100   32.7520   35.2870 H   0  0  0  0  0  0  0  0  0  0  0  0
   33.2460   33.7030   37.5320 N   0  0  0  0  0  0  0  0  0  0  0  0
   32.4410   34.2750   37.2020 H   0  0  0  0  0  0  0  0  0  0  0  0
   33.6820   33.7620   38.4760 H   0  0  0  0  0  0  0  0  0  0  0  0
   37.1640   26.7630   34.2040 C   0  0  0  0  0  0  0  0  0  0  0  0
   37.5520   25.7350   33.3710 C   0  0  0  0  0  0  0  0  0  0  0  0
   37.9870   24.6830   34.1140 N   0  0  0  0  0  0  0  0  0  0  0  0
   37.8660   25.0690   35.4230 C   0  0  0  0  0  0  0  0  0  0  0  0
   37.3670   26.3280   35.4590 N   0  0  0  0  0  0  0  0  0  0  0  0
   37.5730   25.6150   32.2760 H   0  0  0  0  0  0  0  0  0  0  0  0
   38.3500   23.7530   33.8110 H   0  0  0  0  0  0  0  0  0  0  0  0
   38.1960   24.3140   36.6620 C   0  0  0  0  0  0  0  0  0  0  0  0
   38.0940   25.0880   37.7940 F   0  0  0  0  0  0  0  0  0  0  0  0
   39.5100   23.8410   36.6290 F   0  0  0  0  0  0  0  0  0  0  0  0
   37.3900   23.1970   36.8050 F   0  0  0  0  0  0  0  0  0  0  0  0
  1  6  1  0  0  0  0
  1 13  1  0  0  0  0
  2  1  2  0  0  0  0
  3  4  2  0  0  0  0
  3  2  1  0  0  0  0
  4  5  1  0  0  0  0
  5 20  1  0  0  0  0
  5  6  2  0  0  0  0
  7  2  1  0  0  0  0
  8  3  1  0  0  0  0
  9 15  1  0  0  0  0
 10  9  1  0  0  0  0
 10 17  1  0  0  0  0
 11 10  2  0  0  0  0
 12 13  2  0  0  0  0
 12 11  1  0  0  0  0
 13 14  1  0  0  0  0
 14  9  2  0  0  0  0
 16 11  1  0  0  0  0
 17 19  1  0  0  0  0
 18 17  1  0  0  0  0
 20 24  1  0  0  0  0
 21 22  1  0  0  0  0
 21 20  2  0  0  0  0
 22 23  1  0  0  0  0
 23 24  2  0  0  0  0
 23 27  1  0  0  0  0
 25 21  1  0  0  0  0
 26 22  1  0  0  0  0
 27 30  1  0  0  0  0
 27 28  1  0  0  0  0
 29 27  1  0  0  0  0
M  END
>  <minimizedAffinity>
-5.25454903

$$$$
