
 OpenBabel03272507063D

 26 28  0  0  0  0  0  0  0  0999 V2000
   37.2510   26.8610   34.6900 C   0  0  0  0  0  0  0  0  0  0  0  0
   37.7070   25.7230   34.0140 C   0  0  0  0  0  0  0  0  0  0  0  0
   37.6630   25.6760   32.6420 C   0  0  0  0  0  0  0  0  0  0  0  0
   37.1660   26.7490   31.9160 C   0  0  0  0  0  0  0  0  0  0  0  0
   37.0230   26.9330   30.5800 N   0  0  0  0  0  0  0  0  0  0  0  0
   36.4850   28.1770   30.4870 C   0  0  0  0  0  0  0  0  0  0  0  0
   36.3090   28.7190   31.7100 N   0  0  0  0  0  0  0  0  0  0  0  0
   36.7320   27.8400   32.6250 C   0  0  0  0  0  0  0  0  0  0  0  0
   36.7520   27.9430   33.9820 C   0  0  0  0  0  0  0  0  0  0  0  0
   37.2930   26.8820   35.7640 H   0  0  0  0  0  0  0  0  0  0  0  0
   38.0320   24.7610   32.1590 H   0  0  0  0  0  0  0  0  0  0  0  0
   37.2790   26.2560   29.8340 H   0  0  0  0  0  0  0  0  0  0  0  0
   36.2550   28.6030   29.5130 H   0  0  0  0  0  0  0  0  0  0  0  0
   36.3990   28.8230   34.5180 H   0  0  0  0  0  0  0  0  0  0  0  0
   39.3370   22.5570   34.9150 C   0  0  0  0  0  0  0  0  0  0  0  0
   39.1760   22.5190   36.3160 C   0  0  0  0  0  0  0  0  0  0  0  0
   38.5040   23.5990   36.9070 C   0  0  0  0  0  0  0  0  0  0  0  0
   38.0450   24.6150   36.1250 N   0  0  0  0  0  0  0  0  0  0  0  0
   38.2260   24.6030   34.7810 C   0  0  0  0  0  0  0  0  0  0  0  0
   38.8640   23.5880   34.1750 N   0  0  0  0  0  0  0  0  0  0  0  0
   39.8590   21.7140   34.4770 H   0  0  0  0  0  0  0  0  0  0  0  0
   39.5230   21.7430   36.9510 H   0  0  0  0  0  0  0  0  0  0  0  0
   38.2470   23.7240   38.3530 C   0  0  0  0  0  0  0  0  0  0  0  0
   37.2750   22.8700   38.8010 F   0  0  0  0  0  0  0  0  0  0  0  0
   37.9450   25.0510   38.6690 F   0  0  0  0  0  0  0  0  0  0  0  0
   39.4570   23.4590   39.0050 F   0  0  0  0  0  0  0  0  0  0  0  0
  1 10  1  0  0  0  0
  2  1  1  0  0  0  0
  2 19  1  0  0  0  0
  3  2  2  0  0  0  0
  4  8  2  0  0  0  0
  4  3  1  0  0  0  0
  5  4  1  0  0  0  0
  6  5  1  0  0  0  0
  6  7  2  0  0  0  0
  7  8  1  0  0  0  0
  8  9  1  0  0  0  0
  9 14  1  0  0  0  0
  9  1  2  0  0  0  0
 11  3  1  0  0  0  0
 12  5  1  0  0  0  0
 13  6  1  0  0  0  0
 15 16  1  0  0  0  0
 16 17  2  0  0  0  0
 16 22  1  0  0  0  0
 17 23  1  0  0  0  0
 18 17  1  0  0  0  0
 19 18  2  0  0  0  0
 20 19  1  0  0  0  0
 20 15  2  0  0  0  0
 21 15  1  0  0  0  0
 23 25  1  0  0  0  0
 23 24  1  0  0  0  0
 23 26  1  0  0  0  0
M  END
>  <minimizedAffinity>
-5.77465439

$$$$

 OpenBabel03272507063D

 26 28  0  0  0  0  0  0  0  0999 V2000
   37.5550   25.7620   32.8310 C   0  0  0  0  0  0  0  0  0  0  0  0
   37.6140   25.8270   34.2280 C   0  0  0  0  0  0  0  0  0  0  0  0
   37.1120   26.9250   34.8850 C   0  0  0  0  0  0  0  0  0  0  0  0
   36.5470   27.9730   34.1740 C   0  0  0  0  0  0  0  0  0  0  0  0
   35.9960   29.1400   34.5920 N   0  0  0  0  0  0  0  0  0  0  0  0
   35.6200   29.7450   33.4350 C   0  0  0  0  0  0  0  0  0  0  0  0
   35.9300   28.9810   32.3680 N   0  0  0  0  0  0  0  0  0  0  0  0
   36.5130   27.8600   32.8070 C   0  0  0  0  0  0  0  0  0  0  0  0
   36.9940   26.7990   32.1030 C   0  0  0  0  0  0  0  0  0  0  0  0
   37.9530   24.8950   32.3320 H   0  0  0  0  0  0  0  0  0  0  0  0
   37.1820   26.9280   35.9810 H   0  0  0  0  0  0  0  0  0  0  0  0
   35.9010   29.4590   35.5770 H   0  0  0  0  0  0  0  0  0  0  0  0
   35.1380   30.7200   33.4590 H   0  0  0  0  0  0  0  0  0  0  0  0
   36.9540   26.7370   31.0170 H   0  0  0  0  0  0  0  0  0  0  0  0
   39.4470   22.7500   35.0420 C   0  0  0  0  0  0  0  0  0  0  0  0
   39.3010   22.6700   36.4430 C   0  0  0  0  0  0  0  0  0  0  0  0
   38.5680   23.6920   37.0640 C   0  0  0  0  0  0  0  0  0  0  0  0
   38.0390   24.6950   36.3090 N   0  0  0  0  0  0  0  0  0  0  0  0
   38.2080   24.7250   34.9650 C   0  0  0  0  0  0  0  0  0  0  0  0
   38.9040   23.7660   34.3310 N   0  0  0  0  0  0  0  0  0  0  0  0
   40.0160   21.9510   34.5810 H   0  0  0  0  0  0  0  0  0  0  0  0
   39.7010   21.9030   37.0570 H   0  0  0  0  0  0  0  0  0  0  0  0
   38.3160   23.7680   38.5150 C   0  0  0  0  0  0  0  0  0  0  0  0
   39.4450   23.5760   39.2660 F   0  0  0  0  0  0  0  0  0  0  0  0
   37.3090   22.8680   38.8710 F   0  0  0  0  0  0  0  0  0  0  0  0
   37.7810   25.0360   38.7670 F   0  0  0  0  0  0  0  0  0  0  0  0
  1  2  1  0  0  0  0
  2  3  2  0  0  0  0
  2 19  1  0  0  0  0
  3 11  1  0  0  0  0
  4  5  1  0  0  0  0
  4  3  1  0  0  0  0
  5 12  1  0  0  0  0
  6 13  1  0  0  0  0
  6  5  1  0  0  0  0
  7  8  1  0  0  0  0
  7  6  2  0  0  0  0
  8  4  2  0  0  0  0
  9  8  1  0  0  0  0
  9  1  2  0  0  0  0
 10  1  1  0  0  0  0
 14  9  1  0  0  0  0
 15 16  1  0  0  0  0
 16 22  1  0  0  0  0
 16 17  2  0  0  0  0
 17 23  1  0  0  0  0
 18 17  1  0  0  0  0
 19 18  2  0  0  0  0
 20 19  1  0  0  0  0
 20 15  2  0  0  0  0
 21 15  1  0  0  0  0
 23 26  1  0  0  0  0
 23 25  1  0  0  0  0
 23 24  1  0  0  0  0
M  END
>  <minimizedAffinity>
-5.56496906

$$$$

 OpenBabel03272507063D

 26 28  0  0  0  0  0  0  0  0999 V2000
   39.3200   21.6520   32.9130 C   0  0  0  0  0  0  0  0  0  0  0  0
   38.6090   21.8520   34.1020 C   0  0  0  0  0  0  0  0  0  0  0  0
   37.2390   21.7430   34.1090 C   0  0  0  0  0  0  0  0  0  0  0  0
   36.5510   21.4380   32.9430 C   0  0  0  0  0  0  0  0  0  0  0  0
   35.2260   21.2810   32.7030 N   0  0  0  0  0  0  0  0  0  0  0  0
   35.1750   20.9910   31.3780 C   0  0  0  0  0  0  0  0  0  0  0  0
   36.4120   20.9740   30.8390 N   0  0  0  0  0  0  0  0  0  0  0  0
   37.2950   21.2520   31.8050 C   0  0  0  0  0  0  0  0  0  0  0  0
   38.6510   21.3470   31.7380 C   0  0  0  0  0  0  0  0  0  0  0  0
   40.3920   21.7410   32.9250 H   0  0  0  0  0  0  0  0  0  0  0  0
   36.7270   21.9090   35.0660 H   0  0  0  0  0  0  0  0  0  0  0  0
   34.4590   21.3690   33.4010 H   0  0  0  0  0  0  0  0  0  0  0  0
   34.2180   20.8100   30.8930 H   0  0  0  0  0  0  0  0  0  0  0  0
   39.2150   21.1940   30.8200 H   0  0  0  0  0  0  0  0  0  0  0  0
   41.3050   22.2280   36.5670 C   0  0  0  0  0  0  0  0  0  0  0  0
   40.6370   22.8100   37.6640 C   0  0  0  0  0  0  0  0  0  0  0  0
   39.2640   23.0560   37.5130 C   0  0  0  0  0  0  0  0  0  0  0  0
   38.6470   22.7300   36.3430 N   0  0  0  0  0  0  0  0  0  0  0  0
   39.3360   22.1720   35.3180 C   0  0  0  0  0  0  0  0  0  0  0  0
   40.6520   21.9200   35.4220 N   0  0  0  0  0  0  0  0  0  0  0  0
   42.3650   22.0460   36.7040 H   0  0  0  0  0  0  0  0  0  0  0  0
   41.0890   23.0750   38.5860 H   0  0  0  0  0  0  0  0  0  0  0  0
   38.4090   23.6570   38.5540 C   0  0  0  0  0  0  0  0  0  0  0  0
   37.3500   22.8630   38.9020 F   0  0  0  0  0  0  0  0  0  0  0  0
   37.9850   24.9240   38.1470 F   0  0  0  0  0  0  0  0  0  0  0  0
   39.2260   23.8840   39.6680 F   0  0  0  0  0  0  0  0  0  0  0  0
  1 10  1  0  0  0  0
  1  2  1  0  0  0  0
  2  3  2  0  0  0  0
  2 19  1  0  0  0  0
  3 11  1  0  0  0  0
  4  3  1  0  0  0  0
  5  4  1  0  0  0  0
  5 12  1  0  0  0  0
  6  5  1  0  0  0  0
  7  6  2  0  0  0  0
  7  8  1  0  0  0  0
  8  4  2  0  0  0  0
  9  8  1  0  0  0  0
  9  1  2  0  0  0  0
 13  6  1  0  0  0  0
 14  9  1  0  0  0  0
 15 21  1  0  0  0  0
 15 16  1  0  0  0  0
 16 22  1  0  0  0  0
 17 16  2  0  0  0  0
 17 23  1  0  0  0  0
 18 17  1  0  0  0  0
 19 20  1  0  0  0  0
 19 18  2  0  0  0  0
 20 15  2  0  0  0  0
 23 24  1  0  0  0  0
 23 26  1  0  0  0  0
 25 23  1  0  0  0  0
M  END
>  <minimizedAffinity>
-5.28898191

$$$$

 OpenBabel03272507063D

 26 28  0  0  0  0  0  0  0  0999 V2000
   38.9020   24.5710   34.3980 C   0  0  0  0  0  0  0  0  0  0  0  0
   37.9490   25.4760   34.8800 C   0  0  0  0  0  0  0  0  0  0  0  0
   37.5960   25.4590   36.2080 C   0  0  0  0  0  0  0  0  0  0  0  0
   38.1770   24.5490   37.0790 C   0  0  0  0  0  0  0  0  0  0  0  0
   37.9950   24.3420   38.4070 N   0  0  0  0  0  0  0  0  0  0  0  0
   38.8430   23.3200   38.6890 C   0  0  0  0  0  0  0  0  0  0  0  0
   39.5070   22.9240   37.5830 N   0  0  0  0  0  0  0  0  0  0  0  0
   39.1060   23.6840   36.5570 C   0  0  0  0  0  0  0  0  0  0  0  0
   39.4940   23.6540   35.2530 C   0  0  0  0  0  0  0  0  0  0  0  0
   39.1660   24.5980   33.3560 H   0  0  0  0  0  0  0  0  0  0  0  0
   36.8440   26.1890   36.5370 H   0  0  0  0  0  0  0  0  0  0  0  0
   37.3480   24.8680   39.0290 H   0  0  0  0  0  0  0  0  0  0  0  0
   38.9140   22.9300   39.7020 H   0  0  0  0  0  0  0  0  0  0  0  0
   40.2330   22.9550   34.8660 H   0  0  0  0  0  0  0  0  0  0  0  0
   36.7810   27.1060   31.8030 C   0  0  0  0  0  0  0  0  0  0  0  0
   36.1750   28.2830   32.2920 C   0  0  0  0  0  0  0  0  0  0  0  0
   36.1910   28.4750   33.6810 C   0  0  0  0  0  0  0  0  0  0  0  0
   36.7760   27.5410   34.4830 N   0  0  0  0  0  0  0  0  0  0  0  0
   37.3450   26.4260   33.9620 C   0  0  0  0  0  0  0  0  0  0  0  0
   37.3510   26.2040   32.6370 N   0  0  0  0  0  0  0  0  0  0  0  0
   36.7580   26.9770   30.7270 H   0  0  0  0  0  0  0  0  0  0  0  0
   35.7120   29.0270   31.6950 H   0  0  0  0  0  0  0  0  0  0  0  0
   35.6070   29.6430   34.3650 C   0  0  0  0  0  0  0  0  0  0  0  0
   34.3240   29.4280   34.7920 F   0  0  0  0  0  0  0  0  0  0  0  0
   35.6880   30.7670   33.5380 F   0  0  0  0  0  0  0  0  0  0  0  0
   36.4350   29.9310   35.4560 F   0  0  0  0  0  0  0  0  0  0  0  0
  1  2  2  0  0  0  0
  1  9  1  0  0  0  0
  2  3  1  0  0  0  0
  3 11  1  0  0  0  0
  3  4  2  0  0  0  0
  4  5  1  0  0  0  0
  5  6  1  0  0  0  0
  5 12  1  0  0  0  0
  6 13  1  0  0  0  0
  7  6  2  0  0  0  0
  8  4  1  0  0  0  0
  8  7  1  0  0  0  0
  9  8  2  0  0  0  0
 10  1  1  0  0  0  0
 14  9  1  0  0  0  0
 15 16  2  0  0  0  0
 15 20  1  0  0  0  0
 16 17  1  0  0  0  0
 17 23  1  0  0  0  0
 17 18  2  0  0  0  0
 19 18  1  0  0  0  0
 19  2  1  0  0  0  0
 20 19  2  0  0  0  0
 21 15  1  0  0  0  0
 22 16  1  0  0  0  0
 23 24  1  0  0  0  0
 23 26  1  0  0  0  0
 25 23  1  0  0  0  0
M  END
>  <minimizedAffinity>
-5.24563932

$$$$

 OpenBabel03272507063D

 26 28  0  0  0  0  0  0  0  0999 V2000
   37.7320   22.1670   32.1680 C   0  0  0  0  0  0  0  0  0  0  0  0
   37.3290   22.2080   33.5080 C   0  0  0  0  0  0  0  0  0  0  0  0
   36.5090   21.2260   34.0090 C   0  0  0  0  0  0  0  0  0  0  0  0
   36.0730   20.1910   33.1950 C   0  0  0  0  0  0  0  0  0  0  0  0
   35.2730   19.1260   33.4550 N   0  0  0  0  0  0  0  0  0  0  0  0
   35.2160   18.4730   32.2650 C   0  0  0  0  0  0  0  0  0  0  0  0
   35.9460   19.1130   31.3280 N   0  0  0  0  0  0  0  0  0  0  0  0
   36.4960   20.1960   31.8890 C   0  0  0  0  0  0  0  0  0  0  0  0
   37.3070   21.1410   31.3390 C   0  0  0  0  0  0  0  0  0  0  0  0
   38.3740   22.9440   31.7930 H   0  0  0  0  0  0  0  0  0  0  0  0
   36.2210   21.3030   35.0660 H   0  0  0  0  0  0  0  0  0  0  0  0
   34.8280   18.8990   34.3670 H   0  0  0  0  0  0  0  0  0  0  0  0
   34.6330   17.5610   32.1690 H   0  0  0  0  0  0  0  0  0  0  0  0
   37.6260   21.1190   30.2990 H   0  0  0  0  0  0  0  0  0  0  0  0
   38.5560   25.4800   34.6380 C   0  0  0  0  0  0  0  0  0  0  0  0
   38.6550   25.3040   36.0340 C   0  0  0  0  0  0  0  0  0  0  0  0
   38.2900   24.0480   36.5420 C   0  0  0  0  0  0  0  0  0  0  0  0
   37.8670   23.0750   35.6890 N   0  0  0  0  0  0  0  0  0  0  0  0
   37.7900   23.2960   34.3540 C   0  0  0  0  0  0  0  0  0  0  0  0
   38.1300   24.4840   33.8260 N   0  0  0  0  0  0  0  0  0  0  0  0
   38.8430   26.4570   34.2650 H   0  0  0  0  0  0  0  0  0  0  0  0
   38.9800   26.0420   36.7230 H   0  0  0  0  0  0  0  0  0  0  0  0
   38.3310   23.6880   37.9710 C   0  0  0  0  0  0  0  0  0  0  0  0
   39.5180   23.1190   38.3470 F   0  0  0  0  0  0  0  0  0  0  0  0
   37.2480   22.8630   38.2850 F   0  0  0  0  0  0  0  0  0  0  0  0
   38.1140   24.8680   38.6930 F   0  0  0  0  0  0  0  0  0  0  0  0
  1  2  1  0  0  0  0
  2  3  2  0  0  0  0
  2 19  1  0  0  0  0
  3 11  1  0  0  0  0
  4  5  1  0  0  0  0
  4  3  1  0  0  0  0
  5 12  1  0  0  0  0
  6  5  1  0  0  0  0
  7  8  1  0  0  0  0
  7  6  2  0  0  0  0
  8  4  2  0  0  0  0
  9  8  1  0  0  0  0
  9  1  2  0  0  0  0
 10  1  1  0  0  0  0
 13  6  1  0  0  0  0
 14  9  1  0  0  0  0
 15 16  1  0  0  0  0
 16 17  2  0  0  0  0
 16 22  1  0  0  0  0
 17 23  1  0  0  0  0
 18 17  1  0  0  0  0
 19 18  2  0  0  0  0
 20 19  1  0  0  0  0
 20 15  2  0  0  0  0
 21 15  1  0  0  0  0
 23 25  1  0  0  0  0
 23 24  1  0  0  0  0
 23 26  1  0  0  0  0
M  END
>  <minimizedAffinity>
-5.16457605

$$$$

 OpenBabel03272507063D

 26 28  0  0  0  0  0  0  0  0999 V2000
   38.3130   24.9860   33.6880 C   0  0  0  0  0  0  0  0  0  0  0  0
   38.0150   25.4200   34.9850 C   0  0  0  0  0  0  0  0  0  0  0  0
   37.3310   26.5970   35.1750 C   0  0  0  0  0  0  0  0  0  0  0  0
   36.9340   27.3640   34.0890 C   0  0  0  0  0  0  0  0  0  0  0  0
   36.2620   28.5400   34.0240 N   0  0  0  0  0  0  0  0  0  0  0  0
   36.1740   28.7830   32.6910 C   0  0  0  0  0  0  0  0  0  0  0  0
   36.7660   27.7990   31.9810 N   0  0  0  0  0  0  0  0  0  0  0  0
   37.2510   26.8950   32.8390 C   0  0  0  0  0  0  0  0  0  0  0  0
   37.9240   25.7380   32.5900 C   0  0  0  0  0  0  0  0  0  0  0  0
   38.8480   24.0620   33.5570 H   0  0  0  0  0  0  0  0  0  0  0  0
   37.1220   26.8940   36.2110 H   0  0  0  0  0  0  0  0  0  0  0  0
   35.9130   29.0940   34.8320 H   0  0  0  0  0  0  0  0  0  0  0  0
   35.6740   29.6780   32.3290 H   0  0  0  0  0  0  0  0  0  0  0  0
   38.1620   25.3910   31.5860 H   0  0  0  0  0  0  0  0  0  0  0  0
   38.1500   23.8540   38.3040 C   0  0  0  0  0  0  0  0  0  0  0  0
   39.3030   23.0470   38.2150 C   0  0  0  0  0  0  0  0  0  0  0  0
   40.0010   23.0710   36.9980 C   0  0  0  0  0  0  0  0  0  0  0  0
   39.5490   23.8540   35.9780 N   0  0  0  0  0  0  0  0  0  0  0  0
   38.4340   24.6120   36.1170 C   0  0  0  0  0  0  0  0  0  0  0  0
   37.7360   24.6170   37.2650 N   0  0  0  0  0  0  0  0  0  0  0  0
   37.6250   23.8220   39.2530 H   0  0  0  0  0  0  0  0  0  0  0  0
   39.6790   22.4280   38.9890 H   0  0  0  0  0  0  0  0  0  0  0  0
   41.2240   22.2930   36.7270 C   0  0  0  0  0  0  0  0  0  0  0  0
   41.3230   21.8860   35.4230 F   0  0  0  0  0  0  0  0  0  0  0  0
   41.3030   21.2100   37.6060 F   0  0  0  0  0  0  0  0  0  0  0  0
   42.3090   23.1140   37.0570 F   0  0  0  0  0  0  0  0  0  0  0  0
  1  2  1  0  0  0  0
  2  3  2  0  0  0  0
  2 19  1  0  0  0  0
  3 11  1  0  0  0  0
  4  3  1  0  0  0  0
  5  4  1  0  0  0  0
  5 12  1  0  0  0  0
  6  5  1  0  0  0  0
  7  6  2  0  0  0  0
  7  8  1  0  0  0  0
  8  4  2  0  0  0  0
  9  8  1  0  0  0  0
  9  1  2  0  0  0  0
 10  1  1  0  0  0  0
 13  6  1  0  0  0  0
 14  9  1  0  0  0  0
 15 21  1  0  0  0  0
 16 15  1  0  0  0  0
 16 22  1  0  0  0  0
 17 16  2  0  0  0  0
 18 19  2  0  0  0  0
 18 17  1  0  0  0  0
 19 20  1  0  0  0  0
 20 15  2  0  0  0  0
 23 17  1  0  0  0  0
 23 26  1  0  0  0  0
 23 25  1  0  0  0  0
 24 23  1  0  0  0  0
M  END
>  <minimizedAffinity>
-5.13816071

$$$$

 OpenBabel03272507063D

 26 28  0  0  0  0  0  0  0  0999 V2000
   40.5580   25.1240   34.3750 C   0  0  0  0  0  0  0  0  0  0  0  0
   39.1950   24.8700   34.5710 C   0  0  0  0  0  0  0  0  0  0  0  0
   38.7990   23.9160   35.4770 C   0  0  0  0  0  0  0  0  0  0  0  0
   39.7400   23.1970   36.1990 C   0  0  0  0  0  0  0  0  0  0  0  0
   39.5970   22.2230   37.1320 N   0  0  0  0  0  0  0  0  0  0  0  0
   40.8750   21.9160   37.4710 C   0  0  0  0  0  0  0  0  0  0  0  0
   41.7530   22.6700   36.7760 N   0  0  0  0  0  0  0  0  0  0  0  0
   41.0620   23.4840   35.9700 C   0  0  0  0  0  0  0  0  0  0  0  0
   41.5130   24.4170   35.0870 C   0  0  0  0  0  0  0  0  0  0  0  0
   40.8510   25.8750   33.6620 H   0  0  0  0  0  0  0  0  0  0  0  0
   37.7190   23.7540   35.5950 H   0  0  0  0  0  0  0  0  0  0  0  0
   38.6980   21.8300   37.4790 H   0  0  0  0  0  0  0  0  0  0  0  0
   41.0760   21.1490   38.2160 H   0  0  0  0  0  0  0  0  0  0  0  0
   42.5700   24.6230   34.9260 H   0  0  0  0  0  0  0  0  0  0  0  0
   37.1380   27.6270   33.2850 C   0  0  0  0  0  0  0  0  0  0  0  0
   36.3330   26.9840   32.3220 C   0  0  0  0  0  0  0  0  0  0  0  0
   36.5310   25.6060   32.1480 C   0  0  0  0  0  0  0  0  0  0  0  0
   37.4680   24.9610   32.8970 N   0  0  0  0  0  0  0  0  0  0  0  0
   38.2160   25.6270   33.8100 C   0  0  0  0  0  0  0  0  0  0  0  0
   38.0580   26.9460   34.0080 N   0  0  0  0  0  0  0  0  0  0  0  0
   36.9700   28.6920   33.4040 H   0  0  0  0  0  0  0  0  0  0  0  0
   35.5970   27.4580   31.7230 H   0  0  0  0  0  0  0  0  0  0  0  0
   35.7810   24.7740   31.1880 C   0  0  0  0  0  0  0  0  0  0  0  0
   34.9240   23.8960   31.7960 F   0  0  0  0  0  0  0  0  0  0  0  0
   36.6690   24.1140   30.3360 F   0  0  0  0  0  0  0  0  0  0  0  0
   35.0650   25.6520   30.3650 F   0  0  0  0  0  0  0  0  0  0  0  0
  1  2  2  0  0  0  0
  1  9  1  0  0  0  0
  2  3  1  0  0  0  0
  3 11  1  0  0  0  0
  3  4  2  0  0  0  0
  4  5  1  0  0  0  0
  5  6  1  0  0  0  0
  5 12  1  0  0  0  0
  6 13  1  0  0  0  0
  7  6  2  0  0  0  0
  8  4  1  0  0  0  0
  8  7  1  0  0  0  0
  9  8  2  0  0  0  0
 10  1  1  0  0  0  0
 14  9  1  0  0  0  0
 15 21  1  0  0  0  0
 15 20  1  0  0  0  0
 16 15  2  0  0  0  0
 17 16  1  0  0  0  0
 17 18  2  0  0  0  0
 18 19  1  0  0  0  0
 19 20  2  0  0  0  0
 19  2  1  0  0  0  0
 22 16  1  0  0  0  0
 23 24  1  0  0  0  0
 23 17  1  0  0  0  0
 25 23  1  0  0  0  0
 26 23  1  0  0  0  0
M  END
>  <minimizedAffinity>
-5.13763809

$$$$

 OpenBabel03272507063D

 26 28  0  0  0  0  0  0  0  0999 V2000
   39.5010   24.0570   33.8600 C   0  0  0  0  0  0  0  0  0  0  0  0
   38.5840   23.0120   34.0200 C   0  0  0  0  0  0  0  0  0  0  0  0
   38.7300   22.1230   35.0570 C   0  0  0  0  0  0  0  0  0  0  0  0
   39.7830   22.2510   35.9500 C   0  0  0  0  0  0  0  0  0  0  0  0
   40.1310   21.5110   37.0320 N   0  0  0  0  0  0  0  0  0  0  0  0
   41.2480   22.1300   37.4960 C   0  0  0  0  0  0  0  0  0  0  0  0
   41.5620   23.1950   36.7290 N   0  0  0  0  0  0  0  0  0  0  0  0
   40.6550   23.2920   35.7510 C   0  0  0  0  0  0  0  0  0  0  0  0
   40.5600   24.2020   34.7430 C   0  0  0  0  0  0  0  0  0  0  0  0
   39.3720   24.7450   33.0430 H   0  0  0  0  0  0  0  0  0  0  0  0
   37.9840   21.3210   35.1390 H   0  0  0  0  0  0  0  0  0  0  0  0
   39.6310   20.6720   37.3910 H   0  0  0  0  0  0  0  0  0  0  0  0
   41.7600   21.7490   38.3760 H   0  0  0  0  0  0  0  0  0  0  0  0
   41.2680   25.0180   34.6090 H   0  0  0  0  0  0  0  0  0  0  0  0
   36.1220   23.7550   31.3970 C   0  0  0  0  0  0  0  0  0  0  0  0
   35.3810   22.5570   31.3260 C   0  0  0  0  0  0  0  0  0  0  0  0
   35.7610   21.5230   32.1950 C   0  0  0  0  0  0  0  0  0  0  0  0
   36.8040   21.7130   33.0510 N   0  0  0  0  0  0  0  0  0  0  0  0
   37.4840   22.8850   33.0790 C   0  0  0  0  0  0  0  0  0  0  0  0
   37.1520   23.9000   32.2640 N   0  0  0  0  0  0  0  0  0  0  0  0
   35.8130   24.5410   30.7180 H   0  0  0  0  0  0  0  0  0  0  0  0
   34.5660   22.3790   30.6710 H   0  0  0  0  0  0  0  0  0  0  0  0
   35.1000   20.2070   32.2570 C   0  0  0  0  0  0  0  0  0  0  0  0
   33.7610   20.2660   31.9780 F   0  0  0  0  0  0  0  0  0  0  0  0
   35.3370   19.6140   33.4990 F   0  0  0  0  0  0  0  0  0  0  0  0
   35.7480   19.3840   31.3280 F   0  0  0  0  0  0  0  0  0  0  0  0
  1  2  2  0  0  0  0
  1  9  1  0  0  0  0
  2  3  1  0  0  0  0
  3 11  1  0  0  0  0
  3  4  2  0  0  0  0
  4  5  1  0  0  0  0
  5 12  1  0  0  0  0
  5  6  1  0  0  0  0
  6 13  1  0  0  0  0
  7  6  2  0  0  0  0
  8  4  1  0  0  0  0
  8  7  1  0  0  0  0
  9  8  2  0  0  0  0
 10  1  1  0  0  0  0
 14  9  1  0  0  0  0
 15 20  1  0  0  0  0
 16 15  2  0  0  0  0
 16 17  1  0  0  0  0
 17 23  1  0  0  0  0
 17 18  2  0  0  0  0
 18 19  1  0  0  0  0
 19  2  1  0  0  0  0
 20 19  2  0  0  0  0
 21 15  1  0  0  0  0
 22 16  1  0  0  0  0
 23 25  1  0  0  0  0
 24 23  1  0  0  0  0
 26 23  1  0  0  0  0
M  END
>  <minimizedAffinity>
-5.10838461

$$$$

 OpenBabel03272507063D

 26 28  0  0  0  0  0  0  0  0999 V2000
   37.2700   26.6060   33.8780 C   0  0  0  0  0  0  0  0  0  0  0  0
   37.7860   25.4520   33.2760 C   0  0  0  0  0  0  0  0  0  0  0  0
   38.1540   25.4740   31.9520 C   0  0  0  0  0  0  0  0  0  0  0  0
   38.0160   26.6330   31.2030 C   0  0  0  0  0  0  0  0  0  0  0  0
   38.3040   26.8960   29.9040 N   0  0  0  0  0  0  0  0  0  0  0  0
   37.9530   28.2000   29.7580 C   0  0  0  0  0  0  0  0  0  0  0  0
   37.4740   28.7030   30.9150 N   0  0  0  0  0  0  0  0  0  0  0  0
   37.5050   27.7370   31.8390 C   0  0  0  0  0  0  0  0  0  0  0  0
   37.1240   27.7740   33.1450 C   0  0  0  0  0  0  0  0  0  0  0  0
   36.9870   26.5710   34.9150 H   0  0  0  0  0  0  0  0  0  0  0  0
   38.5540   24.5440   31.5270 H   0  0  0  0  0  0  0  0  0  0  0  0
   38.7010   26.2270   29.2140 H   0  0  0  0  0  0  0  0  0  0  0  0
   38.0750   28.6960   28.7980 H   0  0  0  0  0  0  0  0  0  0  0  0
   36.7210   28.6640   33.6230 H   0  0  0  0  0  0  0  0  0  0  0  0
   38.0360   21.9200   34.2500 C   0  0  0  0  0  0  0  0  0  0  0  0
   38.2020   21.9990   35.6480 C   0  0  0  0  0  0  0  0  0  0  0  0
   38.2230   23.2830   36.2120 C   0  0  0  0  0  0  0  0  0  0  0  0
   38.0850   24.3740   35.4080 N   0  0  0  0  0  0  0  0  0  0  0  0
   37.9270   24.2420   34.0680 C   0  0  0  0  0  0  0  0  0  0  0  0
   37.9020   23.0310   33.4870 N   0  0  0  0  0  0  0  0  0  0  0  0
   38.0230   20.9190   33.8330 H   0  0  0  0  0  0  0  0  0  0  0  0
   38.3130   21.1700   36.2990 H   0  0  0  0  0  0  0  0  0  0  0  0
   38.3870   23.5540   37.6520 C   0  0  0  0  0  0  0  0  0  0  0  0
   39.6070   23.1640   38.1350 F   0  0  0  0  0  0  0  0  0  0  0  0
   37.3420   22.9650   38.3690 F   0  0  0  0  0  0  0  0  0  0  0  0
   38.2200   24.9330   37.8270 F   0  0  0  0  0  0  0  0  0  0  0  0
  1 10  1  0  0  0  0
  2  1  1  0  0  0  0
  2 19  1  0  0  0  0
  3  2  2  0  0  0  0
  4  8  2  0  0  0  0
  4  3  1  0  0  0  0
  5  4  1  0  0  0  0
  6  5  1  0  0  0  0
  6  7  2  0  0  0  0
  7  8  1  0  0  0  0
  8  9  1  0  0  0  0
  9 14  1  0  0  0  0
  9  1  2  0  0  0  0
 11  3  1  0  0  0  0
 12  5  1  0  0  0  0
 13  6  1  0  0  0  0
 15 16  1  0  0  0  0
 16 17  2  0  0  0  0
 16 22  1  0  0  0  0
 17 23  1  0  0  0  0
 18 17  1  0  0  0  0
 19 18  2  0  0  0  0
 20 19  1  0  0  0  0
 20 15  2  0  0  0  0
 21 15  1  0  0  0  0
 23 26  1  0  0  0  0
 23 24  1  0  0  0  0
 23 25  1  0  0  0  0
M  END
>  <minimizedAffinity>
-5.06946325

$$$$
