
 OpenBabel03262520193D

 16 16  0  0  0  0  0  0  0  0999 V2000
   37.4370   29.7710   51.5450 C   0  0  0  0  0  0  0  0  0  0  0  0
   38.0370   30.8630   50.8650 C   0  0  0  0  0  0  0  0  0  0  0  0
   37.3430   31.4260   49.7800 C   0  0  0  0  0  0  0  0  0  0  0  0
   36.1450   30.8800   49.4650 N   0  0  0  0  0  0  0  0  0  0  0  0
   35.5950   29.8420   50.1250 C   0  0  0  0  0  0  0  0  0  0  0  0
   36.2490   29.3040   51.1550 N   0  0  0  0  0  0  0  0  0  0  0  0
   38.0040   29.3620   52.3790 H   0  0  0  0  0  0  0  0  0  0  0  0
   39.0020   31.2470   51.1770 H   0  0  0  0  0  0  0  0  0  0  0  0
   37.9350   32.5700   49.0420 C   0  0  0  0  0  0  0  0  0  0  0  0
   39.2660   32.5820   49.3940 F   0  0  0  0  0  0  0  0  0  0  0  0
   37.8500   32.4080   47.6680 F   0  0  0  0  0  0  0  0  0  0  0  0
   37.3650   33.7760   49.4040 F   0  0  0  0  0  0  0  0  0  0  0  0
   34.2710   29.2980   49.7150 C   0  0  0  0  0  0  0  0  0  0  0  0
   34.2980   27.9120   49.6450 F   0  0  0  0  0  0  0  0  0  0  0  0
   33.3340   29.6300   50.6660 F   0  0  0  0  0  0  0  0  0  0  0  0
   33.8990   29.7600   48.4820 F   0  0  0  0  0  0  0  0  0  0  0  0
  1  7  1  0  0  0  0
  2  8  1  0  0  0  0
  2  1  2  0  0  0  0
  3  2  1  0  0  0  0
  4  3  2  0  0  0  0
  4  5  1  0  0  0  0
  5  6  2  0  0  0  0
  6  1  1  0  0  0  0
  9 10  1  0  0  0  0
  9 12  1  0  0  0  0
  9  3  1  0  0  0  0
 11  9  1  0  0  0  0
 13  5  1  0  0  0  0
 13 15  1  0  0  0  0
 14 13  1  0  0  0  0
 16 13  1  0  0  0  0
M  END
>  <minimizedAffinity>
-5.10039568

>  <minimizedRMSD>
0.693028629

$$$$
