
 OpenBabel03272505153D

 23 24  0  0  0  0  0  0  0  0999 V2000
   36.7680   32.2530   49.9740 Cl  0  0  0  0  0  0  0  0  0  0  0  0
   37.6290   31.7990   48.5440 C   0  0  0  0  0  0  0  0  0  0  0  0
   37.2460   30.7200   47.8050 C   0  0  0  0  0  0  0  0  0  0  0  0
   37.9870   30.4400   46.6910 C   0  0  0  0  0  0  0  0  0  0  0  0
   39.0730   31.1650   46.2810 C   0  0  0  0  0  0  0  0  0  0  0  0
   39.4380   32.2420   47.0380 C   0  0  0  0  0  0  0  0  0  0  0  0
   38.7270   32.5780   48.1780 C   0  0  0  0  0  0  0  0  0  0  0  0
   37.6800   29.5710   46.0930 H   0  0  0  0  0  0  0  0  0  0  0  0
   39.6090   30.8780   45.3860 H   0  0  0  0  0  0  0  0  0  0  0  0
   40.2900   32.8410   46.7490 H   0  0  0  0  0  0  0  0  0  0  0  0
   34.9930   28.3700   49.7420 C   0  0  0  0  0  0  0  0  0  0  0  0
   36.1260   29.0940   49.3490 C   0  0  0  0  0  0  0  0  0  0  0  0
   36.0940   29.9540   48.2420 C   0  0  0  0  0  0  0  0  0  0  0  0
   34.9080   30.0260   47.5990 N   0  0  0  0  0  0  0  0  0  0  0  0
   33.8200   29.3290   47.9780 C   0  0  0  0  0  0  0  0  0  0  0  0
   33.8510   28.5090   49.0350 N   0  0  0  0  0  0  0  0  0  0  0  0
   35.1660   27.7430   50.6190 H   0  0  0  0  0  0  0  0  0  0  0  0
   37.0710   29.0400   49.8570 H   0  0  0  0  0  0  0  0  0  0  0  0
   32.9160   29.4520   47.4000 H   0  0  0  0  0  0  0  0  0  0  0  0
   39.1160   33.7530   49.0170 C   0  0  0  0  0  0  0  0  0  0  0  0
   39.4820   33.2970   50.2630 F   0  0  0  0  0  0  0  0  0  0  0  0
   40.0650   34.5450   48.4490 F   0  0  0  0  0  0  0  0  0  0  0  0
   37.9540   34.5110   49.2160 F   0  0  0  0  0  0  0  0  0  0  0  0
  2  1  1  0  0  0  0
  3 13  1  0  0  0  0
  3  2  2  0  0  0  0
  4  3  1  0  0  0  0
  5  4  2  0  0  0  0
  5  6  1  0  0  0  0
  6  7  2  0  0  0  0
  7  2  1  0  0  0  0
  7 20  1  0  0  0  0
  8  4  1  0  0  0  0
  9  5  1  0  0  0  0
 10  6  1  0  0  0  0
 11 17  1  0  0  0  0
 12 11  1  0  0  0  0
 12 18  1  0  0  0  0
 13 12  2  0  0  0  0
 14 15  2  0  0  0  0
 14 13  1  0  0  0  0
 15 16  1  0  0  0  0
 16 11  2  0  0  0  0
 19 15  1  0  0  0  0
 20 23  1  0  0  0  0
 20 21  1  0  0  0  0
 22 20  1  0  0  0  0
M  END
>  <minimizedAffinity>
-6.11623096

>  <minimizedRMSD>
1.99014556

$$$$
