
 OpenBabel03262521053D

 23 24  0  0  0  0  0  0  0  0999 V2000
   40.7680   24.1320   34.5150 Br  0  0  0  0  0  0  0  0  0  0  0  0
   39.8110   23.8330   36.1330 C   0  0  0  0  0  0  0  0  0  0  0  0
   38.6820   24.5910   36.2920 C   0  0  0  0  0  0  0  0  0  0  0  0
   37.9260   24.4200   37.4660 C   0  0  0  0  0  0  0  0  0  0  0  0
   38.3390   23.4990   38.4250 C   0  0  0  0  0  0  0  0  0  0  0  0
   39.4760   22.7890   38.1800 C   0  0  0  0  0  0  0  0  0  0  0  0
   40.2430   22.9290   37.0390 C   0  0  0  0  0  0  0  0  0  0  0  0
   37.0330   24.9650   37.6780 H   0  0  0  0  0  0  0  0  0  0  0  0
   37.7780   23.3430   39.3430 H   0  0  0  0  0  0  0  0  0  0  0  0
   39.7850   22.0730   38.9370 H   0  0  0  0  0  0  0  0  0  0  0  0
   37.5940   25.2910   34.1340 C   0  0  0  0  0  0  0  0  0  0  0  0
   38.1210   25.5890   35.3910 C   0  0  0  0  0  0  0  0  0  0  0  0
   38.1070   26.9300   35.8010 C   0  0  0  0  0  0  0  0  0  0  0  0
   37.5790   27.8700   34.9500 N   0  0  0  0  0  0  0  0  0  0  0  0
   37.0830   27.5230   33.7490 C   0  0  0  0  0  0  0  0  0  0  0  0
   37.0870   26.2470   33.3350 N   0  0  0  0  0  0  0  0  0  0  0  0
   37.6480   24.2200   33.8980 H   0  0  0  0  0  0  0  0  0  0  0  0
   38.4920   27.2680   36.7600 H   0  0  0  0  0  0  0  0  0  0  0  0
   36.6620   28.2350   33.0550 H   0  0  0  0  0  0  0  0  0  0  0  0
   41.4830   22.1400   36.7960 C   0  0  0  0  0  0  0  0  0  0  0  0
   41.4630   21.4920   35.5760 F   0  0  0  0  0  0  0  0  0  0  0  0
   42.6040   22.9700   36.7700 F   0  0  0  0  0  0  0  0  0  0  0  0
   41.7190   21.2480   37.8260 F   0  0  0  0  0  0  0  0  0  0  0  0
  1  2  1  0  0  0  0
  2  3  2  0  0  0  0
  2  7  1  0  0  0  0
  3  4  1  0  0  0  0
  4  8  1  0  0  0  0
  4  5  2  0  0  0  0
  5  9  1  0  0  0  0
  6  5  1  0  0  0  0
  6 10  1  0  0  0  0
  7  6  2  0  0  0  0
 11 12  1  0  0  0  0
 12 13  2  0  0  0  0
 12  3  1  0  0  0  0
 13 18  1  0  0  0  0
 14 13  1  0  0  0  0
 15 14  2  0  0  0  0
 16 15  1  0  0  0  0
 16 11  2  0  0  0  0
 17 11  1  0  0  0  0
 19 15  1  0  0  0  0
 20  7  1  0  0  0  0
 20 23  1  0  0  0  0
 21 20  1  0  0  0  0
 22 20  1  0  0  0  0
M  END
>  <minimizedAffinity>
-4.90206289

$$$$

 OpenBabel03262521053D

 23 24  0  0  0  0  0  0  0  0999 V2000
   38.1710   22.5750   35.1300 Br  0  0  0  0  0  0  0  0  0  0  0  0
   38.2090   24.4640   35.3540 C   0  0  0  0  0  0  0  0  0  0  0  0
   38.2320   25.1910   34.1930 C   0  0  0  0  0  0  0  0  0  0  0  0
   38.2600   26.5930   34.2860 C   0  0  0  0  0  0  0  0  0  0  0  0
   38.2650   27.2030   35.5380 C   0  0  0  0  0  0  0  0  0  0  0  0
   38.2410   26.3990   36.6380 C   0  0  0  0  0  0  0  0  0  0  0  0
   38.2120   25.0180   36.5870 C   0  0  0  0  0  0  0  0  0  0  0  0
   38.2790   27.2410   33.4380 H   0  0  0  0  0  0  0  0  0  0  0  0
   38.2870   28.2840   35.6450 H   0  0  0  0  0  0  0  0  0  0  0  0
   38.2450   26.8890   37.6090 H   0  0  0  0  0  0  0  0  0  0  0  0
   39.3840   24.3700   32.1120 C   0  0  0  0  0  0  0  0  0  0  0  0
   38.2300   24.7080   32.8180 C   0  0  0  0  0  0  0  0  0  0  0  0
   37.0010   24.5740   32.1570 C   0  0  0  0  0  0  0  0  0  0  0  0
   37.0000   24.1200   30.8600 N   0  0  0  0  0  0  0  0  0  0  0  0
   38.1470   23.8070   30.2300 C   0  0  0  0  0  0  0  0  0  0  0  0
   39.3340   23.9290   30.8430 N   0  0  0  0  0  0  0  0  0  0  0  0
   40.2980   24.5060   32.7080 H   0  0  0  0  0  0  0  0  0  0  0  0
   36.0440   24.8100   32.6150 H   0  0  0  0  0  0  0  0  0  0  0  0
   38.1840   23.4480   29.2130 H   0  0  0  0  0  0  0  0  0  0  0  0
   38.1860   24.1630   37.8050 C   0  0  0  0  0  0  0  0  0  0  0  0
   39.3570   23.4490   37.9710 F   0  0  0  0  0  0  0  0  0  0  0  0
   38.0450   24.9390   38.9550 F   0  0  0  0  0  0  0  0  0  0  0  0
   37.0890   23.3200   37.8030 F   0  0  0  0  0  0  0  0  0  0  0  0
  1  2  1  0  0  0  0
  2  7  1  0  0  0  0
  3  4  1  0  0  0  0
  3  2  2  0  0  0  0
  4  5  2  0  0  0  0
  5  9  1  0  0  0  0
  5  6  1  0  0  0  0
  6 10  1  0  0  0  0
  7  6  2  0  0  0  0
  7 20  1  0  0  0  0
  8  4  1  0  0  0  0
 11 17  1  0  0  0  0
 11 12  1  0  0  0  0
 12  3  1  0  0  0  0
 13 18  1  0  0  0  0
 13 12  2  0  0  0  0
 14 13  1  0  0  0  0
 15 16  1  0  0  0  0
 15 14  2  0  0  0  0
 16 11  2  0  0  0  0
 19 15  1  0  0  0  0
 20 21  1  0  0  0  0
 20 22  1  0  0  0  0
 23 20  1  0  0  0  0
M  END
>  <minimizedAffinity>
-4.85607433

$$$$

 OpenBabel03262521053D

 23 24  0  0  0  0  0  0  0  0999 V2000
   37.9650   23.4890   33.1690 Br  0  0  0  0  0  0  0  0  0  0  0  0
   37.7930   25.2150   33.9510 C   0  0  0  0  0  0  0  0  0  0  0  0
   38.3890   25.3640   35.1760 C   0  0  0  0  0  0  0  0  0  0  0  0
   38.3010   26.6160   35.8100 C   0  0  0  0  0  0  0  0  0  0  0  0
   37.6180   27.6590   35.1890 C   0  0  0  0  0  0  0  0  0  0  0  0
   37.0570   27.4180   33.9710 C   0  0  0  0  0  0  0  0  0  0  0  0
   37.1240   26.2020   33.3160 C   0  0  0  0  0  0  0  0  0  0  0  0
   38.7330   26.8260   36.7630 H   0  0  0  0  0  0  0  0  0  0  0  0
   37.5310   28.6370   35.6530 H   0  0  0  0  0  0  0  0  0  0  0  0
   36.5280   28.2410   33.4980 H   0  0  0  0  0  0  0  0  0  0  0  0
   40.4120   23.9350   35.6180 C   0  0  0  0  0  0  0  0  0  0  0  0
   39.1330   24.3800   35.9510 C   0  0  0  0  0  0  0  0  0  0  0  0
   38.5360   23.8420   37.1000 C   0  0  0  0  0  0  0  0  0  0  0  0
   39.2370   22.9140   37.8300 N   0  0  0  0  0  0  0  0  0  0  0  0
   40.4700   22.5230   37.4600 C   0  0  0  0  0  0  0  0  0  0  0  0
   41.0610   23.0230   36.3640 N   0  0  0  0  0  0  0  0  0  0  0  0
   40.7990   24.4090   34.7050 H   0  0  0  0  0  0  0  0  0  0  0  0
   37.5440   24.1200   37.4470 H   0  0  0  0  0  0  0  0  0  0  0  0
   41.0500   21.7960   38.0090 H   0  0  0  0  0  0  0  0  0  0  0  0
   36.5010   25.9650   31.9850 C   0  0  0  0  0  0  0  0  0  0  0  0
   35.6280   24.8940   31.9960 F   0  0  0  0  0  0  0  0  0  0  0  0
   35.7470   27.0680   31.5840 F   0  0  0  0  0  0  0  0  0  0  0  0
   37.4620   25.8100   31.0020 F   0  0  0  0  0  0  0  0  0  0  0  0
  1  2  1  0  0  0  0
  2  3  1  0  0  0  0
  3  4  2  0  0  0  0
  3 12  1  0  0  0  0
  4  8  1  0  0  0  0
  5  9  1  0  0  0  0
  5  4  1  0  0  0  0
  6  5  2  0  0  0  0
  7  2  2  0  0  0  0
  7  6  1  0  0  0  0
 10  6  1  0  0  0  0
 11 12  2  0  0  0  0
 11 16  1  0  0  0  0
 12 13  1  0  0  0  0
 13 18  1  0  0  0  0
 13 14  2  0  0  0  0
 15 14  1  0  0  0  0
 15 19  1  0  0  0  0
 16 15  2  0  0  0  0
 17 11  1  0  0  0  0
 20 21  1  0  0  0  0
 20  7  1  0  0  0  0
 22 20  1  0  0  0  0
 23 20  1  0  0  0  0
M  END
>  <minimizedAffinity>
-4.79848433

$$$$

 OpenBabel03262521053D

 23 24  0  0  0  0  0  0  0  0999 V2000
   38.4100   26.3760   36.3630 Br  0  0  0  0  0  0  0  0  0  0  0  0
   38.1820   24.6140   35.6820 C   0  0  0  0  0  0  0  0  0  0  0  0
   38.0970   24.5210   34.3180 C   0  0  0  0  0  0  0  0  0  0  0  0
   37.9290   23.2470   33.7480 C   0  0  0  0  0  0  0  0  0  0  0  0
   37.8520   22.1260   34.5710 C   0  0  0  0  0  0  0  0  0  0  0  0
   37.9460   22.3160   35.9170 C   0  0  0  0  0  0  0  0  0  0  0  0
   38.1130   23.5520   36.5140 C   0  0  0  0  0  0  0  0  0  0  0  0
   37.8520   23.0760   32.6970 H   0  0  0  0  0  0  0  0  0  0  0  0
   37.7210   21.1280   34.1620 H   0  0  0  0  0  0  0  0  0  0  0  0
   37.8850   21.4320   36.5470 H   0  0  0  0  0  0  0  0  0  0  0  0
   37.0430   26.2880   32.8710 C   0  0  0  0  0  0  0  0  0  0  0  0
   38.1590   25.5880   33.3280 C   0  0  0  0  0  0  0  0  0  0  0  0
   39.4090   25.9370   32.7970 C   0  0  0  0  0  0  0  0  0  0  0  0
   39.4660   26.9430   31.8630 N   0  0  0  0  0  0  0  0  0  0  0  0
   38.3550   27.5850   31.4600 C   0  0  0  0  0  0  0  0  0  0  0  0
   37.1480   27.2660   31.9540 N   0  0  0  0  0  0  0  0  0  0  0  0
   36.1100   25.9470   33.3400 H   0  0  0  0  0  0  0  0  0  0  0  0
   40.3390   25.4550   33.0850 H   0  0  0  0  0  0  0  0  0  0  0  0
   38.3620   28.3780   30.7280 H   0  0  0  0  0  0  0  0  0  0  0  0
   38.2130   23.7310   37.9880 C   0  0  0  0  0  0  0  0  0  0  0  0
   37.7970   24.9840   38.3950 F   0  0  0  0  0  0  0  0  0  0  0  0
   37.3950   22.8210   38.6580 F   0  0  0  0  0  0  0  0  0  0  0  0
   39.4930   23.4640   38.4400 F   0  0  0  0  0  0  0  0  0  0  0  0
  2  1  1  0  0  0  0
  2  7  1  0  0  0  0
  3  2  2  0  0  0  0
  4  3  1  0  0  0  0
  4  5  2  0  0  0  0
  5  6  1  0  0  0  0
  6  7  2  0  0  0  0
  6 10  1  0  0  0  0
  7 20  1  0  0  0  0
  8  4  1  0  0  0  0
  9  5  1  0  0  0  0
 11 12  1  0  0  0  0
 11 17  1  0  0  0  0
 12  3  1  0  0  0  0
 13 18  1  0  0  0  0
 13 12  2  0  0  0  0
 14 13  1  0  0  0  0
 15 14  2  0  0  0  0
 15 16  1  0  0  0  0
 16 11  2  0  0  0  0
 19 15  1  0  0  0  0
 20 21  1  0  0  0  0
 20 23  1  0  0  0  0
 20 22  1  0  0  0  0
M  END
>  <minimizedAffinity>
-4.66655684

$$$$

 OpenBabel03262521053D

 23 24  0  0  0  0  0  0  0  0999 V2000
   37.8870   25.5530   35.7040 Br  0  0  0  0  0  0  0  0  0  0  0  0
   39.2960   24.3490   36.1360 C   0  0  0  0  0  0  0  0  0  0  0  0
   40.4000   24.4270   35.3290 C   0  0  0  0  0  0  0  0  0  0  0  0
   41.4790   23.5660   35.5930 C   0  0  0  0  0  0  0  0  0  0  0  0
   41.4020   22.6660   36.6520 C   0  0  0  0  0  0  0  0  0  0  0  0
   40.2640   22.6590   37.4020 C   0  0  0  0  0  0  0  0  0  0  0  0
   39.1830   23.4910   37.1740 C   0  0  0  0  0  0  0  0  0  0  0  0
   42.3790   23.5540   35.0190 H   0  0  0  0  0  0  0  0  0  0  0  0
   42.2180   21.9860   36.8830 H   0  0  0  0  0  0  0  0  0  0  0  0
   40.2180   21.9520   38.2260 H   0  0  0  0  0  0  0  0  0  0  0  0
   40.3280   24.9680   32.8720 C   0  0  0  0  0  0  0  0  0  0  0  0
   40.6340   25.3060   34.1900 C   0  0  0  0  0  0  0  0  0  0  0  0
   41.2000   26.5670   34.4240 C   0  0  0  0  0  0  0  0  0  0  0  0
   41.4210   27.3950   33.3500 N   0  0  0  0  0  0  0  0  0  0  0  0
   41.1040   27.0150   32.0990 C   0  0  0  0  0  0  0  0  0  0  0  0
   40.5630   25.8120   31.8530 N   0  0  0  0  0  0  0  0  0  0  0  0
   39.8900   23.9640   32.7860 H   0  0  0  0  0  0  0  0  0  0  0  0
   41.4750   26.9290   35.4110 H   0  0  0  0  0  0  0  0  0  0  0  0
   41.2640   27.6380   31.2330 H   0  0  0  0  0  0  0  0  0  0  0  0
   37.9510   23.4640   38.0090 C   0  0  0  0  0  0  0  0  0  0  0  0
   36.8490   23.0200   37.3030 F   0  0  0  0  0  0  0  0  0  0  0  0
   38.0970   22.5860   39.0830 F   0  0  0  0  0  0  0  0  0  0  0  0
   37.7070   24.6980   38.5830 F   0  0  0  0  0  0  0  0  0  0  0  0
  1  2  1  0  0  0  0
  2  7  1  0  0  0  0
  3  4  1  0  0  0  0
  3  2  2  0  0  0  0
  4  5  2  0  0  0  0
  5  9  1  0  0  0  0
  5  6  1  0  0  0  0
  6 10  1  0  0  0  0
  7  6  2  0  0  0  0
  7 20  1  0  0  0  0
  8  4  1  0  0  0  0
 11 12  1  0  0  0  0
 12 13  2  0  0  0  0
 12  3  1  0  0  0  0
 13 18  1  0  0  0  0
 14 13  1  0  0  0  0
 15 14  2  0  0  0  0
 16 15  1  0  0  0  0
 16 11  2  0  0  0  0
 17 11  1  0  0  0  0
 19 15  1  0  0  0  0
 20 23  1  0  0  0  0
 20 22  1  0  0  0  0
 21 20  1  0  0  0  0
M  END
>  <minimizedAffinity>
-4.60081196

$$$$

 OpenBabel03262521053D

 23 24  0  0  0  0  0  0  0  0999 V2000
   38.4330   26.8720   35.4540 Br  0  0  0  0  0  0  0  0  0  0  0  0
   37.8490   25.6080   34.1560 C   0  0  0  0  0  0  0  0  0  0  0  0
   38.2190   24.3110   34.3950 C   0  0  0  0  0  0  0  0  0  0  0  0
   37.8200   23.3260   33.4750 C   0  0  0  0  0  0  0  0  0  0  0  0
   37.0710   23.6860   32.3580 C   0  0  0  0  0  0  0  0  0  0  0  0
   36.7490   25.0010   32.2020 C   0  0  0  0  0  0  0  0  0  0  0  0
   37.1220   25.9980   33.0850 C   0  0  0  0  0  0  0  0  0  0  0  0
   38.0600   22.2910   33.5770 H   0  0  0  0  0  0  0  0  0  0  0  0
   36.7470   22.9490   31.6270 H   0  0  0  0  0  0  0  0  0  0  0  0
   36.1640   25.2670   31.3260 H   0  0  0  0  0  0  0  0  0  0  0  0
   40.3710   23.5560   35.4570 C   0  0  0  0  0  0  0  0  0  0  0  0
   38.9940   23.7770   35.5060 C   0  0  0  0  0  0  0  0  0  0  0  0
   38.3270   23.4620   36.6980 C   0  0  0  0  0  0  0  0  0  0  0  0
   39.0590   22.9570   37.7460 N   0  0  0  0  0  0  0  0  0  0  0  0
   40.3860   22.7660   37.6410 C   0  0  0  0  0  0  0  0  0  0  0  0
   41.0450   23.0590   36.5100 N   0  0  0  0  0  0  0  0  0  0  0  0
   40.8070   23.8300   34.4870 H   0  0  0  0  0  0  0  0  0  0  0  0
   37.2580   23.5960   36.8410 H   0  0  0  0  0  0  0  0  0  0  0  0
   40.9920   22.3710   38.4420 H   0  0  0  0  0  0  0  0  0  0  0  0
   36.7580   27.4280   32.8920 C   0  0  0  0  0  0  0  0  0  0  0  0
   37.8400   28.2000   32.5150 F   0  0  0  0  0  0  0  0  0  0  0  0
   35.8150   27.5680   31.8730 F   0  0  0  0  0  0  0  0  0  0  0  0
   36.1490   27.9470   34.0200 F   0  0  0  0  0  0  0  0  0  0  0  0
  2  3  1  0  0  0  0
  2  1  1  0  0  0  0
  3 12  1  0  0  0  0
  4  8  1  0  0  0  0
  4  3  2  0  0  0  0
  5  4  1  0  0  0  0
  6  5  2  0  0  0  0
  6  7  1  0  0  0  0
  7  2  2  0  0  0  0
  9  5  1  0  0  0  0
 10  6  1  0  0  0  0
 11 12  2  0  0  0  0
 11 16  1  0  0  0  0
 12 13  1  0  0  0  0
 13 18  1  0  0  0  0
 13 14  2  0  0  0  0
 15 14  1  0  0  0  0
 15 19  1  0  0  0  0
 16 15  2  0  0  0  0
 17 11  1  0  0  0  0
 20  7  1  0  0  0  0
 20 23  1  0  0  0  0
 21 20  1  0  0  0  0
 22 20  1  0  0  0  0
M  END
>  <minimizedAffinity>
-4.50579882

$$$$

 OpenBabel03262521053D

 23 24  0  0  0  0  0  0  0  0999 V2000
   39.0860   26.9620   35.2160 Br  0  0  0  0  0  0  0  0  0  0  0  0
   38.5630   25.5540   34.0470 C   0  0  0  0  0  0  0  0  0  0  0  0
   38.3760   24.3360   34.6460 C   0  0  0  0  0  0  0  0  0  0  0  0
   37.9880   23.2520   33.8400 C   0  0  0  0  0  0  0  0  0  0  0  0
   37.8060   23.4380   32.4720 C   0  0  0  0  0  0  0  0  0  0  0  0
   38.0150   24.6850   31.9640 C   0  0  0  0  0  0  0  0  0  0  0  0
   38.3950   25.7750   32.7250 C   0  0  0  0  0  0  0  0  0  0  0  0
   37.8200   22.2670   34.2160 H   0  0  0  0  0  0  0  0  0  0  0  0
   37.5070   22.6200   31.8210 H   0  0  0  0  0  0  0  0  0  0  0  0
   37.8690   24.8150   30.8950 H   0  0  0  0  0  0  0  0  0  0  0  0
   37.5730   24.2680   37.0290 C   0  0  0  0  0  0  0  0  0  0  0  0
   38.5250   23.9810   36.0510 C   0  0  0  0  0  0  0  0  0  0  0  0
   39.6900   23.3130   36.4540 C   0  0  0  0  0  0  0  0  0  0  0  0
   39.8300   22.9800   37.7790 N   0  0  0  0  0  0  0  0  0  0  0  0
   38.8760   23.2810   38.6780 C   0  0  0  0  0  0  0  0  0  0  0  0
   37.7530   23.9210   38.3160 N   0  0  0  0  0  0  0  0  0  0  0  0
   36.6960   24.7910   36.6230 H   0  0  0  0  0  0  0  0  0  0  0  0
   40.4930   23.0430   35.7720 H   0  0  0  0  0  0  0  0  0  0  0  0
   38.9520   23.0350   39.7260 H   0  0  0  0  0  0  0  0  0  0  0  0
   38.6170   27.1280   32.1450 C   0  0  0  0  0  0  0  0  0  0  0  0
   39.9240   27.5540   32.2880 F   0  0  0  0  0  0  0  0  0  0  0  0
   38.3610   27.1300   30.7740 F   0  0  0  0  0  0  0  0  0  0  0  0
   37.7350   28.0520   32.6760 F   0  0  0  0  0  0  0  0  0  0  0  0
  2  3  1  0  0  0  0
  2  1  1  0  0  0  0
  3 12  1  0  0  0  0
  4  8  1  0  0  0  0
  4  3  2  0  0  0  0
  5  4  1  0  0  0  0
  6  5  2  0  0  0  0
  6  7  1  0  0  0  0
  7  2  2  0  0  0  0
  9  5  1  0  0  0  0
 10  6  1  0  0  0  0
 11 16  1  0  0  0  0
 12 13  1  0  0  0  0
 12 11  2  0  0  0  0
 13 14  2  0  0  0  0
 14 15  1  0  0  0  0
 15 19  1  0  0  0  0
 16 15  2  0  0  0  0
 17 11  1  0  0  0  0
 18 13  1  0  0  0  0
 20 21  1  0  0  0  0
 20 23  1  0  0  0  0
 20  7  1  0  0  0  0
 22 20  1  0  0  0  0
M  END
>  <minimizedAffinity>
-4.48863935

$$$$

 OpenBabel03262521053D

 23 24  0  0  0  0  0  0  0  0999 V2000
   32.5470   29.4350   33.9700 Br  0  0  0  0  0  0  0  0  0  0  0  0
   33.6240   30.5380   35.0860 C   0  0  0  0  0  0  0  0  0  0  0  0
   34.9710   30.4740   34.8470 C   0  0  0  0  0  0  0  0  0  0  0  0
   35.8240   31.2640   35.6370 C   0  0  0  0  0  0  0  0  0  0  0  0
   35.2890   32.0810   36.6300 C   0  0  0  0  0  0  0  0  0  0  0  0
   33.9360   32.0800   36.7950 C   0  0  0  0  0  0  0  0  0  0  0  0
   33.0650   31.3180   36.0380 C   0  0  0  0  0  0  0  0  0  0  0  0
   36.8860   31.2800   35.5250 H   0  0  0  0  0  0  0  0  0  0  0  0
   35.9210   32.7030   37.2570 H   0  0  0  0  0  0  0  0  0  0  0  0
   33.5330   32.7220   37.5730 H   0  0  0  0  0  0  0  0  0  0  0  0
   35.8700   30.0730   32.5320 C   0  0  0  0  0  0  0  0  0  0  0  0
   35.6820   29.6770   33.8560 C   0  0  0  0  0  0  0  0  0  0  0  0
   36.2100   28.4380   34.2460 C   0  0  0  0  0  0  0  0  0  0  0  0
   36.8790   27.6870   33.3110 N   0  0  0  0  0  0  0  0  0  0  0  0
   37.0310   28.1220   32.0470 C   0  0  0  0  0  0  0  0  0  0  0  0
   36.5330   29.3030   31.6510 N   0  0  0  0  0  0  0  0  0  0  0  0
   35.4230   31.0540   32.3180 H   0  0  0  0  0  0  0  0  0  0  0  0
   36.1200   28.0370   35.2530 H   0  0  0  0  0  0  0  0  0  0  0  0
   37.5500   27.5590   31.2860 H   0  0  0  0  0  0  0  0  0  0  0  0
   31.5910   31.3360   36.2400 C   0  0  0  0  0  0  0  0  0  0  0  0
   31.1190   30.1510   36.7730 F   0  0  0  0  0  0  0  0  0  0  0  0
   31.2230   32.3350   37.1410 F   0  0  0  0  0  0  0  0  0  0  0  0
   30.9280   31.6480   35.0670 F   0  0  0  0  0  0  0  0  0  0  0  0
  1  2  1  0  0  0  0
  2  7  1  0  0  0  0
  3  2  2  0  0  0  0
  3  4  1  0  0  0  0
  4  5  2  0  0  0  0
  5  6  1  0  0  0  0
  5  9  1  0  0  0  0
  6 10  1  0  0  0  0
  7 20  1  0  0  0  0
  7  6  2  0  0  0  0
  8  4  1  0  0  0  0
 11 12  1  0  0  0  0
 12 13  2  0  0  0  0
 12  3  1  0  0  0  0
 13 18  1  0  0  0  0
 14 13  1  0  0  0  0
 15 14  2  0  0  0  0
 16 15  1  0  0  0  0
 16 11  2  0  0  0  0
 17 11  1  0  0  0  0
 19 15  1  0  0  0  0
 20 21  1  0  0  0  0
 20 22  1  0  0  0  0
 23 20  1  0  0  0  0
M  END
>  <minimizedAffinity>
-4.48636532

$$$$

 OpenBabel03262521053D

 23 24  0  0  0  0  0  0  0  0999 V2000
   38.6140   25.2160   33.1380 Br  0  0  0  0  0  0  0  0  0  0  0  0
   38.3000   24.4840   34.8660 C   0  0  0  0  0  0  0  0  0  0  0  0
   38.1060   23.1280   34.9010 C   0  0  0  0  0  0  0  0  0  0  0  0
   37.8690   22.5220   36.1470 C   0  0  0  0  0  0  0  0  0  0  0  0
   37.8380   23.3020   37.3000 C   0  0  0  0  0  0  0  0  0  0  0  0
   38.0430   24.6430   37.1690 C   0  0  0  0  0  0  0  0  0  0  0  0
   38.2790   25.2750   35.9620 C   0  0  0  0  0  0  0  0  0  0  0  0
   37.7060   21.4750   36.2730 H   0  0  0  0  0  0  0  0  0  0  0  0
   37.6570   22.8650   38.2780 H   0  0  0  0  0  0  0  0  0  0  0  0
   38.0160   25.2390   38.0780 H   0  0  0  0  0  0  0  0  0  0  0  0
   36.9620   21.8010   33.0960 C   0  0  0  0  0  0  0  0  0  0  0  0
   38.1070   22.1810   33.7940 C   0  0  0  0  0  0  0  0  0  0  0  0
   39.3270   21.6120   33.4020 C   0  0  0  0  0  0  0  0  0  0  0  0
   39.3280   20.7170   32.3590 N   0  0  0  0  0  0  0  0  0  0  0  0
   38.1900   20.3890   31.7210 C   0  0  0  0  0  0  0  0  0  0  0  0
   37.0120   20.9210   32.0800 N   0  0  0  0  0  0  0  0  0  0  0  0
   36.0550   22.2950   33.4710 H   0  0  0  0  0  0  0  0  0  0  0  0
   40.2770   21.8400   33.8790 H   0  0  0  0  0  0  0  0  0  0  0  0
   38.1540   19.6910   30.8990 H   0  0  0  0  0  0  0  0  0  0  0  0
   38.5000   26.7420   35.8460 C   0  0  0  0  0  0  0  0  0  0  0  0
   39.7400   27.0470   35.3190 F   0  0  0  0  0  0  0  0  0  0  0  0
   37.5660   27.3200   34.9860 F   0  0  0  0  0  0  0  0  0  0  0  0
   38.3090   27.3750   37.0610 F   0  0  0  0  0  0  0  0  0  0  0  0
  1  2  1  0  0  0  0
  2  3  2  0  0  0  0
  2  7  1  0  0  0  0
  3  4  1  0  0  0  0
  4  8  1  0  0  0  0
  4  5  2  0  0  0  0
  5  9  1  0  0  0  0
  6  5  1  0  0  0  0
  6 10  1  0  0  0  0
  7  6  2  0  0  0  0
 11 17  1  0  0  0  0
 11 12  1  0  0  0  0
 12  3  1  0  0  0  0
 13 12  2  0  0  0  0
 13 18  1  0  0  0  0
 14 13  1  0  0  0  0
 15 16  1  0  0  0  0
 15 14  2  0  0  0  0
 16 11  2  0  0  0  0
 19 15  1  0  0  0  0
 20  7  1  0  0  0  0
 20 23  1  0  0  0  0
 21 20  1  0  0  0  0
 22 20  1  0  0  0  0
M  END
>  <minimizedAffinity>
-4.4825778

$$$$
