
 OpenBabel03272509003D

 23 24  0  0  0  0  0  0  0  0999 V2000
   38.6880   31.5000   49.0030 Cl  0  0  0  0  0  0  0  0  0  0  0  0
   37.3430   30.8340   48.1370 C   0  0  0  0  0  0  0  0  0  0  0  0
   37.3260   30.8720   46.7600 C   0  0  0  0  0  0  0  0  0  0  0  0
   36.2770   30.3600   46.0310 C   0  0  0  0  0  0  0  0  0  0  0  0
   35.1950   29.7850   46.6700 C   0  0  0  0  0  0  0  0  0  0  0  0
   35.1830   29.7310   48.0620 C   0  0  0  0  0  0  0  0  0  0  0  0
   33.8740   29.0290   48.9940 Cl  0  0  0  0  0  0  0  0  0  0  0  0
   36.2540   30.2550   48.7430 C   0  0  0  0  0  0  0  0  0  0  0  0
   36.2560   30.3880   44.9530 H   0  0  0  0  0  0  0  0  0  0  0  0
   34.3460   29.3680   46.1460 H   0  0  0  0  0  0  0  0  0  0  0  0
   39.3810   33.1670   44.7620 C   0  0  0  0  0  0  0  0  0  0  0  0
   40.6270   32.5420   44.7520 C   0  0  0  0  0  0  0  0  0  0  0  0
   40.7550   31.3080   45.4470 C   0  0  0  0  0  0  0  0  0  0  0  0
   39.6550   30.8190   46.0760 N   0  0  0  0  0  0  0  0  0  0  0  0
   38.4550   31.4750   46.0540 C   0  0  0  0  0  0  0  0  0  0  0  0
   38.3310   32.6370   45.4000 N   0  0  0  0  0  0  0  0  0  0  0  0
   39.3340   34.1040   44.2180 H   0  0  0  0  0  0  0  0  0  0  0  0
   41.4860   32.9240   44.2590 H   0  0  0  0  0  0  0  0  0  0  0  0
   41.6930   30.7690   45.4800 H   0  0  0  0  0  0  0  0  0  0  0  0
   36.2700   30.2130   50.2440 C   0  0  0  0  0  0  0  0  0  0  0  0
   35.0870   29.7160   50.7460 F   0  0  0  0  0  0  0  0  0  0  0  0
   37.2460   29.2780   50.6060 F   0  0  0  0  0  0  0  0  0  0  0  0
   36.6420   31.4130   50.7700 F   0  0  0  0  0  0  0  0  0  0  0  0
  2  8  1  0  0  0  0
  2  1  1  0  0  0  0
  3  2  2  0  0  0  0
  4  5  2  0  0  0  0
  4  3  1  0  0  0  0
  5  6  1  0  0  0  0
  6  8  2  0  0  0  0
  6  7  1  0  0  0  0
  8 20  1  0  0  0  0
  9  4  1  0  0  0  0
 10  5  1  0  0  0  0
 11 16  1  0  0  0  0
 12 11  2  0  0  0  0
 12 13  1  0  0  0  0
 13 19  1  0  0  0  0
 13 14  2  0  0  0  0
 15 14  1  0  0  0  0
 15  3  1  0  0  0  0
 16 15  2  0  0  0  0
 17 11  1  0  0  0  0
 18 12  1  0  0  0  0
 20 22  1  0  0  0  0
 20 21  1  0  0  0  0
 20 23  1  0  0  0  0
M  END
>  <minimizedAffinity>
-6.08742189

>  <minimizedRMSD>
3.17158413

$$$$
