
 OpenBabel03272509513D

 28 29  0  0  0  0  0  0  0  0999 V2000
   38.1140   22.3370   32.7690 C   0  0  0  0  0  0  0  0  0  0  0  0
   38.6360   23.3370   32.7980 H   0  0  0  0  0  0  0  0  0  0  0  0
   38.8310   21.6270   32.3440 H   0  0  0  0  0  0  0  0  0  0  0  0
   36.8630   22.5220   31.9550 C   0  0  0  0  0  0  0  0  0  0  0  0
   36.0220   21.9660   32.4450 H   0  0  0  0  0  0  0  0  0  0  0  0
   36.9770   22.0110   30.9570 H   0  0  0  0  0  0  0  0  0  0  0  0
   36.4770   23.9470   31.8210 C   0  0  0  0  0  0  0  0  0  0  0  0
   35.3920   24.2320   31.0270 C   0  0  0  0  0  0  0  0  0  0  0  0
   34.9360   25.5100   30.8220 C   0  0  0  0  0  0  0  0  0  0  0  0
   35.5660   26.5310   31.4160 N   0  0  0  0  0  0  0  0  0  0  0  0
   36.6310   26.2500   32.1960 C   0  0  0  0  0  0  0  0  0  0  0  0
   37.0890   25.0010   32.4050 N   0  0  0  0  0  0  0  0  0  0  0  0
   34.8350   23.4420   30.5150 H   0  0  0  0  0  0  0  0  0  0  0  0
   34.0680   25.7490   30.1890 H   0  0  0  0  0  0  0  0  0  0  0  0
   37.1660   27.0450   32.6910 H   0  0  0  0  0  0  0  0  0  0  0  0
   37.7760   22.0370   34.1130 O   0  0  0  0  0  0  0  0  0  0  0  0
   40.8340   22.2570   36.0390 C   0  0  0  0  0  0  0  0  0  0  0  0
   40.3460   22.8160   37.2280 C   0  0  0  0  0  0  0  0  0  0  0  0
   38.9790   23.0820   37.2870 C   0  0  0  0  0  0  0  0  0  0  0  0
   38.2140   22.7850   36.1970 N   0  0  0  0  0  0  0  0  0  0  0  0
   38.7230   22.2520   35.0800 C   0  0  0  0  0  0  0  0  0  0  0  0
   40.0380   21.9910   35.0110 N   0  0  0  0  0  0  0  0  0  0  0  0
   41.9020   22.0620   36.0250 H   0  0  0  0  0  0  0  0  0  0  0  0
   40.9780   23.0400   38.0760 H   0  0  0  0  0  0  0  0  0  0  0  0
   38.3570   23.6810   38.5200 C   0  0  0  0  0  0  0  0  0  0  0  0
   37.8980   24.9430   38.1240 F   0  0  0  0  0  0  0  0  0  0  0  0
   37.3020   22.8830   38.9510 F   0  0  0  0  0  0  0  0  0  0  0  0
   39.3250   23.7570   39.4780 F   0  0  0  0  0  0  0  0  0  0  0  0
  1  2  1  0  0  0  0
  1 16  1  0  0  0  0
  3  1  1  0  0  0  0
  4  5  1  0  0  0  0
  4  1  1  0  0  0  0
  6  4  1  0  0  0  0
  7  4  1  0  0  0  0
  7 12  1  0  0  0  0
  8  7  2  0  0  0  0
  9  8  1  0  0  0  0
  9 10  2  0  0  0  0
 10 11  1  0  0  0  0
 11 12  2  0  0  0  0
 11 15  1  0  0  0  0
 13  8  1  0  0  0  0
 14  9  1  0  0  0  0
 16 21  1  0  0  0  0
 17 18  1  0  0  0  0
 18 19  2  0  0  0  0
 18 24  1  0  0  0  0
 19 25  1  0  0  0  0
 20 19  1  0  0  0  0
 21 20  2  0  0  0  0
 22 21  1  0  0  0  0
 22 17  2  0  0  0  0
 23 17  1  0  0  0  0
 25 27  1  0  0  0  0
 25 28  1  0  0  0  0
 26 25  1  0  0  0  0
M  END
>  <minimizedAffinity>
-4.97616291

$$$$

 OpenBabel03272509513D

 28 29  0  0  0  0  0  0  0  0999 V2000
   37.8370   23.1650   33.6900 C   0  0  0  0  0  0  0  0  0  0  0  0
   37.2340   22.7720   32.8200 H   0  0  0  0  0  0  0  0  0  0  0  0
   37.1220   23.3660   34.4950 H   0  0  0  0  0  0  0  0  0  0  0  0
   38.5760   24.3770   33.1940 C   0  0  0  0  0  0  0  0  0  0  0  0
   38.3250   24.5420   32.1140 H   0  0  0  0  0  0  0  0  0  0  0  0
   39.6830   24.1720   33.1840 H   0  0  0  0  0  0  0  0  0  0  0  0
   38.2340   25.6020   33.9550 C   0  0  0  0  0  0  0  0  0  0  0  0
   39.1570   26.0540   34.8690 C   0  0  0  0  0  0  0  0  0  0  0  0
   38.9590   27.1750   35.6340 C   0  0  0  0  0  0  0  0  0  0  0  0
   37.8220   27.8680   35.4950 N   0  0  0  0  0  0  0  0  0  0  0  0
   36.9160   27.4250   34.5970 C   0  0  0  0  0  0  0  0  0  0  0  0
   37.0980   26.3260   33.8400 N   0  0  0  0  0  0  0  0  0  0  0  0
   40.1050   25.5320   35.0290 H   0  0  0  0  0  0  0  0  0  0  0  0
   39.6910   27.5440   36.3680 H   0  0  0  0  0  0  0  0  0  0  0  0
   35.9880   27.9550   34.4560 H   0  0  0  0  0  0  0  0  0  0  0  0
   38.7580   22.1380   34.0180 O   0  0  0  0  0  0  0  0  0  0  0  0
   41.2810   22.0590   36.6140 C   0  0  0  0  0  0  0  0  0  0  0  0
   40.5710   22.6340   37.6760 C   0  0  0  0  0  0  0  0  0  0  0  0
   39.2540   23.0150   37.4230 C   0  0  0  0  0  0  0  0  0  0  0  0
   38.7480   22.8050   36.1740 N   0  0  0  0  0  0  0  0  0  0  0  0
   39.4630   22.2520   35.1880 C   0  0  0  0  0  0  0  0  0  0  0  0
   40.7330   21.8810   35.4180 N   0  0  0  0  0  0  0  0  0  0  0  0
   42.3030   21.7730   36.8430 H   0  0  0  0  0  0  0  0  0  0  0  0
   41.0000   22.7870   38.6570 H   0  0  0  0  0  0  0  0  0  0  0  0
   38.4060   23.6420   38.4980 C   0  0  0  0  0  0  0  0  0  0  0  0
   37.9370   24.8390   37.9450 F   0  0  0  0  0  0  0  0  0  0  0  0
   37.3490   22.7960   38.8190 F   0  0  0  0  0  0  0  0  0  0  0  0
   39.2030   23.8490   39.5860 F   0  0  0  0  0  0  0  0  0  0  0  0
  1 16  1  0  0  0  0
  1  3  1  0  0  0  0
  2  1  1  0  0  0  0
  4  1  1  0  0  0  0
  4  7  1  0  0  0  0
  5  4  1  0  0  0  0
  6  4  1  0  0  0  0
  7  8  1  0  0  0  0
  8 13  1  0  0  0  0
  8  9  2  0  0  0  0
  9 14  1  0  0  0  0
 10  9  1  0  0  0  0
 11 10  2  0  0  0  0
 12  7  2  0  0  0  0
 12 11  1  0  0  0  0
 15 11  1  0  0  0  0
 16 21  1  0  0  0  0
 17 23  1  0  0  0  0
 17 18  1  0  0  0  0
 18 24  1  0  0  0  0
 19 18  2  0  0  0  0
 19 25  1  0  0  0  0
 20 19  1  0  0  0  0
 21 22  1  0  0  0  0
 21 20  2  0  0  0  0
 22 17  2  0  0  0  0
 25 27  1  0  0  0  0
 25 28  1  0  0  0  0
 26 25  1  0  0  0  0
M  END
>  <minimizedAffinity>
-4.9349308

$$$$

 OpenBabel03272509513D

 28 29  0  0  0  0  0  0  0  0999 V2000
   37.9690   23.4800   33.0710 C   0  0  0  0  0  0  0  0  0  0  0  0
   37.8610   24.3970   33.7200 H   0  0  0  0  0  0  0  0  0  0  0  0
   38.9030   23.6050   32.5140 H   0  0  0  0  0  0  0  0  0  0  0  0
   36.7370   23.4090   32.2120 C   0  0  0  0  0  0  0  0  0  0  0  0
   36.9090   24.0000   31.2750 H   0  0  0  0  0  0  0  0  0  0  0  0
   35.8870   23.9490   32.7170 H   0  0  0  0  0  0  0  0  0  0  0  0
   36.3820   22.0190   31.8390 C   0  0  0  0  0  0  0  0  0  0  0  0
   35.2210   21.5040   32.3650 C   0  0  0  0  0  0  0  0  0  0  0  0
   34.7830   20.2320   32.0960 C   0  0  0  0  0  0  0  0  0  0  0  0
   35.5090   19.4480   31.2890 N   0  0  0  0  0  0  0  0  0  0  0  0
   36.6490   19.9540   30.7730 C   0  0  0  0  0  0  0  0  0  0  0  0
   37.0890   21.2010   31.0290 N   0  0  0  0  0  0  0  0  0  0  0  0
   34.5830   22.0940   33.0300 H   0  0  0  0  0  0  0  0  0  0  0  0
   33.8550   19.8100   32.5120 H   0  0  0  0  0  0  0  0  0  0  0  0
   37.2620   19.3550   30.1190 H   0  0  0  0  0  0  0  0  0  0  0  0
   38.0020   22.3760   33.9600 O   0  0  0  0  0  0  0  0  0  0  0  0
   40.8680   22.1200   36.1570 C   0  0  0  0  0  0  0  0  0  0  0  0
   40.3410   22.6800   37.3290 C   0  0  0  0  0  0  0  0  0  0  0  0
   39.0170   23.1130   37.2820 C   0  0  0  0  0  0  0  0  0  0  0  0
   38.3290   22.9660   36.1140 N   0  0  0  0  0  0  0  0  0  0  0  0
   38.8730   22.4250   35.0170 C   0  0  0  0  0  0  0  0  0  0  0  0
   40.1470   22.0030   35.0490 N   0  0  0  0  0  0  0  0  0  0  0  0
   41.9010   21.7930   36.2260 H   0  0  0  0  0  0  0  0  0  0  0  0
   40.9130   22.7830   38.2410 H   0  0  0  0  0  0  0  0  0  0  0  0
   38.3580   23.7280   38.4880 C   0  0  0  0  0  0  0  0  0  0  0  0
   37.2970   22.8720   38.8030 F   0  0  0  0  0  0  0  0  0  0  0  0
   39.2670   23.7980   39.5380 F   0  0  0  0  0  0  0  0  0  0  0  0
   37.9330   24.9750   38.1360 F   0  0  0  0  0  0  0  0  0  0  0  0
  1  2  1  0  0  0  0
  1 16  1  0  0  0  0
  3  1  1  0  0  0  0
  4  6  1  0  0  0  0
  4  1  1  0  0  0  0
  5  4  1  0  0  0  0
  7  4  1  0  0  0  0
  7  8  1  0  0  0  0
  8 13  1  0  0  0  0
  9  8  2  0  0  0  0
  9 14  1  0  0  0  0
 10  9  1  0  0  0  0
 11 12  1  0  0  0  0
 11 10  2  0  0  0  0
 12  7  2  0  0  0  0
 15 11  1  0  0  0  0
 16 21  1  0  0  0  0
 17 23  1  0  0  0  0
 17 18  1  0  0  0  0
 18 24  1  0  0  0  0
 19 18  2  0  0  0  0
 19 25  1  0  0  0  0
 20 19  1  0  0  0  0
 21 22  1  0  0  0  0
 21 20  2  0  0  0  0
 22 17  2  0  0  0  0
 25 26  1  0  0  0  0
 25 27  1  0  0  0  0
 28 25  1  0  0  0  0
M  END
>  <minimizedAffinity>
-4.92054796

$$$$

 OpenBabel03272509513D

 28 29  0  0  0  0  0  0  0  0999 V2000
   36.9480   27.5000   34.5010 C   0  0  0  0  0  0  0  0  0  0  0  0
   36.4200   26.5370   34.7560 H   0  0  0  0  0  0  0  0  0  0  0  0
   36.2970   28.3110   34.8440 H   0  0  0  0  0  0  0  0  0  0  0  0
   37.1910   27.4820   33.0170 C   0  0  0  0  0  0  0  0  0  0  0  0
   38.2950   27.5210   32.8260 H   0  0  0  0  0  0  0  0  0  0  0  0
   36.8060   28.4350   32.5550 H   0  0  0  0  0  0  0  0  0  0  0  0
   36.6370   26.2730   32.3640 C   0  0  0  0  0  0  0  0  0  0  0  0
   35.6090   26.4560   31.4690 C   0  0  0  0  0  0  0  0  0  0  0  0
   35.0120   25.4170   30.8000 C   0  0  0  0  0  0  0  0  0  0  0  0
   35.4390   24.1670   31.0190 N   0  0  0  0  0  0  0  0  0  0  0  0
   36.4480   23.9890   31.8970 C   0  0  0  0  0  0  0  0  0  0  0  0
   37.0420   24.9980   32.5600 N   0  0  0  0  0  0  0  0  0  0  0  0
   35.2160   27.4520   31.2460 H   0  0  0  0  0  0  0  0  0  0  0  0
   34.1890   25.5540   30.0810 H   0  0  0  0  0  0  0  0  0  0  0  0
   36.8200   22.9970   32.1020 H   0  0  0  0  0  0  0  0  0  0  0  0
   38.1850   27.4590   35.1930 O   0  0  0  0  0  0  0  0  0  0  0  0
   40.2370   24.4800   35.0260 C   0  0  0  0  0  0  0  0  0  0  0  0
   39.7030   23.7440   36.0930 C   0  0  0  0  0  0  0  0  0  0  0  0
   38.6590   24.3310   36.8060 C   0  0  0  0  0  0  0  0  0  0  0  0
   38.2300   25.5680   36.4240 N   0  0  0  0  0  0  0  0  0  0  0  0
   38.7690   26.2360   35.3990 C   0  0  0  0  0  0  0  0  0  0  0  0
   39.7760   25.6830   34.7030 N   0  0  0  0  0  0  0  0  0  0  0  0
   41.0480   23.9960   34.4920 H   0  0  0  0  0  0  0  0  0  0  0  0
   40.0660   22.7640   36.3710 H   0  0  0  0  0  0  0  0  0  0  0  0
   38.0170   23.6210   37.9680 C   0  0  0  0  0  0  0  0  0  0  0  0
   39.0490   22.8870   38.5650 F   0  0  0  0  0  0  0  0  0  0  0  0
   37.4930   24.5520   38.8580 F   0  0  0  0  0  0  0  0  0  0  0  0
   37.0300   22.8220   37.4720 F   0  0  0  0  0  0  0  0  0  0  0  0
  1  2  1  0  0  0  0
  1  3  1  0  0  0  0
  1 16  1  0  0  0  0
  4  1  1  0  0  0  0
  5  4  1  0  0  0  0
  6  4  1  0  0  0  0
  7 12  1  0  0  0  0
  7  4  1  0  0  0  0
  8  7  2  0  0  0  0
  9 10  2  0  0  0  0
  9  8  1  0  0  0  0
 10 11  1  0  0  0  0
 11 15  1  0  0  0  0
 11 12  2  0  0  0  0
 13  8  1  0  0  0  0
 14  9  1  0  0  0  0
 16 21  1  0  0  0  0
 17 18  1  0  0  0  0
 18 24  1  0  0  0  0
 18 19  2  0  0  0  0
 19 25  1  0  0  0  0
 20 19  1  0  0  0  0
 21 20  2  0  0  0  0
 22 17  2  0  0  0  0
 22 21  1  0  0  0  0
 23 17  1  0  0  0  0
 25 26  1  0  0  0  0
 25 27  1  0  0  0  0
 28 25  1  0  0  0  0
M  END
>  <minimizedAffinity>
-4.90863609

$$$$

 OpenBabel03272509513D

 28 29  0  0  0  0  0  0  0  0999 V2000
   38.4420   22.8440   33.5170 C   0  0  0  0  0  0  0  0  0  0  0  0
   38.9810   22.1630   32.7970 H   0  0  0  0  0  0  0  0  0  0  0  0
   39.1820   23.5700   33.8700 H   0  0  0  0  0  0  0  0  0  0  0  0
   37.8660   21.9680   34.5950 C   0  0  0  0  0  0  0  0  0  0  0  0
   38.2580   20.9260   34.4680 H   0  0  0  0  0  0  0  0  0  0  0  0
   36.7550   21.8570   34.4450 H   0  0  0  0  0  0  0  0  0  0  0  0
   38.2080   22.4420   35.9570 C   0  0  0  0  0  0  0  0  0  0  0  0
   39.5240   22.3500   36.3440 C   0  0  0  0  0  0  0  0  0  0  0  0
   39.9670   22.7550   37.5770 C   0  0  0  0  0  0  0  0  0  0  0  0
   39.0900   23.2630   38.4520 N   0  0  0  0  0  0  0  0  0  0  0  0
   37.7980   23.3540   38.0720 C   0  0  0  0  0  0  0  0  0  0  0  0
   37.3510   22.9610   36.8640 N   0  0  0  0  0  0  0  0  0  0  0  0
   40.2890   21.9440   35.6750 H   0  0  0  0  0  0  0  0  0  0  0  0
   41.0190   22.6850   37.8960 H   0  0  0  0  0  0  0  0  0  0  0  0
   37.0610   23.7570   38.7470 H   0  0  0  0  0  0  0  0  0  0  0  0
   37.3960   23.4450   32.7720 O   0  0  0  0  0  0  0  0  0  0  0  0
   36.5280   26.9190   32.2320 C   0  0  0  0  0  0  0  0  0  0  0  0
   37.0970   27.5030   33.3720 C   0  0  0  0  0  0  0  0  0  0  0  0
   37.7490   26.6500   34.2610 C   0  0  0  0  0  0  0  0  0  0  0  0
   37.7910   25.3180   33.9670 N   0  0  0  0  0  0  0  0  0  0  0  0
   37.2340   24.8030   32.8660 C   0  0  0  0  0  0  0  0  0  0  0  0
   36.6020   25.6130   32.0010 N   0  0  0  0  0  0  0  0  0  0  0  0
   36.0280   27.6090   31.5610 H   0  0  0  0  0  0  0  0  0  0  0  0
   37.0460   28.5630   33.5780 H   0  0  0  0  0  0  0  0  0  0  0  0
   38.3930   27.1790   35.5150 C   0  0  0  0  0  0  0  0  0  0  0  0
   39.7420   27.3580   35.1880 F   0  0  0  0  0  0  0  0  0  0  0  0
   37.8050   28.3880   35.8730 F   0  0  0  0  0  0  0  0  0  0  0  0
   38.2150   26.2490   36.4960 F   0  0  0  0  0  0  0  0  0  0  0  0
  1  3  1  0  0  0  0
  1  4  1  0  0  0  0
  2  1  1  0  0  0  0
  4  7  1  0  0  0  0
  5  4  1  0  0  0  0
  6  4  1  0  0  0  0
  7  8  2  0  0  0  0
  7 12  1  0  0  0  0
  8  9  1  0  0  0  0
  9 14  1  0  0  0  0
  9 10  2  0  0  0  0
 11 10  1  0  0  0  0
 11 15  1  0  0  0  0
 12 11  2  0  0  0  0
 13  8  1  0  0  0  0
 16 21  1  0  0  0  0
 16  1  1  0  0  0  0
 17 18  1  0  0  0  0
 18 24  1  0  0  0  0
 18 19  2  0  0  0  0
 19 25  1  0  0  0  0
 20 19  1  0  0  0  0
 21 20  2  0  0  0  0
 22 17  2  0  0  0  0
 22 21  1  0  0  0  0
 23 17  1  0  0  0  0
 25 27  1  0  0  0  0
 25 28  1  0  0  0  0
 26 25  1  0  0  0  0
M  END
>  <minimizedAffinity>
-4.87080193

$$$$

 OpenBabel03272509513D

 28 29  0  0  0  0  0  0  0  0999 V2000
   37.0200   27.3460   34.6920 C   0  0  0  0  0  0  0  0  0  0  0  0
   36.2290   26.6170   35.0330 H   0  0  0  0  0  0  0  0  0  0  0  0
   37.0160   28.1680   35.4150 H   0  0  0  0  0  0  0  0  0  0  0  0
   36.6620   27.7500   33.2880 C   0  0  0  0  0  0  0  0  0  0  0  0
   36.1880   26.8790   32.7660 H   0  0  0  0  0  0  0  0  0  0  0  0
   37.6010   27.9410   32.6940 H   0  0  0  0  0  0  0  0  0  0  0  0
   35.7250   28.8980   33.2470 C   0  0  0  0  0  0  0  0  0  0  0  0
   35.6060   29.6550   34.3890 C   0  0  0  0  0  0  0  0  0  0  0  0
   34.7730   30.7410   34.4780 C   0  0  0  0  0  0  0  0  0  0  0  0
   34.0390   31.0900   33.4140 N   0  0  0  0  0  0  0  0  0  0  0  0
   34.1560   30.3460   32.2940 C   0  0  0  0  0  0  0  0  0  0  0  0
   34.9690   29.2780   32.1930 N   0  0  0  0  0  0  0  0  0  0  0  0
   36.1800   29.4220   35.2910 H   0  0  0  0  0  0  0  0  0  0  0  0
   34.6720   31.3530   35.3870 H   0  0  0  0  0  0  0  0  0  0  0  0
   33.5800   30.5940   31.4160 H   0  0  0  0  0  0  0  0  0  0  0  0
   38.2390   26.6220   34.6900 O   0  0  0  0  0  0  0  0  0  0  0  0
   38.1260   23.0040   34.7560 C   0  0  0  0  0  0  0  0  0  0  0  0
   38.1540   22.7740   36.1380 C   0  0  0  0  0  0  0  0  0  0  0  0
   38.2100   23.8950   36.9640 C   0  0  0  0  0  0  0  0  0  0  0  0
   38.2340   25.1280   36.3820 N   0  0  0  0  0  0  0  0  0  0  0  0
   38.2060   25.3020   35.0550 C   0  0  0  0  0  0  0  0  0  0  0  0
   38.1520   24.2300   34.2480 N   0  0  0  0  0  0  0  0  0  0  0  0
   38.0820   22.1110   34.1400 H   0  0  0  0  0  0  0  0  0  0  0  0
   38.1330   21.7830   36.5700 H   0  0  0  0  0  0  0  0  0  0  0  0
   38.2430   23.7540   38.4630 C   0  0  0  0  0  0  0  0  0  0  0  0
   37.9140   25.0220   38.9580 F   0  0  0  0  0  0  0  0  0  0  0  0
   37.3100   22.8060   38.8690 F   0  0  0  0  0  0  0  0  0  0  0  0
   39.5030   23.3700   38.8150 F   0  0  0  0  0  0  0  0  0  0  0  0
  1  2  1  0  0  0  0
  1  3  1  0  0  0  0
  4  1  1  0  0  0  0
  5  4  1  0  0  0  0
  6  4  1  0  0  0  0
  7  4  1  0  0  0  0
  7  8  1  0  0  0  0
  8  9  2  0  0  0  0
  8 13  1  0  0  0  0
  9 14  1  0  0  0  0
 10  9  1  0  0  0  0
 11 10  2  0  0  0  0
 12 11  1  0  0  0  0
 12  7  2  0  0  0  0
 15 11  1  0  0  0  0
 16  1  1  0  0  0  0
 16 21  1  0  0  0  0
 17 18  1  0  0  0  0
 18 24  1  0  0  0  0
 18 19  2  0  0  0  0
 19 25  1  0  0  0  0
 20 19  1  0  0  0  0
 21 20  2  0  0  0  0
 22 17  2  0  0  0  0
 22 21  1  0  0  0  0
 23 17  1  0  0  0  0
 25 28  1  0  0  0  0
 25 27  1  0  0  0  0
 25 26  1  0  0  0  0
M  END
>  <minimizedAffinity>
-4.85608625

$$$$

 OpenBabel03272509513D

 28 29  0  0  0  0  0  0  0  0999 V2000
   37.9420   23.5220   32.0670 C   0  0  0  0  0  0  0  0  0  0  0  0
   38.1780   24.6250   32.0250 H   0  0  0  0  0  0  0  0  0  0  0  0
   38.6480   23.0290   31.3920 H   0  0  0  0  0  0  0  0  0  0  0  0
   36.4980   23.3720   31.6760 C   0  0  0  0  0  0  0  0  0  0  0  0
   36.3480   23.8060   30.6530 H   0  0  0  0  0  0  0  0  0  0  0  0
   35.8530   24.0170   32.3380 H   0  0  0  0  0  0  0  0  0  0  0  0
   36.0560   21.9570   31.6620 C   0  0  0  0  0  0  0  0  0  0  0  0
   36.7640   21.0840   30.8700 C   0  0  0  0  0  0  0  0  0  0  0  0
   36.4550   19.7510   30.7710 C   0  0  0  0  0  0  0  0  0  0  0  0
   35.4220   19.2670   31.4710 N   0  0  0  0  0  0  0  0  0  0  0  0
   34.7270   20.1240   32.2490 C   0  0  0  0  0  0  0  0  0  0  0  0
   35.0200   21.4340   32.3550 N   0  0  0  0  0  0  0  0  0  0  0  0
   37.6190   21.4180   30.2740 H   0  0  0  0  0  0  0  0  0  0  0  0
   37.0160   19.0450   30.1400 H   0  0  0  0  0  0  0  0  0  0  0  0
   33.8880   19.7730   32.8280 H   0  0  0  0  0  0  0  0  0  0  0  0
   38.1180   23.1400   33.4210 O   0  0  0  0  0  0  0  0  0  0  0  0
   38.1670   26.2890   35.2080 C   0  0  0  0  0  0  0  0  0  0  0  0
   38.1860   25.8290   36.5320 C   0  0  0  0  0  0  0  0  0  0  0  0
   38.1810   24.4480   36.7220 C   0  0  0  0  0  0  0  0  0  0  0  0
   38.1580   23.6440   35.6210 N   0  0  0  0  0  0  0  0  0  0  0  0
   38.1400   24.1260   34.3730 C   0  0  0  0  0  0  0  0  0  0  0  0
   38.1450   25.4540   34.1760 N   0  0  0  0  0  0  0  0  0  0  0  0
   38.1720   27.3680   35.0930 H   0  0  0  0  0  0  0  0  0  0  0  0
   38.2040   26.4940   37.3850 H   0  0  0  0  0  0  0  0  0  0  0  0
   38.2010   23.8550   38.1050 C   0  0  0  0  0  0  0  0  0  0  0  0
   39.4840   23.3160   38.2560 F   0  0  0  0  0  0  0  0  0  0  0  0
   37.9670   24.8500   39.0490 F   0  0  0  0  0  0  0  0  0  0  0  0
   37.2270   22.9010   38.1610 F   0  0  0  0  0  0  0  0  0  0  0  0
  1 16  1  0  0  0  0
  2  1  1  0  0  0  0
  3  1  1  0  0  0  0
  4  1  1  0  0  0  0
  4  6  1  0  0  0  0
  5  4  1  0  0  0  0
  7  4  1  0  0  0  0
  7 12  1  0  0  0  0
  8  7  2  0  0  0  0
  9  8  1  0  0  0  0
  9 10  2  0  0  0  0
 10 11  1  0  0  0  0
 11 12  2  0  0  0  0
 11 15  1  0  0  0  0
 13  8  1  0  0  0  0
 14  9  1  0  0  0  0
 16 21  1  0  0  0  0
 17 18  1  0  0  0  0
 18 19  2  0  0  0  0
 18 24  1  0  0  0  0
 19 25  1  0  0  0  0
 20 19  1  0  0  0  0
 21 20  2  0  0  0  0
 22 21  1  0  0  0  0
 22 17  2  0  0  0  0
 23 17  1  0  0  0  0
 25 28  1  0  0  0  0
 25 26  1  0  0  0  0
 25 27  1  0  0  0  0
M  END
>  <minimizedAffinity>
-4.77901602

$$$$

 OpenBabel03272509513D

 28 29  0  0  0  0  0  0  0  0999 V2000
   41.5850   25.8850   34.4720 C   0  0  0  0  0  0  0  0  0  0  0  0
   41.1240   26.1250   35.4740 H   0  0  0  0  0  0  0  0  0  0  0  0
   42.6570   26.0880   34.5680 H   0  0  0  0  0  0  0  0  0  0  0  0
   40.8790   26.7370   33.4540 C   0  0  0  0  0  0  0  0  0  0  0  0
   40.8950   26.2120   32.4630 H   0  0  0  0  0  0  0  0  0  0  0  0
   41.4690   27.6780   33.2670 H   0  0  0  0  0  0  0  0  0  0  0  0
   39.4710   27.0160   33.8230 C   0  0  0  0  0  0  0  0  0  0  0  0
   39.1910   27.1790   35.1580 C   0  0  0  0  0  0  0  0  0  0  0  0
   37.9280   27.4410   35.6270 C   0  0  0  0  0  0  0  0  0  0  0  0
   36.9170   27.5450   34.7560 N   0  0  0  0  0  0  0  0  0  0  0  0
   37.1920   27.3850   33.4450 C   0  0  0  0  0  0  0  0  0  0  0  0
   38.4270   27.1280   32.9720 N   0  0  0  0  0  0  0  0  0  0  0  0
   39.9740   27.1070   35.9200 H   0  0  0  0  0  0  0  0  0  0  0  0
   37.6950   27.5740   36.6950 H   0  0  0  0  0  0  0  0  0  0  0  0
   36.4050   27.4600   32.7110 H   0  0  0  0  0  0  0  0  0  0  0  0
   41.3040   24.5150   34.2350 O   0  0  0  0  0  0  0  0  0  0  0  0
   41.7040   22.0420   36.8490 C   0  0  0  0  0  0  0  0  0  0  0  0
   40.4960   22.2050   37.5400 C   0  0  0  0  0  0  0  0  0  0  0  0
   39.6140   23.1680   37.0520 C   0  0  0  0  0  0  0  0  0  0  0  0
   39.9790   23.8800   35.9480 N   0  0  0  0  0  0  0  0  0  0  0  0
   41.1450   23.6920   35.3190 C   0  0  0  0  0  0  0  0  0  0  0  0
   42.0030   22.7670   35.7780 N   0  0  0  0  0  0  0  0  0  0  0  0
   42.3690   21.2850   37.2530 H   0  0  0  0  0  0  0  0  0  0  0  0
   40.2350   21.6240   38.4140 H   0  0  0  0  0  0  0  0  0  0  0  0
   38.2900   23.4190   37.7230 C   0  0  0  0  0  0  0  0  0  0  0  0
   37.3440   22.7610   36.9280 F   0  0  0  0  0  0  0  0  0  0  0  0
   38.3060   22.8940   39.0110 F   0  0  0  0  0  0  0  0  0  0  0  0
   38.0920   24.7690   37.7570 F   0  0  0  0  0  0  0  0  0  0  0  0
  1  3  1  0  0  0  0
  1  2  1  0  0  0  0
  4  7  1  0  0  0  0
  4  1  1  0  0  0  0
  5  4  1  0  0  0  0
  6  4  1  0  0  0  0
  7  8  1  0  0  0  0
  8  9  2  0  0  0  0
  8 13  1  0  0  0  0
  9 14  1  0  0  0  0
 10  9  1  0  0  0  0
 11 10  2  0  0  0  0
 12 11  1  0  0  0  0
 12  7  2  0  0  0  0
 15 11  1  0  0  0  0
 16  1  1  0  0  0  0
 16 21  1  0  0  0  0
 17 23  1  0  0  0  0
 17 18  1  0  0  0  0
 18 24  1  0  0  0  0
 19 18  2  0  0  0  0
 19 25  1  0  0  0  0
 20 19  1  0  0  0  0
 21 22  1  0  0  0  0
 21 20  2  0  0  0  0
 22 17  2  0  0  0  0
 25 28  1  0  0  0  0
 25 27  1  0  0  0  0
 26 25  1  0  0  0  0
M  END
>  <minimizedAffinity>
-4.66325903

$$$$

 OpenBabel03272509513D

 28 29  0  0  0  0  0  0  0  0999 V2000
   35.3760   30.8020   34.4880 C   0  0  0  0  0  0  0  0  0  0  0  0
   36.1560   30.9940   33.6950 H   0  0  0  0  0  0  0  0  0  0  0  0
   34.4820   31.3550   34.1830 H   0  0  0  0  0  0  0  0  0  0  0  0
   35.9690   31.2480   35.7960 C   0  0  0  0  0  0  0  0  0  0  0  0
   37.0870   31.2600   35.7070 H   0  0  0  0  0  0  0  0  0  0  0  0
   35.7720   30.4730   36.5900 H   0  0  0  0  0  0  0  0  0  0  0  0
   35.5100   32.5990   36.1980 C   0  0  0  0  0  0  0  0  0  0  0  0
   34.5500   32.6710   37.1800 C   0  0  0  0  0  0  0  0  0  0  0  0
   34.0430   33.8600   37.6390 C   0  0  0  0  0  0  0  0  0  0  0  0
   34.4940   35.0070   37.1160 N   0  0  0  0  0  0  0  0  0  0  0  0
   35.4360   34.9360   36.1530 C   0  0  0  0  0  0  0  0  0  0  0  0
   35.9420   33.7760   35.6940 N   0  0  0  0  0  0  0  0  0  0  0  0
   34.1410   31.7690   37.6470 H   0  0  0  0  0  0  0  0  0  0  0  0
   33.2750   33.9280   38.4240 H   0  0  0  0  0  0  0  0  0  0  0  0
   35.8250   35.8370   35.7060 H   0  0  0  0  0  0  0  0  0  0  0  0
   35.1760   29.3980   34.5020 O   0  0  0  0  0  0  0  0  0  0  0  0
   37.3150   27.5420   32.2470 C   0  0  0  0  0  0  0  0  0  0  0  0
   38.1940   26.9470   33.1620 C   0  0  0  0  0  0  0  0  0  0  0  0
   37.9860   27.2280   34.5120 C   0  0  0  0  0  0  0  0  0  0  0  0
   36.9550   28.0540   34.8500 N   0  0  0  0  0  0  0  0  0  0  0  0
   36.1400   28.6020   33.9410 C   0  0  0  0  0  0  0  0  0  0  0  0
   36.3280   28.3390   32.6380 N   0  0  0  0  0  0  0  0  0  0  0  0
   37.5030   27.3030   31.2050 H   0  0  0  0  0  0  0  0  0  0  0  0
   39.0030   26.2950   32.8630 H   0  0  0  0  0  0  0  0  0  0  0  0
   38.8750   26.6370   35.5730 C   0  0  0  0  0  0  0  0  0  0  0  0
   38.7790   25.2510   35.4030 F   0  0  0  0  0  0  0  0  0  0  0  0
   40.1840   27.0700   35.3880 F   0  0  0  0  0  0  0  0  0  0  0  0
   38.4010   27.0460   36.7850 F   0  0  0  0  0  0  0  0  0  0  0  0
  1 16  1  0  0  0  0
  1  4  1  0  0  0  0
  2  1  1  0  0  0  0
  3  1  1  0  0  0  0
  4  7  1  0  0  0  0
  4  6  1  0  0  0  0
  5  4  1  0  0  0  0
  7  8  1  0  0  0  0
  8  9  2  0  0  0  0
  8 13  1  0  0  0  0
  9 14  1  0  0  0  0
 10  9  1  0  0  0  0
 11 10  2  0  0  0  0
 12 11  1  0  0  0  0
 12  7  2  0  0  0  0
 15 11  1  0  0  0  0
 17 22  2  0  0  0  0
 17 18  1  0  0  0  0
 18 19  2  0  0  0  0
 19 20  1  0  0  0  0
 19 25  1  0  0  0  0
 21 16  1  0  0  0  0
 21 20  2  0  0  0  0
 22 21  1  0  0  0  0
 23 17  1  0  0  0  0
 24 18  1  0  0  0  0
 25 28  1  0  0  0  0
 26 25  1  0  0  0  0
 27 25  1  0  0  0  0
M  END
>  <minimizedAffinity>
-4.65408373

$$$$
