
 OpenBabel03272502223D

 21 22  0  0  0  0  0  0  0  0999 V2000
   37.9610   24.9460   34.9490 C   0  0  0  0  0  0  0  0  0  0  0  0
   38.6140   23.9210   34.3040 C   0  0  0  0  0  0  0  0  0  0  0  0
   39.1690   22.8470   34.9770 C   0  0  0  0  0  0  0  0  0  0  0  0
   39.0720   22.7960   36.3230 N   0  0  0  0  0  0  0  0  0  0  0  0
   38.4360   23.7990   36.9380 C   0  0  0  0  0  0  0  0  0  0  0  0
   37.8960   24.8390   36.2920 N   0  0  0  0  0  0  0  0  0  0  0  0
   38.6910   23.9650   33.2240 H   0  0  0  0  0  0  0  0  0  0  0  0
   39.6800   22.0490   34.4460 H   0  0  0  0  0  0  0  0  0  0  0  0
   36.4490   28.2670   34.0040 C   0  0  0  0  0  0  0  0  0  0  0  0
   36.9950   27.2690   34.8210 C   0  0  0  0  0  0  0  0  0  0  0  0
   37.3770   26.0780   34.2240 C   0  0  0  0  0  0  0  0  0  0  0  0
   37.2000   25.9520   32.8940 N   0  0  0  0  0  0  0  0  0  0  0  0
   36.6730   26.9220   32.1160 C   0  0  0  0  0  0  0  0  0  0  0  0
   36.2960   28.0900   32.6910 N   0  0  0  0  0  0  0  0  0  0  0  0
   36.1660   29.1750   34.5110 H   0  0  0  0  0  0  0  0  0  0  0  0
   37.1530   27.3290   35.8900 H   0  0  0  0  0  0  0  0  0  0  0  0
   36.5860   26.6930   31.0620 H   0  0  0  0  0  0  0  0  0  0  0  0
   38.3130   23.7690   38.4210 C   0  0  0  0  0  0  0  0  0  0  0  0
   39.5350   23.3770   38.9470 F   0  0  0  0  0  0  0  0  0  0  0  0
   37.9350   25.0160   38.9170 F   0  0  0  0  0  0  0  0  0  0  0  0
   37.3860   22.8660   38.8410 F   0  0  0  0  0  0  0  0  0  0  0  0
  1  6  1  0  0  0  0
  2  1  2  0  0  0  0
  2  3  1  0  0  0  0
  3  4  2  0  0  0  0
  4  5  1  0  0  0  0
  5 18  1  0  0  0  0
  6  5  2  0  0  0  0
  7  2  1  0  0  0  0
  8  3  1  0  0  0  0
  9 15  1  0  0  0  0
  9 10  1  0  0  0  0
 10 16  1  0  0  0  0
 11 10  2  0  0  0  0
 11  1  1  0  0  0  0
 12 11  1  0  0  0  0
 13 14  1  0  0  0  0
 13 12  2  0  0  0  0
 14  9  2  0  0  0  0
 17 13  1  0  0  0  0
 18 21  1  0  0  0  0
 18 20  1  0  0  0  0
 18 19  1  0  0  0  0
M  END
>  <minimizedAffinity>
-4.95737743

$$$$

 OpenBabel03272502223D

 21 22  0  0  0  0  0  0  0  0999 V2000
   38.4030   24.5230   36.1520 C   0  0  0  0  0  0  0  0  0  0  0  0
   37.7710   24.4920   37.3740 C   0  0  0  0  0  0  0  0  0  0  0  0
   38.2410   23.7470   38.4410 C   0  0  0  0  0  0  0  0  0  0  0  0
   39.3660   23.0170   38.2850 N   0  0  0  0  0  0  0  0  0  0  0  0
   39.9710   23.0550   37.0940 C   0  0  0  0  0  0  0  0  0  0  0  0
   39.5220   23.7740   36.0590 N   0  0  0  0  0  0  0  0  0  0  0  0
   36.8680   25.0780   37.4960 H   0  0  0  0  0  0  0  0  0  0  0  0
   37.7240   23.7380   39.3970 H   0  0  0  0  0  0  0  0  0  0  0  0
   37.0130   27.2680   33.9760 C   0  0  0  0  0  0  0  0  0  0  0  0
   37.4760   26.6320   35.1350 C   0  0  0  0  0  0  0  0  0  0  0  0
   37.8950   25.3150   35.0300 C   0  0  0  0  0  0  0  0  0  0  0  0
   37.8310   24.7260   33.8190 N   0  0  0  0  0  0  0  0  0  0  0  0
   37.3820   25.3500   32.7080 C   0  0  0  0  0  0  0  0  0  0  0  0
   36.9700   26.6380   32.8020 N   0  0  0  0  0  0  0  0  0  0  0  0
   36.6970   28.2910   34.1060 H   0  0  0  0  0  0  0  0  0  0  0  0
   37.5430   27.0680   36.1230 H   0  0  0  0  0  0  0  0  0  0  0  0
   37.3820   24.7630   31.7990 H   0  0  0  0  0  0  0  0  0  0  0  0
   41.2140   22.2610   36.8940 C   0  0  0  0  0  0  0  0  0  0  0  0
   41.3280   21.3650   37.9470 F   0  0  0  0  0  0  0  0  0  0  0  0
   41.1880   21.5890   35.6720 F   0  0  0  0  0  0  0  0  0  0  0  0
   42.3290   23.0390   36.9060 F   0  0  0  0  0  0  0  0  0  0  0  0
  1  2  1  0  0  0  0
  2  7  1  0  0  0  0
  2  3  2  0  0  0  0
  3  8  1  0  0  0  0
  4  3  1  0  0  0  0
  5  4  2  0  0  0  0
  6  1  2  0  0  0  0
  6  5  1  0  0  0  0
  9 15  1  0  0  0  0
  9 10  1  0  0  0  0
 10 16  1  0  0  0  0
 11 10  2  0  0  0  0
 11  1  1  0  0  0  0
 12 11  1  0  0  0  0
 13 14  1  0  0  0  0
 13 12  2  0  0  0  0
 14  9  2  0  0  0  0
 17 13  1  0  0  0  0
 18 21  1  0  0  0  0
 18  5  1  0  0  0  0
 18 19  1  0  0  0  0
 20 18  1  0  0  0  0
M  END
>  <minimizedAffinity>
-4.66281462

$$$$

 OpenBabel03272502223D

 21 22  0  0  0  0  0  0  0  0999 V2000
   37.8260   22.5670   34.5340 C   0  0  0  0  0  0  0  0  0  0  0  0
   38.1220   23.4240   33.4990 C   0  0  0  0  0  0  0  0  0  0  0  0
   37.6130   23.2600   32.2230 C   0  0  0  0  0  0  0  0  0  0  0  0
   36.7910   22.2170   31.9740 N   0  0  0  0  0  0  0  0  0  0  0  0
   36.5120   21.3920   32.9880 C   0  0  0  0  0  0  0  0  0  0  0  0
   37.0000   21.5460   34.2240 N   0  0  0  0  0  0  0  0  0  0  0  0
   38.7820   24.2590   33.7010 H   0  0  0  0  0  0  0  0  0  0  0  0
   37.8610   23.9490   31.4210 H   0  0  0  0  0  0  0  0  0  0  0  0
   40.0450   22.6280   37.5800 C   0  0  0  0  0  0  0  0  0  0  0  0
   39.6570   22.3920   36.2550 C   0  0  0  0  0  0  0  0  0  0  0  0
   38.3720   22.7520   35.8810 C   0  0  0  0  0  0  0  0  0  0  0  0
   37.5730   23.3050   36.8150 N   0  0  0  0  0  0  0  0  0  0  0  0
   37.9590   23.5280   38.0900 C   0  0  0  0  0  0  0  0  0  0  0  0
   39.2140   23.1790   38.4650 N   0  0  0  0  0  0  0  0  0  0  0  0
   41.0520   22.3310   37.8250 H   0  0  0  0  0  0  0  0  0  0  0  0
   40.2650   21.9510   35.4770 H   0  0  0  0  0  0  0  0  0  0  0  0
   37.2200   23.9790   38.7400 H   0  0  0  0  0  0  0  0  0  0  0  0
   35.6080   20.2350   32.7430 C   0  0  0  0  0  0  0  0  0  0  0  0
   36.1480   19.4750   31.7160 F   0  0  0  0  0  0  0  0  0  0  0  0
   35.4520   19.4690   33.8980 F   0  0  0  0  0  0  0  0  0  0  0  0
   34.3680   20.6270   32.3440 F   0  0  0  0  0  0  0  0  0  0  0  0
  1 11  1  0  0  0  0
  2  7  1  0  0  0  0
  2  1  2  0  0  0  0
  3  2  1  0  0  0  0
  4  3  2  0  0  0  0
  4  5  1  0  0  0  0
  5  6  2  0  0  0  0
  6  1  1  0  0  0  0
  8  3  1  0  0  0  0
  9 15  1  0  0  0  0
  9 14  1  0  0  0  0
 10  9  2  0  0  0  0
 11 10  1  0  0  0  0
 11 12  2  0  0  0  0
 12 13  1  0  0  0  0
 13 14  2  0  0  0  0
 13 17  1  0  0  0  0
 16 10  1  0  0  0  0
 18  5  1  0  0  0  0
 18 20  1  0  0  0  0
 19 18  1  0  0  0  0
 21 18  1  0  0  0  0
M  END
>  <minimizedAffinity>
-4.62143373

$$$$

 OpenBabel03272502223D

 21 22  0  0  0  0  0  0  0  0999 V2000
   37.8500   22.7730   34.6110 C   0  0  0  0  0  0  0  0  0  0  0  0
   38.3430   23.9230   34.0390 C   0  0  0  0  0  0  0  0  0  0  0  0
   38.8020   24.9920   34.7870 C   0  0  0  0  0  0  0  0  0  0  0  0
   38.7680   24.9130   36.1340 N   0  0  0  0  0  0  0  0  0  0  0  0
   38.2860   23.7900   36.6780 C   0  0  0  0  0  0  0  0  0  0  0  0
   37.8420   22.7530   35.9600 N   0  0  0  0  0  0  0  0  0  0  0  0
   38.3690   23.9850   32.9580 H   0  0  0  0  0  0  0  0  0  0  0  0
   39.1870   25.8920   34.3130 H   0  0  0  0  0  0  0  0  0  0  0  0
   37.4770   20.0210   32.0620 C   0  0  0  0  0  0  0  0  0  0  0  0
   38.0610   21.0980   32.7420 C   0  0  0  0  0  0  0  0  0  0  0  0
   37.3660   21.6470   33.8070 C   0  0  0  0  0  0  0  0  0  0  0  0
   36.1700   21.1130   34.1240 N   0  0  0  0  0  0  0  0  0  0  0  0
   35.6160   20.0750   33.4610 C   0  0  0  0  0  0  0  0  0  0  0  0
   36.2890   19.5310   32.4180 N   0  0  0  0  0  0  0  0  0  0  0  0
   38.0530   19.6270   31.2400 H   0  0  0  0  0  0  0  0  0  0  0  0
   39.0160   21.5550   32.5190 H   0  0  0  0  0  0  0  0  0  0  0  0
   34.6500   19.7420   33.8180 H   0  0  0  0  0  0  0  0  0  0  0  0
   38.2370   23.6740   38.1610 C   0  0  0  0  0  0  0  0  0  0  0  0
   37.2350   22.7720   38.4900 F   0  0  0  0  0  0  0  0  0  0  0  0
   39.4660   23.2590   38.6710 F   0  0  0  0  0  0  0  0  0  0  0  0
   37.9270   24.8560   38.7590 F   0  0  0  0  0  0  0  0  0  0  0  0
  1  6  1  0  0  0  0
  2  1  2  0  0  0  0
  2  3  1  0  0  0  0
  3  4  2  0  0  0  0
  4  5  1  0  0  0  0
  5 18  1  0  0  0  0
  6  5  2  0  0  0  0
  7  2  1  0  0  0  0
  8  3  1  0  0  0  0
  9 14  2  0  0  0  0
  9 10  1  0  0  0  0
 10 11  2  0  0  0  0
 11 12  1  0  0  0  0
 11  1  1  0  0  0  0
 13 17  1  0  0  0  0
 13 12  2  0  0  0  0
 14 13  1  0  0  0  0
 15  9  1  0  0  0  0
 16 10  1  0  0  0  0
 18 19  1  0  0  0  0
 18 20  1  0  0  0  0
 18 21  1  0  0  0  0
M  END
>  <minimizedAffinity>
-4.57240582

$$$$

 OpenBabel03272502223D

 21 22  0  0  0  0  0  0  0  0999 V2000
   38.0680   22.2810   35.8260 C   0  0  0  0  0  0  0  0  0  0  0  0
   37.5700   23.0250   36.8710 C   0  0  0  0  0  0  0  0  0  0  0  0
   38.3420   23.3990   37.9570 C   0  0  0  0  0  0  0  0  0  0  0  0
   39.6380   23.0230   38.0010 N   0  0  0  0  0  0  0  0  0  0  0  0
   40.1090   22.3000   36.9790 C   0  0  0  0  0  0  0  0  0  0  0  0
   39.3680   21.9360   35.9270 N   0  0  0  0  0  0  0  0  0  0  0  0
   36.5300   23.3250   36.8340 H   0  0  0  0  0  0  0  0  0  0  0  0
   37.9270   23.9870   38.7710 H   0  0  0  0  0  0  0  0  0  0  0  0
   35.5010   20.6870   33.5720 C   0  0  0  0  0  0  0  0  0  0  0  0
   36.2110   20.9640   34.7480 C   0  0  0  0  0  0  0  0  0  0  0  0
   37.2390   21.8900   34.6820 C   0  0  0  0  0  0  0  0  0  0  0  0
   37.4960   22.4680   33.4920 N   0  0  0  0  0  0  0  0  0  0  0  0
   36.8040   22.1920   32.3640 C   0  0  0  0  0  0  0  0  0  0  0  0
   35.7960   21.2880   32.4190 N   0  0  0  0  0  0  0  0  0  0  0  0
   34.7110   19.9610   33.6710 H   0  0  0  0  0  0  0  0  0  0  0  0
   36.0380   20.5240   35.7210 H   0  0  0  0  0  0  0  0  0  0  0  0
   37.1120   22.7260   31.4740 H   0  0  0  0  0  0  0  0  0  0  0  0
   41.5350   21.8720   37.0000 C   0  0  0  0  0  0  0  0  0  0  0  0
   41.7810   21.1380   35.8490 F   0  0  0  0  0  0  0  0  0  0  0  0
   42.3870   22.9730   37.0780 F   0  0  0  0  0  0  0  0  0  0  0  0
   41.8140   21.0650   38.0590 F   0  0  0  0  0  0  0  0  0  0  0  0
  1  6  2  0  0  0  0
  1  2  1  0  0  0  0
  2  3  2  0  0  0  0
  3  4  1  0  0  0  0
  3  8  1  0  0  0  0
  5 18  1  0  0  0  0
  5  4  2  0  0  0  0
  6  5  1  0  0  0  0
  7  2  1  0  0  0  0
  9 15  1  0  0  0  0
  9 10  1  0  0  0  0
 10 16  1  0  0  0  0
 11 10  2  0  0  0  0
 11  1  1  0  0  0  0
 12 11  1  0  0  0  0
 13 14  1  0  0  0  0
 13 12  2  0  0  0  0
 14  9  2  0  0  0  0
 17 13  1  0  0  0  0
 18 20  1  0  0  0  0
 18 21  1  0  0  0  0
 19 18  1  0  0  0  0
M  END
>  <minimizedAffinity>
-4.53840017

$$$$

 OpenBabel03272502223D

 21 22  0  0  0  0  0  0  0  0999 V2000
   39.1000   24.4490   34.8040 C   0  0  0  0  0  0  0  0  0  0  0  0
   38.5070   23.3710   34.1890 C   0  0  0  0  0  0  0  0  0  0  0  0
   37.8360   22.3850   34.8920 C   0  0  0  0  0  0  0  0  0  0  0  0
   37.7560   22.4780   36.2370 N   0  0  0  0  0  0  0  0  0  0  0  0
   38.3360   23.5310   36.8220 C   0  0  0  0  0  0  0  0  0  0  0  0
   38.9850   24.4870   36.1470 N   0  0  0  0  0  0  0  0  0  0  0  0
   38.5730   23.2980   33.1110 H   0  0  0  0  0  0  0  0  0  0  0  0
   37.3750   21.5410   34.3850 H   0  0  0  0  0  0  0  0  0  0  0  0
   41.3710   27.2650   33.7470 C   0  0  0  0  0  0  0  0  0  0  0  0
   40.7760   26.3160   34.5880 C   0  0  0  0  0  0  0  0  0  0  0  0
   39.8070   25.4860   34.0480 C   0  0  0  0  0  0  0  0  0  0  0  0
   39.4940   25.6430   32.7460 N   0  0  0  0  0  0  0  0  0  0  0  0
   40.0750   26.5620   31.9450 C   0  0  0  0  0  0  0  0  0  0  0  0
   41.0240   27.3780   32.4640 N   0  0  0  0  0  0  0  0  0  0  0  0
   42.1190   27.8890   34.2100 H   0  0  0  0  0  0  0  0  0  0  0  0
   40.9980   26.1590   35.6350 H   0  0  0  0  0  0  0  0  0  0  0  0
   39.7320   26.5830   30.9180 H   0  0  0  0  0  0  0  0  0  0  0  0
   38.2630   23.6600   38.3030 C   0  0  0  0  0  0  0  0  0  0  0  0
   39.4950   23.2970   38.8290 F   0  0  0  0  0  0  0  0  0  0  0  0
   37.9280   24.9610   38.6760 F   0  0  0  0  0  0  0  0  0  0  0  0
   37.3330   22.8290   38.8460 F   0  0  0  0  0  0  0  0  0  0  0  0
  1  6  1  0  0  0  0
  2  1  2  0  0  0  0
  2  3  1  0  0  0  0
  3  4  2  0  0  0  0
  4  5  1  0  0  0  0
  5 18  1  0  0  0  0
  6  5  2  0  0  0  0
  7  2  1  0  0  0  0
  8  3  1  0  0  0  0
  9 15  1  0  0  0  0
  9 10  1  0  0  0  0
 10 16  1  0  0  0  0
 11 10  2  0  0  0  0
 11  1  1  0  0  0  0
 12 11  1  0  0  0  0
 13 14  1  0  0  0  0
 13 12  2  0  0  0  0
 14  9  2  0  0  0  0
 17 13  1  0  0  0  0
 18 20  1  0  0  0  0
 18 19  1  0  0  0  0
 18 21  1  0  0  0  0
M  END
>  <minimizedAffinity>
-4.49915648

$$$$

 OpenBabel03272502223D

 21 22  0  0  0  0  0  0  0  0999 V2000
   37.8210   25.6270   34.9780 C   0  0  0  0  0  0  0  0  0  0  0  0
   37.5660   26.9330   35.3250 C   0  0  0  0  0  0  0  0  0  0  0  0
   36.9780   27.8370   34.4570 C   0  0  0  0  0  0  0  0  0  0  0  0
   36.6380   27.4280   33.2160 N   0  0  0  0  0  0  0  0  0  0  0  0
   36.8920   26.1560   32.8910 C   0  0  0  0  0  0  0  0  0  0  0  0
   37.4590   25.2780   33.7260 N   0  0  0  0  0  0  0  0  0  0  0  0
   37.8400   27.2600   36.3210 H   0  0  0  0  0  0  0  0  0  0  0  0
   36.7860   28.8650   34.7540 H   0  0  0  0  0  0  0  0  0  0  0  0
   40.0590   23.0610   36.5960 C   0  0  0  0  0  0  0  0  0  0  0  0
   39.5700   23.9280   35.6100 C   0  0  0  0  0  0  0  0  0  0  0  0
   38.4440   24.6800   35.9060 C   0  0  0  0  0  0  0  0  0  0  0  0
   37.8860   24.5300   37.1240 N   0  0  0  0  0  0  0  0  0  0  0  0
   38.3660   23.6900   38.0670 C   0  0  0  0  0  0  0  0  0  0  0  0
   39.4670   22.9510   37.7860 N   0  0  0  0  0  0  0  0  0  0  0  0
   40.9350   22.4970   36.3210 H   0  0  0  0  0  0  0  0  0  0  0  0
   39.9870   24.0770   34.6230 H   0  0  0  0  0  0  0  0  0  0  0  0
   37.8240   23.6650   39.0030 H   0  0  0  0  0  0  0  0  0  0  0  0
   36.5270   25.6760   31.5300 C   0  0  0  0  0  0  0  0  0  0  0  0
   37.6980   25.3860   30.8460 F   0  0  0  0  0  0  0  0  0  0  0  0
   35.7020   24.5540   31.5990 F   0  0  0  0  0  0  0  0  0  0  0  0
   35.8660   26.6230   30.8120 F   0  0  0  0  0  0  0  0  0  0  0  0
  1  2  1  0  0  0  0
  1 11  1  0  0  0  0
  2  7  1  0  0  0  0
  3  8  1  0  0  0  0
  3  2  2  0  0  0  0
  4  3  1  0  0  0  0
  5  4  2  0  0  0  0
  5  6  1  0  0  0  0
  6  1  2  0  0  0  0
  9 14  1  0  0  0  0
 10 11  1  0  0  0  0
 10  9  2  0  0  0  0
 11 12  2  0  0  0  0
 12 13  1  0  0  0  0
 13 17  1  0  0  0  0
 14 13  2  0  0  0  0
 15  9  1  0  0  0  0
 16 10  1  0  0  0  0
 18 20  1  0  0  0  0
 18  5  1  0  0  0  0
 19 18  1  0  0  0  0
 21 18  1  0  0  0  0
M  END
>  <minimizedAffinity>
-4.35999489

$$$$

 OpenBabel03272502223D

 21 22  0  0  0  0  0  0  0  0999 V2000
   38.0290   24.3640   34.7210 C   0  0  0  0  0  0  0  0  0  0  0  0
   37.9560   23.4930   33.6590 C   0  0  0  0  0  0  0  0  0  0  0  0
   37.5370   23.8830   32.3990 C   0  0  0  0  0  0  0  0  0  0  0  0
   37.1820   25.1700   32.1960 N   0  0  0  0  0  0  0  0  0  0  0  0
   37.2570   26.0060   33.2360 C   0  0  0  0  0  0  0  0  0  0  0  0
   37.6620   25.6350   34.4560 N   0  0  0  0  0  0  0  0  0  0  0  0
   38.2410   22.4610   33.8250 H   0  0  0  0  0  0  0  0  0  0  0  0
   37.4870   23.1770   31.5750 H   0  0  0  0  0  0  0  0  0  0  0  0
   39.9100   22.8340   37.6080 C   0  0  0  0  0  0  0  0  0  0  0  0
   39.6030   23.1670   36.2820 C   0  0  0  0  0  0  0  0  0  0  0  0
   38.4750   23.9380   36.0510 C   0  0  0  0  0  0  0  0  0  0  0  0
   37.7410   24.3210   37.1150 N   0  0  0  0  0  0  0  0  0  0  0  0
   38.0470   23.9930   38.3890 C   0  0  0  0  0  0  0  0  0  0  0  0
   39.1480   23.2390   38.6250 N   0  0  0  0  0  0  0  0  0  0  0  0
   40.7940   22.2330   37.7390 H   0  0  0  0  0  0  0  0  0  0  0  0
   40.1630   22.8810   35.4020 H   0  0  0  0  0  0  0  0  0  0  0  0
   37.3740   24.3650   39.1510 H   0  0  0  0  0  0  0  0  0  0  0  0
   36.8730   27.4310   33.0410 C   0  0  0  0  0  0  0  0  0  0  0  0
   35.7460   27.4670   32.2330 F   0  0  0  0  0  0  0  0  0  0  0  0
   36.6270   28.0550   34.2640 F   0  0  0  0  0  0  0  0  0  0  0  0
   37.8450   28.1430   32.4090 F   0  0  0  0  0  0  0  0  0  0  0  0
  1 11  1  0  0  0  0
  2  7  1  0  0  0  0
  2  1  2  0  0  0  0
  3  2  1  0  0  0  0
  4  3  2  0  0  0  0
  4  5  1  0  0  0  0
  5  6  2  0  0  0  0
  6  1  1  0  0  0  0
  8  3  1  0  0  0  0
  9 15  1  0  0  0  0
  9 14  1  0  0  0  0
 10  9  2  0  0  0  0
 11 10  1  0  0  0  0
 11 12  2  0  0  0  0
 12 13  1  0  0  0  0
 13 14  2  0  0  0  0
 13 17  1  0  0  0  0
 16 10  1  0  0  0  0
 18  5  1  0  0  0  0
 18 20  1  0  0  0  0
 19 18  1  0  0  0  0
 21 18  1  0  0  0  0
M  END
>  <minimizedAffinity>
-4.34858751

$$$$

 OpenBabel03272502223D

 21 22  0  0  0  0  0  0  0  0999 V2000
   39.8210   23.3640   36.2050 C   0  0  0  0  0  0  0  0  0  0  0  0
   38.6110   23.1510   36.8240 C   0  0  0  0  0  0  0  0  0  0  0  0
   37.6130   24.1090   36.8670 C   0  0  0  0  0  0  0  0  0  0  0  0
   37.8280   25.3060   36.2800 N   0  0  0  0  0  0  0  0  0  0  0  0
   39.0080   25.5010   35.6820 C   0  0  0  0  0  0  0  0  0  0  0  0
   39.9750   24.5780   35.6370 N   0  0  0  0  0  0  0  0  0  0  0  0
   38.4410   22.1910   37.2950 H   0  0  0  0  0  0  0  0  0  0  0  0
   36.6650   23.9180   37.3620 H   0  0  0  0  0  0  0  0  0  0  0  0
   42.3640   20.7310   37.1010 C   0  0  0  0  0  0  0  0  0  0  0  0
   41.3590   21.6890   37.2870 C   0  0  0  0  0  0  0  0  0  0  0  0
   40.8690   22.3410   36.1670 C   0  0  0  0  0  0  0  0  0  0  0  0
   41.3900   22.0160   34.9670 N   0  0  0  0  0  0  0  0  0  0  0  0
   42.3590   21.0910   34.8000 C   0  0  0  0  0  0  0  0  0  0  0  0
   42.8440   20.4470   35.8900 N   0  0  0  0  0  0  0  0  0  0  0  0
   42.7150   20.2500   38.0000 H   0  0  0  0  0  0  0  0  0  0  0  0
   40.9160   21.9790   38.2300 H   0  0  0  0  0  0  0  0  0  0  0  0
   42.6890   20.9240   33.7830 H   0  0  0  0  0  0  0  0  0  0  0  0
   39.2730   26.8100   35.0250 C   0  0  0  0  0  0  0  0  0  0  0  0
   38.7620   26.7580   33.7370 F   0  0  0  0  0  0  0  0  0  0  0  0
   38.6970   27.8570   35.7450 F   0  0  0  0  0  0  0  0  0  0  0  0
   40.6030   27.0720   34.9200 F   0  0  0  0  0  0  0  0  0  0  0  0
  1  2  1  0  0  0  0
  2  3  2  0  0  0  0
  2  7  1  0  0  0  0
  3  8  1  0  0  0  0
  4  3  1  0  0  0  0
  5  4  2  0  0  0  0
  6  5  1  0  0  0  0
  6  1  2  0  0  0  0
  9 10  1  0  0  0  0
  9 15  1  0  0  0  0
 10 16  1  0  0  0  0
 11  1  1  0  0  0  0
 11 10  2  0  0  0  0
 12 11  1  0  0  0  0
 13 12  2  0  0  0  0
 13 14  1  0  0  0  0
 14  9  2  0  0  0  0
 17 13  1  0  0  0  0
 18  5  1  0  0  0  0
 18 20  1  0  0  0  0
 19 18  1  0  0  0  0
 21 18  1  0  0  0  0
M  END
>  <minimizedAffinity>
-4.27483606

$$$$
