
 OpenBabel03272510223D

 31 33  0  0  0  0  0  0  0  0999 V2000
   36.0300   29.7570   31.5150 Br  0  0  0  0  0  0  0  0  0  0  0  0
   36.6650   28.3260   32.6040 C   0  0  0  0  0  0  0  0  0  0  0  0
   36.3850   28.2860   33.9760 C   0  0  0  0  0  0  0  0  0  0  0  0
   36.8840   27.2190   34.6720 C   0  0  0  0  0  0  0  0  0  0  0  0
   37.6310   26.2060   34.1050 C   0  0  0  0  0  0  0  0  0  0  0  0
   37.8850   26.2750   32.7700 C   0  0  0  0  0  0  0  0  0  0  0  0
   37.4000   27.3330   32.0320 C   0  0  0  0  0  0  0  0  0  0  0  0
   36.6640   27.1910   35.7430 H   0  0  0  0  0  0  0  0  0  0  0  0
   38.4660   25.4980   32.3040 H   0  0  0  0  0  0  0  0  0  0  0  0
   37.6360   27.3310   30.9780 H   0  0  0  0  0  0  0  0  0  0  0  0
   35.6050   31.3080   35.8430 C   0  0  0  0  0  0  0  0  0  0  0  0
   34.1810   31.3530   35.8100 C   0  0  0  0  0  0  0  0  0  0  0  0
   33.5150   30.3360   35.1400 C   0  0  0  0  0  0  0  0  0  0  0  0
   34.2590   29.3500   34.5530 N   0  0  0  0  0  0  0  0  0  0  0  0
   35.6050   29.3300   34.5980 C   0  0  0  0  0  0  0  0  0  0  0  0
   36.2720   30.3160   35.2470 N   0  0  0  0  0  0  0  0  0  0  0  0
   36.1600   32.0640   36.3440 H   0  0  0  0  0  0  0  0  0  0  0  0
   33.6980   32.1720   36.3040 H   0  0  0  0  0  0  0  0  0  0  0  0
   32.4340   30.3520   35.1040 H   0  0  0  0  0  0  0  0  0  0  0  0
   38.1540   25.0790   34.8660 C   0  0  0  0  0  0  0  0  0  0  0  0
   38.8290   24.0140   34.3350 C   0  0  0  0  0  0  0  0  0  0  0  0
   39.3150   22.9560   35.0810 C   0  0  0  0  0  0  0  0  0  0  0  0
   39.1130   22.9720   36.4080 N   0  0  0  0  0  0  0  0  0  0  0  0
   38.4550   23.9980   36.9610 C   0  0  0  0  0  0  0  0  0  0  0  0
   37.9990   25.0050   36.2080 N   0  0  0  0  0  0  0  0  0  0  0  0
   38.9940   24.0040   33.2500 H   0  0  0  0  0  0  0  0  0  0  0  0
   39.8400   22.1530   34.5800 H   0  0  0  0  0  0  0  0  0  0  0  0
   38.2140   24.0440   38.4310 C   0  0  0  0  0  0  0  0  0  0  0  0
   37.8790   25.2970   38.8600 F   0  0  0  0  0  0  0  0  0  0  0  0
   39.3620   23.5760   39.0520 F   0  0  0  0  0  0  0  0  0  0  0  0
   37.2160   23.1380   38.7510 F   0  0  0  0  0  0  0  0  0  0  0  0
  1  2  1  0  0  0  0
  2  3  1  0  0  0  0
  3 15  1  0  0  0  0
  3  4  2  0  0  0  0
  4  8  1  0  0  0  0
  5  4  1  0  0  0  0
  5 20  1  0  0  0  0
  6  5  2  0  0  0  0
  7  2  2  0  0  0  0
  7  6  1  0  0  0  0
  9  6  1  0  0  0  0
 10  7  1  0  0  0  0
 11 17  1  0  0  0  0
 12 11  1  0  0  0  0
 12 18  1  0  0  0  0
 13 12  2  0  0  0  0
 14 15  2  0  0  0  0
 14 13  1  0  0  0  0
 15 16  1  0  0  0  0
 16 11  2  0  0  0  0
 19 13  1  0  0  0  0
 20 25  1  0  0  0  0
 21 20  2  0  0  0  0
 21 22  1  0  0  0  0
 22 23  2  0  0  0  0
 23 24  1  0  0  0  0
 24 28  1  0  0  0  0
 25 24  2  0  0  0  0
 26 21  1  0  0  0  0
 27 22  1  0  0  0  0
 28 31  1  0  0  0  0
 28 29  1  0  0  0  0
 28 30  1  0  0  0  0
M  END
>  <minimizedAffinity>
-6.33685255

$$$$

 OpenBabel03272510223D

 31 33  0  0  0  0  0  0  0  0999 V2000
   34.8680   31.8110   32.2530 Br  0  0  0  0  0  0  0  0  0  0  0  0
   35.6320   30.1400   32.7610 C   0  0  0  0  0  0  0  0  0  0  0  0
   35.5610   29.6880   34.0860 C   0  0  0  0  0  0  0  0  0  0  0  0
   36.1380   28.4770   34.3520 C   0  0  0  0  0  0  0  0  0  0  0  0
   36.7710   27.6960   33.4050 C   0  0  0  0  0  0  0  0  0  0  0  0
   36.8220   28.1640   32.1280 C   0  0  0  0  0  0  0  0  0  0  0  0
   36.2520   29.3800   31.8190 C   0  0  0  0  0  0  0  0  0  0  0  0
   36.0810   28.1270   35.3870 H   0  0  0  0  0  0  0  0  0  0  0  0
   37.3100   27.5740   31.3710 H   0  0  0  0  0  0  0  0  0  0  0  0
   36.3270   29.6950   30.7880 H   0  0  0  0  0  0  0  0  0  0  0  0
   35.1180   32.0870   36.7840 C   0  0  0  0  0  0  0  0  0  0  0  0
   33.7200   32.0230   37.0500 C   0  0  0  0  0  0  0  0  0  0  0  0
   32.9530   31.1500   36.2900 C   0  0  0  0  0  0  0  0  0  0  0  0
   33.5810   30.4030   35.3320 N   0  0  0  0  0  0  0  0  0  0  0  0
   34.9050   30.4810   35.0990 C   0  0  0  0  0  0  0  0  0  0  0  0
   35.6680   31.3280   35.8310 N   0  0  0  0  0  0  0  0  0  0  0  0
   35.7470   32.7400   37.3400 H   0  0  0  0  0  0  0  0  0  0  0  0
   33.3320   32.6540   37.8250 H   0  0  0  0  0  0  0  0  0  0  0  0
   31.8900   31.0870   36.4770 H   0  0  0  0  0  0  0  0  0  0  0  0
   37.3800   26.4090   33.7110 C   0  0  0  0  0  0  0  0  0  0  0  0
   37.8440   25.5150   32.7840 C   0  0  0  0  0  0  0  0  0  0  0  0
   38.4180   24.2980   33.1020 C   0  0  0  0  0  0  0  0  0  0  0  0
   38.5280   23.9700   34.3990 N   0  0  0  0  0  0  0  0  0  0  0  0
   38.0830   24.8190   35.3330 C   0  0  0  0  0  0  0  0  0  0  0  0
   37.5330   25.9890   34.9880 N   0  0  0  0  0  0  0  0  0  0  0  0
   37.7540   25.7870   31.7240 H   0  0  0  0  0  0  0  0  0  0  0  0
   38.7600   23.6510   32.3040 H   0  0  0  0  0  0  0  0  0  0  0  0
   38.1900   24.4840   36.7800 C   0  0  0  0  0  0  0  0  0  0  0  0
   39.3230   23.7760   37.0650 F   0  0  0  0  0  0  0  0  0  0  0  0
   37.0440   23.7840   37.1280 F   0  0  0  0  0  0  0  0  0  0  0  0
   38.1520   25.6570   37.5170 F   0  0  0  0  0  0  0  0  0  0  0  0
  1  2  1  0  0  0  0
  2  3  1  0  0  0  0
  3  4  2  0  0  0  0
  3 15  1  0  0  0  0
  4  8  1  0  0  0  0
  5 20  1  0  0  0  0
  5  4  1  0  0  0  0
  6  5  2  0  0  0  0
  7  6  1  0  0  0  0
  7  2  2  0  0  0  0
  9  6  1  0  0  0  0
 10  7  1  0  0  0  0
 11 12  1  0  0  0  0
 11 17  1  0  0  0  0
 12 18  1  0  0  0  0
 13 19  1  0  0  0  0
 13 12  2  0  0  0  0
 14 13  1  0  0  0  0
 15 14  2  0  0  0  0
 15 16  1  0  0  0  0
 16 11  2  0  0  0  0
 20 25  1  0  0  0  0
 21 22  1  0  0  0  0
 21 20  2  0  0  0  0
 22 23  2  0  0  0  0
 23 24  1  0  0  0  0
 24 28  1  0  0  0  0
 25 24  2  0  0  0  0
 26 21  1  0  0  0  0
 27 22  1  0  0  0  0
 28 29  1  0  0  0  0
 28 30  1  0  0  0  0
 28 31  1  0  0  0  0
M  END
>  <minimizedAffinity>
-5.96502638

$$$$

 OpenBabel03272510223D

 31 33  0  0  0  0  0  0  0  0999 V2000
   37.2890   28.7310   29.5260 Br  0  0  0  0  0  0  0  0  0  0  0  0
   36.5570   29.3250   31.1830 C   0  0  0  0  0  0  0  0  0  0  0  0
   36.1350   28.4090   32.1550 C   0  0  0  0  0  0  0  0  0  0  0  0
   35.6250   28.9320   33.3110 C   0  0  0  0  0  0  0  0  0  0  0  0
   35.5070   30.2850   33.5620 C   0  0  0  0  0  0  0  0  0  0  0  0
   35.9270   31.1480   32.5980 C   0  0  0  0  0  0  0  0  0  0  0  0
   36.4480   30.6610   31.4190 C   0  0  0  0  0  0  0  0  0  0  0  0
   35.2960   28.2130   34.0670 H   0  0  0  0  0  0  0  0  0  0  0  0
   35.8450   32.2070   32.7700 H   0  0  0  0  0  0  0  0  0  0  0  0
   36.7620   31.3980   30.6940 H   0  0  0  0  0  0  0  0  0  0  0  0
   37.4900   25.0340   32.2310 C   0  0  0  0  0  0  0  0  0  0  0  0
   36.5200   24.2760   31.5140 C   0  0  0  0  0  0  0  0  0  0  0  0
   35.4110   24.9480   31.0160 C   0  0  0  0  0  0  0  0  0  0  0  0
   35.3140   26.2930   31.2400 N   0  0  0  0  0  0  0  0  0  0  0  0
   36.2450   26.9870   31.9220 C   0  0  0  0  0  0  0  0  0  0  0  0
   37.3330   26.3480   32.4160 N   0  0  0  0  0  0  0  0  0  0  0  0
   38.3570   24.5640   32.6330 H   0  0  0  0  0  0  0  0  0  0  0  0
   36.6960   23.2260   31.3970 H   0  0  0  0  0  0  0  0  0  0  0  0
   34.6630   24.3910   30.4680 H   0  0  0  0  0  0  0  0  0  0  0  0
   34.9600   30.8190   34.8020 C   0  0  0  0  0  0  0  0  0  0  0  0
   35.6040   31.6920   35.6370 C   0  0  0  0  0  0  0  0  0  0  0  0
   35.0620   32.1840   36.8090 C   0  0  0  0  0  0  0  0  0  0  0  0
   33.8260   31.7850   37.1520 N   0  0  0  0  0  0  0  0  0  0  0  0
   33.1670   30.9320   36.3590 C   0  0  0  0  0  0  0  0  0  0  0  0
   33.7240   30.4760   35.2310 N   0  0  0  0  0  0  0  0  0  0  0  0
   36.6140   32.0170   35.3540 H   0  0  0  0  0  0  0  0  0  0  0  0
   35.6410   32.8720   37.4120 H   0  0  0  0  0  0  0  0  0  0  0  0
   31.7960   30.4700   36.7110 C   0  0  0  0  0  0  0  0  0  0  0  0
   30.9560   31.5090   36.9940 F   0  0  0  0  0  0  0  0  0  0  0  0
   31.9170   29.5980   37.7830 F   0  0  0  0  0  0  0  0  0  0  0  0
   31.2940   29.7120   35.6640 F   0  0  0  0  0  0  0  0  0  0  0  0
  1  2  1  0  0  0  0
  2  7  2  0  0  0  0
  2  3  1  0  0  0  0
  3  4  2  0  0  0  0
  4  5  1  0  0  0  0
  4  8  1  0  0  0  0
  5 20  1  0  0  0  0
  6  9  1  0  0  0  0
  6  5  2  0  0  0  0
  7  6  1  0  0  0  0
 10  7  1  0  0  0  0
 11 16  1  0  0  0  0
 11 17  1  0  0  0  0
 12 11  2  0  0  0  0
 13 14  2  0  0  0  0
 13 12  1  0  0  0  0
 14 15  1  0  0  0  0
 15  3  1  0  0  0  0
 15 16  2  0  0  0  0
 18 12  1  0  0  0  0
 19 13  1  0  0  0  0
 20 25  2  0  0  0  0
 20 21  1  0  0  0  0
 21 22  2  0  0  0  0
 22 23  1  0  0  0  0
 22 27  1  0  0  0  0
 24 28  1  0  0  0  0
 24 23  2  0  0  0  0
 25 24  1  0  0  0  0
 26 21  1  0  0  0  0
 28 29  1  0  0  0  0
 28 30  1  0  0  0  0
 31 28  1  0  0  0  0
M  END
>  <minimizedAffinity>
-5.78735495

$$$$

 OpenBabel03272510223D

 31 33  0  0  0  0  0  0  0  0999 V2000
   35.1770   32.4770   32.5000 Br  0  0  0  0  0  0  0  0  0  0  0  0
   35.7220   30.6670   32.7480 C   0  0  0  0  0  0  0  0  0  0  0  0
   35.5160   30.0130   33.9700 C   0  0  0  0  0  0  0  0  0  0  0  0
   35.9410   28.7150   34.0500 C   0  0  0  0  0  0  0  0  0  0  0  0
   36.5480   28.0340   33.0140 C   0  0  0  0  0  0  0  0  0  0  0  0
   36.7340   28.6980   31.8410 C   0  0  0  0  0  0  0  0  0  0  0  0
   36.3190   30.0060   31.7190 C   0  0  0  0  0  0  0  0  0  0  0  0
   35.7780   28.2080   35.0050 H   0  0  0  0  0  0  0  0  0  0  0  0
   37.2050   28.1890   31.0180 H   0  0  0  0  0  0  0  0  0  0  0  0
   36.4950   30.4770   30.7630 H   0  0  0  0  0  0  0  0  0  0  0  0
   32.9160   31.1040   36.2680 C   0  0  0  0  0  0  0  0  0  0  0  0
   33.6110   31.9730   37.1570 C   0  0  0  0  0  0  0  0  0  0  0  0
   34.9690   32.1660   36.9470 C   0  0  0  0  0  0  0  0  0  0  0  0
   35.5620   31.5150   35.9000 N   0  0  0  0  0  0  0  0  0  0  0  0
   34.8820   30.6980   35.0730 C   0  0  0  0  0  0  0  0  0  0  0  0
   33.5560   30.4970   35.2650 N   0  0  0  0  0  0  0  0  0  0  0  0
   31.8740   30.9240   36.3880 H   0  0  0  0  0  0  0  0  0  0  0  0
   33.0470   32.4330   37.9450 H   0  0  0  0  0  0  0  0  0  0  0  0
   35.5150   32.8230   37.6110 H   0  0  0  0  0  0  0  0  0  0  0  0
   36.9940   26.6520   33.1220 C   0  0  0  0  0  0  0  0  0  0  0  0
   37.9030   26.1850   34.0330 C   0  0  0  0  0  0  0  0  0  0  0  0
   38.3090   24.8670   34.1150 C   0  0  0  0  0  0  0  0  0  0  0  0
   37.7820   23.9860   33.2490 N   0  0  0  0  0  0  0  0  0  0  0  0
   36.8910   24.4080   32.3450 C   0  0  0  0  0  0  0  0  0  0  0  0
   36.5200   25.6920   32.2950 N   0  0  0  0  0  0  0  0  0  0  0  0
   38.3320   26.9070   34.7410 H   0  0  0  0  0  0  0  0  0  0  0  0
   39.0340   24.5830   34.8680 H   0  0  0  0  0  0  0  0  0  0  0  0
   36.2870   23.4560   31.3700 C   0  0  0  0  0  0  0  0  0  0  0  0
   37.2280   22.8620   30.5770 F   0  0  0  0  0  0  0  0  0  0  0  0
   35.3570   24.1640   30.6230 F   0  0  0  0  0  0  0  0  0  0  0  0
   35.5630   22.5000   32.0640 F   0  0  0  0  0  0  0  0  0  0  0  0
  1  2  1  0  0  0  0
  2  3  1  0  0  0  0
  3  4  2  0  0  0  0
  3 15  1  0  0  0  0
  4  8  1  0  0  0  0
  5 20  1  0  0  0  0
  5  4  1  0  0  0  0
  6  5  2  0  0  0  0
  7  6  1  0  0  0  0
  7  2  2  0  0  0  0
  9  6  1  0  0  0  0
 10  7  1  0  0  0  0
 11 17  1  0  0  0  0
 11 12  1  0  0  0  0
 12 18  1  0  0  0  0
 13 12  2  0  0  0  0
 13 19  1  0  0  0  0
 14 13  1  0  0  0  0
 15 16  1  0  0  0  0
 15 14  2  0  0  0  0
 16 11  2  0  0  0  0
 20 21  1  0  0  0  0
 21 22  2  0  0  0  0
 21 26  1  0  0  0  0
 22 27  1  0  0  0  0
 23 22  1  0  0  0  0
 24 23  2  0  0  0  0
 25 24  1  0  0  0  0
 25 20  2  0  0  0  0
 28 31  1  0  0  0  0
 28 24  1  0  0  0  0
 29 28  1  0  0  0  0
 30 28  1  0  0  0  0
M  END
>  <minimizedAffinity>
-5.76535082

$$$$

 OpenBabel03272510223D

 31 33  0  0  0  0  0  0  0  0999 V2000
   37.0600   28.6150   31.6030 Br  0  0  0  0  0  0  0  0  0  0  0  0
   37.5800   27.3930   32.9710 C   0  0  0  0  0  0  0  0  0  0  0  0
   38.6500   26.5090   32.7790 C   0  0  0  0  0  0  0  0  0  0  0  0
   38.9470   25.6710   33.8180 C   0  0  0  0  0  0  0  0  0  0  0  0
   38.2630   25.6530   35.0170 C   0  0  0  0  0  0  0  0  0  0  0  0
   37.2290   26.5240   35.1720 C   0  0  0  0  0  0  0  0  0  0  0  0
   36.8980   27.3850   34.1480 C   0  0  0  0  0  0  0  0  0  0  0  0
   39.7830   24.9820   33.6650 H   0  0  0  0  0  0  0  0  0  0  0  0
   36.6800   26.5290   36.0970 H   0  0  0  0  0  0  0  0  0  0  0  0
   36.0680   28.0520   34.3330 H   0  0  0  0  0  0  0  0  0  0  0  0
   41.1760   27.3670   30.3060 C   0  0  0  0  0  0  0  0  0  0  0  0
   40.8350   26.5460   29.1930 C   0  0  0  0  0  0  0  0  0  0  0  0
   39.7360   25.7080   29.3180 C   0  0  0  0  0  0  0  0  0  0  0  0
   39.0430   25.7180   30.4970 N   0  0  0  0  0  0  0  0  0  0  0  0
   39.3860   26.5040   31.5360 C   0  0  0  0  0  0  0  0  0  0  0  0
   40.4570   27.3280   31.4310 N   0  0  0  0  0  0  0  0  0  0  0  0
   42.0100   28.0260   30.2590 H   0  0  0  0  0  0  0  0  0  0  0  0
   41.4470   26.6180   28.3160 H   0  0  0  0  0  0  0  0  0  0  0  0
   39.4600   25.0760   28.4840 H   0  0  0  0  0  0  0  0  0  0  0  0
   38.5960   24.7500   36.1110 C   0  0  0  0  0  0  0  0  0  0  0  0
   37.8930   24.6330   37.2790 C   0  0  0  0  0  0  0  0  0  0  0  0
   38.2320   23.7680   38.3030 C   0  0  0  0  0  0  0  0  0  0  0  0
   39.3170   22.9930   38.1450 N   0  0  0  0  0  0  0  0  0  0  0  0
   40.0280   23.0820   37.0150 C   0  0  0  0  0  0  0  0  0  0  0  0
   39.6710   23.9310   36.0450 N   0  0  0  0  0  0  0  0  0  0  0  0
   37.0060   25.2670   37.4060 H   0  0  0  0  0  0  0  0  0  0  0  0
   37.6180   23.7390   39.1950 H   0  0  0  0  0  0  0  0  0  0  0  0
   41.2380   22.2370   36.8090 C   0  0  0  0  0  0  0  0  0  0  0  0
   41.2030   21.5660   35.6190 F   0  0  0  0  0  0  0  0  0  0  0  0
   41.3240   21.3700   37.8870 F   0  0  0  0  0  0  0  0  0  0  0  0
   42.3650   23.0400   36.8800 F   0  0  0  0  0  0  0  0  0  0  0  0
  1  2  1  0  0  0  0
  2  7  1  0  0  0  0
  3  2  2  0  0  0  0
  3  4  1  0  0  0  0
  4  5  2  0  0  0  0
  5  6  1  0  0  0  0
  5 20  1  0  0  0  0
  6  9  1  0  0  0  0
  7 10  1  0  0  0  0
  7  6  2  0  0  0  0
  8  4  1  0  0  0  0
 11 16  1  0  0  0  0
 12 13  1  0  0  0  0
 12 11  2  0  0  0  0
 13 14  2  0  0  0  0
 14 15  1  0  0  0  0
 15  3  1  0  0  0  0
 16 15  2  0  0  0  0
 17 11  1  0  0  0  0
 18 12  1  0  0  0  0
 19 13  1  0  0  0  0
 20 21  1  0  0  0  0
 21 26  1  0  0  0  0
 21 22  2  0  0  0  0
 22 27  1  0  0  0  0
 23 22  1  0  0  0  0
 24 23  2  0  0  0  0
 25 20  2  0  0  0  0
 25 24  1  0  0  0  0
 28 31  1  0  0  0  0
 28 24  1  0  0  0  0
 28 30  1  0  0  0  0
 29 28  1  0  0  0  0
M  END
>  <minimizedAffinity>
-5.43926239

$$$$

 OpenBabel03272510223D

 31 33  0  0  0  0  0  0  0  0999 V2000
   37.0470   28.8980   31.1160 Br  0  0  0  0  0  0  0  0  0  0  0  0
   37.6550   27.5160   32.2790 C   0  0  0  0  0  0  0  0  0  0  0  0
   38.7740   26.7380   31.9520 C   0  0  0  0  0  0  0  0  0  0  0  0
   39.1320   25.7710   32.8500 C   0  0  0  0  0  0  0  0  0  0  0  0
   38.4630   25.5280   34.0340 C   0  0  0  0  0  0  0  0  0  0  0  0
   37.3810   26.3010   34.3210 C   0  0  0  0  0  0  0  0  0  0  0  0
   36.9880   27.2870   33.4430 C   0  0  0  0  0  0  0  0  0  0  0  0
   40.0060   25.1660   32.5920 H   0  0  0  0  0  0  0  0  0  0  0  0
   36.8430   26.1310   35.2370 H   0  0  0  0  0  0  0  0  0  0  0  0
   36.1210   27.8650   33.7290 H   0  0  0  0  0  0  0  0  0  0  0  0
   41.2220   28.1100   29.6380 C   0  0  0  0  0  0  0  0  0  0  0  0
   40.9130   27.4550   28.4100 C   0  0  0  0  0  0  0  0  0  0  0  0
   39.8620   26.5490   28.4050 C   0  0  0  0  0  0  0  0  0  0  0  0
   39.1830   26.3360   29.5730 N   0  0  0  0  0  0  0  0  0  0  0  0
   39.4950   26.9680   30.7220 C   0  0  0  0  0  0  0  0  0  0  0  0
   40.5190   27.8560   30.7450 N   0  0  0  0  0  0  0  0  0  0  0  0
   42.0190   28.8130   29.6920 H   0  0  0  0  0  0  0  0  0  0  0  0
   41.5100   27.6970   27.5540 H   0  0  0  0  0  0  0  0  0  0  0  0
   39.6110   26.0420   27.4830 H   0  0  0  0  0  0  0  0  0  0  0  0
   38.8630   24.4910   34.9760 C   0  0  0  0  0  0  0  0  0  0  0  0
   39.6190   23.3930   34.6660 C   0  0  0  0  0  0  0  0  0  0  0  0
   39.9850   22.4220   35.5790 C   0  0  0  0  0  0  0  0  0  0  0  0
   39.5740   22.5620   36.8500 N   0  0  0  0  0  0  0  0  0  0  0  0
   38.8320   23.6230   37.1880 C   0  0  0  0  0  0  0  0  0  0  0  0
   38.4980   24.5440   36.2770 N   0  0  0  0  0  0  0  0  0  0  0  0
   39.9540   23.2820   33.6260 H   0  0  0  0  0  0  0  0  0  0  0  0
   40.5860   21.5850   35.2490 H   0  0  0  0  0  0  0  0  0  0  0  0
   38.3610   23.8070   38.5890 C   0  0  0  0  0  0  0  0  0  0  0  0
   39.3760   23.6920   39.4960 F   0  0  0  0  0  0  0  0  0  0  0  0
   37.3610   22.8730   38.8140 F   0  0  0  0  0  0  0  0  0  0  0  0
   37.7500   25.0460   38.6990 F   0  0  0  0  0  0  0  0  0  0  0  0
  1  2  1  0  0  0  0
  2  7  1  0  0  0  0
  3  2  2  0  0  0  0
  3  4  1  0  0  0  0
  4  5  2  0  0  0  0
  5  6  1  0  0  0  0
  5 20  1  0  0  0  0
  6  9  1  0  0  0  0
  7 10  1  0  0  0  0
  7  6  2  0  0  0  0
  8  4  1  0  0  0  0
 11 17  1  0  0  0  0
 11 16  1  0  0  0  0
 12 11  2  0  0  0  0
 13 12  1  0  0  0  0
 13 14  2  0  0  0  0
 14 15  1  0  0  0  0
 15 16  2  0  0  0  0
 15  3  1  0  0  0  0
 18 12  1  0  0  0  0
 19 13  1  0  0  0  0
 20 25  1  0  0  0  0
 21 20  2  0  0  0  0
 21 22  1  0  0  0  0
 22 23  2  0  0  0  0
 23 24  1  0  0  0  0
 24 28  1  0  0  0  0
 25 24  2  0  0  0  0
 26 21  1  0  0  0  0
 27 22  1  0  0  0  0
 28 31  1  0  0  0  0
 28 30  1  0  0  0  0
 28 29  1  0  0  0  0
M  END
>  <minimizedAffinity>
-5.4081378

$$$$

 OpenBabel03272510223D

 31 33  0  0  0  0  0  0  0  0999 V2000
   39.0380   27.2560   30.7120 Br  0  0  0  0  0  0  0  0  0  0  0  0
   37.5910   27.9760   31.7240 C   0  0  0  0  0  0  0  0  0  0  0  0
   37.4040   27.6230   33.0660 C   0  0  0  0  0  0  0  0  0  0  0  0
   36.3380   28.1920   33.7080 C   0  0  0  0  0  0  0  0  0  0  0  0
   35.4580   29.0740   33.1120 C   0  0  0  0  0  0  0  0  0  0  0  0
   35.6670   29.3960   31.8070 C   0  0  0  0  0  0  0  0  0  0  0  0
   36.7310   28.8450   31.1260 C   0  0  0  0  0  0  0  0  0  0  0  0
   36.1960   27.9150   34.7560 H   0  0  0  0  0  0  0  0  0  0  0  0
   34.9950   30.0810   31.3200 H   0  0  0  0  0  0  0  0  0  0  0  0
   36.8420   29.1400   30.0920 H   0  0  0  0  0  0  0  0  0  0  0  0
   40.2910   26.4130   34.9200 C   0  0  0  0  0  0  0  0  0  0  0  0
   40.0750   25.0060   34.9770 C   0  0  0  0  0  0  0  0  0  0  0  0
   38.9320   24.5000   34.3730 C   0  0  0  0  0  0  0  0  0  0  0  0
   38.0810   25.3760   33.7580 N   0  0  0  0  0  0  0  0  0  0  0  0
   38.3080   26.7040   33.7180 C   0  0  0  0  0  0  0  0  0  0  0  0
   39.4180   27.2150   34.3030 N   0  0  0  0  0  0  0  0  0  0  0  0
   41.1520   26.8490   35.3680 H   0  0  0  0  0  0  0  0  0  0  0  0
   40.8070   24.4110   35.4850 H   0  0  0  0  0  0  0  0  0  0  0  0
   38.7500   23.4340   34.4050 H   0  0  0  0  0  0  0  0  0  0  0  0
   34.3280   29.6680   33.8150 C   0  0  0  0  0  0  0  0  0  0  0  0
   33.0140   29.5120   33.4670 C   0  0  0  0  0  0  0  0  0  0  0  0
   31.9590   30.0870   34.1510 C   0  0  0  0  0  0  0  0  0  0  0  0
   32.2380   30.8450   35.2230 N   0  0  0  0  0  0  0  0  0  0  0  0
   33.5130   31.0200   35.5910 C   0  0  0  0  0  0  0  0  0  0  0  0
   34.5080   30.4470   34.9050 N   0  0  0  0  0  0  0  0  0  0  0  0
   32.7880   28.8910   32.5900 H   0  0  0  0  0  0  0  0  0  0  0  0
   30.9470   29.9110   33.8070 H   0  0  0  0  0  0  0  0  0  0  0  0
   33.8550   31.8560   36.7760 C   0  0  0  0  0  0  0  0  0  0  0  0
   33.5820   33.1780   36.5720 F   0  0  0  0  0  0  0  0  0  0  0  0
   35.1970   31.6440   37.0560 F   0  0  0  0  0  0  0  0  0  0  0  0
   33.1610   31.3800   37.8770 F   0  0  0  0  0  0  0  0  0  0  0  0
  1  2  1  0  0  0  0
  2  3  1  0  0  0  0
  3  4  2  0  0  0  0
  3 15  1  0  0  0  0
  4  8  1  0  0  0  0
  5  4  1  0  0  0  0
  5 20  1  0  0  0  0
  6  5  2  0  0  0  0
  7  2  2  0  0  0  0
  7  6  1  0  0  0  0
  9  6  1  0  0  0  0
 10  7  1  0  0  0  0
 11 12  1  0  0  0  0
 11 17  1  0  0  0  0
 12 18  1  0  0  0  0
 13 19  1  0  0  0  0
 13 12  2  0  0  0  0
 14 13  1  0  0  0  0
 15 14  2  0  0  0  0
 15 16  1  0  0  0  0
 16 11  2  0  0  0  0
 20 25  1  0  0  0  0
 21 20  2  0  0  0  0
 21 22  1  0  0  0  0
 22 23  2  0  0  0  0
 23 24  1  0  0  0  0
 24 28  1  0  0  0  0
 25 24  2  0  0  0  0
 26 21  1  0  0  0  0
 27 22  1  0  0  0  0
 28 30  1  0  0  0  0
 28 31  1  0  0  0  0
 29 28  1  0  0  0  0
M  END
>  <minimizedAffinity>
-5.40386248

$$$$

 OpenBabel03272510223D

 31 33  0  0  0  0  0  0  0  0999 V2000
   40.2820   24.3460   34.1030 Br  0  0  0  0  0  0  0  0  0  0  0  0
   38.9340   25.6900   33.9920 C   0  0  0  0  0  0  0  0  0  0  0  0
   37.9450   25.8030   34.9780 C   0  0  0  0  0  0  0  0  0  0  0  0
   37.0220   26.7980   34.8100 C   0  0  0  0  0  0  0  0  0  0  0  0
   37.0170   27.6760   33.7440 C   0  0  0  0  0  0  0  0  0  0  0  0
   37.9910   27.5400   32.8040 C   0  0  0  0  0  0  0  0  0  0  0  0
   38.9400   26.5490   32.9370 C   0  0  0  0  0  0  0  0  0  0  0  0
   36.2520   26.8830   35.5810 H   0  0  0  0  0  0  0  0  0  0  0  0
   38.0080   28.2110   31.9630 H   0  0  0  0  0  0  0  0  0  0  0  0
   39.6860   26.4940   32.1570 H   0  0  0  0  0  0  0  0  0  0  0  0
   38.1490   24.6330   38.4160 C   0  0  0  0  0  0  0  0  0  0  0  0
   37.9000   23.2350   38.3000 C   0  0  0  0  0  0  0  0  0  0  0  0
   37.6650   22.7210   37.0320 C   0  0  0  0  0  0  0  0  0  0  0  0
   37.6860   23.5810   35.9690 N   0  0  0  0  0  0  0  0  0  0  0  0
   37.9240   24.9000   36.1050 C   0  0  0  0  0  0  0  0  0  0  0  0
   38.1550   25.4190   37.3360 N   0  0  0  0  0  0  0  0  0  0  0  0
   38.3350   25.0740   39.3660 H   0  0  0  0  0  0  0  0  0  0  0  0
   37.9070   22.6530   39.2000 H   0  0  0  0  0  0  0  0  0  0  0  0
   37.4740   21.6620   36.9230 H   0  0  0  0  0  0  0  0  0  0  0  0
   36.0230   28.7290   33.5850 C   0  0  0  0  0  0  0  0  0  0  0  0
   35.2720   28.9420   32.4600 C   0  0  0  0  0  0  0  0  0  0  0  0
   34.3350   29.9500   32.3340 C   0  0  0  0  0  0  0  0  0  0  0  0
   34.1460   30.7730   33.3780 N   0  0  0  0  0  0  0  0  0  0  0  0
   34.8640   30.5950   34.4940 C   0  0  0  0  0  0  0  0  0  0  0  0
   35.7630   29.6080   34.5800 N   0  0  0  0  0  0  0  0  0  0  0  0
   35.4280   28.2670   31.6080 H   0  0  0  0  0  0  0  0  0  0  0  0
   33.7830   30.0470   31.4070 H   0  0  0  0  0  0  0  0  0  0  0  0
   34.6790   31.4910   35.6690 C   0  0  0  0  0  0  0  0  0  0  0  0
   34.4090   32.7780   35.3010 F   0  0  0  0  0  0  0  0  0  0  0  0
   35.8290   31.4050   36.4390 F   0  0  0  0  0  0  0  0  0  0  0  0
   33.6580   30.9880   36.4610 F   0  0  0  0  0  0  0  0  0  0  0  0
  2  1  1  0  0  0  0
  2  3  1  0  0  0  0
  3 15  1  0  0  0  0
  4  3  2  0  0  0  0
  4  8  1  0  0  0  0
  5  4  1  0  0  0  0
  6  7  1  0  0  0  0
  6  5  2  0  0  0  0
  7  2  2  0  0  0  0
  9  6  1  0  0  0  0
 10  7  1  0  0  0  0
 11 17  1  0  0  0  0
 12 11  1  0  0  0  0
 12 18  1  0  0  0  0
 13 12  2  0  0  0  0
 14 15  2  0  0  0  0
 14 13  1  0  0  0  0
 15 16  1  0  0  0  0
 16 11  2  0  0  0  0
 19 13  1  0  0  0  0
 20  5  1  0  0  0  0
 20 25  1  0  0  0  0
 21 20  2  0  0  0  0
 22 21  1  0  0  0  0
 22 23  2  0  0  0  0
 23 24  1  0  0  0  0
 24 25  2  0  0  0  0
 24 28  1  0  0  0  0
 26 21  1  0  0  0  0
 27 22  1  0  0  0  0
 28 30  1  0  0  0  0
 28 31  1  0  0  0  0
 29 28  1  0  0  0  0
M  END
>  <minimizedAffinity>
-5.4022789

$$$$

 OpenBabel03272510223D

 31 33  0  0  0  0  0  0  0  0999 V2000
   34.4500   32.2750   32.4590 Br  0  0  0  0  0  0  0  0  0  0  0  0
   35.3200   30.5990   32.7230 C   0  0  0  0  0  0  0  0  0  0  0  0
   35.3270   29.9800   33.9790 C   0  0  0  0  0  0  0  0  0  0  0  0
   35.9770   28.7790   34.0680 C   0  0  0  0  0  0  0  0  0  0  0  0
   36.6100   28.1620   33.0070 C   0  0  0  0  0  0  0  0  0  0  0  0
   36.5840   28.7890   31.8000 C   0  0  0  0  0  0  0  0  0  0  0  0
   35.9390   30.0000   31.6690 C   0  0  0  0  0  0  0  0  0  0  0  0
   35.9810   28.2990   35.0500 H   0  0  0  0  0  0  0  0  0  0  0  0
   37.0700   28.3290   30.9580 H   0  0  0  0  0  0  0  0  0  0  0  0
   35.9550   30.4470   30.6850 H   0  0  0  0  0  0  0  0  0  0  0  0
   34.8560   32.0390   36.9400 C   0  0  0  0  0  0  0  0  0  0  0  0
   33.4900   31.8160   37.2790 C   0  0  0  0  0  0  0  0  0  0  0  0
   32.7540   30.9560   36.4740 C   0  0  0  0  0  0  0  0  0  0  0  0
   33.3800   30.3730   35.4070 N   0  0  0  0  0  0  0  0  0  0  0  0
   34.6730   30.6000   35.1080 C   0  0  0  0  0  0  0  0  0  0  0  0
   35.4060   31.4370   35.8820 N   0  0  0  0  0  0  0  0  0  0  0  0
   35.4610   32.6890   37.5270 H   0  0  0  0  0  0  0  0  0  0  0  0
   33.1010   32.3250   38.1370 H   0  0  0  0  0  0  0  0  0  0  0  0
   31.7150   30.7740   36.7140 H   0  0  0  0  0  0  0  0  0  0  0  0
   37.2960   26.8820   33.1250 C   0  0  0  0  0  0  0  0  0  0  0  0
   36.8410   25.6940   32.6210 C   0  0  0  0  0  0  0  0  0  0  0  0
   37.5120   24.4920   32.7470 C   0  0  0  0  0  0  0  0  0  0  0  0
   38.6830   24.4870   33.4030 N   0  0  0  0  0  0  0  0  0  0  0  0
   39.1580   25.6310   33.9090 C   0  0  0  0  0  0  0  0  0  0  0  0
   38.4810   26.7760   33.7680 N   0  0  0  0  0  0  0  0  0  0  0  0
   35.8830   25.7010   32.0840 H   0  0  0  0  0  0  0  0  0  0  0  0
   37.0800   23.5970   32.3170 H   0  0  0  0  0  0  0  0  0  0  0  0
   40.4550   25.6590   34.6430 C   0  0  0  0  0  0  0  0  0  0  0  0
   40.6910   26.8690   35.2310 F   0  0  0  0  0  0  0  0  0  0  0  0
   41.4490   25.3230   33.7370 F   0  0  0  0  0  0  0  0  0  0  0  0
   40.4550   24.6490   35.5930 F   0  0  0  0  0  0  0  0  0  0  0  0
  1  2  1  0  0  0  0
  2  3  1  0  0  0  0
  3  4  2  0  0  0  0
  3 15  1  0  0  0  0
  4  8  1  0  0  0  0
  5 20  1  0  0  0  0
  5  4  1  0  0  0  0
  6  5  2  0  0  0  0
  7  6  1  0  0  0  0
  7  2  2  0  0  0  0
  9  6  1  0  0  0  0
 10  7  1  0  0  0  0
 11 12  1  0  0  0  0
 11 17  1  0  0  0  0
 12 18  1  0  0  0  0
 13 19  1  0  0  0  0
 13 12  2  0  0  0  0
 14 13  1  0  0  0  0
 15 14  2  0  0  0  0
 15 16  1  0  0  0  0
 16 11  2  0  0  0  0
 20 25  1  0  0  0  0
 21 22  1  0  0  0  0
 21 20  2  0  0  0  0
 22 23  2  0  0  0  0
 23 24  1  0  0  0  0
 24 28  1  0  0  0  0
 25 24  2  0  0  0  0
 26 21  1  0  0  0  0
 27 22  1  0  0  0  0
 28 29  1  0  0  0  0
 28 31  1  0  0  0  0
 30 28  1  0  0  0  0
M  END
>  <minimizedAffinity>
-5.37479115

$$$$
