
 OpenBabel03272509273D

 36 37  0  0  1  0  0  0  0  0999 V2000
   39.0670   24.9000   36.2250 C   0  0  2  0  0  0  0  0  0  0  0  0
   39.7330   24.4570   34.9480 C   0  0  0  0  0  0  0  0  0  0  0  0
   39.4490   23.0170   34.6670 C   0  0  0  0  0  0  0  0  0  0  0  0
   39.2200   22.2370   35.9160 C   0  0  0  0  0  0  0  0  0  0  0  0
   37.8320   22.6730   36.2680 C   0  0  0  0  0  0  0  0  0  0  0  0
   37.9580   24.1210   36.6960 C   0  0  1  0  0  0  0  0  0  0  0  0
   39.8910   24.9840   36.9670 H   0  0  0  0  0  0  0  0  0  0  0  0
   40.8480   24.5910   34.9650 H   0  0  0  0  0  0  0  0  0  0  0  0
   39.4020   25.0650   34.0830 H   0  0  0  0  0  0  0  0  0  0  0  0
   38.5750   22.9720   33.9620 H   0  0  0  0  0  0  0  0  0  0  0  0
   40.2870   22.5710   34.1410 H   0  0  0  0  0  0  0  0  0  0  0  0
   39.9350   22.5590   36.6760 H   0  0  0  0  0  0  0  0  0  0  0  0
   39.2880   21.1350   35.7430 H   0  0  0  0  0  0  0  0  0  0  0  0
   37.3730   22.0080   36.9910 H   0  0  0  0  0  0  0  0  0  0  0  0
   37.1700   22.6230   35.3540 H   0  0  0  0  0  0  0  0  0  0  0  0
   36.9910   24.5920   36.4300 H   0  0  0  0  0  0  0  0  0  0  0  0
   38.0440   23.9610   38.2090 C   0  0  0  0  0  0  0  0  0  0  0  0
   37.2700   22.9010   38.6450 F   0  0  0  0  0  0  0  0  0  0  0  0
   39.3300   23.5920   38.6400 F   0  0  0  0  0  0  0  0  0  0  0  0
   37.8240   25.1030   38.9290 F   0  0  0  0  0  0  0  0  0  0  0  0
   38.5330   26.6170   35.9210 S   0  0  0  0  0  0  0  0  0  0  0  0
   37.1400   26.8420   34.9310 C   0  0  0  0  0  0  0  0  0  0  0  0
   36.7780   27.8880   35.3330 H   0  0  0  0  0  0  0  0  0  0  0  0
   36.2140   26.2720   35.0800 H   0  0  0  0  0  0  0  0  0  0  0  0
   37.4140   27.1580   33.4820 C   0  0  0  0  0  0  0  0  0  0  0  0
   36.9100   28.1510   33.2900 H   0  0  0  0  0  0  0  0  0  0  0  0
   38.4680   27.1870   33.2080 H   0  0  0  0  0  0  0  0  0  0  0  0
   36.4370   23.9730   31.8040 C   0  0  0  0  0  0  0  0  0  0  0  0
   37.0730   24.8710   32.6450 C   0  0  0  0  0  0  0  0  0  0  0  0
   36.7600   26.1990   32.6010 C   0  0  0  0  0  0  0  0  0  0  0  0
   35.7890   26.5890   31.6850 N   0  0  0  0  0  0  0  0  0  0  0  0
   35.1940   25.7050   30.8890 C   0  0  0  0  0  0  0  0  0  0  0  0
   35.4870   24.3920   30.9160 N   0  0  0  0  0  0  0  0  0  0  0  0
   36.5780   22.8930   31.7230 H   0  0  0  0  0  0  0  0  0  0  0  0
   37.7820   24.3080   33.2310 H   0  0  0  0  0  0  0  0  0  0  0  0
   34.4500   26.1150   30.2090 H   0  0  0  0  0  0  0  0  0  0  0  0
  1  6  1  0  0  0  0
  1  7  1  1  0  0  0
  2  8  1  0  0  0  0
  2  1  1  0  0  0  0
  3  2  1  0  0  0  0
  3  4  1  0  0  0  0
  4  5  1  0  0  0  0
  4 12  1  0  0  0  0
  5  6  1  0  0  0  0
  5 14  1  0  0  0  0
  6 16  1  6  0  0  0
  6 17  1  0  0  0  0
  9  2  1  0  0  0  0
 10  3  1  0  0  0  0
 11  3  1  0  0  0  0
 13  4  1  0  0  0  0
 15  5  1  0  0  0  0
 17 19  1  0  0  0  0
 17 18  1  0  0  0  0
 17 20  1  0  0  0  0
 21  1  1  0  0  0  0
 22 24  1  0  0  0  0
 22 23  1  0  0  0  0
 22 21  1  0  0  0  0
 25 22  1  0  0  0  0
 26 25  1  0  0  0  0
 27 25  1  0  0  0  0
 28 29  1  0  0  0  0
 29 35  1  0  0  0  0
 30 29  2  0  0  0  0
 30 25  1  0  0  0  0
 31 30  1  0  0  0  0
 32 33  1  0  0  0  0
 32 31  2  0  0  0  0
 33 28  2  0  0  0  0
 34 28  1  0  0  0  0
 36 32  1  0  0  0  0
M  END
>  <minimizedAffinity>
-5.04670095

$$$$

 OpenBabel03272509273D

 36 37  0  0  1  0  0  0  0  0999 V2000
   38.1920   25.4370   33.9350 C   0  0  2  0  0  0  0  0  0  0  0  0
   38.5200   23.9880   33.6840 C   0  0  0  0  0  0  0  0  0  0  0  0
   38.6870   23.2450   34.9700 C   0  0  0  0  0  0  0  0  0  0  0  0
   39.1640   24.1300   36.0700 C   0  0  0  0  0  0  0  0  0  0  0  0
   37.9060   24.8690   36.4010 C   0  0  0  0  0  0  0  0  0  0  0  0
   37.6460   25.7770   35.2170 C   0  0  1  0  0  0  0  0  0  0  0  0
   39.1270   25.9900   33.6950 H   0  0  0  0  0  0  0  0  0  0  0  0
   39.4580   23.8470   33.0810 H   0  0  0  0  0  0  0  0  0  0  0  0
   37.7350   23.4900   33.0800 H   0  0  0  0  0  0  0  0  0  0  0  0
   37.7060   22.7480   35.2080 H   0  0  0  0  0  0  0  0  0  0  0  0
   39.4090   22.4450   34.8440 H   0  0  0  0  0  0  0  0  0  0  0  0
   39.9250   24.8080   35.6780 H   0  0  0  0  0  0  0  0  0  0  0  0
   39.5560   23.5460   36.9390 H   0  0  0  0  0  0  0  0  0  0  0  0
   37.9710   25.3620   37.3650 H   0  0  0  0  0  0  0  0  0  0  0  0
   37.0460   24.1420   36.4950 H   0  0  0  0  0  0  0  0  0  0  0  0
   36.5450   25.8910   35.1690 H   0  0  0  0  0  0  0  0  0  0  0  0
   38.2680   27.0760   35.7160 C   0  0  0  0  0  0  0  0  0  0  0  0
   37.4720   28.1640   35.4070 F   0  0  0  0  0  0  0  0  0  0  0  0
   38.3340   27.1380   37.1180 F   0  0  0  0  0  0  0  0  0  0  0  0
   39.5760   27.2670   35.3650 F   0  0  0  0  0  0  0  0  0  0  0  0
   37.0210   25.9020   32.6170 S   0  0  0  0  0  0  0  0  0  0  0  0
   36.8080   24.7810   31.3250 C   0  0  0  0  0  0  0  0  0  0  0  0
   37.6520   24.0050   31.5940 H   0  0  0  0  0  0  0  0  0  0  0  0
   37.1070   25.0080   30.2930 H   0  0  0  0  0  0  0  0  0  0  0  0
   35.5740   23.9190   31.4070 C   0  0  0  0  0  0  0  0  0  0  0  0
   35.0570   24.2240   32.3660 H   0  0  0  0  0  0  0  0  0  0  0  0
   34.9020   23.9930   30.5530 H   0  0  0  0  0  0  0  0  0  0  0  0
   35.4770   20.3350   32.4340 C   0  0  0  0  0  0  0  0  0  0  0  0
   35.1330   21.6690   32.2960 C   0  0  0  0  0  0  0  0  0  0  0  0
   35.9230   22.5130   31.5690 C   0  0  0  0  0  0  0  0  0  0  0  0
   37.0640   21.9690   30.9900 N   0  0  0  0  0  0  0  0  0  0  0  0
   37.3700   20.6840   31.1400 C   0  0  0  0  0  0  0  0  0  0  0  0
   36.6070   19.8350   31.8510 N   0  0  0  0  0  0  0  0  0  0  0  0
   34.9530   19.5460   32.9770 H   0  0  0  0  0  0  0  0  0  0  0  0
   34.2230   21.8210   32.8530 H   0  0  0  0  0  0  0  0  0  0  0  0
   38.2850   20.3610   30.6460 H   0  0  0  0  0  0  0  0  0  0  0  0
  1  7  1  6  0  0  0
  1  6  1  0  0  0  0
  2  1  1  0  0  0  0
  2  3  1  0  0  0  0
  3 10  1  0  0  0  0
  3  4  1  0  0  0  0
  4  5  1  0  0  0  0
  4 13  1  0  0  0  0
  5 15  1  0  0  0  0
  5 14  1  0  0  0  0
  6 16  1  6  0  0  0
  6 17  1  0  0  0  0
  6  5  1  0  0  0  0
  8  2  1  0  0  0  0
  9  2  1  0  0  0  0
 11  3  1  0  0  0  0
 12  4  1  0  0  0  0
 17 19  1  0  0  0  0
 18 17  1  0  0  0  0
 20 17  1  0  0  0  0
 21  1  1  0  0  0  0
 22 25  1  0  0  0  0
 22 23  1  0  0  0  0
 22 21  1  0  0  0  0
 24 22  1  0  0  0  0
 25 30  1  0  0  0  0
 25 26  1  0  0  0  0
 27 25  1  0  0  0  0
 28 34  1  0  0  0  0
 29 28  1  0  0  0  0
 29 35  1  0  0  0  0
 30 29  2  0  0  0  0
 31 32  2  0  0  0  0
 31 30  1  0  0  0  0
 32 33  1  0  0  0  0
 33 28  2  0  0  0  0
 36 32  1  0  0  0  0
M  END
>  <minimizedAffinity>
-4.84372282

$$$$

 OpenBabel03272509273D

 36 37  0  0  1  0  0  0  0  0999 V2000
   38.9710   24.9440   36.1030 C   0  0  2  0  0  0  0  0  0  0  0  0
   40.0670   24.8820   35.0710 C   0  0  0  0  0  0  0  0  0  0  0  0
   40.7840   23.5730   35.1280 C   0  0  0  0  0  0  0  0  0  0  0  0
   40.7590   22.9790   36.4950 C   0  0  0  0  0  0  0  0  0  0  0  0
   39.3550   22.4670   36.5530 C   0  0  0  0  0  0  0  0  0  0  0  0
   38.4750   23.7000   36.6150 C   0  0  1  0  0  0  0  0  0  0  0  0
   39.3590   25.6220   36.8950 H   0  0  0  0  0  0  0  0  0  0  0  0
   40.8300   25.6980   35.1900 H   0  0  0  0  0  0  0  0  0  0  0  0
   39.6710   25.0310   34.0460 H   0  0  0  0  0  0  0  0  0  0  0  0
   40.3260   22.8970   34.3550 H   0  0  0  0  0  0  0  0  0  0  0  0
   41.8210   23.7060   34.8390 H   0  0  0  0  0  0  0  0  0  0  0  0
   40.9170   23.7710   37.2320 H   0  0  0  0  0  0  0  0  0  0  0  0
   41.5150   22.1640   36.6140 H   0  0  0  0  0  0  0  0  0  0  0  0
   39.2190   21.7530   37.3580 H   0  0  0  0  0  0  0  0  0  0  0  0
   39.1130   21.8980   35.6070 H   0  0  0  0  0  0  0  0  0  0  0  0
   37.5260   23.4100   36.1220 H   0  0  0  0  0  0  0  0  0  0  0  0
   38.2520   23.8110   38.1190 C   0  0  0  0  0  0  0  0  0  0  0  0
   37.2930   22.9130   38.5500 F   0  0  0  0  0  0  0  0  0  0  0  0
   39.3820   23.4260   38.8610 F   0  0  0  0  0  0  0  0  0  0  0  0
   38.0310   25.0790   38.5820 F   0  0  0  0  0  0  0  0  0  0  0  0
   37.6160   25.8740   35.3140 S   0  0  0  0  0  0  0  0  0  0  0  0
   38.0530   27.2530   34.3760 C   0  0  0  0  0  0  0  0  0  0  0  0
   39.2160   27.2590   34.5620 H   0  0  0  0  0  0  0  0  0  0  0  0
   37.8240   28.2790   34.6950 H   0  0  0  0  0  0  0  0  0  0  0  0
   37.9910   27.0710   32.8810 C   0  0  0  0  0  0  0  0  0  0  0  0
   39.0360   27.2880   32.5070 H   0  0  0  0  0  0  0  0  0  0  0  0
   37.6450   26.0920   32.5490 H   0  0  0  0  0  0  0  0  0  0  0  0
   35.2570   29.5490   32.3350 C   0  0  0  0  0  0  0  0  0  0  0  0
   36.0620   28.5950   32.9340 C   0  0  0  0  0  0  0  0  0  0  0  0
   37.1290   28.0710   32.2630 C   0  0  0  0  0  0  0  0  0  0  0  0
   37.3550   28.5380   30.9730 N   0  0  0  0  0  0  0  0  0  0  0  0
   36.5650   29.4540   30.4200 C   0  0  0  0  0  0  0  0  0  0  0  0
   35.5090   29.9840   31.0640 N   0  0  0  0  0  0  0  0  0  0  0  0
   34.3790   30.0560   32.7390 H   0  0  0  0  0  0  0  0  0  0  0  0
   35.6550   28.4080   33.9150 H   0  0  0  0  0  0  0  0  0  0  0  0
   36.8290   29.7500   29.4070 H   0  0  0  0  0  0  0  0  0  0  0  0
  1  6  1  0  0  0  0
  1  7  1  1  0  0  0
  2  3  1  0  0  0  0
  2  8  1  0  0  0  0
  2  1  1  0  0  0  0
  3  4  1  0  0  0  0
  4  5  1  0  0  0  0
  4 13  1  0  0  0  0
  4 12  1  0  0  0  0
  5  6  1  0  0  0  0
  5 14  1  0  0  0  0
  6 16  1  6  0  0  0
  6 17  1  0  0  0  0
  9  2  1  0  0  0  0
 10  3  1  0  0  0  0
 11  3  1  0  0  0  0
 15  5  1  0  0  0  0
 17 18  1  0  0  0  0
 17 20  1  0  0  0  0
 17 19  1  0  0  0  0
 21  1  1  0  0  0  0
 22 23  1  0  0  0  0
 22 24  1  0  0  0  0
 22 21  1  0  0  0  0
 25 22  1  0  0  0  0
 26 25  1  0  0  0  0
 27 25  1  0  0  0  0
 28 34  1  0  0  0  0
 28 29  1  0  0  0  0
 29 35  1  0  0  0  0
 30 25  1  0  0  0  0
 30 29  2  0  0  0  0
 31 30  1  0  0  0  0
 32 31  2  0  0  0  0
 32 33  1  0  0  0  0
 33 28  2  0  0  0  0
 36 32  1  0  0  0  0
M  END
>  <minimizedAffinity>
-4.76776171

$$$$

 OpenBabel03272509273D

 36 37  0  0  1  0  0  0  0  0999 V2000
   39.2830   26.5970   33.5420 C   0  0  2  0  0  0  0  0  0  0  0  0
   39.9110   26.7580   34.9020 C   0  0  0  0  0  0  0  0  0  0  0  0
   38.8850   27.1080   35.9300 C   0  0  0  0  0  0  0  0  0  0  0  0
   37.7340   27.8520   35.3430 C   0  0  0  0  0  0  0  0  0  0  0  0
   37.0000   26.7400   34.6630 C   0  0  0  0  0  0  0  0  0  0  0  0
   37.8740   26.3310   33.4940 C   0  0  1  0  0  0  0  0  0  0  0  0
   39.5760   27.5100   32.9790 H   0  0  0  0  0  0  0  0  0  0  0  0
   40.7070   27.5520   34.9270 H   0  0  0  0  0  0  0  0  0  0  0  0
   40.4400   25.8370   35.2190 H   0  0  0  0  0  0  0  0  0  0  0  0
   38.5700   26.1550   36.4370 H   0  0  0  0  0  0  0  0  0  0  0  0
   39.3290   27.7290   36.7010 H   0  0  0  0  0  0  0  0  0  0  0  0
   38.1100   28.5750   34.6160 H   0  0  0  0  0  0  0  0  0  0  0  0
   37.1140   28.3550   36.1260 H   0  0  0  0  0  0  0  0  0  0  0  0
   35.9840   27.0240   34.4110 H   0  0  0  0  0  0  0  0  0  0  0  0
   36.8980   25.8590   35.3640 H   0  0  0  0  0  0  0  0  0  0  0  0
   37.6720   25.2530   33.3380 H   0  0  0  0  0  0  0  0  0  0  0  0
   37.2340   27.1350   32.3690 C   0  0  0  0  0  0  0  0  0  0  0  0
   38.0370   28.1960   31.9920 F   0  0  0  0  0  0  0  0  0  0  0  0
   37.1250   26.4000   31.1760 F   0  0  0  0  0  0  0  0  0  0  0  0
   35.9360   27.5100   32.5870 F   0  0  0  0  0  0  0  0  0  0  0  0
   40.1990   25.2380   32.7450 S   0  0  0  0  0  0  0  0  0  0  0  0
   40.5560   23.8580   33.7150 C   0  0  0  0  0  0  0  0  0  0  0  0
   40.8720   24.3940   34.7140 H   0  0  0  0  0  0  0  0  0  0  0  0
   41.4540   23.2450   33.5580 H   0  0  0  0  0  0  0  0  0  0  0  0
   39.3640   23.0560   34.1710 C   0  0  0  0  0  0  0  0  0  0  0  0
   38.4630   23.5840   33.7390 H   0  0  0  0  0  0  0  0  0  0  0  0
   39.3810   22.0030   33.8890 H   0  0  0  0  0  0  0  0  0  0  0  0
   37.9250   23.6220   37.5650 C   0  0  0  0  0  0  0  0  0  0  0  0
   38.0560   23.5750   36.1870 C   0  0  0  0  0  0  0  0  0  0  0  0
   39.2100   23.1180   35.6190 C   0  0  0  0  0  0  0  0  0  0  0  0
   40.2220   22.7110   36.4820 N   0  0  0  0  0  0  0  0  0  0  0  0
   40.0690   22.7680   37.8020 C   0  0  0  0  0  0  0  0  0  0  0  0
   38.9400   23.2150   38.3830 N   0  0  0  0  0  0  0  0  0  0  0  0
   37.0740   23.9580   38.1600 H   0  0  0  0  0  0  0  0  0  0  0  0
   37.1400   23.9590   35.7680 H   0  0  0  0  0  0  0  0  0  0  0  0
   40.9210   22.4260   38.3870 H   0  0  0  0  0  0  0  0  0  0  0  0
  1  7  1  6  0  0  0
  1  2  1  0  0  0  0
  2  8  1  0  0  0  0
  2  9  1  0  0  0  0
  2  3  1  0  0  0  0
  3 10  1  0  0  0  0
  3 11  1  0  0  0  0
  4  3  1  0  0  0  0
  4 13  1  0  0  0  0
  5  4  1  0  0  0  0
  5 15  1  0  0  0  0
  6 16  1  6  0  0  0
  6  1  1  0  0  0  0
  6  5  1  0  0  0  0
 12  4  1  0  0  0  0
 14  5  1  0  0  0  0
 17 20  1  0  0  0  0
 17  6  1  0  0  0  0
 18 17  1  0  0  0  0
 19 17  1  0  0  0  0
 21  1  1  0  0  0  0
 21 22  1  0  0  0  0
 22 25  1  0  0  0  0
 22 23  1  0  0  0  0
 24 22  1  0  0  0  0
 25 30  1  0  0  0  0
 26 25  1  0  0  0  0
 27 25  1  0  0  0  0
 28 34  1  0  0  0  0
 28 33  1  0  0  0  0
 29 28  2  0  0  0  0
 30 29  1  0  0  0  0
 30 31  2  0  0  0  0
 31 32  1  0  0  0  0
 32 33  2  0  0  0  0
 32 36  1  0  0  0  0
 35 29  1  0  0  0  0
M  END
>  <minimizedAffinity>
-4.567945

$$$$

 OpenBabel03272509273D

 36 37  0  0  1  0  0  0  0  0999 V2000
   40.3730   23.8490   35.6350 C   0  0  2  0  0  0  0  0  0  0  0  0
   41.1880   22.7650   36.2920 C   0  0  0  0  0  0  0  0  0  0  0  0
   40.4650   22.1870   37.4640 C   0  0  0  0  0  0  0  0  0  0  0  0
   39.5460   23.1740   38.1000 C   0  0  0  0  0  0  0  0  0  0  0  0
   38.4160   23.1760   37.1190 C   0  0  0  0  0  0  0  0  0  0  0  0
   38.9590   23.8490   35.8750 C   0  0  1  0  0  0  0  0  0  0  0  0
   40.8680   24.8010   35.9300 H   0  0  0  0  0  0  0  0  0  0  0  0
   42.1910   23.1240   36.6490 H   0  0  0  0  0  0  0  0  0  0  0  0
   41.4310   21.9500   35.5810 H   0  0  0  0  0  0  0  0  0  0  0  0
   39.9300   21.2610   37.1150 H   0  0  0  0  0  0  0  0  0  0  0  0
   41.1780   21.8600   38.2140 H   0  0  0  0  0  0  0  0  0  0  0  0
   40.0380   24.1490   38.1320 H   0  0  0  0  0  0  0  0  0  0  0  0
   39.2240   22.8530   39.1210 H   0  0  0  0  0  0  0  0  0  0  0  0
   37.5200   23.6190   37.5400 H   0  0  0  0  0  0  0  0  0  0  0  0
   38.1300   22.1140   36.8600 H   0  0  0  0  0  0  0  0  0  0  0  0
   38.4060   23.3950   35.0290 H   0  0  0  0  0  0  0  0  0  0  0  0
   38.4710   25.2760   36.0910 C   0  0  0  0  0  0  0  0  0  0  0  0
   39.4050   26.1970   35.6530 F   0  0  0  0  0  0  0  0  0  0  0  0
   37.3480   25.5870   35.3050 F   0  0  0  0  0  0  0  0  0  0  0  0
   38.0140   25.5510   37.3520 F   0  0  0  0  0  0  0  0  0  0  0  0
   40.7000   23.6840   33.8490 S   0  0  0  0  0  0  0  0  0  0  0  0
   39.3380   23.7490   32.7930 C   0  0  0  0  0  0  0  0  0  0  0  0
   38.4810   23.4920   33.5590 H   0  0  0  0  0  0  0  0  0  0  0  0
   39.1370   22.9730   32.0440 H   0  0  0  0  0  0  0  0  0  0  0  0
   38.9300   25.1280   32.3410 C   0  0  0  0  0  0  0  0  0  0  0  0
   38.9590   25.7700   33.2710 H   0  0  0  0  0  0  0  0  0  0  0  0
   39.5400   25.5530   31.5450 H   0  0  0  0  0  0  0  0  0  0  0  0
   35.5330   24.0200   31.2700 C   0  0  0  0  0  0  0  0  0  0  0  0
   36.8490   23.9850   31.6980 C   0  0  0  0  0  0  0  0  0  0  0  0
   37.5450   25.1450   31.8860 C   0  0  0  0  0  0  0  0  0  0  0  0
   36.8720   26.3340   31.6290 N   0  0  0  0  0  0  0  0  0  0  0  0
   35.6070   26.3390   31.2180 C   0  0  0  0  0  0  0  0  0  0  0  0
   34.9030   25.2080   31.0270 N   0  0  0  0  0  0  0  0  0  0  0  0
   34.8530   23.1880   31.0780 H   0  0  0  0  0  0  0  0  0  0  0  0
   37.1210   22.9470   31.8030 H   0  0  0  0  0  0  0  0  0  0  0  0
   35.1750   27.3220   31.0450 H   0  0  0  0  0  0  0  0  0  0  0  0
  1  6  1  0  0  0  0
  1  7  1  1  0  0  0
  1  2  1  0  0  0  0
  2  8  1  0  0  0  0
  2  3  1  0  0  0  0
  3  4  1  0  0  0  0
  3 11  1  0  0  0  0
  4 12  1  0  0  0  0
  4 13  1  0  0  0  0
  5 14  1  0  0  0  0
  5  4  1  0  0  0  0
  6 16  1  6  0  0  0
  6 17  1  0  0  0  0
  6  5  1  0  0  0  0
  9  2  1  0  0  0  0
 10  3  1  0  0  0  0
 15  5  1  0  0  0  0
 17 20  1  0  0  0  0
 18 17  1  0  0  0  0
 19 17  1  0  0  0  0
 21  1  1  0  0  0  0
 22 23  1  0  0  0  0
 22 21  1  0  0  0  0
 24 22  1  0  0  0  0
 25 22  1  0  0  0  0
 25 26  1  0  0  0  0
 27 25  1  0  0  0  0
 28 29  1  0  0  0  0
 29 35  1  0  0  0  0
 29 30  2  0  0  0  0
 30 25  1  0  0  0  0
 31 30  1  0  0  0  0
 32 31  2  0  0  0  0
 33 32  1  0  0  0  0
 33 28  2  0  0  0  0
 34 28  1  0  0  0  0
 36 32  1  0  0  0  0
M  END
>  <minimizedAffinity>
-4.53290987

$$$$

 OpenBabel03272509273D

 36 37  0  0  1  0  0  0  0  0999 V2000
   33.7270   29.9870   35.0110 C   0  0  2  0  0  0  0  0  0  0  0  0
   32.4010   29.5620   35.5860 C   0  0  0  0  0  0  0  0  0  0  0  0
   31.8990   30.5630   36.5740 C   0  0  0  0  0  0  0  0  0  0  0  0
   33.0110   31.2970   37.2440 C   0  0  0  0  0  0  0  0  0  0  0  0
   33.4170   32.2400   36.1560 C   0  0  0  0  0  0  0  0  0  0  0  0
   34.0660   31.3790   35.0920 C   0  0  1  0  0  0  0  0  0  0  0  0
   34.4780   29.3240   35.4950 H   0  0  0  0  0  0  0  0  0  0  0  0
   32.4450   28.5630   36.1000 H   0  0  0  0  0  0  0  0  0  0  0  0
   31.6380   29.4240   34.7940 H   0  0  0  0  0  0  0  0  0  0  0  0
   31.1900   31.2500   36.0360 H   0  0  0  0  0  0  0  0  0  0  0  0
   31.3150   30.0650   37.3420 H   0  0  0  0  0  0  0  0  0  0  0  0
   33.8150   30.5940   37.4730 H   0  0  0  0  0  0  0  0  0  0  0  0
   32.6690   31.8300   38.1640 H   0  0  0  0  0  0  0  0  0  0  0  0
   34.0270   33.0530   36.5370 H   0  0  0  0  0  0  0  0  0  0  0  0
   32.5030   32.7350   35.7140 H   0  0  0  0  0  0  0  0  0  0  0  0
   33.8700   31.8980   34.1330 H   0  0  0  0  0  0  0  0  0  0  0  0
   35.5360   31.5330   35.4610 C   0  0  0  0  0  0  0  0  0  0  0  0
   36.1750   30.3070   35.4950 F   0  0  0  0  0  0  0  0  0  0  0  0
   36.2680   32.2280   34.4830 F   0  0  0  0  0  0  0  0  0  0  0  0
   35.7800   32.2830   36.5790 F   0  0  0  0  0  0  0  0  0  0  0  0
   33.6890   29.4580   33.2670 S   0  0  0  0  0  0  0  0  0  0  0  0
   34.7240   30.2950   32.1700 C   0  0  0  0  0  0  0  0  0  0  0  0
   34.7580   31.3490   32.6960 H   0  0  0  0  0  0  0  0  0  0  0  0
   34.3910   30.6130   31.1730 H   0  0  0  0  0  0  0  0  0  0  0  0
   36.1760   29.8940   32.2100 C   0  0  0  0  0  0  0  0  0  0  0  0
   36.6080   30.2290   31.2200 H   0  0  0  0  0  0  0  0  0  0  0  0
   36.7440   30.2970   33.0480 H   0  0  0  0  0  0  0  0  0  0  0  0
   37.0220   26.4360   33.3220 C   0  0  0  0  0  0  0  0  0  0  0  0
   36.8970   27.8150   33.3070 C   0  0  0  0  0  0  0  0  0  0  0  0
   36.3220   28.4440   32.2410 C   0  0  0  0  0  0  0  0  0  0  0  0
   35.8790   27.6400   31.1960 N   0  0  0  0  0  0  0  0  0  0  0  0
   36.0130   26.3180   31.2360 C   0  0  0  0  0  0  0  0  0  0  0  0
   36.5760   25.6770   32.2770 N   0  0  0  0  0  0  0  0  0  0  0  0
   37.4530   25.7960   34.0950 H   0  0  0  0  0  0  0  0  0  0  0  0
   37.3310   28.1830   34.2230 H   0  0  0  0  0  0  0  0  0  0  0  0
   35.6340   25.7820   30.3680 H   0  0  0  0  0  0  0  0  0  0  0  0
  1  6  1  0  0  0  0
  1  7  1  1  0  0  0
  1  2  1  0  0  0  0
  2  8  1  0  0  0  0
  2  3  1  0  0  0  0
  3  4  1  0  0  0  0
  3 11  1  0  0  0  0
  4 12  1  0  0  0  0
  4 13  1  0  0  0  0
  5 14  1  0  0  0  0
  5  4  1  0  0  0  0
  6 16  1  6  0  0  0
  6 17  1  0  0  0  0
  6  5  1  0  0  0  0
  9  2  1  0  0  0  0
 10  3  1  0  0  0  0
 15  5  1  0  0  0  0
 17 18  1  0  0  0  0
 17 20  1  0  0  0  0
 19 17  1  0  0  0  0
 21  1  1  0  0  0  0
 22 25  1  0  0  0  0
 22 23  1  0  0  0  0
 22 21  1  0  0  0  0
 24 22  1  0  0  0  0
 25 30  1  0  0  0  0
 25 27  1  0  0  0  0
 26 25  1  0  0  0  0
 28 34  1  0  0  0  0
 29 28  1  0  0  0  0
 29 35  1  0  0  0  0
 30 29  2  0  0  0  0
 31 32  2  0  0  0  0
 31 30  1  0  0  0  0
 32 33  1  0  0  0  0
 33 28  2  0  0  0  0
 36 32  1  0  0  0  0
M  END
>  <minimizedAffinity>
-4.48687744

$$$$

 OpenBabel03272509273D

 36 37  0  0  1  0  0  0  0  0999 V2000
   38.1860   25.9840   33.7670 C   0  0  2  0  0  0  0  0  0  0  0  0
   38.9060   27.1060   33.0650 C   0  0  0  0  0  0  0  0  0  0  0  0
   40.3540   27.1270   33.4320 C   0  0  0  0  0  0  0  0  0  0  0  0
   40.5950   26.5780   34.7960 C   0  0  0  0  0  0  0  0  0  0  0  0
   40.4510   25.1110   34.5370 C   0  0  0  0  0  0  0  0  0  0  0  0
   38.9790   24.8910   34.2510 C   0  0  1  0  0  0  0  0  0  0  0  0
   37.5880   26.4790   34.5640 H   0  0  0  0  0  0  0  0  0  0  0  0
   38.4770   28.1180   33.2990 H   0  0  0  0  0  0  0  0  0  0  0  0
   38.8150   27.0230   31.9630 H   0  0  0  0  0  0  0  0  0  0  0  0
   40.9170   26.5680   32.6350 H   0  0  0  0  0  0  0  0  0  0  0  0
   40.7270   28.1460   33.4090 H   0  0  0  0  0  0  0  0  0  0  0  0
   39.8110   26.9350   35.4680 H   0  0  0  0  0  0  0  0  0  0  0  0
   41.6090   26.8440   35.1840 H   0  0  0  0  0  0  0  0  0  0  0  0
   40.8650   24.5170   35.3440 H   0  0  0  0  0  0  0  0  0  0  0  0
   41.0450   24.8220   33.6200 H   0  0  0  0  0  0  0  0  0  0  0  0
   38.9390   24.0270   33.5590 H   0  0  0  0  0  0  0  0  0  0  0  0
   38.4850   24.4630   35.6270 C   0  0  0  0  0  0  0  0  0  0  0  0
   37.6720   23.3480   35.5420 F   0  0  0  0  0  0  0  0  0  0  0  0
   39.5270   24.0150   36.4580 F   0  0  0  0  0  0  0  0  0  0  0  0
   37.9330   25.4600   36.3830 F   0  0  0  0  0  0  0  0  0  0  0  0
   36.9550   25.3750   32.5680 S   0  0  0  0  0  0  0  0  0  0  0  0
   36.9810   23.6900   32.2050 C   0  0  0  0  0  0  0  0  0  0  0  0
   36.8800   23.2510   33.2930 H   0  0  0  0  0  0  0  0  0  0  0  0
   37.8970   23.1690   31.8950 H   0  0  0  0  0  0  0  0  0  0  0  0
   35.7390   23.1460   31.5470 C   0  0  0  0  0  0  0  0  0  0  0  0
   34.8870   23.4250   32.2350 H   0  0  0  0  0  0  0  0  0  0  0  0
   35.5620   23.4990   30.5310 H   0  0  0  0  0  0  0  0  0  0  0  0
   36.7520   19.6310   30.8150 C   0  0  0  0  0  0  0  0  0  0  0  0
   36.7450   21.0160   30.8400 C   0  0  0  0  0  0  0  0  0  0  0  0
   35.7600   21.6890   31.5040 C   0  0  0  0  0  0  0  0  0  0  0  0
   34.7870   20.9230   32.1380 N   0  0  0  0  0  0  0  0  0  0  0  0
   34.8180   19.5940   32.0970 C   0  0  0  0  0  0  0  0  0  0  0  0
   35.7800   18.9110   31.4490 N   0  0  0  0  0  0  0  0  0  0  0  0
   37.4640   18.9590   30.3330 H   0  0  0  0  0  0  0  0  0  0  0  0
   37.5930   21.3480   30.2630 H   0  0  0  0  0  0  0  0  0  0  0  0
   34.0100   19.0910   32.6250 H   0  0  0  0  0  0  0  0  0  0  0  0
  1  6  1  0  0  0  0
  1  7  1  1  0  0  0
  2  8  1  0  0  0  0
  2  3  1  0  0  0  0
  2  1  1  0  0  0  0
  3  4  1  0  0  0  0
  4 13  1  0  0  0  0
  4 12  1  0  0  0  0
  5  4  1  0  0  0  0
  5 14  1  0  0  0  0
  6 16  1  6  0  0  0
  6  5  1  0  0  0  0
  6 17  1  0  0  0  0
  9  2  1  0  0  0  0
 10  3  1  0  0  0  0
 11  3  1  0  0  0  0
 15  5  1  0  0  0  0
 17 20  1  0  0  0  0
 17 19  1  0  0  0  0
 18 17  1  0  0  0  0
 21  1  1  0  0  0  0
 22 21  1  0  0  0  0
 22 23  1  0  0  0  0
 24 22  1  0  0  0  0
 25 22  1  0  0  0  0
 25 26  1  0  0  0  0
 27 25  1  0  0  0  0
 28 29  2  0  0  0  0
 28 33  1  0  0  0  0
 29 30  1  0  0  0  0
 30 25  1  0  0  0  0
 30 31  2  0  0  0  0
 32 31  1  0  0  0  0
 32 36  1  0  0  0  0
 33 32  2  0  0  0  0
 34 28  1  0  0  0  0
 35 29  1  0  0  0  0
M  END
>  <minimizedAffinity>
-4.47709703

$$$$

 OpenBabel03272509273D

 36 37  0  0  1  0  0  0  0  0999 V2000
   38.1450   25.6730   33.8690 C   0  0  2  0  0  0  0  0  0  0  0  0
   38.3830   24.2320   33.4990 C   0  0  0  0  0  0  0  0  0  0  0  0
   38.4810   23.3750   34.7190 C   0  0  0  0  0  0  0  0  0  0  0  0
   38.9970   24.1300   35.8960 C   0  0  0  0  0  0  0  0  0  0  0  0
   37.7850   24.9200   36.2750 C   0  0  0  0  0  0  0  0  0  0  0  0
   37.6020   25.9400   35.1690 C   0  0  1  0  0  0  0  0  0  0  0  0
   39.1180   26.1820   33.6870 H   0  0  0  0  0  0  0  0  0  0  0  0
   39.3190   24.0810   32.8970 H   0  0  0  0  0  0  0  0  0  0  0  0
   37.5770   23.8400   32.8480 H   0  0  0  0  0  0  0  0  0  0  0  0
   37.4670   22.9250   34.9050 H   0  0  0  0  0  0  0  0  0  0  0  0
   39.1520   22.5420   34.5330 H   0  0  0  0  0  0  0  0  0  0  0  0
   39.8070   24.7880   35.5700 H   0  0  0  0  0  0  0  0  0  0  0  0
   39.3370   23.4520   36.7160 H   0  0  0  0  0  0  0  0  0  0  0  0
   37.8660   25.3250   37.2780 H   0  0  0  0  0  0  0  0  0  0  0  0
   36.8780   24.2460   36.2980 H   0  0  0  0  0  0  0  0  0  0  0  0
   36.5110   26.1290   35.1200 H   0  0  0  0  0  0  0  0  0  0  0  0
   38.2990   27.1490   35.7830 C   0  0  0  0  0  0  0  0  0  0  0  0
   37.5530   28.3000   35.6060 F   0  0  0  0  0  0  0  0  0  0  0  0
   38.3940   27.0620   37.1830 F   0  0  0  0  0  0  0  0  0  0  0  0
   39.6080   27.3110   35.4220 F   0  0  0  0  0  0  0  0  0  0  0  0
   37.0280   26.3240   32.5840 S   0  0  0  0  0  0  0  0  0  0  0  0
   36.9170   28.0380   32.4350 C   0  0  0  0  0  0  0  0  0  0  0  0
   36.8780   28.1320   31.2620 H   0  0  0  0  0  0  0  0  0  0  0  0
   37.7690   28.7020   32.6320 H   0  0  0  0  0  0  0  0  0  0  0  0
   35.5920   28.6410   32.8270 C   0  0  0  0  0  0  0  0  0  0  0  0
   34.9400   28.5590   31.9070 H   0  0  0  0  0  0  0  0  0  0  0  0
   35.1160   28.1860   33.6940 H   0  0  0  0  0  0  0  0  0  0  0  0
   35.6140   31.9310   34.5850 C   0  0  0  0  0  0  0  0  0  0  0  0
   35.4790   30.5740   34.3430 C   0  0  0  0  0  0  0  0  0  0  0  0
   35.7230   30.0680   33.0990 C   0  0  0  0  0  0  0  0  0  0  0  0
   36.1040   30.9710   32.1120 N   0  0  0  0  0  0  0  0  0  0  0  0
   36.2250   32.2690   32.3730 C   0  0  0  0  0  0  0  0  0  0  0  0
   35.9910   32.7890   33.5910 N   0  0  0  0  0  0  0  0  0  0  0  0
   35.4570   32.4790   35.5160 H   0  0  0  0  0  0  0  0  0  0  0  0
   35.1620   30.1170   35.2670 H   0  0  0  0  0  0  0  0  0  0  0  0
   36.5280   32.8880   31.5310 H   0  0  0  0  0  0  0  0  0  0  0  0
  1  7  1  6  0  0  0
  1  6  1  0  0  0  0
  2  1  1  0  0  0  0
  2  3  1  0  0  0  0
  3 10  1  0  0  0  0
  3  4  1  0  0  0  0
  4  5  1  0  0  0  0
  4 13  1  0  0  0  0
  5 15  1  0  0  0  0
  5 14  1  0  0  0  0
  6 16  1  6  0  0  0
  6 17  1  0  0  0  0
  6  5  1  0  0  0  0
  8  2  1  0  0  0  0
  9  2  1  0  0  0  0
 11  3  1  0  0  0  0
 12  4  1  0  0  0  0
 17 19  1  0  0  0  0
 18 17  1  0  0  0  0
 20 17  1  0  0  0  0
 21  1  1  0  0  0  0
 22 21  1  0  0  0  0
 22 24  1  0  0  0  0
 22 25  1  0  0  0  0
 23 22  1  0  0  0  0
 25 30  1  0  0  0  0
 25 27  1  0  0  0  0
 26 25  1  0  0  0  0
 28 34  1  0  0  0  0
 29 28  1  0  0  0  0
 29 35  1  0  0  0  0
 30 29  2  0  0  0  0
 31 32  2  0  0  0  0
 31 30  1  0  0  0  0
 32 33  1  0  0  0  0
 33 28  2  0  0  0  0
 36 32  1  0  0  0  0
M  END
>  <minimizedAffinity>
-4.45711994

$$$$

 OpenBabel03272509273D

 36 37  0  0  1  0  0  0  0  0999 V2000
   37.4600   24.9270   32.9380 C   0  0  2  0  0  0  0  0  0  0  0  0
   36.4200   25.1350   31.8680 C   0  0  0  0  0  0  0  0  0  0  0  0
   36.2390   26.5890   31.5720 C   0  0  0  0  0  0  0  0  0  0  0  0
   36.5400   27.4430   32.7560 C   0  0  0  0  0  0  0  0  0  0  0  0
   38.0350   27.4010   32.7580 C   0  0  0  0  0  0  0  0  0  0  0  0
   38.4010   25.9870   33.1590 C   0  0  1  0  0  0  0  0  0  0  0  0
   36.8850   24.6530   33.8500 H   0  0  0  0  0  0  0  0  0  0  0  0
   35.4160   24.7120   32.1430 H   0  0  0  0  0  0  0  0  0  0  0  0
   36.6880   24.6080   30.9310 H   0  0  0  0  0  0  0  0  0  0  0  0
   36.8790   26.8400   30.6830 H   0  0  0  0  0  0  0  0  0  0  0  0
   35.2140   26.7800   31.2720 H   0  0  0  0  0  0  0  0  0  0  0  0
   36.1340   26.9690   33.6520 H   0  0  0  0  0  0  0  0  0  0  0  0
   36.1440   28.4820   32.6370 H   0  0  0  0  0  0  0  0  0  0  0  0
   38.4590   28.1880   33.3730 H   0  0  0  0  0  0  0  0  0  0  0  0
   38.4280   27.5940   31.7160 H   0  0  0  0  0  0  0  0  0  0  0  0
   39.3680   25.7790   32.6590 H   0  0  0  0  0  0  0  0  0  0  0  0
   38.6330   26.1690   34.6550 C   0  0  0  0  0  0  0  0  0  0  0  0
   38.8790   27.4940   34.9650 F   0  0  0  0  0  0  0  0  0  0  0  0
   37.4850   25.8880   35.4160 F   0  0  0  0  0  0  0  0  0  0  0  0
   39.5520   25.3210   35.2090 F   0  0  0  0  0  0  0  0  0  0  0  0
   38.3420   23.4030   32.4650 S   0  0  0  0  0  0  0  0  0  0  0  0
   38.7690   22.3170   33.7340 C   0  0  0  0  0  0  0  0  0  0  0  0
   39.5670   22.9750   34.2980 H   0  0  0  0  0  0  0  0  0  0  0  0
   39.3790   21.4210   33.5610 H   0  0  0  0  0  0  0  0  0  0  0  0
   37.7270   22.1270   34.8070 C   0  0  0  0  0  0  0  0  0  0  0  0
   36.9030   22.8590   34.5580 H   0  0  0  0  0  0  0  0  0  0  0  0
   37.3430   21.1120   34.9020 H   0  0  0  0  0  0  0  0  0  0  0  0
   37.9210   23.4720   38.2810 C   0  0  0  0  0  0  0  0  0  0  0  0
   37.4220   23.1040   37.0430 C   0  0  0  0  0  0  0  0  0  0  0  0
   38.2370   22.5260   36.1130 C   0  0  0  0  0  0  0  0  0  0  0  0
   39.5670   22.3320   36.4720 N   0  0  0  0  0  0  0  0  0  0  0  0
   40.0200   22.6950   37.6680 C   0  0  0  0  0  0  0  0  0  0  0  0
   39.2340   23.2660   38.5990 N   0  0  0  0  0  0  0  0  0  0  0  0
   37.4000   23.9380   39.1190 H   0  0  0  0  0  0  0  0  0  0  0  0
   36.3790   23.3810   37.0270 H   0  0  0  0  0  0  0  0  0  0  0  0
   41.0750   22.4990   37.8480 H   0  0  0  0  0  0  0  0  0  0  0  0
  1  6  1  0  0  0  0
  1  7  1  1  0  0  0
  2  8  1  0  0  0  0
  2  1  1  0  0  0  0
  3  2  1  0  0  0  0
  3  4  1  0  0  0  0
  4  5  1  0  0  0  0
  4 12  1  0  0  0  0
  5  6  1  0  0  0  0
  5 14  1  0  0  0  0
  6 16  1  6  0  0  0
  6 17  1  0  0  0  0
  9  2  1  0  0  0  0
 10  3  1  0  0  0  0
 11  3  1  0  0  0  0
 13  4  1  0  0  0  0
 15  5  1  0  0  0  0
 17 18  1  0  0  0  0
 17 20  1  0  0  0  0
 17 19  1  0  0  0  0
 21  1  1  0  0  0  0
 21 22  1  0  0  0  0
 22 23  1  0  0  0  0
 22 25  1  0  0  0  0
 24 22  1  0  0  0  0
 25 27  1  0  0  0  0
 25 30  1  0  0  0  0
 26 25  1  0  0  0  0
 28 33  1  0  0  0  0
 28 34  1  0  0  0  0
 29 28  2  0  0  0  0
 30 31  2  0  0  0  0
 30 29  1  0  0  0  0
 31 32  1  0  0  0  0
 32 36  1  0  0  0  0
 32 33  2  0  0  0  0
 35 29  1  0  0  0  0
M  END
>  <minimizedAffinity>
-4.45538187

$$$$
