
 OpenBabel03272506103D

 39 41  0  0  0  0  0  0  0  0999 V2000
   36.5820   28.1100   33.2700 C   0  0  0  0  0  0  0  0  0  0  0  0
   35.7270   27.9360   32.1210 C   0  0  0  0  0  0  0  0  0  0  0  0
   34.4470   29.0960   32.4870 S   0  0  0  0  0  0  0  0  0  0  0  0
   35.2000   29.6690   34.1150 C   0  0  0  0  0  0  0  0  0  0  0  0
   36.1740   28.9910   34.1370 N   0  0  0  0  0  0  0  0  0  0  0  0
   34.7460   30.6510   35.0820 N   0  0  0  0  0  0  0  0  0  0  0  0
   33.3350   30.8500   35.1760 C   0  0  0  0  0  0  0  0  0  0  0  0
   32.9280   32.0920   35.8900 C   0  0  0  0  0  0  0  0  0  0  0  0
   34.0400   32.9890   36.1590 N   0  0  0  0  0  0  0  0  0  0  0  0
   35.0070   32.1770   36.9040 C   0  0  0  0  0  0  0  0  0  0  0  0
   35.7240   31.3510   35.8720 C   0  0  0  0  0  0  0  0  0  0  0  0
   35.8750   27.2850   31.3190 H   0  0  0  0  0  0  0  0  0  0  0  0
   32.8410   29.9300   35.5820 H   0  0  0  0  0  0  0  0  0  0  0  0
   32.9450   30.9380   34.1200 H   0  0  0  0  0  0  0  0  0  0  0  0
   32.0930   32.6510   35.3850 H   0  0  0  0  0  0  0  0  0  0  0  0
   32.5250   31.8070   36.8950 H   0  0  0  0  0  0  0  0  0  0  0  0
   33.6670   33.7620   36.7680 H   0  0  0  0  0  0  0  0  0  0  0  0
   34.5280   31.4970   37.6110 H   0  0  0  0  0  0  0  0  0  0  0  0
   35.7290   32.8770   37.3790 H   0  0  0  0  0  0  0  0  0  0  0  0
   36.5280   30.7170   36.2770 H   0  0  0  0  0  0  0  0  0  0  0  0
   36.2200   32.0820   35.1700 H   0  0  0  0  0  0  0  0  0  0  0  0
   37.8330   27.2970   33.3840 C   0  0  0  0  0  0  0  0  0  0  0  0
   38.6430   27.7420   32.7600 H   0  0  0  0  0  0  0  0  0  0  0  0
   37.6600   26.2850   32.9380 H   0  0  0  0  0  0  0  0  0  0  0  0
   38.2840   27.1630   34.7890 C   0  0  0  0  0  0  0  0  0  0  0  0
   39.2910   27.5120   35.0080 H   0  0  0  0  0  0  0  0  0  0  0  0
   37.5640   27.6880   35.4730 H   0  0  0  0  0  0  0  0  0  0  0  0
   38.1780   23.4420   34.7090 C   0  0  0  0  0  0  0  0  0  0  0  0
   38.1660   23.1130   36.0680 C   0  0  0  0  0  0  0  0  0  0  0  0
   38.1950   24.1710   37.0060 C   0  0  0  0  0  0  0  0  0  0  0  0
   38.2320   25.4480   36.5440 N   0  0  0  0  0  0  0  0  0  0  0  0
   38.2420   25.7080   35.2100 C   0  0  0  0  0  0  0  0  0  0  0  0
   38.2160   24.7270   34.3210 N   0  0  0  0  0  0  0  0  0  0  0  0
   38.1570   22.6670   33.9640 H   0  0  0  0  0  0  0  0  0  0  0  0
   38.1360   22.0640   36.3630 H   0  0  0  0  0  0  0  0  0  0  0  0
   38.1830   23.8400   38.4540 C   0  0  0  0  0  0  0  0  0  0  0  0
   37.2600   22.8510   38.7260 F   0  0  0  0  0  0  0  0  0  0  0  0
   37.9320   24.9950   39.1690 F   0  0  0  0  0  0  0  0  0  0  0  0
   39.4580   23.3700   38.7720 F   0  0  0  0  0  0  0  0  0  0  0  0
  1 22  1  0  0  0  0
  1  5  1  0  0  0  0
  2  3  1  0  0  0  0
  2  1  2  0  0  0  0
  3  4  1  0  0  0  0
  4  5  2  0  0  0  0
  4  6  1  0  0  0  0
  6  7  1  0  0  0  0
  6 11  1  0  0  0  0
  7 13  1  0  0  0  0
  7  8  1  0  0  0  0
  8  9  1  0  0  0  0
  8 16  1  0  0  0  0
  9 17  1  0  0  0  0
  9 10  1  0  0  0  0
 10 19  1  0  0  0  0
 10 18  1  0  0  0  0
 11 20  1  0  0  0  0
 11 10  1  0  0  0  0
 12  2  1  0  0  0  0
 14  7  1  0  0  0  0
 15  8  1  0  0  0  0
 21 11  1  0  0  0  0
 22 25  1  0  0  0  0
 23 22  1  0  0  0  0
 24 22  1  0  0  0  0
 25 26  1  0  0  0  0
 25 32  1  0  0  0  0
 25 27  1  0  0  0  0
 28 29  1  0  0  0  0
 29 35  1  0  0  0  0
 29 30  2  0  0  0  0
 30 36  1  0  0  0  0
 31 30  1  0  0  0  0
 32 31  2  0  0  0  0
 33 28  2  0  0  0  0
 33 32  1  0  0  0  0
 34 28  1  0  0  0  0
 36 37  1  0  0  0  0
 36 39  1  0  0  0  0
 36 38  1  0  0  0  0
M  END
>  <minimizedAffinity>
-6.06080198

$$$$

 OpenBabel03272506103D

 39 41  0  0  0  0  0  0  0  0999 V2000
   36.6470   28.2330   33.2020 C   0  0  0  0  0  0  0  0  0  0  0  0
   35.6390   29.1910   32.8200 C   0  0  0  0  0  0  0  0  0  0  0  0
   36.0340   29.4200   31.1130 S   0  0  0  0  0  0  0  0  0  0  0  0
   37.4850   28.2200   31.1150 C   0  0  0  0  0  0  0  0  0  0  0  0
   37.4580   27.8720   32.2500 N   0  0  0  0  0  0  0  0  0  0  0  0
   38.3900   27.8180   30.0540 N   0  0  0  0  0  0  0  0  0  0  0  0
   38.6370   28.7780   29.0270 C   0  0  0  0  0  0  0  0  0  0  0  0
   39.2580   28.2210   27.7920 C   0  0  0  0  0  0  0  0  0  0  0  0
   39.2900   26.7680   27.7710 N   0  0  0  0  0  0  0  0  0  0  0  0
   39.9920   26.3890   29.0010 C   0  0  0  0  0  0  0  0  0  0  0  0
   38.9740   26.5030   30.1020 C   0  0  0  0  0  0  0  0  0  0  0  0
   34.8990   29.6030   33.4300 H   0  0  0  0  0  0  0  0  0  0  0  0
   39.1960   29.6540   29.4420 H   0  0  0  0  0  0  0  0  0  0  0  0
   37.6330   29.2000   28.7240 H   0  0  0  0  0  0  0  0  0  0  0  0
   38.8040   28.6130   26.8410 H   0  0  0  0  0  0  0  0  0  0  0  0
   40.3300   28.5430   27.7600 H   0  0  0  0  0  0  0  0  0  0  0  0
   39.8530   26.4880   26.9280 H   0  0  0  0  0  0  0  0  0  0  0  0
   40.8210   27.0590   29.2350 H   0  0  0  0  0  0  0  0  0  0  0  0
   40.2960   25.3250   28.8930 H   0  0  0  0  0  0  0  0  0  0  0  0
   39.3410   26.1980   31.0940 H   0  0  0  0  0  0  0  0  0  0  0  0
   38.1410   25.7880   29.8380 H   0  0  0  0  0  0  0  0  0  0  0  0
   36.6920   27.7370   34.6130 C   0  0  0  0  0  0  0  0  0  0  0  0
   35.9980   26.8730   34.7420 H   0  0  0  0  0  0  0  0  0  0  0  0
   36.2880   28.5250   35.2960 H   0  0  0  0  0  0  0  0  0  0  0  0
   38.0640   27.3590   35.0270 C   0  0  0  0  0  0  0  0  0  0  0  0
   38.8550   27.5440   34.3030 H   0  0  0  0  0  0  0  0  0  0  0  0
   38.3280   27.8750   35.9900 H   0  0  0  0  0  0  0  0  0  0  0  0
   38.1730   23.6530   34.6820 C   0  0  0  0  0  0  0  0  0  0  0  0
   38.2200   23.2290   36.0140 C   0  0  0  0  0  0  0  0  0  0  0  0
   38.2140   24.2180   37.0240 C   0  0  0  0  0  0  0  0  0  0  0  0
   38.1630   25.5240   36.6540 N   0  0  0  0  0  0  0  0  0  0  0  0
   38.1190   25.8770   35.3430 C   0  0  0  0  0  0  0  0  0  0  0  0
   38.1250   24.9620   34.3870 N   0  0  0  0  0  0  0  0  0  0  0  0
   38.1760   22.9330   33.8840 H   0  0  0  0  0  0  0  0  0  0  0  0
   38.2600   22.1620   36.2330 H   0  0  0  0  0  0  0  0  0  0  0  0
   38.2630   23.7860   38.4450 C   0  0  0  0  0  0  0  0  0  0  0  0
   37.3050   22.8260   38.7020 F   0  0  0  0  0  0  0  0  0  0  0  0
   38.1130   24.8980   39.2500 F   0  0  0  0  0  0  0  0  0  0  0  0
   39.5270   23.2320   38.6560 F   0  0  0  0  0  0  0  0  0  0  0  0
  1 22  1  0  0  0  0
  2  1  2  0  0  0  0
  2 12  1  0  0  0  0
  3  4  1  0  0  0  0
  3  2  1  0  0  0  0
  4  5  2  0  0  0  0
  5  1  1  0  0  0  0
  6 11  1  0  0  0  0
  6  4  1  0  0  0  0
  7 13  1  0  0  0  0
  7  6  1  0  0  0  0
  8  7  1  0  0  0  0
  9  8  1  0  0  0  0
  9 10  1  0  0  0  0
 10 18  1  0  0  0  0
 10 11  1  0  0  0  0
 11 20  1  0  0  0  0
 14  7  1  0  0  0  0
 15  8  1  0  0  0  0
 16  8  1  0  0  0  0
 17  9  1  0  0  0  0
 19 10  1  0  0  0  0
 21 11  1  0  0  0  0
 22 23  1  0  0  0  0
 22 25  1  0  0  0  0
 22 24  1  0  0  0  0
 25 32  1  0  0  0  0
 25 27  1  0  0  0  0
 26 25  1  0  0  0  0
 28 29  1  0  0  0  0
 29 35  1  0  0  0  0
 29 30  2  0  0  0  0
 30 36  1  0  0  0  0
 31 30  1  0  0  0  0
 32 31  2  0  0  0  0
 33 28  2  0  0  0  0
 33 32  1  0  0  0  0
 34 28  1  0  0  0  0
 36 39  1  0  0  0  0
 36 37  1  0  0  0  0
 36 38  1  0  0  0  0
M  END
>  <minimizedAffinity>
-6.00053406

$$$$

 OpenBabel03272506103D

 39 41  0  0  0  0  0  0  0  0999 V2000
   37.2960   25.8760   33.0390 C   0  0  0  0  0  0  0  0  0  0  0  0
   37.0140   27.1580   33.6370 C   0  0  0  0  0  0  0  0  0  0  0  0
   37.4950   26.8540   35.3090 S   0  0  0  0  0  0  0  0  0  0  0  0
   38.0100   25.0670   35.0120 C   0  0  0  0  0  0  0  0  0  0  0  0
   37.7740   24.9790   33.8510 N   0  0  0  0  0  0  0  0  0  0  0  0
   38.5440   24.0650   35.9170 N   0  0  0  0  0  0  0  0  0  0  0  0
   38.1550   24.1720   37.2870 C   0  0  0  0  0  0  0  0  0  0  0  0
   38.9890   23.3780   38.2320 C   0  0  0  0  0  0  0  0  0  0  0  0
   40.1830   22.8220   37.6180 N   0  0  0  0  0  0  0  0  0  0  0  0
   39.6920   22.0440   36.4760 C   0  0  0  0  0  0  0  0  0  0  0  0
   39.4130   23.0470   35.3900 C   0  0  0  0  0  0  0  0  0  0  0  0
   36.6290   28.0040   33.1610 H   0  0  0  0  0  0  0  0  0  0  0  0
   37.0590   23.9710   37.3950 H   0  0  0  0  0  0  0  0  0  0  0  0
   38.2750   25.2560   37.5790 H   0  0  0  0  0  0  0  0  0  0  0  0
   39.2580   23.9320   39.1730 H   0  0  0  0  0  0  0  0  0  0  0  0
   38.3910   22.4940   38.5740 H   0  0  0  0  0  0  0  0  0  0  0  0
   40.6250   22.1860   38.3290 H   0  0  0  0  0  0  0  0  0  0  0  0
   38.7630   21.5160   36.6960 H   0  0  0  0  0  0  0  0  0  0  0  0
   40.5190   21.3750   36.1520 H   0  0  0  0  0  0  0  0  0  0  0  0
   39.0810   22.6050   34.4380 H   0  0  0  0  0  0  0  0  0  0  0  0
   40.3950   23.5620   35.1760 H   0  0  0  0  0  0  0  0  0  0  0  0
   37.0290   25.6700   31.5810 C   0  0  0  0  0  0  0  0  0  0  0  0
   37.9400   25.2770   31.0730 H   0  0  0  0  0  0  0  0  0  0  0  0
   36.8430   26.6610   31.0950 H   0  0  0  0  0  0  0  0  0  0  0  0
   35.8800   24.7650   31.3470 C   0  0  0  0  0  0  0  0  0  0  0  0
   35.0980   24.7720   32.1050 H   0  0  0  0  0  0  0  0  0  0  0  0
   35.4150   24.9880   30.3480 H   0  0  0  0  0  0  0  0  0  0  0  0
   37.9460   21.7510   30.6380 C   0  0  0  0  0  0  0  0  0  0  0  0
   37.1400   20.7140   31.1200 C   0  0  0  0  0  0  0  0  0  0  0  0
   35.8910   21.0560   31.6870 C   0  0  0  0  0  0  0  0  0  0  0  0
   35.5360   22.3670   31.7350 N   0  0  0  0  0  0  0  0  0  0  0  0
   36.3610   23.3320   31.2500 C   0  0  0  0  0  0  0  0  0  0  0  0
   37.5340   23.0260   30.7170 N   0  0  0  0  0  0  0  0  0  0  0  0
   38.9030   21.5330   30.1980 H   0  0  0  0  0  0  0  0  0  0  0  0
   37.4930   19.6860   31.0470 H   0  0  0  0  0  0  0  0  0  0  0  0
   35.0220   19.9680   32.2050 C   0  0  0  0  0  0  0  0  0  0  0  0
   33.6930   20.2270   31.9340 F   0  0  0  0  0  0  0  0  0  0  0  0
   35.2560   19.8230   33.5580 F   0  0  0  0  0  0  0  0  0  0  0  0
   35.4000   18.7990   31.5440 F   0  0  0  0  0  0  0  0  0  0  0  0
  1  2  2  0  0  0  0
  1  5  1  0  0  0  0
  2  3  1  0  0  0  0
  4  3  1  0  0  0  0
  4  6  1  0  0  0  0
  5  4  2  0  0  0  0
  6  7  1  0  0  0  0
  7 13  1  0  0  0  0
  7 14  1  0  0  0  0
  7  8  1  0  0  0  0
  8 16  1  0  0  0  0
  8 15  1  0  0  0  0
  9  8  1  0  0  0  0
  9 17  1  0  0  0  0
 10 18  1  0  0  0  0
 10  9  1  0  0  0  0
 11  6  1  0  0  0  0
 11 10  1  0  0  0  0
 12  2  1  0  0  0  0
 19 10  1  0  0  0  0
 20 11  1  0  0  0  0
 21 11  1  0  0  0  0
 22  1  1  0  0  0  0
 23 22  1  0  0  0  0
 24 22  1  0  0  0  0
 25 22  1  0  0  0  0
 25 26  1  0  0  0  0
 27 25  1  0  0  0  0
 28 33  2  0  0  0  0
 28 29  1  0  0  0  0
 29 30  2  0  0  0  0
 30 31  1  0  0  0  0
 30 36  1  0  0  0  0
 32 25  1  0  0  0  0
 32 31  2  0  0  0  0
 33 32  1  0  0  0  0
 34 28  1  0  0  0  0
 35 29  1  0  0  0  0
 36 38  1  0  0  0  0
 37 36  1  0  0  0  0
 39 36  1  0  0  0  0
M  END
>  <minimizedAffinity>
-5.68568659

$$$$

 OpenBabel03272506103D

 39 41  0  0  0  0  0  0  0  0999 V2000
   37.3780   22.6360   32.4780 C   0  0  0  0  0  0  0  0  0  0  0  0
   37.9700   21.6830   31.5710 C   0  0  0  0  0  0  0  0  0  0  0  0
   39.3110   21.0860   32.5520 S   0  0  0  0  0  0  0  0  0  0  0  0
   38.9260   22.1720   34.0420 C   0  0  0  0  0  0  0  0  0  0  0  0
   37.9700   22.7450   33.6320 N   0  0  0  0  0  0  0  0  0  0  0  0
   39.5850   22.2940   35.3290 N   0  0  0  0  0  0  0  0  0  0  0  0
   40.9860   22.0210   35.3570 C   0  0  0  0  0  0  0  0  0  0  0  0
   41.5480   21.7970   36.7180 C   0  0  0  0  0  0  0  0  0  0  0  0
   40.5290   21.6720   37.7470 N   0  0  0  0  0  0  0  0  0  0  0  0
   39.7320   22.8980   37.6380 C   0  0  0  0  0  0  0  0  0  0  0  0
   38.8030   22.6770   36.4750 C   0  0  0  0  0  0  0  0  0  0  0  0
   37.6480   21.4490   30.6060 H   0  0  0  0  0  0  0  0  0  0  0  0
   41.5440   22.7980   34.7750 H   0  0  0  0  0  0  0  0  0  0  0  0
   41.1450   21.0640   34.7780 H   0  0  0  0  0  0  0  0  0  0  0  0
   42.2650   20.9320   36.7750 H   0  0  0  0  0  0  0  0  0  0  0  0
   42.1510   22.6960   37.0040 H   0  0  0  0  0  0  0  0  0  0  0  0
   41.0300   21.6440   38.6710 H   0  0  0  0  0  0  0  0  0  0  0  0
   40.3410   23.7770   37.4230 H   0  0  0  0  0  0  0  0  0  0  0  0
   39.1340   22.9870   38.5710 H   0  0  0  0  0  0  0  0  0  0  0  0
   38.0960   23.5000   36.2960 H   0  0  0  0  0  0  0  0  0  0  0  0
   38.1790   21.7730   36.7360 H   0  0  0  0  0  0  0  0  0  0  0  0
   36.1700   23.4080   32.0470 C   0  0  0  0  0  0  0  0  0  0  0  0
   35.6970   23.9070   32.9250 H   0  0  0  0  0  0  0  0  0  0  0  0
   35.3890   22.6970   31.6750 H   0  0  0  0  0  0  0  0  0  0  0  0
   36.4900   24.4050   31.0000 C   0  0  0  0  0  0  0  0  0  0  0  0
   37.4510   24.2900   30.5020 H   0  0  0  0  0  0  0  0  0  0  0  0
   35.6800   24.4160   30.2220 H   0  0  0  0  0  0  0  0  0  0  0  0
   35.9980   28.0650   31.4770 C   0  0  0  0  0  0  0  0  0  0  0  0
   36.5320   28.2760   32.7520 C   0  0  0  0  0  0  0  0  0  0  0  0
   37.0580   27.1590   33.4420 C   0  0  0  0  0  0  0  0  0  0  0  0
   37.0200   25.9440   32.8370 N   0  0  0  0  0  0  0  0  0  0  0  0
   36.4890   25.7990   31.5950 C   0  0  0  0  0  0  0  0  0  0  0  0
   35.9920   26.8360   30.9370 N   0  0  0  0  0  0  0  0  0  0  0  0
   35.5880   28.8870   30.9180 H   0  0  0  0  0  0  0  0  0  0  0  0
   36.5260   29.2810   33.1730 H   0  0  0  0  0  0  0  0  0  0  0  0
   37.6280   27.3650   34.7990 C   0  0  0  0  0  0  0  0  0  0  0  0
   37.1030   28.4960   35.3890 F   0  0  0  0  0  0  0  0  0  0  0  0
   39.0040   27.4260   34.6940 F   0  0  0  0  0  0  0  0  0  0  0  0
   37.2730   26.2510   35.5600 F   0  0  0  0  0  0  0  0  0  0  0  0
  1  5  1  0  0  0  0
  2  1  2  0  0  0  0
  2  3  1  0  0  0  0
  3  4  1  0  0  0  0
  4  6  1  0  0  0  0
  5  4  2  0  0  0  0
  6  7  1  0  0  0  0
  6 11  1  0  0  0  0
  7  8  1  0  0  0  0
  8 15  1  0  0  0  0
  8 16  1  0  0  0  0
  8  9  1  0  0  0  0
  9 17  1  0  0  0  0
 10  9  1  0  0  0  0
 10 19  1  0  0  0  0
 11 21  1  0  0  0  0
 11 10  1  0  0  0  0
 12  2  1  0  0  0  0
 13  7  1  0  0  0  0
 14  7  1  0  0  0  0
 18 10  1  0  0  0  0
 20 11  1  0  0  0  0
 22  1  1  0  0  0  0
 22 23  1  0  0  0  0
 24 22  1  0  0  0  0
 25 32  1  0  0  0  0
 25 22  1  0  0  0  0
 26 25  1  0  0  0  0
 27 25  1  0  0  0  0
 28 29  1  0  0  0  0
 29 35  1  0  0  0  0
 29 30  2  0  0  0  0
 30 36  1  0  0  0  0
 31 30  1  0  0  0  0
 32 31  2  0  0  0  0
 33 28  2  0  0  0  0
 33 32  1  0  0  0  0
 34 28  1  0  0  0  0
 36 37  1  0  0  0  0
 36 39  1  0  0  0  0
 38 36  1  0  0  0  0
M  END
>  <minimizedAffinity>
-5.67248297

$$$$

 OpenBabel03272506103D

 39 41  0  0  0  0  0  0  0  0999 V2000
   36.6830   27.8840   32.5090 C   0  0  0  0  0  0  0  0  0  0  0  0
   35.7570   28.8210   33.0980 C   0  0  0  0  0  0  0  0  0  0  0  0
   35.8630   30.1550   31.9460 S   0  0  0  0  0  0  0  0  0  0  0  0
   37.1190   29.3100   30.8260 C   0  0  0  0  0  0  0  0  0  0  0  0
   37.2530   28.2840   31.4100 N   0  0  0  0  0  0  0  0  0  0  0  0
   37.7560   29.7550   29.6000 N   0  0  0  0  0  0  0  0  0  0  0  0
   37.9360   31.1640   29.4500 C   0  0  0  0  0  0  0  0  0  0  0  0
   38.2440   31.6060   28.0620 C   0  0  0  0  0  0  0  0  0  0  0  0
   38.0800   30.5530   27.0740 N   0  0  0  0  0  0  0  0  0  0  0  0
   38.9360   29.4590   27.5420 C   0  0  0  0  0  0  0  0  0  0  0  0
   38.1590   28.7710   28.6300 C   0  0  0  0  0  0  0  0  0  0  0  0
   35.2010   28.6920   33.9720 H   0  0  0  0  0  0  0  0  0  0  0  0
   38.6730   31.5410   30.2040 H   0  0  0  0  0  0  0  0  0  0  0  0
   36.9600   31.6520   29.7390 H   0  0  0  0  0  0  0  0  0  0  0  0
   37.6820   32.5270   27.7450 H   0  0  0  0  0  0  0  0  0  0  0  0
   39.3260   31.8930   28.0130 H   0  0  0  0  0  0  0  0  0  0  0  0
   38.4390   30.9320   26.1600 H   0  0  0  0  0  0  0  0  0  0  0  0
   39.8750   29.8150   27.9690 H   0  0  0  0  0  0  0  0  0  0  0  0
   39.0720   28.7580   26.6900 H   0  0  0  0  0  0  0  0  0  0  0  0
   38.6560   27.8850   29.0530 H   0  0  0  0  0  0  0  0  0  0  0  0
   37.2040   28.4020   28.1530 H   0  0  0  0  0  0  0  0  0  0  0  0
   36.9160   26.5650   33.1760 C   0  0  0  0  0  0  0  0  0  0  0  0
   37.5620   25.9170   32.5370 H   0  0  0  0  0  0  0  0  0  0  0  0
   35.9480   26.0090   33.2490 H   0  0  0  0  0  0  0  0  0  0  0  0
   37.5160   26.7190   34.5220 C   0  0  0  0  0  0  0  0  0  0  0  0
   38.4040   27.3450   34.5850 H   0  0  0  0  0  0  0  0  0  0  0  0
   36.7460   27.1130   35.2400 H   0  0  0  0  0  0  0  0  0  0  0  0
   38.6180   23.1720   34.7730 C   0  0  0  0  0  0  0  0  0  0  0  0
   38.6170   22.9540   36.1550 C   0  0  0  0  0  0  0  0  0  0  0  0
   38.2380   24.0280   36.9930 C   0  0  0  0  0  0  0  0  0  0  0  0
   37.8950   25.2110   36.4200 N   0  0  0  0  0  0  0  0  0  0  0  0
   37.9150   25.3640   35.0700 C   0  0  0  0  0  0  0  0  0  0  0  0
   38.2680   24.3670   34.2730 N   0  0  0  0  0  0  0  0  0  0  0  0
   38.8990   22.3820   34.1000 H   0  0  0  0  0  0  0  0  0  0  0  0
   38.9050   21.9770   36.5410 H   0  0  0  0  0  0  0  0  0  0  0  0
   38.2320   23.8160   38.4640 C   0  0  0  0  0  0  0  0  0  0  0  0
   37.3190   22.8430   38.8170 F   0  0  0  0  0  0  0  0  0  0  0  0
   37.9700   25.0220   39.0830 F   0  0  0  0  0  0  0  0  0  0  0  0
   39.5110   23.3850   38.8160 F   0  0  0  0  0  0  0  0  0  0  0  0
  1  2  2  0  0  0  0
  1 22  1  0  0  0  0
  2 12  1  0  0  0  0
  3  2  1  0  0  0  0
  4  5  2  0  0  0  0
  4  3  1  0  0  0  0
  5  1  1  0  0  0  0
  6  4  1  0  0  0  0
  7  6  1  0  0  0  0
  7 14  1  0  0  0  0
  7 13  1  0  0  0  0
  8  7  1  0  0  0  0
  9 10  1  0  0  0  0
  9  8  1  0  0  0  0
 10 18  1  0  0  0  0
 10 11  1  0  0  0  0
 11 20  1  0  0  0  0
 11  6  1  0  0  0  0
 15  8  1  0  0  0  0
 16  8  1  0  0  0  0
 17  9  1  0  0  0  0
 19 10  1  0  0  0  0
 21 11  1  0  0  0  0
 22 24  1  0  0  0  0
 22 25  1  0  0  0  0
 23 22  1  0  0  0  0
 25 26  1  0  0  0  0
 25 32  1  0  0  0  0
 25 27  1  0  0  0  0
 28 29  1  0  0  0  0
 29 35  1  0  0  0  0
 29 30  2  0  0  0  0
 30 36  1  0  0  0  0
 31 30  1  0  0  0  0
 32 31  2  0  0  0  0
 33 28  2  0  0  0  0
 33 32  1  0  0  0  0
 34 28  1  0  0  0  0
 36 39  1  0  0  0  0
 36 37  1  0  0  0  0
 36 38  1  0  0  0  0
M  END
>  <minimizedAffinity>
-5.65250254

$$$$

 OpenBabel03272506103D

 39 41  0  0  0  0  0  0  0  0999 V2000
   37.2250   27.5140   34.2830 C   0  0  0  0  0  0  0  0  0  0  0  0
   36.8070   27.1850   32.9420 C   0  0  0  0  0  0  0  0  0  0  0  0
   35.6490   28.4810   32.6310 S   0  0  0  0  0  0  0  0  0  0  0  0
   35.8580   29.3000   34.3140 C   0  0  0  0  0  0  0  0  0  0  0  0
   36.6630   28.5710   34.7950 N   0  0  0  0  0  0  0  0  0  0  0  0
   35.2330   30.4780   34.8860 N   0  0  0  0  0  0  0  0  0  0  0  0
   33.9180   30.7900   34.4250 C   0  0  0  0  0  0  0  0  0  0  0  0
   33.4600   32.1720   34.7410 C   0  0  0  0  0  0  0  0  0  0  0  0
   34.5180   33.0230   35.2590 N   0  0  0  0  0  0  0  0  0  0  0  0
   35.0470   32.3020   36.4210 C   0  0  0  0  0  0  0  0  0  0  0  0
   35.9600   31.2450   35.8630 C   0  0  0  0  0  0  0  0  0  0  0  0
   37.1360   26.3840   32.3590 H   0  0  0  0  0  0  0  0  0  0  0  0
   33.1950   30.0030   34.7560 H   0  0  0  0  0  0  0  0  0  0  0  0
   33.9360   30.7030   33.2980 H   0  0  0  0  0  0  0  0  0  0  0  0
   32.9360   32.6810   33.8870 H   0  0  0  0  0  0  0  0  0  0  0  0
   32.6980   32.1130   35.5600 H   0  0  0  0  0  0  0  0  0  0  0  0
   34.0660   33.9220   35.5630 H   0  0  0  0  0  0  0  0  0  0  0  0
   34.2650   31.8050   36.9980 H   0  0  0  0  0  0  0  0  0  0  0  0
   35.6460   33.0260   37.0150 H   0  0  0  0  0  0  0  0  0  0  0  0
   36.4800   30.6450   36.6250 H   0  0  0  0  0  0  0  0  0  0  0  0
   36.7630   31.7920   35.2880 H   0  0  0  0  0  0  0  0  0  0  0  0
   38.2360   26.6510   34.9710 C   0  0  0  0  0  0  0  0  0  0  0  0
   38.3040   26.9200   36.0510 H   0  0  0  0  0  0  0  0  0  0  0  0
   39.2540   26.8750   34.5620 H   0  0  0  0  0  0  0  0  0  0  0  0
   37.9330   25.2090   34.8190 C   0  0  0  0  0  0  0  0  0  0  0  0
   36.8860   24.9490   34.6760 H   0  0  0  0  0  0  0  0  0  0  0  0
   38.5300   24.7810   33.9680 H   0  0  0  0  0  0  0  0  0  0  0  0
   38.1350   23.8190   38.2660 C   0  0  0  0  0  0  0  0  0  0  0  0
   39.3020   23.0500   38.2120 C   0  0  0  0  0  0  0  0  0  0  0  0
   40.0130   23.0120   36.9910 C   0  0  0  0  0  0  0  0  0  0  0  0
   39.5320   23.7210   35.9360 N   0  0  0  0  0  0  0  0  0  0  0  0
   38.3920   24.4510   36.0480 C   0  0  0  0  0  0  0  0  0  0  0  0
   37.7150   24.4950   37.1860 N   0  0  0  0  0  0  0  0  0  0  0  0
   37.5650   23.8750   39.1770 H   0  0  0  0  0  0  0  0  0  0  0  0
   39.6250   22.5070   39.1000 H   0  0  0  0  0  0  0  0  0  0  0  0
   41.2540   22.2000   36.9140 C   0  0  0  0  0  0  0  0  0  0  0  0
   41.3110   21.4960   35.7280 F   0  0  0  0  0  0  0  0  0  0  0  0
   41.3050   21.3660   38.0140 F   0  0  0  0  0  0  0  0  0  0  0  0
   42.3260   23.0920   36.9630 F   0  0  0  0  0  0  0  0  0  0  0  0
  1  5  1  0  0  0  0
  1 22  1  0  0  0  0
  2  1  2  0  0  0  0
  3  2  1  0  0  0  0
  3  4  1  0  0  0  0
  4  5  2  0  0  0  0
  4  6  1  0  0  0  0
  6 11  1  0  0  0  0
  7  8  1  0  0  0  0
  7 13  1  0  0  0  0
  7  6  1  0  0  0  0
  8  9  1  0  0  0  0
  8 16  1  0  0  0  0
  9 17  1  0  0  0  0
  9 10  1  0  0  0  0
 10 18  1  0  0  0  0
 10 19  1  0  0  0  0
 11 10  1  0  0  0  0
 11 20  1  0  0  0  0
 12  2  1  0  0  0  0
 14  7  1  0  0  0  0
 15  8  1  0  0  0  0
 21 11  1  0  0  0  0
 22 23  1  0  0  0  0
 24 22  1  0  0  0  0
 25 22  1  0  0  0  0
 25 32  1  0  0  0  0
 26 25  1  0  0  0  0
 27 25  1  0  0  0  0
 28 34  1  0  0  0  0
 29 28  1  0  0  0  0
 29 35  1  0  0  0  0
 30 29  2  0  0  0  0
 31 32  2  0  0  0  0
 31 30  1  0  0  0  0
 32 33  1  0  0  0  0
 33 28  2  0  0  0  0
 36 39  1  0  0  0  0
 36 30  1  0  0  0  0
 36 38  1  0  0  0  0
 37 36  1  0  0  0  0
M  END
>  <minimizedAffinity>
-5.61784554

$$$$

 OpenBabel03272506103D

 39 41  0  0  0  0  0  0  0  0999 V2000
   36.7620   27.4950   34.0350 C   0  0  0  0  0  0  0  0  0  0  0  0
   36.7040   27.1460   32.6360 C   0  0  0  0  0  0  0  0  0  0  0  0
   37.4260   25.5350   32.6710 S   0  0  0  0  0  0  0  0  0  0  0  0
   37.7180   25.5210   34.5320 C   0  0  0  0  0  0  0  0  0  0  0  0
   37.2840   26.5910   34.8110 N   0  0  0  0  0  0  0  0  0  0  0  0
   38.3000   24.5130   35.3980 N   0  0  0  0  0  0  0  0  0  0  0  0
   39.2770   23.6540   34.8110 C   0  0  0  0  0  0  0  0  0  0  0  0
   39.5770   22.4250   35.5980 C   0  0  0  0  0  0  0  0  0  0  0  0
   38.6570   22.2120   36.7030 N   0  0  0  0  0  0  0  0  0  0  0  0
   38.7270   23.4450   37.4940 C   0  0  0  0  0  0  0  0  0  0  0  0
   37.8660   24.4430   36.7690 C   0  0  0  0  0  0  0  0  0  0  0  0
   36.3250   27.7280   31.8570 H   0  0  0  0  0  0  0  0  0  0  0  0
   40.1950   24.2380   34.5440 H   0  0  0  0  0  0  0  0  0  0  0  0
   38.8600   23.3110   33.8190 H   0  0  0  0  0  0  0  0  0  0  0  0
   39.6540   21.4950   34.9720 H   0  0  0  0  0  0  0  0  0  0  0  0
   40.5860   22.5450   36.0700 H   0  0  0  0  0  0  0  0  0  0  0  0
   39.0300   21.4010   37.2590 H   0  0  0  0  0  0  0  0  0  0  0  0
   39.7390   23.8490   37.5530 H   0  0  0  0  0  0  0  0  0  0  0  0
   38.2760   23.2260   38.4860 H   0  0  0  0  0  0  0  0  0  0  0  0
   37.7760   25.4160   37.2740 H   0  0  0  0  0  0  0  0  0  0  0  0
   36.8270   24.0020   36.7390 H   0  0  0  0  0  0  0  0  0  0  0  0
   36.2400   28.8250   34.4820 C   0  0  0  0  0  0  0  0  0  0  0  0
   37.0810   29.4860   34.7940 H   0  0  0  0  0  0  0  0  0  0  0  0
   35.6310   28.6900   35.4110 H   0  0  0  0  0  0  0  0  0  0  0  0
   35.4280   29.4860   33.4330 C   0  0  0  0  0  0  0  0  0  0  0  0
   35.7120   30.5030   33.1740 H   0  0  0  0  0  0  0  0  0  0  0  0
   35.4310   28.8610   32.4990 H   0  0  0  0  0  0  0  0  0  0  0  0
   31.7120   29.2590   33.4480 C   0  0  0  0  0  0  0  0  0  0  0  0
   31.3890   29.7010   34.7350 C   0  0  0  0  0  0  0  0  0  0  0  0
   32.4510   30.0740   35.5920 C   0  0  0  0  0  0  0  0  0  0  0  0
   33.7240   29.9860   35.1260 N   0  0  0  0  0  0  0  0  0  0  0  0
   33.9770   29.5490   33.8650 C   0  0  0  0  0  0  0  0  0  0  0  0
   32.9930   29.1970   33.0520 N   0  0  0  0  0  0  0  0  0  0  0  0
   30.9350   28.9670   32.7640 H   0  0  0  0  0  0  0  0  0  0  0  0
   30.3440   29.7440   35.0380 H   0  0  0  0  0  0  0  0  0  0  0  0
   32.1270   30.5450   36.9630 C   0  0  0  0  0  0  0  0  0  0  0  0
   30.9670   31.2940   36.9670 F   0  0  0  0  0  0  0  0  0  0  0  0
   33.2050   31.2560   37.4520 F   0  0  0  0  0  0  0  0  0  0  0  0
   31.9330   29.4060   37.7470 F   0  0  0  0  0  0  0  0  0  0  0  0
  1 22  1  0  0  0  0
  1  5  1  0  0  0  0
  2  3  1  0  0  0  0
  2  1  2  0  0  0  0
  3  4  1  0  0  0  0
  4  5  2  0  0  0  0
  4  6  1  0  0  0  0
  6 11  1  0  0  0  0
  7  6  1  0  0  0  0
  7  8  1  0  0  0  0
  8 16  1  0  0  0  0
  8  9  1  0  0  0  0
  9 17  1  0  0  0  0
  9 10  1  0  0  0  0
 10 18  1  0  0  0  0
 10 19  1  0  0  0  0
 11 20  1  0  0  0  0
 11 10  1  0  0  0  0
 12  2  1  0  0  0  0
 13  7  1  0  0  0  0
 14  7  1  0  0  0  0
 15  8  1  0  0  0  0
 21 11  1  0  0  0  0
 22 23  1  0  0  0  0
 22 24  1  0  0  0  0
 25 32  1  0  0  0  0
 25 22  1  0  0  0  0
 26 25  1  0  0  0  0
 27 25  1  0  0  0  0
 28 29  1  0  0  0  0
 29 35  1  0  0  0  0
 29 30  2  0  0  0  0
 30 36  1  0  0  0  0
 31 30  1  0  0  0  0
 32 31  2  0  0  0  0
 33 28  2  0  0  0  0
 33 32  1  0  0  0  0
 34 28  1  0  0  0  0
 36 37  1  0  0  0  0
 36 38  1  0  0  0  0
 36 39  1  0  0  0  0
M  END
>  <minimizedAffinity>
-5.61737776

$$$$

 OpenBabel03272506103D

 39 41  0  0  0  0  0  0  0  0999 V2000
   37.5770   24.0230   32.6260 C   0  0  0  0  0  0  0  0  0  0  0  0
   38.3230   23.0440   31.8730 C   0  0  0  0  0  0  0  0  0  0  0  0
   39.2680   22.2910   33.1610 S   0  0  0  0  0  0  0  0  0  0  0  0
   38.5610   23.3640   34.5380 C   0  0  0  0  0  0  0  0  0  0  0  0
   37.8170   24.0390   33.9050 N   0  0  0  0  0  0  0  0  0  0  0  0
   38.8280   23.3830   35.9640 N   0  0  0  0  0  0  0  0  0  0  0  0
   40.1330   22.9740   36.3750 C   0  0  0  0  0  0  0  0  0  0  0  0
   40.2560   22.6570   37.8250 C   0  0  0  0  0  0  0  0  0  0  0  0
   38.9770   22.6010   38.5110 N   0  0  0  0  0  0  0  0  0  0  0  0
   38.3510   23.9000   38.2490 C   0  0  0  0  0  0  0  0  0  0  0  0
   37.7830   23.8050   36.8590 C   0  0  0  0  0  0  0  0  0  0  0  0
   38.2760   22.8710   30.8450 H   0  0  0  0  0  0  0  0  0  0  0  0
   40.8980   23.7110   36.0210 H   0  0  0  0  0  0  0  0  0  0  0  0
   40.3710   22.0250   35.8120 H   0  0  0  0  0  0  0  0  0  0  0  0
   40.8510   21.7250   38.0340 H   0  0  0  0  0  0  0  0  0  0  0  0
   40.8250   23.4850   38.3210 H   0  0  0  0  0  0  0  0  0  0  0  0
   39.1850   22.4970   39.5370 H   0  0  0  0  0  0  0  0  0  0  0  0
   39.0680   24.7230   38.2670 H   0  0  0  0  0  0  0  0  0  0  0  0
   37.5190   24.0190   38.9770 H   0  0  0  0  0  0  0  0  0  0  0  0
   37.2300   24.6990   36.5330 H   0  0  0  0  0  0  0  0  0  0  0  0
   37.0360   22.9590   36.8800 H   0  0  0  0  0  0  0  0  0  0  0  0
   36.6140   24.9200   31.9130 C   0  0  0  0  0  0  0  0  0  0  0  0
   35.9850   25.4740   32.6480 H   0  0  0  0  0  0  0  0  0  0  0  0
   35.8860   24.2980   31.3340 H   0  0  0  0  0  0  0  0  0  0  0  0
   37.3040   25.8700   31.0090 C   0  0  0  0  0  0  0  0  0  0  0  0
   38.3890   25.9050   31.0820 H   0  0  0  0  0  0  0  0  0  0  0  0
   37.0210   25.6560   29.9420 H   0  0  0  0  0  0  0  0  0  0  0  0
   36.2230   29.4020   30.5410 C   0  0  0  0  0  0  0  0  0  0  0  0
   35.9380   29.8050   31.8500 C   0  0  0  0  0  0  0  0  0  0  0  0
   36.1170   28.8600   32.8870 C   0  0  0  0  0  0  0  0  0  0  0  0
   36.5560   27.6160   32.5630 N   0  0  0  0  0  0  0  0  0  0  0  0
   36.8180   27.2810   31.2730 C   0  0  0  0  0  0  0  0  0  0  0  0
   36.6540   28.1560   30.2920 N   0  0  0  0  0  0  0  0  0  0  0  0
   36.1010   30.0900   29.7240 H   0  0  0  0  0  0  0  0  0  0  0  0
   35.5880   30.8210   32.0320 H   0  0  0  0  0  0  0  0  0  0  0  0
   35.8170   29.2690   34.2830 C   0  0  0  0  0  0  0  0  0  0  0  0
   34.5420   28.8850   34.6470 F   0  0  0  0  0  0  0  0  0  0  0  0
   35.9990   30.6340   34.3910 F   0  0  0  0  0  0  0  0  0  0  0  0
   36.7380   28.6160   35.1030 F   0  0  0  0  0  0  0  0  0  0  0  0
  1  5  1  0  0  0  0
  2  1  2  0  0  0  0
  2  3  1  0  0  0  0
  3  4  1  0  0  0  0
  4  6  1  0  0  0  0
  5  4  2  0  0  0  0
  6  7  1  0  0  0  0
  6 11  1  0  0  0  0
  7  8  1  0  0  0  0
  8 15  1  0  0  0  0
  8 16  1  0  0  0  0
  8  9  1  0  0  0  0
  9 17  1  0  0  0  0
 10 18  1  0  0  0  0
 10  9  1  0  0  0  0
 10 19  1  0  0  0  0
 11 21  1  0  0  0  0
 11 10  1  0  0  0  0
 12  2  1  0  0  0  0
 13  7  1  0  0  0  0
 14  7  1  0  0  0  0
 20 11  1  0  0  0  0
 22  1  1  0  0  0  0
 22 23  1  0  0  0  0
 24 22  1  0  0  0  0
 25 26  1  0  0  0  0
 25 32  1  0  0  0  0
 25 22  1  0  0  0  0
 27 25  1  0  0  0  0
 28 29  1  0  0  0  0
 29 35  1  0  0  0  0
 29 30  2  0  0  0  0
 30 36  1  0  0  0  0
 31 30  1  0  0  0  0
 32 31  2  0  0  0  0
 33 28  2  0  0  0  0
 33 32  1  0  0  0  0
 34 28  1  0  0  0  0
 36 38  1  0  0  0  0
 36 37  1  0  0  0  0
 36 39  1  0  0  0  0
M  END
>  <minimizedAffinity>
-5.57286596

$$$$

 OpenBabel03272506103D

 39 41  0  0  0  0  0  0  0  0999 V2000
   37.4590   26.0240   33.4500 C   0  0  0  0  0  0  0  0  0  0  0  0
   37.8970   25.1820   32.3630 C   0  0  0  0  0  0  0  0  0  0  0  0
   38.7070   23.8910   33.2560 S   0  0  0  0  0  0  0  0  0  0  0  0
   38.3670   24.6240   34.9570 C   0  0  0  0  0  0  0  0  0  0  0  0
   37.7720   25.6020   34.6400 N   0  0  0  0  0  0  0  0  0  0  0  0
   38.7170   24.1550   36.2850 N   0  0  0  0  0  0  0  0  0  0  0  0
   39.9060   23.3710   36.3920 C   0  0  0  0  0  0  0  0  0  0  0  0
   40.0360   22.6120   37.6670 C   0  0  0  0  0  0  0  0  0  0  0  0
   38.8260   22.6280   38.4710 N   0  0  0  0  0  0  0  0  0  0  0  0
   38.5200   24.0480   38.6650 C   0  0  0  0  0  0  0  0  0  0  0  0
   37.8630   24.5010   37.3900 C   0  0  0  0  0  0  0  0  0  0  0  0
   37.7470   25.3410   31.3430 H   0  0  0  0  0  0  0  0  0  0  0  0
   40.8040   23.9980   36.1610 H   0  0  0  0  0  0  0  0  0  0  0  0
   39.8720   22.6070   35.5600 H   0  0  0  0  0  0  0  0  0  0  0  0
   40.3980   21.5560   37.5300 H   0  0  0  0  0  0  0  0  0  0  0  0
   40.8180   23.1100   38.2970 H   0  0  0  0  0  0  0  0  0  0  0  0
   39.0640   22.1770   39.3910 H   0  0  0  0  0  0  0  0  0  0  0  0
   39.4160   24.6530   38.8180 H   0  0  0  0  0  0  0  0  0  0  0  0
   37.7880   24.1180   39.4990 H   0  0  0  0  0  0  0  0  0  0  0  0
   37.5250   25.5480   37.4000 H   0  0  0  0  0  0  0  0  0  0  0  0
   36.9350   23.8690   37.2710 H   0  0  0  0  0  0  0  0  0  0  0  0
   36.7020   27.2790   33.1470 C   0  0  0  0  0  0  0  0  0  0  0  0
   35.7950   27.0470   32.5410 H   0  0  0  0  0  0  0  0  0  0  0  0
   37.3210   27.9350   32.4830 H   0  0  0  0  0  0  0  0  0  0  0  0
   36.3230   28.0120   34.3770 C   0  0  0  0  0  0  0  0  0  0  0  0
   35.4790   27.6140   34.9350 H   0  0  0  0  0  0  0  0  0  0  0  0
   37.2090   28.0850   35.0660 H   0  0  0  0  0  0  0  0  0  0  0  0
   35.4780   31.1140   32.4990 C   0  0  0  0  0  0  0  0  0  0  0  0
   35.3240   32.0530   33.5240 C   0  0  0  0  0  0  0  0  0  0  0  0
   35.5120   31.6160   34.8550 C   0  0  0  0  0  0  0  0  0  0  0  0
   35.8300   30.3130   35.0730 N   0  0  0  0  0  0  0  0  0  0  0  0
   35.9660   29.4450   34.0370 C   0  0  0  0  0  0  0  0  0  0  0  0
   35.7930   29.8410   32.7850 N   0  0  0  0  0  0  0  0  0  0  0  0
   35.3450   31.4060   31.4720 H   0  0  0  0  0  0  0  0  0  0  0  0
   35.0670   33.0820   33.2710 H   0  0  0  0  0  0  0  0  0  0  0  0
   35.3520   32.6000   35.9580 C   0  0  0  0  0  0  0  0  0  0  0  0
   34.1980   33.3400   35.7940 F   0  0  0  0  0  0  0  0  0  0  0  0
   36.4780   33.3970   36.0040 F   0  0  0  0  0  0  0  0  0  0  0  0
   35.2560   31.8680   37.1420 F   0  0  0  0  0  0  0  0  0  0  0  0
  1  5  1  0  0  0  0
  2  3  1  0  0  0  0
  2  1  2  0  0  0  0
  3  4  1  0  0  0  0
  4  6  1  0  0  0  0
  5  4  2  0  0  0  0
  6  7  1  0  0  0  0
  6 11  1  0  0  0  0
  7  8  1  0  0  0  0
  8 16  1  0  0  0  0
  8  9  1  0  0  0  0
  9 10  1  0  0  0  0
  9 17  1  0  0  0  0
 10 18  1  0  0  0  0
 10 19  1  0  0  0  0
 11 20  1  0  0  0  0
 11 10  1  0  0  0  0
 12  2  1  0  0  0  0
 13  7  1  0  0  0  0
 14  7  1  0  0  0  0
 15  8  1  0  0  0  0
 21 11  1  0  0  0  0
 22  1  1  0  0  0  0
 22 25  1  0  0  0  0
 23 22  1  0  0  0  0
 24 22  1  0  0  0  0
 25 26  1  0  0  0  0
 25 27  1  0  0  0  0
 28 33  2  0  0  0  0
 28 29  1  0  0  0  0
 29 30  2  0  0  0  0
 30 31  1  0  0  0  0
 30 36  1  0  0  0  0
 32 25  1  0  0  0  0
 32 31  2  0  0  0  0
 33 32  1  0  0  0  0
 34 28  1  0  0  0  0
 35 29  1  0  0  0  0
 36 38  1  0  0  0  0
 36 39  1  0  0  0  0
 37 36  1  0  0  0  0
M  END
>  <minimizedAffinity>
-5.552104

$$$$
