
 OpenBabel03272500393D

 20 21  0  0  1  0  0  0  0  0999 V2000
   36.4070   30.6510   49.0130 C   0  0  1  0  0  0  0  0  0  0  0  0
   35.7210   29.3650   48.9200 C   0  0  0  0  0  0  0  0  0  0  0  0
   36.9970   29.4420   49.7150 C   0  0  2  0  0  0  0  0  0  0  0  0
   35.9850   31.4480   49.6390 H   0  0  0  0  0  0  0  0  0  0  0  0
   34.7780   29.1360   49.4070 H   0  0  0  0  0  0  0  0  0  0  0  0
   35.8720   28.7960   47.9560 H   0  0  0  0  0  0  0  0  0  0  0  0
   37.9300   29.0280   49.3410 H   0  0  0  0  0  0  0  0  0  0  0  0
   37.2460   31.1570   47.8890 C   0  0  0  0  0  0  0  0  0  0  0  0
   38.3250   31.9840   48.2460 C   0  0  0  0  0  0  0  0  0  0  0  0
   39.0960   32.4910   47.1730 C   0  0  0  0  0  0  0  0  0  0  0  0
   38.7580   32.1570   45.8870 N   0  0  0  0  0  0  0  0  0  0  0  0
   37.6920   31.3440   45.6120 C   0  0  0  0  0  0  0  0  0  0  0  0
   36.9390   30.8470   46.6330 N   0  0  0  0  0  0  0  0  0  0  0  0
   38.5610   32.2260   49.2750 H   0  0  0  0  0  0  0  0  0  0  0  0
   39.9420   33.1340   47.3720 H   0  0  0  0  0  0  0  0  0  0  0  0
   37.5070   31.1400   44.5740 H   0  0  0  0  0  0  0  0  0  0  0  0
   36.8770   29.5030   51.2200 C   0  0  0  0  0  0  0  0  0  0  0  0
   37.2470   30.7730   51.6360 F   0  0  0  0  0  0  0  0  0  0  0  0
   35.6240   29.2380   51.6790 F   0  0  0  0  0  0  0  0  0  0  0  0
   37.7640   28.6470   51.8430 F   0  0  0  0  0  0  0  0  0  0  0  0
  1  4  1  1  0  0  0
  1  3  1  0  0  0  0
  2  1  1  0  0  0  0
  2  5  1  0  0  0  0
  2  3  1  0  0  0  0
  3  7  1  6  0  0  0
  3 17  1  0  0  0  0
  6  2  1  0  0  0  0
  8  9  1  0  0  0  0
  8  1  1  0  0  0  0
  9 14  1  0  0  0  0
 10 15  1  0  0  0  0
 10  9  2  0  0  0  0
 11 10  1  0  0  0  0
 12 11  2  0  0  0  0
 12 13  1  0  0  0  0
 13  8  2  0  0  0  0
 16 12  1  0  0  0  0
 17 18  1  0  0  0  0
 17 19  1  0  0  0  0
 17 20  1  0  0  0  0
M  END
>  <minimizedAffinity>
-5.0485363

>  <minimizedRMSD>
1.79740059

$$$$
