
 OpenBabel03262520093D

 23 24  0  0  0  0  0  0  0  0999 V2000
   38.3300   31.8250   48.9830 Br  0  0  0  0  0  0  0  0  0  0  0  0
   37.0490   31.0300   47.8060 C   0  0  0  0  0  0  0  0  0  0  0  0
   37.2920   30.9540   46.4480 C   0  0  0  0  0  0  0  0  0  0  0  0
   36.3230   30.3660   45.6660 C   0  0  0  0  0  0  0  0  0  0  0  0
   35.1420   29.8540   46.1460 C   0  0  0  0  0  0  0  0  0  0  0  0
   34.9370   29.9470   47.4990 C   0  0  0  0  0  0  0  0  0  0  0  0
   35.8950   30.5370   48.3280 C   0  0  0  0  0  0  0  0  0  0  0  0
   36.5180   30.3100   44.6070 H   0  0  0  0  0  0  0  0  0  0  0  0
   34.3920   29.3960   45.5130 H   0  0  0  0  0  0  0  0  0  0  0  0
   34.0070   29.5510   47.9190 H   0  0  0  0  0  0  0  0  0  0  0  0
   39.5890   33.2190   44.7290 C   0  0  0  0  0  0  0  0  0  0  0  0
   40.8320   32.5440   44.7840 C   0  0  0  0  0  0  0  0  0  0  0  0
   40.8590   31.3000   45.4230 C   0  0  0  0  0  0  0  0  0  0  0  0
   39.7050   30.8050   45.9530 N   0  0  0  0  0  0  0  0  0  0  0  0
   38.5360   31.4840   45.8780 C   0  0  0  0  0  0  0  0  0  0  0  0
   38.4770   32.6960   45.2630 N   0  0  0  0  0  0  0  0  0  0  0  0
   39.6120   34.1750   44.2270 H   0  0  0  0  0  0  0  0  0  0  0  0
   41.7430   32.9470   44.3600 H   0  0  0  0  0  0  0  0  0  0  0  0
   41.7570   30.7080   45.5180 H   0  0  0  0  0  0  0  0  0  0  0  0
   35.6710   30.6400   49.8130 C   0  0  0  0  0  0  0  0  0  0  0  0
   36.0200   31.9270   50.2100 F   0  0  0  0  0  0  0  0  0  0  0  0
   34.3650   30.3490   50.1380 F   0  0  0  0  0  0  0  0  0  0  0  0
   36.5350   29.7700   50.4120 F   0  0  0  0  0  0  0  0  0  0  0  0
  2  7  1  0  0  0  0
  2  1  1  0  0  0  0
  3  2  2  0  0  0  0
  4  5  2  0  0  0  0
  4  3  1  0  0  0  0
  5  6  1  0  0  0  0
  6 10  1  0  0  0  0
  6  7  2  0  0  0  0
  7 20  1  0  0  0  0
  8  4  1  0  0  0  0
  9  5  1  0  0  0  0
 11 12  2  0  0  0  0
 11 16  1  0  0  0  0
 12 13  1  0  0  0  0
 13 19  1  0  0  0  0
 13 14  2  0  0  0  0
 15 14  1  0  0  0  0
 15  3  1  0  0  0  0
 16 15  2  0  0  0  0
 17 11  1  0  0  0  0
 18 12  1  0  0  0  0
 20 22  1  0  0  0  0
 20 21  1  0  0  0  0
 20 23  1  0  0  0  0
M  END
>  <minimizedAffinity>
-6.00646782

>  <minimizedRMSD>
3.33591676

$$$$
