
 OpenBabel03272506123D

 39 41  0  0  1  0  0  0  0  0999 V2000
   32.5930   29.5500   35.2390 C   0  0  1  0  0  0  0  0  0  0  0  0
   32.1150   28.8050   36.5360 C   0  0  0  0  0  0  0  0  0  0  0  0
   31.1860   27.6480   36.1780 C   0  0  0  0  0  0  0  0  0  0  0  0
   30.1720   28.0810   35.1680 C   0  0  0  0  0  0  0  0  0  0  0  0
   30.0860   29.5600   35.1670 C   0  0  0  0  0  0  0  0  0  0  0  0
   31.3620   30.1340   34.6180 C   0  0  2  0  0  0  0  0  0  0  0  0
   32.7570   28.7100   34.6420 H   0  0  0  0  0  0  0  0  0  0  0  0
   31.5570   29.5210   37.1580 H   0  0  0  0  0  0  0  0  0  0  0  0
   33.0020   28.4710   37.0790 H   0  0  0  0  0  0  0  0  0  0  0  0
   31.8060   26.7770   35.8190 H   0  0  0  0  0  0  0  0  0  0  0  0
   30.7290   27.3110   37.1120 H   0  0  0  0  0  0  0  0  0  0  0  0
   30.4130   27.5900   34.2290 H   0  0  0  0  0  0  0  0  0  0  0  0
   29.1940   27.6270   35.4960 H   0  0  0  0  0  0  0  0  0  0  0  0
   29.8290   29.9220   36.1530 H   0  0  0  0  0  0  0  0  0  0  0  0
   29.2850   29.8450   34.4540 H   0  0  0  0  0  0  0  0  0  0  0  0
   31.2710   31.2180   34.7760 H   0  0  0  0  0  0  0  0  0  0  0  0
   34.7710   30.6320   34.9990 C   0  0  0  0  0  0  0  0  0  0  0  0
   35.6370   31.6590   35.3890 C   0  0  0  0  0  0  0  0  0  0  0  0
   35.3630   32.5430   36.4170 C   0  0  0  0  0  0  0  0  0  0  0  0
   34.1560   32.4200   37.1200 C   0  0  0  0  0  0  0  0  0  0  0  0
   33.3170   31.3980   36.7140 C   0  0  0  0  0  0  0  0  0  0  0  0
   33.5720   30.5070   35.6870 C   0  0  0  0  0  0  0  0  0  0  0  0
   36.5950   31.8130   34.8800 H   0  0  0  0  0  0  0  0  0  0  0  0
   36.0920   33.3070   36.6460 H   0  0  0  0  0  0  0  0  0  0  0  0
   34.0140   33.1300   37.8950 H   0  0  0  0  0  0  0  0  0  0  0  0
   32.4460   31.4230   37.3540 H   0  0  0  0  0  0  0  0  0  0  0  0
   36.0490   28.6320   34.4330 C   0  0  0  0  0  0  0  0  0  0  0  0
   35.2760   29.7640   33.9910 C   0  0  0  0  0  0  0  0  0  0  0  0
   35.0850   29.8850   32.6450 C   0  0  0  0  0  0  0  0  0  0  0  0
   35.6080   28.9630   31.8070 N   0  0  0  0  0  0  0  0  0  0  0  0
   36.3410   27.8940   32.2570 C   0  0  0  0  0  0  0  0  0  0  0  0
   36.5740   27.7160   33.6050 N   0  0  0  0  0  0  0  0  0  0  0  0
   36.2800   28.4070   35.4630 H   0  0  0  0  0  0  0  0  0  0  0  0
   34.6380   30.6320   32.0670 H   0  0  0  0  0  0  0  0  0  0  0  0
   36.7630   27.1500   31.5720 H   0  0  0  0  0  0  0  0  0  0  0  0
   31.4060   30.0380   33.0940 C   0  0  0  0  0  0  0  0  0  0  0  0
   31.9780   28.9100   32.6180 F   0  0  0  0  0  0  0  0  0  0  0  0
   30.0890   30.1250   32.6530 F   0  0  0  0  0  0  0  0  0  0  0  0
   32.0790   31.1860   32.6860 F   0  0  0  0  0  0  0  0  0  0  0  0
  1  7  1  6  0  0  0
  1 22  1  0  0  0  0
  1  2  1  0  0  0  0
  2  9  1  0  0  0  0
  2  8  1  0  0  0  0
  3  2  1  0  0  0  0
  3 11  1  0  0  0  0
  4 13  1  0  0  0  0
  4  3  1  0  0  0  0
  5  4  1  0  0  0  0
  5 14  1  0  0  0  0
  6 16  1  1  0  0  0
  6  5  1  0  0  0  0
  6  1  1  0  0  0  0
 10  3  1  0  0  0  0
 12  4  1  0  0  0  0
 15  5  1  0  0  0  0
 17 18  2  0  0  0  0
 17 22  1  0  0  0  0
 18 19  1  0  0  0  0
 19 24  1  0  0  0  0
 19 20  2  0  0  0  0
 20 25  1  0  0  0  0
 21 20  1  0  0  0  0
 21 26  1  0  0  0  0
 22 21  2  0  0  0  0
 23 18  1  0  0  0  0
 27 33  1  0  0  0  0
 28 27  1  0  0  0  0
 28 17  1  0  0  0  0
 29 28  2  0  0  0  0
 30 31  2  0  0  0  0
 30 29  1  0  0  0  0
 31 32  1  0  0  0  0
 32 27  2  0  0  0  0
 34 29  1  0  0  0  0
 35 31  1  0  0  0  0
 36  6  1  0  0  0  0
 37 36  1  0  0  0  0
 38 36  1  0  0  0  0
 39 36  1  0  0  0  0
M  END
>  <minimizedAffinity>
-5.46425867

$$$$

 OpenBabel03272506123D

 39 41  0  0  1  0  0  0  0  0999 V2000
   38.1790   26.2910   33.0550 C   0  0  1  0  0  0  0  0  0  0  0  0
   37.8570   26.2600   34.5910 C   0  0  0  0  0  0  0  0  0  0  0  0
   38.8240   27.1590   35.3590 C   0  0  0  0  0  0  0  0  0  0  0  0
   40.2290   26.9310   34.9020 C   0  0  0  0  0  0  0  0  0  0  0  0
   40.3090   25.6280   34.2020 C   0  0  0  0  0  0  0  0  0  0  0  0
   39.5510   25.7100   32.9060 C   0  0  2  0  0  0  0  0  0  0  0  0
   38.3680   27.3130   32.9660 H   0  0  0  0  0  0  0  0  0  0  0  0
   37.9820   25.2270   34.9480 H   0  0  0  0  0  0  0  0  0  0  0  0
   36.8160   26.5640   34.7230 H   0  0  0  0  0  0  0  0  0  0  0  0
   38.5010   28.2320   35.2390 H   0  0  0  0  0  0  0  0  0  0  0  0
   38.6860   26.9340   36.4200 H   0  0  0  0  0  0  0  0  0  0  0  0
   40.5440   27.8160   34.3550 H   0  0  0  0  0  0  0  0  0  0  0  0
   40.8600   26.9190   35.8350 H   0  0  0  0  0  0  0  0  0  0  0  0
   39.9790   24.8300   34.8540 H   0  0  0  0  0  0  0  0  0  0  0  0
   41.3720   25.4610   33.9310 H   0  0  0  0  0  0  0  0  0  0  0  0
   39.5450   24.6800   32.5210 H   0  0  0  0  0  0  0  0  0  0  0  0
   36.2070   26.1970   31.6150 C   0  0  0  0  0  0  0  0  0  0  0  0
   35.2740   25.4140   30.9260 C   0  0  0  0  0  0  0  0  0  0  0  0
   35.2160   24.0360   31.0170 C   0  0  0  0  0  0  0  0  0  0  0  0
   36.1330   23.3660   31.8390 C   0  0  0  0  0  0  0  0  0  0  0  0
   37.0450   24.1620   32.5080 C   0  0  0  0  0  0  0  0  0  0  0  0
   37.1210   25.5410   32.4280 C   0  0  0  0  0  0  0  0  0  0  0  0
   34.5310   25.8730   30.2640 H   0  0  0  0  0  0  0  0  0  0  0  0
   34.4620   23.5140   30.4440 H   0  0  0  0  0  0  0  0  0  0  0  0
   36.0290   22.3110   31.8610 H   0  0  0  0  0  0  0  0  0  0  0  0
   37.6650   23.5090   33.1060 H   0  0  0  0  0  0  0  0  0  0  0  0
   36.7000   28.2290   30.3570 C   0  0  0  0  0  0  0  0  0  0  0  0
   36.0400   27.6030   31.4730 C   0  0  0  0  0  0  0  0  0  0  0  0
   35.3000   28.4180   32.2790 C   0  0  0  0  0  0  0  0  0  0  0  0
   35.2140   29.7390   32.0030 N   0  0  0  0  0  0  0  0  0  0  0  0
   35.8550   30.3070   30.9310 C   0  0  0  0  0  0  0  0  0  0  0  0
   36.6220   29.5390   30.0790 N   0  0  0  0  0  0  0  0  0  0  0  0
   37.3170   27.7120   29.6360 H   0  0  0  0  0  0  0  0  0  0  0  0
   34.7920   28.2420   33.1760 H   0  0  0  0  0  0  0  0  0  0  0  0
   35.7820   31.3790   30.7120 H   0  0  0  0  0  0  0  0  0  0  0  0
   40.3560   26.4450   31.8350 C   0  0  0  0  0  0  0  0  0  0  0  0
   41.6810   26.5220   32.0830 F   0  0  0  0  0  0  0  0  0  0  0  0
   40.1340   25.7680   30.6390 F   0  0  0  0  0  0  0  0  0  0  0  0
   39.7590   27.6980   31.7420 F   0  0  0  0  0  0  0  0  0  0  0  0
  1  7  1  6  0  0  0
  1  2  1  0  0  0  0
  2  9  1  0  0  0  0
  2  8  1  0  0  0  0
  2  3  1  0  0  0  0
  3 11  1  0  0  0  0
  4  3  1  0  0  0  0
  4 13  1  0  0  0  0
  5 14  1  0  0  0  0
  5  4  1  0  0  0  0
  6 16  1  6  0  0  0
  6  1  1  0  0  0  0
  6  5  1  0  0  0  0
 10  3  1  0  0  0  0
 12  4  1  0  0  0  0
 15  5  1  0  0  0  0
 17 22  1  0  0  0  0
 18 19  1  0  0  0  0
 18 17  2  0  0  0  0
 19 20  2  0  0  0  0
 20 25  1  0  0  0  0
 20 21  1  0  0  0  0
 21 26  1  0  0  0  0
 22 21  2  0  0  0  0
 22  1  1  0  0  0  0
 23 18  1  0  0  0  0
 24 19  1  0  0  0  0
 27 28  1  0  0  0  0
 28 17  1  0  0  0  0
 28 29  2  0  0  0  0
 29 34  1  0  0  0  0
 30 29  1  0  0  0  0
 31 30  2  0  0  0  0
 32 27  2  0  0  0  0
 32 31  1  0  0  0  0
 33 27  1  0  0  0  0
 35 31  1  0  0  0  0
 36 37  1  0  0  0  0
 36  6  1  0  0  0  0
 38 36  1  0  0  0  0
 39 36  1  0  0  0  0
M  END
>  <minimizedAffinity>
-5.1764431

$$$$

 OpenBabel03272506123D

 39 41  0  0  1  0  0  0  0  0999 V2000
   39.3330   24.8630   34.6490 C   0  0  1  0  0  0  0  0  0  0  0  0
   37.9010   25.0190   34.0250 C   0  0  0  0  0  0  0  0  0  0  0  0
   37.9960   25.4950   32.5770 C   0  0  0  0  0  0  0  0  0  0  0  0
   38.9720   26.6210   32.4580 C   0  0  0  0  0  0  0  0  0  0  0  0
   39.1960   27.2170   33.7940 C   0  0  0  0  0  0  0  0  0  0  0  0
   39.9330   26.2360   34.6620 C   0  0  2  0  0  0  0  0  0  0  0  0
   39.8040   24.4320   33.8240 H   0  0  0  0  0  0  0  0  0  0  0  0
   37.3530   25.7770   34.6060 H   0  0  0  0  0  0  0  0  0  0  0  0
   37.3890   24.0580   34.1120 H   0  0  0  0  0  0  0  0  0  0  0  0
   38.2660   24.6200   31.9210 H   0  0  0  0  0  0  0  0  0  0  0  0
   36.9860   25.7820   32.2740 H   0  0  0  0  0  0  0  0  0  0  0  0
   39.8410   26.2470   31.9210 H   0  0  0  0  0  0  0  0  0  0  0  0
   38.4970   27.3710   31.7630 H   0  0  0  0  0  0  0  0  0  0  0  0
   38.2600   27.5600   34.2150 H   0  0  0  0  0  0  0  0  0  0  0  0
   39.8740   28.0850   33.6620 H   0  0  0  0  0  0  0  0  0  0  0  0
   39.9380   26.6950   35.6610 H   0  0  0  0  0  0  0  0  0  0  0  0
   40.0050   23.3010   36.4040 C   0  0  0  0  0  0  0  0  0  0  0  0
   39.8380   22.8430   37.7160 C   0  0  0  0  0  0  0  0  0  0  0  0
   38.8470   23.3000   38.5650 C   0  0  0  0  0  0  0  0  0  0  0  0
   37.9490   24.2730   38.1060 C   0  0  0  0  0  0  0  0  0  0  0  0
   38.1360   24.7100   36.8080 C   0  0  0  0  0  0  0  0  0  0  0  0
   39.1230   24.2690   35.9440 C   0  0  0  0  0  0  0  0  0  0  0  0
   40.5070   22.0850   38.1380 H   0  0  0  0  0  0  0  0  0  0  0  0
   38.7980   22.8890   39.5640 H   0  0  0  0  0  0  0  0  0  0  0  0
   37.2160   24.5750   38.8110 H   0  0  0  0  0  0  0  0  0  0  0  0
   37.3660   25.4390   36.5990 H   0  0  0  0  0  0  0  0  0  0  0  0
   42.3680   22.7560   36.1340 C   0  0  0  0  0  0  0  0  0  0  0  0
   41.0160   22.6360   35.6540 C   0  0  0  0  0  0  0  0  0  0  0  0
   40.8300   21.8790   34.5340 C   0  0  0  0  0  0  0  0  0  0  0  0
   41.8900   21.2850   33.9410 N   0  0  0  0  0  0  0  0  0  0  0  0
   43.1690   21.4170   34.4220 C   0  0  0  0  0  0  0  0  0  0  0  0
   43.4250   22.1720   35.5480 N   0  0  0  0  0  0  0  0  0  0  0  0
   42.6660   23.3200   37.0050 H   0  0  0  0  0  0  0  0  0  0  0  0
   39.9850   21.6930   33.9480 H   0  0  0  0  0  0  0  0  0  0  0  0
   44.0240   20.9330   33.9360 H   0  0  0  0  0  0  0  0  0  0  0  0
   41.4210   26.1980   34.3230 C   0  0  0  0  0  0  0  0  0  0  0  0
   41.9120   27.3510   33.8190 F   0  0  0  0  0  0  0  0  0  0  0  0
   42.0890   25.8720   35.5000 F   0  0  0  0  0  0  0  0  0  0  0  0
   41.5560   25.1330   33.4380 F   0  0  0  0  0  0  0  0  0  0  0  0
  1  7  1  6  0  0  0
  1  6  1  0  0  0  0
  1 22  1  0  0  0  0
  2  9  1  0  0  0  0
  2  8  1  0  0  0  0
  2  1  1  0  0  0  0
  3  2  1  0  0  0  0
  4  3  1  0  0  0  0
  4  5  1  0  0  0  0
  5 14  1  0  0  0  0
  5  6  1  0  0  0  0
  6 16  1  1  0  0  0
 10  3  1  0  0  0  0
 11  3  1  0  0  0  0
 12  4  1  0  0  0  0
 13  4  1  0  0  0  0
 15  5  1  0  0  0  0
 17 18  1  0  0  0  0
 18 23  1  0  0  0  0
 18 19  2  0  0  0  0
 19 24  1  0  0  0  0
 20 19  1  0  0  0  0
 20 25  1  0  0  0  0
 21 20  2  0  0  0  0
 22 17  2  0  0  0  0
 22 21  1  0  0  0  0
 26 21  1  0  0  0  0
 27 33  1  0  0  0  0
 28 27  1  0  0  0  0
 28 17  1  0  0  0  0
 29 28  2  0  0  0  0
 30 31  2  0  0  0  0
 30 29  1  0  0  0  0
 31 32  1  0  0  0  0
 32 27  2  0  0  0  0
 34 29  1  0  0  0  0
 35 31  1  0  0  0  0
 36  6  1  0  0  0  0
 36 38  1  0  0  0  0
 37 36  1  0  0  0  0
 39 36  1  0  0  0  0
M  END
>  <minimizedAffinity>
-5.14553785

$$$$

 OpenBabel03272506123D

 39 41  0  0  1  0  0  0  0  0999 V2000
   39.3140   25.2180   34.6740 C   0  0  1  0  0  0  0  0  0  0  0  0
   38.9900   24.4800   33.3270 C   0  0  0  0  0  0  0  0  0  0  0  0
   38.6590   25.4890   32.2300 C   0  0  0  0  0  0  0  0  0  0  0  0
   37.7120   26.5280   32.7400 C   0  0  0  0  0  0  0  0  0  0  0  0
   37.0480   26.0240   33.9630 C   0  0  0  0  0  0  0  0  0  0  0  0
   38.0560   25.9250   35.0740 C   0  0  2  0  0  0  0  0  0  0  0  0
   39.8820   25.9990   34.2790 H   0  0  0  0  0  0  0  0  0  0  0  0
   38.1100   23.8390   33.4890 H   0  0  0  0  0  0  0  0  0  0  0  0
   39.8490   23.8560   33.0700 H   0  0  0  0  0  0  0  0  0  0  0  0
   39.6170   25.9340   31.8390 H   0  0  0  0  0  0  0  0  0  0  0  0
   38.2440   24.9190   31.3940 H   0  0  0  0  0  0  0  0  0  0  0  0
   38.2620   27.4640   32.8130 H   0  0  0  0  0  0  0  0  0  0  0  0
   36.9590   26.6920   31.9180 H   0  0  0  0  0  0  0  0  0  0  0  0
   36.5290   25.0980   33.7560 H   0  0  0  0  0  0  0  0  0  0  0  0
   36.3110   26.7910   34.2810 H   0  0  0  0  0  0  0  0  0  0  0  0
   37.5200   25.4230   35.8930 H   0  0  0  0  0  0  0  0  0  0  0  0
   41.1000   23.8390   35.6120 C   0  0  0  0  0  0  0  0  0  0  0  0
   41.5070   22.9250   36.5900 C   0  0  0  0  0  0  0  0  0  0  0  0
   40.6470   22.3580   37.5120 C   0  0  0  0  0  0  0  0  0  0  0  0
   39.2890   22.7010   37.4810 C   0  0  0  0  0  0  0  0  0  0  0  0
   38.9120   23.6060   36.5060 C   0  0  0  0  0  0  0  0  0  0  0  0
   39.7570   24.1880   35.5770 C   0  0  0  0  0  0  0  0  0  0  0  0
   42.5550   22.6160   36.6720 H   0  0  0  0  0  0  0  0  0  0  0  0
   41.0540   21.6630   38.2340 H   0  0  0  0  0  0  0  0  0  0  0  0
   38.6890   22.2270   38.2170 H   0  0  0  0  0  0  0  0  0  0  0  0
   37.8460   23.7560   36.6000 H   0  0  0  0  0  0  0  0  0  0  0  0
   42.8110   25.4580   34.9740 C   0  0  0  0  0  0  0  0  0  0  0  0
   42.1120   24.2310   34.6910 C   0  0  0  0  0  0  0  0  0  0  0  0
   42.5000   23.5510   33.5730 C   0  0  0  0  0  0  0  0  0  0  0  0
   43.4990   24.0380   32.8040 N   0  0  0  0  0  0  0  0  0  0  0  0
   44.1480   25.2100   33.0990 C   0  0  0  0  0  0  0  0  0  0  0  0
   43.8010   25.9480   34.2120 N   0  0  0  0  0  0  0  0  0  0  0  0
   42.6130   26.0990   35.8200 H   0  0  0  0  0  0  0  0  0  0  0  0
   42.1210   22.6950   33.1080 H   0  0  0  0  0  0  0  0  0  0  0  0
   44.9570   25.6000   32.4710 H   0  0  0  0  0  0  0  0  0  0  0  0
   38.3530   27.2940   35.6820 C   0  0  0  0  0  0  0  0  0  0  0  0
   37.4700   28.2600   35.3500 F   0  0  0  0  0  0  0  0  0  0  0  0
   38.3690   27.1200   37.0630 F   0  0  0  0  0  0  0  0  0  0  0  0
   39.6470   27.5930   35.2670 F   0  0  0  0  0  0  0  0  0  0  0  0
  1  7  1  6  0  0  0
  1  6  1  0  0  0  0
  1 22  1  0  0  0  0
  2  8  1  0  0  0  0
  2  1  1  0  0  0  0
  3  4  1  0  0  0  0
  3  2  1  0  0  0  0
  4 12  1  0  0  0  0
  4  5  1  0  0  0  0
  5 15  1  0  0  0  0
  5  6  1  0  0  0  0
  6 36  1  0  0  0  0
  6 16  1  1  0  0  0
  9  2  1  0  0  0  0
 10  3  1  0  0  0  0
 11  3  1  0  0  0  0
 13  4  1  0  0  0  0
 14  5  1  0  0  0  0
 17 18  1  0  0  0  0
 18 23  1  0  0  0  0
 18 19  2  0  0  0  0
 19 24  1  0  0  0  0
 20 19  1  0  0  0  0
 20 25  1  0  0  0  0
 21 26  1  0  0  0  0
 21 20  2  0  0  0  0
 22 17  2  0  0  0  0
 22 21  1  0  0  0  0
 27 33  1  0  0  0  0
 28 27  1  0  0  0  0
 28 17  1  0  0  0  0
 29 28  2  0  0  0  0
 30 31  2  0  0  0  0
 30 29  1  0  0  0  0
 31 32  1  0  0  0  0
 32 27  2  0  0  0  0
 34 29  1  0  0  0  0
 35 31  1  0  0  0  0
 36 38  1  0  0  0  0
 37 36  1  0  0  0  0
 39 36  1  0  0  0  0
M  END
>  <minimizedAffinity>
-5.1364336

$$$$

 OpenBabel03272506123D

 39 41  0  0  1  0  0  0  0  0999 V2000
   38.2370   26.6060   33.8910 C   0  0  1  0  0  0  0  0  0  0  0  0
   37.8900   27.8960   34.7160 C   0  0  0  0  0  0  0  0  0  0  0  0
   36.4090   28.2400   34.5740 C   0  0  0  0  0  0  0  0  0  0  0  0
   35.9830   28.1500   33.1430 C   0  0  0  0  0  0  0  0  0  0  0  0
   37.1810   28.2060   32.2740 C   0  0  0  0  0  0  0  0  0  0  0  0
   37.9890   26.9510   32.4550 C   0  0  2  0  0  0  0  0  0  0  0  0
   37.3870   26.0490   34.1280 H   0  0  0  0  0  0  0  0  0  0  0  0
   38.4820   28.7310   34.3130 H   0  0  0  0  0  0  0  0  0  0  0  0
   38.1750   27.7190   35.7550 H   0  0  0  0  0  0  0  0  0  0  0  0
   35.8080   27.5620   35.2440 H   0  0  0  0  0  0  0  0  0  0  0  0
   36.2790   29.2440   34.9870 H   0  0  0  0  0  0  0  0  0  0  0  0
   35.3310   27.2850   33.0480 H   0  0  0  0  0  0  0  0  0  0  0  0
   35.3190   29.0420   32.9600 H   0  0  0  0  0  0  0  0  0  0  0  0
   37.7360   29.1160   32.4560 H   0  0  0  0  0  0  0  0  0  0  0  0
   36.8280   28.1990   31.2210 H   0  0  0  0  0  0  0  0  0  0  0  0
   38.9130   27.1290   31.8880 H   0  0  0  0  0  0  0  0  0  0  0  0
   39.9160   25.0460   34.7390 C   0  0  0  0  0  0  0  0  0  0  0  0
   41.2690   24.7430   34.9290 C   0  0  0  0  0  0  0  0  0  0  0  0
   42.2980   25.6190   34.6350 C   0  0  0  0  0  0  0  0  0  0  0  0
   41.9900   26.8850   34.1190 C   0  0  0  0  0  0  0  0  0  0  0  0
   40.6470   27.1600   33.9390 C   0  0  0  0  0  0  0  0  0  0  0  0
   39.6030   26.2960   34.2240 C   0  0  0  0  0  0  0  0  0  0  0  0
   41.5780   23.7700   35.3260 H   0  0  0  0  0  0  0  0  0  0  0  0
   43.3140   25.2960   34.8120 H   0  0  0  0  0  0  0  0  0  0  0  0
   42.8280   27.5040   33.9180 H   0  0  0  0  0  0  0  0  0  0  0  0
   40.5720   28.1670   33.5550 H   0  0  0  0  0  0  0  0  0  0  0  0
   38.7220   22.9630   34.3020 C   0  0  0  0  0  0  0  0  0  0  0  0
   39.0030   24.0550   35.1970 C   0  0  0  0  0  0  0  0  0  0  0  0
   38.3790   24.0250   36.4110 C   0  0  0  0  0  0  0  0  0  0  0  0
   37.5530   23.0000   36.7160 N   0  0  0  0  0  0  0  0  0  0  0  0
   37.3050   21.9710   35.8420 C   0  0  0  0  0  0  0  0  0  0  0  0
   37.9010   21.9440   34.5980 N   0  0  0  0  0  0  0  0  0  0  0  0
   39.1420   22.8530   33.3130 H   0  0  0  0  0  0  0  0  0  0  0  0
   38.3490   24.7110   37.1990 H   0  0  0  0  0  0  0  0  0  0  0  0
   36.6340   21.1430   36.0960 H   0  0  0  0  0  0  0  0  0  0  0  0
   37.3730   25.7770   31.6970 C   0  0  0  0  0  0  0  0  0  0  0  0
   36.5580   26.1300   30.6800 F   0  0  0  0  0  0  0  0  0  0  0  0
   38.4340   25.0160   31.2140 F   0  0  0  0  0  0  0  0  0  0  0  0
   36.7130   25.0330   32.6710 F   0  0  0  0  0  0  0  0  0  0  0  0
  1  7  1  1  0  0  0
  1 22  1  0  0  0  0
  1  2  1  0  0  0  0
  2  9  1  0  0  0  0
  3  2  1  0  0  0  0
  3 11  1  0  0  0  0
  3 10  1  0  0  0  0
  4  3  1  0  0  0  0
  5  6  1  0  0  0  0
  5 14  1  0  0  0  0
  5  4  1  0  0  0  0
  6 16  1  6  0  0  0
  6  1  1  0  0  0  0
  8  2  1  0  0  0  0
 12  4  1  0  0  0  0
 13  4  1  0  0  0  0
 15  5  1  0  0  0  0
 17 18  1  0  0  0  0
 17 28  1  0  0  0  0
 18 23  1  0  0  0  0
 19 24  1  0  0  0  0
 19 18  2  0  0  0  0
 20 19  1  0  0  0  0
 21 20  2  0  0  0  0
 21 22  1  0  0  0  0
 22 17  2  0  0  0  0
 25 20  1  0  0  0  0
 26 21  1  0  0  0  0
 27 32  2  0  0  0  0
 27 28  1  0  0  0  0
 28 29  2  0  0  0  0
 29 30  1  0  0  0  0
 29 34  1  0  0  0  0
 31 35  1  0  0  0  0
 31 30  2  0  0  0  0
 32 31  1  0  0  0  0
 33 27  1  0  0  0  0
 36  6  1  0  0  0  0
 36 39  1  0  0  0  0
 37 36  1  0  0  0  0
 38 36  1  0  0  0  0
M  END
>  <minimizedAffinity>
-5.07289839

$$$$

 OpenBabel03272506123D

 39 41  0  0  1  0  0  0  0  0999 V2000
   38.5910   24.6760   33.1970 C   0  0  1  0  0  0  0  0  0  0  0  0
   39.1820   24.8140   31.7490 C   0  0  0  0  0  0  0  0  0  0  0  0
   40.1880   25.9610   31.6880 C   0  0  0  0  0  0  0  0  0  0  0  0
   39.6440   27.1730   32.3750 C   0  0  0  0  0  0  0  0  0  0  0  0
   38.1740   27.0470   32.4950 C   0  0  0  0  0  0  0  0  0  0  0  0
   37.8450   25.9470   33.4650 C   0  0  2  0  0  0  0  0  0  0  0  0
   39.4750   24.8310   33.7300 H   0  0  0  0  0  0  0  0  0  0  0  0
   38.3540   25.0380   31.0600 H   0  0  0  0  0  0  0  0  0  0  0  0
   39.6300   23.8560   31.4750 H   0  0  0  0  0  0  0  0  0  0  0  0
   41.1650   25.6170   32.1320 H   0  0  0  0  0  0  0  0  0  0  0  0
   40.3980   26.1380   30.6300 H   0  0  0  0  0  0  0  0  0  0  0  0
   40.2150   27.3160   33.2890 H   0  0  0  0  0  0  0  0  0  0  0  0
   39.9150   28.0480   31.7190 H   0  0  0  0  0  0  0  0  0  0  0  0
   37.7260   26.9220   31.5190 H   0  0  0  0  0  0  0  0  0  0  0  0
   37.7970   27.9860   32.9520 H   0  0  0  0  0  0  0  0  0  0  0  0
   36.7540   25.8300   33.3940 H   0  0  0  0  0  0  0  0  0  0  0  0
   37.8500   22.5890   34.2300 C   0  0  0  0  0  0  0  0  0  0  0  0
   36.9600   21.5090   34.2220 C   0  0  0  0  0  0  0  0  0  0  0  0
   36.0340   21.2890   33.2200 C   0  0  0  0  0  0  0  0  0  0  0  0
   35.9670   22.1830   32.1430 C   0  0  0  0  0  0  0  0  0  0  0  0
   36.8550   23.2420   32.1740 C   0  0  0  0  0  0  0  0  0  0  0  0
   37.7870   23.4820   33.1700 C   0  0  0  0  0  0  0  0  0  0  0  0
   36.9570   20.7750   35.0350 H   0  0  0  0  0  0  0  0  0  0  0  0
   35.3850   20.4280   33.3010 H   0  0  0  0  0  0  0  0  0  0  0  0
   35.2340   21.9500   31.4110 H   0  0  0  0  0  0  0  0  0  0  0  0
   36.6930   23.8250   31.2790 H   0  0  0  0  0  0  0  0  0  0  0  0
   38.3160   22.9800   36.5930 C   0  0  0  0  0  0  0  0  0  0  0  0
   38.7950   22.5870   35.2940 C   0  0  0  0  0  0  0  0  0  0  0  0
   40.1100   22.2320   35.2110 C   0  0  0  0  0  0  0  0  0  0  0  0
   40.8840   22.2560   36.3180 N   0  0  0  0  0  0  0  0  0  0  0  0
   40.3990   22.6340   37.5450 C   0  0  0  0  0  0  0  0  0  0  0  0
   39.0800   23.0090   37.6960 N   0  0  0  0  0  0  0  0  0  0  0  0
   37.3030   23.2850   36.8110 H   0  0  0  0  0  0  0  0  0  0  0  0
   40.7170   21.9830   34.3970 H   0  0  0  0  0  0  0  0  0  0  0  0
   41.0320   22.6520   38.4390 H   0  0  0  0  0  0  0  0  0  0  0  0
   38.0220   26.4050   34.9110 C   0  0  0  0  0  0  0  0  0  0  0  0
   37.9570   27.7420   35.0890 F   0  0  0  0  0  0  0  0  0  0  0  0
   37.0240   25.7780   35.6510 F   0  0  0  0  0  0  0  0  0  0  0  0
   39.2490   25.8770   35.3010 F   0  0  0  0  0  0  0  0  0  0  0  0
  1  6  1  0  0  0  0
  1  7  1  1  0  0  0
  2  1  1  0  0  0  0
  3  2  1  0  0  0  0
  3 10  1  0  0  0  0
  3  4  1  0  0  0  0
  4  5  1  0  0  0  0
  4 12  1  0  0  0  0
  5 15  1  0  0  0  0
  5  6  1  0  0  0  0
  6 16  1  6  0  0  0
  6 36  1  0  0  0  0
  8  2  1  0  0  0  0
  9  2  1  0  0  0  0
 11  3  1  0  0  0  0
 13  4  1  0  0  0  0
 14  5  1  0  0  0  0
 17 28  1  0  0  0  0
 18 17  1  0  0  0  0
 18 23  1  0  0  0  0
 19 24  1  0  0  0  0
 19 18  2  0  0  0  0
 20 21  2  0  0  0  0
 20 19  1  0  0  0  0
 21 22  1  0  0  0  0
 22  1  1  0  0  0  0
 22 17  2  0  0  0  0
 25 20  1  0  0  0  0
 26 21  1  0  0  0  0
 27 33  1  0  0  0  0
 27 32  1  0  0  0  0
 28 27  2  0  0  0  0
 29 28  1  0  0  0  0
 29 30  2  0  0  0  0
 30 31  1  0  0  0  0
 31 32  2  0  0  0  0
 31 35  1  0  0  0  0
 34 29  1  0  0  0  0
 36 37  1  0  0  0  0
 36 39  1  0  0  0  0
 36 38  1  0  0  0  0
M  END
>  <minimizedAffinity>
-5.03641844

$$$$

 OpenBabel03272506123D

 39 41  0  0  1  0  0  0  0  0999 V2000
   37.9470   24.7670   32.7950 C   0  0  1  0  0  0  0  0  0  0  0  0
   37.0010   25.6330   31.8890 C   0  0  0  0  0  0  0  0  0  0  0  0
   35.7200   24.8660   31.5660 C   0  0  0  0  0  0  0  0  0  0  0  0
   36.0360   23.4620   31.1610 C   0  0  0  0  0  0  0  0  0  0  0  0
   37.4600   23.3780   30.7640 C   0  0  0  0  0  0  0  0  0  0  0  0
   38.3290   23.5730   31.9760 C   0  0  2  0  0  0  0  0  0  0  0  0
   37.2180   24.3680   33.4270 H   0  0  0  0  0  0  0  0  0  0  0  0
   37.5280   25.8460   30.9470 H   0  0  0  0  0  0  0  0  0  0  0  0
   36.8010   26.5710   32.4110 H   0  0  0  0  0  0  0  0  0  0  0  0
   35.0300   24.9130   32.4560 H   0  0  0  0  0  0  0  0  0  0  0  0
   35.2110   25.4260   30.7770 H   0  0  0  0  0  0  0  0  0  0  0  0
   35.6950   22.8060   31.9580 H   0  0  0  0  0  0  0  0  0  0  0  0
   35.3660   23.2340   30.2840 H   0  0  0  0  0  0  0  0  0  0  0  0
   37.6680   24.0690   29.9580 H   0  0  0  0  0  0  0  0  0  0  0  0
   37.6460   22.3420   30.4120 H   0  0  0  0  0  0  0  0  0  0  0  0
   39.3520   23.6310   31.5790 H   0  0  0  0  0  0  0  0  0  0  0  0
   39.5900   25.5510   34.4250 C   0  0  0  0  0  0  0  0  0  0  0  0
   40.7230   26.3270   34.6920 C   0  0  0  0  0  0  0  0  0  0  0  0
   41.3080   27.1700   33.7660 C   0  0  0  0  0  0  0  0  0  0  0  0
   40.7490   27.2700   32.4840 C   0  0  0  0  0  0  0  0  0  0  0  0
   39.6310   26.4920   32.2450 C   0  0  0  0  0  0  0  0  0  0  0  0
   39.0330   25.6400   33.1570 C   0  0  0  0  0  0  0  0  0  0  0  0
   41.2110   26.2940   35.6730 H   0  0  0  0  0  0  0  0  0  0  0  0
   42.1840   27.7290   34.0620 H   0  0  0  0  0  0  0  0  0  0  0  0
   41.2490   27.9370   31.8270 H   0  0  0  0  0  0  0  0  0  0  0  0
   39.3130   26.6890   31.2310 H   0  0  0  0  0  0  0  0  0  0  0  0
   39.8550   23.7060   36.0010 C   0  0  0  0  0  0  0  0  0  0  0  0
   39.0770   24.8260   35.5380 C   0  0  0  0  0  0  0  0  0  0  0  0
   37.9280   25.0960   36.2230 C   0  0  0  0  0  0  0  0  0  0  0  0
   37.5800   24.3290   37.2800 N   0  0  0  0  0  0  0  0  0  0  0  0
   38.3430   23.2680   37.7000 C   0  0  0  0  0  0  0  0  0  0  0  0
   39.5130   22.9400   37.0480 N   0  0  0  0  0  0  0  0  0  0  0  0
   40.7840   23.3760   35.5600 H   0  0  0  0  0  0  0  0  0  0  0  0
   37.1600   25.7860   36.0570 H   0  0  0  0  0  0  0  0  0  0  0  0
   38.0560   22.6500   38.5580 H   0  0  0  0  0  0  0  0  0  0  0  0
   38.3900   22.3070   32.8280 C   0  0  0  0  0  0  0  0  0  0  0  0
   37.5790   22.3170   33.9080 F   0  0  0  0  0  0  0  0  0  0  0  0
   38.0520   21.2480   31.9900 F   0  0  0  0  0  0  0  0  0  0  0  0
   39.7320   22.1770   33.1730 F   0  0  0  0  0  0  0  0  0  0  0  0
  1 22  1  0  0  0  0
  1  7  1  1  0  0  0
  2  9  1  0  0  0  0
  2  1  1  0  0  0  0
  3  2  1  0  0  0  0
  3 10  1  0  0  0  0
  4  3  1  0  0  0  0
  4 12  1  0  0  0  0
  5  4  1  0  0  0  0
  5  6  1  0  0  0  0
  6 16  1  6  0  0  0
  6  1  1  0  0  0  0
  6 36  1  0  0  0  0
  8  2  1  0  0  0  0
 11  3  1  0  0  0  0
 13  4  1  0  0  0  0
 14  5  1  0  0  0  0
 15  5  1  0  0  0  0
 17 18  1  0  0  0  0
 17 28  1  0  0  0  0
 18 23  1  0  0  0  0
 19 24  1  0  0  0  0
 19 18  2  0  0  0  0
 20 19  1  0  0  0  0
 21 20  2  0  0  0  0
 21 22  1  0  0  0  0
 22 17  2  0  0  0  0
 25 20  1  0  0  0  0
 26 21  1  0  0  0  0
 27 32  1  0  0  0  0
 28 27  2  0  0  0  0
 28 29  1  0  0  0  0
 29 30  2  0  0  0  0
 30 31  1  0  0  0  0
 31 35  1  0  0  0  0
 32 31  2  0  0  0  0
 33 27  1  0  0  0  0
 34 29  1  0  0  0  0
 36 39  1  0  0  0  0
 36 37  1  0  0  0  0
 38 36  1  0  0  0  0
M  END
>  <minimizedAffinity>
-5.03369236

$$$$

 OpenBabel03272506123D

 39 41  0  0  1  0  0  0  0  0999 V2000
   38.4120   23.0160   33.7920 C   0  0  1  0  0  0  0  0  0  0  0  0
   39.6700   22.5950   32.9520 C   0  0  0  0  0  0  0  0  0  0  0  0
   40.6220   21.7530   33.7990 C   0  0  0  0  0  0  0  0  0  0  0  0
   40.8170   22.3740   35.1450 C   0  0  0  0  0  0  0  0  0  0  0  0
   40.4120   23.7970   35.0890 C   0  0  0  0  0  0  0  0  0  0  0  0
   38.9230   23.8860   34.8990 C   0  0  2  0  0  0  0  0  0  0  0  0
   38.2580   22.1100   34.2870 H   0  0  0  0  0  0  0  0  0  0  0  0
   40.1960   23.5090   32.6390 H   0  0  0  0  0  0  0  0  0  0  0  0
   39.3200   22.0590   32.0670 H   0  0  0  0  0  0  0  0  0  0  0  0
   40.2230   20.7010   33.8630 H   0  0  0  0  0  0  0  0  0  0  0  0
   41.5560   21.6740   33.2350 H   0  0  0  0  0  0  0  0  0  0  0  0
   40.3210   21.7380   35.8740 H   0  0  0  0  0  0  0  0  0  0  0  0
   41.9160   22.2830   35.3720 H   0  0  0  0  0  0  0  0  0  0  0  0
   40.9840   24.3220   34.3350 H   0  0  0  0  0  0  0  0  0  0  0  0
   40.6250   24.2430   36.0830 H   0  0  0  0  0  0  0  0  0  0  0  0
   38.7260   24.9550   34.7340 H   0  0  0  0  0  0  0  0  0  0  0  0
   36.4800   22.9440   32.2980 C   0  0  0  0  0  0  0  0  0  0  0  0
   35.5710   23.6420   31.4960 C   0  0  0  0  0  0  0  0  0  0  0  0
   35.6650   24.9960   31.2330 C   0  0  0  0  0  0  0  0  0  0  0  0
   36.7230   25.7270   31.7900 C   0  0  0  0  0  0  0  0  0  0  0  0
   37.6070   25.0150   32.5800 C   0  0  0  0  0  0  0  0  0  0  0  0
   37.5270   23.6620   32.8580 C   0  0  0  0  0  0  0  0  0  0  0  0
   34.7200   23.1310   31.0320 H   0  0  0  0  0  0  0  0  0  0  0  0
   34.9140   25.4500   30.6030 H   0  0  0  0  0  0  0  0  0  0  0  0
   36.7330   26.7600   31.5440 H   0  0  0  0  0  0  0  0  0  0  0  0
   38.3650   25.7070   32.9190 H   0  0  0  0  0  0  0  0  0  0  0  0
   36.8430   20.7420   31.3090 C   0  0  0  0  0  0  0  0  0  0  0  0
   36.2720   21.5370   32.3660 C   0  0  0  0  0  0  0  0  0  0  0  0
   35.6010   20.8610   33.3430 C   0  0  0  0  0  0  0  0  0  0  0  0
   35.5070   19.5140   33.2850 N   0  0  0  0  0  0  0  0  0  0  0  0
   36.0630   18.7820   32.2650 C   0  0  0  0  0  0  0  0  0  0  0  0
   36.7500   19.4050   31.2440 N   0  0  0  0  0  0  0  0  0  0  0  0
   37.4000   21.1370   30.4720 H   0  0  0  0  0  0  0  0  0  0  0  0
   35.0430   21.1900   34.1640 H   0  0  0  0  0  0  0  0  0  0  0  0
   35.9830   17.6900   32.2240 H   0  0  0  0  0  0  0  0  0  0  0  0
   38.1770   23.6250   36.2060 C   0  0  0  0  0  0  0  0  0  0  0  0
   38.9690   23.5350   37.2960 F   0  0  0  0  0  0  0  0  0  0  0  0
   37.2710   24.6700   36.3610 F   0  0  0  0  0  0  0  0  0  0  0  0
   37.4580   22.4560   35.9750 F   0  0  0  0  0  0  0  0  0  0  0  0
  1  7  1  1  0  0  0
  1  6  1  0  0  0  0
  2  1  1  0  0  0  0
  2  3  1  0  0  0  0
  3 10  1  0  0  0  0
  3  4  1  0  0  0  0
  4 13  1  0  0  0  0
  4 12  1  0  0  0  0
  5  4  1  0  0  0  0
  5 15  1  0  0  0  0
  6 16  1  6  0  0  0
  6  5  1  0  0  0  0
  6 36  1  0  0  0  0
  8  2  1  0  0  0  0
  9  2  1  0  0  0  0
 11  3  1  0  0  0  0
 14  5  1  0  0  0  0
 17 28  1  0  0  0  0
 17 22  1  0  0  0  0
 18 17  2  0  0  0  0
 19 18  1  0  0  0  0
 19 20  2  0  0  0  0
 20 21  1  0  0  0  0
 21 22  2  0  0  0  0
 21 26  1  0  0  0  0
 22  1  1  0  0  0  0
 23 18  1  0  0  0  0
 24 19  1  0  0  0  0
 25 20  1  0  0  0  0
 27 28  1  0  0  0  0
 28 29  2  0  0  0  0
 29 34  1  0  0  0  0
 30 29  1  0  0  0  0
 31 30  2  0  0  0  0
 32 27  2  0  0  0  0
 32 31  1  0  0  0  0
 33 27  1  0  0  0  0
 35 31  1  0  0  0  0
 36 38  1  0  0  0  0
 36 37  1  0  0  0  0
 39 36  1  0  0  0  0
M  END
>  <minimizedAffinity>
-4.97173977

$$$$

 OpenBabel03272506123D

 39 41  0  0  1  0  0  0  0  0999 V2000
   36.6640   22.0440   32.1420 C   0  0  1  0  0  0  0  0  0  0  0  0
   35.3590   21.4190   32.7520 C   0  0  0  0  0  0  0  0  0  0  0  0
   35.5980   19.9650   33.1520 C   0  0  0  0  0  0  0  0  0  0  0  0
   36.3210   19.2330   32.0660 C   0  0  0  0  0  0  0  0  0  0  0  0
   36.1810   19.9830   30.7960 C   0  0  0  0  0  0  0  0  0  0  0  0
   36.9490   21.2720   30.8910 C   0  0  2  0  0  0  0  0  0  0  0  0
   37.3500   21.6290   32.8100 H   0  0  0  0  0  0  0  0  0  0  0  0
   34.5730   21.4450   31.9830 H   0  0  0  0  0  0  0  0  0  0  0  0
   35.0540   22.0360   33.6010 H   0  0  0  0  0  0  0  0  0  0  0  0
   36.1550   19.9400   34.1310 H   0  0  0  0  0  0  0  0  0  0  0  0
   34.6170   19.5330   33.3670 H   0  0  0  0  0  0  0  0  0  0  0  0
   37.3270   19.0280   32.4220 H   0  0  0  0  0  0  0  0  0  0  0  0
   35.8240   18.2250   31.9870 H   0  0  0  0  0  0  0  0  0  0  0  0
   35.1360   20.1110   30.5480 H   0  0  0  0  0  0  0  0  0  0  0  0
   36.6740   19.3850   30.0020 H   0  0  0  0  0  0  0  0  0  0  0  0
   36.6860   21.8210   29.9760 H   0  0  0  0  0  0  0  0  0  0  0  0
   37.2630   24.3990   32.4010 C   0  0  0  0  0  0  0  0  0  0  0  0
   36.9960   25.7350   32.0830 C   0  0  0  0  0  0  0  0  0  0  0  0
   35.8940   26.1430   31.3550 C   0  0  0  0  0  0  0  0  0  0  0  0
   34.9800   25.1810   30.9030 C   0  0  0  0  0  0  0  0  0  0  0  0
   35.2670   23.8680   31.2280 C   0  0  0  0  0  0  0  0  0  0  0  0
   36.3660   23.4400   31.9520 C   0  0  0  0  0  0  0  0  0  0  0  0
   37.6710   26.5360   32.4040 H   0  0  0  0  0  0  0  0  0  0  0  0
   35.7720   27.1980   31.1560 H   0  0  0  0  0  0  0  0  0  0  0  0
   34.1580   25.5660   30.3520 H   0  0  0  0  0  0  0  0  0  0  0  0
   34.4720   23.2560   30.8270 H   0  0  0  0  0  0  0  0  0  0  0  0
   38.1400   24.1200   34.6610 C   0  0  0  0  0  0  0  0  0  0  0  0
   38.3900   24.1900   33.2450 C   0  0  0  0  0  0  0  0  0  0  0  0
   39.6850   24.0320   32.8450 C   0  0  0  0  0  0  0  0  0  0  0  0
   40.6510   23.8150   33.7650 N   0  0  0  0  0  0  0  0  0  0  0  0
   40.3820   23.7510   35.1100 C   0  0  0  0  0  0  0  0  0  0  0  0
   39.0950   23.9080   35.5800 N   0  0  0  0  0  0  0  0  0  0  0  0
   37.1690   24.2250   35.1220 H   0  0  0  0  0  0  0  0  0  0  0  0
   40.1420   24.1100   31.9080 H   0  0  0  0  0  0  0  0  0  0  0  0
   41.1700   23.5760   35.8510 H   0  0  0  0  0  0  0  0  0  0  0  0
   38.4480   21.0440   30.7050 C   0  0  0  0  0  0  0  0  0  0  0  0
   38.7630   19.9580   29.9660 F   0  0  0  0  0  0  0  0  0  0  0  0
   38.9520   22.1920   30.1000 F   0  0  0  0  0  0  0  0  0  0  0  0
   38.9580   20.9730   31.9970 F   0  0  0  0  0  0  0  0  0  0  0  0
  1  2  1  0  0  0  0
  1  7  1  1  0  0  0
  2  3  1  0  0  0  0
  2  9  1  0  0  0  0
  3 11  1  0  0  0  0
  3 10  1  0  0  0  0
  4 12  1  0  0  0  0
  4  3  1  0  0  0  0
  5  6  1  0  0  0  0
  5  4  1  0  0  0  0
  6 16  1  6  0  0  0
  6  1  1  0  0  0  0
  8  2  1  0  0  0  0
 13  4  1  0  0  0  0
 14  5  1  0  0  0  0
 15  5  1  0  0  0  0
 17 28  1  0  0  0  0
 18 17  1  0  0  0  0
 18 23  1  0  0  0  0
 19 18  2  0  0  0  0
 20 21  2  0  0  0  0
 20 19  1  0  0  0  0
 21 22  1  0  0  0  0
 22  1  1  0  0  0  0
 22 17  2  0  0  0  0
 24 19  1  0  0  0  0
 25 20  1  0  0  0  0
 26 21  1  0  0  0  0
 27 33  1  0  0  0  0
 27 32  1  0  0  0  0
 28 27  2  0  0  0  0
 29 28  1  0  0  0  0
 29 30  2  0  0  0  0
 30 31  1  0  0  0  0
 31 32  2  0  0  0  0
 31 35  1  0  0  0  0
 34 29  1  0  0  0  0
 36  6  1  0  0  0  0
 36 39  1  0  0  0  0
 37 36  1  0  0  0  0
 38 36  1  0  0  0  0
M  END
>  <minimizedAffinity>
-4.9712081

$$$$
