
 OpenBabel03272506043D

 33 35  0  0  0  0  0  0  0  0999 V2000
   38.0130   27.2160   33.8710 Cl  0  0  0  0  0  0  0  0  0  0  0  0
   37.2170   26.0420   32.8540 C   0  0  0  0  0  0  0  0  0  0  0  0
   37.4820   24.7230   33.0630 C   0  0  0  0  0  0  0  0  0  0  0  0
   36.8070   23.8420   32.2100 C   0  0  0  0  0  0  0  0  0  0  0  0
   35.9400   24.2970   31.2330 C   0  0  0  0  0  0  0  0  0  0  0  0
   35.7150   25.6430   31.0720 C   0  0  0  0  0  0  0  0  0  0  0  0
   36.3770   26.5390   31.9110 C   0  0  0  0  0  0  0  0  0  0  0  0
   36.9930   22.7730   32.3470 H   0  0  0  0  0  0  0  0  0  0  0  0
   35.4740   23.5400   30.6340 H   0  0  0  0  0  0  0  0  0  0  0  0
   35.0430   25.9570   30.3100 H   0  0  0  0  0  0  0  0  0  0  0  0
   38.1300   27.7910   29.9110 Cl  0  0  0  0  0  0  0  0  0  0  0  0
   36.8460   28.6190   30.7470 C   0  0  0  0  0  0  0  0  0  0  0  0
   36.0840   27.9240   31.6720 C   0  0  0  0  0  0  0  0  0  0  0  0
   35.0660   28.5860   32.3330 C   0  0  0  0  0  0  0  0  0  0  0  0
   34.8250   29.9380   32.0610 C   0  0  0  0  0  0  0  0  0  0  0  0
   35.6130   30.6060   31.1230 C   0  0  0  0  0  0  0  0  0  0  0  0
   35.2750   32.3030   30.8110 Cl  0  0  0  0  0  0  0  0  0  0  0  0
   36.6260   29.9620   30.4590 C   0  0  0  0  0  0  0  0  0  0  0  0
   34.4620   28.0410   33.0640 H   0  0  0  0  0  0  0  0  0  0  0  0
   34.0240   30.4570   32.5820 H   0  0  0  0  0  0  0  0  0  0  0  0
   37.2290   30.4850   29.7370 H   0  0  0  0  0  0  0  0  0  0  0  0
   37.9580   23.9410   35.3750 C   0  0  0  0  0  0  0  0  0  0  0  0
   38.3840   24.1900   34.0760 C   0  0  0  0  0  0  0  0  0  0  0  0
   39.7240   23.9130   33.7540 C   0  0  0  0  0  0  0  0  0  0  0  0
   40.5240   23.4160   34.7360 N   0  0  0  0  0  0  0  0  0  0  0  0
   40.0920   23.1870   35.9710 C   0  0  0  0  0  0  0  0  0  0  0  0
   38.8200   23.4450   36.2950 N   0  0  0  0  0  0  0  0  0  0  0  0
   36.9290   24.1410   35.6670 H   0  0  0  0  0  0  0  0  0  0  0  0
   40.1010   24.0910   32.7540 H   0  0  0  0  0  0  0  0  0  0  0  0
   40.9850   22.6430   37.0300 C   0  0  0  0  0  0  0  0  0  0  0  0
   41.1300   21.2710   36.9430 F   0  0  0  0  0  0  0  0  0  0  0  0
   42.2340   23.2440   36.9900 F   0  0  0  0  0  0  0  0  0  0  0  0
   40.4850   22.9360   38.2990 F   0  0  0  0  0  0  0  0  0  0  0  0
  2  3  1  0  0  0  0
  2  1  1  0  0  0  0
  3 23  1  0  0  0  0
  4  8  1  0  0  0  0
  4  3  2  0  0  0  0
  5  4  1  0  0  0  0
  6  5  2  0  0  0  0
  6  7  1  0  0  0  0
  7  2  2  0  0  0  0
  9  5  1  0  0  0  0
 10  6  1  0  0  0  0
 11 12  1  0  0  0  0
 12 13  1  0  0  0  0
 13  7  1  0  0  0  0
 13 14  2  0  0  0  0
 14 19  1  0  0  0  0
 15 14  1  0  0  0  0
 15 20  1  0  0  0  0
 16 15  2  0  0  0  0
 17 16  1  0  0  0  0
 18 12  2  0  0  0  0
 18 16  1  0  0  0  0
 21 18  1  0  0  0  0
 22 28  1  0  0  0  0
 22 27  1  0  0  0  0
 23 22  2  0  0  0  0
 24 23  1  0  0  0  0
 24 25  2  0  0  0  0
 25 26  1  0  0  0  0
 26 27  2  0  0  0  0
 26 30  1  0  0  0  0
 29 24  1  0  0  0  0
 30 33  1  0  0  0  0
 31 30  1  0  0  0  0
 32 30  1  0  0  0  0
M  END
>  <minimizedAffinity>
-5.83851004

$$$$

 OpenBabel03272506043D

 33 35  0  0  0  0  0  0  0  0999 V2000
   35.5020   25.6240   31.4460 Cl  0  0  0  0  0  0  0  0  0  0  0  0
   37.1640   25.6570   31.9830 C   0  0  0  0  0  0  0  0  0  0  0  0
   37.7540   24.4790   32.3220 C   0  0  0  0  0  0  0  0  0  0  0  0
   39.0860   24.5850   32.7410 C   0  0  0  0  0  0  0  0  0  0  0  0
   39.7350   25.8040   32.8000 C   0  0  0  0  0  0  0  0  0  0  0  0
   39.0820   26.9600   32.4440 C   0  0  0  0  0  0  0  0  0  0  0  0
   37.7550   26.8780   32.0220 C   0  0  0  0  0  0  0  0  0  0  0  0
   39.5960   23.6600   33.0230 H   0  0  0  0  0  0  0  0  0  0  0  0
   40.7530   25.7760   33.1340 H   0  0  0  0  0  0  0  0  0  0  0  0
   39.6110   27.8810   32.5010 H   0  0  0  0  0  0  0  0  0  0  0  0
   36.3440   28.1790   34.2500 Cl  0  0  0  0  0  0  0  0  0  0  0  0
   36.4580   28.8380   32.6420 C   0  0  0  0  0  0  0  0  0  0  0  0
   37.1510   28.1320   31.6700 C   0  0  0  0  0  0  0  0  0  0  0  0
   37.2390   28.6590   30.3960 C   0  0  0  0  0  0  0  0  0  0  0  0
   36.6300   29.8870   30.1080 C   0  0  0  0  0  0  0  0  0  0  0  0
   35.9410   30.5690   31.1110 C   0  0  0  0  0  0  0  0  0  0  0  0
   35.1920   32.1080   30.7070 Cl  0  0  0  0  0  0  0  0  0  0  0  0
   35.8460   30.0580   32.3810 C   0  0  0  0  0  0  0  0  0  0  0  0
   37.7840   28.1070   29.6260 H   0  0  0  0  0  0  0  0  0  0  0  0
   36.7000   30.3000   29.1050 H   0  0  0  0  0  0  0  0  0  0  0  0
   35.3120   30.5910   33.1480 H   0  0  0  0  0  0  0  0  0  0  0  0
   37.0680   22.3450   33.3960 C   0  0  0  0  0  0  0  0  0  0  0  0
   37.1190   23.1690   32.2780 C   0  0  0  0  0  0  0  0  0  0  0  0
   36.5350   22.7050   31.0870 C   0  0  0  0  0  0  0  0  0  0  0  0
   35.9550   21.4740   31.1010 N   0  0  0  0  0  0  0  0  0  0  0  0
   35.9200   20.7050   32.1830 C   0  0  0  0  0  0  0  0  0  0  0  0
   36.4700   21.1310   33.3250 N   0  0  0  0  0  0  0  0  0  0  0  0
   37.5070   22.6640   34.3380 H   0  0  0  0  0  0  0  0  0  0  0  0
   36.5500   23.3120   30.1900 H   0  0  0  0  0  0  0  0  0  0  0  0
   35.2800   19.3610   32.1750 C   0  0  0  0  0  0  0  0  0  0  0  0
   35.4530   18.6890   33.3700 F   0  0  0  0  0  0  0  0  0  0  0  0
   33.9260   19.4530   31.8880 F   0  0  0  0  0  0  0  0  0  0  0  0
   35.8110   18.5650   31.1600 F   0  0  0  0  0  0  0  0  0  0  0  0
  1  2  1  0  0  0  0
  2  7  2  0  0  0  0
  2  3  1  0  0  0  0
  3  4  2  0  0  0  0
  4  5  1  0  0  0  0
  4  8  1  0  0  0  0
  5  9  1  0  0  0  0
  6 10  1  0  0  0  0
  6  5  2  0  0  0  0
  7  6  1  0  0  0  0
 12 11  1  0  0  0  0
 13  7  1  0  0  0  0
 13 12  2  0  0  0  0
 14 13  1  0  0  0  0
 15 14  2  0  0  0  0
 15 16  1  0  0  0  0
 16 18  2  0  0  0  0
 17 16  1  0  0  0  0
 18 12  1  0  0  0  0
 18 21  1  0  0  0  0
 19 14  1  0  0  0  0
 20 15  1  0  0  0  0
 22 28  1  0  0  0  0
 23  3  1  0  0  0  0
 23 22  2  0  0  0  0
 24 25  2  0  0  0  0
 24 23  1  0  0  0  0
 25 26  1  0  0  0  0
 26 27  2  0  0  0  0
 27 22  1  0  0  0  0
 29 24  1  0  0  0  0
 30 26  1  0  0  0  0
 30 31  1  0  0  0  0
 32 30  1  0  0  0  0
 33 30  1  0  0  0  0
M  END
>  <minimizedAffinity>
-5.68348932

$$$$

 OpenBabel03272506043D

 33 35  0  0  0  0  0  0  0  0999 V2000
   36.7240   27.5260   34.2360 Cl  0  0  0  0  0  0  0  0  0  0  0  0
   36.5960   28.4380   32.7530 C   0  0  0  0  0  0  0  0  0  0  0  0
   35.7980   29.5390   32.7400 C   0  0  0  0  0  0  0  0  0  0  0  0
   35.7470   30.2180   31.5170 C   0  0  0  0  0  0  0  0  0  0  0  0
   36.4620   29.7870   30.4150 C   0  0  0  0  0  0  0  0  0  0  0  0
   37.2520   28.6650   30.4920 C   0  0  0  0  0  0  0  0  0  0  0  0
   37.3180   27.9720   31.7010 C   0  0  0  0  0  0  0  0  0  0  0  0
   35.1150   31.1100   31.4660 H   0  0  0  0  0  0  0  0  0  0  0  0
   36.3530   30.3780   29.5270 H   0  0  0  0  0  0  0  0  0  0  0  0
   37.7870   28.3600   29.6250 H   0  0  0  0  0  0  0  0  0  0  0  0
   35.9100   25.4820   31.0230 Cl  0  0  0  0  0  0  0  0  0  0  0  0
   37.6100   25.5810   31.3850 C   0  0  0  0  0  0  0  0  0  0  0  0
   38.1660   26.8140   31.6920 C   0  0  0  0  0  0  0  0  0  0  0  0
   39.5150   26.8870   31.9780 C   0  0  0  0  0  0  0  0  0  0  0  0
   40.2950   25.7240   31.9550 C   0  0  0  0  0  0  0  0  0  0  0  0
   39.7020   24.5010   31.6410 C   0  0  0  0  0  0  0  0  0  0  0  0
   40.7180   23.0650   31.6220 Cl  0  0  0  0  0  0  0  0  0  0  0  0
   38.3640   24.4130   31.3550 C   0  0  0  0  0  0  0  0  0  0  0  0
   39.9570   27.8570   32.2210 H   0  0  0  0  0  0  0  0  0  0  0  0
   41.3570   25.7840   32.1800 H   0  0  0  0  0  0  0  0  0  0  0  0
   37.9150   23.4650   31.1140 H   0  0  0  0  0  0  0  0  0  0  0  0
   35.5580   30.9450   34.7770 C   0  0  0  0  0  0  0  0  0  0  0  0
   35.0240   30.0390   33.8690 C   0  0  0  0  0  0  0  0  0  0  0  0
   33.7010   29.6070   34.0660 C   0  0  0  0  0  0  0  0  0  0  0  0
   33.0230   30.1040   35.1370 N   0  0  0  0  0  0  0  0  0  0  0  0
   33.5570   30.9700   35.9900 C   0  0  0  0  0  0  0  0  0  0  0  0
   34.8150   31.3910   35.8180 N   0  0  0  0  0  0  0  0  0  0  0  0
   36.5780   31.3050   34.6620 H   0  0  0  0  0  0  0  0  0  0  0  0
   33.2420   28.9010   33.3850 H   0  0  0  0  0  0  0  0  0  0  0  0
   32.7960   31.5000   37.1540 C   0  0  0  0  0  0  0  0  0  0  0  0
   33.4670   32.5220   37.7990 F   0  0  0  0  0  0  0  0  0  0  0  0
   31.5380   31.9410   36.7730 F   0  0  0  0  0  0  0  0  0  0  0  0
   32.5570   30.4940   38.0900 F   0  0  0  0  0  0  0  0  0  0  0  0
  2  1  1  0  0  0  0
  3  2  1  0  0  0  0
  3 23  1  0  0  0  0
  4  3  2  0  0  0  0
  5  6  2  0  0  0  0
  5  4  1  0  0  0  0
  6  7  1  0  0  0  0
  7  2  2  0  0  0  0
  8  4  1  0  0  0  0
  9  5  1  0  0  0  0
 10  6  1  0  0  0  0
 11 12  1  0  0  0  0
 12 13  1  0  0  0  0
 13  7  1  0  0  0  0
 13 14  2  0  0  0  0
 14 19  1  0  0  0  0
 15 14  1  0  0  0  0
 15 20  1  0  0  0  0
 16 15  2  0  0  0  0
 17 16  1  0  0  0  0
 18 12  2  0  0  0  0
 18 16  1  0  0  0  0
 21 18  1  0  0  0  0
 22 27  1  0  0  0  0
 23 24  1  0  0  0  0
 23 22  2  0  0  0  0
 24 25  2  0  0  0  0
 25 26  1  0  0  0  0
 26 30  1  0  0  0  0
 27 26  2  0  0  0  0
 28 22  1  0  0  0  0
 29 24  1  0  0  0  0
 30 31  1  0  0  0  0
 30 33  1  0  0  0  0
 32 30  1  0  0  0  0
M  END
>  <minimizedAffinity>
-5.62500048

$$$$

 OpenBabel03272506043D

 33 35  0  0  0  0  0  0  0  0999 V2000
   35.2590   28.5830   34.4120 Cl  0  0  0  0  0  0  0  0  0  0  0  0
   35.8020   29.4950   33.0260 C   0  0  0  0  0  0  0  0  0  0  0  0
   36.2720   28.8090   31.9480 C   0  0  0  0  0  0  0  0  0  0  0  0
   36.6880   29.6070   30.8760 C   0  0  0  0  0  0  0  0  0  0  0  0
   36.6190   30.9870   30.9260 C   0  0  0  0  0  0  0  0  0  0  0  0
   36.1340   31.6210   32.0450 C   0  0  0  0  0  0  0  0  0  0  0  0
   35.7140   30.8460   33.1260 C   0  0  0  0  0  0  0  0  0  0  0  0
   37.0730   29.0930   29.9910 H   0  0  0  0  0  0  0  0  0  0  0  0
   36.9630   31.5040   30.0530 H   0  0  0  0  0  0  0  0  0  0  0  0
   36.0960   32.6830   32.0510 H   0  0  0  0  0  0  0  0  0  0  0  0
   32.8160   31.3360   33.0450 Cl  0  0  0  0  0  0  0  0  0  0  0  0
   33.8680   31.8790   34.3220 C   0  0  0  0  0  0  0  0  0  0  0  0
   35.2220   31.5890   34.2520 C   0  0  0  0  0  0  0  0  0  0  0  0
   36.0520   32.0220   35.2670 C   0  0  0  0  0  0  0  0  0  0  0  0
   35.5180   32.7430   36.3420 C   0  0  0  0  0  0  0  0  0  0  0  0
   34.1510   33.0170   36.3790 C   0  0  0  0  0  0  0  0  0  0  0  0
   33.5210   33.9250   37.7470 Cl  0  0  0  0  0  0  0  0  0  0  0  0
   33.3140   32.5930   35.3780 C   0  0  0  0  0  0  0  0  0  0  0  0
   37.1200   31.7950   35.2170 H   0  0  0  0  0  0  0  0  0  0  0  0
   36.1730   33.0830   37.1410 H   0  0  0  0  0  0  0  0  0  0  0  0
   32.2610   32.8100   35.4150 H   0  0  0  0  0  0  0  0  0  0  0  0
   35.4490   26.6200   31.1060 C   0  0  0  0  0  0  0  0  0  0  0  0
   36.3670   27.3590   31.8420 C   0  0  0  0  0  0  0  0  0  0  0  0
   37.4050   26.6690   32.4900 C   0  0  0  0  0  0  0  0  0  0  0  0
   37.4470   25.3150   32.3580 N   0  0  0  0  0  0  0  0  0  0  0  0
   36.5560   24.6310   31.6490 C   0  0  0  0  0  0  0  0  0  0  0  0
   35.5620   25.2720   31.0250 N   0  0  0  0  0  0  0  0  0  0  0  0
   34.6300   27.1140   30.5880 H   0  0  0  0  0  0  0  0  0  0  0  0
   38.1440   27.2020   33.0750 H   0  0  0  0  0  0  0  0  0  0  0  0
   36.6220   23.1500   31.5180 C   0  0  0  0  0  0  0  0  0  0  0  0
   36.8890   22.5270   32.7230 F   0  0  0  0  0  0  0  0  0  0  0  0
   35.4480   22.6410   30.9850 F   0  0  0  0  0  0  0  0  0  0  0  0
   37.6190   22.7750   30.6180 F   0  0  0  0  0  0  0  0  0  0  0  0
  2  7  1  0  0  0  0
  2  1  1  0  0  0  0
  3  2  2  0  0  0  0
  4  5  2  0  0  0  0
  4  3  1  0  0  0  0
  5  6  1  0  0  0  0
  6 10  1  0  0  0  0
  6  7  2  0  0  0  0
  7 13  1  0  0  0  0
  8  4  1  0  0  0  0
  9  5  1  0  0  0  0
 11 12  1  0  0  0  0
 12 18  1  0  0  0  0
 13 12  2  0  0  0  0
 13 14  1  0  0  0  0
 14 15  2  0  0  0  0
 15 16  1  0  0  0  0
 15 20  1  0  0  0  0
 16 17  1  0  0  0  0
 18 21  1  0  0  0  0
 18 16  2  0  0  0  0
 19 14  1  0  0  0  0
 22 23  1  0  0  0  0
 23  3  1  0  0  0  0
 23 24  2  0  0  0  0
 24 29  1  0  0  0  0
 25 24  1  0  0  0  0
 26 25  2  0  0  0  0
 27 22  2  0  0  0  0
 27 26  1  0  0  0  0
 28 22  1  0  0  0  0
 30 26  1  0  0  0  0
 30 31  1  0  0  0  0
 32 30  1  0  0  0  0
 33 30  1  0  0  0  0
M  END
>  <minimizedAffinity>
-5.54202843

$$$$

 OpenBabel03272506043D

 33 35  0  0  0  0  0  0  0  0999 V2000
   36.6840   27.0160   34.9530 Cl  0  0  0  0  0  0  0  0  0  0  0  0
   36.8170   27.7470   33.3730 C   0  0  0  0  0  0  0  0  0  0  0  0
   36.1960   28.9390   33.1610 C   0  0  0  0  0  0  0  0  0  0  0  0
   36.3470   29.4630   31.8710 C   0  0  0  0  0  0  0  0  0  0  0  0
   37.0770   28.8040   30.9000 C   0  0  0  0  0  0  0  0  0  0  0  0
   37.6810   27.6010   31.1770 C   0  0  0  0  0  0  0  0  0  0  0  0
   37.5440   27.0600   32.4550 C   0  0  0  0  0  0  0  0  0  0  0  0
   35.8620   30.4200   31.6610 H   0  0  0  0  0  0  0  0  0  0  0  0
   37.1310   29.2900   29.9460 H   0  0  0  0  0  0  0  0  0  0  0  0
   38.2340   27.1210   30.4060 H   0  0  0  0  0  0  0  0  0  0  0  0
   40.2760   27.3190   33.5070 Cl  0  0  0  0  0  0  0  0  0  0  0  0
   39.5010   25.8010   33.1520 C   0  0  0  0  0  0  0  0  0  0  0  0
   38.2060   25.8030   32.6570 C   0  0  0  0  0  0  0  0  0  0  0  0
   37.5960   24.5950   32.3770 C   0  0  0  0  0  0  0  0  0  0  0  0
   38.2890   23.3990   32.5940 C   0  0  0  0  0  0  0  0  0  0  0  0
   39.5920   23.4350   33.0930 C   0  0  0  0  0  0  0  0  0  0  0  0
   40.4270   21.9090   33.3510 Cl  0  0  0  0  0  0  0  0  0  0  0  0
   40.2110   24.6260   33.3760 C   0  0  0  0  0  0  0  0  0  0  0  0
   36.5750   24.5920   31.9870 H   0  0  0  0  0  0  0  0  0  0  0  0
   37.8070   22.4490   32.3730 H   0  0  0  0  0  0  0  0  0  0  0  0
   41.2160   24.6450   33.7600 H   0  0  0  0  0  0  0  0  0  0  0  0
   34.0440   29.4950   34.2760 C   0  0  0  0  0  0  0  0  0  0  0  0
   35.4160   29.6760   34.1460 C   0  0  0  0  0  0  0  0  0  0  0  0
   36.0450   30.5990   35.0000 C   0  0  0  0  0  0  0  0  0  0  0  0
   35.2700   31.2600   35.9020 N   0  0  0  0  0  0  0  0  0  0  0  0
   33.9600   31.0690   36.0050 C   0  0  0  0  0  0  0  0  0  0  0  0
   33.3450   30.1950   35.2020 N   0  0  0  0  0  0  0  0  0  0  0  0
   33.5170   28.7910   33.6360 H   0  0  0  0  0  0  0  0  0  0  0  0
   37.1120   30.7730   34.9360 H   0  0  0  0  0  0  0  0  0  0  0  0
   33.1330   31.8050   37.0000 C   0  0  0  0  0  0  0  0  0  0  0  0
   33.8590   32.7610   37.6850 F   0  0  0  0  0  0  0  0  0  0  0  0
   32.0360   32.4020   36.3970 F   0  0  0  0  0  0  0  0  0  0  0  0
   32.5940   30.9280   37.9420 F   0  0  0  0  0  0  0  0  0  0  0  0
  2  1  1  0  0  0  0
  3  2  1  0  0  0  0
  3 23  1  0  0  0  0
  4  3  2  0  0  0  0
  5  6  2  0  0  0  0
  5  4  1  0  0  0  0
  6  7  1  0  0  0  0
  7 13  1  0  0  0  0
  7  2  2  0  0  0  0
  8  4  1  0  0  0  0
  9  5  1  0  0  0  0
 10  6  1  0  0  0  0
 12 18  1  0  0  0  0
 12 11  1  0  0  0  0
 13 12  2  0  0  0  0
 14 15  2  0  0  0  0
 14 13  1  0  0  0  0
 15 16  1  0  0  0  0
 16 17  1  0  0  0  0
 16 18  2  0  0  0  0
 18 21  1  0  0  0  0
 19 14  1  0  0  0  0
 20 15  1  0  0  0  0
 22 27  1  0  0  0  0
 23 22  2  0  0  0  0
 23 24  1  0  0  0  0
 24 25  2  0  0  0  0
 25 26  1  0  0  0  0
 26 30  1  0  0  0  0
 27 26  2  0  0  0  0
 28 22  1  0  0  0  0
 29 24  1  0  0  0  0
 30 31  1  0  0  0  0
 30 33  1  0  0  0  0
 32 30  1  0  0  0  0
M  END
>  <minimizedAffinity>
-5.40415287

$$$$

 OpenBabel03272506043D

 33 35  0  0  0  0  0  0  0  0999 V2000
   40.8350   26.1030   32.6440 Cl  0  0  0  0  0  0  0  0  0  0  0  0
   39.3800   26.9520   32.1820 C   0  0  0  0  0  0  0  0  0  0  0  0
   38.3130   26.9060   33.0260 C   0  0  0  0  0  0  0  0  0  0  0  0
   37.1850   27.6100   32.5900 C   0  0  0  0  0  0  0  0  0  0  0  0
   37.1740   28.2950   31.3880 C   0  0  0  0  0  0  0  0  0  0  0  0
   38.2850   28.3020   30.5790 C   0  0  0  0  0  0  0  0  0  0  0  0
   39.4210   27.6070   30.9940 C   0  0  0  0  0  0  0  0  0  0  0  0
   36.3060   27.5970   33.2400 H   0  0  0  0  0  0  0  0  0  0  0  0
   36.2600   28.8000   31.1470 H   0  0  0  0  0  0  0  0  0  0  0  0
   38.2420   28.8370   29.6620 H   0  0  0  0  0  0  0  0  0  0  0  0
   39.5850   25.3120   29.1650 Cl  0  0  0  0  0  0  0  0  0  0  0  0
   40.7130   26.6380   29.1790 C   0  0  0  0  0  0  0  0  0  0  0  0
   40.5350   27.6680   30.0900 C   0  0  0  0  0  0  0  0  0  0  0  0
   41.4320   28.7180   30.0970 C   0  0  0  0  0  0  0  0  0  0  0  0
   42.5000   28.7260   29.1920 C   0  0  0  0  0  0  0  0  0  0  0  0
   42.6490   27.6730   28.2890 C   0  0  0  0  0  0  0  0  0  0  0  0
   44.0040   27.7210   27.1690 Cl  0  0  0  0  0  0  0  0  0  0  0  0
   41.7650   26.6230   28.2700 C   0  0  0  0  0  0  0  0  0  0  0  0
   41.2960   29.5320   30.8140 H   0  0  0  0  0  0  0  0  0  0  0  0
   43.2060   29.5530   29.1980 H   0  0  0  0  0  0  0  0  0  0  0  0
   41.8880   25.8150   27.5700 H   0  0  0  0  0  0  0  0  0  0  0  0
   38.1370   24.8210   34.3690 C   0  0  0  0  0  0  0  0  0  0  0  0
   38.2700   26.2030   34.3010 C   0  0  0  0  0  0  0  0  0  0  0  0
   38.3650   26.9180   35.5070 C   0  0  0  0  0  0  0  0  0  0  0  0
   38.3190   26.2130   36.6700 N   0  0  0  0  0  0  0  0  0  0  0  0
   38.1900   24.8920   36.7070 C   0  0  0  0  0  0  0  0  0  0  0  0
   38.0990   24.1950   35.5690 N   0  0  0  0  0  0  0  0  0  0  0  0
   38.0600   24.2290   33.4600 H   0  0  0  0  0  0  0  0  0  0  0  0
   38.4700   27.9960   35.5040 H   0  0  0  0  0  0  0  0  0  0  0  0
   38.1420   24.1400   37.9910 C   0  0  0  0  0  0  0  0  0  0  0  0
   37.1100   23.2220   38.0250 F   0  0  0  0  0  0  0  0  0  0  0  0
   39.3440   23.4950   38.2400 F   0  0  0  0  0  0  0  0  0  0  0  0
   37.9710   25.0100   39.0680 F   0  0  0  0  0  0  0  0  0  0  0  0
  2  1  1  0  0  0  0
  2  3  1  0  0  0  0
  3 23  1  0  0  0  0
  4  3  2  0  0  0  0
  4  8  1  0  0  0  0
  5  4  1  0  0  0  0
  6  7  1  0  0  0  0
  6  5  2  0  0  0  0
  7  2  2  0  0  0  0
  9  5  1  0  0  0  0
 10  6  1  0  0  0  0
 11 12  1  0  0  0  0
 12 13  1  0  0  0  0
 13 14  2  0  0  0  0
 13  7  1  0  0  0  0
 14 19  1  0  0  0  0
 15 20  1  0  0  0  0
 15 14  1  0  0  0  0
 16 15  2  0  0  0  0
 17 16  1  0  0  0  0
 18 16  1  0  0  0  0
 18 12  2  0  0  0  0
 21 18  1  0  0  0  0
 22 27  1  0  0  0  0
 23 22  2  0  0  0  0
 23 24  1  0  0  0  0
 24 25  2  0  0  0  0
 25 26  1  0  0  0  0
 26 30  1  0  0  0  0
 27 26  2  0  0  0  0
 28 22  1  0  0  0  0
 29 24  1  0  0  0  0
 30 31  1  0  0  0  0
 30 32  1  0  0  0  0
 30 33  1  0  0  0  0
M  END
>  <minimizedAffinity>
-5.38134956

$$$$

 OpenBabel03272506043D

 33 35  0  0  0  0  0  0  0  0999 V2000
   37.5680   27.8860   35.6310 Cl  0  0  0  0  0  0  0  0  0  0  0  0
   37.3410   28.0370   33.9070 C   0  0  0  0  0  0  0  0  0  0  0  0
   36.3230   28.8200   33.4570 C   0  0  0  0  0  0  0  0  0  0  0  0
   36.2040   28.8940   32.0650 C   0  0  0  0  0  0  0  0  0  0  0  0
   37.0660   28.2140   31.2240 C   0  0  0  0  0  0  0  0  0  0  0  0
   38.0760   27.4380   31.7410 C   0  0  0  0  0  0  0  0  0  0  0  0
   38.2140   27.3500   33.1260 C   0  0  0  0  0  0  0  0  0  0  0  0
   35.3960   29.5130   31.6640 H   0  0  0  0  0  0  0  0  0  0  0  0
   36.8880   28.3370   30.1740 H   0  0  0  0  0  0  0  0  0  0  0  0
   38.7200   26.9280   31.0660 H   0  0  0  0  0  0  0  0  0  0  0  0
   37.5200   24.4990   33.2980 Cl  0  0  0  0  0  0  0  0  0  0  0  0
   39.0820   25.1550   33.6970 C   0  0  0  0  0  0  0  0  0  0  0  0
   39.2940   26.5190   33.5780 C   0  0  0  0  0  0  0  0  0  0  0  0
   40.5350   27.0340   33.8960 C   0  0  0  0  0  0  0  0  0  0  0  0
   41.5530   26.1770   34.3320 C   0  0  0  0  0  0  0  0  0  0  0  0
   41.3040   24.8090   34.4400 C   0  0  0  0  0  0  0  0  0  0  0  0
   42.6100   23.7670   34.9910 Cl  0  0  0  0  0  0  0  0  0  0  0  0
   40.0760   24.2830   34.1270 C   0  0  0  0  0  0  0  0  0  0  0  0
   40.7060   28.1100   33.8030 H   0  0  0  0  0  0  0  0  0  0  0  0
   42.5300   26.5840   34.5820 H   0  0  0  0  0  0  0  0  0  0  0  0
   39.8940   23.2260   34.2140 H   0  0  0  0  0  0  0  0  0  0  0  0
   35.7830   30.6660   35.0330 C   0  0  0  0  0  0  0  0  0  0  0  0
   35.3870   29.5570   34.2960 C   0  0  0  0  0  0  0  0  0  0  0  0
   34.0420   29.1550   34.3780 C   0  0  0  0  0  0  0  0  0  0  0  0
   33.2100   29.8780   35.1760 N   0  0  0  0  0  0  0  0  0  0  0  0
   33.6150   30.9350   35.8700 C   0  0  0  0  0  0  0  0  0  0  0  0
   34.8900   31.3320   35.8050 N   0  0  0  0  0  0  0  0  0  0  0  0
   36.8140   31.0120   34.9990 H   0  0  0  0  0  0  0  0  0  0  0  0
   33.6860   28.2970   33.8210 H   0  0  0  0  0  0  0  0  0  0  0  0
   32.6860   31.7110   36.7370 C   0  0  0  0  0  0  0  0  0  0  0  0
   31.9440   32.6320   36.0210 F   0  0  0  0  0  0  0  0  0  0  0  0
   31.8320   30.8710   37.4360 F   0  0  0  0  0  0  0  0  0  0  0  0
   33.3900   32.4070   37.7200 F   0  0  0  0  0  0  0  0  0  0  0  0
  2  1  1  0  0  0  0
  3  2  1  0  0  0  0
  3 23  1  0  0  0  0
  4  3  2  0  0  0  0
  5  6  2  0  0  0  0
  5  4  1  0  0  0  0
  6  7  1  0  0  0  0
  7 13  1  0  0  0  0
  7  2  2  0  0  0  0
  8  4  1  0  0  0  0
  9  5  1  0  0  0  0
 10  6  1  0  0  0  0
 11 12  1  0  0  0  0
 12 18  1  0  0  0  0
 13 12  2  0  0  0  0
 13 14  1  0  0  0  0
 14 15  2  0  0  0  0
 15 16  1  0  0  0  0
 15 20  1  0  0  0  0
 16 17  1  0  0  0  0
 18 21  1  0  0  0  0
 18 16  2  0  0  0  0
 19 14  1  0  0  0  0
 22 27  1  0  0  0  0
 23 24  1  0  0  0  0
 23 22  2  0  0  0  0
 24 25  2  0  0  0  0
 25 26  1  0  0  0  0
 26 30  1  0  0  0  0
 27 26  2  0  0  0  0
 28 22  1  0  0  0  0
 29 24  1  0  0  0  0
 30 32  1  0  0  0  0
 30 33  1  0  0  0  0
 31 30  1  0  0  0  0
M  END
>  <minimizedAffinity>
-5.35647106

$$$$

 OpenBabel03272506043D

 33 35  0  0  0  0  0  0  0  0999 V2000
   34.8850   29.1690   34.3690 Cl  0  0  0  0  0  0  0  0  0  0  0  0
   35.7940   29.1920   32.8780 C   0  0  0  0  0  0  0  0  0  0  0  0
   36.8030   28.2920   32.7250 C   0  0  0  0  0  0  0  0  0  0  0  0
   37.4840   28.3710   31.5050 C   0  0  0  0  0  0  0  0  0  0  0  0
   37.1440   29.3010   30.5400 C   0  0  0  0  0  0  0  0  0  0  0  0
   36.1130   30.1840   30.7550 C   0  0  0  0  0  0  0  0  0  0  0  0
   35.4200   30.1240   31.9640 C   0  0  0  0  0  0  0  0  0  0  0  0
   38.3030   27.6640   31.3430 H   0  0  0  0  0  0  0  0  0  0  0  0
   37.7290   29.2770   29.6420 H   0  0  0  0  0  0  0  0  0  0  0  0
   35.8780   30.8860   29.9920 H   0  0  0  0  0  0  0  0  0  0  0  0
   36.2760   32.6650   33.1690 Cl  0  0  0  0  0  0  0  0  0  0  0  0
   34.6470   32.3190   32.6610 C   0  0  0  0  0  0  0  0  0  0  0  0
   34.3600   31.0820   32.1050 C   0  0  0  0  0  0  0  0  0  0  0  0
   33.0660   30.8130   31.7030 C   0  0  0  0  0  0  0  0  0  0  0  0
   32.0710   31.7850   31.8640 C   0  0  0  0  0  0  0  0  0  0  0  0
   32.3960   33.0190   32.4280 C   0  0  0  0  0  0  0  0  0  0  0  0
   31.1170   34.2120   32.6120 Cl  0  0  0  0  0  0  0  0  0  0  0  0
   33.6770   33.3010   32.8310 C   0  0  0  0  0  0  0  0  0  0  0  0
   32.8350   29.8390   31.2640 H   0  0  0  0  0  0  0  0  0  0  0  0
   31.0530   31.5720   31.5480 H   0  0  0  0  0  0  0  0  0  0  0  0
   33.9180   34.2550   33.2660 H   0  0  0  0  0  0  0  0  0  0  0  0
   37.6080   27.6480   34.9870 C   0  0  0  0  0  0  0  0  0  0  0  0
   37.2030   27.2930   33.7060 C   0  0  0  0  0  0  0  0  0  0  0  0
   37.1870   25.9270   33.3720 C   0  0  0  0  0  0  0  0  0  0  0  0
   37.5710   25.0350   34.3260 N   0  0  0  0  0  0  0  0  0  0  0  0
   37.9540   25.4010   35.5430 C   0  0  0  0  0  0  0  0  0  0  0  0
   37.9750   26.6960   35.8780 N   0  0  0  0  0  0  0  0  0  0  0  0
   37.6350   28.6930   35.2870 H   0  0  0  0  0  0  0  0  0  0  0  0
   36.8790   25.6020   32.3860 H   0  0  0  0  0  0  0  0  0  0  0  0
   38.3700   24.4070   36.5700 C   0  0  0  0  0  0  0  0  0  0  0  0
   39.6890   24.0190   36.4240 F   0  0  0  0  0  0  0  0  0  0  0  0
   38.1730   24.8980   37.8520 F   0  0  0  0  0  0  0  0  0  0  0  0
   37.5810   23.2600   36.4990 F   0  0  0  0  0  0  0  0  0  0  0  0
  2  1  1  0  0  0  0
  3  2  1  0  0  0  0
  3 23  1  0  0  0  0
  4  3  2  0  0  0  0
  5  6  2  0  0  0  0
  5  4  1  0  0  0  0
  6  7  1  0  0  0  0
  7 13  1  0  0  0  0
  7  2  2  0  0  0  0
  8  4  1  0  0  0  0
  9  5  1  0  0  0  0
 10  6  1  0  0  0  0
 12 18  1  0  0  0  0
 12 11  1  0  0  0  0
 13 12  2  0  0  0  0
 14 15  2  0  0  0  0
 14 13  1  0  0  0  0
 15 16  1  0  0  0  0
 16 17  1  0  0  0  0
 16 18  2  0  0  0  0
 18 21  1  0  0  0  0
 19 14  1  0  0  0  0
 20 15  1  0  0  0  0
 22 28  1  0  0  0  0
 22 27  1  0  0  0  0
 23 22  2  0  0  0  0
 24 23  1  0  0  0  0
 24 25  2  0  0  0  0
 25 26  1  0  0  0  0
 26 27  2  0  0  0  0
 26 30  1  0  0  0  0
 29 24  1  0  0  0  0
 30 32  1  0  0  0  0
 31 30  1  0  0  0  0
 33 30  1  0  0  0  0
M  END
>  <minimizedAffinity>
-5.34504461

$$$$

 OpenBabel03272506043D

 33 35  0  0  0  0  0  0  0  0999 V2000
   38.7960   28.1080   31.3410 Cl  0  0  0  0  0  0  0  0  0  0  0  0
   37.1980   28.7210   31.6850 C   0  0  0  0  0  0  0  0  0  0  0  0
   36.5370   28.2250   32.7670 C   0  0  0  0  0  0  0  0  0  0  0  0
   35.2630   28.7650   32.9790 C   0  0  0  0  0  0  0  0  0  0  0  0
   34.7330   29.7290   32.1410 C   0  0  0  0  0  0  0  0  0  0  0  0
   35.4510   30.1880   31.0640 C   0  0  0  0  0  0  0  0  0  0  0  0
   36.7240   29.6650   30.8330 C   0  0  0  0  0  0  0  0  0  0  0  0
   34.7000   28.3910   33.8390 H   0  0  0  0  0  0  0  0  0  0  0  0
   33.7500   30.0750   32.3920 H   0  0  0  0  0  0  0  0  0  0  0  0
   35.0130   30.9290   30.4400 H   0  0  0  0  0  0  0  0  0  0  0  0
   37.4090   32.5120   31.0910 Cl  0  0  0  0  0  0  0  0  0  0  0  0
   37.7770   31.5360   29.6960 C   0  0  0  0  0  0  0  0  0  0  0  0
   37.4030   30.2010   29.6880 C   0  0  0  0  0  0  0  0  0  0  0  0
   37.6970   29.4310   28.5790 C   0  0  0  0  0  0  0  0  0  0  0  0
   38.3620   30.0070   27.4890 C   0  0  0  0  0  0  0  0  0  0  0  0
   38.7230   31.3540   27.5330 C   0  0  0  0  0  0  0  0  0  0  0  0
   39.5570   32.0370   26.1430 Cl  0  0  0  0  0  0  0  0  0  0  0  0
   38.4380   32.1300   28.6270 C   0  0  0  0  0  0  0  0  0  0  0  0
   37.4040   28.3780   28.5680 H   0  0  0  0  0  0  0  0  0  0  0  0
   38.5920   29.3990   26.6180 H   0  0  0  0  0  0  0  0  0  0  0  0
   38.7200   33.1690   28.6520 H   0  0  0  0  0  0  0  0  0  0  0  0
   37.4280   27.5250   34.9800 C   0  0  0  0  0  0  0  0  0  0  0  0
   37.0480   27.2120   33.6810 C   0  0  0  0  0  0  0  0  0  0  0  0
   37.1670   25.8760   33.2610 C   0  0  0  0  0  0  0  0  0  0  0  0
   37.6500   24.9690   34.1540 N   0  0  0  0  0  0  0  0  0  0  0  0
   38.0060   25.2950   35.3910 C   0  0  0  0  0  0  0  0  0  0  0  0
   37.8990   26.5610   35.8080 N   0  0  0  0  0  0  0  0  0  0  0  0
   37.3520   28.5470   35.3470 H   0  0  0  0  0  0  0  0  0  0  0  0
   36.8830   25.5840   32.2570 H   0  0  0  0  0  0  0  0  0  0  0  0
   38.5320   24.2860   36.3510 C   0  0  0  0  0  0  0  0  0  0  0  0
   39.8800   24.0420   36.1720 F   0  0  0  0  0  0  0  0  0  0  0  0
   38.3030   24.6760   37.6620 F   0  0  0  0  0  0  0  0  0  0  0  0
   37.8590   23.0730   36.2130 F   0  0  0  0  0  0  0  0  0  0  0  0
  1  2  1  0  0  0  0
  2  3  1  0  0  0  0
  3  4  2  0  0  0  0
  3 23  1  0  0  0  0
  4  8  1  0  0  0  0
  5  9  1  0  0  0  0
  5  4  1  0  0  0  0
  6  5  2  0  0  0  0
  7  6  1  0  0  0  0
  7  2  2  0  0  0  0
 10  6  1  0  0  0  0
 12 11  1  0  0  0  0
 13 12  1  0  0  0  0
 13  7  1  0  0  0  0
 14 13  2  0  0  0  0
 15 16  2  0  0  0  0
 15 14  1  0  0  0  0
 16 18  1  0  0  0  0
 17 16  1  0  0  0  0
 18 21  1  0  0  0  0
 18 12  2  0  0  0  0
 19 14  1  0  0  0  0
 20 15  1  0  0  0  0
 22 28  1  0  0  0  0
 22 27  1  0  0  0  0
 23 22  2  0  0  0  0
 24 23  1  0  0  0  0
 24 25  2  0  0  0  0
 25 26  1  0  0  0  0
 26 27  2  0  0  0  0
 26 30  1  0  0  0  0
 29 24  1  0  0  0  0
 30 32  1  0  0  0  0
 31 30  1  0  0  0  0
 33 30  1  0  0  0  0
M  END
>  <minimizedAffinity>
-5.2686162

$$$$
