
 OpenBabel03272510233D

 26 28  0  0  0  0  0  0  0  0999 V2000
   35.8820   30.0970   46.9000 C   0  0  0  0  0  0  0  0  0  0  0  0
   36.8380   30.5640   47.7710 C   0  0  0  0  0  0  0  0  0  0  0  0
   37.8890   31.3250   47.3130 C   0  0  0  0  0  0  0  0  0  0  0  0
   37.9390   31.5940   45.9570 C   0  0  0  0  0  0  0  0  0  0  0  0
   38.8760   32.3200   45.2740 N   0  0  0  0  0  0  0  0  0  0  0  0
   38.5160   32.3120   43.9840 C   0  0  0  0  0  0  0  0  0  0  0  0
   37.3830   31.6070   43.8140 N   0  0  0  0  0  0  0  0  0  0  0  0
   37.0000   31.1470   45.0350 C   0  0  0  0  0  0  0  0  0  0  0  0
   35.9580   30.3850   45.5300 C   0  0  0  0  0  0  0  0  0  0  0  0
   35.0350   29.4970   47.1900 H   0  0  0  0  0  0  0  0  0  0  0  0
   38.6310   31.6870   47.9960 H   0  0  0  0  0  0  0  0  0  0  0  0
   39.7260   32.8000   45.6800 H   0  0  0  0  0  0  0  0  0  0  0  0
   35.2040   30.0190   44.8270 H   0  0  0  0  0  0  0  0  0  0  0  0
   37.3570   30.1100   51.4770 C   0  0  0  0  0  0  0  0  0  0  0  0
   37.5960   30.4830   50.1590 C   0  0  0  0  0  0  0  0  0  0  0  0
   36.6650   30.2070   49.1760 C   0  0  0  0  0  0  0  0  0  0  0  0
   35.5140   29.5640   49.5360 N   0  0  0  0  0  0  0  0  0  0  0  0
   35.3100   29.2100   50.8430 C   0  0  0  0  0  0  0  0  0  0  0  0
   36.2090   29.4770   51.7860 N   0  0  0  0  0  0  0  0  0  0  0  0
   38.1000   30.3400   52.2130 H   0  0  0  0  0  0  0  0  0  0  0  0
   38.4980   30.9840   49.8970 H   0  0  0  0  0  0  0  0  0  0  0  0
   34.3640   28.7040   51.0140 H   0  0  0  0  0  0  0  0  0  0  0  0
   39.3050   33.0080   42.9230 C   0  0  0  0  0  0  0  0  0  0  0  0
   40.1600   32.1840   42.2510 F   0  0  0  0  0  0  0  0  0  0  0  0
   40.0350   34.0430   43.5040 F   0  0  0  0  0  0  0  0  0  0  0  0
   38.4680   33.6120   42.0020 F   0  0  0  0  0  0  0  0  0  0  0  0
  1 10  1  0  0  0  0
  1  2  1  0  0  0  0
  2 16  1  0  0  0  0
  3  2  2  0  0  0  0
  3 11  1  0  0  0  0
  4  3  1  0  0  0  0
  5 12  1  0  0  0  0
  5  4  1  0  0  0  0
  6  5  1  0  0  0  0
  7  6  2  0  0  0  0
  7  8  1  0  0  0  0
  8  9  1  0  0  0  0
  8  4  2  0  0  0  0
  9  1  2  0  0  0  0
 13  9  1  0  0  0  0
 14 19  1  0  0  0  0
 14 20  1  0  0  0  0
 15 14  2  0  0  0  0
 16 17  2  0  0  0  0
 16 15  1  0  0  0  0
 17 18  1  0  0  0  0
 18 22  1  0  0  0  0
 18 19  2  0  0  0  0
 21 15  1  0  0  0  0
 23 25  1  0  0  0  0
 23  6  1  0  0  0  0
 24 23  1  0  0  0  0
 26 23  1  0  0  0  0
M  END
>  <minimizedAffinity>
-5.38554859

>  <minimizedRMSD>
1.75155401

$$$$
