
 OpenBabel03272509503D

 28 29  0  0  0  0  0  0  0  0999 V2000
   33.8850   28.6620   48.7830 C   0  0  0  0  0  0  0  0  0  0  0  0
   33.2340   29.2670   49.4780 H   0  0  0  0  0  0  0  0  0  0  0  0
   34.2250   29.3490   48.0010 H   0  0  0  0  0  0  0  0  0  0  0  0
   33.0460   27.5180   48.2860 C   0  0  0  0  0  0  0  0  0  0  0  0
   33.1230   26.6650   49.0100 H   0  0  0  0  0  0  0  0  0  0  0  0
   33.4870   27.1040   47.3360 H   0  0  0  0  0  0  0  0  0  0  0  0
   31.6180   27.8850   48.1330 C   0  0  0  0  0  0  0  0  0  0  0  0
   30.7860   27.6380   49.2000 C   0  0  0  0  0  0  0  0  0  0  0  0
   29.4460   27.9310   49.1820 C   0  0  0  0  0  0  0  0  0  0  0  0
   28.9130   28.4830   48.0850 N   0  0  0  0  0  0  0  0  0  0  0  0
   29.7290   28.7260   47.0380 C   0  0  0  0  0  0  0  0  0  0  0  0
   31.0460   28.4420   47.0420 N   0  0  0  0  0  0  0  0  0  0  0  0
   31.1620   27.1890   50.1250 H   0  0  0  0  0  0  0  0  0  0  0  0
   28.7730   27.7370   50.0310 H   0  0  0  0  0  0  0  0  0  0  0  0
   29.3380   29.1680   46.1360 H   0  0  0  0  0  0  0  0  0  0  0  0
   34.9490   28.1690   49.5810 O   0  0  0  0  0  0  0  0  0  0  0  0
   37.3140   30.2250   51.3940 C   0  0  0  0  0  0  0  0  0  0  0  0
   37.9720   30.8560   50.3290 C   0  0  0  0  0  0  0  0  0  0  0  0
   37.5500   30.5270   49.0420 C   0  0  0  0  0  0  0  0  0  0  0  0
   36.5370   29.6230   48.9040 N   0  0  0  0  0  0  0  0  0  0  0  0
   35.9380   29.0440   49.9500 C   0  0  0  0  0  0  0  0  0  0  0  0
   36.3340   29.3520   51.1960 N   0  0  0  0  0  0  0  0  0  0  0  0
   37.6660   30.5030   52.3830 H   0  0  0  0  0  0  0  0  0  0  0  0
   38.7720   31.5690   50.4710 H   0  0  0  0  0  0  0  0  0  0  0  0
   38.1910   31.1500   47.8320 C   0  0  0  0  0  0  0  0  0  0  0  0
   37.1690   31.8730   47.2040 F   0  0  0  0  0  0  0  0  0  0  0  0
   39.2230   31.9930   48.2260 F   0  0  0  0  0  0  0  0  0  0  0  0
   38.6690   30.1400   47.0490 F   0  0  0  0  0  0  0  0  0  0  0  0
  1  2  1  0  0  0  0
  1 16  1  0  0  0  0
  3  1  1  0  0  0  0
  4  1  1  0  0  0  0
  4  5  1  0  0  0  0
  6  4  1  0  0  0  0
  7  4  1  0  0  0  0
  7  8  1  0  0  0  0
  8 13  1  0  0  0  0
  9  8  2  0  0  0  0
  9 14  1  0  0  0  0
 10  9  1  0  0  0  0
 11 12  1  0  0  0  0
 11 10  2  0  0  0  0
 12  7  2  0  0  0  0
 15 11  1  0  0  0  0
 16 21  1  0  0  0  0
 17 23  1  0  0  0  0
 18 24  1  0  0  0  0
 18 17  2  0  0  0  0
 19 18  1  0  0  0  0
 20 19  2  0  0  0  0
 20 21  1  0  0  0  0
 21 22  2  0  0  0  0
 22 17  1  0  0  0  0
 25 27  1  0  0  0  0
 25 19  1  0  0  0  0
 26 25  1  0  0  0  0
 28 25  1  0  0  0  0
M  END
>  <minimizedAffinity>
-5.19566965

>  <minimizedRMSD>
0.469435304

$$$$
