
 OpenBabel03262522003D

 31 32  0  0  1  0  0  0  0  0999 V2000
   38.0040   25.9210   34.3440 N   0  0  0  0  0  0  0  0  0  0  0  0
   37.8050   27.1640   35.0050 C   0  0  0  0  0  0  0  0  0  0  0  0
   36.7320   28.0430   34.5180 C   0  0  0  0  0  0  0  0  0  0  0  0
   36.2740   27.8880   33.1120 C   0  0  0  0  0  0  0  0  0  0  0  0
   36.6490   26.5960   32.4570 C   0  0  0  0  0  0  0  0  0  0  0  0
   38.0390   26.1400   32.9330 C   0  0  1  0  0  0  0  0  0  0  0  0
   37.6110   26.8680   36.0800 H   0  0  0  0  0  0  0  0  0  0  0  0
   38.7450   27.7780   35.1440 H   0  0  0  0  0  0  0  0  0  0  0  0
   35.8650   28.0060   35.2450 H   0  0  0  0  0  0  0  0  0  0  0  0
   37.0290   29.1330   34.6060 H   0  0  0  0  0  0  0  0  0  0  0  0
   35.1440   27.8400   33.1260 H   0  0  0  0  0  0  0  0  0  0  0  0
   36.4100   28.7990   32.4680 H   0  0  0  0  0  0  0  0  0  0  0  0
   36.6180   26.6970   31.3680 H   0  0  0  0  0  0  0  0  0  0  0  0
   35.9760   25.7780   32.7850 H   0  0  0  0  0  0  0  0  0  0  0  0
   38.1300   25.1260   32.4860 H   0  0  0  0  0  0  0  0  0  0  0  0
   38.1490   24.6440   34.9890 C   0  0  0  0  0  0  0  0  0  0  0  0
   38.2810   23.4280   34.3210 C   0  0  0  0  0  0  0  0  0  0  0  0
   38.4110   22.2740   35.0910 C   0  0  0  0  0  0  0  0  0  0  0  0
   38.4020   22.4110   36.4550 N   0  0  0  0  0  0  0  0  0  0  0  0
   38.2750   23.5830   37.0590 C   0  0  0  0  0  0  0  0  0  0  0  0
   38.1510   24.6850   36.3240 N   0  0  0  0  0  0  0  0  0  0  0  0
   38.2710   23.4670   33.2570 H   0  0  0  0  0  0  0  0  0  0  0  0
   38.5130   21.3270   34.5660 H   0  0  0  0  0  0  0  0  0  0  0  0
   38.2770   23.6270   38.5410 C   0  0  0  0  0  0  0  0  0  0  0  0
   39.5370   23.3850   39.0030 F   0  0  0  0  0  0  0  0  0  0  0  0
   37.8570   24.8820   38.9810 F   0  0  0  0  0  0  0  0  0  0  0  0
   37.3990   22.6880   39.0450 F   0  0  0  0  0  0  0  0  0  0  0  0
   39.0540   27.1100   32.4370 C   0  0  0  0  0  0  0  0  0  0  0  0
   39.9080   26.3810   31.5960 F   0  0  0  0  0  0  0  0  0  0  0  0
   39.8750   27.5090   33.4600 F   0  0  0  0  0  0  0  0  0  0  0  0
   38.5920   28.1330   31.6840 F   0  0  0  0  0  0  0  0  0  0  0  0
  1 16  1  0  0  0  0
  1  2  1  0  0  0  0
  2  8  1  0  0  0  0
  2  7  1  0  0  0  0
  3 10  1  0  0  0  0
  3  2  1  0  0  0  0
  3  9  1  0  0  0  0
  4 11  1  0  0  0  0
  4  3  1  0  0  0  0
  5 14  1  0  0  0  0
  5  6  1  0  0  0  0
  5  4  1  0  0  0  0
  6 15  1  6  0  0  0
  6  1  1  0  0  0  0
 12  4  1  0  0  0  0
 13  5  1  0  0  0  0
 16 21  1  0  0  0  0
 17 16  2  0  0  0  0
 17 18  1  0  0  0  0
 18 19  2  0  0  0  0
 19 20  1  0  0  0  0
 20 24  1  0  0  0  0
 21 20  2  0  0  0  0
 22 17  1  0  0  0  0
 23 18  1  0  0  0  0
 24 26  1  0  0  0  0
 24 25  1  0  0  0  0
 24 27  1  0  0  0  0
 28  6  1  0  0  0  0
 28 30  1  0  0  0  0
 29 28  1  0  0  0  0
 31 28  1  0  0  0  0
M  END
>  <minimizedAffinity>
-5.52616692

$$$$

 OpenBabel03262522003D

 31 32  0  0  1  0  0  0  0  0999 V2000
   38.9110   23.3740   35.1560 N   0  0  0  0  0  0  0  0  0  0  0  0
   39.9130   24.3820   35.2070 C   0  0  0  0  0  0  0  0  0  0  0  0
   41.2530   24.0030   35.6790 C   0  0  0  0  0  0  0  0  0  0  0  0
   41.3830   22.8070   36.5520 C   0  0  0  0  0  0  0  0  0  0  0  0
   40.2150   21.8710   36.5320 C   0  0  0  0  0  0  0  0  0  0  0  0
   38.9020   22.6590   36.3920 C   0  0  1  0  0  0  0  0  0  0  0  0
   39.9670   24.7600   34.1410 H   0  0  0  0  0  0  0  0  0  0  0  0
   39.5970   25.3330   35.7300 H   0  0  0  0  0  0  0  0  0  0  0  0
   41.9560   23.9510   34.7930 H   0  0  0  0  0  0  0  0  0  0  0  0
   41.7270   24.8450   36.2690 H   0  0  0  0  0  0  0  0  0  0  0  0
   42.2190   22.1700   36.1340 H   0  0  0  0  0  0  0  0  0  0  0  0
   41.8040   23.0120   37.5740 H   0  0  0  0  0  0  0  0  0  0  0  0
   40.2100   21.2480   37.4320 H   0  0  0  0  0  0  0  0  0  0  0  0
   40.2380   21.2330   35.6250 H   0  0  0  0  0  0  0  0  0  0  0  0
   38.1470   21.8540   36.2550 H   0  0  0  0  0  0  0  0  0  0  0  0
   38.0430   23.1120   34.0400 C   0  0  0  0  0  0  0  0  0  0  0  0
   37.9030   23.9450   32.9310 C   0  0  0  0  0  0  0  0  0  0  0  0
   37.0170   23.5510   31.9310 C   0  0  0  0  0  0  0  0  0  0  0  0
   36.3420   22.3690   32.1020 N   0  0  0  0  0  0  0  0  0  0  0  0
   36.4990   21.6010   33.1690 C   0  0  0  0  0  0  0  0  0  0  0  0
   37.3450   21.9770   34.1250 N   0  0  0  0  0  0  0  0  0  0  0  0
   38.4890   24.8340   32.9280 H   0  0  0  0  0  0  0  0  0  0  0  0
   36.9100   24.2030   31.0670 H   0  0  0  0  0  0  0  0  0  0  0  0
   35.7230   20.3410   33.2620 C   0  0  0  0  0  0  0  0  0  0  0  0
   35.4450   20.0710   34.5690 F   0  0  0  0  0  0  0  0  0  0  0  0
   34.5290   20.4630   32.5510 F   0  0  0  0  0  0  0  0  0  0  0  0
   36.4390   19.3000   32.7050 F   0  0  0  0  0  0  0  0  0  0  0  0
   38.7000   23.4700   37.6250 C   0  0  0  0  0  0  0  0  0  0  0  0
   37.5250   22.9840   38.2190 F   0  0  0  0  0  0  0  0  0  0  0  0
   38.3850   24.7640   37.3020 F   0  0  0  0  0  0  0  0  0  0  0  0
   39.6550   23.3660   38.5760 F   0  0  0  0  0  0  0  0  0  0  0  0
  1  2  1  0  0  0  0
  1  6  1  0  0  0  0
  2  3  1  0  0  0  0
  2  8  1  0  0  0  0
  3 10  1  0  0  0  0
  3  4  1  0  0  0  0
  4 12  1  0  0  0  0
  5  4  1  0  0  0  0
  5 13  1  0  0  0  0
  6 15  1  6  0  0  0
  6  5  1  0  0  0  0
  6 28  1  0  0  0  0
  7  2  1  0  0  0  0
  9  3  1  0  0  0  0
 11  4  1  0  0  0  0
 14  5  1  0  0  0  0
 16 21  1  0  0  0  0
 16  1  1  0  0  0  0
 17 16  2  0  0  0  0
 18 19  2  0  0  0  0
 18 17  1  0  0  0  0
 19 20  1  0  0  0  0
 20 24  1  0  0  0  0
 20 21  2  0  0  0  0
 22 17  1  0  0  0  0
 23 18  1  0  0  0  0
 24 25  1  0  0  0  0
 26 24  1  0  0  0  0
 27 24  1  0  0  0  0
 28 29  1  0  0  0  0
 28 31  1  0  0  0  0
 30 28  1  0  0  0  0
M  END
>  <minimizedAffinity>
-5.44960022

$$$$

 OpenBabel03262522003D

 31 32  0  0  1  0  0  0  0  0999 V2000
   38.8540   23.0230   35.6030 N   0  0  0  0  0  0  0  0  0  0  0  0
   40.0440   23.1020   36.3770 C   0  0  0  0  0  0  0  0  0  0  0  0
   39.9290   22.9850   37.8380 C   0  0  0  0  0  0  0  0  0  0  0  0
   38.6280   23.3180   38.4740 C   0  0  0  0  0  0  0  0  0  0  0  0
   37.4520   23.3410   37.5490 C   0  0  0  0  0  0  0  0  0  0  0  0
   37.8670   23.8850   36.1720 C   0  0  1  0  0  0  0  0  0  0  0  0
   40.6860   22.2660   35.9660 H   0  0  0  0  0  0  0  0  0  0  0  0
   40.7060   23.9870   36.1320 H   0  0  0  0  0  0  0  0  0  0  0  0
   40.3000   21.9630   38.1570 H   0  0  0  0  0  0  0  0  0  0  0  0
   40.6840   23.6500   38.3580 H   0  0  0  0  0  0  0  0  0  0  0  0
   38.3700   22.4750   39.1820 H   0  0  0  0  0  0  0  0  0  0  0  0
   38.6650   24.1680   39.2080 H   0  0  0  0  0  0  0  0  0  0  0  0
   36.6390   23.9340   37.9790 H   0  0  0  0  0  0  0  0  0  0  0  0
   37.1020   22.3110   37.3320 H   0  0  0  0  0  0  0  0  0  0  0  0
   36.9530   23.7220   35.5580 H   0  0  0  0  0  0  0  0  0  0  0  0
   38.6680   22.2080   34.4330 C   0  0  0  0  0  0  0  0  0  0  0  0
   39.6890   21.8140   33.5700 C   0  0  0  0  0  0  0  0  0  0  0  0
   39.3460   21.0220   32.4760 C   0  0  0  0  0  0  0  0  0  0  0  0
   38.0270   20.6800   32.3230 N   0  0  0  0  0  0  0  0  0  0  0  0
   37.0810   21.0710   33.1620 C   0  0  0  0  0  0  0  0  0  0  0  0
   37.4080   21.8270   34.2070 N   0  0  0  0  0  0  0  0  0  0  0  0
   40.6700   22.1520   33.8090 H   0  0  0  0  0  0  0  0  0  0  0  0
   40.1450   20.7170   31.8050 H   0  0  0  0  0  0  0  0  0  0  0  0
   35.6820   20.6490   32.9090 C   0  0  0  0  0  0  0  0  0  0  0  0
   35.2030   19.9820   33.9970 F   0  0  0  0  0  0  0  0  0  0  0  0
   34.8850   21.7670   32.6640 F   0  0  0  0  0  0  0  0  0  0  0  0
   35.6260   19.8380   31.7930 F   0  0  0  0  0  0  0  0  0  0  0  0
   38.2440   25.3180   36.3190 C   0  0  0  0  0  0  0  0  0  0  0  0
   37.2790   26.0480   35.6090 F   0  0  0  0  0  0  0  0  0  0  0  0
   39.4070   25.5800   35.6420 F   0  0  0  0  0  0  0  0  0  0  0  0
   38.2240   25.8190   37.5740 F   0  0  0  0  0  0  0  0  0  0  0  0
  1  6  1  0  0  0  0
  1  2  1  0  0  0  0
  2  3  1  0  0  0  0
  3  9  1  0  0  0  0
  3 10  1  0  0  0  0
  3  4  1  0  0  0  0
  4 11  1  0  0  0  0
  4 12  1  0  0  0  0
  5 13  1  0  0  0  0
  5  4  1  0  0  0  0
  6 15  1  6  0  0  0
  6 28  1  0  0  0  0
  6  5  1  0  0  0  0
  7  2  1  0  0  0  0
  8  2  1  0  0  0  0
 14  5  1  0  0  0  0
 16  1  1  0  0  0  0
 17 22  1  0  0  0  0
 17 16  2  0  0  0  0
 18 17  1  0  0  0  0
 19 18  2  0  0  0  0
 19 20  1  0  0  0  0
 20 21  2  0  0  0  0
 21 16  1  0  0  0  0
 23 18  1  0  0  0  0
 24 20  1  0  0  0  0
 24 25  1  0  0  0  0
 26 24  1  0  0  0  0
 27 24  1  0  0  0  0
 28 31  1  0  0  0  0
 29 28  1  0  0  0  0
 30 28  1  0  0  0  0
M  END
>  <minimizedAffinity>
-5.44066715

$$$$

 OpenBabel03262522003D

 31 32  0  0  1  0  0  0  0  0999 V2000
   38.4640   24.7650   35.6090 N   0  0  0  0  0  0  0  0  0  0  0  0
   39.8700   24.5640   35.6620 C   0  0  0  0  0  0  0  0  0  0  0  0
   40.3800   23.1920   35.5270 C   0  0  0  0  0  0  0  0  0  0  0  0
   39.4740   22.0650   35.8700 C   0  0  0  0  0  0  0  0  0  0  0  0
   38.0180   22.4080   35.9220 C   0  0  0  0  0  0  0  0  0  0  0  0
   37.8250   23.8290   36.4780 C   0  0  1  0  0  0  0  0  0  0  0  0
   40.2650   25.2120   34.8210 H   0  0  0  0  0  0  0  0  0  0  0  0
   40.3840   25.0600   36.5400 H   0  0  0  0  0  0  0  0  0  0  0  0
   40.8310   23.0650   34.4960 H   0  0  0  0  0  0  0  0  0  0  0  0
   41.2950   23.0340   36.1740 H   0  0  0  0  0  0  0  0  0  0  0  0
   39.5220   21.3190   35.0220 H   0  0  0  0  0  0  0  0  0  0  0  0
   39.8320   21.4090   36.7100 H   0  0  0  0  0  0  0  0  0  0  0  0
   37.4730   21.6710   36.5200 H   0  0  0  0  0  0  0  0  0  0  0  0
   37.5900   22.4630   34.9000 H   0  0  0  0  0  0  0  0  0  0  0  0
   36.7340   24.0000   36.3350 H   0  0  0  0  0  0  0  0  0  0  0  0
   37.7880   25.7520   34.8120 C   0  0  0  0  0  0  0  0  0  0  0  0
   37.5290   27.0600   35.2190 C   0  0  0  0  0  0  0  0  0  0  0  0
   36.8610   27.8980   34.3280 C   0  0  0  0  0  0  0  0  0  0  0  0
   36.5040   27.3810   33.1090 N   0  0  0  0  0  0  0  0  0  0  0  0
   36.7660   26.1330   32.7530 C   0  0  0  0  0  0  0  0  0  0  0  0
   37.4030   25.3320   33.6040 N   0  0  0  0  0  0  0  0  0  0  0  0
   37.8630   27.3290   36.1940 H   0  0  0  0  0  0  0  0  0  0  0  0
   36.6610   28.9170   34.6490 H   0  0  0  0  0  0  0  0  0  0  0  0
   36.3370   25.6670   31.4120 C   0  0  0  0  0  0  0  0  0  0  0  0
   35.8400   26.7190   30.7020 F   0  0  0  0  0  0  0  0  0  0  0  0
   37.4240   25.1210   30.7290 F   0  0  0  0  0  0  0  0  0  0  0  0
   35.3780   24.6820   31.5350 F   0  0  0  0  0  0  0  0  0  0  0  0
   38.2550   23.8450   37.9030 C   0  0  0  0  0  0  0  0  0  0  0  0
   37.3080   23.0830   38.6030 F   0  0  0  0  0  0  0  0  0  0  0  0
   38.1100   25.1010   38.4330 F   0  0  0  0  0  0  0  0  0  0  0  0
   39.4500   23.2770   38.1780 F   0  0  0  0  0  0  0  0  0  0  0  0
  1  2  1  0  0  0  0
  1  6  1  0  0  0  0
  2  8  1  0  0  0  0
  3  2  1  0  0  0  0
  3  4  1  0  0  0  0
  3 10  1  0  0  0  0
  4  5  1  0  0  0  0
  4 12  1  0  0  0  0
  5  6  1  0  0  0  0
  5 13  1  0  0  0  0
  6 15  1  6  0  0  0
  6 28  1  0  0  0  0
  7  2  1  0  0  0  0
  9  3  1  0  0  0  0
 11  4  1  0  0  0  0
 14  5  1  0  0  0  0
 16 17  1  0  0  0  0
 16  1  1  0  0  0  0
 17 22  1  0  0  0  0
 18 23  1  0  0  0  0
 18 17  2  0  0  0  0
 19 18  1  0  0  0  0
 20 19  2  0  0  0  0
 20 21  1  0  0  0  0
 21 16  2  0  0  0  0
 24 27  1  0  0  0  0
 24 20  1  0  0  0  0
 25 24  1  0  0  0  0
 26 24  1  0  0  0  0
 28 31  1  0  0  0  0
 28 30  1  0  0  0  0
 28 29  1  0  0  0  0
M  END
>  <minimizedAffinity>
-5.42790699

$$$$

 OpenBabel03262522003D

 31 32  0  0  1  0  0  0  0  0999 V2000
   38.3480   26.1520   34.4170 N   0  0  0  0  0  0  0  0  0  0  0  0
   39.4010   26.9590   34.9280 C   0  0  0  0  0  0  0  0  0  0  0  0
   40.7550   26.3870   34.9680 C   0  0  0  0  0  0  0  0  0  0  0  0
   40.8970   24.9080   34.9960 C   0  0  0  0  0  0  0  0  0  0  0  0
   39.6850   24.1420   34.5680 C   0  0  0  0  0  0  0  0  0  0  0  0
   38.4070   24.8630   35.0290 C   0  0  1  0  0  0  0  0  0  0  0  0
   39.3830   27.8750   34.2630 H   0  0  0  0  0  0  0  0  0  0  0  0
   39.1800   27.4450   35.9250 H   0  0  0  0  0  0  0  0  0  0  0  0
   41.3760   26.8500   34.1430 H   0  0  0  0  0  0  0  0  0  0  0  0
   41.3200   26.7500   35.8800 H   0  0  0  0  0  0  0  0  0  0  0  0
   41.6600   24.6250   34.2110 H   0  0  0  0  0  0  0  0  0  0  0  0
   41.4130   24.5000   35.9080 H   0  0  0  0  0  0  0  0  0  0  0  0
   39.7240   23.1190   34.9550 H   0  0  0  0  0  0  0  0  0  0  0  0
   39.5980   24.1290   33.4620 H   0  0  0  0  0  0  0  0  0  0  0  0
   37.6030   24.2720   34.5370 H   0  0  0  0  0  0  0  0  0  0  0  0
   37.3750   26.5630   33.4420 C   0  0  0  0  0  0  0  0  0  0  0  0
   36.9720   27.8800   33.2290 C   0  0  0  0  0  0  0  0  0  0  0  0
   36.0160   28.1170   32.2440 C   0  0  0  0  0  0  0  0  0  0  0  0
   35.5360   27.0380   31.5470 N   0  0  0  0  0  0  0  0  0  0  0  0
   35.9410   25.7980   31.7730 C   0  0  0  0  0  0  0  0  0  0  0  0
   36.8540   25.5720   32.7140 N   0  0  0  0  0  0  0  0  0  0  0  0
   37.4280   28.6220   33.8430 H   0  0  0  0  0  0  0  0  0  0  0  0
   35.7040   29.1450   32.0810 H   0  0  0  0  0  0  0  0  0  0  0  0
   35.3610   24.6980   30.9650 C   0  0  0  0  0  0  0  0  0  0  0  0
   36.3550   24.0530   30.2920 F   0  0  0  0  0  0  0  0  0  0  0  0
   34.7030   23.7920   31.7970 F   0  0  0  0  0  0  0  0  0  0  0  0
   34.4340   25.2010   30.0740 F   0  0  0  0  0  0  0  0  0  0  0  0
   38.3530   24.8310   36.5160 C   0  0  0  0  0  0  0  0  0  0  0  0
   37.1180   24.2530   36.8460 F   0  0  0  0  0  0  0  0  0  0  0  0
   38.2570   26.1020   37.0200 F   0  0  0  0  0  0  0  0  0  0  0  0
   39.2830   24.0720   37.1360 F   0  0  0  0  0  0  0  0  0  0  0  0
  1  2  1  0  0  0  0
  1  6  1  0  0  0  0
  2  3  1  0  0  0  0
  2  8  1  0  0  0  0
  3  4  1  0  0  0  0
  3 10  1  0  0  0  0
  4 12  1  0  0  0  0
  5 13  1  0  0  0  0
  5  4  1  0  0  0  0
  5  6  1  0  0  0  0
  6 15  1  6  0  0  0
  6 28  1  0  0  0  0
  7  2  1  0  0  0  0
  9  3  1  0  0  0  0
 11  4  1  0  0  0  0
 14  5  1  0  0  0  0
 16  1  1  0  0  0  0
 17 16  1  0  0  0  0
 17 22  1  0  0  0  0
 18 17  2  0  0  0  0
 19 20  2  0  0  0  0
 19 18  1  0  0  0  0
 20 21  1  0  0  0  0
 21 16  2  0  0  0  0
 23 18  1  0  0  0  0
 24 20  1  0  0  0  0
 24 26  1  0  0  0  0
 25 24  1  0  0  0  0
 27 24  1  0  0  0  0
 28 29  1  0  0  0  0
 28 30  1  0  0  0  0
 28 31  1  0  0  0  0
M  END
>  <minimizedAffinity>
-5.3607192

$$$$

 OpenBabel03262522003D

 31 32  0  0  1  0  0  0  0  0999 V2000
   37.0590   21.6730   33.4920 N   0  0  0  0  0  0  0  0  0  0  0  0
   35.8930   21.0300   33.9900 C   0  0  0  0  0  0  0  0  0  0  0  0
   35.5260   19.7240   33.4220 C   0  0  0  0  0  0  0  0  0  0  0  0
   36.0170   19.3820   32.0620 C   0  0  0  0  0  0  0  0  0  0  0  0
   37.1640   20.2080   31.5700 C   0  0  0  0  0  0  0  0  0  0  0  0
   37.0280   21.6580   32.0640 C   0  0  1  0  0  0  0  0  0  0  0  0
   36.0950   20.9300   35.0990 H   0  0  0  0  0  0  0  0  0  0  0  0
   34.9720   21.6860   34.0240 H   0  0  0  0  0  0  0  0  0  0  0  0
   35.7730   18.9120   34.1710 H   0  0  0  0  0  0  0  0  0  0  0  0
   34.4000   19.6120   33.3600 H   0  0  0  0  0  0  0  0  0  0  0  0
   36.4620   18.3440   32.1120 H   0  0  0  0  0  0  0  0  0  0  0  0
   35.2100   19.1980   31.3000 H   0  0  0  0  0  0  0  0  0  0  0  0
   37.2240   20.1660   30.4780 H   0  0  0  0  0  0  0  0  0  0  0  0
   38.1180   19.8630   32.0200 H   0  0  0  0  0  0  0  0  0  0  0  0
   37.9930   22.1140   31.7500 H   0  0  0  0  0  0  0  0  0  0  0  0
   38.1040   22.2490   34.2930 C   0  0  0  0  0  0  0  0  0  0  0  0
   39.3970   22.5110   33.8430 C   0  0  0  0  0  0  0  0  0  0  0  0
   40.2990   23.0720   34.7440 C   0  0  0  0  0  0  0  0  0  0  0  0
   39.8540   23.3330   36.0150 N   0  0  0  0  0  0  0  0  0  0  0  0
   38.6180   23.0730   36.4110 C   0  0  0  0  0  0  0  0  0  0  0  0
   37.7570   22.5360   35.5500 N   0  0  0  0  0  0  0  0  0  0  0  0
   39.6070   22.2580   32.8300 H   0  0  0  0  0  0  0  0  0  0  0  0
   41.3060   23.2750   34.3900 H   0  0  0  0  0  0  0  0  0  0  0  0
   38.2330   23.3900   37.8080 C   0  0  0  0  0  0  0  0  0  0  0  0
   37.0850   22.7280   38.1270 F   0  0  0  0  0  0  0  0  0  0  0  0
   39.2490   23.0020   38.6810 F   0  0  0  0  0  0  0  0  0  0  0  0
   38.0510   24.7510   37.9520 F   0  0  0  0  0  0  0  0  0  0  0  0
   35.8340   22.2710   31.4200 C   0  0  0  0  0  0  0  0  0  0  0  0
   34.9280   22.5380   32.4560 F   0  0  0  0  0  0  0  0  0  0  0  0
   35.1780   21.3470   30.6490 F   0  0  0  0  0  0  0  0  0  0  0  0
   36.0290   23.4550   30.7970 F   0  0  0  0  0  0  0  0  0  0  0  0
  1  2  1  0  0  0  0
  1 16  1  0  0  0  0
  2  8  1  0  0  0  0
  2  7  1  0  0  0  0
  3  2  1  0  0  0  0
  3  9  1  0  0  0  0
  4 11  1  0  0  0  0
  4  3  1  0  0  0  0
  5 14  1  0  0  0  0
  5  4  1  0  0  0  0
  5  6  1  0  0  0  0
  6 15  1  6  0  0  0
  6  1  1  0  0  0  0
 10  3  1  0  0  0  0
 12  4  1  0  0  0  0
 13  5  1  0  0  0  0
 16 21  1  0  0  0  0
 17 16  2  0  0  0  0
 17 18  1  0  0  0  0
 18 19  2  0  0  0  0
 19 20  1  0  0  0  0
 20 24  1  0  0  0  0
 21 20  2  0  0  0  0
 22 17  1  0  0  0  0
 23 18  1  0  0  0  0
 24 27  1  0  0  0  0
 24 25  1  0  0  0  0
 24 26  1  0  0  0  0
 28  6  1  0  0  0  0
 28 29  1  0  0  0  0
 30 28  1  0  0  0  0
 31 28  1  0  0  0  0
M  END
>  <minimizedAffinity>
-5.33390856

$$$$

 OpenBabel03262522003D

 31 32  0  0  1  0  0  0  0  0999 V2000
   38.5590   25.2450   35.0970 N   0  0  0  0  0  0  0  0  0  0  0  0
   38.0670   24.7960   33.8400 C   0  0  0  0  0  0  0  0  0  0  0  0
   38.7290   25.2870   32.6220 C   0  0  0  0  0  0  0  0  0  0  0  0
   39.4760   26.5700   32.6920 C   0  0  0  0  0  0  0  0  0  0  0  0
   39.8320   27.0280   34.0710 C   0  0  0  0  0  0  0  0  0  0  0  0
   38.7120   26.6640   35.0600 C   0  0  1  0  0  0  0  0  0  0  0  0
   38.1540   23.6700   33.9050 H   0  0  0  0  0  0  0  0  0  0  0  0
   36.9480   24.8930   33.7120 H   0  0  0  0  0  0  0  0  0  0  0  0
   39.3640   24.4570   32.1870 H   0  0  0  0  0  0  0  0  0  0  0  0
   37.9800   25.4340   31.7860 H   0  0  0  0  0  0  0  0  0  0  0  0
   40.4890   26.3990   32.2180 H   0  0  0  0  0  0  0  0  0  0  0  0
   39.0900   27.3790   32.0130 H   0  0  0  0  0  0  0  0  0  0  0  0
   40.0310   28.1040   34.0770 H   0  0  0  0  0  0  0  0  0  0  0  0
   40.7140   26.4740   34.4540 H   0  0  0  0  0  0  0  0  0  0  0  0
   39.1580   26.9320   36.0440 H   0  0  0  0  0  0  0  0  0  0  0  0
   38.8560   24.4070   36.2270 C   0  0  0  0  0  0  0  0  0  0  0  0
   38.0860   24.3380   37.3870 C   0  0  0  0  0  0  0  0  0  0  0  0
   38.5090   23.4760   38.3970 C   0  0  0  0  0  0  0  0  0  0  0  0
   39.6530   22.7510   38.1820 N   0  0  0  0  0  0  0  0  0  0  0  0
   40.3610   22.8400   37.0660 C   0  0  0  0  0  0  0  0  0  0  0  0
   39.9570   23.6640   36.1020 N   0  0  0  0  0  0  0  0  0  0  0  0
   37.2210   24.9570   37.4210 H   0  0  0  0  0  0  0  0  0  0  0  0
   37.9060   23.4250   39.3010 H   0  0  0  0  0  0  0  0  0  0  0  0
   41.5850   22.0140   36.9290 C   0  0  0  0  0  0  0  0  0  0  0  0
   41.6600   21.1350   37.9690 F   0  0  0  0  0  0  0  0  0  0  0  0
   41.5500   21.3070   35.7270 F   0  0  0  0  0  0  0  0  0  0  0  0
   42.7030   22.8230   36.9100 F   0  0  0  0  0  0  0  0  0  0  0  0
   37.4970   27.4540   34.7150 C   0  0  0  0  0  0  0  0  0  0  0  0
   37.4810   28.5450   35.5960 F   0  0  0  0  0  0  0  0  0  0  0  0
   36.3630   26.7570   35.0450 F   0  0  0  0  0  0  0  0  0  0  0  0
   37.4610   27.9900   33.4750 F   0  0  0  0  0  0  0  0  0  0  0  0
  1 16  1  0  0  0  0
  2  7  1  0  0  0  0
  2  1  1  0  0  0  0
  3  4  1  0  0  0  0
  3  2  1  0  0  0  0
  4  5  1  0  0  0  0
  5 13  1  0  0  0  0
  5 14  1  0  0  0  0
  5  6  1  0  0  0  0
  6  1  1  0  0  0  0
  6 15  1  1  0  0  0
  8  2  1  0  0  0  0
  9  3  1  0  0  0  0
 10  3  1  0  0  0  0
 11  4  1  0  0  0  0
 12  4  1  0  0  0  0
 16 17  1  0  0  0  0
 17 22  1  0  0  0  0
 17 18  2  0  0  0  0
 18 23  1  0  0  0  0
 19 18  1  0  0  0  0
 20 19  2  0  0  0  0
 21 16  2  0  0  0  0
 21 20  1  0  0  0  0
 24 20  1  0  0  0  0
 24 25  1  0  0  0  0
 26 24  1  0  0  0  0
 27 24  1  0  0  0  0
 28 30  1  0  0  0  0
 28  6  1  0  0  0  0
 28 29  1  0  0  0  0
 31 28  1  0  0  0  0
M  END
>  <minimizedAffinity>
-5.31761599

$$$$

 OpenBabel03262522003D

 31 32  0  0  1  0  0  0  0  0999 V2000
   37.8510   25.4290   33.9480 N   0  0  0  0  0  0  0  0  0  0  0  0
   36.9880   25.3550   32.8200 C   0  0  0  0  0  0  0  0  0  0  0  0
   37.3850   26.0690   31.5970 C   0  0  0  0  0  0  0  0  0  0  0  0
   38.3190   27.2180   31.7200 C   0  0  0  0  0  0  0  0  0  0  0  0
   39.0860   27.2830   33.0030 C   0  0  0  0  0  0  0  0  0  0  0  0
   38.2140   26.7920   34.1710 C   0  0  1  0  0  0  0  0  0  0  0  0
   36.9080   24.2450   32.6160 H   0  0  0  0  0  0  0  0  0  0  0  0
   35.9040   25.5860   33.0420 H   0  0  0  0  0  0  0  0  0  0  0  0
   37.7460   25.3180   30.8310 H   0  0  0  0  0  0  0  0  0  0  0  0
   36.4790   26.4890   31.0620 H   0  0  0  0  0  0  0  0  0  0  0  0
   39.1360   27.0760   30.9500 H   0  0  0  0  0  0  0  0  0  0  0  0
   37.9060   28.2030   31.3690 H   0  0  0  0  0  0  0  0  0  0  0  0
   39.4490   28.3000   33.1810 H   0  0  0  0  0  0  0  0  0  0  0  0
   39.9360   26.5700   32.9900 H   0  0  0  0  0  0  0  0  0  0  0  0
   38.9350   26.7640   35.0190 H   0  0  0  0  0  0  0  0  0  0  0  0
   38.2910   24.3130   34.7400 C   0  0  0  0  0  0  0  0  0  0  0  0
   38.8470   23.1440   34.2240 C   0  0  0  0  0  0  0  0  0  0  0  0
   39.2230   22.1500   35.1250 C   0  0  0  0  0  0  0  0  0  0  0  0
   39.0230   22.3890   36.4600 N   0  0  0  0  0  0  0  0  0  0  0  0
   38.4920   23.5120   36.9180 C   0  0  0  0  0  0  0  0  0  0  0  0
   38.1320   24.4610   36.0570 N   0  0  0  0  0  0  0  0  0  0  0  0
   38.9450   23.0910   33.1650 H   0  0  0  0  0  0  0  0  0  0  0  0
   39.6570   21.2390   34.7190 H   0  0  0  0  0  0  0  0  0  0  0  0
   38.3160   23.6750   38.3810 C   0  0  0  0  0  0  0  0  0  0  0  0
   37.3560   22.8140   38.8230 F   0  0  0  0  0  0  0  0  0  0  0  0
   39.5160   23.4050   39.0380 F   0  0  0  0  0  0  0  0  0  0  0  0
   37.9580   24.9750   38.6750 F   0  0  0  0  0  0  0  0  0  0  0  0
   37.0940   27.7530   34.3660 C   0  0  0  0  0  0  0  0  0  0  0  0
   37.4770   28.5860   35.4280 F   0  0  0  0  0  0  0  0  0  0  0  0
   35.9860   27.1070   34.8490 F   0  0  0  0  0  0  0  0  0  0  0  0
   36.8280   28.5850   33.3340 F   0  0  0  0  0  0  0  0  0  0  0  0
  1  6  1  0  0  0  0
  1 16  1  0  0  0  0
  2  8  1  0  0  0  0
  2  1  1  0  0  0  0
  3  4  1  0  0  0  0
  3  2  1  0  0  0  0
  4  5  1  0  0  0  0
  5 13  1  0  0  0  0
  5  6  1  0  0  0  0
  6 28  1  0  0  0  0
  6 15  1  1  0  0  0
  7  2  1  0  0  0  0
  9  3  1  0  0  0  0
 10  3  1  0  0  0  0
 11  4  1  0  0  0  0
 12  4  1  0  0  0  0
 14  5  1  0  0  0  0
 16 21  1  0  0  0  0
 17 16  2  0  0  0  0
 17 18  1  0  0  0  0
 18 19  2  0  0  0  0
 19 20  1  0  0  0  0
 20 24  1  0  0  0  0
 21 20  2  0  0  0  0
 22 17  1  0  0  0  0
 23 18  1  0  0  0  0
 24 27  1  0  0  0  0
 24 25  1  0  0  0  0
 24 26  1  0  0  0  0
 28 30  1  0  0  0  0
 28 29  1  0  0  0  0
 31 28  1  0  0  0  0
M  END
>  <minimizedAffinity>
-5.3054204

$$$$

 OpenBabel03262522003D

 31 32  0  0  1  0  0  0  0  0999 V2000
   38.8870   25.5550   34.0350 N   0  0  0  0  0  0  0  0  0  0  0  0
   38.0970   26.7120   33.7940 C   0  0  0  0  0  0  0  0  0  0  0  0
   38.0690   27.2600   32.4300 C   0  0  0  0  0  0  0  0  0  0  0  0
   39.2090   26.9590   31.5240 C   0  0  0  0  0  0  0  0  0  0  0  0
   40.0650   25.8030   31.9360 C   0  0  0  0  0  0  0  0  0  0  0  0
   40.1840   25.7470   33.4680 C   0  0  1  0  0  0  0  0  0  0  0  0
   37.0570   26.3960   34.1090 H   0  0  0  0  0  0  0  0  0  0  0  0
   38.2680   27.5580   34.5240 H   0  0  0  0  0  0  0  0  0  0  0  0
   37.0760   27.0060   31.9490 H   0  0  0  0  0  0  0  0  0  0  0  0
   38.0060   28.3910   32.4490 H   0  0  0  0  0  0  0  0  0  0  0  0
   38.7770   26.6090   30.5390 H   0  0  0  0  0  0  0  0  0  0  0  0
   39.7770   27.8600   31.1640 H   0  0  0  0  0  0  0  0  0  0  0  0
   41.0500   25.8700   31.4640 H   0  0  0  0  0  0  0  0  0  0  0  0
   39.5790   24.8410   31.6730 H   0  0  0  0  0  0  0  0  0  0  0  0
   40.7180   24.7850   33.6370 H   0  0  0  0  0  0  0  0  0  0  0  0
   38.4550   24.3770   34.7370 C   0  0  0  0  0  0  0  0  0  0  0  0
   38.0330   23.1980   34.1240 C   0  0  0  0  0  0  0  0  0  0  0  0
   37.6430   22.1420   34.9460 C   0  0  0  0  0  0  0  0  0  0  0  0
   37.7010   22.3320   36.3020 N   0  0  0  0  0  0  0  0  0  0  0  0
   38.1080   23.4660   36.8530 C   0  0  0  0  0  0  0  0  0  0  0  0
   38.4800   24.4740   36.0680 N   0  0  0  0  0  0  0  0  0  0  0  0
   38.0380   23.1880   33.0590 H   0  0  0  0  0  0  0  0  0  0  0  0
   37.3140   21.2240   34.4650 H   0  0  0  0  0  0  0  0  0  0  0  0
   38.1340   23.5730   38.3310 C   0  0  0  0  0  0  0  0  0  0  0  0
   37.2350   22.7010   38.8680 F   0  0  0  0  0  0  0  0  0  0  0  0
   39.4110   23.2730   38.8070 F   0  0  0  0  0  0  0  0  0  0  0  0
   37.8330   24.8630   38.7190 F   0  0  0  0  0  0  0  0  0  0  0  0
   40.9390   26.9440   33.9310 C   0  0  0  0  0  0  0  0  0  0  0  0
   42.1620   26.4640   34.4240 F   0  0  0  0  0  0  0  0  0  0  0  0
   40.3410   27.4910   35.0360 F   0  0  0  0  0  0  0  0  0  0  0  0
   41.2630   27.8530   32.9850 F   0  0  0  0  0  0  0  0  0  0  0  0
  1 16  1  0  0  0  0
  2  1  1  0  0  0  0
  2  7  1  0  0  0  0
  2  8  1  0  0  0  0
  3 10  1  0  0  0  0
  3  2  1  0  0  0  0
  4  5  1  0  0  0  0
  4  3  1  0  0  0  0
  5  6  1  0  0  0  0
  6 15  1  1  0  0  0
  6 28  1  0  0  0  0
  6  1  1  0  0  0  0
  9  3  1  0  0  0  0
 11  4  1  0  0  0  0
 12  4  1  0  0  0  0
 13  5  1  0  0  0  0
 14  5  1  0  0  0  0
 16 21  1  0  0  0  0
 17 16  2  0  0  0  0
 17 18  1  0  0  0  0
 18 19  2  0  0  0  0
 19 20  1  0  0  0  0
 20 24  1  0  0  0  0
 21 20  2  0  0  0  0
 22 17  1  0  0  0  0
 23 18  1  0  0  0  0
 24 27  1  0  0  0  0
 24 26  1  0  0  0  0
 24 25  1  0  0  0  0
 28 29  1  0  0  0  0
 28 30  1  0  0  0  0
 31 28  1  0  0  0  0
M  END
>  <minimizedAffinity>
-5.21714067

$$$$
