
 OpenBabel03272509533D

 38 40  0  0  0  0  0  0  0  0999 V2000
   37.2220   30.0870   51.4830 C   0  0  0  0  0  0  0  0  0  0  0  0
   37.9970   30.8090   50.5530 C   0  0  0  0  0  0  0  0  0  0  0  0
   37.6890   30.6830   49.2170 C   0  0  0  0  0  0  0  0  0  0  0  0
   36.6410   29.8510   48.9050 N   0  0  0  0  0  0  0  0  0  0  0  0
   35.9250   29.1800   49.8030 C   0  0  0  0  0  0  0  0  0  0  0  0
   36.2160   29.2980   51.1090 N   0  0  0  0  0  0  0  0  0  0  0  0
   37.4880   30.2090   52.5250 H   0  0  0  0  0  0  0  0  0  0  0  0
   38.7990   31.4430   50.8180 H   0  0  0  0  0  0  0  0  0  0  0  0
   38.8180   33.3460   49.1660 F   0  0  0  0  0  0  0  0  0  0  0  0
   38.8980   32.5810   48.0840 C   0  0  0  0  0  0  0  0  0  0  0  0
   38.3650   31.3390   48.1270 C   0  0  0  0  0  0  0  0  0  0  0  0
   38.5120   30.6300   46.9290 C   0  0  0  0  0  0  0  0  0  0  0  0
   39.1350   31.1550   45.8330 C   0  0  0  0  0  0  0  0  0  0  0  0
   39.6580   32.4150   45.8390 C   0  0  0  0  0  0  0  0  0  0  0  0
   39.5310   33.1300   46.9920 C   0  0  0  0  0  0  0  0  0  0  0  0
   38.1130   29.6100   46.8580 H   0  0  0  0  0  0  0  0  0  0  0  0
   39.2080   30.5320   44.9310 H   0  0  0  0  0  0  0  0  0  0  0  0
   40.1430   32.7890   44.9480 H   0  0  0  0  0  0  0  0  0  0  0  0
   39.9400   34.1370   47.0190 H   0  0  0  0  0  0  0  0  0  0  0  0
   34.9370   28.4230   49.2370 O   0  0  0  0  0  0  0  0  0  0  0  0
   34.2800   28.9120   48.0780 C   0  0  0  0  0  0  0  0  0  0  0  0
   34.9980   29.3480   47.3500 H   0  0  0  0  0  0  0  0  0  0  0  0
   33.5990   29.7320   48.3920 H   0  0  0  0  0  0  0  0  0  0  0  0
   33.4220   27.8370   47.4690 C   0  0  0  0  0  0  0  0  0  0  0  0
   33.5950   27.8650   46.3740 H   0  0  0  0  0  0  0  0  0  0  0  0
   33.7330   26.8180   47.7910 H   0  0  0  0  0  0  0  0  0  0  0  0
   31.9850   28.0170   47.7640 C   0  0  0  0  0  0  0  0  0  0  0  0
   31.5020   27.5100   48.9700 C   0  0  0  0  0  0  0  0  0  0  0  0
   30.1870   27.6280   49.3310 C   0  0  0  0  0  0  0  0  0  0  0  0
   29.3410   28.2410   48.5160 N   0  0  0  0  0  0  0  0  0  0  0  0
   29.8120   28.7390   47.3320 C   0  0  0  0  0  0  0  0  0  0  0  0
   31.1100   28.6430   46.9370 N   0  0  0  0  0  0  0  0  0  0  0  0
   32.1930   27.0050   49.6450 H   0  0  0  0  0  0  0  0  0  0  0  0
   29.8450   27.2250   50.2730 H   0  0  0  0  0  0  0  0  0  0  0  0
   28.9380   29.4470   46.3440 C   0  0  0  0  0  0  0  0  0  0  0  0
   29.7240   30.3560   45.6280 F   0  0  0  0  0  0  0  0  0  0  0  0
   27.8920   30.0980   46.9420 F   0  0  0  0  0  0  0  0  0  0  0  0
   28.4520   28.5660   45.4000 F   0  0  0  0  0  0  0  0  0  0  0  0
  1  7  1  0  0  0  0
  2  8  1  0  0  0  0
  2  1  2  0  0  0  0
  3  2  1  0  0  0  0
  4  3  2  0  0  0  0
  4  5  1  0  0  0  0
  5  6  2  0  0  0  0
  6  1  1  0  0  0  0
 10 11  1  0  0  0  0
 10  9  1  0  0  0  0
 11  3  1  0  0  0  0
 12 11  2  0  0  0  0
 13 14  2  0  0  0  0
 13 12  1  0  0  0  0
 14 15  1  0  0  0  0
 15 19  1  0  0  0  0
 15 10  2  0  0  0  0
 16 12  1  0  0  0  0
 17 13  1  0  0  0  0
 18 14  1  0  0  0  0
 20  5  1  0  0  0  0
 21 23  1  0  0  0  0
 21 20  1  0  0  0  0
 22 21  1  0  0  0  0
 24 27  1  0  0  0  0
 24 26  1  0  0  0  0
 24 21  1  0  0  0  0
 25 24  1  0  0  0  0
 27 28  1  0  0  0  0
 28 29  2  0  0  0  0
 28 33  1  0  0  0  0
 29 34  1  0  0  0  0
 30 29  1  0  0  0  0
 31 30  2  0  0  0  0
 32 31  1  0  0  0  0
 32 27  2  0  0  0  0
 35 37  1  0  0  0  0
 35 31  1  0  0  0  0
 36 35  1  0  0  0  0
 38 35  1  0  0  0  0
M  END
>  <minimizedAffinity>
-6.39438248

>  <minimizedRMSD>
0.576899827

$$$$
