
 OpenBabel03272506593D

 30 32  0  0  0  0  0  0  0  0999 V2000
   39.7230   30.9530   44.9470 C   0  0  0  0  0  0  0  0  0  0  0  0
   40.2390   32.2450   44.9810 C   0  0  0  0  0  0  0  0  0  0  0  0
   40.0690   33.1640   45.9830 C   0  0  0  0  0  0  0  0  0  0  0  0
   39.3220   32.7580   47.0420 N   0  0  0  0  0  0  0  0  0  0  0  0
   38.8010   31.4920   47.0370 C   0  0  0  0  0  0  0  0  0  0  0  0
   38.9960   30.6310   46.0310 N   0  0  0  0  0  0  0  0  0  0  0  0
   40.8410   32.5830   44.1370 H   0  0  0  0  0  0  0  0  0  0  0  0
   40.4950   34.1410   45.9440 H   0  0  0  0  0  0  0  0  0  0  0  0
   39.3630   28.1350   42.7140 C   0  0  0  0  0  0  0  0  0  0  0  0
   40.3590   28.3120   41.7370 C   0  0  0  0  0  0  0  0  0  0  0  0
   41.1560   29.4430   41.8840 C   0  0  0  0  0  0  0  0  0  0  0  0
   40.9350   30.2810   42.9240 N   0  0  0  0  0  0  0  0  0  0  0  0
   39.9710   30.0600   43.8240 C   0  0  0  0  0  0  0  0  0  0  0  0
   39.1400   28.9810   43.7630 N   0  0  0  0  0  0  0  0  0  0  0  0
   38.7080   27.2710   42.6550 H   0  0  0  0  0  0  0  0  0  0  0  0
   41.9380   29.6160   41.1480 H   0  0  0  0  0  0  0  0  0  0  0  0
   40.5100   27.3820   40.6900 N   0  0  0  0  0  0  0  0  0  0  0  0
   41.0590   27.6990   39.8630 H   0  0  0  0  0  0  0  0  0  0  0  0
   40.0720   26.4440   40.8010 H   0  0  0  0  0  0  0  0  0  0  0  0
   37.9820   30.9440   48.1160 C   0  0  0  0  0  0  0  0  0  0  0  0
   36.6260   30.8620   47.8840 C   0  0  0  0  0  0  0  0  0  0  0  0
   36.0060   30.3360   48.9730 N   0  0  0  0  0  0  0  0  0  0  0  0
   36.9940   30.0910   49.8890 C   0  0  0  0  0  0  0  0  0  0  0  0
   38.1820   30.4640   49.3550 N   0  0  0  0  0  0  0  0  0  0  0  0
   35.9870   31.1280   47.0260 H   0  0  0  0  0  0  0  0  0  0  0  0
   34.9940   30.1360   49.1380 H   0  0  0  0  0  0  0  0  0  0  0  0
   36.8890   29.5180   51.2590 C   0  0  0  0  0  0  0  0  0  0  0  0
   35.6020   29.1590   51.5830 F   0  0  0  0  0  0  0  0  0  0  0  0
   37.2930   30.4420   52.2240 F   0  0  0  0  0  0  0  0  0  0  0  0
   37.7170   28.4170   51.4120 F   0  0  0  0  0  0  0  0  0  0  0  0
  1  2  2  0  0  0  0
  1  6  1  0  0  0  0
  2  3  1  0  0  0  0
  3  4  2  0  0  0  0
  5  4  1  0  0  0  0
  5 20  1  0  0  0  0
  6  5  2  0  0  0  0
  7  2  1  0  0  0  0
  8  3  1  0  0  0  0
  9 14  1  0  0  0  0
 10 11  1  0  0  0  0
 10  9  2  0  0  0  0
 11 12  2  0  0  0  0
 12 13  1  0  0  0  0
 13  1  1  0  0  0  0
 14 13  2  0  0  0  0
 15  9  1  0  0  0  0
 16 11  1  0  0  0  0
 17 19  1  0  0  0  0
 17 10  1  0  0  0  0
 18 17  1  0  0  0  0
 20 24  1  0  0  0  0
 21 20  2  0  0  0  0
 21 22  1  0  0  0  0
 22 26  1  0  0  0  0
 22 23  1  0  0  0  0
 23 27  1  0  0  0  0
 24 23  2  0  0  0  0
 25 21  1  0  0  0  0
 27 30  1  0  0  0  0
 27 28  1  0  0  0  0
 27 29  1  0  0  0  0
M  END
>  <minimizedAffinity>
-6.45164871

>  <minimizedRMSD>
3.24991417

$$$$
