
 OpenBabel03272508403D

 37 39  0  0  1  0  0  0  0  0999 V2000
   31.8830   27.6220   48.6280 N   0  0  0  0  0  0  0  0  0  0  0  0
   32.9140   28.4440   49.2610 C   0  0  0  0  0  0  0  0  0  0  0  0
   34.0180   28.8190   48.3730 C   0  0  2  0  0  0  0  0  0  0  0  0
   34.4340   27.7180   47.5160 N   0  0  0  0  0  0  0  0  0  0  0  0
   33.3060   27.1580   46.8190 C   0  0  0  0  0  0  0  0  0  0  0  0
   32.4760   26.5370   47.9240 C   0  0  0  0  0  0  0  0  0  0  0  0
   32.4310   29.2770   49.7680 H   0  0  0  0  0  0  0  0  0  0  0  0
   33.3420   27.6700   49.9880 H   0  0  0  0  0  0  0  0  0  0  0  0
   33.7650   29.5670   47.5970 H   0  0  0  0  0  0  0  0  0  0  0  0
   35.2990   27.8060   47.0350 H   0  0  0  0  0  0  0  0  0  0  0  0
   32.7690   27.8710   46.1940 H   0  0  0  0  0  0  0  0  0  0  0  0
   33.7150   26.3220   46.1920 H   0  0  0  0  0  0  0  0  0  0  0  0
   33.1400   25.9050   48.5290 H   0  0  0  0  0  0  0  0  0  0  0  0
   31.6610   25.9480   47.4480 H   0  0  0  0  0  0  0  0  0  0  0  0
   35.9960   30.4400   46.8620 Cl  0  0  0  0  0  0  0  0  0  0  0  0
   36.1100   30.1060   48.5910 C   0  0  0  0  0  0  0  0  0  0  0  0
   35.1420   29.3140   49.1500 C   0  0  0  0  0  0  0  0  0  0  0  0
   35.0980   28.9550   50.5060 C   0  0  0  0  0  0  0  0  0  0  0  0
   36.1430   29.4650   51.2900 C   0  0  0  0  0  0  0  0  0  0  0  0
   37.1380   30.2710   50.7310 C   0  0  0  0  0  0  0  0  0  0  0  0
   37.1080   30.5800   49.3920 C   0  0  0  0  0  0  0  0  0  0  0  0
   34.4970   28.3940   51.1780 H   0  0  0  0  0  0  0  0  0  0  0  0
   36.3300   29.3330   52.3420 H   0  0  0  0  0  0  0  0  0  0  0  0
   37.9740   30.7010   51.2620 H   0  0  0  0  0  0  0  0  0  0  0  0
   38.1280   31.4270   48.7460 C   0  0  0  0  0  0  0  0  0  0  0  0
   38.7530   30.6990   47.7470 F   0  0  0  0  0  0  0  0  0  0  0  0
   37.5740   32.5680   48.2330 F   0  0  0  0  0  0  0  0  0  0  0  0
   39.0550   31.7800   49.7130 F   0  0  0  0  0  0  0  0  0  0  0  0
   30.5030   27.9070   48.7490 C   0  0  0  0  0  0  0  0  0  0  0  0
   29.7450   28.3750   47.6740 C   0  0  0  0  0  0  0  0  0  0  0  0
   28.3930   28.6280   47.8710 C   0  0  0  0  0  0  0  0  0  0  0  0
   27.8670   28.4020   49.1340 N   0  0  0  0  0  0  0  0  0  0  0  0
   28.6430   27.9470   50.1400 C   0  0  0  0  0  0  0  0  0  0  0  0
   29.9310   27.7020   49.9660 N   0  0  0  0  0  0  0  0  0  0  0  0
   30.2320   28.5260   46.7190 H   0  0  0  0  0  0  0  0  0  0  0  0
   27.7860   28.9910   47.0530 H   0  0  0  0  0  0  0  0  0  0  0  0
   28.1720   27.7940   51.0910 H   0  0  0  0  0  0  0  0  0  0  0  0
  1 29  1  0  0  0  0
  1  2  1  0  0  0  0
  2  7  1  0  0  0  0
  2  8  1  0  0  0  0
  3  9  1  6  0  0  0
  3 17  1  0  0  0  0
  3  2  1  0  0  0  0
  4  3  1  0  0  0  0
  5  4  1  0  0  0  0
  5  6  1  0  0  0  0
  6 13  1  0  0  0  0
  6  1  1  0  0  0  0
 10  4  1  0  0  0  0
 11  5  1  0  0  0  0
 12  5  1  0  0  0  0
 14  6  1  0  0  0  0
 15 16  1  0  0  0  0
 16 17  2  0  0  0  0
 16 21  1  0  0  0  0
 17 18  1  0  0  0  0
 18 22  1  0  0  0  0
 18 19  2  0  0  0  0
 19 23  1  0  0  0  0
 20 24  1  0  0  0  0
 20 19  1  0  0  0  0
 21 20  2  0  0  0  0
 25 21  1  0  0  0  0
 25 28  1  0  0  0  0
 26 25  1  0  0  0  0
 27 25  1  0  0  0  0
 29 34  1  0  0  0  0
 30 31  1  0  0  0  0
 30 29  2  0  0  0  0
 31 32  2  0  0  0  0
 32 33  1  0  0  0  0
 33 37  1  0  0  0  0
 34 33  2  0  0  0  0
 35 30  1  0  0  0  0
 36 31  1  0  0  0  0
M  END
>  <minimizedAffinity>
-6.50481939

>  <minimizedRMSD>
4.01011562

$$$$
