
 OpenBabel03262521043D

 23 24  0  0  0  0  0  0  0  0999 V2000
   38.8500   32.4300   48.7870 Br  0  0  0  0  0  0  0  0  0  0  0  0
   38.2430   31.8410   47.0830 C   0  0  0  0  0  0  0  0  0  0  0  0
   37.2020   30.9510   47.1080 C   0  0  0  0  0  0  0  0  0  0  0  0
   36.7040   30.4750   45.8820 C   0  0  0  0  0  0  0  0  0  0  0  0
   37.2720   30.9130   44.6880 C   0  0  0  0  0  0  0  0  0  0  0  0
   38.3040   31.8010   44.7610 C   0  0  0  0  0  0  0  0  0  0  0  0
   38.8200   32.2910   45.9470 C   0  0  0  0  0  0  0  0  0  0  0  0
   35.8980   29.7800   45.8020 H   0  0  0  0  0  0  0  0  0  0  0  0
   36.9110   30.5650   43.7250 H   0  0  0  0  0  0  0  0  0  0  0  0
   38.7370   32.1340   43.8220 H   0  0  0  0  0  0  0  0  0  0  0  0
   37.1200   29.6240   49.2440 C   0  0  0  0  0  0  0  0  0  0  0  0
   36.5050   30.4000   48.2620 C   0  0  0  0  0  0  0  0  0  0  0  0
   35.1340   30.6580   48.4020 C   0  0  0  0  0  0  0  0  0  0  0  0
   34.4760   30.1370   49.4900 N   0  0  0  0  0  0  0  0  0  0  0  0
   35.1240   29.3960   50.4070 C   0  0  0  0  0  0  0  0  0  0  0  0
   36.4350   29.1350   50.2930 N   0  0  0  0  0  0  0  0  0  0  0  0
   38.1920   29.4730   49.0520 H   0  0  0  0  0  0  0  0  0  0  0  0
   34.5590   31.2510   47.6940 H   0  0  0  0  0  0  0  0  0  0  0  0
   34.6400   28.9710   51.2730 H   0  0  0  0  0  0  0  0  0  0  0  0
   39.9480   33.2610   45.9980 C   0  0  0  0  0  0  0  0  0  0  0  0
   40.0110   33.9310   47.2050 F   0  0  0  0  0  0  0  0  0  0  0  0
   41.1730   32.6070   45.8590 F   0  0  0  0  0  0  0  0  0  0  0  0
   39.8930   34.1500   44.9400 F   0  0  0  0  0  0  0  0  0  0  0  0
  2  3  1  0  0  0  0
  2  1  1  0  0  0  0
  3 12  1  0  0  0  0
  4  3  2  0  0  0  0
  5  6  2  0  0  0  0
  5  4  1  0  0  0  0
  6  7  1  0  0  0  0
  7 20  1  0  0  0  0
  7  2  2  0  0  0  0
  8  4  1  0  0  0  0
  9  5  1  0  0  0  0
 10  6  1  0  0  0  0
 11 16  1  0  0  0  0
 12 13  1  0  0  0  0
 12 11  2  0  0  0  0
 13 14  2  0  0  0  0
 14 15  1  0  0  0  0
 15 19  1  0  0  0  0
 16 15  2  0  0  0  0
 17 11  1  0  0  0  0
 18 13  1  0  0  0  0
 20 21  1  0  0  0  0
 22 20  1  0  0  0  0
 23 20  1  0  0  0  0
M  END
>  <minimizedAffinity>
-5.53833246

>  <minimizedRMSD>
1.32450771

$$$$
