
 OpenBabel03272509003D

 23 24  0  0  0  0  0  0  0  0999 V2000
   38.4130   31.6630   48.8450 Cl  0  0  0  0  0  0  0  0  0  0  0  0
   37.1940   30.9500   47.8410 C   0  0  0  0  0  0  0  0  0  0  0  0
   37.3490   30.9450   46.4720 C   0  0  0  0  0  0  0  0  0  0  0  0
   36.4070   30.3940   45.6340 C   0  0  0  0  0  0  0  0  0  0  0  0
   35.2600   29.8220   46.1520 C   0  0  0  0  0  0  0  0  0  0  0  0
   35.0750   29.8110   47.5330 C   0  0  0  0  0  0  0  0  0  0  0  0
   33.6670   29.1170   48.3160 Cl  0  0  0  0  0  0  0  0  0  0  0  0
   36.0460   30.3730   48.3250 C   0  0  0  0  0  0  0  0  0  0  0  0
   36.5210   30.3880   44.5620 H   0  0  0  0  0  0  0  0  0  0  0  0
   34.4890   29.3750   45.5390 H   0  0  0  0  0  0  0  0  0  0  0  0
   39.6370   33.2800   44.7990 C   0  0  0  0  0  0  0  0  0  0  0  0
   40.8540   32.5990   44.8280 C   0  0  0  0  0  0  0  0  0  0  0  0
   40.8800   31.3140   45.4360 C   0  0  0  0  0  0  0  0  0  0  0  0
   39.7180   30.8330   45.9480 N   0  0  0  0  0  0  0  0  0  0  0  0
   38.5510   31.5440   45.8930 C   0  0  0  0  0  0  0  0  0  0  0  0
   38.5230   32.7540   45.3210 N   0  0  0  0  0  0  0  0  0  0  0  0
   39.6690   34.2550   44.3250 H   0  0  0  0  0  0  0  0  0  0  0  0
   41.7620   32.9760   44.4260 H   0  0  0  0  0  0  0  0  0  0  0  0
   41.7900   30.7310   45.4930 H   0  0  0  0  0  0  0  0  0  0  0  0
   35.8750   30.3760   49.8160 C   0  0  0  0  0  0  0  0  0  0  0  0
   36.4990   31.4620   50.3910 F   0  0  0  0  0  0  0  0  0  0  0  0
   34.5110   30.5620   50.0610 F   0  0  0  0  0  0  0  0  0  0  0  0
   36.2250   29.1760   50.3580 F   0  0  0  0  0  0  0  0  0  0  0  0
  2  8  1  0  0  0  0
  2  1  1  0  0  0  0
  3  2  2  0  0  0  0
  4  5  2  0  0  0  0
  4  3  1  0  0  0  0
  5  6  1  0  0  0  0
  6  7  1  0  0  0  0
  6  8  2  0  0  0  0
  8 20  1  0  0  0  0
  9  4  1  0  0  0  0
 10  5  1  0  0  0  0
 11 12  2  0  0  0  0
 11 16  1  0  0  0  0
 12 13  1  0  0  0  0
 13 19  1  0  0  0  0
 13 14  2  0  0  0  0
 15 14  1  0  0  0  0
 15  3  1  0  0  0  0
 16 15  2  0  0  0  0
 17 11  1  0  0  0  0
 18 12  1  0  0  0  0
 20 22  1  0  0  0  0
 20 23  1  0  0  0  0
 20 21  1  0  0  0  0
M  END
>  <minimizedAffinity>
-6.07759476

>  <minimizedRMSD>
3.33273482

$$$$
