
 OpenBabel03272507253D

 28 29  0  0  0  0  0  0  0  0999 V2000
   35.7820   24.5050   31.1710 C   0  0  0  0  0  0  0  0  0  0  0  0
   36.6560   25.3270   31.8970 C   0  0  0  0  0  0  0  0  0  0  0  0
   37.5100   24.7380   32.8260 C   0  0  0  0  0  0  0  0  0  0  0  0
   37.4560   23.3980   32.9860 N   0  0  0  0  0  0  0  0  0  0  0  0
   36.6060   22.6140   32.2770 C   0  0  0  0  0  0  0  0  0  0  0  0
   35.7790   23.1730   31.3790 N   0  0  0  0  0  0  0  0  0  0  0  0
   38.4130   25.5100   33.5890 N   0  0  0  0  0  0  0  0  0  0  0  0
   38.9970   26.7750   33.1380 C   0  0  0  0  0  0  0  0  0  0  0  0
   40.0980   27.1080   34.0770 C   0  0  0  0  0  0  0  0  0  0  0  0
   40.3370   25.8220   34.7710 C   0  0  0  0  0  0  0  0  0  0  0  0
   38.9380   25.2730   34.8740 C   0  0  0  0  0  0  0  0  0  0  0  0
   35.1300   24.9890   30.4560 H   0  0  0  0  0  0  0  0  0  0  0  0
   36.6840   26.3800   31.7580 H   0  0  0  0  0  0  0  0  0  0  0  0
   36.5890   21.5350   32.4320 H   0  0  0  0  0  0  0  0  0  0  0  0
   38.1860   27.5370   33.0970 H   0  0  0  0  0  0  0  0  0  0  0  0
   39.3220   26.6220   32.0990 H   0  0  0  0  0  0  0  0  0  0  0  0
   39.9710   27.9990   34.6980 H   0  0  0  0  0  0  0  0  0  0  0  0
   41.0120   27.3080   33.4430 H   0  0  0  0  0  0  0  0  0  0  0  0
   40.8840   25.1290   34.1000 H   0  0  0  0  0  0  0  0  0  0  0  0
   40.8630   25.9000   35.7420 H   0  0  0  0  0  0  0  0  0  0  0  0
   38.9320   23.8620   35.3630 C   0  0  0  0  0  0  0  0  0  0  0  0
   39.6320   23.0990   34.4380 F   0  0  0  0  0  0  0  0  0  0  0  0
   37.7110   23.2950   35.5440 F   0  0  0  0  0  0  0  0  0  0  0  0
   39.7290   23.8380   36.5060 F   0  0  0  0  0  0  0  0  0  0  0  0
   38.0680   26.0380   35.8520 C   0  0  0  0  0  0  0  0  0  0  0  0
   37.8040   25.1010   36.8640 F   0  0  0  0  0  0  0  0  0  0  0  0
   38.7120   27.0850   36.4550 F   0  0  0  0  0  0  0  0  0  0  0  0
   36.8410   26.3600   35.3430 F   0  0  0  0  0  0  0  0  0  0  0  0
  1  6  2  0  0  0  0
  1  2  1  0  0  0  0
  2  3  2  0  0  0  0
  3  4  1  0  0  0  0
  3  7  1  0  0  0  0
  5 14  1  0  0  0  0
  5  4  2  0  0  0  0
  6  5  1  0  0  0  0
  7 11  1  0  0  0  0
  8  7  1  0  0  0  0
  8  9  1  0  0  0  0
  9 17  1  0  0  0  0
  9 10  1  0  0  0  0
 10 11  1  0  0  0  0
 10 20  1  0  0  0  0
 11 21  1  0  0  0  0
 11 25  1  0  0  0  0
 12  1  1  0  0  0  0
 13  2  1  0  0  0  0
 15  8  1  0  0  0  0
 16  8  1  0  0  0  0
 18  9  1  0  0  0  0
 19 10  1  0  0  0  0
 21 23  1  0  0  0  0
 21 24  1  0  0  0  0
 22 21  1  0  0  0  0
 25 27  1  0  0  0  0
 25 26  1  0  0  0  0
 28 25  1  0  0  0  0
M  END
>  <minimizedAffinity>
-4.9597888

$$$$

 OpenBabel03272507253D

 28 29  0  0  0  0  0  0  0  0999 V2000
   36.6630   24.0730   30.9570 C   0  0  0  0  0  0  0  0  0  0  0  0
   37.3300   23.7610   32.1510 C   0  0  0  0  0  0  0  0  0  0  0  0
   37.4200   24.7350   33.1410 C   0  0  0  0  0  0  0  0  0  0  0  0
   36.8590   25.9410   32.9060 N   0  0  0  0  0  0  0  0  0  0  0  0
   36.2160   26.2300   31.7460 C   0  0  0  0  0  0  0  0  0  0  0  0
   36.1240   25.2970   30.7860 N   0  0  0  0  0  0  0  0  0  0  0  0
   38.0790   24.4830   34.3630 N   0  0  0  0  0  0  0  0  0  0  0  0
   38.1820   23.1610   34.9840 C   0  0  0  0  0  0  0  0  0  0  0  0
   38.6730   23.3660   36.3710 C   0  0  0  0  0  0  0  0  0  0  0  0
   38.4420   24.8110   36.5900 C   0  0  0  0  0  0  0  0  0  0  0  0
   38.7480   25.3730   35.2260 C   0  0  0  0  0  0  0  0  0  0  0  0
   36.6080   23.2970   30.2050 H   0  0  0  0  0  0  0  0  0  0  0  0
   37.7660   22.8060   32.3180 H   0  0  0  0  0  0  0  0  0  0  0  0
   35.7750   27.2160   31.5900 H   0  0  0  0  0  0  0  0  0  0  0  0
   38.8490   22.5320   34.3520 H   0  0  0  0  0  0  0  0  0  0  0  0
   37.1850   22.7030   34.9220 H   0  0  0  0  0  0  0  0  0  0  0  0
   39.6640   22.9720   36.6120 H   0  0  0  0  0  0  0  0  0  0  0  0
   37.9560   22.8170   37.0500 H   0  0  0  0  0  0  0  0  0  0  0  0
   37.3630   24.9990   36.7590 H   0  0  0  0  0  0  0  0  0  0  0  0
   39.0350   25.2660   37.4080 H   0  0  0  0  0  0  0  0  0  0  0  0
   38.3840   26.8190   35.1290 C   0  0  0  0  0  0  0  0  0  0  0  0
   37.0110   26.9140   35.3030 F   0  0  0  0  0  0  0  0  0  0  0  0
   38.7100   27.4420   33.9670 F   0  0  0  0  0  0  0  0  0  0  0  0
   38.9200   27.4360   36.2580 F   0  0  0  0  0  0  0  0  0  0  0  0
   40.2200   25.3080   34.8700 C   0  0  0  0  0  0  0  0  0  0  0  0
   40.6860   26.6040   35.1410 F   0  0  0  0  0  0  0  0  0  0  0  0
   40.9400   24.4630   35.6730 F   0  0  0  0  0  0  0  0  0  0  0  0
   40.4430   25.1260   33.5340 F   0  0  0  0  0  0  0  0  0  0  0  0
  1  2  1  0  0  0  0
  2 13  1  0  0  0  0
  2  3  2  0  0  0  0
  3  7  1  0  0  0  0
  4  3  1  0  0  0  0
  5  4  2  0  0  0  0
  6  1  2  0  0  0  0
  6  5  1  0  0  0  0
  7  8  1  0  0  0  0
  7 11  1  0  0  0  0
  8  9  1  0  0  0  0
  9 10  1  0  0  0  0
  9 17  1  0  0  0  0
  9 18  1  0  0  0  0
 10 19  1  0  0  0  0
 10 20  1  0  0  0  0
 11 10  1  0  0  0  0
 12  1  1  0  0  0  0
 14  5  1  0  0  0  0
 15  8  1  0  0  0  0
 16  8  1  0  0  0  0
 21 11  1  0  0  0  0
 21 22  1  0  0  0  0
 21 24  1  0  0  0  0
 23 21  1  0  0  0  0
 25 26  1  0  0  0  0
 25 11  1  0  0  0  0
 25 27  1  0  0  0  0
 28 25  1  0  0  0  0
M  END
>  <minimizedAffinity>
-4.87011147

$$$$

 OpenBabel03272507253D

 28 29  0  0  0  0  0  0  0  0999 V2000
   38.0560   24.0630   38.4270 C   0  0  0  0  0  0  0  0  0  0  0  0
   37.9390   24.7890   37.2330 C   0  0  0  0  0  0  0  0  0  0  0  0
   38.8030   24.4930   36.1830 C   0  0  0  0  0  0  0  0  0  0  0  0
   39.7180   23.5160   36.3630 N   0  0  0  0  0  0  0  0  0  0  0  0
   39.8210   22.8200   37.5230 C   0  0  0  0  0  0  0  0  0  0  0  0
   38.9920   23.0990   38.5410 N   0  0  0  0  0  0  0  0  0  0  0  0
   38.7360   25.1880   34.9560 N   0  0  0  0  0  0  0  0  0  0  0  0
   37.5120   25.7830   34.4140 C   0  0  0  0  0  0  0  0  0  0  0  0
   37.7910   26.1470   33.0020 C   0  0  0  0  0  0  0  0  0  0  0  0
   39.0220   25.3800   32.7020 C   0  0  0  0  0  0  0  0  0  0  0  0
   39.7520   25.4600   34.0180 C   0  0  0  0  0  0  0  0  0  0  0  0
   37.3720   24.3140   39.2270 H   0  0  0  0  0  0  0  0  0  0  0  0
   37.2120   25.5550   37.1100 H   0  0  0  0  0  0  0  0  0  0  0  0
   40.5730   22.0370   37.6340 H   0  0  0  0  0  0  0  0  0  0  0  0
   37.2300   26.6440   35.0610 H   0  0  0  0  0  0  0  0  0  0  0  0
   36.7150   25.0360   34.5380 H   0  0  0  0  0  0  0  0  0  0  0  0
   37.7880   27.2120   32.7520 H   0  0  0  0  0  0  0  0  0  0  0  0
   36.9660   25.6880   32.3820 H   0  0  0  0  0  0  0  0  0  0  0  0
   38.7730   24.3090   32.5590 H   0  0  0  0  0  0  0  0  0  0  0  0
   39.6100   25.7480   31.8390 H   0  0  0  0  0  0  0  0  0  0  0  0
   40.9530   24.5720   34.0390 C   0  0  0  0  0  0  0  0  0  0  0  0
   40.5230   23.2840   33.7570 F   0  0  0  0  0  0  0  0  0  0  0  0
   41.6550   24.5410   35.2010 F   0  0  0  0  0  0  0  0  0  0  0  0
   41.7250   24.9290   32.9350 F   0  0  0  0  0  0  0  0  0  0  0  0
   40.2750   26.8480   34.3280 C   0  0  0  0  0  0  0  0  0  0  0  0
   41.4990   26.6050   34.9730 F   0  0  0  0  0  0  0  0  0  0  0  0
   40.5680   27.5840   33.2100 F   0  0  0  0  0  0  0  0  0  0  0  0
   39.5190   27.5150   35.2500 F   0  0  0  0  0  0  0  0  0  0  0  0
  1  6  1  0  0  0  0
  1 12  1  0  0  0  0
  2  1  2  0  0  0  0
  3  4  2  0  0  0  0
  3  2  1  0  0  0  0
  4  5  1  0  0  0  0
  5 14  1  0  0  0  0
  5  6  2  0  0  0  0
  7  3  1  0  0  0  0
  8 16  1  0  0  0  0
  8  7  1  0  0  0  0
  8 15  1  0  0  0  0
  9  8  1  0  0  0  0
 10  9  1  0  0  0  0
 10 11  1  0  0  0  0
 11 21  1  0  0  0  0
 11 25  1  0  0  0  0
 11  7  1  0  0  0  0
 13  2  1  0  0  0  0
 17  9  1  0  0  0  0
 18  9  1  0  0  0  0
 19 10  1  0  0  0  0
 20 10  1  0  0  0  0
 21 23  1  0  0  0  0
 22 21  1  0  0  0  0
 24 21  1  0  0  0  0
 25 26  1  0  0  0  0
 25 28  1  0  0  0  0
 27 25  1  0  0  0  0
M  END
>  <minimizedAffinity>
-4.72594166

$$$$

 OpenBabel03272507253D

 28 29  0  0  0  0  0  0  0  0999 V2000
   40.4210   27.2070   33.5630 C   0  0  0  0  0  0  0  0  0  0  0  0
   39.5600   26.4580   34.3790 C   0  0  0  0  0  0  0  0  0  0  0  0
   40.0800   25.3760   35.0840 C   0  0  0  0  0  0  0  0  0  0  0  0
   41.3940   25.0960   34.9490 N   0  0  0  0  0  0  0  0  0  0  0  0
   42.2170   25.8280   34.1560 C   0  0  0  0  0  0  0  0  0  0  0  0
   41.7250   26.8730   33.4730 N   0  0  0  0  0  0  0  0  0  0  0  0
   39.2660   24.5840   35.9210 N   0  0  0  0  0  0  0  0  0  0  0  0
   38.0730   25.0780   36.6150 C   0  0  0  0  0  0  0  0  0  0  0  0
   37.6850   24.0430   37.6070 C   0  0  0  0  0  0  0  0  0  0  0  0
   38.9010   23.2030   37.6990 C   0  0  0  0  0  0  0  0  0  0  0  0
   39.3880   23.2250   36.2730 C   0  0  0  0  0  0  0  0  0  0  0  0
   39.9910   28.0420   33.0270 H   0  0  0  0  0  0  0  0  0  0  0  0
   38.5280   26.6940   34.4730 H   0  0  0  0  0  0  0  0  0  0  0  0
   43.2740   25.5720   34.0710 H   0  0  0  0  0  0  0  0  0  0  0  0
   37.2930   25.2940   35.8510 H   0  0  0  0  0  0  0  0  0  0  0  0
   38.3430   26.0470   37.0570 H   0  0  0  0  0  0  0  0  0  0  0  0
   36.7310   23.5320   37.4460 H   0  0  0  0  0  0  0  0  0  0  0  0
   37.5810   24.5720   38.5990 H   0  0  0  0  0  0  0  0  0  0  0  0
   39.6770   23.7290   38.2920 H   0  0  0  0  0  0  0  0  0  0  0  0
   38.7420   22.1860   38.1050 H   0  0  0  0  0  0  0  0  0  0  0  0
   40.7420   22.6080   36.1430 C   0  0  0  0  0  0  0  0  0  0  0  0
   41.6070   23.3270   36.9530 F   0  0  0  0  0  0  0  0  0  0  0  0
   41.2650   22.5700   34.8890 F   0  0  0  0  0  0  0  0  0  0  0  0
   40.6620   21.3540   36.7470 F   0  0  0  0  0  0  0  0  0  0  0  0
   38.4990   22.4450   35.3260 C   0  0  0  0  0  0  0  0  0  0  0  0
   39.4090   21.7240   34.5360 F   0  0  0  0  0  0  0  0  0  0  0  0
   37.7140   21.5140   35.9550 F   0  0  0  0  0  0  0  0  0  0  0  0
   37.8200   23.2390   34.4460 F   0  0  0  0  0  0  0  0  0  0  0  0
  1  2  1  0  0  0  0
  2 13  1  0  0  0  0
  2  3  2  0  0  0  0
  3  7  1  0  0  0  0
  4  3  1  0  0  0  0
  5  4  2  0  0  0  0
  6  1  2  0  0  0  0
  6  5  1  0  0  0  0
  7 11  1  0  0  0  0
  7  8  1  0  0  0  0
  8 16  1  0  0  0  0
  8  9  1  0  0  0  0
  9 10  1  0  0  0  0
  9 18  1  0  0  0  0
 10 20  1  0  0  0  0
 10 19  1  0  0  0  0
 11 10  1  0  0  0  0
 12  1  1  0  0  0  0
 14  5  1  0  0  0  0
 15  8  1  0  0  0  0
 17  9  1  0  0  0  0
 21 11  1  0  0  0  0
 21 24  1  0  0  0  0
 21 22  1  0  0  0  0
 23 21  1  0  0  0  0
 25 27  1  0  0  0  0
 25 11  1  0  0  0  0
 26 25  1  0  0  0  0
 28 25  1  0  0  0  0
M  END
>  <minimizedAffinity>
-4.64483881

$$$$

 OpenBabel03272507253D

 28 29  0  0  0  0  0  0  0  0999 V2000
   43.6280   23.8460   36.2120 C   0  0  0  0  0  0  0  0  0  0  0  0
   42.3250   23.3310   36.2830 C   0  0  0  0  0  0  0  0  0  0  0  0
   41.3030   24.0050   35.6190 C   0  0  0  0  0  0  0  0  0  0  0  0
   41.6150   25.1270   34.9350 N   0  0  0  0  0  0  0  0  0  0  0  0
   42.8800   25.6140   34.8740 C   0  0  0  0  0  0  0  0  0  0  0  0
   43.8710   24.9720   35.5110 N   0  0  0  0  0  0  0  0  0  0  0  0
   39.9710   23.5390   35.6530 N   0  0  0  0  0  0  0  0  0  0  0  0
   39.5970   22.1310   35.8020 C   0  0  0  0  0  0  0  0  0  0  0  0
   38.1480   22.0290   35.4920 C   0  0  0  0  0  0  0  0  0  0  0  0
   37.8690   23.3080   34.8010 C   0  0  0  0  0  0  0  0  0  0  0  0
   38.7630   24.2570   35.5560 C   0  0  0  0  0  0  0  0  0  0  0  0
   44.4020   23.3020   36.7370 H   0  0  0  0  0  0  0  0  0  0  0  0
   42.0980   22.4470   36.8270 H   0  0  0  0  0  0  0  0  0  0  0  0
   43.0960   26.5240   34.3120 H   0  0  0  0  0  0  0  0  0  0  0  0
   39.8680   21.8080   36.8320 H   0  0  0  0  0  0  0  0  0  0  0  0
   40.2440   21.5570   35.1230 H   0  0  0  0  0  0  0  0  0  0  0  0
   37.4820   21.7440   36.3120 H   0  0  0  0  0  0  0  0  0  0  0  0
   38.0410   21.2130   34.7180 H   0  0  0  0  0  0  0  0  0  0  0  0
   38.2700   23.2730   33.7680 H   0  0  0  0  0  0  0  0  0  0  0  0
   36.8040   23.6120   34.7810 H   0  0  0  0  0  0  0  0  0  0  0  0
   38.8190   25.6000   34.9050 C   0  0  0  0  0  0  0  0  0  0  0  0
   39.2910   25.4160   33.6130 F   0  0  0  0  0  0  0  0  0  0  0  0
   39.6000   26.5300   35.5150 F   0  0  0  0  0  0  0  0  0  0  0  0
   37.4980   26.0110   34.7370 F   0  0  0  0  0  0  0  0  0  0  0  0
   38.2940   24.5190   36.9730 C   0  0  0  0  0  0  0  0  0  0  0  0
   36.9760   24.0370   36.9820 F   0  0  0  0  0  0  0  0  0  0  0  0
   38.9750   23.7960   37.9180 F   0  0  0  0  0  0  0  0  0  0  0  0
   38.1840   25.8490   37.2670 F   0  0  0  0  0  0  0  0  0  0  0  0
  1  2  1  0  0  0  0
  1 12  1  0  0  0  0
  2 13  1  0  0  0  0
  3  7  1  0  0  0  0
  3  2  2  0  0  0  0
  4  3  1  0  0  0  0
  5  4  2  0  0  0  0
  5  6  1  0  0  0  0
  6  1  2  0  0  0  0
  7  8  1  0  0  0  0
  8 15  1  0  0  0  0
  9  8  1  0  0  0  0
  9 17  1  0  0  0  0
 10  9  1  0  0  0  0
 10 11  1  0  0  0  0
 11  7  1  0  0  0  0
 11 25  1  0  0  0  0
 14  5  1  0  0  0  0
 16  8  1  0  0  0  0
 18  9  1  0  0  0  0
 19 10  1  0  0  0  0
 20 10  1  0  0  0  0
 21 23  1  0  0  0  0
 21 11  1  0  0  0  0
 22 21  1  0  0  0  0
 24 21  1  0  0  0  0
 25 26  1  0  0  0  0
 25 28  1  0  0  0  0
 25 27  1  0  0  0  0
M  END
>  <minimizedAffinity>
-4.62320185

$$$$

 OpenBabel03272507253D

 28 29  0  0  0  0  0  0  0  0999 V2000
   42.2040   21.9090   36.2650 C   0  0  0  0  0  0  0  0  0  0  0  0
   41.9250   23.0600   35.5150 C   0  0  0  0  0  0  0  0  0  0  0  0
   40.7750   23.7880   35.8090 C   0  0  0  0  0  0  0  0  0  0  0  0
   39.9780   23.3490   36.8070 N   0  0  0  0  0  0  0  0  0  0  0  0
   40.2590   22.2330   37.5260 C   0  0  0  0  0  0  0  0  0  0  0  0
   41.3650   21.5260   37.2500 N   0  0  0  0  0  0  0  0  0  0  0  0
   40.4380   24.9550   35.0900 N   0  0  0  0  0  0  0  0  0  0  0  0
   41.4170   25.8440   34.4610 C   0  0  0  0  0  0  0  0  0  0  0  0
   40.6980   27.0840   34.0760 C   0  0  0  0  0  0  0  0  0  0  0  0
   39.4460   26.9950   34.8610 C   0  0  0  0  0  0  0  0  0  0  0  0
   39.1730   25.5140   34.8210 C   0  0  0  0  0  0  0  0  0  0  0  0
   43.1040   21.3630   36.0160 H   0  0  0  0  0  0  0  0  0  0  0  0
   42.5640   23.3900   34.7320 H   0  0  0  0  0  0  0  0  0  0  0  0
   39.5920   21.9070   38.3260 H   0  0  0  0  0  0  0  0  0  0  0  0
   41.8800   25.3000   33.6060 H   0  0  0  0  0  0  0  0  0  0  0  0
   42.2220   25.9980   35.1930 H   0  0  0  0  0  0  0  0  0  0  0  0
   40.6070   27.2970   33.0070 H   0  0  0  0  0  0  0  0  0  0  0  0
   41.2890   27.9460   34.5070 H   0  0  0  0  0  0  0  0  0  0  0  0
   39.6510   27.2350   35.9240 H   0  0  0  0  0  0  0  0  0  0  0  0
   38.6090   27.6170   34.4890 H   0  0  0  0  0  0  0  0  0  0  0  0
   38.0530   25.1330   35.7330 C   0  0  0  0  0  0  0  0  0  0  0  0
   38.4050   25.5320   37.0140 F   0  0  0  0  0  0  0  0  0  0  0  0
   37.7340   23.8130   35.7710 F   0  0  0  0  0  0  0  0  0  0  0  0
   36.9770   25.9530   35.3980 F   0  0  0  0  0  0  0  0  0  0  0  0
   38.7580   25.0200   33.4500 C   0  0  0  0  0  0  0  0  0  0  0  0
   38.3270   26.1850   32.7940 F   0  0  0  0  0  0  0  0  0  0  0  0
   39.7980   24.5230   32.7090 F   0  0  0  0  0  0  0  0  0  0  0  0
   37.6600   24.2070   33.4790 F   0  0  0  0  0  0  0  0  0  0  0  0
  1  6  1  0  0  0  0
  2  3  1  0  0  0  0
  2  1  2  0  0  0  0
  3  4  2  0  0  0  0
  4  5  1  0  0  0  0
  5 14  1  0  0  0  0
  6  5  2  0  0  0  0
  7  3  1  0  0  0  0
  8  7  1  0  0  0  0
  8 16  1  0  0  0  0
  9  8  1  0  0  0  0
  9 18  1  0  0  0  0
  9 10  1  0  0  0  0
 10 19  1  0  0  0  0
 11 10  1  0  0  0  0
 11  7  1  0  0  0  0
 11 21  1  0  0  0  0
 12  1  1  0  0  0  0
 13  2  1  0  0  0  0
 15  8  1  0  0  0  0
 17  9  1  0  0  0  0
 20 10  1  0  0  0  0
 21 23  1  0  0  0  0
 21 22  1  0  0  0  0
 24 21  1  0  0  0  0
 25 28  1  0  0  0  0
 25 11  1  0  0  0  0
 26 25  1  0  0  0  0
 27 25  1  0  0  0  0
M  END
>  <minimizedAffinity>
-4.61315012

$$$$

 OpenBabel03272507253D

 28 29  0  0  0  0  0  0  0  0999 V2000
   36.7990   28.9470   30.7130 C   0  0  0  0  0  0  0  0  0  0  0  0
   37.5240   27.8320   31.1580 C   0  0  0  0  0  0  0  0  0  0  0  0
   37.3810   27.4260   32.4820 C   0  0  0  0  0  0  0  0  0  0  0  0
   36.5480   28.1280   33.2800 N   0  0  0  0  0  0  0  0  0  0  0  0
   35.8520   29.2050   32.8380 C   0  0  0  0  0  0  0  0  0  0  0  0
   35.9830   29.6030   31.5630 N   0  0  0  0  0  0  0  0  0  0  0  0
   38.0840   26.3130   32.9900 N   0  0  0  0  0  0  0  0  0  0  0  0
   38.5010   25.1650   32.1820 C   0  0  0  0  0  0  0  0  0  0  0  0
   38.9320   24.1000   33.1230 C   0  0  0  0  0  0  0  0  0  0  0  0
   38.3640   24.5530   34.4130 C   0  0  0  0  0  0  0  0  0  0  0  0
   38.5240   26.0470   34.3020 C   0  0  0  0  0  0  0  0  0  0  0  0
   36.9280   29.2400   29.6800 H   0  0  0  0  0  0  0  0  0  0  0  0
   38.1760   27.2920   30.5150 H   0  0  0  0  0  0  0  0  0  0  0  0
   35.1870   29.7490   33.5110 H   0  0  0  0  0  0  0  0  0  0  0  0
   39.2970   25.5050   31.4820 H   0  0  0  0  0  0  0  0  0  0  0  0
   37.6420   24.8900   31.5530 H   0  0  0  0  0  0  0  0  0  0  0  0
   39.9900   23.8210   33.1090 H   0  0  0  0  0  0  0  0  0  0  0  0
   38.3690   23.1660   32.8310 H   0  0  0  0  0  0  0  0  0  0  0  0
   37.2710   24.3670   34.4280 H   0  0  0  0  0  0  0  0  0  0  0  0
   38.8330   24.1160   35.3150 H   0  0  0  0  0  0  0  0  0  0  0  0
   37.8250   26.7620   35.4120 C   0  0  0  0  0  0  0  0  0  0  0  0
   36.4670   26.5070   35.2810 F   0  0  0  0  0  0  0  0  0  0  0  0
   38.0020   28.1070   35.4640 F   0  0  0  0  0  0  0  0  0  0  0  0
   38.1870   26.1100   36.5900 F   0  0  0  0  0  0  0  0  0  0  0  0
   39.9670   26.5010   34.3820 C   0  0  0  0  0  0  0  0  0  0  0  0
   40.0190   27.2350   35.5770 F   0  0  0  0  0  0  0  0  0  0  0  0
   40.8580   25.4690   34.5250 F   0  0  0  0  0  0  0  0  0  0  0  0
   40.3060   27.3940   33.4050 F   0  0  0  0  0  0  0  0  0  0  0  0
  1  2  2  0  0  0  0
  1  6  1  0  0  0  0
  2  3  1  0  0  0  0
  3  7  1  0  0  0  0
  3  4  2  0  0  0  0
  5  4  1  0  0  0  0
  5 14  1  0  0  0  0
  6  5  2  0  0  0  0
  7 11  1  0  0  0  0
  8  7  1  0  0  0  0
  8  9  1  0  0  0  0
  9 10  1  0  0  0  0
 10 19  1  0  0  0  0
 10 20  1  0  0  0  0
 11 25  1  0  0  0  0
 11 10  1  0  0  0  0
 11 21  1  0  0  0  0
 12  1  1  0  0  0  0
 13  2  1  0  0  0  0
 15  8  1  0  0  0  0
 16  8  1  0  0  0  0
 17  9  1  0  0  0  0
 18  9  1  0  0  0  0
 21 23  1  0  0  0  0
 21 24  1  0  0  0  0
 22 21  1  0  0  0  0
 25 27  1  0  0  0  0
 25 26  1  0  0  0  0
 28 25  1  0  0  0  0
M  END
>  <minimizedAffinity>
-4.58190823

$$$$

 OpenBabel03272507253D

 28 29  0  0  0  0  0  0  0  0999 V2000
   36.0270   22.8130   31.5560 C   0  0  0  0  0  0  0  0  0  0  0  0
   36.8620   23.7540   32.1780 C   0  0  0  0  0  0  0  0  0  0  0  0
   37.5740   23.3710   33.3110 C   0  0  0  0  0  0  0  0  0  0  0  0
   37.4270   22.1070   33.7620 N   0  0  0  0  0  0  0  0  0  0  0  0
   36.6170   21.2060   33.1510 C   0  0  0  0  0  0  0  0  0  0  0  0
   35.9270   21.5660   32.0580 N   0  0  0  0  0  0  0  0  0  0  0  0
   38.4280   24.2720   33.9820 N   0  0  0  0  0  0  0  0  0  0  0  0
   39.1290   25.3810   33.3300 C   0  0  0  0  0  0  0  0  0  0  0  0
   40.1370   25.8880   34.2950 C   0  0  0  0  0  0  0  0  0  0  0  0
   40.2260   24.7910   35.2850 C   0  0  0  0  0  0  0  0  0  0  0  0
   38.7950   24.3230   35.3420 C   0  0  0  0  0  0  0  0  0  0  0  0
   35.4860   23.1380   30.6770 H   0  0  0  0  0  0  0  0  0  0  0  0
   36.9640   24.7460   31.8090 H   0  0  0  0  0  0  0  0  0  0  0  0
   36.5230   20.1920   33.5430 H   0  0  0  0  0  0  0  0  0  0  0  0
   38.3720   26.1350   33.0220 H   0  0  0  0  0  0  0  0  0  0  0  0
   39.5570   24.9820   32.4000 H   0  0  0  0  0  0  0  0  0  0  0  0
   39.9930   26.9020   34.6790 H   0  0  0  0  0  0  0  0  0  0  0  0
   41.1250   25.9100   33.7470 H   0  0  0  0  0  0  0  0  0  0  0  0
   40.8040   23.9460   34.8590 H   0  0  0  0  0  0  0  0  0  0  0  0
   40.6460   25.0760   36.2700 H   0  0  0  0  0  0  0  0  0  0  0  0
   38.6560   23.0630   36.1320 C   0  0  0  0  0  0  0  0  0  0  0  0
   39.4580   22.1040   35.5300 F   0  0  0  0  0  0  0  0  0  0  0  0
   37.4000   22.5590   36.2410 F   0  0  0  0  0  0  0  0  0  0  0  0
   39.2660   23.3010   37.3630 F   0  0  0  0  0  0  0  0  0  0  0  0
   37.8670   25.3170   36.0090 C   0  0  0  0  0  0  0  0  0  0  0  0
   37.0290   24.5120   36.7980 F   0  0  0  0  0  0  0  0  0  0  0  0
   38.5060   26.1680   36.8720 F   0  0  0  0  0  0  0  0  0  0  0  0
   37.0280   25.9450   35.1320 F   0  0  0  0  0  0  0  0  0  0  0  0
  1  6  2  0  0  0  0
  1  2  1  0  0  0  0
  2  3  2  0  0  0  0
  3  4  1  0  0  0  0
  3  7  1  0  0  0  0
  5 14  1  0  0  0  0
  5  4  2  0  0  0  0
  6  5  1  0  0  0  0
  7 11  1  0  0  0  0
  8  7  1  0  0  0  0
  8  9  1  0  0  0  0
  9 17  1  0  0  0  0
  9 10  1  0  0  0  0
 10 11  1  0  0  0  0
 10 20  1  0  0  0  0
 11 25  1  0  0  0  0
 11 21  1  0  0  0  0
 12  1  1  0  0  0  0
 13  2  1  0  0  0  0
 15  8  1  0  0  0  0
 16  8  1  0  0  0  0
 18  9  1  0  0  0  0
 19 10  1  0  0  0  0
 21 23  1  0  0  0  0
 21 24  1  0  0  0  0
 22 21  1  0  0  0  0
 25 26  1  0  0  0  0
 25 27  1  0  0  0  0
 28 25  1  0  0  0  0
M  END
>  <minimizedAffinity>
-4.57861853

$$$$

 OpenBabel03272507253D

 28 29  0  0  0  0  0  0  0  0999 V2000
   38.2550   22.9680   36.6790 C   0  0  0  0  0  0  0  0  0  0  0  0
   38.0110   22.2850   35.4790 C   0  0  0  0  0  0  0  0  0  0  0  0
   37.9990   23.0070   34.2890 C   0  0  0  0  0  0  0  0  0  0  0  0
   38.2240   24.3370   34.3450 N   0  0  0  0  0  0  0  0  0  0  0  0
   38.4600   24.9870   35.5130 C   0  0  0  0  0  0  0  0  0  0  0  0
   38.4730   24.2990   36.6650 N   0  0  0  0  0  0  0  0  0  0  0  0
   37.7580   22.3770   33.0490 N   0  0  0  0  0  0  0  0  0  0  0  0
   38.0920   20.9810   32.7570 C   0  0  0  0  0  0  0  0  0  0  0  0
   37.9630   20.7990   31.2890 C   0  0  0  0  0  0  0  0  0  0  0  0
   37.9510   22.1900   30.7840 C   0  0  0  0  0  0  0  0  0  0  0  0
   37.1830   22.8960   31.8720 C   0  0  0  0  0  0  0  0  0  0  0  0
   38.2590   22.3830   37.5890 H   0  0  0  0  0  0  0  0  0  0  0  0
   37.8350   21.2370   35.4540 H   0  0  0  0  0  0  0  0  0  0  0  0
   38.6380   26.0630   35.5210 H   0  0  0  0  0  0  0  0  0  0  0  0
   37.4190   20.3310   33.3590 H   0  0  0  0  0  0  0  0  0  0  0  0
   39.1060   20.8100   33.1450 H   0  0  0  0  0  0  0  0  0  0  0  0
   37.1720   20.1290   30.9370 H   0  0  0  0  0  0  0  0  0  0  0  0
   38.9310   20.3340   30.9360 H   0  0  0  0  0  0  0  0  0  0  0  0
   38.9770   22.6110   30.8170 H   0  0  0  0  0  0  0  0  0  0  0  0
   37.5230   22.3220   29.7720 H   0  0  0  0  0  0  0  0  0  0  0  0
   37.2130   24.3790   31.6960 C   0  0  0  0  0  0  0  0  0  0  0  0
   38.5420   24.7750   31.7290 F   0  0  0  0  0  0  0  0  0  0  0  0
   36.5290   25.1060   32.6180 F   0  0  0  0  0  0  0  0  0  0  0  0
   36.8090   24.6280   30.3850 F   0  0  0  0  0  0  0  0  0  0  0  0
   35.7140   22.5260   31.9010 C   0  0  0  0  0  0  0  0  0  0  0  0
   35.5160   21.8540   30.6840 F   0  0  0  0  0  0  0  0  0  0  0  0
   35.3940   21.6340   32.8910 F   0  0  0  0  0  0  0  0  0  0  0  0
   34.8840   23.6100   31.8430 F   0  0  0  0  0  0  0  0  0  0  0  0
  1 12  1  0  0  0  0
  2  1  2  0  0  0  0
  3  4  2  0  0  0  0
  3  2  1  0  0  0  0
  4  5  1  0  0  0  0
  5 14  1  0  0  0  0
  5  6  2  0  0  0  0
  6  1  1  0  0  0  0
  7  3  1  0  0  0  0
  8  7  1  0  0  0  0
  8 16  1  0  0  0  0
  8 15  1  0  0  0  0
  9  8  1  0  0  0  0
 10 19  1  0  0  0  0
 10  9  1  0  0  0  0
 10 11  1  0  0  0  0
 11 25  1  0  0  0  0
 11  7  1  0  0  0  0
 13  2  1  0  0  0  0
 17  9  1  0  0  0  0
 18  9  1  0  0  0  0
 20 10  1  0  0  0  0
 21 22  1  0  0  0  0
 21 11  1  0  0  0  0
 21 23  1  0  0  0  0
 24 21  1  0  0  0  0
 25 27  1  0  0  0  0
 26 25  1  0  0  0  0
 28 25  1  0  0  0  0
M  END
>  <minimizedAffinity>
-4.56649351

$$$$
