
 OpenBabel03272509503D

 28 29  0  0  0  0  0  0  0  0999 V2000
   33.7650   28.6000   49.1370 C   0  0  0  0  0  0  0  0  0  0  0  0
   33.2300   28.7430   50.1210 H   0  0  0  0  0  0  0  0  0  0  0  0
   33.7890   29.5820   48.6530 H   0  0  0  0  0  0  0  0  0  0  0  0
   33.0020   27.5500   48.3770 C   0  0  0  0  0  0  0  0  0  0  0  0
   33.0590   26.5800   48.9360 H   0  0  0  0  0  0  0  0  0  0  0  0
   33.5230   27.3290   47.4030 H   0  0  0  0  0  0  0  0  0  0  0  0
   31.5760   27.9070   48.1870 C   0  0  0  0  0  0  0  0  0  0  0  0
   30.7190   27.6500   49.2300 C   0  0  0  0  0  0  0  0  0  0  0  0
   29.3780   27.9340   49.1780 C   0  0  0  0  0  0  0  0  0  0  0  0
   28.8700   28.4870   48.0690 N   0  0  0  0  0  0  0  0  0  0  0  0
   29.7120   28.7400   47.0460 C   0  0  0  0  0  0  0  0  0  0  0  0
   31.0300   28.4660   47.0840 N   0  0  0  0  0  0  0  0  0  0  0  0
   31.0720   27.2000   50.1630 H   0  0  0  0  0  0  0  0  0  0  0  0
   28.6830   27.7320   50.0080 H   0  0  0  0  0  0  0  0  0  0  0  0
   29.3420   29.1840   46.1350 H   0  0  0  0  0  0  0  0  0  0  0  0
   35.0570   28.1170   49.4640 O   0  0  0  0  0  0  0  0  0  0  0  0
   37.3040   30.2470   51.3420 C   0  0  0  0  0  0  0  0  0  0  0  0
   37.9610   30.9070   50.2960 C   0  0  0  0  0  0  0  0  0  0  0  0
   37.5810   30.5700   48.9970 C   0  0  0  0  0  0  0  0  0  0  0  0
   36.6060   29.6310   48.8320 N   0  0  0  0  0  0  0  0  0  0  0  0
   36.0040   29.0240   49.8610 C   0  0  0  0  0  0  0  0  0  0  0  0
   36.3610   29.3400   51.1160 N   0  0  0  0  0  0  0  0  0  0  0  0
   37.6220   30.5310   52.3400 H   0  0  0  0  0  0  0  0  0  0  0  0
   38.7320   31.6480   50.4600 H   0  0  0  0  0  0  0  0  0  0  0  0
   38.2270   31.2240   47.8050 C   0  0  0  0  0  0  0  0  0  0  0  0
   38.6920   30.1660   47.0130 F   0  0  0  0  0  0  0  0  0  0  0  0
   37.2880   31.9830   47.1160 F   0  0  0  0  0  0  0  0  0  0  0  0
   39.2410   32.0130   48.2630 F   0  0  0  0  0  0  0  0  0  0  0  0
  1 16  1  0  0  0  0
  1  2  1  0  0  0  0
  3  1  1  0  0  0  0
  4  5  1  0  0  0  0
  4  1  1  0  0  0  0
  6  4  1  0  0  0  0
  7  4  1  0  0  0  0
  7  8  1  0  0  0  0
  8 13  1  0  0  0  0
  9  8  2  0  0  0  0
  9 14  1  0  0  0  0
 10  9  1  0  0  0  0
 11 12  1  0  0  0  0
 11 10  2  0  0  0  0
 12  7  2  0  0  0  0
 15 11  1  0  0  0  0
 16 21  1  0  0  0  0
 17 23  1  0  0  0  0
 18 24  1  0  0  0  0
 18 17  2  0  0  0  0
 19 18  1  0  0  0  0
 20 19  2  0  0  0  0
 20 21  1  0  0  0  0
 21 22  2  0  0  0  0
 22 17  1  0  0  0  0
 25 28  1  0  0  0  0
 25 19  1  0  0  0  0
 26 25  1  0  0  0  0
 27 25  1  0  0  0  0
M  END
>  <minimizedAffinity>
-5.2079649

>  <minimizedRMSD>
0.464455128

$$$$
