
 OpenBabel03272508303D

 27 28  0  0  1  0  0  0  0  0999 V2000
   37.6440   31.1620   47.7970 N   0  0  0  0  0  0  0  0  0  0  0  0
   37.0460   30.9590   46.4670 C   0  0  0  0  0  0  0  0  0  0  0  0
   37.9030   31.4680   45.3720 C   0  0  0  0  0  0  0  0  0  0  0  0
   39.2840   31.4670   45.7940 N   0  0  0  0  0  0  0  0  0  0  0  0
   39.3780   32.5390   46.7700 C   0  0  0  0  0  0  0  0  0  0  0  0
   38.8370   31.9400   48.0480 C   0  0  1  0  0  0  0  0  0  0  0  0
   36.9850   29.8460   46.3720 H   0  0  0  0  0  0  0  0  0  0  0  0
   36.0180   31.3560   46.4240 H   0  0  0  0  0  0  0  0  0  0  0  0
   37.7500   30.9560   44.4240 H   0  0  0  0  0  0  0  0  0  0  0  0
   37.6190   32.5470   45.1950 H   0  0  0  0  0  0  0  0  0  0  0  0
   39.8930   31.6920   44.9610 H   0  0  0  0  0  0  0  0  0  0  0  0
   38.7930   33.3940   46.3980 H   0  0  0  0  0  0  0  0  0  0  0  0
   40.4490   32.8210   46.9620 H   0  0  0  0  0  0  0  0  0  0  0  0
   39.6070   31.2270   48.4120 H   0  0  0  0  0  0  0  0  0  0  0  0
   37.7250   29.8380   49.8560 C   0  0  0  0  0  0  0  0  0  0  0  0
   36.9980   30.5440   48.8970 C   0  0  0  0  0  0  0  0  0  0  0  0
   35.6260   30.6090   49.0750 C   0  0  0  0  0  0  0  0  0  0  0  0
   35.0500   29.9980   50.1530 N   0  0  0  0  0  0  0  0  0  0  0  0
   35.8140   29.3270   51.0500 C   0  0  0  0  0  0  0  0  0  0  0  0
   37.1690   29.2310   50.9230 N   0  0  0  0  0  0  0  0  0  0  0  0
   38.8080   29.7410   49.7860 H   0  0  0  0  0  0  0  0  0  0  0  0
   35.0120   31.1450   48.3610 H   0  0  0  0  0  0  0  0  0  0  0  0
   35.3990   28.8280   51.9210 H   0  0  0  0  0  0  0  0  0  0  0  0
   38.6290   33.0250   49.0910 C   0  0  0  0  0  0  0  0  0  0  0  0
   39.1410   32.5180   50.2960 F   0  0  0  0  0  0  0  0  0  0  0  0
   39.4000   34.1150   48.7340 F   0  0  0  0  0  0  0  0  0  0  0  0
   37.3330   33.3790   49.2690 F   0  0  0  0  0  0  0  0  0  0  0  0
  1  6  1  0  0  0  0
  1 16  1  0  0  0  0
  2  1  1  0  0  0  0
  3  4  1  0  0  0  0
  3  2  1  0  0  0  0
  4  5  1  0  0  0  0
  5 13  1  0  0  0  0
  5  6  1  0  0  0  0
  6 14  1  1  0  0  0
  6 24  1  0  0  0  0
  7  2  1  0  0  0  0
  8  2  1  0  0  0  0
  9  3  1  0  0  0  0
 10  3  1  0  0  0  0
 11  4  1  0  0  0  0
 12  5  1  0  0  0  0
 15 20  1  0  0  0  0
 16 17  1  0  0  0  0
 16 15  2  0  0  0  0
 17 18  2  0  0  0  0
 18 19  1  0  0  0  0
 19 23  1  0  0  0  0
 20 19  2  0  0  0  0
 21 15  1  0  0  0  0
 22 17  1  0  0  0  0
 24 27  1  0  0  0  0
 24 25  1  0  0  0  0
 26 24  1  0  0  0  0
M  END
>  <minimizedAffinity>
-5.24143648

>  <minimizedRMSD>
0.969599426

$$$$
