
 OpenBabel03272504503D

 37 39  0  0  1  0  0  0  0  0999 V2000
   37.4710   31.2910   48.7110 N   0  0  0  0  0  0  0  0  0  0  0  0
   38.1380   31.2770   50.0070 C   0  0  0  0  0  0  0  0  0  0  0  0
   39.2280   32.2870   50.1330 C   0  0  0  0  0  0  0  0  0  0  0  0
   38.8160   33.5700   49.4500 C   0  0  0  0  0  0  0  0  0  0  0  0
   38.6900   33.2950   47.9900 C   0  0  0  0  0  0  0  0  0  0  0  0
   37.8150   32.1290   47.6160 C   0  0  1  0  0  0  0  0  0  0  0  0
   37.3700   31.4860   50.7810 H   0  0  0  0  0  0  0  0  0  0  0  0
   38.5850   30.2660   50.2080 H   0  0  0  0  0  0  0  0  0  0  0  0
   40.1590   31.9080   49.6730 H   0  0  0  0  0  0  0  0  0  0  0  0
   39.3650   32.4670   51.2360 H   0  0  0  0  0  0  0  0  0  0  0  0
   39.6690   34.2680   49.5880 H   0  0  0  0  0  0  0  0  0  0  0  0
   37.8840   33.9530   49.9130 H   0  0  0  0  0  0  0  0  0  0  0  0
   39.7370   33.2050   47.5960 H   0  0  0  0  0  0  0  0  0  0  0  0
   38.3070   34.2450   47.5280 H   0  0  0  0  0  0  0  0  0  0  0  0
   36.9290   32.5400   47.1150 H   0  0  0  0  0  0  0  0  0  0  0  0
   36.2650   29.2900   49.4330 C   0  0  0  0  0  0  0  0  0  0  0  0
   36.4000   30.3710   48.5640 C   0  0  0  0  0  0  0  0  0  0  0  0
   35.4610   30.4830   47.5560 C   0  0  0  0  0  0  0  0  0  0  0  0
   34.4700   29.5510   47.4630 N   0  0  0  0  0  0  0  0  0  0  0  0
   34.3730   28.5170   48.3210 C   0  0  0  0  0  0  0  0  0  0  0  0
   35.2760   28.4020   49.2990 N   0  0  0  0  0  0  0  0  0  0  0  0
   36.9490   29.1310   50.2400 H   0  0  0  0  0  0  0  0  0  0  0  0
   35.4430   31.2590   46.8420 H   0  0  0  0  0  0  0  0  0  0  0  0
   33.3190   27.5480   48.1810 C   0  0  0  0  0  0  0  0  0  0  0  0
   33.5260   26.3500   47.5700 C   0  0  0  0  0  0  0  0  0  0  0  0
   32.5860   25.3780   47.3900 C   0  0  0  0  0  0  0  0  0  0  0  0
   31.3420   25.7080   47.8960 C   0  0  0  0  0  0  0  0  0  0  0  0
   31.0470   26.9240   48.5400 C   0  0  0  0  0  0  0  0  0  0  0  0
   32.0930   27.8010   48.6460 N   0  0  0  0  0  0  0  0  0  0  0  0
   34.5430   26.1570   47.1920 H   0  0  0  0  0  0  0  0  0  0  0  0
   32.7370   24.4220   46.9070 H   0  0  0  0  0  0  0  0  0  0  0  0
   30.4890   25.0360   47.8280 H   0  0  0  0  0  0  0  0  0  0  0  0
   30.0550   27.1310   48.9160 H   0  0  0  0  0  0  0  0  0  0  0  0
   38.6680   31.3050   46.6370 C   0  0  0  0  0  0  0  0  0  0  0  0
   38.7350   29.9790   46.9660 F   0  0  0  0  0  0  0  0  0  0  0  0
   38.1690   31.4780   45.3380 F   0  0  0  0  0  0  0  0  0  0  0  0
   39.9660   31.7650   46.5870 F   0  0  0  0  0  0  0  0  0  0  0  0
  1  2  1  0  0  0  0
  2  3  1  0  0  0  0
  2  8  1  0  0  0  0
  2  7  1  0  0  0  0
  3 10  1  0  0  0  0
  4 11  1  0  0  0  0
  4 12  1  0  0  0  0
  4  3  1  0  0  0  0
  5  4  1  0  0  0  0
  6 15  1  6  0  0  0
  6  5  1  0  0  0  0
  6  1  1  0  0  0  0
  9  3  1  0  0  0  0
 13  5  1  0  0  0  0
 14  5  1  0  0  0  0
 16 22  1  0  0  0  0
 17  1  1  0  0  0  0
 17 16  2  0  0  0  0
 18 17  1  0  0  0  0
 19 18  2  0  0  0  0
 19 20  1  0  0  0  0
 20 21  2  0  0  0  0
 21 16  1  0  0  0  0
 23 18  1  0  0  0  0
 24 20  1  0  0  0  0
 24 29  1  0  0  0  0
 25 24  2  0  0  0  0
 26 25  1  0  0  0  0
 26 27  2  0  0  0  0
 27 28  1  0  0  0  0
 28 29  2  0  0  0  0
 28 33  1  0  0  0  0
 30 25  1  0  0  0  0
 31 26  1  0  0  0  0
 32 27  1  0  0  0  0
 34 35  1  0  0  0  0
 34  6  1  0  0  0  0
 36 34  1  0  0  0  0
 37 34  1  0  0  0  0
M  END
>  <minimizedAffinity>
-5.18734741

>  <minimizedRMSD>
1.32089365

$$$$
