
 OpenBabel03272502443D

 30 32  0  0  0  0  0  0  0  0999 V2000
   36.5280   28.6700   31.9600 C   0  0  0  0  0  0  0  0  0  0  0  0
   37.0540   27.4900   32.4780 C   0  0  0  0  0  0  0  0  0  0  0  0
   36.9430   27.3180   33.8670 C   0  0  0  0  0  0  0  0  0  0  0  0
   36.3500   28.2790   34.6170 N   0  0  0  0  0  0  0  0  0  0  0  0
   35.8540   29.4130   34.0560 C   0  0  0  0  0  0  0  0  0  0  0  0
   35.9550   29.5800   32.7390 N   0  0  0  0  0  0  0  0  0  0  0  0
   36.5870   28.8520   30.8940 H   0  0  0  0  0  0  0  0  0  0  0  0
   37.5280   26.7270   31.8690 H   0  0  0  0  0  0  0  0  0  0  0  0
   32.8970   29.3220   34.1110 Cl  0  0  0  0  0  0  0  0  0  0  0  0
   33.8600   30.4450   35.0070 C   0  0  0  0  0  0  0  0  0  0  0  0
   35.2300   30.4020   34.9100 C   0  0  0  0  0  0  0  0  0  0  0  0
   36.0200   31.2860   35.6140 C   0  0  0  0  0  0  0  0  0  0  0  0
   35.4410   32.2340   36.4320 C   0  0  0  0  0  0  0  0  0  0  0  0
   34.0690   32.3010   36.5490 C   0  0  0  0  0  0  0  0  0  0  0  0
   33.2400   33.4650   37.5580 Cl  0  0  0  0  0  0  0  0  0  0  0  0
   33.3220   31.4040   35.8320 C   0  0  0  0  0  0  0  0  0  0  0  0
   37.0980   31.2280   35.5180 H   0  0  0  0  0  0  0  0  0  0  0  0
   36.0540   32.9500   37.0030 H   0  0  0  0  0  0  0  0  0  0  0  0
   32.2400   31.4410   35.9100 H   0  0  0  0  0  0  0  0  0  0  0  0
   37.4620   26.1120   34.5240 C   0  0  0  0  0  0  0  0  0  0  0  0
   38.0410   25.0620   33.8380 C   0  0  0  0  0  0  0  0  0  0  0  0
   38.4310   24.0820   34.6910 N   0  0  0  0  0  0  0  0  0  0  0  0
   38.0970   24.5180   35.9120 C   0  0  0  0  0  0  0  0  0  0  0  0
   37.5190   25.7320   35.8060 N   0  0  0  0  0  0  0  0  0  0  0  0
   38.2230   24.9040   32.7710 H   0  0  0  0  0  0  0  0  0  0  0  0
   38.8910   23.1670   34.5270 H   0  0  0  0  0  0  0  0  0  0  0  0
   38.2450   23.9340   37.2630 C   0  0  0  0  0  0  0  0  0  0  0  0
   38.0770   24.9400   38.2190 F   0  0  0  0  0  0  0  0  0  0  0  0
   37.2430   23.0250   37.4960 F   0  0  0  0  0  0  0  0  0  0  0  0
   39.4910   23.4130   37.4760 F   0  0  0  0  0  0  0  0  0  0  0  0
  1  2  2  0  0  0  0
  1  6  1  0  0  0  0
  2  3  1  0  0  0  0
  3 20  1  0  0  0  0
  3  4  2  0  0  0  0
  5  4  1  0  0  0  0
  5 11  1  0  0  0  0
  6  5  2  0  0  0  0
  7  1  1  0  0  0  0
  8  2  1  0  0  0  0
  9 10  1  0  0  0  0
 10 16  1  0  0  0  0
 11 10  2  0  0  0  0
 11 12  1  0  0  0  0
 12 13  2  0  0  0  0
 13 14  1  0  0  0  0
 13 18  1  0  0  0  0
 14 15  1  0  0  0  0
 16 19  1  0  0  0  0
 16 14  2  0  0  0  0
 17 12  1  0  0  0  0
 20 24  1  0  0  0  0
 21 20  2  0  0  0  0
 21 22  1  0  0  0  0
 22 23  1  0  0  0  0
 23 27  1  0  0  0  0
 24 23  2  0  0  0  0
 25 21  1  0  0  0  0
 26 22  1  0  0  0  0
 27 30  1  0  0  0  0
 27 29  1  0  0  0  0
 27 28  1  0  0  0  0
M  END
>  <minimizedAffinity>
-6.2202096

$$$$

 OpenBabel03272502443D

 30 32  0  0  0  0  0  0  0  0999 V2000
   37.1630   27.4560   32.1560 C   0  0  0  0  0  0  0  0  0  0  0  0
   37.5760   26.3740   32.9280 C   0  0  0  0  0  0  0  0  0  0  0  0
   37.3120   26.4560   34.3050 C   0  0  0  0  0  0  0  0  0  0  0  0
   36.6880   27.5510   34.8050 N   0  0  0  0  0  0  0  0  0  0  0  0
   36.3060   28.5790   34.0020 C   0  0  0  0  0  0  0  0  0  0  0  0
   36.5530   28.5060   32.6960 N   0  0  0  0  0  0  0  0  0  0  0  0
   37.3420   27.4430   31.0880 H   0  0  0  0  0  0  0  0  0  0  0  0
   38.0760   25.5020   32.5190 H   0  0  0  0  0  0  0  0  0  0  0  0
   33.5310   29.0210   33.0800 Cl  0  0  0  0  0  0  0  0  0  0  0  0
   34.3490   30.0150   34.2340 C   0  0  0  0  0  0  0  0  0  0  0  0
   35.6420   29.7210   34.5950 C   0  0  0  0  0  0  0  0  0  0  0  0
   36.3180   30.4970   35.5130 C   0  0  0  0  0  0  0  0  0  0  0  0
   35.6990   31.5890   36.0870 C   0  0  0  0  0  0  0  0  0  0  0  0
   34.4020   31.9080   35.7440 C   0  0  0  0  0  0  0  0  0  0  0  0
   33.5310   33.2690   36.4150 Cl  0  0  0  0  0  0  0  0  0  0  0  0
   33.7690   31.1100   34.8280 C   0  0  0  0  0  0  0  0  0  0  0  0
   37.3370   30.2420   35.7780 H   0  0  0  0  0  0  0  0  0  0  0  0
   36.2200   32.2230   36.8220 H   0  0  0  0  0  0  0  0  0  0  0  0
   32.7480   31.3450   34.5450 H   0  0  0  0  0  0  0  0  0  0  0  0
   37.7030   25.3740   35.2160 C   0  0  0  0  0  0  0  0  0  0  0  0
   38.1350   24.1350   34.7840 C   0  0  0  0  0  0  0  0  0  0  0  0
   38.4300   23.3300   35.8350 N   0  0  0  0  0  0  0  0  0  0  0  0
   38.1830   24.0650   36.9270 C   0  0  0  0  0  0  0  0  0  0  0  0
   37.7490   25.2860   36.5510 N   0  0  0  0  0  0  0  0  0  0  0  0
   38.2690   23.7220   33.7800 H   0  0  0  0  0  0  0  0  0  0  0  0
   38.7740   22.3530   35.8810 H   0  0  0  0  0  0  0  0  0  0  0  0
   38.2980   23.7840   38.3740 C   0  0  0  0  0  0  0  0  0  0  0  0
   39.5400   23.1970   38.6320 F   0  0  0  0  0  0  0  0  0  0  0  0
   38.2860   24.9600   39.0850 F   0  0  0  0  0  0  0  0  0  0  0  0
   37.3580   22.8920   38.8130 F   0  0  0  0  0  0  0  0  0  0  0  0
  1  6  2  0  0  0  0
  1  2  1  0  0  0  0
  2  3  2  0  0  0  0
  3  4  1  0  0  0  0
  3 20  1  0  0  0  0
  5 11  1  0  0  0  0
  5  4  2  0  0  0  0
  6  5  1  0  0  0  0
  7  1  1  0  0  0  0
  8  2  1  0  0  0  0
  9 10  1  0  0  0  0
 10 11  2  0  0  0  0
 10 16  1  0  0  0  0
 11 12  1  0  0  0  0
 12 17  1  0  0  0  0
 12 13  2  0  0  0  0
 13 18  1  0  0  0  0
 14 13  1  0  0  0  0
 14 15  1  0  0  0  0
 16 14  2  0  0  0  0
 19 16  1  0  0  0  0
 20 24  1  0  0  0  0
 21 20  2  0  0  0  0
 21 22  1  0  0  0  0
 22 26  1  0  0  0  0
 22 23  1  0  0  0  0
 23 27  1  0  0  0  0
 24 23  2  0  0  0  0
 25 21  1  0  0  0  0
 27 28  1  0  0  0  0
 27 30  1  0  0  0  0
 27 29  1  0  0  0  0
M  END
>  <minimizedAffinity>
-6.17499018

$$$$

 OpenBabel03272502443D

 30 32  0  0  0  0  0  0  0  0999 V2000
   36.8420   22.9990   31.2390 C   0  0  0  0  0  0  0  0  0  0  0  0
   37.2670   22.5780   32.4960 C   0  0  0  0  0  0  0  0  0  0  0  0
   37.6640   23.5870   33.3880 C   0  0  0  0  0  0  0  0  0  0  0  0
   37.6180   24.8850   32.9970 N   0  0  0  0  0  0  0  0  0  0  0  0
   37.1940   25.2380   31.7550 C   0  0  0  0  0  0  0  0  0  0  0  0
   36.8150   24.2850   30.9060 N   0  0  0  0  0  0  0  0  0  0  0  0
   36.5250   22.2600   30.5130 H   0  0  0  0  0  0  0  0  0  0  0  0
   37.3000   21.5360   32.8000 H   0  0  0  0  0  0  0  0  0  0  0  0
   39.5780   26.1930   30.2880 Cl  0  0  0  0  0  0  0  0  0  0  0  0
   38.2270   27.1850   30.7130 C   0  0  0  0  0  0  0  0  0  0  0  0
   37.1660   26.6400   31.3970 C   0  0  0  0  0  0  0  0  0  0  0  0
   36.0770   27.4090   31.7480 C   0  0  0  0  0  0  0  0  0  0  0  0
   36.0360   28.7480   31.4150 C   0  0  0  0  0  0  0  0  0  0  0  0
   37.0850   29.3220   30.7290 C   0  0  0  0  0  0  0  0  0  0  0  0
   37.1290   31.0070   30.2600 Cl  0  0  0  0  0  0  0  0  0  0  0  0
   38.1470   28.5210   30.4000 C   0  0  0  0  0  0  0  0  0  0  0  0
   35.2550   26.9530   32.2870 H   0  0  0  0  0  0  0  0  0  0  0  0
   35.1750   29.3800   31.6850 H   0  0  0  0  0  0  0  0  0  0  0  0
   38.9830   28.9540   29.8600 H   0  0  0  0  0  0  0  0  0  0  0  0
   38.1300   23.2610   34.7410 C   0  0  0  0  0  0  0  0  0  0  0  0
   38.9770   22.2060   35.0200 C   0  0  0  0  0  0  0  0  0  0  0  0
   39.2450   22.1360   36.3470 N   0  0  0  0  0  0  0  0  0  0  0  0
   38.5650   23.1470   36.9020 C   0  0  0  0  0  0  0  0  0  0  0  0
   37.9010   23.8170   35.9370 N   0  0  0  0  0  0  0  0  0  0  0  0
   39.4410   21.4560   34.3710 H   0  0  0  0  0  0  0  0  0  0  0  0
   39.8300   21.4820   36.9000 H   0  0  0  0  0  0  0  0  0  0  0  0
   38.4300   23.6220   38.2960 C   0  0  0  0  0  0  0  0  0  0  0  0
   37.4480   22.8680   38.9450 F   0  0  0  0  0  0  0  0  0  0  0  0
   39.5940   23.3950   38.9870 F   0  0  0  0  0  0  0  0  0  0  0  0
   38.0180   24.9250   38.3690 F   0  0  0  0  0  0  0  0  0  0  0  0
  1  2  1  0  0  0  0
  2  8  1  0  0  0  0
  2  3  2  0  0  0  0
  3 20  1  0  0  0  0
  4  3  1  0  0  0  0
  5  4  2  0  0  0  0
  6  1  2  0  0  0  0
  6  5  1  0  0  0  0
  7  1  1  0  0  0  0
  9 10  1  0  0  0  0
 10 11  1  0  0  0  0
 11 12  2  0  0  0  0
 11  5  1  0  0  0  0
 12 17  1  0  0  0  0
 13 18  1  0  0  0  0
 13 12  1  0  0  0  0
 14 13  2  0  0  0  0
 15 14  1  0  0  0  0
 16 10  2  0  0  0  0
 16 14  1  0  0  0  0
 19 16  1  0  0  0  0
 20 21  2  0  0  0  0
 20 24  1  0  0  0  0
 21 22  1  0  0  0  0
 22 26  1  0  0  0  0
 22 23  1  0  0  0  0
 23 27  1  0  0  0  0
 24 23  2  0  0  0  0
 25 21  1  0  0  0  0
 27 30  1  0  0  0  0
 27 28  1  0  0  0  0
 27 29  1  0  0  0  0
M  END
>  <minimizedAffinity>
-5.90249443

$$$$

 OpenBabel03272502443D

 30 32  0  0  0  0  0  0  0  0999 V2000
   38.0490   24.8350   31.1420 C   0  0  0  0  0  0  0  0  0  0  0  0
   38.4310   23.9730   32.1660 C   0  0  0  0  0  0  0  0  0  0  0  0
   38.2060   24.4260   33.4760 C   0  0  0  0  0  0  0  0  0  0  0  0
   37.6460   25.6440   33.6790 N   0  0  0  0  0  0  0  0  0  0  0  0
   37.2930   26.4450   32.6390 C   0  0  0  0  0  0  0  0  0  0  0  0
   37.5030   26.0200   31.3950 N   0  0  0  0  0  0  0  0  0  0  0  0
   38.2010   24.5340   30.1130 H   0  0  0  0  0  0  0  0  0  0  0  0
   38.8790   23.0000   31.9940 H   0  0  0  0  0  0  0  0  0  0  0  0
   36.7490   28.1090   30.2540 Cl  0  0  0  0  0  0  0  0  0  0  0  0
   36.4050   28.5860   31.8800 C   0  0  0  0  0  0  0  0  0  0  0  0
   36.6980   27.7350   32.9190 C   0  0  0  0  0  0  0  0  0  0  0  0
   36.4340   28.0910   34.2250 C   0  0  0  0  0  0  0  0  0  0  0  0
   35.8670   29.3160   34.5100 C   0  0  0  0  0  0  0  0  0  0  0  0
   35.5630   30.1900   33.4880 C   0  0  0  0  0  0  0  0  0  0  0  0
   34.8440   31.7650   33.7440 Cl  0  0  0  0  0  0  0  0  0  0  0  0
   35.8420   29.7960   32.2060 C   0  0  0  0  0  0  0  0  0  0  0  0
   36.6760   27.3990   35.0240 H   0  0  0  0  0  0  0  0  0  0  0  0
   35.6490   29.6200   35.5450 H   0  0  0  0  0  0  0  0  0  0  0  0
   35.6100   30.4710   31.3880 H   0  0  0  0  0  0  0  0  0  0  0  0
   38.5690   23.6010   34.6340 C   0  0  0  0  0  0  0  0  0  0  0  0
   37.8590   22.4810   35.0230 C   0  0  0  0  0  0  0  0  0  0  0  0
   38.4140   21.9110   36.1210 N   0  0  0  0  0  0  0  0  0  0  0  0
   39.4720   22.6750   36.4230 C   0  0  0  0  0  0  0  0  0  0  0  0
   39.5600   23.6830   35.5300 N   0  0  0  0  0  0  0  0  0  0  0  0
   36.9660   22.0060   34.6050 H   0  0  0  0  0  0  0  0  0  0  0  0
   38.1490   21.0750   36.6730 H   0  0  0  0  0  0  0  0  0  0  0  0
   40.4900   22.6040   37.4930 C   0  0  0  0  0  0  0  0  0  0  0  0
   41.6230   23.3200   37.0970 F   0  0  0  0  0  0  0  0  0  0  0  0
   40.0280   23.2300   38.6250 F   0  0  0  0  0  0  0  0  0  0  0  0
   40.9130   21.3260   37.7320 F   0  0  0  0  0  0  0  0  0  0  0  0
  1  6  2  0  0  0  0
  1  2  1  0  0  0  0
  2  3  2  0  0  0  0
  3  4  1  0  0  0  0
  3 20  1  0  0  0  0
  5 11  1  0  0  0  0
  5  4  2  0  0  0  0
  6  5  1  0  0  0  0
  7  1  1  0  0  0  0
  8  2  1  0  0  0  0
  9 10  1  0  0  0  0
 10 16  2  0  0  0  0
 10 11  1  0  0  0  0
 11 12  2  0  0  0  0
 12 13  1  0  0  0  0
 12 17  1  0  0  0  0
 13 18  1  0  0  0  0
 14 15  1  0  0  0  0
 14 13  2  0  0  0  0
 16 14  1  0  0  0  0
 19 16  1  0  0  0  0
 20 21  2  0  0  0  0
 20 24  1  0  0  0  0
 21 22  1  0  0  0  0
 22 23  1  0  0  0  0
 22 26  1  0  0  0  0
 23 27  1  0  0  0  0
 24 23  2  0  0  0  0
 25 21  1  0  0  0  0
 27 30  1  0  0  0  0
 27 29  1  0  0  0  0
 28 27  1  0  0  0  0
M  END
>  <minimizedAffinity>
-5.8725276

$$$$

 OpenBabel03272502443D

 30 32  0  0  0  0  0  0  0  0999 V2000
   36.7970   24.6190   31.3590 C   0  0  0  0  0  0  0  0  0  0  0  0
   37.3510   24.0410   32.4980 C   0  0  0  0  0  0  0  0  0  0  0  0
   37.6140   24.9080   33.5700 C   0  0  0  0  0  0  0  0  0  0  0  0
   37.3260   26.2280   33.4520 N   0  0  0  0  0  0  0  0  0  0  0  0
   36.7860   26.7380   32.3140 C   0  0  0  0  0  0  0  0  0  0  0  0
   36.5340   25.9200   31.2950 N   0  0  0  0  0  0  0  0  0  0  0  0
   36.5750   23.9940   30.5030 H   0  0  0  0  0  0  0  0  0  0  0  0
   37.5780   22.9830   32.5820 H   0  0  0  0  0  0  0  0  0  0  0  0
   38.0280   28.1540   30.0340 Cl  0  0  0  0  0  0  0  0  0  0  0  0
   37.0300   28.9070   31.2280 C   0  0  0  0  0  0  0  0  0  0  0  0
   36.5000   28.1560   32.2490 C   0  0  0  0  0  0  0  0  0  0  0  0
   35.7010   28.7320   33.2140 C   0  0  0  0  0  0  0  0  0  0  0  0
   35.4190   30.0820   33.1670 C   0  0  0  0  0  0  0  0  0  0  0  0
   35.9370   30.8600   32.1540 C   0  0  0  0  0  0  0  0  0  0  0  0
   35.6400   32.5780   32.0060 Cl  0  0  0  0  0  0  0  0  0  0  0  0
   36.7260   30.2470   31.2160 C   0  0  0  0  0  0  0  0  0  0  0  0
   35.2970   28.1140   34.0080 H   0  0  0  0  0  0  0  0  0  0  0  0
   34.7840   30.5620   33.9280 H   0  0  0  0  0  0  0  0  0  0  0  0
   37.1430   30.8430   30.4110 H   0  0  0  0  0  0  0  0  0  0  0  0
   38.1970   24.4090   34.8210 C   0  0  0  0  0  0  0  0  0  0  0  0
   39.3990   23.7310   34.8830 C   0  0  0  0  0  0  0  0  0  0  0  0
   39.6980   23.3880   36.1600 N   0  0  0  0  0  0  0  0  0  0  0  0
   38.6830   23.8500   36.9000 C   0  0  0  0  0  0  0  0  0  0  0  0
   37.7890   24.4610   36.0950 N   0  0  0  0  0  0  0  0  0  0  0  0
   40.1110   23.4420   34.1030 H   0  0  0  0  0  0  0  0  0  0  0  0
   40.5060   22.8810   36.5670 H   0  0  0  0  0  0  0  0  0  0  0  0
   38.3960   23.8090   38.3500 C   0  0  0  0  0  0  0  0  0  0  0  0
   37.9760   25.0740   38.7720 F   0  0  0  0  0  0  0  0  0  0  0  0
   37.3440   22.9630   38.6000 F   0  0  0  0  0  0  0  0  0  0  0  0
   39.5030   23.5100   39.0970 F   0  0  0  0  0  0  0  0  0  0  0  0
  1  2  1  0  0  0  0
  2  8  1  0  0  0  0
  2  3  2  0  0  0  0
  3 20  1  0  0  0  0
  4  3  1  0  0  0  0
  5  4  2  0  0  0  0
  6  1  2  0  0  0  0
  6  5  1  0  0  0  0
  7  1  1  0  0  0  0
  9 10  1  0  0  0  0
 10 11  1  0  0  0  0
 11  5  1  0  0  0  0
 11 12  2  0  0  0  0
 12 17  1  0  0  0  0
 13 12  1  0  0  0  0
 13 18  1  0  0  0  0
 14 13  2  0  0  0  0
 15 14  1  0  0  0  0
 16 10  2  0  0  0  0
 16 14  1  0  0  0  0
 19 16  1  0  0  0  0
 20 21  2  0  0  0  0
 20 24  1  0  0  0  0
 21 22  1  0  0  0  0
 22 26  1  0  0  0  0
 22 23  1  0  0  0  0
 23 27  1  0  0  0  0
 24 23  2  0  0  0  0
 25 21  1  0  0  0  0
 27 29  1  0  0  0  0
 27 28  1  0  0  0  0
 27 30  1  0  0  0  0
M  END
>  <minimizedAffinity>
-5.80402088

$$$$

 OpenBabel03272502443D

 30 32  0  0  0  0  0  0  0  0999 V2000
   36.8070   28.7290   32.0480 C   0  0  0  0  0  0  0  0  0  0  0  0
   37.5140   27.7250   32.7040 C   0  0  0  0  0  0  0  0  0  0  0  0
   37.1250   27.4520   34.0240 C   0  0  0  0  0  0  0  0  0  0  0  0
   36.1110   28.1570   34.5850 N   0  0  0  0  0  0  0  0  0  0  0  0
   35.4550   29.1280   33.8960 C   0  0  0  0  0  0  0  0  0  0  0  0
   35.8200   29.3900   32.6430 N   0  0  0  0  0  0  0  0  0  0  0  0
   37.0680   28.9790   31.0270 H   0  0  0  0  0  0  0  0  0  0  0  0
   38.3250   27.1660   32.2460 H   0  0  0  0  0  0  0  0  0  0  0  0
   36.3300   31.2470   35.7660 Cl  0  0  0  0  0  0  0  0  0  0  0  0
   34.6790   30.8500   35.4380 C   0  0  0  0  0  0  0  0  0  0  0  0
   34.3810   29.8450   34.5490 C   0  0  0  0  0  0  0  0  0  0  0  0
   33.0730   29.5090   34.2700 C   0  0  0  0  0  0  0  0  0  0  0  0
   32.0370   30.1830   34.8840 C   0  0  0  0  0  0  0  0  0  0  0  0
   32.3060   31.1950   35.7800 C   0  0  0  0  0  0  0  0  0  0  0  0
   31.0660   32.1080   36.6100 Cl  0  0  0  0  0  0  0  0  0  0  0  0
   33.6200   31.4960   36.0280 C   0  0  0  0  0  0  0  0  0  0  0  0
   32.8670   28.7120   33.5650 H   0  0  0  0  0  0  0  0  0  0  0  0
   30.9850   29.9300   34.6760 H   0  0  0  0  0  0  0  0  0  0  0  0
   33.8520   32.2900   36.7310 H   0  0  0  0  0  0  0  0  0  0  0  0
   37.7990   26.4130   34.8130 C   0  0  0  0  0  0  0  0  0  0  0  0
   39.0090   25.8520   34.4550 C   0  0  0  0  0  0  0  0  0  0  0  0
   39.4000   24.9210   35.3600 N   0  0  0  0  0  0  0  0  0  0  0  0
   38.4340   24.8980   36.2870 C   0  0  0  0  0  0  0  0  0  0  0  0
   37.4800   25.7930   35.9550 N   0  0  0  0  0  0  0  0  0  0  0  0
   39.6680   26.0310   33.5990 H   0  0  0  0  0  0  0  0  0  0  0  0
   40.2390   24.3140   35.4080 H   0  0  0  0  0  0  0  0  0  0  0  0
   38.2490   24.1140   37.5270 C   0  0  0  0  0  0  0  0  0  0  0  0
   37.1480   23.2660   37.3750 F   0  0  0  0  0  0  0  0  0  0  0  0
   39.3300   23.2910   37.7290 F   0  0  0  0  0  0  0  0  0  0  0  0
   37.9740   24.9010   38.6110 F   0  0  0  0  0  0  0  0  0  0  0  0
  1  6  2  0  0  0  0
  1  2  1  0  0  0  0
  2  3  2  0  0  0  0
  3  4  1  0  0  0  0
  3 20  1  0  0  0  0
  5 11  1  0  0  0  0
  5  4  2  0  0  0  0
  6  5  1  0  0  0  0
  7  1  1  0  0  0  0
  8  2  1  0  0  0  0
 10  9  1  0  0  0  0
 10 16  1  0  0  0  0
 11 10  2  0  0  0  0
 12 11  1  0  0  0  0
 12 13  2  0  0  0  0
 13 14  1  0  0  0  0
 14 16  2  0  0  0  0
 14 15  1  0  0  0  0
 16 19  1  0  0  0  0
 17 12  1  0  0  0  0
 18 13  1  0  0  0  0
 20 24  1  0  0  0  0
 21 20  2  0  0  0  0
 21 22  1  0  0  0  0
 22 26  1  0  0  0  0
 22 23  1  0  0  0  0
 23 27  1  0  0  0  0
 24 23  2  0  0  0  0
 25 21  1  0  0  0  0
 27 29  1  0  0  0  0
 27 30  1  0  0  0  0
 28 27  1  0  0  0  0
M  END
>  <minimizedAffinity>
-5.75697899

$$$$

 OpenBabel03272502443D

 30 32  0  0  0  0  0  0  0  0999 V2000
   38.6700   22.3420   31.3870 C   0  0  0  0  0  0  0  0  0  0  0  0
   38.8770   22.0760   32.7380 C   0  0  0  0  0  0  0  0  0  0  0  0
   38.7270   23.1620   33.6150 C   0  0  0  0  0  0  0  0  0  0  0  0
   38.4000   24.3820   33.1230 N   0  0  0  0  0  0  0  0  0  0  0  0
   38.2100   24.5840   31.7920 C   0  0  0  0  0  0  0  0  0  0  0  0
   38.3500   23.5570   30.9560 N   0  0  0  0  0  0  0  0  0  0  0  0
   38.7730   21.5390   30.6680 H   0  0  0  0  0  0  0  0  0  0  0  0
   39.1390   21.0950   33.1220 H   0  0  0  0  0  0  0  0  0  0  0  0
   35.3180   25.0280   31.3570 Cl  0  0  0  0  0  0  0  0  0  0  0  0
   36.5430   26.2200   31.0940 C   0  0  0  0  0  0  0  0  0  0  0  0
   37.8610   25.9100   31.3280 C   0  0  0  0  0  0  0  0  0  0  0  0
   38.8570   26.8420   31.1260 C   0  0  0  0  0  0  0  0  0  0  0  0
   38.5410   28.1110   30.6840 C   0  0  0  0  0  0  0  0  0  0  0  0
   37.2270   28.4510   30.4410 C   0  0  0  0  0  0  0  0  0  0  0  0
   36.7240   30.0290   29.8800 Cl  0  0  0  0  0  0  0  0  0  0  0  0
   36.2700   27.4940   30.6550 C   0  0  0  0  0  0  0  0  0  0  0  0
   39.8880   26.5690   31.3190 H   0  0  0  0  0  0  0  0  0  0  0  0
   39.3210   28.8700   30.5160 H   0  0  0  0  0  0  0  0  0  0  0  0
   35.2300   27.7420   30.4690 H   0  0  0  0  0  0  0  0  0  0  0  0
   38.9200   22.9990   35.0610 C   0  0  0  0  0  0  0  0  0  0  0  0
   39.8420   22.1310   35.6120 C   0  0  0  0  0  0  0  0  0  0  0  0
   39.8090   22.1820   36.9670 N   0  0  0  0  0  0  0  0  0  0  0  0
   38.8650   23.0830   37.2650 C   0  0  0  0  0  0  0  0  0  0  0  0
   38.3380   23.5690   36.1220 N   0  0  0  0  0  0  0  0  0  0  0  0
   40.5580   21.4430   35.1510 H   0  0  0  0  0  0  0  0  0  0  0  0
   40.3520   21.6760   37.6900 H   0  0  0  0  0  0  0  0  0  0  0  0
   38.3400   23.6020   38.5470 C   0  0  0  0  0  0  0  0  0  0  0  0
   37.8220   24.8840   38.3470 F   0  0  0  0  0  0  0  0  0  0  0  0
   37.2830   22.8330   38.9690 F   0  0  0  0  0  0  0  0  0  0  0  0
   39.3130   23.7300   39.5000 F   0  0  0  0  0  0  0  0  0  0  0  0
  1  2  1  0  0  0  0
  2  8  1  0  0  0  0
  2  3  2  0  0  0  0
  3 20  1  0  0  0  0
  4  3  1  0  0  0  0
  5  4  2  0  0  0  0
  6  1  2  0  0  0  0
  6  5  1  0  0  0  0
  7  1  1  0  0  0  0
 10 11  1  0  0  0  0
 10  9  1  0  0  0  0
 11  5  1  0  0  0  0
 12 17  1  0  0  0  0
 12 11  2  0  0  0  0
 13 12  1  0  0  0  0
 14 16  1  0  0  0  0
 14 13  2  0  0  0  0
 15 14  1  0  0  0  0
 16 10  2  0  0  0  0
 18 13  1  0  0  0  0
 19 16  1  0  0  0  0
 20 21  2  0  0  0  0
 20 24  1  0  0  0  0
 21 22  1  0  0  0  0
 22 23  1  0  0  0  0
 22 26  1  0  0  0  0
 23 27  1  0  0  0  0
 24 23  2  0  0  0  0
 25 21  1  0  0  0  0
 27 29  1  0  0  0  0
 27 30  1  0  0  0  0
 28 27  1  0  0  0  0
M  END
>  <minimizedAffinity>
-5.66582203

$$$$

 OpenBabel03272502443D

 30 32  0  0  0  0  0  0  0  0999 V2000
   36.5860   22.9990   31.2400 C   0  0  0  0  0  0  0  0  0  0  0  0
   36.9020   22.6070   32.5370 C   0  0  0  0  0  0  0  0  0  0  0  0
   37.7450   23.4670   33.2590 C   0  0  0  0  0  0  0  0  0  0  0  0
   38.2000   24.6050   32.6770 N   0  0  0  0  0  0  0  0  0  0  0  0
   37.8590   24.9370   31.4040 C   0  0  0  0  0  0  0  0  0  0  0  0
   37.0590   24.1260   30.7160 N   0  0  0  0  0  0  0  0  0  0  0  0
   35.9390   22.3710   30.6400 H   0  0  0  0  0  0  0  0  0  0  0  0
   36.5320   21.6950   32.9940 H   0  0  0  0  0  0  0  0  0  0  0  0
   40.5400   24.7070   30.1740 Cl  0  0  0  0  0  0  0  0  0  0  0  0
   39.6150   26.1670   30.2430 C   0  0  0  0  0  0  0  0  0  0  0  0
   38.3770   26.1650   30.8390 C   0  0  0  0  0  0  0  0  0  0  0  0
   37.6200   27.3160   30.9070 C   0  0  0  0  0  0  0  0  0  0  0  0
   38.0990   28.4950   30.3730 C   0  0  0  0  0  0  0  0  0  0  0  0
   39.3380   28.5270   29.7700 C   0  0  0  0  0  0  0  0  0  0  0  0
   40.0340   29.9680   29.0640 Cl  0  0  0  0  0  0  0  0  0  0  0  0
   40.0560   27.3600   29.7240 C   0  0  0  0  0  0  0  0  0  0  0  0
   36.6460   27.2850   31.3830 H   0  0  0  0  0  0  0  0  0  0  0  0
   37.5110   29.4250   30.4170 H   0  0  0  0  0  0  0  0  0  0  0  0
   41.0340   27.3650   29.2530 H   0  0  0  0  0  0  0  0  0  0  0  0
   38.1440   23.1560   34.6360 C   0  0  0  0  0  0  0  0  0  0  0  0
   38.9550   22.0890   34.9700 C   0  0  0  0  0  0  0  0  0  0  0  0
   39.1630   22.0370   36.3090 N   0  0  0  0  0  0  0  0  0  0  0  0
   38.4820   23.0720   36.8150 C   0  0  0  0  0  0  0  0  0  0  0  0
   37.8750   23.7380   35.8110 N   0  0  0  0  0  0  0  0  0  0  0  0
   39.4310   21.3180   34.3550 H   0  0  0  0  0  0  0  0  0  0  0  0
   39.7100   21.3810   36.8980 H   0  0  0  0  0  0  0  0  0  0  0  0
   38.2960   23.5740   38.1940 C   0  0  0  0  0  0  0  0  0  0  0  0
   39.4970   23.4440   38.8970 F   0  0  0  0  0  0  0  0  0  0  0  0
   38.0190   24.9200   38.1720 F   0  0  0  0  0  0  0  0  0  0  0  0
   37.3670   22.8560   38.8940 F   0  0  0  0  0  0  0  0  0  0  0  0
  1  2  1  0  0  0  0
  2  8  1  0  0  0  0
  2  3  2  0  0  0  0
  3 20  1  0  0  0  0
  4  3  1  0  0  0  0
  5  4  2  0  0  0  0
  6  1  2  0  0  0  0
  6  5  1  0  0  0  0
  7  1  1  0  0  0  0
  9 10  1  0  0  0  0
 10 11  1  0  0  0  0
 11 12  2  0  0  0  0
 11  5  1  0  0  0  0
 12 17  1  0  0  0  0
 13 18  1  0  0  0  0
 13 12  1  0  0  0  0
 14 13  2  0  0  0  0
 15 14  1  0  0  0  0
 16 14  1  0  0  0  0
 16 10  2  0  0  0  0
 19 16  1  0  0  0  0
 20 21  2  0  0  0  0
 20 24  1  0  0  0  0
 21 22  1  0  0  0  0
 22 23  1  0  0  0  0
 22 26  1  0  0  0  0
 23 27  1  0  0  0  0
 24 23  2  0  0  0  0
 25 21  1  0  0  0  0
 27 30  1  0  0  0  0
 27 28  1  0  0  0  0
 29 27  1  0  0  0  0
M  END
>  <minimizedAffinity>
-5.55190516

$$$$

 OpenBabel03272502443D

 30 32  0  0  0  0  0  0  0  0999 V2000
   36.2570   25.9060   31.1120 C   0  0  0  0  0  0  0  0  0  0  0  0
   36.7250   25.5740   32.3800 C   0  0  0  0  0  0  0  0  0  0  0  0
   36.9730   26.6470   33.2510 C   0  0  0  0  0  0  0  0  0  0  0  0
   36.7540   27.9180   32.8300 N   0  0  0  0  0  0  0  0  0  0  0  0
   36.2960   28.1820   31.5780 C   0  0  0  0  0  0  0  0  0  0  0  0
   36.0580   27.1680   30.7490 N   0  0  0  0  0  0  0  0  0  0  0  0
   36.0500   25.1150   30.4010 H   0  0  0  0  0  0  0  0  0  0  0  0
   36.8980   24.5540   32.7070 H   0  0  0  0  0  0  0  0  0  0  0  0
   33.8000   29.3900   32.6060 Cl  0  0  0  0  0  0  0  0  0  0  0  0
   34.9500   30.2150   31.6130 C   0  0  0  0  0  0  0  0  0  0  0  0
   36.0810   29.5600   31.1880 C   0  0  0  0  0  0  0  0  0  0  0  0
   37.0140   30.1940   30.3950 C   0  0  0  0  0  0  0  0  0  0  0  0
   36.8240   31.5070   30.0140 C   0  0  0  0  0  0  0  0  0  0  0  0
   35.6980   32.1890   30.4260 C   0  0  0  0  0  0  0  0  0  0  0  0
   35.3650   33.8530   29.9980 Cl  0  0  0  0  0  0  0  0  0  0  0  0
   34.7980   31.5210   31.2130 C   0  0  0  0  0  0  0  0  0  0  0  0
   37.8960   29.6530   30.0750 H   0  0  0  0  0  0  0  0  0  0  0  0
   37.5560   32.0320   29.3820 H   0  0  0  0  0  0  0  0  0  0  0  0
   33.9050   32.0410   31.5470 H   0  0  0  0  0  0  0  0  0  0  0  0
   37.4680   26.4170   34.6130 C   0  0  0  0  0  0  0  0  0  0  0  0
   38.0490   27.4030   35.3880 C   0  0  0  0  0  0  0  0  0  0  0  0
   38.4130   26.9160   36.6000 N   0  0  0  0  0  0  0  0  0  0  0  0
   38.0620   25.6240   36.5850 C   0  0  0  0  0  0  0  0  0  0  0  0
   37.4970   25.3320   35.3950 N   0  0  0  0  0  0  0  0  0  0  0  0
   38.2510   28.4590   35.1870 H   0  0  0  0  0  0  0  0  0  0  0  0
   38.8680   27.3650   37.4160 H   0  0  0  0  0  0  0  0  0  0  0  0
   38.1780   24.5390   37.5840 C   0  0  0  0  0  0  0  0  0  0  0  0
   37.1310   23.6320   37.4020 F   0  0  0  0  0  0  0  0  0  0  0  0
   39.3330   23.8250   37.3720 F   0  0  0  0  0  0  0  0  0  0  0  0
   38.0670   24.9940   38.8690 F   0  0  0  0  0  0  0  0  0  0  0  0
  1  2  1  0  0  0  0
  2  8  1  0  0  0  0
  2  3  2  0  0  0  0
  3 20  1  0  0  0  0
  4  3  1  0  0  0  0
  5  4  2  0  0  0  0
  6  1  2  0  0  0  0
  6  5  1  0  0  0  0
  7  1  1  0  0  0  0
 10  9  1  0  0  0  0
 11  5  1  0  0  0  0
 11 10  2  0  0  0  0
 12 11  1  0  0  0  0
 13 12  2  0  0  0  0
 13 14  1  0  0  0  0
 14 16  2  0  0  0  0
 15 14  1  0  0  0  0
 16 19  1  0  0  0  0
 16 10  1  0  0  0  0
 17 12  1  0  0  0  0
 18 13  1  0  0  0  0
 20 21  2  0  0  0  0
 20 24  1  0  0  0  0
 21 22  1  0  0  0  0
 22 26  1  0  0  0  0
 23 22  1  0  0  0  0
 23 27  1  0  0  0  0
 24 23  2  0  0  0  0
 25 21  1  0  0  0  0
 27 30  1  0  0  0  0
 28 27  1  0  0  0  0
 29 27  1  0  0  0  0
M  END
>  <minimizedAffinity>
-5.54470539

$$$$
