
 OpenBabel03272510163D

 23 24  0  0  0  0  0  0  0  0999 V2000
   37.2940   29.3240   51.0210 Br  0  0  0  0  0  0  0  0  0  0  0  0
   35.9480   29.3320   49.6590 C   0  0  0  0  0  0  0  0  0  0  0  0
   35.9850   30.2650   48.6470 C   0  0  0  0  0  0  0  0  0  0  0  0
   34.9790   30.2220   47.6890 C   0  0  0  0  0  0  0  0  0  0  0  0
   33.9600   29.2810   47.7260 C   0  0  0  0  0  0  0  0  0  0  0  0
   33.9600   28.3710   48.7510 C   0  0  0  0  0  0  0  0  0  0  0  0
   34.9560   28.4040   49.7110 C   0  0  0  0  0  0  0  0  0  0  0  0
   34.9950   30.9500   46.8850 H   0  0  0  0  0  0  0  0  0  0  0  0
   33.1580   27.6550   48.7520 H   0  0  0  0  0  0  0  0  0  0  0  0
   34.8770   27.6470   50.4830 H   0  0  0  0  0  0  0  0  0  0  0  0
   37.9890   33.1910   49.4670 C   0  0  0  0  0  0  0  0  0  0  0  0
   39.0210   33.1840   48.4940 C   0  0  0  0  0  0  0  0  0  0  0  0
   39.0120   32.1580   47.5550 C   0  0  0  0  0  0  0  0  0  0  0  0
   38.0200   31.2200   47.6190 N   0  0  0  0  0  0  0  0  0  0  0  0
   37.0440   31.2680   48.5790 C   0  0  0  0  0  0  0  0  0  0  0  0
   37.0360   32.2500   49.4920 N   0  0  0  0  0  0  0  0  0  0  0  0
   37.9310   33.9590   50.2300 H   0  0  0  0  0  0  0  0  0  0  0  0
   39.7570   33.9500   48.5100 H   0  0  0  0  0  0  0  0  0  0  0  0
   39.7760   32.1070   46.7910 H   0  0  0  0  0  0  0  0  0  0  0  0
   32.9330   29.3250   46.6490 C   0  0  0  0  0  0  0  0  0  0  0  0
   33.4790   28.7400   45.5230 F   0  0  0  0  0  0  0  0  0  0  0  0
   31.7780   28.6960   47.0730 F   0  0  0  0  0  0  0  0  0  0  0  0
   32.5640   30.6230   46.3440 F   0  0  0  0  0  0  0  0  0  0  0  0
  2  7  1  0  0  0  0
  2  1  1  0  0  0  0
  3  2  2  0  0  0  0
  4  5  2  0  0  0  0
  4  3  1  0  0  0  0
  5  6  1  0  0  0  0
  6  9  1  0  0  0  0
  6  7  2  0  0  0  0
  7 10  1  0  0  0  0
  8  4  1  0  0  0  0
 11 16  1  0  0  0  0
 11 17  1  0  0  0  0
 12 18  1  0  0  0  0
 12 11  2  0  0  0  0
 13 14  2  0  0  0  0
 13 12  1  0  0  0  0
 14 15  1  0  0  0  0
 15  3  1  0  0  0  0
 15 16  2  0  0  0  0
 19 13  1  0  0  0  0
 20 22  1  0  0  0  0
 20  5  1  0  0  0  0
 21 20  1  0  0  0  0
 23 20  1  0  0  0  0
M  END
>  <minimizedAffinity>
-5.7795701

>  <minimizedRMSD>
0.217524335

$$$$
