
 OpenBabel03272509533D

 38 40  0  0  0  0  0  0  0  0999 V2000
   37.3120   30.1620   51.4800 C   0  0  0  0  0  0  0  0  0  0  0  0
   38.0520   30.8440   50.4940 C   0  0  0  0  0  0  0  0  0  0  0  0
   37.7070   30.6490   49.1750 C   0  0  0  0  0  0  0  0  0  0  0  0
   36.6580   29.7940   48.9360 N   0  0  0  0  0  0  0  0  0  0  0  0
   35.9760   29.1620   49.8870 C   0  0  0  0  0  0  0  0  0  0  0  0
   36.3030   29.3460   51.1750 N   0  0  0  0  0  0  0  0  0  0  0  0
   37.6070   30.3370   52.5060 H   0  0  0  0  0  0  0  0  0  0  0  0
   38.8550   31.4970   50.7030 H   0  0  0  0  0  0  0  0  0  0  0  0
   38.9260   33.2680   49.0000 F   0  0  0  0  0  0  0  0  0  0  0  0
   38.9180   32.4770   47.9340 C   0  0  0  0  0  0  0  0  0  0  0  0
   38.3440   31.2570   48.0340 C   0  0  0  0  0  0  0  0  0  0  0  0
   38.3990   30.5170   46.8470 C   0  0  0  0  0  0  0  0  0  0  0  0
   38.9780   30.9950   45.7070 C   0  0  0  0  0  0  0  0  0  0  0  0
   39.5450   32.2350   45.6550 C   0  0  0  0  0  0  0  0  0  0  0  0
   39.5080   32.9790   46.7960 C   0  0  0  0  0  0  0  0  0  0  0  0
   37.9600   29.5110   46.8220 H   0  0  0  0  0  0  0  0  0  0  0  0
   38.9780   30.3510   44.8170 H   0  0  0  0  0  0  0  0  0  0  0  0
   39.9920   32.5720   44.7300 H   0  0  0  0  0  0  0  0  0  0  0  0
   39.9540   33.9700   46.7770 H   0  0  0  0  0  0  0  0  0  0  0  0
   34.9800   28.3700   49.3880 O   0  0  0  0  0  0  0  0  0  0  0  0
   34.4240   28.6860   48.1200 C   0  0  0  0  0  0  0  0  0  0  0  0
   35.2100   28.9480   47.3800 H   0  0  0  0  0  0  0  0  0  0  0  0
   33.7810   29.5840   48.2440 H   0  0  0  0  0  0  0  0  0  0  0  0
   33.5330   27.5700   47.6460 C   0  0  0  0  0  0  0  0  0  0  0  0
   33.7900   27.3800   46.5840 H   0  0  0  0  0  0  0  0  0  0  0  0
   33.7390   26.6130   48.1760 H   0  0  0  0  0  0  0  0  0  0  0  0
   32.0960   27.8920   47.7750 C   0  0  0  0  0  0  0  0  0  0  0  0
   31.4400   27.4770   48.9330 C   0  0  0  0  0  0  0  0  0  0  0  0
   30.1120   27.7290   49.1430 C   0  0  0  0  0  0  0  0  0  0  0  0
   29.4200   28.3850   48.2220 N   0  0  0  0  0  0  0  0  0  0  0  0
   30.0610   28.7930   47.0840 C   0  0  0  0  0  0  0  0  0  0  0  0
   31.3790   28.5630   46.8390 N   0  0  0  0  0  0  0  0  0  0  0  0
   32.0030   26.9370   49.6950 H   0  0  0  0  0  0  0  0  0  0  0  0
   29.6320   27.3940   50.0520 H   0  0  0  0  0  0  0  0  0  0  0  0
   29.3700   29.5400   45.9870 C   0  0  0  0  0  0  0  0  0  0  0  0
   28.2410   30.1710   46.5250 F   0  0  0  0  0  0  0  0  0  0  0  0
   29.0030   28.7270   44.9480 F   0  0  0  0  0  0  0  0  0  0  0  0
   30.1640   30.5620   45.5150 F   0  0  0  0  0  0  0  0  0  0  0  0
  1  7  1  0  0  0  0
  2  8  1  0  0  0  0
  2  1  2  0  0  0  0
  3  2  1  0  0  0  0
  4  3  2  0  0  0  0
  4  5  1  0  0  0  0
  5  6  2  0  0  0  0
  6  1  1  0  0  0  0
 10 11  1  0  0  0  0
 10  9  1  0  0  0  0
 11  3  1  0  0  0  0
 12 11  2  0  0  0  0
 13 12  1  0  0  0  0
 14 13  2  0  0  0  0
 14 15  1  0  0  0  0
 15 10  2  0  0  0  0
 16 12  1  0  0  0  0
 17 13  1  0  0  0  0
 18 14  1  0  0  0  0
 19 15  1  0  0  0  0
 20  5  1  0  0  0  0
 21 23  1  0  0  0  0
 21 20  1  0  0  0  0
 22 21  1  0  0  0  0
 24 27  1  0  0  0  0
 24 21  1  0  0  0  0
 24 26  1  0  0  0  0
 25 24  1  0  0  0  0
 27 28  1  0  0  0  0
 28 29  2  0  0  0  0
 28 33  1  0  0  0  0
 29 34  1  0  0  0  0
 30 29  1  0  0  0  0
 31 30  2  0  0  0  0
 32 31  1  0  0  0  0
 32 27  2  0  0  0  0
 35 36  1  0  0  0  0
 35 31  1  0  0  0  0
 37 35  1  0  0  0  0
 38 35  1  0  0  0  0
M  END
>  <minimizedAffinity>
-6.39053011

>  <minimizedRMSD>
0.231912494

$$$$
