
 OpenBabel03272510083D

 39 42  0  0  0  0  0  0  0  0999 V2000
   36.0080   28.8710   49.1600 C   0  0  0  0  0  0  0  0  0  0  0  0
   35.9030   30.2740   48.7900 C   0  0  0  0  0  0  0  0  0  0  0  0
   34.6300   30.7860   48.4350 C   0  0  0  0  0  0  0  0  0  0  0  0
   33.5850   29.9420   48.4360 N   0  0  0  0  0  0  0  0  0  0  0  0
   33.7110   28.6420   48.7690 C   0  0  0  0  0  0  0  0  0  0  0  0
   34.9020   28.1120   49.1310 N   0  0  0  0  0  0  0  0  0  0  0  0
   32.5470   27.7920   48.6740 N   0  0  0  0  0  0  0  0  0  0  0  0
   31.3520   28.0040   49.4230 C   0  0  0  0  0  0  0  0  0  0  0  0
   30.3450   27.0750   48.8070 C   0  0  0  0  0  0  0  0  0  0  0  0
   30.9810   26.5130   47.5470 C   0  0  0  0  0  0  0  0  0  0  0  0
   32.4250   26.6100   47.8010 C   0  0  0  0  0  0  0  0  0  0  0  0
   37.0000   28.5530   49.4340 H   0  0  0  0  0  0  0  0  0  0  0  0
   34.4850   31.8010   48.1740 H   0  0  0  0  0  0  0  0  0  0  0  0
   31.0180   29.0780   49.3680 H   0  0  0  0  0  0  0  0  0  0  0  0
   31.5060   27.7380   50.4710 H   0  0  0  0  0  0  0  0  0  0  0  0
   30.0930   26.2350   49.4810 H   0  0  0  0  0  0  0  0  0  0  0  0
   29.3940   27.5960   48.5360 H   0  0  0  0  0  0  0  0  0  0  0  0
   30.6460   25.4740   47.3570 H   0  0  0  0  0  0  0  0  0  0  0  0
   30.6870   27.1070   46.6650 H   0  0  0  0  0  0  0  0  0  0  0  0
   32.9630   26.8270   46.8620 H   0  0  0  0  0  0  0  0  0  0  0  0
   32.9000   25.7190   48.2700 H   0  0  0  0  0  0  0  0  0  0  0  0
   36.9530   31.2130   48.7550 C   0  0  0  0  0  0  0  0  0  0  0  0
   37.1950   31.8090   49.9320 N   0  0  0  0  0  0  0  0  0  0  0  0
   38.1410   32.7600   50.0140 C   0  0  0  0  0  0  0  0  0  0  0  0
   38.8970   33.1770   48.9600 N   0  0  0  0  0  0  0  0  0  0  0  0
   38.6670   32.5840   47.7680 C   0  0  0  0  0  0  0  0  0  0  0  0
   39.3970   32.8980   46.6420 C   0  0  0  0  0  0  0  0  0  0  0  0
   39.1830   32.2630   45.4530 C   0  0  0  0  0  0  0  0  0  0  0  0
   38.2070   31.3000   45.4270 C   0  0  0  0  0  0  0  0  0  0  0  0
   37.4450   30.9460   46.5080 C   0  0  0  0  0  0  0  0  0  0  0  0
   37.6980   31.6060   47.6740 C   0  0  0  0  0  0  0  0  0  0  0  0
   38.3980   33.2920   50.9240 H   0  0  0  0  0  0  0  0  0  0  0  0
   40.1310   33.6750   46.8020 H   0  0  0  0  0  0  0  0  0  0  0  0
   39.7990   32.5780   44.6440 H   0  0  0  0  0  0  0  0  0  0  0  0
   38.1610   30.8900   44.4000 H   0  0  0  0  0  0  0  0  0  0  0  0
   36.5010   29.9100   46.1710 C   0  0  0  0  0  0  0  0  0  0  0  0
   36.1000   29.5630   44.9720 F   0  0  0  0  0  0  0  0  0  0  0  0
   36.1320   29.1090   47.2760 F   0  0  0  0  0  0  0  0  0  0  0  0
   35.1650   30.4620   46.2930 F   0  0  0  0  0  0  0  0  0  0  0  0
  1 12  1  0  0  0  0
  2  1  2  0  0  0  0
  3  4  2  0  0  0  0
  3  2  1  0  0  0  0
  4  5  1  0  0  0  0
  5  6  2  0  0  0  0
  6  1  1  0  0  0  0
  7  5  1  0  0  0  0
  7  8  1  0  0  0  0
  8 15  1  0  0  0  0
  9  8  1  0  0  0  0
  9 16  1  0  0  0  0
 10 11  1  0  0  0  0
 10  9  1  0  0  0  0
 11 21  1  0  0  0  0
 11  7  1  0  0  0  0
 13  3  1  0  0  0  0
 14  8  1  0  0  0  0
 17  9  1  0  0  0  0
 18 10  1  0  0  0  0
 19 10  1  0  0  0  0
 20 11  1  0  0  0  0
 22  2  1  0  0  0  0
 22 23  1  0  0  0  0
 23 24  2  0  0  0  0
 24 32  1  0  0  0  0
 25 24  1  0  0  0  0
 26 25  2  0  0  0  0
 27 33  1  0  0  0  0
 27 26  1  0  0  0  0
 28 27  2  0  0  0  0
 29 28  1  0  0  0  0
 29 30  2  0  0  0  0
 30 31  1  0  0  0  0
 31 26  1  0  0  0  0
 31 22  2  0  0  0  0
 34 28  1  0  0  0  0
 35 29  1  0  0  0  0
 36 39  1  0  0  0  0
 36 30  1  0  0  0  0
 36 38  1  0  0  0  0
 37 36  1  0  0  0  0
M  END
>  <minimizedAffinity>
-4.91276693

>  <minimizedRMSD>
0.749931157

$$$$
