
 OpenBabel03272509503D

 28 29  0  0  0  0  0  0  0  0999 V2000
   34.0520   28.6040   48.5130 C   0  0  0  0  0  0  0  0  0  0  0  0
   33.3870   29.3880   48.9800 H   0  0  0  0  0  0  0  0  0  0  0  0
   34.5630   29.0910   47.6770 H   0  0  0  0  0  0  0  0  0  0  0  0
   33.1610   27.4590   48.1170 C   0  0  0  0  0  0  0  0  0  0  0  0
   33.3020   26.6180   48.8450 H   0  0  0  0  0  0  0  0  0  0  0  0
   33.5090   27.0260   47.1370 H   0  0  0  0  0  0  0  0  0  0  0  0
   31.7280   27.8340   48.0940 C   0  0  0  0  0  0  0  0  0  0  0  0
   30.9930   27.5830   49.2290 C   0  0  0  0  0  0  0  0  0  0  0  0
   29.6580   27.8840   49.3320 C   0  0  0  0  0  0  0  0  0  0  0  0
   29.0330   28.4460   48.2900 N   0  0  0  0  0  0  0  0  0  0  0  0
   29.7550   28.6910   47.1770 C   0  0  0  0  0  0  0  0  0  0  0  0
   31.0640   28.4020   47.0620 N   0  0  0  0  0  0  0  0  0  0  0  0
   31.4460   27.1270   50.1140 H   0  0  0  0  0  0  0  0  0  0  0  0
   29.0620   27.6880   50.2360 H   0  0  0  0  0  0  0  0  0  0  0  0
   29.2870   29.1420   46.3150 H   0  0  0  0  0  0  0  0  0  0  0  0
   34.9420   28.1930   49.5370 O   0  0  0  0  0  0  0  0  0  0  0  0
   37.3120   30.2190   51.3780 C   0  0  0  0  0  0  0  0  0  0  0  0
   37.9710   30.8620   50.3220 C   0  0  0  0  0  0  0  0  0  0  0  0
   37.5480   30.5510   49.0300 C   0  0  0  0  0  0  0  0  0  0  0  0
   36.5340   29.6520   48.8800 N   0  0  0  0  0  0  0  0  0  0  0  0
   35.9330   29.0600   49.9180 C   0  0  0  0  0  0  0  0  0  0  0  0
   36.3300   29.3510   51.1680 N   0  0  0  0  0  0  0  0  0  0  0  0
   37.6640   30.4820   52.3700 H   0  0  0  0  0  0  0  0  0  0  0  0
   38.7730   31.5720   50.4730 H   0  0  0  0  0  0  0  0  0  0  0  0
   38.1910   31.1890   47.8280 C   0  0  0  0  0  0  0  0  0  0  0  0
   38.6510   30.1210   47.0470 F   0  0  0  0  0  0  0  0  0  0  0  0
   37.2510   31.9420   47.1330 F   0  0  0  0  0  0  0  0  0  0  0  0
   39.2080   31.9810   48.2730 F   0  0  0  0  0  0  0  0  0  0  0  0
  1  2  1  0  0  0  0
  1 16  1  0  0  0  0
  3  1  1  0  0  0  0
  4  1  1  0  0  0  0
  4  5  1  0  0  0  0
  6  4  1  0  0  0  0
  7  4  1  0  0  0  0
  7  8  1  0  0  0  0
  8  9  2  0  0  0  0
  8 13  1  0  0  0  0
  9 14  1  0  0  0  0
 10  9  1  0  0  0  0
 11 10  2  0  0  0  0
 12 11  1  0  0  0  0
 12  7  2  0  0  0  0
 15 11  1  0  0  0  0
 16 21  1  0  0  0  0
 17 23  1  0  0  0  0
 18 24  1  0  0  0  0
 18 17  2  0  0  0  0
 19 18  1  0  0  0  0
 20 19  2  0  0  0  0
 20 21  1  0  0  0  0
 21 22  2  0  0  0  0
 22 17  1  0  0  0  0
 25 28  1  0  0  0  0
 25 19  1  0  0  0  0
 26 25  1  0  0  0  0
 27 25  1  0  0  0  0
M  END
>  <minimizedAffinity>
-5.17371655

>  <minimizedRMSD>
0.48912257

$$$$
