
 OpenBabel03272510333D

 23 24  0  0  0  0  0  0  0  0999 V2000
   36.2660   30.4220   48.8270 C   0  0  0  0  0  0  0  0  0  0  0  0
   35.2290   30.3590   47.9120 C   0  0  0  0  0  0  0  0  0  0  0  0
   34.2250   29.4190   48.0360 C   0  0  0  0  0  0  0  0  0  0  0  0
   34.2900   28.5380   49.1080 C   0  0  0  0  0  0  0  0  0  0  0  0
   35.3140   28.5860   50.0290 C   0  0  0  0  0  0  0  0  0  0  0  0
   36.3220   29.5450   49.8870 C   0  0  0  0  0  0  0  0  0  0  0  0
   35.1870   31.0500   47.0790 H   0  0  0  0  0  0  0  0  0  0  0  0
   33.4060   29.3340   47.3540 H   0  0  0  0  0  0  0  0  0  0  0  0
   33.5370   27.7760   49.2650 H   0  0  0  0  0  0  0  0  0  0  0  0
   35.3360   27.8880   50.8510 H   0  0  0  0  0  0  0  0  0  0  0  0
   38.1890   33.4710   49.2930 C   0  0  0  0  0  0  0  0  0  0  0  0
   39.1390   33.4590   48.2740 C   0  0  0  0  0  0  0  0  0  0  0  0
   39.1070   32.3570   47.4040 C   0  0  0  0  0  0  0  0  0  0  0  0
   38.1760   31.3860   47.5950 N   0  0  0  0  0  0  0  0  0  0  0  0
   37.2700   31.4430   48.6050 C   0  0  0  0  0  0  0  0  0  0  0  0
   37.2990   32.4930   49.4360 N   0  0  0  0  0  0  0  0  0  0  0  0
   38.1690   34.3040   49.9980 H   0  0  0  0  0  0  0  0  0  0  0  0
   39.8640   34.2470   48.1490 H   0  0  0  0  0  0  0  0  0  0  0  0
   39.8230   32.2840   46.5820 H   0  0  0  0  0  0  0  0  0  0  0  0
   37.4050   29.5840   50.8820 C   0  0  0  0  0  0  0  0  0  0  0  0
   37.1940   30.5340   51.8470 F   0  0  0  0  0  0  0  0  0  0  0  0
   37.6100   28.3130   51.3720 F   0  0  0  0  0  0  0  0  0  0  0  0
   38.6160   29.9580   50.2740 F   0  0  0  0  0  0  0  0  0  0  0  0
  1  6  1  0  0  0  0
  2  3  1  0  0  0  0
  2  1  2  0  0  0  0
  3  4  2  0  0  0  0
  4  9  1  0  0  0  0
  4  5  1  0  0  0  0
  5 10  1  0  0  0  0
  6  5  2  0  0  0  0
  6 20  1  0  0  0  0
  7  2  1  0  0  0  0
  8  3  1  0  0  0  0
 11 16  1  0  0  0  0
 11 17  1  0  0  0  0
 12 11  2  0  0  0  0
 13 14  2  0  0  0  0
 13 12  1  0  0  0  0
 14 15  1  0  0  0  0
 15  1  1  0  0  0  0
 15 16  2  0  0  0  0
 18 12  1  0  0  0  0
 19 13  1  0  0  0  0
 20 22  1  0  0  0  0
 20 21  1  0  0  0  0
 23 20  1  0  0  0  0
M  END
>  <minimizedAffinity>
-6.01497698

>  <minimizedRMSD>
0.570975542

$$$$
