
 OpenBabel03272510333D

 23 24  0  0  0  0  0  0  0  0999 V2000
   36.2580   30.4090   48.7460 C   0  0  0  0  0  0  0  0  0  0  0  0
   35.2190   30.3600   47.8320 C   0  0  0  0  0  0  0  0  0  0  0  0
   34.2150   29.4190   47.9440 C   0  0  0  0  0  0  0  0  0  0  0  0
   34.2800   28.5230   49.0040 C   0  0  0  0  0  0  0  0  0  0  0  0
   35.3060   28.5580   49.9230 C   0  0  0  0  0  0  0  0  0  0  0  0
   36.3140   29.5180   49.7940 C   0  0  0  0  0  0  0  0  0  0  0  0
   35.1760   31.0620   47.0080 H   0  0  0  0  0  0  0  0  0  0  0  0
   33.3940   29.3440   47.2620 H   0  0  0  0  0  0  0  0  0  0  0  0
   33.5260   27.7600   49.1510 H   0  0  0  0  0  0  0  0  0  0  0  0
   35.3280   27.8480   50.7360 H   0  0  0  0  0  0  0  0  0  0  0  0
   38.2030   33.4350   49.2690 C   0  0  0  0  0  0  0  0  0  0  0  0
   39.1340   33.4490   48.2330 C   0  0  0  0  0  0  0  0  0  0  0  0
   39.0810   32.3750   47.3300 C   0  0  0  0  0  0  0  0  0  0  0  0
   38.1500   31.4030   47.5080 N   0  0  0  0  0  0  0  0  0  0  0  0
   37.2620   31.4320   48.5360 C   0  0  0  0  0  0  0  0  0  0  0  0
   37.3110   32.4570   49.3990 N   0  0  0  0  0  0  0  0  0  0  0  0
   38.2000   34.2460   49.9990 H   0  0  0  0  0  0  0  0  0  0  0  0
   39.8600   34.2380   48.1180 H   0  0  0  0  0  0  0  0  0  0  0  0
   39.7820   32.3240   46.4930 H   0  0  0  0  0  0  0  0  0  0  0  0
   37.3980   29.5410   50.7870 C   0  0  0  0  0  0  0  0  0  0  0  0
   38.6260   29.7580   50.2160 F   0  0  0  0  0  0  0  0  0  0  0  0
   37.0730   30.4300   51.7880 F   0  0  0  0  0  0  0  0  0  0  0  0
   37.5160   28.2880   51.4150 F   0  0  0  0  0  0  0  0  0  0  0  0
  1  6  1  0  0  0  0
  2  3  1  0  0  0  0
  2  1  2  0  0  0  0
  3  4  2  0  0  0  0
  4  9  1  0  0  0  0
  4  5  1  0  0  0  0
  5 10  1  0  0  0  0
  6  5  2  0  0  0  0
  6 20  1  0  0  0  0
  7  2  1  0  0  0  0
  8  3  1  0  0  0  0
 11 16  1  0  0  0  0
 11 17  1  0  0  0  0
 12 11  2  0  0  0  0
 13 14  2  0  0  0  0
 13 12  1  0  0  0  0
 14 15  1  0  0  0  0
 15  1  1  0  0  0  0
 15 16  2  0  0  0  0
 18 12  1  0  0  0  0
 19 13  1  0  0  0  0
 20 23  1  0  0  0  0
 20 22  1  0  0  0  0
 21 20  1  0  0  0  0
M  END
>  <minimizedAffinity>
-5.90302753

>  <minimizedRMSD>
0.557289362

$$$$
