
 OpenBabel03272508253D

 20 21  0  0  1  0  0  0  0  0999 V2000
   36.7650   31.2880   50.1170 C   0  0  1  0  0  0  0  0  0  0  0  0
   36.4340   29.8700   50.0360 C   0  0  1  0  0  0  0  0  0  0  0  0
   37.4210   30.3040   51.0780 C   0  0  0  0  0  0  0  0  0  0  0  0
   36.0120   31.9780   50.5940 H   0  0  0  0  0  0  0  0  0  0  0  0
   36.9320   29.3100   49.1910 H   0  0  0  0  0  0  0  0  0  0  0  0
   38.4930   30.0990   50.9580 H   0  0  0  0  0  0  0  0  0  0  0  0
   37.0860   30.3490   52.1400 H   0  0  0  0  0  0  0  0  0  0  0  0
   37.7640   31.9170   49.1740 C   0  0  0  0  0  0  0  0  0  0  0  0
   38.2850   33.1760   49.5180 C   0  0  0  0  0  0  0  0  0  0  0  0
   39.1790   33.7080   48.6060 C   0  0  0  0  0  0  0  0  0  0  0  0
   39.5130   33.0350   47.4610 N   0  0  0  0  0  0  0  0  0  0  0  0
   38.9830   31.8260   47.1780 C   0  0  0  0  0  0  0  0  0  0  0  0
   38.0950   31.2650   48.0520 N   0  0  0  0  0  0  0  0  0  0  0  0
   38.0130   33.6970   50.4230 H   0  0  0  0  0  0  0  0  0  0  0  0
   39.6430   34.6750   48.7710 H   0  0  0  0  0  0  0  0  0  0  0  0
   39.2140   31.2580   46.2890 H   0  0  0  0  0  0  0  0  0  0  0  0
   35.1150   29.3140   50.4490 C   0  0  0  0  0  0  0  0  0  0  0  0
   34.8790   28.1240   49.7670 F   0  0  0  0  0  0  0  0  0  0  0  0
   35.0630   29.1070   51.8260 F   0  0  0  0  0  0  0  0  0  0  0  0
   34.1150   30.1920   50.0960 F   0  0  0  0  0  0  0  0  0  0  0  0
  1  4  1  1  0  0  0
  1  3  1  0  0  0  0
  2  5  1  6  0  0  0
  2  1  1  0  0  0  0
  2 17  1  0  0  0  0
  2  3  1  0  0  0  0
  3  7  1  0  0  0  0
  6  3  1  0  0  0  0
  8  9  1  0  0  0  0
  8  1  1  0  0  0  0
  9 14  1  0  0  0  0
 10 15  1  0  0  0  0
 10  9  2  0  0  0  0
 11 10  1  0  0  0  0
 12 11  2  0  0  0  0
 12 13  1  0  0  0  0
 13  8  2  0  0  0  0
 16 12  1  0  0  0  0
 17 19  1  0  0  0  0
 18 17  1  0  0  0  0
 20 17  1  0  0  0  0
M  END
>  <minimizedAffinity>
-5.43234348

>  <minimizedRMSD>
1.19852686

$$$$
