
 OpenBabel03272510083D

 39 42  0  0  0  0  0  0  0  0999 V2000
   36.0120   28.8730   49.1590 C   0  0  0  0  0  0  0  0  0  0  0  0
   35.9070   30.2760   48.7900 C   0  0  0  0  0  0  0  0  0  0  0  0
   34.6330   30.7880   48.4350 C   0  0  0  0  0  0  0  0  0  0  0  0
   33.5890   29.9440   48.4350 N   0  0  0  0  0  0  0  0  0  0  0  0
   33.7160   28.6440   48.7680 C   0  0  0  0  0  0  0  0  0  0  0  0
   34.9060   28.1140   49.1300 N   0  0  0  0  0  0  0  0  0  0  0  0
   32.5510   27.7930   48.6730 N   0  0  0  0  0  0  0  0  0  0  0  0
   31.3560   28.0040   49.4220 C   0  0  0  0  0  0  0  0  0  0  0  0
   30.3500   27.0760   48.8050 C   0  0  0  0  0  0  0  0  0  0  0  0
   30.9860   26.5140   47.5460 C   0  0  0  0  0  0  0  0  0  0  0  0
   32.4300   26.6110   47.7990 C   0  0  0  0  0  0  0  0  0  0  0  0
   37.0050   28.5560   49.4330 H   0  0  0  0  0  0  0  0  0  0  0  0
   34.4880   31.8030   48.1740 H   0  0  0  0  0  0  0  0  0  0  0  0
   31.0220   29.0780   49.3670 H   0  0  0  0  0  0  0  0  0  0  0  0
   31.5100   27.7390   50.4700 H   0  0  0  0  0  0  0  0  0  0  0  0
   30.0980   26.2350   49.4790 H   0  0  0  0  0  0  0  0  0  0  0  0
   29.3990   27.5960   48.5340 H   0  0  0  0  0  0  0  0  0  0  0  0
   30.6520   25.4740   47.3550 H   0  0  0  0  0  0  0  0  0  0  0  0
   30.6930   27.1080   46.6630 H   0  0  0  0  0  0  0  0  0  0  0  0
   32.9680   26.8290   46.8610 H   0  0  0  0  0  0  0  0  0  0  0  0
   32.9060   25.7200   48.2690 H   0  0  0  0  0  0  0  0  0  0  0  0
   36.9570   31.2160   48.7550 C   0  0  0  0  0  0  0  0  0  0  0  0
   37.1970   31.8120   49.9310 N   0  0  0  0  0  0  0  0  0  0  0  0
   38.1430   32.7640   50.0140 C   0  0  0  0  0  0  0  0  0  0  0  0
   38.8990   33.1810   48.9600 N   0  0  0  0  0  0  0  0  0  0  0  0
   38.6710   32.5870   47.7680 C   0  0  0  0  0  0  0  0  0  0  0  0
   39.4020   32.9010   46.6430 C   0  0  0  0  0  0  0  0  0  0  0  0
   39.1880   32.2650   45.4540 C   0  0  0  0  0  0  0  0  0  0  0  0
   38.2130   31.3010   45.4280 C   0  0  0  0  0  0  0  0  0  0  0  0
   37.4510   30.9480   46.5080 C   0  0  0  0  0  0  0  0  0  0  0  0
   37.7020   31.6090   47.6740 C   0  0  0  0  0  0  0  0  0  0  0  0
   38.3990   33.2970   50.9240 H   0  0  0  0  0  0  0  0  0  0  0  0
   40.1350   33.6780   46.8030 H   0  0  0  0  0  0  0  0  0  0  0  0
   39.8050   32.5800   44.6450 H   0  0  0  0  0  0  0  0  0  0  0  0
   38.1680   30.8910   44.4010 H   0  0  0  0  0  0  0  0  0  0  0  0
   36.5070   29.9110   46.1720 C   0  0  0  0  0  0  0  0  0  0  0  0
   36.1060   29.5630   44.9730 F   0  0  0  0  0  0  0  0  0  0  0  0
   36.1390   29.1110   47.2770 F   0  0  0  0  0  0  0  0  0  0  0  0
   35.1700   30.4610   46.2920 F   0  0  0  0  0  0  0  0  0  0  0  0
  1 12  1  0  0  0  0
  2  1  2  0  0  0  0
  3  4  2  0  0  0  0
  3  2  1  0  0  0  0
  4  5  1  0  0  0  0
  5  6  2  0  0  0  0
  6  1  1  0  0  0  0
  7  5  1  0  0  0  0
  7  8  1  0  0  0  0
  8 15  1  0  0  0  0
  9  8  1  0  0  0  0
  9 16  1  0  0  0  0
 10 11  1  0  0  0  0
 10  9  1  0  0  0  0
 11 21  1  0  0  0  0
 11  7  1  0  0  0  0
 13  3  1  0  0  0  0
 14  8  1  0  0  0  0
 17  9  1  0  0  0  0
 18 10  1  0  0  0  0
 19 10  1  0  0  0  0
 20 11  1  0  0  0  0
 22  2  1  0  0  0  0
 22 23  1  0  0  0  0
 23 24  2  0  0  0  0
 24 32  1  0  0  0  0
 25 24  1  0  0  0  0
 26 25  2  0  0  0  0
 27 33  1  0  0  0  0
 27 26  1  0  0  0  0
 28 27  2  0  0  0  0
 29 28  1  0  0  0  0
 29 30  2  0  0  0  0
 30 31  1  0  0  0  0
 31 26  1  0  0  0  0
 31 22  2  0  0  0  0
 34 28  1  0  0  0  0
 35 29  1  0  0  0  0
 36 39  1  0  0  0  0
 36 30  1  0  0  0  0
 36 38  1  0  0  0  0
 37 36  1  0  0  0  0
M  END
>  <minimizedAffinity>
-4.91169405

>  <minimizedRMSD>
0.791721106

$$$$
