
 OpenBabel03272510233D

 26 28  0  0  0  0  0  0  0  0999 V2000
   35.8520   30.1380   46.7940 C   0  0  0  0  0  0  0  0  0  0  0  0
   36.4640   30.5690   47.9470 C   0  0  0  0  0  0  0  0  0  0  0  0
   37.5410   31.4250   47.8880 C   0  0  0  0  0  0  0  0  0  0  0  0
   37.9720   31.8240   46.6370 C   0  0  0  0  0  0  0  0  0  0  0  0
   39.0100   32.6600   46.3270 N   0  0  0  0  0  0  0  0  0  0  0  0
   39.0530   32.7560   44.9910 C   0  0  0  0  0  0  0  0  0  0  0  0
   38.0810   32.0110   44.4330 N   0  0  0  0  0  0  0  0  0  0  0  0
   37.3900   31.4180   45.4410 C   0  0  0  0  0  0  0  0  0  0  0  0
   36.3110   30.5590   45.5380 C   0  0  0  0  0  0  0  0  0  0  0  0
   35.0070   29.4690   46.7670 H   0  0  0  0  0  0  0  0  0  0  0  0
   38.0150   31.7590   48.7900 H   0  0  0  0  0  0  0  0  0  0  0  0
   39.6590   33.1430   47.0070 H   0  0  0  0  0  0  0  0  0  0  0  0
   35.8320   30.2220   44.6130 H   0  0  0  0  0  0  0  0  0  0  0  0
   36.0570   29.3650   51.4960 C   0  0  0  0  0  0  0  0  0  0  0  0
   36.6620   29.8400   50.3380 C   0  0  0  0  0  0  0  0  0  0  0  0
   35.9090   30.0720   49.2020 C   0  0  0  0  0  0  0  0  0  0  0  0
   34.5670   29.8230   49.2530 N   0  0  0  0  0  0  0  0  0  0  0  0
   34.0020   29.3550   50.4100 C   0  0  0  0  0  0  0  0  0  0  0  0
   34.7310   29.1320   51.5010 N   0  0  0  0  0  0  0  0  0  0  0  0
   36.6710   29.1970   52.3570 H   0  0  0  0  0  0  0  0  0  0  0  0
   37.7090   30.0300   50.3160 H   0  0  0  0  0  0  0  0  0  0  0  0
   32.9310   29.1910   50.3360 H   0  0  0  0  0  0  0  0  0  0  0  0
   40.0650   33.5910   44.2770 C   0  0  0  0  0  0  0  0  0  0  0  0
   40.1230   34.8780   44.7230 F   0  0  0  0  0  0  0  0  0  0  0  0
   39.7730   33.5950   42.9160 F   0  0  0  0  0  0  0  0  0  0  0  0
   41.3270   33.0350   44.3870 F   0  0  0  0  0  0  0  0  0  0  0  0
  1  2  1  0  0  0  0
  2 16  1  0  0  0  0
  3  2  2  0  0  0  0
  3 11  1  0  0  0  0
  4  3  1  0  0  0  0
  5  4  1  0  0  0  0
  5 12  1  0  0  0  0
  6  5  1  0  0  0  0
  7  6  2  0  0  0  0
  7  8  1  0  0  0  0
  8  9  1  0  0  0  0
  8  4  2  0  0  0  0
  9  1  2  0  0  0  0
 10  1  1  0  0  0  0
 13  9  1  0  0  0  0
 14 19  1  0  0  0  0
 14 20  1  0  0  0  0
 15 14  2  0  0  0  0
 16 17  2  0  0  0  0
 16 15  1  0  0  0  0
 17 18  1  0  0  0  0
 18 19  2  0  0  0  0
 21 15  1  0  0  0  0
 22 18  1  0  0  0  0
 23 26  1  0  0  0  0
 23 24  1  0  0  0  0
 23  6  1  0  0  0  0
 25 23  1  0  0  0  0
M  END
>  <minimizedAffinity>
-5.11184931

>  <minimizedRMSD>
1.37600315

$$$$
