
 OpenBabel03272507543D

 18 18  0  0  0  0  0  0  0  0999 V2000
   35.1230   29.3210   50.4110 C   0  0  0  0  0  0  0  0  0  0  0  0
   36.1270   30.1010   49.7700 C   0  0  0  0  0  0  0  0  0  0  0  0
   36.0910   30.2200   48.3840 C   0  0  0  0  0  0  0  0  0  0  0  0
   35.0650   29.5600   47.7330 N   0  0  0  0  0  0  0  0  0  0  0  0
   34.1370   28.8350   48.3760 C   0  0  0  0  0  0  0  0  0  0  0  0
   34.1570   28.7090   49.7110 N   0  0  0  0  0  0  0  0  0  0  0  0
   33.2130   28.2830   47.4320 N   0  0  0  0  0  0  0  0  0  0  0  0
   35.1210   29.2080   51.4870 H   0  0  0  0  0  0  0  0  0  0  0  0
   32.9700   27.2480   47.4770 H   0  0  0  0  0  0  0  0  0  0  0  0
   32.7580   28.8560   46.6870 H   0  0  0  0  0  0  0  0  0  0  0  0
   37.1720   30.7550   50.6050 C   0  0  0  0  0  0  0  0  0  0  0  0
   38.4500   30.4790   50.1490 F   0  0  0  0  0  0  0  0  0  0  0  0
   36.9680   32.1060   50.5720 F   0  0  0  0  0  0  0  0  0  0  0  0
   37.1080   30.3570   51.9290 F   0  0  0  0  0  0  0  0  0  0  0  0
   37.1100   31.0200   47.6690 C   0  0  0  0  0  0  0  0  0  0  0  0
   37.4110   32.2160   48.3030 F   0  0  0  0  0  0  0  0  0  0  0  0
   38.3060   30.2850   47.7840 F   0  0  0  0  0  0  0  0  0  0  0  0
   36.9080   31.1330   46.3250 F   0  0  0  0  0  0  0  0  0  0  0  0
  1  8  1  0  0  0  0
  2  1  1  0  0  0  0
  2 11  1  0  0  0  0
  3  2  2  0  0  0  0
  4  5  2  0  0  0  0
  4  3  1  0  0  0  0
  5  6  1  0  0  0  0
  6  1  2  0  0  0  0
  7  9  1  0  0  0  0
  7  5  1  0  0  0  0
 10  7  1  0  0  0  0
 11 14  1  0  0  0  0
 12 11  1  0  0  0  0
 13 11  1  0  0  0  0
 15 17  1  0  0  0  0
 15 16  1  0  0  0  0
 15  3  1  0  0  0  0
 18 15  1  0  0  0  0
M  END
>  <minimizedAffinity>
-5.32405758

>  <minimizedRMSD>
0.854516804

$$$$
