
 OpenBabel03272505163D

 37 39  0  0  1  0  0  0  0  0999 V2000
   38.3910   31.1390   47.5260 Cl  0  0  0  0  0  0  0  0  0  0  0  0
   37.0730   30.7350   46.4610 C   0  0  0  0  0  0  0  0  0  0  0  0
   35.9570   30.1660   46.9690 C   0  0  0  0  0  0  0  0  0  0  0  0
   34.9370   29.8960   46.0570 C   0  0  0  0  0  0  0  0  0  0  0  0
   35.0060   30.1650   44.7220 C   0  0  0  0  0  0  0  0  0  0  0  0
   36.1570   30.7430   44.2430 C   0  0  0  0  0  0  0  0  0  0  0  0
   37.2010   31.0330   45.1040 C   0  0  0  0  0  0  0  0  0  0  0  0
   34.0270   29.4390   46.4380 H   0  0  0  0  0  0  0  0  0  0  0  0
   34.1780   29.9310   44.0650 H   0  0  0  0  0  0  0  0  0  0  0  0
   36.2050   30.9530   43.1880 H   0  0  0  0  0  0  0  0  0  0  0  0
   38.4060   31.6240   44.6040 N   0  0  0  0  0  0  0  0  0  0  0  0
   38.7700   33.0130   44.7050 C   0  0  0  0  0  0  0  0  0  0  0  0
   40.0280   33.1990   43.8570 C   0  0  0  0  0  0  0  0  0  0  0  0
   39.6670   32.7200   42.5530 N   0  0  0  0  0  0  0  0  0  0  0  0
   39.5280   31.3000   42.5260 C   0  0  0  0  0  0  0  0  0  0  0  0
   39.3600   30.7520   43.9330 C   0  0  2  0  0  0  0  0  0  0  0  0
   37.9800   33.6950   44.3360 H   0  0  0  0  0  0  0  0  0  0  0  0
   39.0600   33.2260   45.7410 H   0  0  0  0  0  0  0  0  0  0  0  0
   40.8960   32.7180   44.3180 H   0  0  0  0  0  0  0  0  0  0  0  0
   40.2510   34.2820   43.8260 H   0  0  0  0  0  0  0  0  0  0  0  0
   40.2700   33.0730   41.7780 H   0  0  0  0  0  0  0  0  0  0  0  0
   38.6130   31.0460   41.9500 H   0  0  0  0  0  0  0  0  0  0  0  0
   40.4320   30.8580   42.0590 H   0  0  0  0  0  0  0  0  0  0  0  0
   40.3210   30.7640   44.4650 H   0  0  0  0  0  0  0  0  0  0  0  0
   38.9190   29.3450   43.7690 C   0  0  0  0  0  0  0  0  0  0  0  0
   38.8820   28.8010   45.0620 F   0  0  0  0  0  0  0  0  0  0  0  0
   37.7170   29.1220   43.2040 F   0  0  0  0  0  0  0  0  0  0  0  0
   39.8650   28.5650   43.0940 F   0  0  0  0  0  0  0  0  0  0  0  0
   36.8910   29.3130   50.5100 C   0  0  0  0  0  0  0  0  0  0  0  0
   37.0070   29.5900   49.1390 C   0  0  0  0  0  0  0  0  0  0  0  0
   35.8610   29.8670   48.3800 C   0  0  0  0  0  0  0  0  0  0  0  0
   34.6580   29.8510   49.0310 N   0  0  0  0  0  0  0  0  0  0  0  0
   34.5620   29.5800   50.3480 C   0  0  0  0  0  0  0  0  0  0  0  0
   35.6700   29.3120   51.0920 N   0  0  0  0  0  0  0  0  0  0  0  0
   37.6900   29.0910   51.1770 H   0  0  0  0  0  0  0  0  0  0  0  0
   38.0340   29.5150   48.8440 H   0  0  0  0  0  0  0  0  0  0  0  0
   33.6110   29.5730   50.8300 H   0  0  0  0  0  0  0  0  0  0  0  0
  2  3  1  0  0  0  0
  2  1  1  0  0  0  0
  3 31  1  0  0  0  0
  4  8  1  0  0  0  0
  4  3  2  0  0  0  0
  5  4  1  0  0  0  0
  6  5  2  0  0  0  0
  6  7  1  0  0  0  0
  7  2  2  0  0  0  0
  9  5  1  0  0  0  0
 10  6  1  0  0  0  0
 11 12  1  0  0  0  0
 11  7  1  0  0  0  0
 12 18  1  0  0  0  0
 13 19  1  0  0  0  0
 13 12  1  0  0  0  0
 14 13  1  0  0  0  0
 15 14  1  0  0  0  0
 15 16  1  0  0  0  0
 16 24  1  1  0  0  0
 16 11  1  0  0  0  0
 17 12  1  0  0  0  0
 20 13  1  0  0  0  0
 21 14  1  0  0  0  0
 22 15  1  0  0  0  0
 23 15  1  0  0  0  0
 25 16  1  0  0  0  0
 25 26  1  0  0  0  0
 27 25  1  0  0  0  0
 28 25  1  0  0  0  0
 29 34  1  0  0  0  0
 29 35  1  0  0  0  0
 30 29  2  0  0  0  0
 31 32  2  0  0  0  0
 31 30  1  0  0  0  0
 32 33  1  0  0  0  0
 33 37  1  0  0  0  0
 33 34  2  0  0  0  0
 36 30  1  0  0  0  0
M  END
>  <minimizedAffinity>
-5.21168804

>  <minimizedRMSD>
0.629166484

$$$$
