
 OpenBabel03272506473D

 37 39  0  0  1  0  0  0  0  0999 V2000
   32.2090   28.6350   47.4710 C   0  0  2  0  0  0  0  0  0  0  0  0
   33.4800   28.3260   48.2040 C   0  0  1  0  0  0  0  0  0  0  0  0
   33.7310   26.9930   48.0710 O   0  0  0  0  0  0  0  0  0  0  0  0
   32.8990   26.4660   47.0890 C   0  0  0  0  0  0  0  0  0  0  0  0
   32.3580   27.6250   46.2900 C   0  0  1  0  0  0  0  0  0  0  0  0
   31.2860   28.4200   48.0020 H   0  0  0  0  0  0  0  0  0  0  0  0
   33.4220   28.6860   49.2480 H   0  0  0  0  0  0  0  0  0  0  0  0
   32.1740   25.8490   47.5940 H   0  0  0  0  0  0  0  0  0  0  0  0
   33.4990   25.7720   46.4440 H   0  0  0  0  0  0  0  0  0  0  0  0
   33.0490   28.0710   45.5860 H   0  0  0  0  0  0  0  0  0  0  0  0
   32.2400   29.9460   46.9520 O   0  0  0  0  0  0  0  0  0  0  0  0
   31.4370   30.4490   47.1630 H   0  0  0  0  0  0  0  0  0  0  0  0
   34.8380   29.2440   47.3720 S   0  0  0  0  0  0  0  0  0  0  0  0
   37.1990   29.3790   50.5460 C   0  0  0  0  0  0  0  0  0  0  0  0
   37.7350   30.6720   50.5540 C   0  0  0  0  0  0  0  0  0  0  0  0
   37.3390   31.5380   49.5200 C   0  0  0  0  0  0  0  0  0  0  0  0
   36.4720   31.0830   48.5830 N   0  0  0  0  0  0  0  0  0  0  0  0
   35.9820   29.8230   48.6210 C   0  0  0  0  0  0  0  0  0  0  0  0
   36.3380   28.9530   49.6020 N   0  0  0  0  0  0  0  0  0  0  0  0
   37.4890   28.6980   51.3300 H   0  0  0  0  0  0  0  0  0  0  0  0
   38.4270   31.0080   51.3170 H   0  0  0  0  0  0  0  0  0  0  0  0
   37.7040   32.5430   49.4540 H   0  0  0  0  0  0  0  0  0  0  0  0
   31.1310   27.2800   45.7780 O   0  0  0  0  0  0  0  0  0  0  0  0
   29.6280   29.6200   44.8080 Cl  0  0  0  0  0  0  0  0  0  0  0  0
   29.1690   28.4600   46.0330 C   0  0  0  0  0  0  0  0  0  0  0  0
   29.9600   27.3930   46.3950 C   0  0  0  0  0  0  0  0  0  0  0  0
   29.4760   26.5190   47.3710 C   0  0  0  0  0  0  0  0  0  0  0  0
   28.2400   26.7260   47.9490 C   0  0  0  0  0  0  0  0  0  0  0  0
   27.4380   27.7970   47.5910 C   0  0  0  0  0  0  0  0  0  0  0  0
   27.9270   28.6660   46.6170 C   0  0  0  0  0  0  0  0  0  0  0  0
   30.0170   25.6550   47.7150 H   0  0  0  0  0  0  0  0  0  0  0  0
   27.8070   26.0910   48.7050 H   0  0  0  0  0  0  0  0  0  0  0  0
   26.4690   27.9700   48.0340 H   0  0  0  0  0  0  0  0  0  0  0  0
   27.0730   29.8180   46.2260 C   0  0  0  0  0  0  0  0  0  0  0  0
   27.7780   31.0080   46.2320 F   0  0  0  0  0  0  0  0  0  0  0  0
   26.0560   29.9090   47.1840 F   0  0  0  0  0  0  0  0  0  0  0  0
   26.4380   29.6070   45.0340 F   0  0  0  0  0  0  0  0  0  0  0  0
  1  6  1  1  0  0  0
  1  2  1  0  0  0  0
  2  7  1  1  0  0  0
  3  2  1  0  0  0  0
  4  8  1  0  0  0  0
  4  3  1  0  0  0  0
  5 10  1  6  0  0  0
  5  4  1  0  0  0  0
  5  1  1  0  0  0  0
  9  4  1  0  0  0  0
 11 12  1  0  0  0  0
 11  1  1  0  0  0  0
 13  2  1  0  0  0  0
 13 18  1  0  0  0  0
 14 15  1  0  0  0  0
 14 20  1  0  0  0  0
 15 21  1  0  0  0  0
 16 15  2  0  0  0  0
 17 18  2  0  0  0  0
 17 16  1  0  0  0  0
 18 19  1  0  0  0  0
 19 14  2  0  0  0  0
 22 16  1  0  0  0  0
 23  5  1  0  0  0  0
 23 26  1  0  0  0  0
 24 25  1  0  0  0  0
 25 26  2  0  0  0  0
 25 30  1  0  0  0  0
 26 27  1  0  0  0  0
 27 31  1  0  0  0  0
 27 28  2  0  0  0  0
 28 32  1  0  0  0  0
 29 28  1  0  0  0  0
 29 33  1  0  0  0  0
 30 29  2  0  0  0  0
 34 35  1  0  0  0  0
 34 30  1  0  0  0  0
 34 36  1  0  0  0  0
 37 34  1  0  0  0  0
M  END
>  <minimizedAffinity>
-4.80546713

>  <minimizedRMSD>
0.619534731

$$$$
