
 OpenBabel03272504353D

 38 40  0  0  0  0  0  0  0  0999 V2000
   34.9640   29.7480   47.1390 C   0  0  0  0  0  0  0  0  0  0  0  0
   35.3740   29.9900   45.8460 C   0  0  0  0  0  0  0  0  0  0  0  0
   34.4350   29.9770   44.8190 C   0  0  0  0  0  0  0  0  0  0  0  0
   33.1390   29.7200   45.1440 N   0  0  0  0  0  0  0  0  0  0  0  0
   32.7770   29.4840   46.4360 C   0  0  0  0  0  0  0  0  0  0  0  0
   33.6700   29.4960   47.4290 N   0  0  0  0  0  0  0  0  0  0  0  0
   36.3940   30.1880   45.6220 H   0  0  0  0  0  0  0  0  0  0  0  0
   34.6970   30.1610   43.7840 H   0  0  0  0  0  0  0  0  0  0  0  0
   35.8740   29.7470   48.2400 N   0  0  0  0  0  0  0  0  0  0  0  0
   35.7440   28.8360   49.3690 C   0  0  0  0  0  0  0  0  0  0  0  0
   35.9420   29.4690   50.7000 C   0  0  0  0  0  0  0  0  0  0  0  0
   36.8320   30.5560   50.7660 N   0  0  0  0  0  0  0  0  0  0  0  0
   36.7130   31.4570   49.6280 C   0  0  0  0  0  0  0  0  0  0  0  0
   37.0090   30.5810   48.4300 C   0  0  0  0  0  0  0  0  0  0  0  0
   34.7820   28.3040   49.2940 H   0  0  0  0  0  0  0  0  0  0  0  0
   36.5320   28.0530   49.2200 H   0  0  0  0  0  0  0  0  0  0  0  0
   34.9520   29.7790   51.0950 H   0  0  0  0  0  0  0  0  0  0  0  0
   36.2840   28.6640   51.4060 H   0  0  0  0  0  0  0  0  0  0  0  0
   37.8180   30.1700   50.7140 H   0  0  0  0  0  0  0  0  0  0  0  0
   35.6390   31.7250   49.5630 H   0  0  0  0  0  0  0  0  0  0  0  0
   37.3880   32.3130   49.7200 H   0  0  0  0  0  0  0  0  0  0  0  0
   37.1940   31.3030   47.5830 H   0  0  0  0  0  0  0  0  0  0  0  0
   37.9330   30.0140   48.6610 H   0  0  0  0  0  0  0  0  0  0  0  0
   31.3720   29.2140   46.7350 C   0  0  0  0  0  0  0  0  0  0  0  0
   31.0400   28.4020   47.7970 C   0  0  0  0  0  0  0  0  0  0  0  0
   29.7170   28.1160   48.1190 C   0  0  0  0  0  0  0  0  0  0  0  0
   28.7680   28.6830   47.3270 N   0  0  0  0  0  0  0  0  0  0  0  0
   29.1140   29.4750   46.2940 C   0  0  0  0  0  0  0  0  0  0  0  0
   30.4100   29.7500   45.9830 N   0  0  0  0  0  0  0  0  0  0  0  0
   31.7770   27.9370   48.4440 H   0  0  0  0  0  0  0  0  0  0  0  0
   28.0530   30.0790   45.4460 C   0  0  0  0  0  0  0  0  0  0  0  0
   28.0400   31.4500   45.5730 F   0  0  0  0  0  0  0  0  0  0  0  0
   26.8140   29.5850   45.9020 F   0  0  0  0  0  0  0  0  0  0  0  0
   28.1930   29.6430   44.1550 F   0  0  0  0  0  0  0  0  0  0  0  0
   29.3480   27.2470   49.2540 C   0  0  0  0  0  0  0  0  0  0  0  0
   28.1340   26.6340   49.0310 F   0  0  0  0  0  0  0  0  0  0  0  0
   30.3590   26.3350   49.4640 F   0  0  0  0  0  0  0  0  0  0  0  0
   29.2490   27.9950   50.4140 F   0  0  0  0  0  0  0  0  0  0  0  0
  1  6  1  0  0  0  0
  1  9  1  0  0  0  0
  2  1  2  0  0  0  0
  3  4  2  0  0  0  0
  3  2  1  0  0  0  0
  4  5  1  0  0  0  0
  5 24  1  0  0  0  0
  5  6  2  0  0  0  0
  7  2  1  0  0  0  0
  8  3  1  0  0  0  0
  9 14  1  0  0  0  0
  9 10  1  0  0  0  0
 10 11  1  0  0  0  0
 11 12  1  0  0  0  0
 11 17  1  0  0  0  0
 11 18  1  0  0  0  0
 13 21  1  0  0  0  0
 13 12  1  0  0  0  0
 14 23  1  0  0  0  0
 14 13  1  0  0  0  0
 15 10  1  0  0  0  0
 16 10  1  0  0  0  0
 19 12  1  0  0  0  0
 20 13  1  0  0  0  0
 22 14  1  0  0  0  0
 24 25  1  0  0  0  0
 25 26  2  0  0  0  0
 25 30  1  0  0  0  0
 26 35  1  0  0  0  0
 27 26  1  0  0  0  0
 28 27  2  0  0  0  0
 29 28  1  0  0  0  0
 29 24  2  0  0  0  0
 31 32  1  0  0  0  0
 31 33  1  0  0  0  0
 31 28  1  0  0  0  0
 34 31  1  0  0  0  0
 35 37  1  0  0  0  0
 35 38  1  0  0  0  0
 36 35  1  0  0  0  0
M  END
>  <minimizedAffinity>
-5.10868788

>  <minimizedRMSD>
1.41527891

$$$$
