
 OpenBabel03272510163D

 23 24  0  0  0  0  0  0  0  0999 V2000
   37.2050   29.5640   51.2200 Br  0  0  0  0  0  0  0  0  0  0  0  0
   36.0140   29.3440   49.7370 C   0  0  0  0  0  0  0  0  0  0  0  0
   36.1190   30.1570   48.6310 C   0  0  0  0  0  0  0  0  0  0  0  0
   35.2250   29.9500   47.5870 C   0  0  0  0  0  0  0  0  0  0  0  0
   34.2500   28.9630   47.6310 C   0  0  0  0  0  0  0  0  0  0  0  0
   34.1800   28.1750   48.7500 C   0  0  0  0  0  0  0  0  0  0  0  0
   35.0650   28.3730   49.7970 C   0  0  0  0  0  0  0  0  0  0  0  0
   35.2950   30.5830   46.7090 H   0  0  0  0  0  0  0  0  0  0  0  0
   33.4160   27.4200   48.7550 H   0  0  0  0  0  0  0  0  0  0  0  0
   34.9360   27.7040   50.6400 H   0  0  0  0  0  0  0  0  0  0  0  0
   37.9840   33.1840   49.4130 C   0  0  0  0  0  0  0  0  0  0  0  0
   39.0260   33.2030   48.4500 C   0  0  0  0  0  0  0  0  0  0  0  0
   39.0720   32.1600   47.5320 C   0  0  0  0  0  0  0  0  0  0  0  0
   38.1220   31.1800   47.6050 N   0  0  0  0  0  0  0  0  0  0  0  0
   37.1340   31.2040   48.5540 C   0  0  0  0  0  0  0  0  0  0  0  0
   37.0730   32.2030   49.4470 N   0  0  0  0  0  0  0  0  0  0  0  0
   37.8840   33.9640   50.1590 H   0  0  0  0  0  0  0  0  0  0  0  0
   39.7270   34.0010   48.4580 H   0  0  0  0  0  0  0  0  0  0  0  0
   39.8460   32.1270   46.7770 H   0  0  0  0  0  0  0  0  0  0  0  0
   33.3440   28.8270   46.4580 C   0  0  0  0  0  0  0  0  0  0  0  0
   33.4120   27.5180   46.0220 F   0  0  0  0  0  0  0  0  0  0  0  0
   32.0630   29.2120   46.8030 F   0  0  0  0  0  0  0  0  0  0  0  0
   33.7210   29.6630   45.4200 F   0  0  0  0  0  0  0  0  0  0  0  0
  2  7  1  0  0  0  0
  2  1  1  0  0  0  0
  3  2  2  0  0  0  0
  4  5  2  0  0  0  0
  4  3  1  0  0  0  0
  5  6  1  0  0  0  0
  6  9  1  0  0  0  0
  6  7  2  0  0  0  0
  7 10  1  0  0  0  0
  8  4  1  0  0  0  0
 11 16  1  0  0  0  0
 11 17  1  0  0  0  0
 12 18  1  0  0  0  0
 12 11  2  0  0  0  0
 13 14  2  0  0  0  0
 13 12  1  0  0  0  0
 14 15  1  0  0  0  0
 15  3  1  0  0  0  0
 15 16  2  0  0  0  0
 19 13  1  0  0  0  0
 20 22  1  0  0  0  0
 20  5  1  0  0  0  0
 21 20  1  0  0  0  0
 23 20  1  0  0  0  0
M  END
>  <minimizedAffinity>
-5.7083149

>  <minimizedRMSD>
0.323184788

$$$$
