
 OpenBabel03272500403D

 20 21  0  0  1  0  0  0  0  0999 V2000
   38.4480   22.4890   36.1770 C   0  0  1  0  0  0  0  0  0  0  0  0
   39.1860   23.7400   36.0380 C   0  0  0  0  0  0  0  0  0  0  0  0
   37.9510   23.7280   36.8990 C   0  0  2  0  0  0  0  0  0  0  0  0
   38.8660   21.6760   36.7880 H   0  0  0  0  0  0  0  0  0  0  0  0
   40.1630   23.9290   36.4730 H   0  0  0  0  0  0  0  0  0  0  0  0
   39.0110   24.3100   35.0790 H   0  0  0  0  0  0  0  0  0  0  0  0
   37.0200   24.1820   36.5710 H   0  0  0  0  0  0  0  0  0  0  0  0
   37.5290   22.0150   35.1030 C   0  0  0  0  0  0  0  0  0  0  0  0
   36.4890   21.1610   35.5100 C   0  0  0  0  0  0  0  0  0  0  0  0
   35.6430   20.6860   34.4810 C   0  0  0  0  0  0  0  0  0  0  0  0
   35.8760   21.0730   33.1860 N   0  0  0  0  0  0  0  0  0  0  0  0
   36.9090   21.9100   32.8620 C   0  0  0  0  0  0  0  0  0  0  0  0
   37.7350   22.3770   33.8400 N   0  0  0  0  0  0  0  0  0  0  0  0
   36.3370   20.8770   36.5430 H   0  0  0  0  0  0  0  0  0  0  0  0
   34.8220   20.0240   34.7180 H   0  0  0  0  0  0  0  0  0  0  0  0
   37.0110   22.1560   31.8210 H   0  0  0  0  0  0  0  0  0  0  0  0
   38.1470   23.6700   38.3970 C   0  0  0  0  0  0  0  0  0  0  0  0
   37.9040   24.9310   38.9180 F   0  0  0  0  0  0  0  0  0  0  0  0
   37.3340   22.7730   39.0190 F   0  0  0  0  0  0  0  0  0  0  0  0
   39.4560   23.3850   38.7350 F   0  0  0  0  0  0  0  0  0  0  0  0
  1  4  1  1  0  0  0
  1  3  1  0  0  0  0
  2  1  1  0  0  0  0
  2  5  1  0  0  0  0
  2  3  1  0  0  0  0
  3  7  1  6  0  0  0
  3 17  1  0  0  0  0
  6  2  1  0  0  0  0
  8  9  1  0  0  0  0
  8  1  1  0  0  0  0
  9 14  1  0  0  0  0
 10 15  1  0  0  0  0
 10  9  2  0  0  0  0
 11 10  1  0  0  0  0
 12 11  2  0  0  0  0
 12 13  1  0  0  0  0
 13  8  2  0  0  0  0
 16 12  1  0  0  0  0
 17 20  1  0  0  0  0
 17 18  1  0  0  0  0
 17 19  1  0  0  0  0
M  END
>  <minimizedAffinity>
-4.33974648

$$$$

 OpenBabel03272500403D

 20 21  0  0  1  0  0  0  0  0999 V2000
   38.7600   24.1140   35.9380 C   0  0  1  0  0  0  0  0  0  0  0  0
   38.2440   25.4030   36.3900 C   0  0  0  0  0  0  0  0  0  0  0  0
   37.6920   24.1500   37.0150 C   0  0  2  0  0  0  0  0  0  0  0  0
   39.7710   23.7990   36.2310 H   0  0  0  0  0  0  0  0  0  0  0  0
   38.8090   26.1160   36.9840 H   0  0  0  0  0  0  0  0  0  0  0  0
   37.4840   25.8930   35.7140 H   0  0  0  0  0  0  0  0  0  0  0  0
   36.6990   23.7800   36.7750 H   0  0  0  0  0  0  0  0  0  0  0  0
   38.2950   23.5080   34.6570 C   0  0  0  0  0  0  0  0  0  0  0  0
   38.3250   22.1040   34.5910 C   0  0  0  0  0  0  0  0  0  0  0  0
   37.9180   21.5360   33.3600 C   0  0  0  0  0  0  0  0  0  0  0  0
   37.5290   22.3600   32.3360 N   0  0  0  0  0  0  0  0  0  0  0  0
   37.5230   23.7220   32.4720 C   0  0  0  0  0  0  0  0  0  0  0  0
   37.9120   24.2860   33.6490 N   0  0  0  0  0  0  0  0  0  0  0  0
   38.6400   21.4860   35.4210 H   0  0  0  0  0  0  0  0  0  0  0  0
   37.9160   20.4620   33.2350 H   0  0  0  0  0  0  0  0  0  0  0  0
   37.2020   24.2820   31.6130 H   0  0  0  0  0  0  0  0  0  0  0  0
   38.2080   23.7690   38.3850 C   0  0  0  0  0  0  0  0  0  0  0  0
   37.3330   22.8490   38.9400 F   0  0  0  0  0  0  0  0  0  0  0  0
   39.4570   23.2300   38.3670 F   0  0  0  0  0  0  0  0  0  0  0  0
   38.2030   24.8430   39.2540 F   0  0  0  0  0  0  0  0  0  0  0  0
  1  4  1  1  0  0  0
  1  2  1  0  0  0  0
  1  3  1  0  0  0  0
  2  5  1  0  0  0  0
  2  3  1  0  0  0  0
  3  7  1  6  0  0  0
  3 17  1  0  0  0  0
  6  2  1  0  0  0  0
  8  1  1  0  0  0  0
  9  8  1  0  0  0  0
  9 14  1  0  0  0  0
 10  9  2  0  0  0  0
 11 12  2  0  0  0  0
 11 10  1  0  0  0  0
 12 13  1  0  0  0  0
 13  8  2  0  0  0  0
 15 10  1  0  0  0  0
 16 12  1  0  0  0  0
 17 18  1  0  0  0  0
 17 20  1  0  0  0  0
 19 17  1  0  0  0  0
M  END
>  <minimizedAffinity>
-4.19685316

$$$$

 OpenBabel03272500403D

 20 21  0  0  1  0  0  0  0  0999 V2000
   38.0200   25.9060   35.6220 C   0  0  1  0  0  0  0  0  0  0  0  0
   38.3970   27.2780   35.9470 C   0  0  0  0  0  0  0  0  0  0  0  0
   39.0200   26.6300   34.7400 C   0  0  2  0  0  0  0  0  0  0  0  0
   37.0250   25.7000   35.2030 H   0  0  0  0  0  0  0  0  0  0  0  0
   37.7410   28.1370   35.8390 H   0  0  0  0  0  0  0  0  0  0  0  0
   39.1480   27.3970   36.7820 H   0  0  0  0  0  0  0  0  0  0  0  0
   40.0530   26.2930   34.7400 H   0  0  0  0  0  0  0  0  0  0  0  0
   38.6050   24.7530   36.3650 C   0  0  0  0  0  0  0  0  0  0  0  0
   38.0540   24.4890   37.6310 C   0  0  0  0  0  0  0  0  0  0  0  0
   38.6380   23.4170   38.3460 C   0  0  0  0  0  0  0  0  0  0  0  0
   39.6730   22.7170   37.7820 N   0  0  0  0  0  0  0  0  0  0  0  0
   40.1590   23.0290   36.5410 C   0  0  0  0  0  0  0  0  0  0  0  0
   39.6100   24.0580   35.8380 N   0  0  0  0  0  0  0  0  0  0  0  0
   37.2360   25.0640   38.0440 H   0  0  0  0  0  0  0  0  0  0  0  0
   38.2670   23.1560   39.3280 H   0  0  0  0  0  0  0  0  0  0  0  0
   40.9720   22.4230   36.1850 H   0  0  0  0  0  0  0  0  0  0  0  0
   38.4650   27.0030   33.3840 C   0  0  0  0  0  0  0  0  0  0  0  0
   38.0340   25.8460   32.7550 F   0  0  0  0  0  0  0  0  0  0  0  0
   37.4280   27.8830   33.4430 F   0  0  0  0  0  0  0  0  0  0  0  0
   39.4390   27.5250   32.5550 F   0  0  0  0  0  0  0  0  0  0  0  0
  1  4  1  6  0  0  0
  1  2  1  0  0  0  0
  1  8  1  0  0  0  0
  2  6  1  0  0  0  0
  3  7  1  1  0  0  0
  3  1  1  0  0  0  0
  3  2  1  0  0  0  0
  5  2  1  0  0  0  0
  8  9  1  0  0  0  0
  9 14  1  0  0  0  0
  9 10  2  0  0  0  0
 10 15  1  0  0  0  0
 11 10  1  0  0  0  0
 12 11  2  0  0  0  0
 13  8  2  0  0  0  0
 13 12  1  0  0  0  0
 16 12  1  0  0  0  0
 17 19  1  0  0  0  0
 17  3  1  0  0  0  0
 18 17  1  0  0  0  0
 20 17  1  0  0  0  0
M  END
>  <minimizedAffinity>
-4.12682533

$$$$

 OpenBabel03272500403D

 20 21  0  0  1  0  0  0  0  0999 V2000
   38.4420   25.8980   35.2320 C   0  0  1  0  0  0  0  0  0  0  0  0
   38.3470   27.3320   35.4910 C   0  0  0  0  0  0  0  0  0  0  0  0
   39.6640   26.7720   35.0250 C   0  0  2  0  0  0  0  0  0  0  0  0
   37.9610   25.4740   34.3400 H   0  0  0  0  0  0  0  0  0  0  0  0
   37.7920   28.0320   34.8730 H   0  0  0  0  0  0  0  0  0  0  0  0
   38.3940   27.6390   36.5770 H   0  0  0  0  0  0  0  0  0  0  0  0
   40.5080   26.6550   35.7000 H   0  0  0  0  0  0  0  0  0  0  0  0
   38.5880   24.9240   36.3510 C   0  0  0  0  0  0  0  0  0  0  0  0
   39.3990   23.8050   36.0950 C   0  0  0  0  0  0  0  0  0  0  0  0
   39.5040   22.8650   37.1470 C   0  0  0  0  0  0  0  0  0  0  0  0
   38.8320   23.0920   38.3200 N   0  0  0  0  0  0  0  0  0  0  0  0
   38.0580   24.2060   38.5010 C   0  0  0  0  0  0  0  0  0  0  0  0
   37.9450   25.1210   37.4980 N   0  0  0  0  0  0  0  0  0  0  0  0
   39.9150   23.6600   35.1550 H   0  0  0  0  0  0  0  0  0  0  0  0
   40.1110   21.9790   37.0230 H   0  0  0  0  0  0  0  0  0  0  0  0
   37.5700   24.2950   39.4540 H   0  0  0  0  0  0  0  0  0  0  0  0
   40.0260   26.9640   33.5690 C   0  0  0  0  0  0  0  0  0  0  0  0
   41.1130   27.8210   33.4990 F   0  0  0  0  0  0  0  0  0  0  0  0
   40.3390   25.8050   32.9280 F   0  0  0  0  0  0  0  0  0  0  0  0
   39.0200   27.5980   32.8670 F   0  0  0  0  0  0  0  0  0  0  0  0
  1  4  1  6  0  0  0
  1  2  1  0  0  0  0
  1  8  1  0  0  0  0
  2  6  1  0  0  0  0
  3  1  1  0  0  0  0
  3  2  1  0  0  0  0
  3  7  1  1  0  0  0
  5  2  1  0  0  0  0
  8 13  1  0  0  0  0
  9  8  2  0  0  0  0
  9 10  1  0  0  0  0
 10 11  2  0  0  0  0
 11 12  1  0  0  0  0
 12 16  1  0  0  0  0
 13 12  2  0  0  0  0
 14  9  1  0  0  0  0
 15 10  1  0  0  0  0
 17  3  1  0  0  0  0
 18 17  1  0  0  0  0
 19 17  1  0  0  0  0
 20 17  1  0  0  0  0
M  END
>  <minimizedAffinity>
-4.05771828

$$$$

 OpenBabel03272500403D

 20 21  0  0  1  0  0  0  0  0999 V2000
   36.5280   21.9720   31.9880 C   0  0  1  0  0  0  0  0  0  0  0  0
   36.9000   21.2730   33.2140 C   0  0  0  0  0  0  0  0  0  0  0  0
   35.4510   21.2850   32.8060 C   0  0  2  0  0  0  0  0  0  0  0  0
   36.7850   21.5350   31.0130 H   0  0  0  0  0  0  0  0  0  0  0  0
   37.4600   20.3430   33.2450 H   0  0  0  0  0  0  0  0  0  0  0  0
   37.0770   21.9270   34.1180 H   0  0  0  0  0  0  0  0  0  0  0  0
   34.7170   21.9000   33.3200 H   0  0  0  0  0  0  0  0  0  0  0  0
   36.3990   23.4580   31.9590 C   0  0  0  0  0  0  0  0  0  0  0  0
   35.4250   23.9770   31.0890 C   0  0  0  0  0  0  0  0  0  0  0  0
   35.3330   25.3880   31.0390 C   0  0  0  0  0  0  0  0  0  0  0  0
   36.1710   26.1450   31.8160 N   0  0  0  0  0  0  0  0  0  0  0  0
   37.0970   25.5700   32.6430 C   0  0  0  0  0  0  0  0  0  0  0  0
   37.2010   24.2130   32.7040 N   0  0  0  0  0  0  0  0  0  0  0  0
   34.7810   23.3470   30.4890 H   0  0  0  0  0  0  0  0  0  0  0  0
   34.6060   25.8600   30.3910 H   0  0  0  0  0  0  0  0  0  0  0  0
   37.7080   26.2460   33.2130 H   0  0  0  0  0  0  0  0  0  0  0  0
   34.9020   20.0390   32.1510 C   0  0  0  0  0  0  0  0  0  0  0  0
   35.1400   18.9630   32.9910 F   0  0  0  0  0  0  0  0  0  0  0  0
   33.5680   20.1030   31.8880 F   0  0  0  0  0  0  0  0  0  0  0  0
   35.5680   19.7360   30.9790 F   0  0  0  0  0  0  0  0  0  0  0  0
  1  4  1  6  0  0  0
  1  3  1  0  0  0  0
  1  2  1  0  0  0  0
  2  5  1  0  0  0  0
  2  6  1  0  0  0  0
  3  2  1  0  0  0  0
  3  7  1  1  0  0  0
  8  1  1  0  0  0  0
  8 13  1  0  0  0  0
  9  8  2  0  0  0  0
 10  9  1  0  0  0  0
 10 11  2  0  0  0  0
 11 12  1  0  0  0  0
 12 13  2  0  0  0  0
 12 16  1  0  0  0  0
 14  9  1  0  0  0  0
 15 10  1  0  0  0  0
 17  3  1  0  0  0  0
 17 18  1  0  0  0  0
 19 17  1  0  0  0  0
 20 17  1  0  0  0  0
M  END
>  <minimizedAffinity>
-4.05426693

$$$$

 OpenBabel03272500403D

 20 21  0  0  1  0  0  0  0  0999 V2000
   38.0720   24.4390   36.0450 C   0  0  1  0  0  0  0  0  0  0  0  0
   37.9280   22.9870   36.0970 C   0  0  0  0  0  0  0  0  0  0  0  0
   38.8430   23.6540   37.0900 C   0  0  2  0  0  0  0  0  0  0  0  0
   37.2500   25.0800   36.3930 H   0  0  0  0  0  0  0  0  0  0  0  0
   37.0330   22.4700   36.4290 H   0  0  0  0  0  0  0  0  0  0  0  0
   38.5140   22.4070   35.3250 H   0  0  0  0  0  0  0  0  0  0  0  0
   39.9250   23.5940   37.0020 H   0  0  0  0  0  0  0  0  0  0  0  0
   38.9430   25.0890   35.0240 C   0  0  0  0  0  0  0  0  0  0  0  0
   39.2840   26.4310   35.2650 C   0  0  0  0  0  0  0  0  0  0  0  0
   40.0800   27.0530   34.2740 C   0  0  0  0  0  0  0  0  0  0  0  0
   40.4630   26.3340   33.1710 N   0  0  0  0  0  0  0  0  0  0  0  0
   40.0940   25.0270   33.0020 C   0  0  0  0  0  0  0  0  0  0  0  0
   39.3280   24.4120   33.9450 N   0  0  0  0  0  0  0  0  0  0  0  0
   38.9610   26.9660   36.1490 H   0  0  0  0  0  0  0  0  0  0  0  0
   40.3800   28.0850   34.3910 H   0  0  0  0  0  0  0  0  0  0  0  0
   40.4430   24.5490   32.1050 H   0  0  0  0  0  0  0  0  0  0  0  0
   38.3210   23.8500   38.4950 C   0  0  0  0  0  0  0  0  0  0  0  0
   39.3510   23.5830   39.3840 F   0  0  0  0  0  0  0  0  0  0  0  0
   37.8510   25.1050   38.7320 F   0  0  0  0  0  0  0  0  0  0  0  0
   37.3290   22.9410   38.8070 F   0  0  0  0  0  0  0  0  0  0  0  0
  1  2  1  0  0  0  0
  1  4  1  1  0  0  0
  1  3  1  0  0  0  0
  2  5  1  0  0  0  0
  2  3  1  0  0  0  0
  3  7  1  6  0  0  0
  3 17  1  0  0  0  0
  6  2  1  0  0  0  0
  8  9  1  0  0  0  0
  8  1  1  0  0  0  0
  9 14  1  0  0  0  0
 10 15  1  0  0  0  0
 10  9  2  0  0  0  0
 11 10  1  0  0  0  0
 12 11  2  0  0  0  0
 12 13  1  0  0  0  0
 13  8  2  0  0  0  0
 16 12  1  0  0  0  0
 17 19  1  0  0  0  0
 17 20  1  0  0  0  0
 17 18  1  0  0  0  0
M  END
>  <minimizedAffinity>
-4.03785515

$$$$

 OpenBabel03272500403D

 20 21  0  0  1  0  0  0  0  0999 V2000
   37.7240   26.5110   33.4360 C   0  0  1  0  0  0  0  0  0  0  0  0
   37.0800   27.6730   34.0410 C   0  0  0  0  0  0  0  0  0  0  0  0
   37.3640   26.4770   34.9100 C   0  0  2  0  0  0  0  0  0  0  0  0
   38.7900   26.5560   33.1720 H   0  0  0  0  0  0  0  0  0  0  0  0
   37.5740   28.6220   34.2250 H   0  0  0  0  0  0  0  0  0  0  0  0
   35.9730   27.7800   33.8410 H   0  0  0  0  0  0  0  0  0  0  0  0
   36.5750   25.8060   35.2360 H   0  0  0  0  0  0  0  0  0  0  0  0
   36.9460   25.5440   32.6090 C   0  0  0  0  0  0  0  0  0  0  0  0
   37.3640   24.2030   32.6680 C   0  0  0  0  0  0  0  0  0  0  0  0
   36.6450   23.2970   31.8530 C   0  0  0  0  0  0  0  0  0  0  0  0
   35.6150   23.7620   31.0780 N   0  0  0  0  0  0  0  0  0  0  0  0
   35.2610   25.0850   31.0710 C   0  0  0  0  0  0  0  0  0  0  0  0
   35.9420   25.9720   31.8490 N   0  0  0  0  0  0  0  0  0  0  0  0
   38.1830   23.8730   33.2930 H   0  0  0  0  0  0  0  0  0  0  0  0
   36.9100   22.2490   31.8470 H   0  0  0  0  0  0  0  0  0  0  0  0
   34.4410   25.3520   30.4300 H   0  0  0  0  0  0  0  0  0  0  0  0
   38.5660   26.5500   35.8240 C   0  0  0  0  0  0  0  0  0  0  0  0
   39.1270   25.2860   35.9090 F   0  0  0  0  0  0  0  0  0  0  0  0
   39.5190   27.4260   35.4030 F   0  0  0  0  0  0  0  0  0  0  0  0
   38.2100   26.8750   37.1180 F   0  0  0  0  0  0  0  0  0  0  0  0
  1  4  1  6  0  0  0
  1  2  1  0  0  0  0
  1  3  1  0  0  0  0
  2  5  1  0  0  0  0
  2  3  1  0  0  0  0
  3  7  1  1  0  0  0
  3 17  1  0  0  0  0
  6  2  1  0  0  0  0
  8  9  1  0  0  0  0
  8  1  1  0  0  0  0
  9 14  1  0  0  0  0
 10  9  2  0  0  0  0
 11 10  1  0  0  0  0
 12 11  2  0  0  0  0
 12 13  1  0  0  0  0
 13  8  2  0  0  0  0
 15 10  1  0  0  0  0
 16 12  1  0  0  0  0
 17 18  1  0  0  0  0
 17 20  1  0  0  0  0
 19 17  1  0  0  0  0
M  END
>  <minimizedAffinity>
-4.03248262

$$$$

 OpenBabel03272500403D

 20 21  0  0  1  0  0  0  0  0999 V2000
   38.6400   25.7870   35.0980 C   0  0  1  0  0  0  0  0  0  0  0  0
   38.4980   27.2110   35.3880 C   0  0  0  0  0  0  0  0  0  0  0  0
   39.8490   26.6950   34.9700 C   0  0  2  0  0  0  0  0  0  0  0  0
   38.2110   25.3760   34.1730 H   0  0  0  0  0  0  0  0  0  0  0  0
   37.9560   27.9140   34.7630 H   0  0  0  0  0  0  0  0  0  0  0  0
   38.4870   27.4900   36.4830 H   0  0  0  0  0  0  0  0  0  0  0  0
   40.6630   26.5790   35.6810 H   0  0  0  0  0  0  0  0  0  0  0  0
   38.7580   24.7870   36.1970 C   0  0  0  0  0  0  0  0  0  0  0  0
   37.9320   24.9960   37.3150 C   0  0  0  0  0  0  0  0  0  0  0  0
   38.0740   24.0650   38.3700 C   0  0  0  0  0  0  0  0  0  0  0  0
   38.9800   23.0430   38.2470 N   0  0  0  0  0  0  0  0  0  0  0  0
   39.7530   22.8990   37.1270 C   0  0  0  0  0  0  0  0  0  0  0  0
   39.6290   23.7870   36.1010 N   0  0  0  0  0  0  0  0  0  0  0  0
   37.2280   25.8160   37.3760 H   0  0  0  0  0  0  0  0  0  0  0  0
   37.4720   24.1620   39.2630 H   0  0  0  0  0  0  0  0  0  0  0  0
   40.4330   22.0680   37.1240 H   0  0  0  0  0  0  0  0  0  0  0  0
   40.2730   26.9330   33.5390 C   0  0  0  0  0  0  0  0  0  0  0  0
   41.3410   27.8180   33.5410 F   0  0  0  0  0  0  0  0  0  0  0  0
   40.6440   25.8000   32.8840 F   0  0  0  0  0  0  0  0  0  0  0  0
   39.2850   27.5620   32.8060 F   0  0  0  0  0  0  0  0  0  0  0  0
  1  4  1  6  0  0  0
  1  2  1  0  0  0  0
  1  8  1  0  0  0  0
  2  6  1  0  0  0  0
  3  1  1  0  0  0  0
  3  2  1  0  0  0  0
  3  7  1  1  0  0  0
  5  2  1  0  0  0  0
  8  9  1  0  0  0  0
  9 14  1  0  0  0  0
  9 10  2  0  0  0  0
 10 15  1  0  0  0  0
 11 10  1  0  0  0  0
 12 11  2  0  0  0  0
 13  8  2  0  0  0  0
 13 12  1  0  0  0  0
 16 12  1  0  0  0  0
 17 18  1  0  0  0  0
 17  3  1  0  0  0  0
 19 17  1  0  0  0  0
 20 17  1  0  0  0  0
M  END
>  <minimizedAffinity>
-4.02994251

$$$$

 OpenBabel03272500403D

 20 21  0  0  1  0  0  0  0  0999 V2000
   38.3980   25.9420   34.7300 C   0  0  1  0  0  0  0  0  0  0  0  0
   38.5700   26.9150   35.8050 C   0  0  0  0  0  0  0  0  0  0  0  0
   37.6360   25.7560   36.0300 C   0  0  2  0  0  0  0  0  0  0  0  0
   39.2050   25.2320   34.5060 H   0  0  0  0  0  0  0  0  0  0  0  0
   39.4740   27.0210   36.3980 H   0  0  0  0  0  0  0  0  0  0  0  0
   38.0000   27.8840   35.6880 H   0  0  0  0  0  0  0  0  0  0  0  0
   36.5570   25.8800   36.0220 H   0  0  0  0  0  0  0  0  0  0  0  0
   37.5200   26.2370   33.5610 C   0  0  0  0  0  0  0  0  0  0  0  0
   37.1880   27.5880   33.3620 C   0  0  0  0  0  0  0  0  0  0  0  0
   36.3260   27.8570   32.2730 C   0  0  0  0  0  0  0  0  0  0  0  0
   35.8780   26.8190   31.4980 N   0  0  0  0  0  0  0  0  0  0  0  0
   36.2440   25.5250   31.7500 C   0  0  0  0  0  0  0  0  0  0  0  0
   37.0730   25.2460   32.7950 N   0  0  0  0  0  0  0  0  0  0  0  0
   37.5620   28.3810   33.9970 H   0  0  0  0  0  0  0  0  0  0  0  0
   36.0260   28.8740   32.0590 H   0  0  0  0  0  0  0  0  0  0  0  0
   35.8410   24.7810   31.0880 H   0  0  0  0  0  0  0  0  0  0  0  0
   38.1450   24.6030   36.8640 C   0  0  0  0  0  0  0  0  0  0  0  0
   37.2650   23.5410   36.7250 F   0  0  0  0  0  0  0  0  0  0  0  0
   39.3940   24.1870   36.5160 F   0  0  0  0  0  0  0  0  0  0  0  0
   38.1410   24.9020   38.2130 F   0  0  0  0  0  0  0  0  0  0  0  0
  1  4  1  6  0  0  0
  1  2  1  0  0  0  0
  1  3  1  0  0  0  0
  2  3  1  0  0  0  0
  2  5  1  0  0  0  0
  3  7  1  6  0  0  0
  3 17  1  0  0  0  0
  6  2  1  0  0  0  0
  8  1  1  0  0  0  0
  9  8  1  0  0  0  0
  9 14  1  0  0  0  0
 10  9  2  0  0  0  0
 11 12  2  0  0  0  0
 11 10  1  0  0  0  0
 12 13  1  0  0  0  0
 13  8  2  0  0  0  0
 15 10  1  0  0  0  0
 16 12  1  0  0  0  0
 17 20  1  0  0  0  0
 18 17  1  0  0  0  0
 19 17  1  0  0  0  0
M  END
>  <minimizedAffinity>
-3.95632625

$$$$
