
 OpenBabel03272510203D

 31 33  0  0  0  0  0  0  0  0999 V2000
   37.4160   29.1640   50.8020 Br  0  0  0  0  0  0  0  0  0  0  0  0
   36.0150   29.2880   49.5160 C   0  0  0  0  0  0  0  0  0  0  0  0
   36.0080   30.3060   48.5530 C   0  0  0  0  0  0  0  0  0  0  0  0
   34.9600   30.3110   47.6730 C   0  0  0  0  0  0  0  0  0  0  0  0
   33.9350   29.3850   47.6860 C   0  0  0  0  0  0  0  0  0  0  0  0
   33.9720   28.4100   48.6330 C   0  0  0  0  0  0  0  0  0  0  0  0
   35.0110   28.3700   49.5380 C   0  0  0  0  0  0  0  0  0  0  0  0
   34.9570   31.1070   46.9240 H   0  0  0  0  0  0  0  0  0  0  0  0
   33.1850   27.6770   48.6640 H   0  0  0  0  0  0  0  0  0  0  0  0
   34.9820   27.5710   50.2650 H   0  0  0  0  0  0  0  0  0  0  0  0
   38.0210   33.1900   49.4780 C   0  0  0  0  0  0  0  0  0  0  0  0
   39.0550   33.1950   48.4970 C   0  0  0  0  0  0  0  0  0  0  0  0
   39.0370   32.1980   47.5320 C   0  0  0  0  0  0  0  0  0  0  0  0
   38.0320   31.2710   47.5750 N   0  0  0  0  0  0  0  0  0  0  0  0
   37.0660   31.2880   48.5140 C   0  0  0  0  0  0  0  0  0  0  0  0
   37.0690   32.2540   49.4650 N   0  0  0  0  0  0  0  0  0  0  0  0
   37.9920   33.9340   50.2390 H   0  0  0  0  0  0  0  0  0  0  0  0
   39.7930   33.9690   48.5570 H   0  0  0  0  0  0  0  0  0  0  0  0
   39.8120   32.1840   46.7780 H   0  0  0  0  0  0  0  0  0  0  0  0
   32.8280   29.4100   46.7390 C   0  0  0  0  0  0  0  0  0  0  0  0
   32.0710   28.3270   46.3830 C   0  0  0  0  0  0  0  0  0  0  0  0
   31.0250   28.3780   45.4800 C   0  0  0  0  0  0  0  0  0  0  0  0
   30.7320   29.5600   44.9160 N   0  0  0  0  0  0  0  0  0  0  0  0
   31.4530   30.6400   45.2410 C   0  0  0  0  0  0  0  0  0  0  0  0
   32.4580   30.5540   46.1190 N   0  0  0  0  0  0  0  0  0  0  0  0
   32.3130   27.3610   46.8460 H   0  0  0  0  0  0  0  0  0  0  0  0
   30.4770   27.4720   45.2550 H   0  0  0  0  0  0  0  0  0  0  0  0
   31.1530   31.9670   44.6330 C   0  0  0  0  0  0  0  0  0  0  0  0
   31.5230   32.0290   43.3190 F   0  0  0  0  0  0  0  0  0  0  0  0
   31.7980   32.9270   45.3970 F   0  0  0  0  0  0  0  0  0  0  0  0
   29.7980   32.2270   44.7680 F   0  0  0  0  0  0  0  0  0  0  0  0
  2  7  1  0  0  0  0
  2  1  1  0  0  0  0
  3  2  2  0  0  0  0
  4  5  2  0  0  0  0
  4  3  1  0  0  0  0
  5  6  1  0  0  0  0
  6  9  1  0  0  0  0
  6  7  2  0  0  0  0
  7 10  1  0  0  0  0
  8  4  1  0  0  0  0
 11 17  1  0  0  0  0
 12 18  1  0  0  0  0
 12 11  2  0  0  0  0
 13 14  2  0  0  0  0
 13 12  1  0  0  0  0
 14 15  1  0  0  0  0
 15  3  1  0  0  0  0
 15 16  2  0  0  0  0
 16 11  1  0  0  0  0
 19 13  1  0  0  0  0
 20  5  1  0  0  0  0
 21 20  1  0  0  0  0
 21 26  1  0  0  0  0
 22 21  2  0  0  0  0
 23 24  2  0  0  0  0
 23 22  1  0  0  0  0
 24 25  1  0  0  0  0
 25 20  2  0  0  0  0
 27 22  1  0  0  0  0
 28 31  1  0  0  0  0
 28 24  1  0  0  0  0
 28 30  1  0  0  0  0
 29 28  1  0  0  0  0
M  END
>  <minimizedAffinity>
-6.17142391

>  <minimizedRMSD>
0.255661905

$$$$
