
 OpenBabel03272509003D

 23 24  0  0  0  0  0  0  0  0999 V2000
   38.1240   30.4350   49.2700 Cl  0  0  0  0  0  0  0  0  0  0  0  0
   36.8670   30.1730   48.1070 C   0  0  0  0  0  0  0  0  0  0  0  0
   37.0390   30.5880   46.8050 C   0  0  0  0  0  0  0  0  0  0  0  0
   36.0670   30.4050   45.8480 C   0  0  0  0  0  0  0  0  0  0  0  0
   34.8720   29.7910   46.1730 C   0  0  0  0  0  0  0  0  0  0  0  0
   34.6680   29.3600   47.4830 C   0  0  0  0  0  0  0  0  0  0  0  0
   33.2000   28.5680   48.0250 Cl  0  0  0  0  0  0  0  0  0  0  0  0
   35.6700   29.5650   48.3990 C   0  0  0  0  0  0  0  0  0  0  0  0
   36.1940   30.7280   44.8280 H   0  0  0  0  0  0  0  0  0  0  0  0
   34.0760   29.6230   45.4610 H   0  0  0  0  0  0  0  0  0  0  0  0
   39.6920   33.0930   46.3940 C   0  0  0  0  0  0  0  0  0  0  0  0
   40.6710   32.3970   45.6870 C   0  0  0  0  0  0  0  0  0  0  0  0
   40.4070   31.0410   45.3490 C   0  0  0  0  0  0  0  0  0  0  0  0
   39.2180   30.5130   45.7350 N   0  0  0  0  0  0  0  0  0  0  0  0
   38.2910   31.2410   46.4290 C   0  0  0  0  0  0  0  0  0  0  0  0
   38.5370   32.5180   46.7500 N   0  0  0  0  0  0  0  0  0  0  0  0
   39.9400   34.1220   46.6290 H   0  0  0  0  0  0  0  0  0  0  0  0
   41.6010   32.8110   45.3830 H   0  0  0  0  0  0  0  0  0  0  0  0
   41.1230   30.4430   44.8010 H   0  0  0  0  0  0  0  0  0  0  0  0
   35.4800   29.1120   49.8170 C   0  0  0  0  0  0  0  0  0  0  0  0
   34.6020   29.9300   50.4950 F   0  0  0  0  0  0  0  0  0  0  0  0
   34.8520   27.8650   49.7580 F   0  0  0  0  0  0  0  0  0  0  0  0
   36.6780   28.9340   50.4440 F   0  0  0  0  0  0  0  0  0  0  0  0
  2  8  1  0  0  0  0
  2  1  1  0  0  0  0
  3  2  2  0  0  0  0
  4  5  2  0  0  0  0
  4  3  1  0  0  0  0
  5  6  1  0  0  0  0
  6  7  1  0  0  0  0
  6  8  2  0  0  0  0
  8 20  1  0  0  0  0
  9  4  1  0  0  0  0
 10  5  1  0  0  0  0
 11 17  1  0  0  0  0
 11 16  1  0  0  0  0
 12 11  2  0  0  0  0
 13 12  1  0  0  0  0
 13 14  2  0  0  0  0
 14 15  1  0  0  0  0
 15 16  2  0  0  0  0
 15  3  1  0  0  0  0
 18 12  1  0  0  0  0
 19 13  1  0  0  0  0
 20 23  1  0  0  0  0
 20 21  1  0  0  0  0
 22 20  1  0  0  0  0
M  END
>  <minimizedAffinity>
-5.67308807

>  <minimizedRMSD>
2.40345287

$$$$
