
 OpenBabel03272509533D

 38 40  0  0  0  0  0  0  0  0999 V2000
   37.3650   30.1910   51.5450 C   0  0  0  0  0  0  0  0  0  0  0  0
   38.0840   30.8720   50.5420 C   0  0  0  0  0  0  0  0  0  0  0  0
   37.7190   30.6650   49.2310 C   0  0  0  0  0  0  0  0  0  0  0  0
   36.6720   29.8000   49.0150 N   0  0  0  0  0  0  0  0  0  0  0  0
   36.0120   29.1690   49.9820 C   0  0  0  0  0  0  0  0  0  0  0  0
   36.3590   29.3650   51.2630 N   0  0  0  0  0  0  0  0  0  0  0  0
   37.6760   30.3760   52.5660 H   0  0  0  0  0  0  0  0  0  0  0  0
   38.8850   31.5330   50.7330 H   0  0  0  0  0  0  0  0  0  0  0  0
   38.9550   33.2730   49.0300 F   0  0  0  0  0  0  0  0  0  0  0  0
   38.9140   32.4850   47.9630 C   0  0  0  0  0  0  0  0  0  0  0  0
   38.3320   31.2690   48.0760 C   0  0  0  0  0  0  0  0  0  0  0  0
   38.3500   30.5320   46.8850 C   0  0  0  0  0  0  0  0  0  0  0  0
   38.9040   31.0070   45.7320 C   0  0  0  0  0  0  0  0  0  0  0  0
   39.4800   32.2420   45.6680 C   0  0  0  0  0  0  0  0  0  0  0  0
   39.4790   32.9840   46.8110 C   0  0  0  0  0  0  0  0  0  0  0  0
   37.9020   29.5290   46.8700 H   0  0  0  0  0  0  0  0  0  0  0  0
   38.8760   30.3650   44.8410 H   0  0  0  0  0  0  0  0  0  0  0  0
   39.9070   32.5770   44.7330 H   0  0  0  0  0  0  0  0  0  0  0  0
   39.9330   33.9710   46.7820 H   0  0  0  0  0  0  0  0  0  0  0  0
   35.0130   28.3660   49.5050 O   0  0  0  0  0  0  0  0  0  0  0  0
   34.4970   28.6130   48.2060 C   0  0  0  0  0  0  0  0  0  0  0  0
   35.3070   28.8240   47.4740 H   0  0  0  0  0  0  0  0  0  0  0  0
   33.8610   29.5230   48.2590 H   0  0  0  0  0  0  0  0  0  0  0  0
   33.6080   27.4800   47.7710 C   0  0  0  0  0  0  0  0  0  0  0  0
   33.9410   27.1770   46.7580 H   0  0  0  0  0  0  0  0  0  0  0  0
   33.7370   26.5760   48.4070 H   0  0  0  0  0  0  0  0  0  0  0  0
   32.1770   27.8530   47.7490 C   0  0  0  0  0  0  0  0  0  0  0  0
   31.3730   27.4040   48.7960 C   0  0  0  0  0  0  0  0  0  0  0  0
   30.0390   27.6980   48.8630 C   0  0  0  0  0  0  0  0  0  0  0  0
   29.4850   28.4300   47.9070 N   0  0  0  0  0  0  0  0  0  0  0  0
   30.2710   28.8710   46.8780 C   0  0  0  0  0  0  0  0  0  0  0  0
   31.6010   28.6020   46.7760 N   0  0  0  0  0  0  0  0  0  0  0  0
   31.8230   26.8010   49.5860 H   0  0  0  0  0  0  0  0  0  0  0  0
   29.4430   27.3350   49.6880 H   0  0  0  0  0  0  0  0  0  0  0  0
   29.7420   29.7040   45.7520 C   0  0  0  0  0  0  0  0  0  0  0  0
   28.5360   30.2870   46.1630 F   0  0  0  0  0  0  0  0  0  0  0  0
   29.5470   28.9770   44.6090 F   0  0  0  0  0  0  0  0  0  0  0  0
   30.5840   30.7640   45.4870 F   0  0  0  0  0  0  0  0  0  0  0  0
  1  7  1  0  0  0  0
  2  8  1  0  0  0  0
  2  1  2  0  0  0  0
  3  2  1  0  0  0  0
  4  3  2  0  0  0  0
  4  5  1  0  0  0  0
  5  6  2  0  0  0  0
  6  1  1  0  0  0  0
 10 11  1  0  0  0  0
 10  9  1  0  0  0  0
 11  3  1  0  0  0  0
 12 11  2  0  0  0  0
 13 12  1  0  0  0  0
 14 13  2  0  0  0  0
 14 15  1  0  0  0  0
 15 10  2  0  0  0  0
 16 12  1  0  0  0  0
 17 13  1  0  0  0  0
 18 14  1  0  0  0  0
 19 15  1  0  0  0  0
 20  5  1  0  0  0  0
 21 23  1  0  0  0  0
 21 20  1  0  0  0  0
 22 21  1  0  0  0  0
 24 21  1  0  0  0  0
 24 26  1  0  0  0  0
 25 24  1  0  0  0  0
 27 24  1  0  0  0  0
 27 28  1  0  0  0  0
 28 29  2  0  0  0  0
 28 33  1  0  0  0  0
 29 34  1  0  0  0  0
 30 29  1  0  0  0  0
 31 30  2  0  0  0  0
 32 31  1  0  0  0  0
 32 27  2  0  0  0  0
 35 36  1  0  0  0  0
 35 31  1  0  0  0  0
 37 35  1  0  0  0  0
 38 35  1  0  0  0  0
M  END
>  <minimizedAffinity>
-6.39594126

>  <minimizedRMSD>
0.148550138

$$$$
