
 OpenBabel03272509373D

 25 26  0  0  1  0  0  0  0  0999 V2000
   37.1750   31.3490   48.4040 C   0  0  0  0  0  0  0  0  0  0  0  0
   36.8530   31.9920   49.6260 C   0  0  0  0  0  0  0  0  0  0  0  0
   37.5560   33.1070   50.0990 C   0  0  0  0  0  0  0  0  0  0  0  0
   38.6210   33.5800   49.2930 C   0  0  0  0  0  0  0  0  0  0  0  0
   38.9100   32.9180   48.0890 C   0  0  0  0  0  0  0  0  0  0  0  0
   38.2050   31.8220   47.6520 C   0  0  0  0  0  0  0  0  0  0  0  0
   36.0310   31.5970   50.2080 H   0  0  0  0  0  0  0  0  0  0  0  0
   37.2320   33.5070   51.0260 H   0  0  0  0  0  0  0  0  0  0  0  0
   39.1120   34.4270   49.7010 H   0  0  0  0  0  0  0  0  0  0  0  0
   39.7320   33.4070   47.6200 H   0  0  0  0  0  0  0  0  0  0  0  0
   38.7710   31.2920   46.4040 C   0  0  0  0  0  0  0  0  0  0  0  0
   38.2280   31.6380   45.2270 F   0  0  0  0  0  0  0  0  0  0  0  0
   38.8000   29.8740   46.4620 F   0  0  0  0  0  0  0  0  0  0  0  0
   40.1320   31.5800   46.2540 F   0  0  0  0  0  0  0  0  0  0  0  0
   36.3510   30.2050   48.0250 C   0  0  1  0  0  0  0  0  0  0  0  0
   36.5660   29.1450   48.7240 O   0  0  0  0  0  0  0  0  0  0  0  0
   33.0660   30.4610   46.5150 C   0  0  0  0  0  0  0  0  0  0  0  0
   33.3060   30.2990   45.1580 C   0  0  0  0  0  0  0  0  0  0  0  0
   34.6200   30.0810   44.7260 C   0  0  0  0  0  0  0  0  0  0  0  0
   35.6360   30.0340   45.6590 N   0  0  0  0  0  0  0  0  0  0  0  0
   35.3550   30.1970   46.9660 C   0  0  0  0  0  0  0  0  0  0  0  0
   34.0790   30.4050   47.3740 N   0  0  0  0  0  0  0  0  0  0  0  0
   32.0740   30.6260   46.8560 H   0  0  0  0  0  0  0  0  0  0  0  0
   32.4710   30.3470   44.4690 H   0  0  0  0  0  0  0  0  0  0  0  0
   34.8300   29.9530   43.6830 H   0  0  0  0  0  0  0  0  0  0  0  0
  1  2  1  0  0  0  0
  2  3  2  0  0  0  0
  2  7  1  0  0  0  0
  3  8  1  0  0  0  0
  4  9  1  0  0  0  0
  4  3  1  0  0  0  0
  5  4  2  0  0  0  0
  6  5  1  0  0  0  0
  6  1  2  0  0  0  0
 10  5  1  0  0  0  0
 11 13  1  0  0  0  0
 11  6  1  0  0  0  0
 12 11  1  0  0  0  0
 14 11  1  0  0  0  0
 15  1  1  0  0  0  0
 15 16  1  1  0  0  0
 17 23  1  0  0  0  0
 17 22  1  0  0  0  0
 18 17  2  0  0  0  0
 19 18  1  0  0  0  0
 19 20  2  0  0  0  0
 20 21  1  0  0  0  0
 21 22  2  0  0  0  0
 21 15  1  0  0  0  0
 24 18  1  0  0  0  0
 25 19  1  0  0  0  0
M  END
>  <minimizedAffinity>
-4.83767462

>  <minimizedRMSD>
2.22184563

$$$$
