
 OpenBabel03272506193D

 29 30  0  0  0  0  0  0  0  0999 V2000
   38.2700   26.2250   34.0900 C   0  0  0  0  0  0  0  0  0  0  0  0
   37.8390   27.3640   34.9930 C   0  0  0  0  0  0  0  0  0  0  0  0
   36.5380   27.9760   34.5740 C   0  0  0  0  0  0  0  0  0  0  0  0
   36.5050   28.3990   33.1370 C   0  0  0  0  0  0  0  0  0  0  0  0
   37.2000   27.4450   32.2110 C   0  0  0  0  0  0  0  0  0  0  0  0
   37.4360   26.0960   32.8580 C   0  0  0  0  0  0  0  0  0  0  0  0
   39.3270   26.3350   33.8030 H   0  0  0  0  0  0  0  0  0  0  0  0
   37.7520   27.0740   36.0540 H   0  0  0  0  0  0  0  0  0  0  0  0
   38.6260   28.1380   34.9320 H   0  0  0  0  0  0  0  0  0  0  0  0
   35.7050   27.3050   34.8540 H   0  0  0  0  0  0  0  0  0  0  0  0
   36.4010   28.8980   35.1800 H   0  0  0  0  0  0  0  0  0  0  0  0
   35.4190   28.3990   32.8220 H   0  0  0  0  0  0  0  0  0  0  0  0
   36.8320   29.4670   32.9900 H   0  0  0  0  0  0  0  0  0  0  0  0
   36.7580   27.3650   31.2210 H   0  0  0  0  0  0  0  0  0  0  0  0
   38.2330   27.8800   32.0690 H   0  0  0  0  0  0  0  0  0  0  0  0
   37.9730   25.4600   32.1320 H   0  0  0  0  0  0  0  0  0  0  0  0
   36.4950   25.5760   33.0930 H   0  0  0  0  0  0  0  0  0  0  0  0
   38.1780   24.9290   34.8320 C   0  0  0  0  0  0  0  0  0  0  0  0
   38.2160   25.0300   36.2360 C   0  0  0  0  0  0  0  0  0  0  0  0
   38.1420   23.8200   36.9530 C   0  0  0  0  0  0  0  0  0  0  0  0
   38.0370   22.6330   36.2660 N   0  0  0  0  0  0  0  0  0  0  0  0
   38.0040   22.6020   34.9000 C   0  0  0  0  0  0  0  0  0  0  0  0
   38.0730   23.7340   34.2060 N   0  0  0  0  0  0  0  0  0  0  0  0
   38.2990   25.9430   36.8050 H   0  0  0  0  0  0  0  0  0  0  0  0
   37.9210   21.6250   34.4560 H   0  0  0  0  0  0  0  0  0  0  0  0
   38.1700   23.7570   38.4350 C   0  0  0  0  0  0  0  0  0  0  0  0
   37.9520   25.0260   38.9530 F   0  0  0  0  0  0  0  0  0  0  0  0
   37.2910   22.8160   38.9050 F   0  0  0  0  0  0  0  0  0  0  0  0
   39.4560   23.3940   38.8400 F   0  0  0  0  0  0  0  0  0  0  0  0
  1 18  1  0  0  0  0
  1  2  1  0  0  0  0
  2  8  1  0  0  0  0
  3 10  1  0  0  0  0
  3  2  1  0  0  0  0
  3 11  1  0  0  0  0
  4  3  1  0  0  0  0
  5  6  1  0  0  0  0
  5  4  1  0  0  0  0
  6 17  1  0  0  0  0
  6  1  1  0  0  0  0
  7  1  1  0  0  0  0
  9  2  1  0  0  0  0
 12  4  1  0  0  0  0
 13  4  1  0  0  0  0
 14  5  1  0  0  0  0
 15  5  1  0  0  0  0
 16  6  1  0  0  0  0
 18 19  1  0  0  0  0
 19 24  1  0  0  0  0
 19 20  2  0  0  0  0
 20 26  1  0  0  0  0
 21 20  1  0  0  0  0
 22 21  2  0  0  0  0
 23 18  2  0  0  0  0
 23 22  1  0  0  0  0
 25 22  1  0  0  0  0
 26 29  1  0  0  0  0
 26 28  1  0  0  0  0
 26 27  1  0  0  0  0
M  END
>  <minimizedAffinity>
-5.38542128

$$$$

 OpenBabel03272506193D

 29 30  0  0  0  0  0  0  0  0999 V2000
   37.3770   21.6650   33.7990 C   0  0  0  0  0  0  0  0  0  0  0  0
   37.0840   22.1230   32.3830 C   0  0  0  0  0  0  0  0  0  0  0  0
   35.6270   22.0630   32.0430 C   0  0  0  0  0  0  0  0  0  0  0  0
   35.0010   20.7270   32.3050 C   0  0  0  0  0  0  0  0  0  0  0  0
   35.4910   20.0670   33.5610 C   0  0  0  0  0  0  0  0  0  0  0  0
   36.1990   21.0440   34.4760 C   0  0  0  0  0  0  0  0  0  0  0  0
   38.2180   20.9550   33.8120 H   0  0  0  0  0  0  0  0  0  0  0  0
   37.4400   23.1460   32.1710 H   0  0  0  0  0  0  0  0  0  0  0  0
   37.6310   21.4430   31.7060 H   0  0  0  0  0  0  0  0  0  0  0  0
   35.0970   22.9000   32.5330 H   0  0  0  0  0  0  0  0  0  0  0  0
   35.5390   22.2460   30.9500 H   0  0  0  0  0  0  0  0  0  0  0  0
   33.8960   20.9100   32.4630 H   0  0  0  0  0  0  0  0  0  0  0  0
   35.0400   20.0440   31.4110 H   0  0  0  0  0  0  0  0  0  0  0  0
   34.7490   19.4670   34.0810 H   0  0  0  0  0  0  0  0  0  0  0  0
   36.2990   19.3560   33.2180 H   0  0  0  0  0  0  0  0  0  0  0  0
   36.5540   20.4850   35.3610 H   0  0  0  0  0  0  0  0  0  0  0  0
   35.5240   21.8280   34.8530 H   0  0  0  0  0  0  0  0  0  0  0  0
   37.8080   22.8310   34.6290 C   0  0  0  0  0  0  0  0  0  0  0  0
   37.7730   22.6310   36.0220 C   0  0  0  0  0  0  0  0  0  0  0  0
   38.1650   23.7220   36.8220 C   0  0  0  0  0  0  0  0  0  0  0  0
   38.5530   24.8960   36.2210 N   0  0  0  0  0  0  0  0  0  0  0  0
   38.5660   25.0280   34.8600 C   0  0  0  0  0  0  0  0  0  0  0  0
   38.2000   24.0090   34.0890 N   0  0  0  0  0  0  0  0  0  0  0  0
   37.4740   21.7250   36.5260 H   0  0  0  0  0  0  0  0  0  0  0  0
   38.8850   25.9850   34.4860 H   0  0  0  0  0  0  0  0  0  0  0  0
   38.1820   23.6700   38.3050 C   0  0  0  0  0  0  0  0  0  0  0  0
   37.9890   24.9480   38.8110 F   0  0  0  0  0  0  0  0  0  0  0  0
   37.2800   22.7520   38.7760 F   0  0  0  0  0  0  0  0  0  0  0  0
   39.4580   23.2820   38.7210 F   0  0  0  0  0  0  0  0  0  0  0  0
  1  7  1  0  0  0  0
  1  6  1  0  0  0  0
  1 18  1  0  0  0  0
  2  1  1  0  0  0  0
  3  4  1  0  0  0  0
  3  2  1  0  0  0  0
  3 10  1  0  0  0  0
  4 12  1  0  0  0  0
  4  5  1  0  0  0  0
  5 14  1  0  0  0  0
  5  6  1  0  0  0  0
  6 17  1  0  0  0  0
  6 16  1  0  0  0  0
  8  2  1  0  0  0  0
  9  2  1  0  0  0  0
 11  3  1  0  0  0  0
 13  4  1  0  0  0  0
 15  5  1  0  0  0  0
 18 19  1  0  0  0  0
 19 24  1  0  0  0  0
 19 20  2  0  0  0  0
 20 26  1  0  0  0  0
 21 20  1  0  0  0  0
 22 21  2  0  0  0  0
 23 18  2  0  0  0  0
 23 22  1  0  0  0  0
 25 22  1  0  0  0  0
 26 29  1  0  0  0  0
 26 28  1  0  0  0  0
 26 27  1  0  0  0  0
M  END
>  <minimizedAffinity>
-5.32768774

$$$$

 OpenBabel03272506193D

 29 30  0  0  0  0  0  0  0  0999 V2000
   37.4200   25.5620   33.8570 C   0  0  0  0  0  0  0  0  0  0  0  0
   38.0350   25.5310   32.4710 C   0  0  0  0  0  0  0  0  0  0  0  0
   38.5810   26.8610   32.0500 C   0  0  0  0  0  0  0  0  0  0  0  0
   37.5940   27.9820   32.1640 C   0  0  0  0  0  0  0  0  0  0  0  0
   36.7250   27.8980   33.3840 C   0  0  0  0  0  0  0  0  0  0  0  0
   37.2840   26.9400   34.4150 C   0  0  0  0  0  0  0  0  0  0  0  0
   36.4340   25.0730   33.8550 H   0  0  0  0  0  0  0  0  0  0  0  0
   38.8410   24.7840   32.3660 H   0  0  0  0  0  0  0  0  0  0  0  0
   37.2320   25.2430   31.7690 H   0  0  0  0  0  0  0  0  0  0  0  0
   39.5320   27.0560   32.5780 H   0  0  0  0  0  0  0  0  0  0  0  0
   38.8450   26.7770   30.9730 H   0  0  0  0  0  0  0  0  0  0  0  0
   38.1940   28.9340   32.2770 H   0  0  0  0  0  0  0  0  0  0  0  0
   37.0040   28.1410   31.2180 H   0  0  0  0  0  0  0  0  0  0  0  0
   36.4430   28.8570   33.8110 H   0  0  0  0  0  0  0  0  0  0  0  0
   35.7700   27.4100   33.0260 H   0  0  0  0  0  0  0  0  0  0  0  0
   36.5820   26.9100   35.2670 H   0  0  0  0  0  0  0  0  0  0  0  0
   38.2500   27.2800   34.8190 H   0  0  0  0  0  0  0  0  0  0  0  0
   38.2680   24.7750   34.8050 C   0  0  0  0  0  0  0  0  0  0  0  0
   37.8200   24.7450   36.1390 C   0  0  0  0  0  0  0  0  0  0  0  0
   38.6110   24.0190   37.0500 C   0  0  0  0  0  0  0  0  0  0  0  0
   39.7510   23.3920   36.6040 N   0  0  0  0  0  0  0  0  0  0  0  0
   40.1340   23.4580   35.2930 C   0  0  0  0  0  0  0  0  0  0  0  0
   39.3990   24.1390   34.4190 N   0  0  0  0  0  0  0  0  0  0  0  0
   36.9330   25.2250   36.5210 H   0  0  0  0  0  0  0  0  0  0  0  0
   41.0400   22.9350   35.0430 H   0  0  0  0  0  0  0  0  0  0  0  0
   38.2740   23.8920   38.4890 C   0  0  0  0  0  0  0  0  0  0  0  0
   37.9010   25.1330   38.9850 F   0  0  0  0  0  0  0  0  0  0  0  0
   37.3320   22.9170   38.6900 F   0  0  0  0  0  0  0  0  0  0  0  0
   39.4300   23.5330   39.1860 F   0  0  0  0  0  0  0  0  0  0  0  0
  1  6  1  0  0  0  0
  1 18  1  0  0  0  0
  2  1  1  0  0  0  0
  3  4  1  0  0  0  0
  3  2  1  0  0  0  0
  3 10  1  0  0  0  0
  4 12  1  0  0  0  0
  4  5  1  0  0  0  0
  5 14  1  0  0  0  0
  5  6  1  0  0  0  0
  6 17  1  0  0  0  0
  6 16  1  0  0  0  0
  7  1  1  0  0  0  0
  8  2  1  0  0  0  0
  9  2  1  0  0  0  0
 11  3  1  0  0  0  0
 13  4  1  0  0  0  0
 15  5  1  0  0  0  0
 18 19  1  0  0  0  0
 19 24  1  0  0  0  0
 19 20  2  0  0  0  0
 20 26  1  0  0  0  0
 21 20  1  0  0  0  0
 22 21  2  0  0  0  0
 23 18  2  0  0  0  0
 23 22  1  0  0  0  0
 25 22  1  0  0  0  0
 26 28  1  0  0  0  0
 26 27  1  0  0  0  0
 26 29  1  0  0  0  0
M  END
>  <minimizedAffinity>
-4.92656422

$$$$

 OpenBabel03272506193D

 29 30  0  0  0  0  0  0  0  0999 V2000
   38.8400   23.7760   35.7500 C   0  0  0  0  0  0  0  0  0  0  0  0
   40.1340   23.2860   36.3710 C   0  0  0  0  0  0  0  0  0  0  0  0
   39.9280   22.6270   37.7000 C   0  0  0  0  0  0  0  0  0  0  0  0
   39.1580   23.4640   38.6750 C   0  0  0  0  0  0  0  0  0  0  0  0
   38.0290   24.2320   38.0530 C   0  0  0  0  0  0  0  0  0  0  0  0
   37.6730   23.7030   36.6790 C   0  0  0  0  0  0  0  0  0  0  0  0
   38.9500   24.8090   35.3860 H   0  0  0  0  0  0  0  0  0  0  0  0
   40.6920   22.5850   35.7270 H   0  0  0  0  0  0  0  0  0  0  0  0
   40.7770   24.1740   36.5160 H   0  0  0  0  0  0  0  0  0  0  0  0
   39.4990   21.6190   37.5510 H   0  0  0  0  0  0  0  0  0  0  0  0
   40.9340   22.4660   38.1440 H   0  0  0  0  0  0  0  0  0  0  0  0
   38.6780   22.7500   39.4090 H   0  0  0  0  0  0  0  0  0  0  0  0
   39.8230   24.1090   39.3160 H   0  0  0  0  0  0  0  0  0  0  0  0
   37.1590   24.3640   38.6900 H   0  0  0  0  0  0  0  0  0  0  0  0
   38.4500   25.2630   37.8630 H   0  0  0  0  0  0  0  0  0  0  0  0
   36.8590   24.3310   36.2740 H   0  0  0  0  0  0  0  0  0  0  0  0
   37.2840   22.6740   36.7160 H   0  0  0  0  0  0  0  0  0  0  0  0
   38.5110   22.9480   34.5490 C   0  0  0  0  0  0  0  0  0  0  0  0
   37.3310   22.1860   34.6420 C   0  0  0  0  0  0  0  0  0  0  0  0
   37.0090   21.3910   33.5260 C   0  0  0  0  0  0  0  0  0  0  0  0
   37.8390   21.3980   32.4290 N   0  0  0  0  0  0  0  0  0  0  0  0
   38.9730   22.1610   32.4000 C   0  0  0  0  0  0  0  0  0  0  0  0
   39.2930   22.9190   33.4440 N   0  0  0  0  0  0  0  0  0  0  0  0
   36.6590   22.1570   35.4860 H   0  0  0  0  0  0  0  0  0  0  0  0
   39.5560   22.0980   31.4970 H   0  0  0  0  0  0  0  0  0  0  0  0
   35.8010   20.5320   33.4680 C   0  0  0  0  0  0  0  0  0  0  0  0
   35.3580   20.2750   34.7580 F   0  0  0  0  0  0  0  0  0  0  0  0
   34.8410   21.0850   32.6600 F   0  0  0  0  0  0  0  0  0  0  0  0
   36.1610   19.2930   32.9330 F   0  0  0  0  0  0  0  0  0  0  0  0
  1  2  1  0  0  0  0
  1  6  1  0  0  0  0
  2  9  1  0  0  0  0
  2  3  1  0  0  0  0
  3 11  1  0  0  0  0
  3  4  1  0  0  0  0
  4 13  1  0  0  0  0
  4 12  1  0  0  0  0
  5  4  1  0  0  0  0
  5 14  1  0  0  0  0
  6 17  1  0  0  0  0
  6  5  1  0  0  0  0
  7  1  1  0  0  0  0
  8  2  1  0  0  0  0
 10  3  1  0  0  0  0
 15  5  1  0  0  0  0
 16  6  1  0  0  0  0
 18 19  1  0  0  0  0
 18  1  1  0  0  0  0
 19 24  1  0  0  0  0
 20 19  2  0  0  0  0
 21 20  1  0  0  0  0
 22 21  2  0  0  0  0
 22 23  1  0  0  0  0
 23 18  2  0  0  0  0
 25 22  1  0  0  0  0
 26 20  1  0  0  0  0
 26 27  1  0  0  0  0
 28 26  1  0  0  0  0
 29 26  1  0  0  0  0
M  END
>  <minimizedAffinity>
-4.67814255

$$$$

 OpenBabel03272506193D

 29 30  0  0  0  0  0  0  0  0999 V2000
   39.7180   25.1000   33.8440 C   0  0  0  0  0  0  0  0  0  0  0  0
   41.0850   24.5380   33.5050 C   0  0  0  0  0  0  0  0  0  0  0  0
   42.2000   25.2810   34.1720 C   0  0  0  0  0  0  0  0  0  0  0  0
   42.1660   26.7600   33.9360 C   0  0  0  0  0  0  0  0  0  0  0  0
   40.7820   27.3410   33.9520 C   0  0  0  0  0  0  0  0  0  0  0  0
   39.7780   26.3980   34.5810 C   0  0  0  0  0  0  0  0  0  0  0  0
   39.1130   25.2280   32.9340 H   0  0  0  0  0  0  0  0  0  0  0  0
   41.1920   23.4680   33.7540 H   0  0  0  0  0  0  0  0  0  0  0  0
   41.2070   24.6280   32.4110 H   0  0  0  0  0  0  0  0  0  0  0  0
   42.2410   25.0070   35.2420 H   0  0  0  0  0  0  0  0  0  0  0  0
   43.1500   24.9110   33.7280 H   0  0  0  0  0  0  0  0  0  0  0  0
   42.7130   27.2410   34.8010 H   0  0  0  0  0  0  0  0  0  0  0  0
   42.7580   27.0710   33.0300 H   0  0  0  0  0  0  0  0  0  0  0  0
   40.7150   28.3510   34.3490 H   0  0  0  0  0  0  0  0  0  0  0  0
   40.4790   27.4000   32.8650 H   0  0  0  0  0  0  0  0  0  0  0  0
   38.7840   26.8780   34.5330 H   0  0  0  0  0  0  0  0  0  0  0  0
   39.9860   26.2170   35.6470 H   0  0  0  0  0  0  0  0  0  0  0  0
   38.9710   24.1300   34.7030 C   0  0  0  0  0  0  0  0  0  0  0  0
   39.0020   24.3940   36.0860 C   0  0  0  0  0  0  0  0  0  0  0  0
   38.3140   23.4860   36.9130 C   0  0  0  0  0  0  0  0  0  0  0  0
   37.6620   22.4160   36.3460 N   0  0  0  0  0  0  0  0  0  0  0  0
   37.6690   22.2140   34.9950 C   0  0  0  0  0  0  0  0  0  0  0  0
   38.3130   23.0610   34.1980 N   0  0  0  0  0  0  0  0  0  0  0  0
   39.5030   25.2230   36.5630 H   0  0  0  0  0  0  0  0  0  0  0  0
   37.1310   21.3480   34.6480 H   0  0  0  0  0  0  0  0  0  0  0  0
   38.2530   23.6260   38.3890 C   0  0  0  0  0  0  0  0  0  0  0  0
   37.2810   22.7720   38.8910 F   0  0  0  0  0  0  0  0  0  0  0  0
   39.4890   23.4400   38.9530 F   0  0  0  0  0  0  0  0  0  0  0  0
   37.8230   24.9180   38.6960 F   0  0  0  0  0  0  0  0  0  0  0  0
  1  6  1  0  0  0  0
  1 18  1  0  0  0  0
  2  8  1  0  0  0  0
  2  1  1  0  0  0  0
  2  3  1  0  0  0  0
  3 10  1  0  0  0  0
  4  5  1  0  0  0  0
  4  3  1  0  0  0  0
  4 12  1  0  0  0  0
  5 14  1  0  0  0  0
  5  6  1  0  0  0  0
  6 17  1  0  0  0  0
  7  1  1  0  0  0  0
  9  2  1  0  0  0  0
 11  3  1  0  0  0  0
 13  4  1  0  0  0  0
 15  5  1  0  0  0  0
 16  6  1  0  0  0  0
 18 19  1  0  0  0  0
 19 24  1  0  0  0  0
 19 20  2  0  0  0  0
 20 26  1  0  0  0  0
 21 20  1  0  0  0  0
 22 21  2  0  0  0  0
 23 18  2  0  0  0  0
 23 22  1  0  0  0  0
 25 22  1  0  0  0  0
 26 29  1  0  0  0  0
 26 27  1  0  0  0  0
 26 28  1  0  0  0  0
M  END
>  <minimizedAffinity>
-4.67699432

$$$$

 OpenBabel03272506193D

 29 30  0  0  0  0  0  0  0  0999 V2000
   38.8510   26.2970   34.7420 C   0  0  0  0  0  0  0  0  0  0  0  0
   38.0490   27.4510   35.3120 C   0  0  0  0  0  0  0  0  0  0  0  0
   36.7780   27.7010   34.5600 C   0  0  0  0  0  0  0  0  0  0  0  0
   36.9730   27.8730   33.0850 C   0  0  0  0  0  0  0  0  0  0  0  0
   38.0030   26.9500   32.5010 C   0  0  0  0  0  0  0  0  0  0  0  0
   38.3290   25.8020   33.4340 C   0  0  0  0  0  0  0  0  0  0  0  0
   39.9090   26.5790   34.6270 H   0  0  0  0  0  0  0  0  0  0  0  0
   37.7930   27.3230   36.3780 H   0  0  0  0  0  0  0  0  0  0  0  0
   38.6840   28.3520   35.2380 H   0  0  0  0  0  0  0  0  0  0  0  0
   36.0350   26.9240   34.8190 H   0  0  0  0  0  0  0  0  0  0  0  0
   36.3590   28.6590   34.9390 H   0  0  0  0  0  0  0  0  0  0  0  0
   35.9950   27.5940   32.5920 H   0  0  0  0  0  0  0  0  0  0  0  0
   37.1330   28.9470   32.7890 H   0  0  0  0  0  0  0  0  0  0  0  0
   37.7990   26.6210   31.4860 H   0  0  0  0  0  0  0  0  0  0  0  0
   38.9510   27.5630   32.4590 H   0  0  0  0  0  0  0  0  0  0  0  0
   39.1090   25.1840   32.9530 H   0  0  0  0  0  0  0  0  0  0  0  0
   37.4650   25.1400   33.5990 H   0  0  0  0  0  0  0  0  0  0  0  0
   38.8330   25.1470   35.6980 C   0  0  0  0  0  0  0  0  0  0  0  0
   39.9880   24.3440   35.7030 C   0  0  0  0  0  0  0  0  0  0  0  0
   39.9860   23.2480   36.5880 C   0  0  0  0  0  0  0  0  0  0  0  0
   38.8860   23.0240   37.3830 N   0  0  0  0  0  0  0  0  0  0  0  0
   37.7920   23.8420   37.3310 C   0  0  0  0  0  0  0  0  0  0  0  0
   37.7760   24.8810   36.5020 N   0  0  0  0  0  0  0  0  0  0  0  0
   40.8670   24.4900   35.0940 H   0  0  0  0  0  0  0  0  0  0  0  0
   36.9820   23.5830   37.9910 H   0  0  0  0  0  0  0  0  0  0  0  0
   41.1270   22.3070   36.7120 C   0  0  0  0  0  0  0  0  0  0  0  0
   40.9880   21.5680   37.8770 F   0  0  0  0  0  0  0  0  0  0  0  0
   41.2530   21.5360   35.5850 F   0  0  0  0  0  0  0  0  0  0  0  0
   42.3000   23.0500   36.8670 F   0  0  0  0  0  0  0  0  0  0  0  0
  1  2  1  0  0  0  0
  1 18  1  0  0  0  0
  2  8  1  0  0  0  0
  3 10  1  0  0  0  0
  3 11  1  0  0  0  0
  3  2  1  0  0  0  0
  4  3  1  0  0  0  0
  5  4  1  0  0  0  0
  5  6  1  0  0  0  0
  6 17  1  0  0  0  0
  6  1  1  0  0  0  0
  7  1  1  0  0  0  0
  9  2  1  0  0  0  0
 12  4  1  0  0  0  0
 13  4  1  0  0  0  0
 14  5  1  0  0  0  0
 15  5  1  0  0  0  0
 16  6  1  0  0  0  0
 18 19  2  0  0  0  0
 18 23  1  0  0  0  0
 19 20  1  0  0  0  0
 20 26  1  0  0  0  0
 20 21  2  0  0  0  0
 22 21  1  0  0  0  0
 22 25  1  0  0  0  0
 23 22  2  0  0  0  0
 24 19  1  0  0  0  0
 26 29  1  0  0  0  0
 26 27  1  0  0  0  0
 28 26  1  0  0  0  0
M  END
>  <minimizedAffinity>
-4.67225742

$$$$

 OpenBabel03272506193D

 29 30  0  0  0  0  0  0  0  0999 V2000
   38.2590   22.1310   35.8340 C   0  0  0  0  0  0  0  0  0  0  0  0
   37.2490   22.6430   36.8420 C   0  0  0  0  0  0  0  0  0  0  0  0
   37.7910   23.7450   37.6990 C   0  0  0  0  0  0  0  0  0  0  0  0
   39.0840   23.4030   38.3750 C   0  0  0  0  0  0  0  0  0  0  0  0
   40.0240   22.6110   37.5140 C   0  0  0  0  0  0  0  0  0  0  0  0
   39.6360   22.6660   36.0510 C   0  0  0  0  0  0  0  0  0  0  0  0
   38.2930   21.0300   35.8410 H   0  0  0  0  0  0  0  0  0  0  0  0
   36.3120   23.0010   36.3810 H   0  0  0  0  0  0  0  0  0  0  0  0
   36.9840   21.7900   37.4930 H   0  0  0  0  0  0  0  0  0  0  0  0
   37.8350   24.6820   37.1140 H   0  0  0  0  0  0  0  0  0  0  0  0
   37.0480   23.9250   38.5060 H   0  0  0  0  0  0  0  0  0  0  0  0
   39.6100   24.3810   38.5860 H   0  0  0  0  0  0  0  0  0  0  0  0
   38.9360   22.9460   39.3930 H   0  0  0  0  0  0  0  0  0  0  0  0
   41.0780   22.8190   37.6770 H   0  0  0  0  0  0  0  0  0  0  0  0
   39.8550   21.5350   37.8150 H   0  0  0  0  0  0  0  0  0  0  0  0
   40.3520   22.0420   35.4860 H   0  0  0  0  0  0  0  0  0  0  0  0
   39.7150   23.6830   35.6360 H   0  0  0  0  0  0  0  0  0  0  0  0
   37.8380   22.5200   34.4530 C   0  0  0  0  0  0  0  0  0  0  0  0
   36.9610   21.6260   33.8110 C   0  0  0  0  0  0  0  0  0  0  0  0
   36.5620   21.9690   32.5050 C   0  0  0  0  0  0  0  0  0  0  0  0
   37.0330   23.1290   31.9360 N   0  0  0  0  0  0  0  0  0  0  0  0
   37.8840   23.9580   32.6130 C   0  0  0  0  0  0  0  0  0  0  0  0
   38.2720   23.6500   33.8470 N   0  0  0  0  0  0  0  0  0  0  0  0
   36.5730   20.7090   34.2260 H   0  0  0  0  0  0  0  0  0  0  0  0
   38.1980   24.8400   32.0830 H   0  0  0  0  0  0  0  0  0  0  0  0
   35.6420   21.1310   31.6950 C   0  0  0  0  0  0  0  0  0  0  0  0
   36.3460   20.0630   31.1590 F   0  0  0  0  0  0  0  0  0  0  0  0
   34.5470   20.7530   32.4290 F   0  0  0  0  0  0  0  0  0  0  0  0
   35.1990   21.8840   30.6050 F   0  0  0  0  0  0  0  0  0  0  0  0
  1  7  1  0  0  0  0
  1  6  1  0  0  0  0
  1  2  1  0  0  0  0
  2  9  1  0  0  0  0
  2  3  1  0  0  0  0
  3  4  1  0  0  0  0
  3 11  1  0  0  0  0
  4 12  1  0  0  0  0
  4 13  1  0  0  0  0
  5 14  1  0  0  0  0
  5 15  1  0  0  0  0
  5  4  1  0  0  0  0
  6  5  1  0  0  0  0
  8  2  1  0  0  0  0
 10  3  1  0  0  0  0
 16  6  1  0  0  0  0
 17  6  1  0  0  0  0
 18  1  1  0  0  0  0
 19 24  1  0  0  0  0
 19 18  2  0  0  0  0
 20 19  1  0  0  0  0
 21 20  2  0  0  0  0
 21 22  1  0  0  0  0
 22 23  2  0  0  0  0
 23 18  1  0  0  0  0
 25 22  1  0  0  0  0
 26 28  1  0  0  0  0
 26 20  1  0  0  0  0
 27 26  1  0  0  0  0
 29 26  1  0  0  0  0
M  END
>  <minimizedAffinity>
-4.63576555

$$$$

 OpenBabel03272506193D

 29 30  0  0  0  0  0  0  0  0999 V2000
   34.6240   30.5470   34.1720 C   0  0  0  0  0  0  0  0  0  0  0  0
   35.6540   31.5350   34.6840 C   0  0  0  0  0  0  0  0  0  0  0  0
   35.6400   31.6670   36.1760 C   0  0  0  0  0  0  0  0  0  0  0  0
   34.2880   31.9750   36.7420 C   0  0  0  0  0  0  0  0  0  0  0  0
   33.1680   31.2460   36.0580 C   0  0  0  0  0  0  0  0  0  0  0  0
   33.6710   30.0850   35.2260 C   0  0  0  0  0  0  0  0  0  0  0  0
   34.0560   30.9760   33.3330 H   0  0  0  0  0  0  0  0  0  0  0  0
   36.6850   31.2930   34.3730 H   0  0  0  0  0  0  0  0  0  0  0  0
   35.4050   32.5170   34.2420 H   0  0  0  0  0  0  0  0  0  0  0  0
   36.1170   30.7800   36.6310 H   0  0  0  0  0  0  0  0  0  0  0  0
   36.2960   32.5280   36.4320 H   0  0  0  0  0  0  0  0  0  0  0  0
   34.2900   31.6050   37.8100 H   0  0  0  0  0  0  0  0  0  0  0  0
   34.0950   33.0810   36.8350 H   0  0  0  0  0  0  0  0  0  0  0  0
   32.3400   30.9710   36.7060 H   0  0  0  0  0  0  0  0  0  0  0  0
   32.7590   31.9840   35.3060 H   0  0  0  0  0  0  0  0  0  0  0  0
   32.7990   29.6170   34.7340 H   0  0  0  0  0  0  0  0  0  0  0  0
   34.1400   29.3020   35.8410 H   0  0  0  0  0  0  0  0  0  0  0  0
   35.3120   29.3360   33.6270 C   0  0  0  0  0  0  0  0  0  0  0  0
   36.2220   28.7100   34.5010 C   0  0  0  0  0  0  0  0  0  0  0  0
   36.8890   27.5750   34.0020 C   0  0  0  0  0  0  0  0  0  0  0  0
   36.6250   27.1430   32.7230 N   0  0  0  0  0  0  0  0  0  0  0  0
   35.7290   27.7950   31.9240 C   0  0  0  0  0  0  0  0  0  0  0  0
   35.0890   28.8680   32.3770 N   0  0  0  0  0  0  0  0  0  0  0  0
   36.4520   29.0230   35.5080 H   0  0  0  0  0  0  0  0  0  0  0  0
   35.5920   27.3800   30.9400 H   0  0  0  0  0  0  0  0  0  0  0  0
   37.8770   26.8050   34.7980 C   0  0  0  0  0  0  0  0  0  0  0  0
   38.6610   26.0440   33.9440 F   0  0  0  0  0  0  0  0  0  0  0  0
   38.6030   27.6330   35.6160 F   0  0  0  0  0  0  0  0  0  0  0  0
   37.1880   25.8930   35.6010 F   0  0  0  0  0  0  0  0  0  0  0  0
  1  2  1  0  0  0  0
  1  6  1  0  0  0  0
  2  3  1  0  0  0  0
  3 11  1  0  0  0  0
  3 10  1  0  0  0  0
  3  4  1  0  0  0  0
  4 13  1  0  0  0  0
  4 12  1  0  0  0  0
  5 14  1  0  0  0  0
  5  4  1  0  0  0  0
  6 17  1  0  0  0  0
  6  5  1  0  0  0  0
  7  1  1  0  0  0  0
  8  2  1  0  0  0  0
  9  2  1  0  0  0  0
 15  5  1  0  0  0  0
 16  6  1  0  0  0  0
 18  1  1  0  0  0  0
 18 19  1  0  0  0  0
 19 24  1  0  0  0  0
 20 19  2  0  0  0  0
 20 26  1  0  0  0  0
 21 20  1  0  0  0  0
 22 23  1  0  0  0  0
 22 21  2  0  0  0  0
 23 18  2  0  0  0  0
 25 22  1  0  0  0  0
 26 29  1  0  0  0  0
 26 28  1  0  0  0  0
 27 26  1  0  0  0  0
M  END
>  <minimizedAffinity>
-4.6126895

$$$$

 OpenBabel03272506193D

 29 30  0  0  0  0  0  0  0  0999 V2000
   37.2400   27.0720   33.7620 C   0  0  0  0  0  0  0  0  0  0  0  0
   37.5030   26.9670   35.2520 C   0  0  0  0  0  0  0  0  0  0  0  0
   38.9240   27.2700   35.6130 C   0  0  0  0  0  0  0  0  0  0  0  0
   39.9270   26.4670   34.8430 C   0  0  0  0  0  0  0  0  0  0  0  0
   39.5620   26.2690   33.4010 C   0  0  0  0  0  0  0  0  0  0  0  0
   38.4840   27.2330   32.9510 C   0  0  0  0  0  0  0  0  0  0  0  0
   36.6840   26.1920   33.4020 H   0  0  0  0  0  0  0  0  0  0  0  0
   36.8510   27.6180   35.8590 H   0  0  0  0  0  0  0  0  0  0  0  0
   37.2810   25.9240   35.5440 H   0  0  0  0  0  0  0  0  0  0  0  0
   39.0960   28.3600   35.5570 H   0  0  0  0  0  0  0  0  0  0  0  0
   39.0530   26.9980   36.6840 H   0  0  0  0  0  0  0  0  0  0  0  0
   40.8880   27.0630   34.8390 H   0  0  0  0  0  0  0  0  0  0  0  0
   40.2040   25.5050   35.3590 H   0  0  0  0  0  0  0  0  0  0  0  0
   40.4060   26.2330   32.7170 H   0  0  0  0  0  0  0  0  0  0  0  0
   39.0720   25.2510   33.3640 H   0  0  0  0  0  0  0  0  0  0  0  0
   38.2490   27.0100   31.8940 H   0  0  0  0  0  0  0  0  0  0  0  0
   38.8210   28.2800   32.9820 H   0  0  0  0  0  0  0  0  0  0  0  0
   36.3670   28.2540   33.4840 C   0  0  0  0  0  0  0  0  0  0  0  0
   36.0900   29.0770   34.5920 C   0  0  0  0  0  0  0  0  0  0  0  0
   35.2600   30.1890   34.3540 C   0  0  0  0  0  0  0  0  0  0  0  0
   34.7750   30.4120   33.0860 N   0  0  0  0  0  0  0  0  0  0  0  0
   35.0810   29.5740   32.0510 C   0  0  0  0  0  0  0  0  0  0  0  0
   35.8630   28.5190   32.2560 N   0  0  0  0  0  0  0  0  0  0  0  0
   36.4530   28.9320   35.5980 H   0  0  0  0  0  0  0  0  0  0  0  0
   34.6520   29.8320   31.0980 H   0  0  0  0  0  0  0  0  0  0  0  0
   34.8760   31.1520   35.4160 C   0  0  0  0  0  0  0  0  0  0  0  0
   33.6950   30.7320   36.0110 F   0  0  0  0  0  0  0  0  0  0  0  0
   35.9010   31.3370   36.3070 F   0  0  0  0  0  0  0  0  0  0  0  0
   34.5890   32.3810   34.8190 F   0  0  0  0  0  0  0  0  0  0  0  0
  1  2  1  0  0  0  0
  2  9  1  0  0  0  0
  2  3  1  0  0  0  0
  2  8  1  0  0  0  0
  3 11  1  0  0  0  0
  4 13  1  0  0  0  0
  4  3  1  0  0  0  0
  5  4  1  0  0  0  0
  6 17  1  0  0  0  0
  6  5  1  0  0  0  0
  6  1  1  0  0  0  0
  7  1  1  0  0  0  0
 10  3  1  0  0  0  0
 12  4  1  0  0  0  0
 14  5  1  0  0  0  0
 15  5  1  0  0  0  0
 16  6  1  0  0  0  0
 18  1  1  0  0  0  0
 18 19  1  0  0  0  0
 19 24  1  0  0  0  0
 20 19  2  0  0  0  0
 20 26  1  0  0  0  0
 21 20  1  0  0  0  0
 22 23  1  0  0  0  0
 22 21  2  0  0  0  0
 23 18  2  0  0  0  0
 25 22  1  0  0  0  0
 26 27  1  0  0  0  0
 26 28  1  0  0  0  0
 29 26  1  0  0  0  0
M  END
>  <minimizedAffinity>
-4.60425472

$$$$
