
 OpenBabel03272510163D

 23 24  0  0  0  0  0  0  0  0999 V2000
   37.3020   29.3310   51.0260 Br  0  0  0  0  0  0  0  0  0  0  0  0
   35.9540   29.3390   49.6670 C   0  0  0  0  0  0  0  0  0  0  0  0
   35.9900   30.2710   48.6540 C   0  0  0  0  0  0  0  0  0  0  0  0
   34.9820   30.2280   47.6970 C   0  0  0  0  0  0  0  0  0  0  0  0
   33.9640   29.2860   47.7370 C   0  0  0  0  0  0  0  0  0  0  0  0
   33.9650   28.3760   48.7620 C   0  0  0  0  0  0  0  0  0  0  0  0
   34.9620   28.4110   49.7210 C   0  0  0  0  0  0  0  0  0  0  0  0
   34.9970   30.9550   46.8930 H   0  0  0  0  0  0  0  0  0  0  0  0
   33.1640   27.6610   48.7650 H   0  0  0  0  0  0  0  0  0  0  0  0
   34.8840   27.6540   50.4930 H   0  0  0  0  0  0  0  0  0  0  0  0
   37.9930   33.1990   49.4690 C   0  0  0  0  0  0  0  0  0  0  0  0
   39.0240   33.1910   48.4940 C   0  0  0  0  0  0  0  0  0  0  0  0
   39.0150   32.1640   47.5560 C   0  0  0  0  0  0  0  0  0  0  0  0
   38.0230   31.2250   47.6230 N   0  0  0  0  0  0  0  0  0  0  0  0
   37.0490   31.2740   48.5840 C   0  0  0  0  0  0  0  0  0  0  0  0
   37.0410   32.2570   49.4960 N   0  0  0  0  0  0  0  0  0  0  0  0
   37.9360   33.9680   50.2310 H   0  0  0  0  0  0  0  0  0  0  0  0
   39.7600   33.9570   48.5090 H   0  0  0  0  0  0  0  0  0  0  0  0
   39.7780   32.1120   46.7920 H   0  0  0  0  0  0  0  0  0  0  0  0
   32.9350   29.3280   46.6610 C   0  0  0  0  0  0  0  0  0  0  0  0
   31.8350   28.6180   47.1010 F   0  0  0  0  0  0  0  0  0  0  0  0
   32.6350   30.6400   46.3450 F   0  0  0  0  0  0  0  0  0  0  0  0
   33.3960   28.7550   45.4880 F   0  0  0  0  0  0  0  0  0  0  0  0
  2  7  1  0  0  0  0
  2  1  1  0  0  0  0
  3  2  2  0  0  0  0
  4  5  2  0  0  0  0
  4  3  1  0  0  0  0
  5  6  1  0  0  0  0
  6  9  1  0  0  0  0
  6  7  2  0  0  0  0
  7 10  1  0  0  0  0
  8  4  1  0  0  0  0
 11 16  1  0  0  0  0
 11 17  1  0  0  0  0
 12 18  1  0  0  0  0
 12 11  2  0  0  0  0
 13 14  2  0  0  0  0
 13 12  1  0  0  0  0
 14 15  1  0  0  0  0
 15  3  1  0  0  0  0
 15 16  2  0  0  0  0
 19 13  1  0  0  0  0
 20 21  1  0  0  0  0
 20  5  1  0  0  0  0
 22 20  1  0  0  0  0
 23 20  1  0  0  0  0
M  END
>  <minimizedAffinity>
-5.77205563

>  <minimizedRMSD>
0.473851085

$$$$
