
 OpenBabel03272509123D

 23 24  0  0  0  0  0  0  0  0999 V2000
   40.1670   22.5770   37.4970 C   0  0  0  0  0  0  0  0  0  0  0  0
   39.2610   23.5790   37.0610 C   0  0  0  0  0  0  0  0  0  0  0  0
   39.6190   24.2860   35.9170 C   0  0  0  0  0  0  0  0  0  0  0  0
   40.7950   24.0140   35.2540 N   0  0  0  0  0  0  0  0  0  0  0  0
   41.6270   23.0290   35.7320 C   0  0  0  0  0  0  0  0  0  0  0  0
   41.2950   22.3300   36.8430 N   0  0  0  0  0  0  0  0  0  0  0  0
   39.9820   21.9740   38.3700 H   0  0  0  0  0  0  0  0  0  0  0  0
   42.5140   22.9150   35.1220 H   0  0  0  0  0  0  0  0  0  0  0  0
   38.7900   25.3420   35.3850 C   0  0  0  0  0  0  0  0  0  0  0  0
   38.0430   25.0760   34.2820 C   0  0  0  0  0  0  0  0  0  0  0  0
   37.2270   26.0750   33.7310 C   0  0  0  0  0  0  0  0  0  0  0  0
   37.1970   27.3350   34.3270 C   0  0  0  0  0  0  0  0  0  0  0  0
   37.9460   27.6550   35.4570 C   0  0  0  0  0  0  0  0  0  0  0  0
   38.7090   26.6150   35.9220 C   0  0  0  0  0  0  0  0  0  0  0  0
   37.8960   24.2460   33.6370 H   0  0  0  0  0  0  0  0  0  0  0  0
   36.5800   26.0370   32.8750 H   0  0  0  0  0  0  0  0  0  0  0  0
   36.5870   28.1770   33.9630 H   0  0  0  0  0  0  0  0  0  0  0  0
   37.9510   28.6010   35.9390 H   0  0  0  0  0  0  0  0  0  0  0  0
   39.3280   26.7860   36.8090 H   0  0  0  0  0  0  0  0  0  0  0  0
   38.0280   23.6910   37.8670 C   0  0  0  0  0  0  0  0  0  0  0  0
   37.8920   24.8300   38.5940 F   0  0  0  0  0  0  0  0  0  0  0  0
   38.1820   22.7300   38.9670 F   0  0  0  0  0  0  0  0  0  0  0  0
   36.8960   23.2140   37.2820 F   0  0  0  0  0  0  0  0  0  0  0  0
  1  7  1  0  0  0  0
  2  1  1  0  0  0  0
  2 20  1  0  0  0  0
  3  2  2  0  0  0  0
  4  5  2  0  0  0  0
  4  3  1  0  0  0  0
  5  6  1  0  0  0  0
  6  1  2  0  0  0  0
  8  5  1  0  0  0  0
  9  3  1  0  0  0  0
  9 14  1  0  0  0  0
 10  9  2  0  0  0  0
 11 10  1  0  0  0  0
 11 12  2  0  0  0  0
 12 13  1  0  0  0  0
 13 14  2  0  0  0  0
 13 18  1  0  0  0  0
 14 19  1  0  0  0  0
 15 10  1  0  0  0  0
 16 11  1  0  0  0  0
 17 12  1  0  0  0  0
 20 21  1  0  0  0  0
 20 22  1  0  0  0  0
 23 20  1  0  0  0  0
M  END
>  <minimizedAffinity>
-5.02820683

$$$$

 OpenBabel03272509123D

 23 24  0  0  0  0  0  0  0  0999 V2000
   38.9060   25.8650   32.7510 C   0  0  0  0  0  0  0  0  0  0  0  0
   39.1200   25.6080   34.1310 C   0  0  0  0  0  0  0  0  0  0  0  0
   38.5680   24.4350   34.6390 C   0  0  0  0  0  0  0  0  0  0  0  0
   37.8560   23.5780   33.8300 N   0  0  0  0  0  0  0  0  0  0  0  0
   37.6870   23.8880   32.5020 C   0  0  0  0  0  0  0  0  0  0  0  0
   38.2160   25.0240   31.9890 N   0  0  0  0  0  0  0  0  0  0  0  0
   39.2910   26.7430   32.2620 H   0  0  0  0  0  0  0  0  0  0  0  0
   37.1110   23.1360   31.9800 H   0  0  0  0  0  0  0  0  0  0  0  0
   38.7020   24.0740   36.0300 C   0  0  0  0  0  0  0  0  0  0  0  0
   39.6870   23.2050   36.3750 C   0  0  0  0  0  0  0  0  0  0  0  0
   39.8480   22.8240   37.7150 C   0  0  0  0  0  0  0  0  0  0  0  0
   38.9870   23.3450   38.6800 C   0  0  0  0  0  0  0  0  0  0  0  0
   37.9610   24.2380   38.3740 C   0  0  0  0  0  0  0  0  0  0  0  0
   37.8850   24.5500   37.0410 C   0  0  0  0  0  0  0  0  0  0  0  0
   40.4400   22.6580   35.8660 H   0  0  0  0  0  0  0  0  0  0  0  0
   40.5650   22.1580   38.1570 H   0  0  0  0  0  0  0  0  0  0  0  0
   39.0400   23.1020   39.7530 H   0  0  0  0  0  0  0  0  0  0  0  0
   37.2850   24.6550   39.0780 H   0  0  0  0  0  0  0  0  0  0  0  0
   37.1030   25.2470   36.7200 H   0  0  0  0  0  0  0  0  0  0  0  0
   39.9520   26.6130   34.8240 C   0  0  0  0  0  0  0  0  0  0  0  0
   39.3020   27.4300   35.6920 F   0  0  0  0  0  0  0  0  0  0  0  0
   40.3170   27.6030   33.8020 F   0  0  0  0  0  0  0  0  0  0  0  0
   41.1870   26.1910   35.2080 F   0  0  0  0  0  0  0  0  0  0  0  0
  1  2  1  0  0  0  0
  2  3  2  0  0  0  0
  2 20  1  0  0  0  0
  3  9  1  0  0  0  0
  4  3  1  0  0  0  0
  5  4  2  0  0  0  0
  6  5  1  0  0  0  0
  6  1  2  0  0  0  0
  7  1  1  0  0  0  0
  8  5  1  0  0  0  0
  9 10  2  0  0  0  0
  9 14  1  0  0  0  0
 10 11  1  0  0  0  0
 11 16  1  0  0  0  0
 11 12  2  0  0  0  0
 12 17  1  0  0  0  0
 13 12  1  0  0  0  0
 13 18  1  0  0  0  0
 14 13  2  0  0  0  0
 15 10  1  0  0  0  0
 19 14  1  0  0  0  0
 20 23  1  0  0  0  0
 20 21  1  0  0  0  0
 22 20  1  0  0  0  0
M  END
>  <minimizedAffinity>
-4.99307346

$$$$

 OpenBabel03272509123D

 23 24  0  0  0  0  0  0  0  0999 V2000
   38.9010   25.8910   32.7330 C   0  0  0  0  0  0  0  0  0  0  0  0
   39.1280   25.6130   34.1070 C   0  0  0  0  0  0  0  0  0  0  0  0
   38.5810   24.4330   34.6020 C   0  0  0  0  0  0  0  0  0  0  0  0
   37.8590   23.5900   33.7870 N   0  0  0  0  0  0  0  0  0  0  0  0
   37.6770   23.9200   32.4660 C   0  0  0  0  0  0  0  0  0  0  0  0
   38.2020   25.0640   31.9650 N   0  0  0  0  0  0  0  0  0  0  0  0
   39.2820   26.7760   32.2540 H   0  0  0  0  0  0  0  0  0  0  0  0
   37.0950   23.1770   31.9380 H   0  0  0  0  0  0  0  0  0  0  0  0
   38.7280   24.0500   35.9860 C   0  0  0  0  0  0  0  0  0  0  0  0
   37.8390   24.5450   36.8860 C   0  0  0  0  0  0  0  0  0  0  0  0
   37.9500   24.2010   38.2420 C   0  0  0  0  0  0  0  0  0  0  0  0
   38.9780   23.3530   38.6480 C   0  0  0  0  0  0  0  0  0  0  0  0
   39.9140   22.8220   37.7620 C   0  0  0  0  0  0  0  0  0  0  0  0
   39.7230   23.2140   36.4620 C   0  0  0  0  0  0  0  0  0  0  0  0
   37.0060   25.2020   36.8600 H   0  0  0  0  0  0  0  0  0  0  0  0
   37.3410   24.4970   39.0760 H   0  0  0  0  0  0  0  0  0  0  0  0
   39.1410   23.0300   39.6890 H   0  0  0  0  0  0  0  0  0  0  0  0
   40.7110   22.1740   38.0320 H   0  0  0  0  0  0  0  0  0  0  0  0
   40.4180   22.8380   35.7030 H   0  0  0  0  0  0  0  0  0  0  0  0
   39.9690   26.6060   34.8070 C   0  0  0  0  0  0  0  0  0  0  0  0
   39.3240   27.4240   35.6790 F   0  0  0  0  0  0  0  0  0  0  0  0
   40.3440   27.5990   33.7910 F   0  0  0  0  0  0  0  0  0  0  0  0
   41.2000   26.1710   35.1900 F   0  0  0  0  0  0  0  0  0  0  0  0
  1  2  1  0  0  0  0
  2  3  2  0  0  0  0
  2 20  1  0  0  0  0
  3  9  1  0  0  0  0
  4  3  1  0  0  0  0
  5  4  2  0  0  0  0
  6  5  1  0  0  0  0
  6  1  2  0  0  0  0
  7  1  1  0  0  0  0
  8  5  1  0  0  0  0
  9 14  2  0  0  0  0
  9 10  1  0  0  0  0
 10 11  2  0  0  0  0
 11 12  1  0  0  0  0
 11 16  1  0  0  0  0
 12 17  1  0  0  0  0
 13 18  1  0  0  0  0
 13 12  2  0  0  0  0
 14 13  1  0  0  0  0
 15 10  1  0  0  0  0
 19 14  1  0  0  0  0
 20 23  1  0  0  0  0
 20 21  1  0  0  0  0
 22 20  1  0  0  0  0
M  END
>  <minimizedAffinity>
-4.98694515

$$$$

 OpenBabel03272509123D

 23 24  0  0  0  0  0  0  0  0999 V2000
   37.3180   26.4080   33.7280 C   0  0  0  0  0  0  0  0  0  0  0  0
   38.1580   25.8740   34.7410 C   0  0  0  0  0  0  0  0  0  0  0  0
   38.4660   24.5200   34.6440 C   0  0  0  0  0  0  0  0  0  0  0  0
   37.9730   23.7530   33.6120 N   0  0  0  0  0  0  0  0  0  0  0  0
   37.1640   24.3350   32.6650 C   0  0  0  0  0  0  0  0  0  0  0  0
   36.8540   25.6510   32.7410 N   0  0  0  0  0  0  0  0  0  0  0  0
   37.0220   27.4430   33.7120 H   0  0  0  0  0  0  0  0  0  0  0  0
   36.8460   23.6260   31.9120 H   0  0  0  0  0  0  0  0  0  0  0  0
   39.2960   23.8580   35.6220 C   0  0  0  0  0  0  0  0  0  0  0  0
   38.7160   23.4420   36.7780 C   0  0  0  0  0  0  0  0  0  0  0  0
   39.4870   22.7990   37.7570 C   0  0  0  0  0  0  0  0  0  0  0  0
   40.8480   22.5970   37.5280 C   0  0  0  0  0  0  0  0  0  0  0  0
   41.4870   23.0080   36.3600 C   0  0  0  0  0  0  0  0  0  0  0  0
   40.6510   23.6240   35.4650 C   0  0  0  0  0  0  0  0  0  0  0  0
   37.7470   23.4830   37.2080 H   0  0  0  0  0  0  0  0  0  0  0  0
   39.1950   22.4090   38.7140 H   0  0  0  0  0  0  0  0  0  0  0  0
   41.5280   22.1020   38.2390 H   0  0  0  0  0  0  0  0  0  0  0  0
   42.5180   22.8740   36.1490 H   0  0  0  0  0  0  0  0  0  0  0  0
   41.0780   23.9760   34.5200 H   0  0  0  0  0  0  0  0  0  0  0  0
   38.6310   26.8600   35.7340 C   0  0  0  0  0  0  0  0  0  0  0  0
   38.2280   26.6570   37.0150 F   0  0  0  0  0  0  0  0  0  0  0  0
   37.8930   28.0980   35.4510 F   0  0  0  0  0  0  0  0  0  0  0  0
   39.9100   27.2950   35.5690 F   0  0  0  0  0  0  0  0  0  0  0  0
  1  2  1  0  0  0  0
  2 20  1  0  0  0  0
  3  2  2  0  0  0  0
  3  9  1  0  0  0  0
  4  3  1  0  0  0  0
  5  6  1  0  0  0  0
  5  4  2  0  0  0  0
  6  1  2  0  0  0  0
  7  1  1  0  0  0  0
  8  5  1  0  0  0  0
  9 10  1  0  0  0  0
 10 15  1  0  0  0  0
 10 11  2  0  0  0  0
 11 16  1  0  0  0  0
 12 11  1  0  0  0  0
 12 17  1  0  0  0  0
 13 12  2  0  0  0  0
 14  9  2  0  0  0  0
 14 13  1  0  0  0  0
 18 13  1  0  0  0  0
 19 14  1  0  0  0  0
 20 21  1  0  0  0  0
 22 20  1  0  0  0  0
 23 20  1  0  0  0  0
M  END
>  <minimizedAffinity>
-4.89812088

$$$$

 OpenBabel03272509123D

 23 24  0  0  0  0  0  0  0  0999 V2000
   37.3120   26.4440   33.7430 C   0  0  0  0  0  0  0  0  0  0  0  0
   38.1500   25.9050   34.7550 C   0  0  0  0  0  0  0  0  0  0  0  0
   38.4540   24.5500   34.6560 C   0  0  0  0  0  0  0  0  0  0  0  0
   37.9600   23.7870   33.6220 N   0  0  0  0  0  0  0  0  0  0  0  0
   37.1540   24.3720   32.6750 C   0  0  0  0  0  0  0  0  0  0  0  0
   36.8470   25.6890   32.7540 N   0  0  0  0  0  0  0  0  0  0  0  0
   37.0190   27.4790   33.7280 H   0  0  0  0  0  0  0  0  0  0  0  0
   36.8340   23.6660   31.9210 H   0  0  0  0  0  0  0  0  0  0  0  0
   39.2810   23.8840   35.6340 C   0  0  0  0  0  0  0  0  0  0  0  0
   40.5940   23.6960   35.3420 C   0  0  0  0  0  0  0  0  0  0  0  0
   41.4310   23.0490   36.2620 C   0  0  0  0  0  0  0  0  0  0  0  0
   40.8980   22.6030   37.4710 C   0  0  0  0  0  0  0  0  0  0  0  0
   39.5580   22.7710   37.8140 C   0  0  0  0  0  0  0  0  0  0  0  0
   38.8220   23.4150   36.8520 C   0  0  0  0  0  0  0  0  0  0  0  0
   41.2350   23.9040   34.5220 H   0  0  0  0  0  0  0  0  0  0  0  0
   42.4780   22.8220   36.1950 H   0  0  0  0  0  0  0  0  0  0  0  0
   41.4800   22.0870   38.2510 H   0  0  0  0  0  0  0  0  0  0  0  0
   39.1150   22.4460   38.7220 H   0  0  0  0  0  0  0  0  0  0  0  0
   37.7580   23.5860   37.0470 H   0  0  0  0  0  0  0  0  0  0  0  0
   38.6250   26.8870   35.7510 C   0  0  0  0  0  0  0  0  0  0  0  0
   38.2250   26.6790   37.0310 F   0  0  0  0  0  0  0  0  0  0  0  0
   37.8850   28.1260   35.4740 F   0  0  0  0  0  0  0  0  0  0  0  0
   39.9030   27.3240   35.5840 F   0  0  0  0  0  0  0  0  0  0  0  0
  1  2  1  0  0  0  0
  2 20  1  0  0  0  0
  3  2  2  0  0  0  0
  3  9  1  0  0  0  0
  4  3  1  0  0  0  0
  5  6  1  0  0  0  0
  5  4  2  0  0  0  0
  6  1  2  0  0  0  0
  7  1  1  0  0  0  0
  8  5  1  0  0  0  0
  9 14  1  0  0  0  0
 10  9  2  0  0  0  0
 10 11  1  0  0  0  0
 11 12  2  0  0  0  0
 12 13  1  0  0  0  0
 12 17  1  0  0  0  0
 13 18  1  0  0  0  0
 14 19  1  0  0  0  0
 14 13  2  0  0  0  0
 15 10  1  0  0  0  0
 16 11  1  0  0  0  0
 20 21  1  0  0  0  0
 22 20  1  0  0  0  0
 23 20  1  0  0  0  0
M  END
>  <minimizedAffinity>
-4.8955164

$$$$

 OpenBabel03272509123D

 23 24  0  0  0  0  0  0  0  0999 V2000
   37.1890   22.0300   36.3390 C   0  0  0  0  0  0  0  0  0  0  0  0
   38.1060   23.1150   36.3130 C   0  0  0  0  0  0  0  0  0  0  0  0
   38.5680   23.5090   35.0600 C   0  0  0  0  0  0  0  0  0  0  0  0
   38.1460   22.8690   33.9160 N   0  0  0  0  0  0  0  0  0  0  0  0
   37.2570   21.8250   34.0140 C   0  0  0  0  0  0  0  0  0  0  0  0
   36.7960   21.4280   35.2240 N   0  0  0  0  0  0  0  0  0  0  0  0
   36.7730   21.6500   37.2560 H   0  0  0  0  0  0  0  0  0  0  0  0
   37.0080   21.4120   33.0460 H   0  0  0  0  0  0  0  0  0  0  0  0
   39.5160   24.5860   34.9050 C   0  0  0  0  0  0  0  0  0  0  0  0
   39.0350   25.8350   34.6760 C   0  0  0  0  0  0  0  0  0  0  0  0
   39.9220   26.9100   34.5150 C   0  0  0  0  0  0  0  0  0  0  0  0
   41.2940   26.6770   34.5890 C   0  0  0  0  0  0  0  0  0  0  0  0
   41.8350   25.4130   34.8210 C   0  0  0  0  0  0  0  0  0  0  0  0
   40.8900   24.4300   34.9660 C   0  0  0  0  0  0  0  0  0  0  0  0
   38.0780   26.2780   34.5530 H   0  0  0  0  0  0  0  0  0  0  0  0
   39.7160   27.9480   34.3310 H   0  0  0  0  0  0  0  0  0  0  0  0
   42.0620   27.4590   34.4750 H   0  0  0  0  0  0  0  0  0  0  0  0
   42.8720   25.1950   34.8830 H   0  0  0  0  0  0  0  0  0  0  0  0
   41.2350   23.4070   35.1510 H   0  0  0  0  0  0  0  0  0  0  0  0
   38.3990   23.7080   37.6330 C   0  0  0  0  0  0  0  0  0  0  0  0
   39.5600   23.3170   38.2180 F   0  0  0  0  0  0  0  0  0  0  0  0
   37.4480   23.0910   38.5680 F   0  0  0  0  0  0  0  0  0  0  0  0
   38.0660   25.0200   37.7770 F   0  0  0  0  0  0  0  0  0  0  0  0
  1  7  1  0  0  0  0
  2  1  1  0  0  0  0
  2 20  1  0  0  0  0
  3  2  2  0  0  0  0
  4  5  2  0  0  0  0
  4  3  1  0  0  0  0
  5  6  1  0  0  0  0
  6  1  2  0  0  0  0
  8  5  1  0  0  0  0
  9 14  1  0  0  0  0
  9  3  1  0  0  0  0
 10  9  2  0  0  0  0
 11 12  2  0  0  0  0
 11 10  1  0  0  0  0
 12 13  1  0  0  0  0
 13 18  1  0  0  0  0
 13 14  2  0  0  0  0
 14 19  1  0  0  0  0
 15 10  1  0  0  0  0
 16 11  1  0  0  0  0
 17 12  1  0  0  0  0
 20 23  1  0  0  0  0
 20 21  1  0  0  0  0
 20 22  1  0  0  0  0
M  END
>  <minimizedAffinity>
-4.48234034

$$$$

 OpenBabel03272509123D

 23 24  0  0  0  0  0  0  0  0999 V2000
   38.3180   24.4880   36.1320 C   0  0  0  0  0  0  0  0  0  0  0  0
   38.2380   25.5270   35.1670 C   0  0  0  0  0  0  0  0  0  0  0  0
   38.0020   25.1390   33.8520 C   0  0  0  0  0  0  0  0  0  0  0  0
   37.8560   23.8100   33.5200 N   0  0  0  0  0  0  0  0  0  0  0  0
   37.9460   22.8550   34.5040 C   0  0  0  0  0  0  0  0  0  0  0  0
   38.1750   23.2130   35.7900 N   0  0  0  0  0  0  0  0  0  0  0  0
   38.4970   24.6830   37.1750 H   0  0  0  0  0  0  0  0  0  0  0  0
   37.8140   21.8550   34.1130 H   0  0  0  0  0  0  0  0  0  0  0  0
   37.9170   26.1010   32.7790 C   0  0  0  0  0  0  0  0  0  0  0  0
   36.6850   26.4870   32.3600 C   0  0  0  0  0  0  0  0  0  0  0  0
   36.5580   27.4160   31.3170 C   0  0  0  0  0  0  0  0  0  0  0  0
   37.7070   27.9320   30.7210 C   0  0  0  0  0  0  0  0  0  0  0  0
   38.9930   27.5660   31.1160 C   0  0  0  0  0  0  0  0  0  0  0  0
   39.0130   26.6550   32.1410 C   0  0  0  0  0  0  0  0  0  0  0  0
   35.6800   26.2480   32.6080 H   0  0  0  0  0  0  0  0  0  0  0  0
   35.6730   27.8260   30.8680 H   0  0  0  0  0  0  0  0  0  0  0  0
   37.7030   28.6650   29.8980 H   0  0  0  0  0  0  0  0  0  0  0  0
   39.8910   27.9340   30.6870 H   0  0  0  0  0  0  0  0  0  0  0  0
   39.9880   26.3160   32.5090 H   0  0  0  0  0  0  0  0  0  0  0  0
   38.3660   26.8920   35.7180 C   0  0  0  0  0  0  0  0  0  0  0  0
   39.6050   27.4440   35.6610 F   0  0  0  0  0  0  0  0  0  0  0  0
   38.2410   26.7480   37.1750 F   0  0  0  0  0  0  0  0  0  0  0  0
   37.3230   27.7290   35.4660 F   0  0  0  0  0  0  0  0  0  0  0  0
  1  7  1  0  0  0  0
  2 20  1  0  0  0  0
  2  1  2  0  0  0  0
  3  2  1  0  0  0  0
  4  3  2  0  0  0  0
  4  5  1  0  0  0  0
  5  6  2  0  0  0  0
  6  1  1  0  0  0  0
  8  5  1  0  0  0  0
  9  3  1  0  0  0  0
 10 15  1  0  0  0  0
 10  9  1  0  0  0  0
 11 10  2  0  0  0  0
 12 13  2  0  0  0  0
 12 11  1  0  0  0  0
 13 14  1  0  0  0  0
 14 19  1  0  0  0  0
 14  9  2  0  0  0  0
 16 11  1  0  0  0  0
 17 12  1  0  0  0  0
 18 13  1  0  0  0  0
 20 22  1  0  0  0  0
 21 20  1  0  0  0  0
 23 20  1  0  0  0  0
M  END
>  <minimizedAffinity>
-4.37573242

$$$$

 OpenBabel03272509123D

 23 24  0  0  0  0  0  0  0  0999 V2000
   37.0600   26.2050   32.9110 C   0  0  0  0  0  0  0  0  0  0  0  0
   37.6670   25.2030   33.7140 C   0  0  0  0  0  0  0  0  0  0  0  0
   37.9360   25.5430   35.0360 C   0  0  0  0  0  0  0  0  0  0  0  0
   37.6230   26.7930   35.5250 N   0  0  0  0  0  0  0  0  0  0  0  0
   37.0380   27.7160   34.6920 C   0  0  0  0  0  0  0  0  0  0  0  0
   36.7670   27.4030   33.4020 N   0  0  0  0  0  0  0  0  0  0  0  0
   36.8110   26.0420   31.8770 H   0  0  0  0  0  0  0  0  0  0  0  0
   36.8440   28.6530   35.1960 H   0  0  0  0  0  0  0  0  0  0  0  0
   38.5660   24.6170   35.9460 C   0  0  0  0  0  0  0  0  0  0  0  0
   37.9480   24.3580   37.1270 C   0  0  0  0  0  0  0  0  0  0  0  0
   38.5300   23.4670   38.0420 C   0  0  0  0  0  0  0  0  0  0  0  0
   39.7420   22.8580   37.7230 C   0  0  0  0  0  0  0  0  0  0  0  0
   40.4140   23.0930   36.5240 C   0  0  0  0  0  0  0  0  0  0  0  0
   39.7670   23.9760   35.6970 C   0  0  0  0  0  0  0  0  0  0  0  0
   37.0670   24.6840   37.6200 H   0  0  0  0  0  0  0  0  0  0  0  0
   38.1810   23.1510   39.0080 H   0  0  0  0  0  0  0  0  0  0  0  0
   40.2700   22.1470   38.3780 H   0  0  0  0  0  0  0  0  0  0  0  0
   41.3380   22.6510   36.2450 H   0  0  0  0  0  0  0  0  0  0  0  0
   40.2320   24.2130   34.7340 H   0  0  0  0  0  0  0  0  0  0  0  0
   37.8780   23.9090   33.0330 C   0  0  0  0  0  0  0  0  0  0  0  0
   39.1070   23.7160   32.4890 F   0  0  0  0  0  0  0  0  0  0  0  0
   37.0850   23.9750   31.7980 F   0  0  0  0  0  0  0  0  0  0  0  0
   37.3090   22.8280   33.6310 F   0  0  0  0  0  0  0  0  0  0  0  0
  1  6  2  0  0  0  0
  1  2  1  0  0  0  0
  2  3  2  0  0  0  0
  3  4  1  0  0  0  0
  3  9  1  0  0  0  0
  5  8  1  0  0  0  0
  5  4  2  0  0  0  0
  6  5  1  0  0  0  0
  7  1  1  0  0  0  0
  9 10  1  0  0  0  0
 10 15  1  0  0  0  0
 10 11  2  0  0  0  0
 11 16  1  0  0  0  0
 12 11  1  0  0  0  0
 12 17  1  0  0  0  0
 13 12  2  0  0  0  0
 14  9  2  0  0  0  0
 14 13  1  0  0  0  0
 18 13  1  0  0  0  0
 19 14  1  0  0  0  0
 20 23  1  0  0  0  0
 20  2  1  0  0  0  0
 21 20  1  0  0  0  0
 22 20  1  0  0  0  0
M  END
>  <minimizedAffinity>
-4.367208

$$$$

 OpenBabel03272509123D

 23 24  0  0  0  0  0  0  0  0999 V2000
   37.4750   23.9070   32.3650 C   0  0  0  0  0  0  0  0  0  0  0  0
   37.7830   23.3970   33.6540 C   0  0  0  0  0  0  0  0  0  0  0  0
   38.1380   24.3310   34.6240 C   0  0  0  0  0  0  0  0  0  0  0  0
   38.1830   25.6760   34.3300 N   0  0  0  0  0  0  0  0  0  0  0  0
   37.8730   26.1000   33.0610 C   0  0  0  0  0  0  0  0  0  0  0  0
   37.5240   25.2080   32.1040 N   0  0  0  0  0  0  0  0  0  0  0  0
   37.1880   23.2690   31.5470 H   0  0  0  0  0  0  0  0  0  0  0  0
   37.9460   27.1750   32.9630 H   0  0  0  0  0  0  0  0  0  0  0  0
   38.4900   23.9340   35.9660 C   0  0  0  0  0  0  0  0  0  0  0  0
   37.6480   24.2730   36.9760 C   0  0  0  0  0  0  0  0  0  0  0  0
   37.9550   23.9110   38.2960 C   0  0  0  0  0  0  0  0  0  0  0  0
   39.1300   23.2070   38.5530 C   0  0  0  0  0  0  0  0  0  0  0  0
   40.0260   22.8390   37.5510 C   0  0  0  0  0  0  0  0  0  0  0  0
   39.6380   23.2350   36.2970 C   0  0  0  0  0  0  0  0  0  0  0  0
   36.7340   24.8050   37.0680 H   0  0  0  0  0  0  0  0  0  0  0  0
   37.4080   24.0940   39.2020 H   0  0  0  0  0  0  0  0  0  0  0  0
   39.4510   22.8820   39.5570 H   0  0  0  0  0  0  0  0  0  0  0  0
   40.9300   22.3050   37.7060 H   0  0  0  0  0  0  0  0  0  0  0  0
   40.2900   22.9840   35.4530 H   0  0  0  0  0  0  0  0  0  0  0  0
   37.6280   21.9350   33.7940 C   0  0  0  0  0  0  0  0  0  0  0  0
   38.7600   21.1990   33.6490 F   0  0  0  0  0  0  0  0  0  0  0  0
   36.9080   21.4930   32.5910 F   0  0  0  0  0  0  0  0  0  0  0  0
   36.7630   21.5240   34.7600 F   0  0  0  0  0  0  0  0  0  0  0  0
  1  2  1  0  0  0  0
  2 20  1  0  0  0  0
  2  3  2  0  0  0  0
  3  9  1  0  0  0  0
  4  3  1  0  0  0  0
  5  4  2  0  0  0  0
  6  1  2  0  0  0  0
  6  5  1  0  0  0  0
  7  1  1  0  0  0  0
  8  5  1  0  0  0  0
  9 14  2  0  0  0  0
  9 10  1  0  0  0  0
 10 15  1  0  0  0  0
 10 11  2  0  0  0  0
 11 12  1  0  0  0  0
 11 16  1  0  0  0  0
 12 17  1  0  0  0  0
 13 18  1  0  0  0  0
 13 12  2  0  0  0  0
 14 13  1  0  0  0  0
 19 14  1  0  0  0  0
 20 23  1  0  0  0  0
 21 20  1  0  0  0  0
 22 20  1  0  0  0  0
M  END
>  <minimizedAffinity>
-4.33240461

$$$$
