
 OpenBabel03272509533D

 38 40  0  0  0  0  0  0  0  0999 V2000
   37.3700   30.1940   51.5530 C   0  0  0  0  0  0  0  0  0  0  0  0
   38.0870   30.8730   50.5480 C   0  0  0  0  0  0  0  0  0  0  0  0
   37.7190   30.6660   49.2370 C   0  0  0  0  0  0  0  0  0  0  0  0
   36.6710   29.8030   49.0240 N   0  0  0  0  0  0  0  0  0  0  0  0
   36.0110   29.1740   49.9920 C   0  0  0  0  0  0  0  0  0  0  0  0
   36.3620   29.3690   51.2730 N   0  0  0  0  0  0  0  0  0  0  0  0
   37.6830   30.3780   52.5720 H   0  0  0  0  0  0  0  0  0  0  0  0
   38.8900   31.5330   50.7370 H   0  0  0  0  0  0  0  0  0  0  0  0
   38.9560   33.2740   49.0330 F   0  0  0  0  0  0  0  0  0  0  0  0
   38.9120   32.4850   47.9660 C   0  0  0  0  0  0  0  0  0  0  0  0
   38.3300   31.2700   48.0810 C   0  0  0  0  0  0  0  0  0  0  0  0
   38.3460   30.5320   46.8910 C   0  0  0  0  0  0  0  0  0  0  0  0
   38.8990   31.0060   45.7360 C   0  0  0  0  0  0  0  0  0  0  0  0
   39.4750   32.2400   45.6710 C   0  0  0  0  0  0  0  0  0  0  0  0
   39.4760   32.9830   46.8130 C   0  0  0  0  0  0  0  0  0  0  0  0
   37.8970   29.5290   46.8770 H   0  0  0  0  0  0  0  0  0  0  0  0
   38.8690   30.3630   44.8460 H   0  0  0  0  0  0  0  0  0  0  0  0
   39.9000   32.5750   44.7340 H   0  0  0  0  0  0  0  0  0  0  0  0
   39.9300   33.9700   46.7830 H   0  0  0  0  0  0  0  0  0  0  0  0
   35.0110   28.3710   49.5180 O   0  0  0  0  0  0  0  0  0  0  0  0
   34.5160   28.5960   48.2060 C   0  0  0  0  0  0  0  0  0  0  0  0
   35.3380   28.7870   47.4830 H   0  0  0  0  0  0  0  0  0  0  0  0
   33.8880   29.5130   48.2320 H   0  0  0  0  0  0  0  0  0  0  0  0
   33.6240   27.4630   47.7810 C   0  0  0  0  0  0  0  0  0  0  0  0
   33.9570   27.1500   46.7700 H   0  0  0  0  0  0  0  0  0  0  0  0
   33.7500   26.5640   48.4250 H   0  0  0  0  0  0  0  0  0  0  0  0
   32.1950   27.8390   47.7540 C   0  0  0  0  0  0  0  0  0  0  0  0
   31.3790   27.3660   48.7820 C   0  0  0  0  0  0  0  0  0  0  0  0
   30.0450   27.6610   48.8430 C   0  0  0  0  0  0  0  0  0  0  0  0
   29.5020   28.4190   47.9010 N   0  0  0  0  0  0  0  0  0  0  0  0
   30.3000   28.8850   46.8920 C   0  0  0  0  0  0  0  0  0  0  0  0
   31.6290   28.6150   46.7960 N   0  0  0  0  0  0  0  0  0  0  0  0
   31.8200   26.7410   49.5600 H   0  0  0  0  0  0  0  0  0  0  0  0
   29.4410   27.2780   49.6530 H   0  0  0  0  0  0  0  0  0  0  0  0
   29.7830   29.7480   45.7830 C   0  0  0  0  0  0  0  0  0  0  0  0
   30.7280   30.7480   45.5220 F   0  0  0  0  0  0  0  0  0  0  0  0
   28.5710   30.3120   46.0790 F   0  0  0  0  0  0  0  0  0  0  0  0
   29.6820   29.0310   44.6100 F   0  0  0  0  0  0  0  0  0  0  0  0
  1  7  1  0  0  0  0
  2  8  1  0  0  0  0
  2  1  2  0  0  0  0
  3  2  1  0  0  0  0
  4  3  2  0  0  0  0
  4  5  1  0  0  0  0
  5  6  2  0  0  0  0
  6  1  1  0  0  0  0
 10 11  1  0  0  0  0
 10  9  1  0  0  0  0
 11  3  1  0  0  0  0
 12 11  2  0  0  0  0
 13 12  1  0  0  0  0
 14 13  2  0  0  0  0
 14 15  1  0  0  0  0
 15 10  2  0  0  0  0
 16 12  1  0  0  0  0
 17 13  1  0  0  0  0
 18 14  1  0  0  0  0
 19 15  1  0  0  0  0
 20  5  1  0  0  0  0
 21 23  1  0  0  0  0
 21 20  1  0  0  0  0
 22 21  1  0  0  0  0
 24 21  1  0  0  0  0
 24 26  1  0  0  0  0
 25 24  1  0  0  0  0
 27 24  1  0  0  0  0
 27 28  1  0  0  0  0
 28 29  2  0  0  0  0
 28 33  1  0  0  0  0
 29 34  1  0  0  0  0
 30 29  1  0  0  0  0
 31 30  2  0  0  0  0
 32 31  1  0  0  0  0
 32 27  2  0  0  0  0
 35 37  1  0  0  0  0
 35 31  1  0  0  0  0
 36 35  1  0  0  0  0
 38 35  1  0  0  0  0
M  END
>  <minimizedAffinity>
-6.39511251

>  <minimizedRMSD>
0.347689748

$$$$
