
 OpenBabel03272507093D

 22 23  0  0  0  0  0  0  0  0999 V2000
   37.1240   30.2460   50.2850 C   0  0  0  0  0  0  0  0  0  0  0  0
   37.5190   30.0980   51.4690 O   0  0  0  0  0  0  0  0  0  0  0  0
   37.8080   31.0940   49.3220 C   0  0  0  0  0  0  0  0  0  0  0  0
   38.0820   32.3930   49.7140 C   0  0  0  0  0  0  0  0  0  0  0  0
   38.7410   33.2340   48.8060 C   0  0  0  0  0  0  0  0  0  0  0  0
   39.0700   32.7040   47.5840 N   0  0  0  0  0  0  0  0  0  0  0  0
   38.7890   31.4440   47.2410 C   0  0  0  0  0  0  0  0  0  0  0  0
   38.1620   30.6460   48.1070 N   0  0  0  0  0  0  0  0  0  0  0  0
   37.7990   32.7600   50.6930 H   0  0  0  0  0  0  0  0  0  0  0  0
   38.9400   34.2310   49.1310 H   0  0  0  0  0  0  0  0  0  0  0  0
   39.1040   31.1610   46.2510 H   0  0  0  0  0  0  0  0  0  0  0  0
   35.9410   29.5480   49.8460 C   0  0  0  0  0  0  0  0  0  0  0  0
   34.7700   29.6120   50.5340 C   0  0  0  0  0  0  0  0  0  0  0  0
   33.8220   28.8360   49.8600 C   0  0  0  0  0  0  0  0  0  0  0  0
   34.5140   28.3270   48.7530 C   0  0  0  0  0  0  0  0  0  0  0  0
   35.7420   28.7830   48.8100 O   0  0  0  0  0  0  0  0  0  0  0  0
   34.5460   30.1490   51.4450 H   0  0  0  0  0  0  0  0  0  0  0  0
   32.7820   28.7130   50.2040 H   0  0  0  0  0  0  0  0  0  0  0  0
   33.8090   27.4460   47.8020 C   0  0  0  0  0  0  0  0  0  0  0  0
   32.4500   27.6520   47.9630 F   0  0  0  0  0  0  0  0  0  0  0  0
   34.0930   26.1200   47.9970 F   0  0  0  0  0  0  0  0  0  0  0  0
   34.1380   27.7790   46.4990 F   0  0  0  0  0  0  0  0  0  0  0  0
  1  2  2  0  0  0  0
  3  4  1  0  0  0  0
  3  1  1  0  0  0  0
  4  9  1  0  0  0  0
  5 10  1  0  0  0  0
  5  4  2  0  0  0  0
  6  5  1  0  0  0  0
  7  6  2  0  0  0  0
  7  8  1  0  0  0  0
  8  3  2  0  0  0  0
 11  7  1  0  0  0  0
 12  1  1  0  0  0  0
 12 13  2  0  0  0  0
 13 17  1  0  0  0  0
 14 18  1  0  0  0  0
 14 13  1  0  0  0  0
 15 16  1  0  0  0  0
 15 14  2  0  0  0  0
 16 12  1  0  0  0  0
 19 20  1  0  0  0  0
 19 21  1  0  0  0  0
 19 15  1  0  0  0  0
 22 19  1  0  0  0  0
M  END
>  <minimizedAffinity>
-5.17665434

>  <minimizedRMSD>
0.906644046

$$$$
