
 OpenBabel03272506463D

 37 39  0  0  1  0  0  0  0  0999 V2000
   32.4170   28.9620   47.0510 C   0  0  2  0  0  0  0  0  0  0  0  0
   33.6790   28.5510   47.7500 C   0  0  1  0  0  0  0  0  0  0  0  0
   34.0110   27.3010   47.3210 O   0  0  0  0  0  0  0  0  0  0  0  0
   33.2460   26.9810   46.2050 C   0  0  0  0  0  0  0  0  0  0  0  0
   32.6650   28.2680   45.6750 C   0  0  1  0  0  0  0  0  0  0  0  0
   31.4910   28.5830   47.4740 H   0  0  0  0  0  0  0  0  0  0  0  0
   33.5640   28.6520   48.8450 H   0  0  0  0  0  0  0  0  0  0  0  0
   32.5410   26.2270   46.5180 H   0  0  0  0  0  0  0  0  0  0  0  0
   33.9060   26.4890   45.4440 H   0  0  0  0  0  0  0  0  0  0  0  0
   33.3530   28.9000   45.1280 H   0  0  0  0  0  0  0  0  0  0  0  0
   32.3900   30.3580   46.8550 O   0  0  0  0  0  0  0  0  0  0  0  0
   31.5520   30.7580   47.1400 H   0  0  0  0  0  0  0  0  0  0  0  0
   35.0090   29.7050   47.2200 S   0  0  0  0  0  0  0  0  0  0  0  0
   37.0940   29.2880   50.5580 C   0  0  0  0  0  0  0  0  0  0  0  0
   37.6560   30.5460   50.8030 C   0  0  0  0  0  0  0  0  0  0  0  0
   37.3690   31.5690   49.8820 C   0  0  0  0  0  0  0  0  0  0  0  0
   36.5750   31.2870   48.8200 N   0  0  0  0  0  0  0  0  0  0  0  0
   36.0550   30.0530   48.6290 C   0  0  0  0  0  0  0  0  0  0  0  0
   36.3070   29.0360   49.4950 N   0  0  0  0  0  0  0  0  0  0  0  0
   37.3010   28.4890   51.2520 H   0  0  0  0  0  0  0  0  0  0  0  0
   38.2890   30.7430   51.6610 H   0  0  0  0  0  0  0  0  0  0  0  0
   37.7600   32.5590   49.9970 H   0  0  0  0  0  0  0  0  0  0  0  0
   31.4780   27.9940   45.0400 O   0  0  0  0  0  0  0  0  0  0  0  0
   29.4950   30.1680   45.1610 Cl  0  0  0  0  0  0  0  0  0  0  0  0
   29.3490   28.5260   45.7410 C   0  0  0  0  0  0  0  0  0  0  0  0
   30.3520   27.5900   45.6160 C   0  0  0  0  0  0  0  0  0  0  0  0
   30.1090   26.3010   46.0970 C   0  0  0  0  0  0  0  0  0  0  0  0
   28.8980   25.9840   46.6780 C   0  0  0  0  0  0  0  0  0  0  0  0
   27.8850   26.9200   46.8080 C   0  0  0  0  0  0  0  0  0  0  0  0
   28.1330   28.2030   46.3270 C   0  0  0  0  0  0  0  0  0  0  0  0
   30.8270   25.5020   46.0400 H   0  0  0  0  0  0  0  0  0  0  0  0
   28.6470   25.0120   47.0690 H   0  0  0  0  0  0  0  0  0  0  0  0
   26.9330   26.6850   47.2600 H   0  0  0  0  0  0  0  0  0  0  0  0
   27.0520   29.2140   46.4620 C   0  0  0  0  0  0  0  0  0  0  0  0
   27.4350   30.2780   47.2580 F   0  0  0  0  0  0  0  0  0  0  0  0
   25.9740   28.5700   47.0820 F   0  0  0  0  0  0  0  0  0  0  0  0
   26.5810   29.6300   45.2470 F   0  0  0  0  0  0  0  0  0  0  0  0
  1  6  1  1  0  0  0
  1  2  1  0  0  0  0
  2  7  1  1  0  0  0
  3  2  1  0  0  0  0
  4  8  1  0  0  0  0
  4  3  1  0  0  0  0
  5 10  1  6  0  0  0
  5  4  1  0  0  0  0
  5  1  1  0  0  0  0
  9  4  1  0  0  0  0
 11  1  1  0  0  0  0
 11 12  1  0  0  0  0
 13  2  1  0  0  0  0
 13 18  1  0  0  0  0
 14 15  1  0  0  0  0
 14 20  1  0  0  0  0
 15 21  1  0  0  0  0
 16 22  1  0  0  0  0
 16 15  2  0  0  0  0
 17 16  1  0  0  0  0
 18 17  2  0  0  0  0
 18 19  1  0  0  0  0
 19 14  2  0  0  0  0
 23 26  1  0  0  0  0
 23  5  1  0  0  0  0
 24 25  1  0  0  0  0
 25 30  1  0  0  0  0
 26 25  2  0  0  0  0
 26 27  1  0  0  0  0
 27 28  2  0  0  0  0
 28 29  1  0  0  0  0
 28 32  1  0  0  0  0
 29 33  1  0  0  0  0
 30 34  1  0  0  0  0
 30 29  2  0  0  0  0
 31 27  1  0  0  0  0
 34 36  1  0  0  0  0
 34 35  1  0  0  0  0
 37 34  1  0  0  0  0
M  END
>  <minimizedAffinity>
-4.95514297

>  <minimizedRMSD>
0.987726331

$$$$
