
 OpenBabel03272502213D

 21 22  0  0  0  0  0  0  0  0999 V2000
   37.7750   31.0590   47.4220 C   0  0  0  0  0  0  0  0  0  0  0  0
   37.0220   30.7330   46.3180 C   0  0  0  0  0  0  0  0  0  0  0  0
   37.3040   31.2150   45.0520 C   0  0  0  0  0  0  0  0  0  0  0  0
   38.3590   32.0410   44.8840 N   0  0  0  0  0  0  0  0  0  0  0  0
   39.0820   32.3500   45.9650 C   0  0  0  0  0  0  0  0  0  0  0  0
   38.8150   31.8870   47.1910 N   0  0  0  0  0  0  0  0  0  0  0  0
   36.1760   30.0710   46.4550 H   0  0  0  0  0  0  0  0  0  0  0  0
   36.6950   30.9440   44.1940 H   0  0  0  0  0  0  0  0  0  0  0  0
   37.6960   30.3820   51.1290 C   0  0  0  0  0  0  0  0  0  0  0  0
   38.0940   30.9650   49.9190 C   0  0  0  0  0  0  0  0  0  0  0  0
   37.4660   30.5420   48.7580 C   0  0  0  0  0  0  0  0  0  0  0  0
   36.5130   29.5950   48.8630 N   0  0  0  0  0  0  0  0  0  0  0  0
   36.1390   29.0400   50.0360 C   0  0  0  0  0  0  0  0  0  0  0  0
   36.7470   29.4480   51.1770 N   0  0  0  0  0  0  0  0  0  0  0  0
   38.2120   30.7410   52.0050 H   0  0  0  0  0  0  0  0  0  0  0  0
   38.8520   31.7250   49.7910 H   0  0  0  0  0  0  0  0  0  0  0  0
   35.3600   28.2900   49.9810 H   0  0  0  0  0  0  0  0  0  0  0  0
   40.2520   33.2580   45.8110 C   0  0  0  0  0  0  0  0  0  0  0  0
   40.3870   33.9910   46.9810 F   0  0  0  0  0  0  0  0  0  0  0  0
   41.4140   32.5350   45.5420 F   0  0  0  0  0  0  0  0  0  0  0  0
   40.0820   34.1470   44.7960 F   0  0  0  0  0  0  0  0  0  0  0  0
  1 11  1  0  0  0  0
  2  7  1  0  0  0  0
  2  1  2  0  0  0  0
  3  2  1  0  0  0  0
  4  3  2  0  0  0  0
  4  5  1  0  0  0  0
  5  6  2  0  0  0  0
  6  1  1  0  0  0  0
  8  3  1  0  0  0  0
  9 14  1  0  0  0  0
  9 15  1  0  0  0  0
 10  9  2  0  0  0  0
 11 12  2  0  0  0  0
 11 10  1  0  0  0  0
 12 13  1  0  0  0  0
 13 14  2  0  0  0  0
 16 10  1  0  0  0  0
 17 13  1  0  0  0  0
 18  5  1  0  0  0  0
 18 19  1  0  0  0  0
 20 18  1  0  0  0  0
 21 18  1  0  0  0  0
M  END
>  <minimizedAffinity>
-5.78175211

>  <minimizedRMSD>
0.991246283

$$$$
