
 OpenBabel03272510333D

 23 24  0  0  0  0  0  0  0  0999 V2000
   36.2670   30.4220   48.8260 C   0  0  0  0  0  0  0  0  0  0  0  0
   35.2300   30.3590   47.9110 C   0  0  0  0  0  0  0  0  0  0  0  0
   34.2260   29.4190   48.0350 C   0  0  0  0  0  0  0  0  0  0  0  0
   34.2910   28.5380   49.1070 C   0  0  0  0  0  0  0  0  0  0  0  0
   35.3150   28.5860   50.0280 C   0  0  0  0  0  0  0  0  0  0  0  0
   36.3230   29.5450   49.8860 C   0  0  0  0  0  0  0  0  0  0  0  0
   35.1870   31.0500   47.0780 H   0  0  0  0  0  0  0  0  0  0  0  0
   33.4070   29.3330   47.3530 H   0  0  0  0  0  0  0  0  0  0  0  0
   33.5380   27.7760   49.2630 H   0  0  0  0  0  0  0  0  0  0  0  0
   35.3370   27.8870   50.8500 H   0  0  0  0  0  0  0  0  0  0  0  0
   38.1890   33.4720   49.2940 C   0  0  0  0  0  0  0  0  0  0  0  0
   39.1390   33.4590   48.2750 C   0  0  0  0  0  0  0  0  0  0  0  0
   39.1070   32.3580   47.4040 C   0  0  0  0  0  0  0  0  0  0  0  0
   38.1770   31.3870   47.5940 N   0  0  0  0  0  0  0  0  0  0  0  0
   37.2710   31.4430   48.6050 C   0  0  0  0  0  0  0  0  0  0  0  0
   37.2990   32.4930   49.4370 N   0  0  0  0  0  0  0  0  0  0  0  0
   38.1690   34.3040   49.9980 H   0  0  0  0  0  0  0  0  0  0  0  0
   39.8630   34.2470   48.1500 H   0  0  0  0  0  0  0  0  0  0  0  0
   39.8240   32.2850   46.5820 H   0  0  0  0  0  0  0  0  0  0  0  0
   37.4050   29.5830   50.8820 C   0  0  0  0  0  0  0  0  0  0  0  0
   37.1930   30.5330   51.8480 F   0  0  0  0  0  0  0  0  0  0  0  0
   37.6130   28.3120   51.3700 F   0  0  0  0  0  0  0  0  0  0  0  0
   38.6170   29.9600   50.2740 F   0  0  0  0  0  0  0  0  0  0  0  0
  1  6  1  0  0  0  0
  2  3  1  0  0  0  0
  2  1  2  0  0  0  0
  3  4  2  0  0  0  0
  4  9  1  0  0  0  0
  4  5  1  0  0  0  0
  5 10  1  0  0  0  0
  6  5  2  0  0  0  0
  6 20  1  0  0  0  0
  7  2  1  0  0  0  0
  8  3  1  0  0  0  0
 11 16  1  0  0  0  0
 11 17  1  0  0  0  0
 12 11  2  0  0  0  0
 13 14  2  0  0  0  0
 13 12  1  0  0  0  0
 14 15  1  0  0  0  0
 15  1  1  0  0  0  0
 15 16  2  0  0  0  0
 18 12  1  0  0  0  0
 19 13  1  0  0  0  0
 20 22  1  0  0  0  0
 20 21  1  0  0  0  0
 23 20  1  0  0  0  0
M  END
>  <minimizedAffinity>
-6.01679897

>  <minimizedRMSD>
0.533941269

$$$$
