
 OpenBabel03272502553D

 37 39  0  0  0  0  0  0  0  0999 V2000
   35.9530   30.3050   48.5770 C   0  0  0  0  0  0  0  0  0  0  0  0
   35.9920   29.3010   49.5230 C   0  0  0  0  0  0  0  0  0  0  0  0
   35.0210   28.3090   49.5390 C   0  0  0  0  0  0  0  0  0  0  0  0
   34.0410   28.3990   48.5670 C   0  0  0  0  0  0  0  0  0  0  0  0
   33.9970   29.3980   47.6210 C   0  0  0  0  0  0  0  0  0  0  0  0
   34.9730   30.3490   47.6470 N   0  0  0  0  0  0  0  0  0  0  0  0
   32.9510   29.3950   46.6730 N   0  0  0  0  0  0  0  0  0  0  0  0
   31.8100   28.5510   46.9140 C   0  0  0  0  0  0  0  0  0  0  0  0
   30.9350   28.6310   45.6840 C   0  0  0  0  0  0  0  0  0  0  0  0
   30.5180   30.0710   45.4460 C   0  0  0  0  0  0  0  0  0  0  0  0
   31.6860   30.9930   45.4120 C   0  0  0  0  0  0  0  0  0  0  0  0
   32.9580   30.1970   45.4650 C   0  0  0  0  0  0  0  0  0  0  0  0
   36.8040   29.3160   50.2470 H   0  0  0  0  0  0  0  0  0  0  0  0
   35.0560   27.5250   50.2830 H   0  0  0  0  0  0  0  0  0  0  0  0
   33.3060   27.5820   48.6400 H   0  0  0  0  0  0  0  0  0  0  0  0
   32.0990   27.4680   47.0000 H   0  0  0  0  0  0  0  0  0  0  0  0
   31.2060   28.8720   47.7750 H   0  0  0  0  0  0  0  0  0  0  0  0
   30.0340   28.0080   45.7900 H   0  0  0  0  0  0  0  0  0  0  0  0
   31.4990   28.2600   44.7930 H   0  0  0  0  0  0  0  0  0  0  0  0
   30.0790   30.0700   44.4060 H   0  0  0  0  0  0  0  0  0  0  0  0
   29.7020   30.3790   46.1030 H   0  0  0  0  0  0  0  0  0  0  0  0
   31.6950   31.6690   44.5170 H   0  0  0  0  0  0  0  0  0  0  0  0
   31.7040   31.6790   46.2860 H   0  0  0  0  0  0  0  0  0  0  0  0
   33.8060   30.9260   45.5090 H   0  0  0  0  0  0  0  0  0  0  0  0
   33.0970   29.5270   44.5920 H   0  0  0  0  0  0  0  0  0  0  0  0
   38.1220   33.0500   49.6770 C   0  0  0  0  0  0  0  0  0  0  0  0
   38.9630   33.2430   48.5680 C   0  0  0  0  0  0  0  0  0  0  0  0
   38.7730   32.4330   47.4670 C   0  0  0  0  0  0  0  0  0  0  0  0
   37.7820   31.4960   47.5220 N   0  0  0  0  0  0  0  0  0  0  0  0
   36.9900   31.3280   48.5910 C   0  0  0  0  0  0  0  0  0  0  0  0
   37.1790   32.1070   49.6430 N   0  0  0  0  0  0  0  0  0  0  0  0
   38.2780   33.6860   50.5320 H   0  0  0  0  0  0  0  0  0  0  0  0
   39.7360   33.9840   48.5430 H   0  0  0  0  0  0  0  0  0  0  0  0
   39.6370   32.6000   46.2680 C   0  0  0  0  0  0  0  0  0  0  0  0
   40.4460   31.5110   46.0440 F   0  0  0  0  0  0  0  0  0  0  0  0
   38.8650   32.8200   45.1280 F   0  0  0  0  0  0  0  0  0  0  0  0
   40.4430   33.7180   46.3810 F   0  0  0  0  0  0  0  0  0  0  0  0
  1 30  1  0  0  0  0
  1  2  1  0  0  0  0
  2  3  2  0  0  0  0
  2 13  1  0  0  0  0
  3 14  1  0  0  0  0
  4 15  1  0  0  0  0
  4  3  1  0  0  0  0
  5  6  1  0  0  0  0
  5  4  2  0  0  0  0
  6  1  2  0  0  0  0
  7  8  1  0  0  0  0
  7  5  1  0  0  0  0
  8 16  1  0  0  0  0
  8 17  1  0  0  0  0
  9 18  1  0  0  0  0
  9  8  1  0  0  0  0
 10  9  1  0  0  0  0
 10 21  1  0  0  0  0
 11 10  1  0  0  0  0
 11 12  1  0  0  0  0
 11 23  1  0  0  0  0
 12 24  1  0  0  0  0
 12  7  1  0  0  0  0
 19  9  1  0  0  0  0
 20 10  1  0  0  0  0
 22 11  1  0  0  0  0
 25 12  1  0  0  0  0
 26 32  1  0  0  0  0
 27 26  2  0  0  0  0
 28 29  2  0  0  0  0
 28 27  1  0  0  0  0
 29 30  1  0  0  0  0
 30 31  2  0  0  0  0
 31 26  1  0  0  0  0
 33 27  1  0  0  0  0
 34 37  1  0  0  0  0
 34 28  1  0  0  0  0
 35 34  1  0  0  0  0
 36 34  1  0  0  0  0
M  END
>  <minimizedAffinity>
-6.82012463

>  <minimizedRMSD>
0.419705838

$$$$
