
 OpenBabel03272508153D

 23 24  0  0  0  0  0  0  0  0999 V2000
   37.9990   23.5830   33.2750 Cl  0  0  0  0  0  0  0  0  0  0  0  0
   37.8230   25.1690   33.9720 C   0  0  0  0  0  0  0  0  0  0  0  0
   38.4380   25.3160   35.1870 C   0  0  0  0  0  0  0  0  0  0  0  0
   38.3570   26.5590   35.8360 C   0  0  0  0  0  0  0  0  0  0  0  0
   37.6880   27.6050   35.2890 C   0  0  0  0  0  0  0  0  0  0  0  0
   37.0740   27.4400   34.0660 C   0  0  0  0  0  0  0  0  0  0  0  0
   36.2070   28.7630   33.3330 Cl  0  0  0  0  0  0  0  0  0  0  0  0
   37.1490   26.2390   33.4290 C   0  0  0  0  0  0  0  0  0  0  0  0
   38.8120   26.7660   36.7970 H   0  0  0  0  0  0  0  0  0  0  0  0
   37.6090   28.5720   35.7650 H   0  0  0  0  0  0  0  0  0  0  0  0
   38.6230   23.8050   37.1300 C   0  0  0  0  0  0  0  0  0  0  0  0
   39.2120   24.3300   35.9630 C   0  0  0  0  0  0  0  0  0  0  0  0
   40.4920   23.8840   35.6120 C   0  0  0  0  0  0  0  0  0  0  0  0
   41.1020   22.9720   36.4100 N   0  0  0  0  0  0  0  0  0  0  0  0
   40.5060   22.4880   37.5270 C   0  0  0  0  0  0  0  0  0  0  0  0
   39.2650   22.9070   37.8850 N   0  0  0  0  0  0  0  0  0  0  0  0
   37.6480   24.1100   37.4440 H   0  0  0  0  0  0  0  0  0  0  0  0
   40.9270   24.2980   34.7140 H   0  0  0  0  0  0  0  0  0  0  0  0
   41.1620   21.7770   38.0130 H   0  0  0  0  0  0  0  0  0  0  0  0
   36.5140   25.9770   32.1030 C   0  0  0  0  0  0  0  0  0  0  0  0
   35.5730   26.9090   31.7670 F   0  0  0  0  0  0  0  0  0  0  0  0
   37.5390   25.9010   31.1840 F   0  0  0  0  0  0  0  0  0  0  0  0
   35.8730   24.7500   32.1030 F   0  0  0  0  0  0  0  0  0  0  0  0
  1  2  1  0  0  0  0
  2  3  1  0  0  0  0
  3  4  2  0  0  0  0
  3 12  1  0  0  0  0
  4  9  1  0  0  0  0
  5 10  1  0  0  0  0
  5  4  1  0  0  0  0
  6  5  2  0  0  0  0
  7  6  1  0  0  0  0
  8  2  2  0  0  0  0
  8  6  1  0  0  0  0
 11 17  1  0  0  0  0
 11 16  1  0  0  0  0
 12 11  2  0  0  0  0
 13 12  1  0  0  0  0
 13 14  2  0  0  0  0
 14 15  1  0  0  0  0
 15 16  2  0  0  0  0
 15 19  1  0  0  0  0
 18 13  1  0  0  0  0
 20  8  1  0  0  0  0
 21 20  1  0  0  0  0
 22 20  1  0  0  0  0
 23 20  1  0  0  0  0
M  END
>  <minimizedAffinity>
-5.03054619

$$$$

 OpenBabel03272508153D

 23 24  0  0  0  0  0  0  0  0999 V2000
   38.5430   23.6380   33.2600 Cl  0  0  0  0  0  0  0  0  0  0  0  0
   37.3440   22.4200   33.5930 C   0  0  0  0  0  0  0  0  0  0  0  0
   37.3450   21.9750   34.8880 C   0  0  0  0  0  0  0  0  0  0  0  0
   36.4150   20.9900   35.2620 C   0  0  0  0  0  0  0  0  0  0  0  0
   35.5260   20.4770   34.3730 C   0  0  0  0  0  0  0  0  0  0  0  0
   35.5390   20.9360   33.0740 C   0  0  0  0  0  0  0  0  0  0  0  0
   34.4110   20.2990   31.9070 Cl  0  0  0  0  0  0  0  0  0  0  0  0
   36.4360   21.8900   32.7030 C   0  0  0  0  0  0  0  0  0  0  0  0
   36.3430   20.5810   36.2620 H   0  0  0  0  0  0  0  0  0  0  0  0
   34.8000   19.7200   34.6330 H   0  0  0  0  0  0  0  0  0  0  0  0
   37.6270   23.1460   37.0430 C   0  0  0  0  0  0  0  0  0  0  0  0
   38.2080   22.3830   36.0110 C   0  0  0  0  0  0  0  0  0  0  0  0
   39.5670   22.0600   36.1150 C   0  0  0  0  0  0  0  0  0  0  0  0
   40.2550   22.4950   37.1990 N   0  0  0  0  0  0  0  0  0  0  0  0
   39.6640   23.2290   38.1740 C   0  0  0  0  0  0  0  0  0  0  0  0
   38.3480   23.5530   38.0930 N   0  0  0  0  0  0  0  0  0  0  0  0
   36.5950   23.4210   37.0140 H   0  0  0  0  0  0  0  0  0  0  0  0
   39.9940   21.4740   35.3140 H   0  0  0  0  0  0  0  0  0  0  0  0
   40.3890   23.4700   38.9410 H   0  0  0  0  0  0  0  0  0  0  0  0
   36.5170   22.4420   31.3180 C   0  0  0  0  0  0  0  0  0  0  0  0
   36.6600   23.8010   31.2900 F   0  0  0  0  0  0  0  0  0  0  0  0
   37.5560   21.7850   30.6930 F   0  0  0  0  0  0  0  0  0  0  0  0
   35.3640   22.1510   30.6090 F   0  0  0  0  0  0  0  0  0  0  0  0
  1  2  1  0  0  0  0
  2  3  1  0  0  0  0
  3  4  2  0  0  0  0
  3 12  1  0  0  0  0
  4  9  1  0  0  0  0
  5 10  1  0  0  0  0
  5  4  1  0  0  0  0
  6  5  2  0  0  0  0
  7  6  1  0  0  0  0
  8  6  1  0  0  0  0
  8  2  2  0  0  0  0
 11 16  1  0  0  0  0
 12 13  1  0  0  0  0
 12 11  2  0  0  0  0
 13 14  2  0  0  0  0
 14 15  1  0  0  0  0
 15 19  1  0  0  0  0
 16 15  2  0  0  0  0
 17 11  1  0  0  0  0
 18 13  1  0  0  0  0
 20  8  1  0  0  0  0
 21 20  1  0  0  0  0
 22 20  1  0  0  0  0
 23 20  1  0  0  0  0
M  END
>  <minimizedAffinity>
-4.97112465

$$$$

 OpenBabel03272508153D

 23 24  0  0  0  0  0  0  0  0999 V2000
   38.4260   26.9110   35.7730 Cl  0  0  0  0  0  0  0  0  0  0  0  0
   37.8940   25.8910   34.4670 C   0  0  0  0  0  0  0  0  0  0  0  0
   38.2380   24.5730   34.6110 C   0  0  0  0  0  0  0  0  0  0  0  0
   37.8560   23.6640   33.6100 C   0  0  0  0  0  0  0  0  0  0  0  0
   37.1620   24.0630   32.5150 C   0  0  0  0  0  0  0  0  0  0  0  0
   36.8250   25.3930   32.3840 C   0  0  0  0  0  0  0  0  0  0  0  0
   35.9320   25.9400   30.9900 Cl  0  0  0  0  0  0  0  0  0  0  0  0
   37.1900   26.2800   33.3500 C   0  0  0  0  0  0  0  0  0  0  0  0
   38.0830   22.6050   33.6410 H   0  0  0  0  0  0  0  0  0  0  0  0
   36.8550   23.3870   31.7290 H   0  0  0  0  0  0  0  0  0  0  0  0
   40.3350   23.6030   35.4800 C   0  0  0  0  0  0  0  0  0  0  0  0
   38.9810   23.9200   35.7040 C   0  0  0  0  0  0  0  0  0  0  0  0
   38.4250   23.5970   36.9490 C   0  0  0  0  0  0  0  0  0  0  0  0
   39.2140   22.9970   37.8740 N   0  0  0  0  0  0  0  0  0  0  0  0
   40.5140   22.7050   37.6240 C   0  0  0  0  0  0  0  0  0  0  0  0
   41.0720   23.0100   36.4240 N   0  0  0  0  0  0  0  0  0  0  0  0
   40.8090   23.8270   34.5490 H   0  0  0  0  0  0  0  0  0  0  0  0
   37.3860   23.8480   37.1010 H   0  0  0  0  0  0  0  0  0  0  0  0
   40.9560   22.2310   38.4920 H   0  0  0  0  0  0  0  0  0  0  0  0
   36.8640   27.7360   33.2870 C   0  0  0  0  0  0  0  0  0  0  0  0
   36.8830   28.3430   34.5110 F   0  0  0  0  0  0  0  0  0  0  0  0
   37.7580   28.3010   32.4010 F   0  0  0  0  0  0  0  0  0  0  0  0
   35.5960   27.9310   32.7680 F   0  0  0  0  0  0  0  0  0  0  0  0
  2  3  1  0  0  0  0
  2  1  1  0  0  0  0
  3 12  1  0  0  0  0
  4  9  1  0  0  0  0
  4  3  2  0  0  0  0
  5  4  1  0  0  0  0
  6  5  2  0  0  0  0
  6  8  1  0  0  0  0
  7  6  1  0  0  0  0
  8  2  2  0  0  0  0
 10  5  1  0  0  0  0
 11 12  2  0  0  0  0
 11 16  1  0  0  0  0
 12 13  1  0  0  0  0
 13 18  1  0  0  0  0
 13 14  2  0  0  0  0
 15 14  1  0  0  0  0
 15 19  1  0  0  0  0
 16 15  2  0  0  0  0
 17 11  1  0  0  0  0
 20  8  1  0  0  0  0
 20 21  1  0  0  0  0
 22 20  1  0  0  0  0
 23 20  1  0  0  0  0
M  END
>  <minimizedAffinity>
-4.81851816

$$$$

 OpenBabel03272508153D

 23 24  0  0  0  0  0  0  0  0999 V2000
   37.3840   25.8110   35.7870 Cl  0  0  0  0  0  0  0  0  0  0  0  0
   38.7000   24.6830   35.6320 C   0  0  0  0  0  0  0  0  0  0  0  0
   39.2980   24.6870   34.4000 C   0  0  0  0  0  0  0  0  0  0  0  0
   40.3720   23.8120   34.1700 C   0  0  0  0  0  0  0  0  0  0  0  0
   40.8240   22.9710   35.1350 C   0  0  0  0  0  0  0  0  0  0  0  0
   40.2110   22.9790   36.3690 C   0  0  0  0  0  0  0  0  0  0  0  0
   40.7660   21.9120   37.6320 Cl  0  0  0  0  0  0  0  0  0  0  0  0
   39.1700   23.8240   36.6010 C   0  0  0  0  0  0  0  0  0  0  0  0
   40.9040   23.7480   33.2290 H   0  0  0  0  0  0  0  0  0  0  0  0
   41.6480   22.2880   34.9870 H   0  0  0  0  0  0  0  0  0  0  0  0
   38.0720   24.9760   32.2770 C   0  0  0  0  0  0  0  0  0  0  0  0
   38.9800   25.5040   33.2150 C   0  0  0  0  0  0  0  0  0  0  0  0
   39.5240   26.7710   32.9660 C   0  0  0  0  0  0  0  0  0  0  0  0
   39.1510   27.4250   31.8370 N   0  0  0  0  0  0  0  0  0  0  0  0
   38.2740   26.8850   30.9550 C   0  0  0  0  0  0  0  0  0  0  0  0
   37.7360   25.6590   31.1780 N   0  0  0  0  0  0  0  0  0  0  0  0
   37.6270   24.0140   32.4180 H   0  0  0  0  0  0  0  0  0  0  0  0
   40.2180   27.1590   33.6960 H   0  0  0  0  0  0  0  0  0  0  0  0
   38.1180   27.5690   30.1300 H   0  0  0  0  0  0  0  0  0  0  0  0
   38.4510   23.8960   37.9080 C   0  0  0  0  0  0  0  0  0  0  0  0
   38.0880   25.1690   38.2500 F   0  0  0  0  0  0  0  0  0  0  0  0
   37.3710   23.0440   37.8110 F   0  0  0  0  0  0  0  0  0  0  0  0
   39.2530   23.4250   38.9330 F   0  0  0  0  0  0  0  0  0  0  0  0
  2  1  1  0  0  0  0
  2  8  1  0  0  0  0
  3  2  2  0  0  0  0
  4  3  1  0  0  0  0
  4  5  2  0  0  0  0
  5  6  1  0  0  0  0
  6  8  2  0  0  0  0
  6  7  1  0  0  0  0
  8 20  1  0  0  0  0
  9  4  1  0  0  0  0
 10  5  1  0  0  0  0
 11 17  1  0  0  0  0
 11 12  1  0  0  0  0
 12  3  1  0  0  0  0
 13 12  2  0  0  0  0
 13 18  1  0  0  0  0
 14 13  1  0  0  0  0
 15 16  1  0  0  0  0
 15 14  2  0  0  0  0
 16 11  2  0  0  0  0
 19 15  1  0  0  0  0
 20 21  1  0  0  0  0
 20 23  1  0  0  0  0
 22 20  1  0  0  0  0
M  END
>  <minimizedAffinity>
-4.73210144

$$$$

 OpenBabel03272508153D

 23 24  0  0  0  0  0  0  0  0999 V2000
   36.1200   30.9730   35.6010 Cl  0  0  0  0  0  0  0  0  0  0  0  0
   34.4940   30.5740   35.1230 C   0  0  0  0  0  0  0  0  0  0  0  0
   34.4170   29.8210   33.9810 C   0  0  0  0  0  0  0  0  0  0  0  0
   33.1490   29.4450   33.5080 C   0  0  0  0  0  0  0  0  0  0  0  0
   32.0120   29.8100   34.1530 C   0  0  0  0  0  0  0  0  0  0  0  0
   32.1070   30.5680   35.3000 C   0  0  0  0  0  0  0  0  0  0  0  0
   30.6670   31.0540   36.1540 Cl  0  0  0  0  0  0  0  0  0  0  0  0
   33.3320   30.9360   35.7660 C   0  0  0  0  0  0  0  0  0  0  0  0
   32.9920   28.8510   32.6160 H   0  0  0  0  0  0  0  0  0  0  0  0
   31.0230   29.5350   33.8130 H   0  0  0  0  0  0  0  0  0  0  0  0
   35.7690   30.0020   31.9240 C   0  0  0  0  0  0  0  0  0  0  0  0
   35.5050   29.3150   33.1250 C   0  0  0  0  0  0  0  0  0  0  0  0
   36.2900   28.1970   33.4320 C   0  0  0  0  0  0  0  0  0  0  0  0
   37.2640   27.8310   32.5620 N   0  0  0  0  0  0  0  0  0  0  0  0
   37.4900   28.5150   31.4130 C   0  0  0  0  0  0  0  0  0  0  0  0
   36.7400   29.6020   31.0970 N   0  0  0  0  0  0  0  0  0  0  0  0
   35.2000   30.8610   31.6410 H   0  0  0  0  0  0  0  0  0  0  0  0
   36.0720   27.6840   34.3570 H   0  0  0  0  0  0  0  0  0  0  0  0
   38.3060   28.0560   30.8690 H   0  0  0  0  0  0  0  0  0  0  0  0
   33.5240   31.7560   36.9990 C   0  0  0  0  0  0  0  0  0  0  0  0
   33.0310   33.0250   36.8810 F   0  0  0  0  0  0  0  0  0  0  0  0
   32.9400   31.0540   38.0330 F   0  0  0  0  0  0  0  0  0  0  0  0
   34.8700   31.8800   37.2980 F   0  0  0  0  0  0  0  0  0  0  0  0
  2  1  1  0  0  0  0
  2  8  1  0  0  0  0
  3  2  2  0  0  0  0
  4  3  1  0  0  0  0
  4  5  2  0  0  0  0
  5  6  1  0  0  0  0
  6  8  2  0  0  0  0
  6  7  1  0  0  0  0
  8 20  1  0  0  0  0
  9  4  1  0  0  0  0
 10  5  1  0  0  0  0
 11 12  1  0  0  0  0
 12 13  2  0  0  0  0
 12  3  1  0  0  0  0
 13 18  1  0  0  0  0
 14 13  1  0  0  0  0
 15 14  2  0  0  0  0
 16 15  1  0  0  0  0
 16 11  2  0  0  0  0
 17 11  1  0  0  0  0
 19 15  1  0  0  0  0
 20 23  1  0  0  0  0
 20 22  1  0  0  0  0
 21 20  1  0  0  0  0
M  END
>  <minimizedAffinity>
-4.66862154

$$$$

 OpenBabel03272508153D

 23 24  0  0  0  0  0  0  0  0999 V2000
   35.3060   31.2870   32.0040 Cl  0  0  0  0  0  0  0  0  0  0  0  0
   36.0220   29.7990   32.5550 C   0  0  0  0  0  0  0  0  0  0  0  0
   35.8150   29.5370   33.8830 C   0  0  0  0  0  0  0  0  0  0  0  0
   36.3530   28.3600   34.4290 C   0  0  0  0  0  0  0  0  0  0  0  0
   37.0660   27.4870   33.6730 C   0  0  0  0  0  0  0  0  0  0  0  0
   37.2660   27.7650   32.3380 C   0  0  0  0  0  0  0  0  0  0  0  0
   38.1760   26.6650   31.3380 Cl  0  0  0  0  0  0  0  0  0  0  0  0
   36.7470   28.9040   31.8010 C   0  0  0  0  0  0  0  0  0  0  0  0
   36.2390   28.0720   35.4670 H   0  0  0  0  0  0  0  0  0  0  0  0
   37.4910   26.5740   34.0650 H   0  0  0  0  0  0  0  0  0  0  0  0
   35.8240   31.2100   35.6980 C   0  0  0  0  0  0  0  0  0  0  0  0
   35.0820   30.3330   34.8840 C   0  0  0  0  0  0  0  0  0  0  0  0
   33.6960   30.2690   35.0750 C   0  0  0  0  0  0  0  0  0  0  0  0
   33.1370   31.0530   36.0310 N   0  0  0  0  0  0  0  0  0  0  0  0
   33.8820   31.8860   36.7970 C   0  0  0  0  0  0  0  0  0  0  0  0
   35.2270   31.9630   36.6280 N   0  0  0  0  0  0  0  0  0  0  0  0
   36.8840   31.2980   35.5950 H   0  0  0  0  0  0  0  0  0  0  0  0
   33.1440   29.5900   34.4410 H   0  0  0  0  0  0  0  0  0  0  0  0
   33.2410   32.4150   37.4920 H   0  0  0  0  0  0  0  0  0  0  0  0
   36.9160   29.2800   30.3660 C   0  0  0  0  0  0  0  0  0  0  0  0
   38.1890   29.6770   30.0630 F   0  0  0  0  0  0  0  0  0  0  0  0
   36.5080   28.1920   29.6230 F   0  0  0  0  0  0  0  0  0  0  0  0
   36.0840   30.3360   30.0370 F   0  0  0  0  0  0  0  0  0  0  0  0
  1  2  1  0  0  0  0
  2  3  1  0  0  0  0
  3  4  2  0  0  0  0
  3 12  1  0  0  0  0
  4  9  1  0  0  0  0
  5 10  1  0  0  0  0
  5  4  1  0  0  0  0
  6  5  2  0  0  0  0
  7  6  1  0  0  0  0
  8  6  1  0  0  0  0
  8  2  2  0  0  0  0
 11 16  1  0  0  0  0
 12 13  1  0  0  0  0
 12 11  2  0  0  0  0
 13 14  2  0  0  0  0
 14 15  1  0  0  0  0
 15 19  1  0  0  0  0
 16 15  2  0  0  0  0
 17 11  1  0  0  0  0
 18 13  1  0  0  0  0
 20  8  1  0  0  0  0
 21 20  1  0  0  0  0
 22 20  1  0  0  0  0
 23 20  1  0  0  0  0
M  END
>  <minimizedAffinity>
-4.65688276

$$$$

 OpenBabel03272508153D

 23 24  0  0  0  0  0  0  0  0999 V2000
   37.7970   23.9760   36.4990 Cl  0  0  0  0  0  0  0  0  0  0  0  0
   39.4080   24.2860   35.9170 C   0  0  0  0  0  0  0  0  0  0  0  0
   39.5010   25.3630   35.0760 C   0  0  0  0  0  0  0  0  0  0  0  0
   40.7590   25.6980   34.5490 C   0  0  0  0  0  0  0  0  0  0  0  0
   41.8720   24.9840   34.8540 C   0  0  0  0  0  0  0  0  0  0  0  0
   41.7610   23.9040   35.7020 C   0  0  0  0  0  0  0  0  0  0  0  0
   43.1710   22.9640   36.1160 Cl  0  0  0  0  0  0  0  0  0  0  0  0
   40.5460   23.5710   36.2180 C   0  0  0  0  0  0  0  0  0  0  0  0
   40.9260   26.5320   33.8780 H   0  0  0  0  0  0  0  0  0  0  0  0
   42.8520   25.2200   34.4640 H   0  0  0  0  0  0  0  0  0  0  0  0
   38.1020   27.3650   35.4330 C   0  0  0  0  0  0  0  0  0  0  0  0
   38.4390   26.2730   34.6100 C   0  0  0  0  0  0  0  0  0  0  0  0
   37.7470   26.1180   33.4020 C   0  0  0  0  0  0  0  0  0  0  0  0
   36.7890   27.0240   33.0840 N   0  0  0  0  0  0  0  0  0  0  0  0
   36.4890   28.0640   33.9010 C   0  0  0  0  0  0  0  0  0  0  0  0
   37.1480   28.2320   35.0760 N   0  0  0  0  0  0  0  0  0  0  0  0
   38.5980   27.5290   36.3650 H   0  0  0  0  0  0  0  0  0  0  0  0
   38.0200   25.2750   32.7850 H   0  0  0  0  0  0  0  0  0  0  0  0
   35.7010   28.6600   33.4600 H   0  0  0  0  0  0  0  0  0  0  0  0
   40.3390   22.4180   37.1430 C   0  0  0  0  0  0  0  0  0  0  0  0
   39.7380   22.7740   38.3170 F   0  0  0  0  0  0  0  0  0  0  0  0
   39.6170   21.4760   36.4410 F   0  0  0  0  0  0  0  0  0  0  0  0
   41.5500   21.8370   37.4780 F   0  0  0  0  0  0  0  0  0  0  0  0
  2  8  1  0  0  0  0
  2  1  1  0  0  0  0
  3  2  2  0  0  0  0
  4  5  2  0  0  0  0
  4  3  1  0  0  0  0
  5  6  1  0  0  0  0
  6  7  1  0  0  0  0
  6  8  2  0  0  0  0
  8 20  1  0  0  0  0
  9  4  1  0  0  0  0
 10  5  1  0  0  0  0
 11 17  1  0  0  0  0
 12  3  1  0  0  0  0
 12 11  2  0  0  0  0
 13 12  1  0  0  0  0
 14 13  2  0  0  0  0
 14 15  1  0  0  0  0
 15 16  2  0  0  0  0
 16 11  1  0  0  0  0
 18 13  1  0  0  0  0
 19 15  1  0  0  0  0
 20 23  1  0  0  0  0
 20 21  1  0  0  0  0
 22 20  1  0  0  0  0
M  END
>  <minimizedAffinity>
-4.64592648

$$$$

 OpenBabel03272508153D

 23 24  0  0  0  0  0  0  0  0999 V2000
   36.5350   27.9050   34.7610 Cl  0  0  0  0  0  0  0  0  0  0  0  0
   36.3240   28.7900   33.2780 C   0  0  0  0  0  0  0  0  0  0  0  0
   35.6590   29.9780   33.4260 C   0  0  0  0  0  0  0  0  0  0  0  0
   35.4360   30.7710   32.2880 C   0  0  0  0  0  0  0  0  0  0  0  0
   35.8630   30.3870   31.0580 C   0  0  0  0  0  0  0  0  0  0  0  0
   36.5300   29.1890   30.9260 C   0  0  0  0  0  0  0  0  0  0  0  0
   37.0940   28.6640   29.3620 Cl  0  0  0  0  0  0  0  0  0  0  0  0
   36.7510   28.4140   32.0240 C   0  0  0  0  0  0  0  0  0  0  0  0
   34.9200   31.7230   32.3100 H   0  0  0  0  0  0  0  0  0  0  0  0
   35.7060   30.9760   30.1660 H   0  0  0  0  0  0  0  0  0  0  0  0
   33.7460   30.3850   34.9320 C   0  0  0  0  0  0  0  0  0  0  0  0
   35.1100   30.5910   34.6490 C   0  0  0  0  0  0  0  0  0  0  0  0
   35.8610   31.3620   35.5450 C   0  0  0  0  0  0  0  0  0  0  0  0
   35.2400   31.8720   36.6380 N   0  0  0  0  0  0  0  0  0  0  0  0
   33.9240   31.6550   36.8790 C   0  0  0  0  0  0  0  0  0  0  0  0
   33.1780   30.9090   36.0230 N   0  0  0  0  0  0  0  0  0  0  0  0
   33.1270   29.8040   34.2820 H   0  0  0  0  0  0  0  0  0  0  0  0
   36.9050   31.5090   35.3110 H   0  0  0  0  0  0  0  0  0  0  0  0
   33.6340   32.1490   37.7980 H   0  0  0  0  0  0  0  0  0  0  0  0
   37.4660   27.1040   31.9690 C   0  0  0  0  0  0  0  0  0  0  0  0
   37.5890   26.6140   30.6990 F   0  0  0  0  0  0  0  0  0  0  0  0
   38.6850   27.2950   32.5850 F   0  0  0  0  0  0  0  0  0  0  0  0
   36.7850   26.1450   32.6990 F   0  0  0  0  0  0  0  0  0  0  0  0
  2  3  1  0  0  0  0
  2  1  1  0  0  0  0
  3 12  1  0  0  0  0
  4  9  1  0  0  0  0
  4  3  2  0  0  0  0
  5  4  1  0  0  0  0
  6  5  2  0  0  0  0
  6  8  1  0  0  0  0
  7  6  1  0  0  0  0
  8  2  2  0  0  0  0
 10  5  1  0  0  0  0
 11 16  1  0  0  0  0
 12 11  2  0  0  0  0
 12 13  1  0  0  0  0
 13 14  2  0  0  0  0
 14 15  1  0  0  0  0
 15 19  1  0  0  0  0
 16 15  2  0  0  0  0
 17 11  1  0  0  0  0
 18 13  1  0  0  0  0
 20  8  1  0  0  0  0
 20 22  1  0  0  0  0
 20 23  1  0  0  0  0
 21 20  1  0  0  0  0
M  END
>  <minimizedAffinity>
-4.63123846

$$$$

 OpenBabel03272508153D

 23 24  0  0  0  0  0  0  0  0999 V2000
   37.6410   27.4440   35.2590 Cl  0  0  0  0  0  0  0  0  0  0  0  0
   37.7720   25.8790   34.5090 C   0  0  0  0  0  0  0  0  0  0  0  0
   37.6230   25.8970   33.1470 C   0  0  0  0  0  0  0  0  0  0  0  0
   37.7100   24.6850   32.4440 C   0  0  0  0  0  0  0  0  0  0  0  0
   37.9380   23.5080   33.0810 C   0  0  0  0  0  0  0  0  0  0  0  0
   38.0860   23.5060   34.4510 C   0  0  0  0  0  0  0  0  0  0  0  0
   38.3800   22.0130   35.3010 Cl  0  0  0  0  0  0  0  0  0  0  0  0
   38.0030   24.6770   35.1400 C   0  0  0  0  0  0  0  0  0  0  0  0
   37.6060   24.6050   31.3690 H   0  0  0  0  0  0  0  0  0  0  0  0
   38.0110   22.5600   32.5660 H   0  0  0  0  0  0  0  0  0  0  0  0
   36.0610   27.5570   32.1990 C   0  0  0  0  0  0  0  0  0  0  0  0
   37.3710   27.0440   32.2550 C   0  0  0  0  0  0  0  0  0  0  0  0
   38.3530   27.6510   31.4620 C   0  0  0  0  0  0  0  0  0  0  0  0
   37.9960   28.7020   30.6820 N   0  0  0  0  0  0  0  0  0  0  0  0
   36.7240   29.1700   30.6510 C   0  0  0  0  0  0  0  0  0  0  0  0
   35.7580   28.5950   31.4130 N   0  0  0  0  0  0  0  0  0  0  0  0
   35.2740   27.1310   32.7830 H   0  0  0  0  0  0  0  0  0  0  0  0
   39.3510   27.2430   31.5190 H   0  0  0  0  0  0  0  0  0  0  0  0
   36.6590   30.0060   29.9670 H   0  0  0  0  0  0  0  0  0  0  0  0
   38.1520   24.7640   36.6240 C   0  0  0  0  0  0  0  0  0  0  0  0
   38.3110   26.0450   37.0720 F   0  0  0  0  0  0  0  0  0  0  0  0
   37.0450   24.1460   37.1670 F   0  0  0  0  0  0  0  0  0  0  0  0
   39.2640   24.0560   37.0450 F   0  0  0  0  0  0  0  0  0  0  0  0
  2  8  1  0  0  0  0
  2  1  1  0  0  0  0
  3  2  2  0  0  0  0
  4  5  2  0  0  0  0
  4  3  1  0  0  0  0
  5  6  1  0  0  0  0
  6  8  2  0  0  0  0
  6  7  1  0  0  0  0
  8 20  1  0  0  0  0
  9  4  1  0  0  0  0
 10  5  1  0  0  0  0
 11 12  1  0  0  0  0
 11 17  1  0  0  0  0
 12  3  1  0  0  0  0
 13 18  1  0  0  0  0
 13 12  2  0  0  0  0
 14 13  1  0  0  0  0
 15 14  2  0  0  0  0
 15 16  1  0  0  0  0
 16 11  2  0  0  0  0
 19 15  1  0  0  0  0
 20 23  1  0  0  0  0
 20 21  1  0  0  0  0
 20 22  1  0  0  0  0
M  END
>  <minimizedAffinity>
-4.60776615

$$$$
