
 OpenBabel03272510333D

 23 24  0  0  0  0  0  0  0  0999 V2000
   36.2440   30.4250   48.8520 C   0  0  0  0  0  0  0  0  0  0  0  0
   35.1970   30.3690   47.9490 C   0  0  0  0  0  0  0  0  0  0  0  0
   34.1860   29.4380   48.0870 C   0  0  0  0  0  0  0  0  0  0  0  0
   34.2550   28.5590   49.1620 C   0  0  0  0  0  0  0  0  0  0  0  0
   35.2900   28.6010   50.0700 C   0  0  0  0  0  0  0  0  0  0  0  0
   36.3050   29.5510   49.9140 C   0  0  0  0  0  0  0  0  0  0  0  0
   35.1510   31.0560   47.1140 H   0  0  0  0  0  0  0  0  0  0  0  0
   33.3590   29.3570   47.4140 H   0  0  0  0  0  0  0  0  0  0  0  0
   33.4970   27.8050   49.3290 H   0  0  0  0  0  0  0  0  0  0  0  0
   35.3150   27.9050   50.8950 H   0  0  0  0  0  0  0  0  0  0  0  0
   38.1940   33.4620   49.2830 C   0  0  0  0  0  0  0  0  0  0  0  0
   39.1370   33.4350   48.2570 C   0  0  0  0  0  0  0  0  0  0  0  0
   39.0890   32.3280   47.3940 C   0  0  0  0  0  0  0  0  0  0  0  0
   38.1530   31.3660   47.5980 N   0  0  0  0  0  0  0  0  0  0  0  0
   37.2550   31.4370   48.6150 C   0  0  0  0  0  0  0  0  0  0  0  0
   37.2980   32.4920   49.4390 N   0  0  0  0  0  0  0  0  0  0  0  0
   38.1870   34.3000   49.9810 H   0  0  0  0  0  0  0  0  0  0  0  0
   39.8660   34.2160   48.1200 H   0  0  0  0  0  0  0  0  0  0  0  0
   39.7990   32.2440   46.5670 H   0  0  0  0  0  0  0  0  0  0  0  0
   37.3980   29.5830   50.8970 C   0  0  0  0  0  0  0  0  0  0  0  0
   37.2070   30.5400   51.8600 F   0  0  0  0  0  0  0  0  0  0  0  0
   37.5980   28.3120   51.3900 F   0  0  0  0  0  0  0  0  0  0  0  0
   38.6080   29.9440   50.2740 F   0  0  0  0  0  0  0  0  0  0  0  0
  1  6  1  0  0  0  0
  2  3  1  0  0  0  0
  2  1  2  0  0  0  0
  3  4  2  0  0  0  0
  4  9  1  0  0  0  0
  4  5  1  0  0  0  0
  5 10  1  0  0  0  0
  6  5  2  0  0  0  0
  6 20  1  0  0  0  0
  7  2  1  0  0  0  0
  8  3  1  0  0  0  0
 11 16  1  0  0  0  0
 11 17  1  0  0  0  0
 12 11  2  0  0  0  0
 13 14  2  0  0  0  0
 13 12  1  0  0  0  0
 14 15  1  0  0  0  0
 15  1  1  0  0  0  0
 15 16  2  0  0  0  0
 18 12  1  0  0  0  0
 19 13  1  0  0  0  0
 20 22  1  0  0  0  0
 20 21  1  0  0  0  0
 23 20  1  0  0  0  0
M  END
>  <minimizedAffinity>
-6.00852108

>  <minimizedRMSD>
0.648920953

$$$$
