
 OpenBabel03272510013D

 16 16  0  0  0  0  0  0  0  0999 V2000
   38.2830   31.3130   50.1680 C   0  0  0  0  0  0  0  0  0  0  0  0
   38.4300   31.4450   48.7680 C   0  0  0  0  0  0  0  0  0  0  0  0
   37.4620   30.8700   47.9570 C   0  0  0  0  0  0  0  0  0  0  0  0
   36.4310   30.2120   48.5590 N   0  0  0  0  0  0  0  0  0  0  0  0
   36.3140   30.1010   49.8850 C   0  0  0  0  0  0  0  0  0  0  0  0
   37.2410   30.6520   50.6890 N   0  0  0  0  0  0  0  0  0  0  0  0
   39.0320   31.7580   50.7910 H   0  0  0  0  0  0  0  0  0  0  0  0
   39.2570   31.9710   48.3090 H   0  0  0  0  0  0  0  0  0  0  0  0
   35.1460   29.3610   50.4360 C   0  0  0  0  0  0  0  0  0  0  0  0
   35.2590   29.1150   51.7920 F   0  0  0  0  0  0  0  0  0  0  0  0
   33.9780   30.0840   50.2540 F   0  0  0  0  0  0  0  0  0  0  0  0
   34.9440   28.1520   49.8160 F   0  0  0  0  0  0  0  0  0  0  0  0
   37.5420   30.9620   46.4810 C   0  0  0  0  0  0  0  0  0  0  0  0
   36.3590   30.6230   45.8620 F   0  0  0  0  0  0  0  0  0  0  0  0
   38.5940   30.2270   45.9730 F   0  0  0  0  0  0  0  0  0  0  0  0
   37.8190   32.2840   46.1420 F   0  0  0  0  0  0  0  0  0  0  0  0
  1  6  1  0  0  0  0
  1  7  1  0  0  0  0
  2  1  2  0  0  0  0
  3  4  2  0  0  0  0
  3  2  1  0  0  0  0
  4  5  1  0  0  0  0
  5  9  1  0  0  0  0
  5  6  2  0  0  0  0
  8  2  1  0  0  0  0
  9 10  1  0  0  0  0
 11  9  1  0  0  0  0
 12  9  1  0  0  0  0
 13  3  1  0  0  0  0
 14 13  1  0  0  0  0
 15 13  1  0  0  0  0
 16 13  1  0  0  0  0
M  END
>  <minimizedAffinity>
-5.03435421

>  <minimizedRMSD>
0.478782743

$$$$
