
 OpenBabel03262523153D

 34 36  0  0  0  0  0  0  0  0999 V2000
   34.7700   29.1060   48.3200 C   0  0  0  0  0  0  0  0  0  0  0  0
   34.4170   27.8560   48.7880 C   0  0  0  0  0  0  0  0  0  0  0  0
   33.2930   27.3320   48.2000 C   0  0  0  0  0  0  0  0  0  0  0  0
   32.5770   27.9910   47.2280 C   0  0  0  0  0  0  0  0  0  0  0  0
   32.9970   29.2290   46.8230 C   0  0  0  0  0  0  0  0  0  0  0  0
   34.0970   29.7750   47.3770 N   0  0  0  0  0  0  0  0  0  0  0  0
   34.9730   27.3250   49.5530 H   0  0  0  0  0  0  0  0  0  0  0  0
   32.9680   26.3380   48.5350 H   0  0  0  0  0  0  0  0  0  0  0  0
   31.7130   27.4780   46.8350 H   0  0  0  0  0  0  0  0  0  0  0  0
   29.9770   29.1430   46.9630 Cl  0  0  0  0  0  0  0  0  0  0  0  0
   30.9100   29.9990   45.7790 C   0  0  0  0  0  0  0  0  0  0  0  0
   32.2820   29.9740   45.8060 C   0  0  0  0  0  0  0  0  0  0  0  0
   32.8920   30.7070   44.7960 C   0  0  0  0  0  0  0  0  0  0  0  0
   32.2260   31.4110   43.8350 C   0  0  0  0  0  0  0  0  0  0  0  0
   30.8450   31.4160   43.8400 C   0  0  0  0  0  0  0  0  0  0  0  0
   29.9370   32.2990   42.6370 Cl  0  0  0  0  0  0  0  0  0  0  0  0
   30.1920   30.7010   44.8240 C   0  0  0  0  0  0  0  0  0  0  0  0
   33.9740   30.7260   44.7610 H   0  0  0  0  0  0  0  0  0  0  0  0
   32.7690   31.9580   43.0830 H   0  0  0  0  0  0  0  0  0  0  0  0
   29.1120   30.7270   44.7970 H   0  0  0  0  0  0  0  0  0  0  0  0
   37.4020   30.1640   50.6620 C   0  0  0  0  0  0  0  0  0  0  0  0
   38.2080   31.0020   49.8710 C   0  0  0  0  0  0  0  0  0  0  0  0
   37.8270   31.1860   48.5470 C   0  0  0  0  0  0  0  0  0  0  0  0
   36.7200   30.5530   48.1180 N   0  0  0  0  0  0  0  0  0  0  0  0
   35.9560   29.7550   48.8740 C   0  0  0  0  0  0  0  0  0  0  0  0
   36.3180   29.5740   50.1530 N   0  0  0  0  0  0  0  0  0  0  0  0
   39.0740   31.4550   50.3300 H   0  0  0  0  0  0  0  0  0  0  0  0
   38.6720   32.0680   47.7090 C   0  0  0  0  0  0  0  0  0  0  0  0
   39.1450   33.1700   48.4180 F   0  0  0  0  0  0  0  0  0  0  0  0
   37.9340   32.6060   46.6500 F   0  0  0  0  0  0  0  0  0  0  0  0
   39.7100   31.3880   47.1180 F   0  0  0  0  0  0  0  0  0  0  0  0
   37.6930   29.8980   52.0420 N   0  0  0  0  0  0  0  0  0  0  0  0
   36.8920   30.2110   52.6680 H   0  0  0  0  0  0  0  0  0  0  0  0
   38.6520   29.4530   52.0260 H   0  0  0  0  0  0  0  0  0  0  0  0
  1  2  1  0  0  0  0
  1 25  1  0  0  0  0
  2  7  1  0  0  0  0
  3  8  1  0  0  0  0
  3  2  2  0  0  0  0
  4  3  1  0  0  0  0
  5  4  2  0  0  0  0
  5  6  1  0  0  0  0
  6  1  2  0  0  0  0
  9  4  1  0  0  0  0
 11 12  1  0  0  0  0
 11 10  1  0  0  0  0
 12  5  1  0  0  0  0
 13 12  2  0  0  0  0
 14 15  2  0  0  0  0
 14 13  1  0  0  0  0
 15 17  1  0  0  0  0
 16 15  1  0  0  0  0
 17 11  2  0  0  0  0
 18 13  1  0  0  0  0
 19 14  1  0  0  0  0
 20 17  1  0  0  0  0
 21 32  1  0  0  0  0
 22 27  1  0  0  0  0
 22 21  2  0  0  0  0
 23 22  1  0  0  0  0
 24 23  2  0  0  0  0
 24 25  1  0  0  0  0
 25 26  2  0  0  0  0
 26 21  1  0  0  0  0
 28 29  1  0  0  0  0
 28 23  1  0  0  0  0
 30 28  1  0  0  0  0
 31 28  1  0  0  0  0
 32 33  1  0  0  0  0
 34 32  1  0  0  0  0
M  END
>  <minimizedAffinity>
-6.69191456

>  <minimizedRMSD>
0.577953637

$$$$
