
 OpenBabel03272507563D

 18 18  0  0  0  0  0  0  0  0999 V2000
   38.1750   24.4780   34.4450 C   0  0  0  0  0  0  0  0  0  0  0  0
   38.2310   23.7440   35.6630 C   0  0  0  0  0  0  0  0  0  0  0  0
   38.2440   24.4470   36.8630 C   0  0  0  0  0  0  0  0  0  0  0  0
   38.1980   25.8260   36.7720 N   0  0  0  0  0  0  0  0  0  0  0  0
   38.1440   26.4810   35.6030 C   0  0  0  0  0  0  0  0  0  0  0  0
   38.1320   25.8190   34.4360 N   0  0  0  0  0  0  0  0  0  0  0  0
   38.1030   27.8930   35.8380 N   0  0  0  0  0  0  0  0  0  0  0  0
   38.1640   23.9630   33.4940 H   0  0  0  0  0  0  0  0  0  0  0  0
   38.7660   28.5350   35.3070 H   0  0  0  0  0  0  0  0  0  0  0  0
   37.4430   28.3320   36.5180 H   0  0  0  0  0  0  0  0  0  0  0  0
   38.2770   22.2560   35.6030 C   0  0  0  0  0  0  0  0  0  0  0  0
   37.1260   21.6800   36.1140 F   0  0  0  0  0  0  0  0  0  0  0  0
   38.4210   21.8820   34.2960 F   0  0  0  0  0  0  0  0  0  0  0  0
   39.3500   21.7370   36.3050 F   0  0  0  0  0  0  0  0  0  0  0  0
   38.3010   23.7310   38.1560 C   0  0  0  0  0  0  0  0  0  0  0  0
   39.5470   23.1820   38.4240 F   0  0  0  0  0  0  0  0  0  0  0  0
   38.1720   24.7310   39.1400 F   0  0  0  0  0  0  0  0  0  0  0  0
   37.2550   22.8870   38.3900 F   0  0  0  0  0  0  0  0  0  0  0  0
  1  2  1  0  0  0  0
  2  3  2  0  0  0  0
  3 15  1  0  0  0  0
  4  3  1  0  0  0  0
  5  7  1  0  0  0  0
  5  4  2  0  0  0  0
  6  1  2  0  0  0  0
  6  5  1  0  0  0  0
  7 10  1  0  0  0  0
  8  1  1  0  0  0  0
  9  7  1  0  0  0  0
 11  2  1  0  0  0  0
 11 12  1  0  0  0  0
 11 14  1  0  0  0  0
 13 11  1  0  0  0  0
 15 18  1  0  0  0  0
 15 16  1  0  0  0  0
 15 17  1  0  0  0  0
M  END
>  <minimizedAffinity>
-4.92821455

$$$$

 OpenBabel03272507563D

 18 18  0  0  0  0  0  0  0  0999 V2000
   40.9450   23.3490   35.4590 C   0  0  0  0  0  0  0  0  0  0  0  0
   39.7350   23.8330   36.0320 C   0  0  0  0  0  0  0  0  0  0  0  0
   39.2920   23.2690   37.2230 C   0  0  0  0  0  0  0  0  0  0  0  0
   40.0770   22.2670   37.7630 N   0  0  0  0  0  0  0  0  0  0  0  0
   41.2130   21.8400   37.1920 C   0  0  0  0  0  0  0  0  0  0  0  0
   41.6550   22.3720   36.0420 N   0  0  0  0  0  0  0  0  0  0  0  0
   41.7970   20.8030   37.9880 N   0  0  0  0  0  0  0  0  0  0  0  0
   41.3180   23.7650   34.5330 H   0  0  0  0  0  0  0  0  0  0  0  0
   42.1080   19.8960   37.5250 H   0  0  0  0  0  0  0  0  0  0  0  0
   41.9350   20.8940   39.0190 H   0  0  0  0  0  0  0  0  0  0  0  0
   38.9940   24.9200   35.3330 C   0  0  0  0  0  0  0  0  0  0  0  0
   38.6920   25.9720   36.1810 F   0  0  0  0  0  0  0  0  0  0  0  0
   39.7720   25.3820   34.3080 F   0  0  0  0  0  0  0  0  0  0  0  0
   37.8050   24.4730   34.7830 F   0  0  0  0  0  0  0  0  0  0  0  0
   38.0410   23.7370   37.8600 C   0  0  0  0  0  0  0  0  0  0  0  0
   36.9180   23.5410   37.0700 F   0  0  0  0  0  0  0  0  0  0  0  0
   37.8270   22.8640   38.9440 F   0  0  0  0  0  0  0  0  0  0  0  0
   38.1180   24.9740   38.4290 F   0  0  0  0  0  0  0  0  0  0  0  0
  1  2  2  0  0  0  0
  1  6  1  0  0  0  0
  2  3  1  0  0  0  0
  3  4  2  0  0  0  0
  3 15  1  0  0  0  0
  5  4  1  0  0  0  0
  5  7  1  0  0  0  0
  6  5  2  0  0  0  0
  7 10  1  0  0  0  0
  8  1  1  0  0  0  0
  9  7  1  0  0  0  0
 11  2  1  0  0  0  0
 11 12  1  0  0  0  0
 13 11  1  0  0  0  0
 14 11  1  0  0  0  0
 15 18  1  0  0  0  0
 15 17  1  0  0  0  0
 16 15  1  0  0  0  0
M  END
>  <minimizedAffinity>
-4.62488651

$$$$

 OpenBabel03272507563D

 18 18  0  0  0  0  0  0  0  0999 V2000
   38.1240   25.8680   36.5380 C   0  0  0  0  0  0  0  0  0  0  0  0
   38.1900   24.4550   36.6950 C   0  0  0  0  0  0  0  0  0  0  0  0
   38.1930   23.6600   35.5540 C   0  0  0  0  0  0  0  0  0  0  0  0
   38.1320   24.3190   34.3400 N   0  0  0  0  0  0  0  0  0  0  0  0
   38.0720   25.6550   34.2350 C   0  0  0  0  0  0  0  0  0  0  0  0
   38.0670   26.4370   35.3250 N   0  0  0  0  0  0  0  0  0  0  0  0
   38.0220   26.0320   32.8550 N   0  0  0  0  0  0  0  0  0  0  0  0
   38.1190   26.5160   37.4040 H   0  0  0  0  0  0  0  0  0  0  0  0
   37.2850   26.7250   32.5250 H   0  0  0  0  0  0  0  0  0  0  0  0
   38.6840   25.6530   32.1420 H   0  0  0  0  0  0  0  0  0  0  0  0
   38.2510   23.8870   38.0700 C   0  0  0  0  0  0  0  0  0  0  0  0
   39.4730   23.2910   38.3330 F   0  0  0  0  0  0  0  0  0  0  0  0
   38.0480   24.9010   38.9640 F   0  0  0  0  0  0  0  0  0  0  0  0
   37.2690   22.9380   38.2890 F   0  0  0  0  0  0  0  0  0  0  0  0
   38.2620   22.1860   35.6620 C   0  0  0  0  0  0  0  0  0  0  0  0
   37.0740   21.6120   36.0920 F   0  0  0  0  0  0  0  0  0  0  0  0
   38.3820   21.7210   34.3380 F   0  0  0  0  0  0  0  0  0  0  0  0
   39.3740   21.7090   36.2920 F   0  0  0  0  0  0  0  0  0  0  0  0
  1  2  1  0  0  0  0
  1  8  1  0  0  0  0
  2 11  1  0  0  0  0
  3 15  1  0  0  0  0
  3  2  2  0  0  0  0
  4  3  1  0  0  0  0
  5  4  2  0  0  0  0
  5  6  1  0  0  0  0
  6  1  2  0  0  0  0
  7  5  1  0  0  0  0
  9  7  1  0  0  0  0
 10  7  1  0  0  0  0
 11 14  1  0  0  0  0
 11 12  1  0  0  0  0
 11 13  1  0  0  0  0
 15 16  1  0  0  0  0
 15 18  1  0  0  0  0
 17 15  1  0  0  0  0
M  END
>  <minimizedAffinity>
-4.56870651

$$$$

 OpenBabel03272507563D

 18 18  0  0  0  0  0  0  0  0999 V2000
   38.1990   23.0290   34.8950 C   0  0  0  0  0  0  0  0  0  0  0  0
   38.1680   24.4460   34.7640 C   0  0  0  0  0  0  0  0  0  0  0  0
   38.2880   25.2220   35.9110 C   0  0  0  0  0  0  0  0  0  0  0  0
   38.4320   24.5420   37.1060 N   0  0  0  0  0  0  0  0  0  0  0  0
   38.4570   23.2030   37.1880 C   0  0  0  0  0  0  0  0  0  0  0  0
   38.3410   22.4390   36.0910 N   0  0  0  0  0  0  0  0  0  0  0  0
   38.6200   22.8020   38.5530 N   0  0  0  0  0  0  0  0  0  0  0  0
   38.1070   22.3950   34.0240 H   0  0  0  0  0  0  0  0  0  0  0  0
   37.9740   22.0640   38.9660 H   0  0  0  0  0  0  0  0  0  0  0  0
   39.3550   23.2070   39.1750 H   0  0  0  0  0  0  0  0  0  0  0  0
   38.0060   25.0370   33.4070 C   0  0  0  0  0  0  0  0  0  0  0  0
   39.0380   25.9060   33.0920 F   0  0  0  0  0  0  0  0  0  0  0  0
   37.9850   24.0200   32.4930 F   0  0  0  0  0  0  0  0  0  0  0  0
   36.8190   25.7360   33.2780 F   0  0  0  0  0  0  0  0  0  0  0  0
   38.2630   26.6990   35.8290 C   0  0  0  0  0  0  0  0  0  0  0  0
   37.0650   27.2000   35.3400 F   0  0  0  0  0  0  0  0  0  0  0  0
   38.2770   27.1460   37.1640 F   0  0  0  0  0  0  0  0  0  0  0  0
   39.3740   27.2600   35.2710 F   0  0  0  0  0  0  0  0  0  0  0  0
  1  6  1  0  0  0  0
  2  1  2  0  0  0  0
  2  3  1  0  0  0  0
  3  4  2  0  0  0  0
  4  5  1  0  0  0  0
  5  7  1  0  0  0  0
  6  5  2  0  0  0  0
  7  9  1  0  0  0  0
  7 10  1  0  0  0  0
  8  1  1  0  0  0  0
 11  2  1  0  0  0  0
 12 11  1  0  0  0  0
 13 11  1  0  0  0  0
 14 11  1  0  0  0  0
 15  3  1  0  0  0  0
 15 17  1  0  0  0  0
 16 15  1  0  0  0  0
 18 15  1  0  0  0  0
M  END
>  <minimizedAffinity>
-4.54268312

$$$$

 OpenBabel03272507563D

 18 18  0  0  0  0  0  0  0  0999 V2000
   41.0570   24.2510   34.9740 C   0  0  0  0  0  0  0  0  0  0  0  0
   39.8080   24.7150   35.4760 C   0  0  0  0  0  0  0  0  0  0  0  0
   39.5290   26.0750   35.4060 C   0  0  0  0  0  0  0  0  0  0  0  0
   40.5030   26.8790   34.8440 N   0  0  0  0  0  0  0  0  0  0  0  0
   41.6680   26.4020   34.3820 C   0  0  0  0  0  0  0  0  0  0  0  0
   41.9550   25.0930   34.4420 N   0  0  0  0  0  0  0  0  0  0  0  0
   42.4600   27.4750   33.8600 N   0  0  0  0  0  0  0  0  0  0  0  0
   41.3070   23.2000   35.0130 H   0  0  0  0  0  0  0  0  0  0  0  0
   43.4790   27.5690   34.1540 H   0  0  0  0  0  0  0  0  0  0  0  0
   42.0800   28.1830   33.1930 H   0  0  0  0  0  0  0  0  0  0  0  0
   38.8550   23.7270   36.0550 C   0  0  0  0  0  0  0  0  0  0  0  0
   37.7100   23.5990   35.2880 F   0  0  0  0  0  0  0  0  0  0  0  0
   39.4830   22.5150   36.1260 F   0  0  0  0  0  0  0  0  0  0  0  0
   38.4630   24.0690   37.3370 F   0  0  0  0  0  0  0  0  0  0  0  0
   38.2440   26.6080   35.9120 C   0  0  0  0  0  0  0  0  0  0  0  0
   38.1530   26.5940   37.2960 F   0  0  0  0  0  0  0  0  0  0  0  0
   38.2670   27.9830   35.6060 F   0  0  0  0  0  0  0  0  0  0  0  0
   37.1370   26.1350   35.2720 F   0  0  0  0  0  0  0  0  0  0  0  0
  1  8  1  0  0  0  0
  1  2  1  0  0  0  0
  2 11  1  0  0  0  0
  3  2  2  0  0  0  0
  3 15  1  0  0  0  0
  4  3  1  0  0  0  0
  5  6  1  0  0  0  0
  5  4  2  0  0  0  0
  6  1  2  0  0  0  0
  7  9  1  0  0  0  0
  7  5  1  0  0  0  0
 10  7  1  0  0  0  0
 11 13  1  0  0  0  0
 11 14  1  0  0  0  0
 12 11  1  0  0  0  0
 15 16  1  0  0  0  0
 17 15  1  0  0  0  0
 18 15  1  0  0  0  0
M  END
>  <minimizedAffinity>
-4.22818136

$$$$

 OpenBabel03272507563D

 18 18  0  0  0  0  0  0  0  0999 V2000
   37.1340   26.9570   33.5570 C   0  0  0  0  0  0  0  0  0  0  0  0
   37.9410   26.2730   34.5100 C   0  0  0  0  0  0  0  0  0  0  0  0
   38.2000   24.9210   34.3120 C   0  0  0  0  0  0  0  0  0  0  0  0
   37.6420   24.3420   33.1870 N   0  0  0  0  0  0  0  0  0  0  0  0
   36.8870   25.0230   32.3120 C   0  0  0  0  0  0  0  0  0  0  0  0
   36.6270   26.3270   32.4870 N   0  0  0  0  0  0  0  0  0  0  0  0
   36.4620   24.1520   31.2580 N   0  0  0  0  0  0  0  0  0  0  0  0
   36.9120   28.0080   33.6790 H   0  0  0  0  0  0  0  0  0  0  0  0
   35.4360   24.1280   30.9760 H   0  0  0  0  0  0  0  0  0  0  0  0
   37.1220   23.5280   30.7420 H   0  0  0  0  0  0  0  0  0  0  0  0
   38.4730   27.0310   35.6760 C   0  0  0  0  0  0  0  0  0  0  0  0
   39.8430   27.2170   35.5940 F   0  0  0  0  0  0  0  0  0  0  0  0
   37.8590   28.2520   35.7120 F   0  0  0  0  0  0  0  0  0  0  0  0
   38.2090   26.3970   36.8770 F   0  0  0  0  0  0  0  0  0  0  0  0
   39.0340   24.1650   35.2720 C   0  0  0  0  0  0  0  0  0  0  0  0
   38.3880   23.9040   36.4720 F   0  0  0  0  0  0  0  0  0  0  0  0
   39.1860   22.8850   34.7040 F   0  0  0  0  0  0  0  0  0  0  0  0
   40.3090   24.6290   35.4120 F   0  0  0  0  0  0  0  0  0  0  0  0
  1  8  1  0  0  0  0
  1  2  1  0  0  0  0
  2 11  1  0  0  0  0
  3  2  2  0  0  0  0
  3 15  1  0  0  0  0
  4  3  1  0  0  0  0
  5  6  1  0  0  0  0
  5  4  2  0  0  0  0
  6  1  2  0  0  0  0
  7  5  1  0  0  0  0
  9  7  1  0  0  0  0
 10  7  1  0  0  0  0
 11 13  1  0  0  0  0
 11 14  1  0  0  0  0
 12 11  1  0  0  0  0
 15 18  1  0  0  0  0
 15 16  1  0  0  0  0
 17 15  1  0  0  0  0
M  END
>  <minimizedAffinity>
-4.209167

$$$$

 OpenBabel03272507563D

 18 18  0  0  0  0  0  0  0  0999 V2000
   37.8310   24.0120   33.3190 C   0  0  0  0  0  0  0  0  0  0  0  0
   38.3590   24.7360   34.4260 C   0  0  0  0  0  0  0  0  0  0  0  0
   38.0360   26.0830   34.5530 C   0  0  0  0  0  0  0  0  0  0  0  0
   37.2140   26.6170   33.5780 N   0  0  0  0  0  0  0  0  0  0  0  0
   36.7360   25.8990   32.5500 C   0  0  0  0  0  0  0  0  0  0  0  0
   37.0370   24.6000   32.4120 N   0  0  0  0  0  0  0  0  0  0  0  0
   35.9170   26.7280   31.7190 N   0  0  0  0  0  0  0  0  0  0  0  0
   38.0610   22.9640   33.1900 H   0  0  0  0  0  0  0  0  0  0  0  0
   36.0700   26.7330   30.6650 H   0  0  0  0  0  0  0  0  0  0  0  0
   35.1620   27.3400   32.1020 H   0  0  0  0  0  0  0  0  0  0  0  0
   39.2340   24.0240   35.3980 C   0  0  0  0  0  0  0  0  0  0  0  0
   40.4530   24.6590   35.5620 F   0  0  0  0  0  0  0  0  0  0  0  0
   38.5900   23.9770   36.6030 F   0  0  0  0  0  0  0  0  0  0  0  0
   39.4920   22.7200   35.0130 F   0  0  0  0  0  0  0  0  0  0  0  0
   38.5580   26.8800   35.6850 C   0  0  0  0  0  0  0  0  0  0  0  0
   39.9000   27.2040   35.5530 F   0  0  0  0  0  0  0  0  0  0  0  0
   37.9150   28.1290   35.5880 F   0  0  0  0  0  0  0  0  0  0  0  0
   38.2130   26.4140   36.9200 F   0  0  0  0  0  0  0  0  0  0  0  0
  1  2  1  0  0  0  0
  2  3  2  0  0  0  0
  2 11  1  0  0  0  0
  3 15  1  0  0  0  0
  4  3  1  0  0  0  0
  5  4  2  0  0  0  0
  6  5  1  0  0  0  0
  6  1  2  0  0  0  0
  7 10  1  0  0  0  0
  7  5  1  0  0  0  0
  8  1  1  0  0  0  0
  9  7  1  0  0  0  0
 11 12  1  0  0  0  0
 11 13  1  0  0  0  0
 14 11  1  0  0  0  0
 15 18  1  0  0  0  0
 16 15  1  0  0  0  0
 17 15  1  0  0  0  0
M  END
>  <minimizedAffinity>
-4.15985918

$$$$

 OpenBabel03272507563D

 18 18  0  0  0  0  0  0  0  0999 V2000
   39.7080   27.0750   31.9840 C   0  0  0  0  0  0  0  0  0  0  0  0
   38.6690   27.0950   32.9570 C   0  0  0  0  0  0  0  0  0  0  0  0
   39.0190   27.1600   34.3010 C   0  0  0  0  0  0  0  0  0  0  0  0
   40.3710   27.2020   34.5870 N   0  0  0  0  0  0  0  0  0  0  0  0
   41.3210   27.1810   33.6400 C   0  0  0  0  0  0  0  0  0  0  0  0
   41.0010   27.1190   32.3390 N   0  0  0  0  0  0  0  0  0  0  0  0
   42.6150   27.2390   34.2490 N   0  0  0  0  0  0  0  0  0  0  0  0
   39.4720   27.0250   30.9300 H   0  0  0  0  0  0  0  0  0  0  0  0
   43.3670   26.5440   33.9550 H   0  0  0  0  0  0  0  0  0  0  0  0
   42.8640   27.9410   34.9810 H   0  0  0  0  0  0  0  0  0  0  0  0
   37.2540   27.0450   32.4960 C   0  0  0  0  0  0  0  0  0  0  0  0
   36.5300   28.1480   32.9170 F   0  0  0  0  0  0  0  0  0  0  0  0
   37.2470   27.0020   31.1300 F   0  0  0  0  0  0  0  0  0  0  0  0
   36.5960   25.9160   32.9510 F   0  0  0  0  0  0  0  0  0  0  0  0
   37.9770   27.1840   35.3510 C   0  0  0  0  0  0  0  0  0  0  0  0
   37.2310   26.0170   35.4100 F   0  0  0  0  0  0  0  0  0  0  0  0
   38.6800   27.1780   36.5720 F   0  0  0  0  0  0  0  0  0  0  0  0
   37.2330   28.3270   35.3930 F   0  0  0  0  0  0  0  0  0  0  0  0
  1  6  2  0  0  0  0
  1  2  1  0  0  0  0
  2  3  2  0  0  0  0
  3  4  1  0  0  0  0
  3 15  1  0  0  0  0
  5  7  1  0  0  0  0
  5  4  2  0  0  0  0
  6  5  1  0  0  0  0
  7 10  1  0  0  0  0
  8  1  1  0  0  0  0
  9  7  1  0  0  0  0
 11 12  1  0  0  0  0
 11 14  1  0  0  0  0
 11  2  1  0  0  0  0
 13 11  1  0  0  0  0
 15 18  1  0  0  0  0
 15 16  1  0  0  0  0
 15 17  1  0  0  0  0
M  END
>  <minimizedAffinity>
-4.15269852

$$$$

 OpenBabel03272507563D

 18 18  0  0  0  0  0  0  0  0999 V2000
   38.0720   23.4520   33.0300 C   0  0  0  0  0  0  0  0  0  0  0  0
   37.1690   22.4540   32.5650 C   0  0  0  0  0  0  0  0  0  0  0  0
   36.7170   21.4960   33.4650 C   0  0  0  0  0  0  0  0  0  0  0  0
   37.1890   21.5930   34.7610 N   0  0  0  0  0  0  0  0  0  0  0  0
   38.0400   22.5490   35.1600 C   0  0  0  0  0  0  0  0  0  0  0  0
   38.4870   23.4810   34.3050 N   0  0  0  0  0  0  0  0  0  0  0  0
   38.3380   22.3850   36.5510 N   0  0  0  0  0  0  0  0  0  0  0  0
   38.4440   24.2120   32.3570 H   0  0  0  0  0  0  0  0  0  0  0  0
   39.3510   22.3990   36.8780 H   0  0  0  0  0  0  0  0  0  0  0  0
   37.5970   22.2490   37.2740 H   0  0  0  0  0  0  0  0  0  0  0  0
   36.7480   22.4770   31.1370 C   0  0  0  0  0  0  0  0  0  0  0  0
   35.4070   22.7910   30.9950 F   0  0  0  0  0  0  0  0  0  0  0  0
   37.4960   23.4150   30.4820 F   0  0  0  0  0  0  0  0  0  0  0  0
   36.9610   21.2630   30.5080 F   0  0  0  0  0  0  0  0  0  0  0  0
   35.7760   20.4390   33.0330 C   0  0  0  0  0  0  0  0  0  0  0  0
   36.3760   19.4550   32.2600 F   0  0  0  0  0  0  0  0  0  0  0  0
   35.4220   19.7520   34.2100 F   0  0  0  0  0  0  0  0  0  0  0  0
   34.5910   20.8960   32.5360 F   0  0  0  0  0  0  0  0  0  0  0  0
  1  6  1  0  0  0  0
  2  1  2  0  0  0  0
  2  3  1  0  0  0  0
  3  4  2  0  0  0  0
  4  5  1  0  0  0  0
  5  7  1  0  0  0  0
  6  5  2  0  0  0  0
  7  9  1  0  0  0  0
  7 10  1  0  0  0  0
  8  1  1  0  0  0  0
 11  2  1  0  0  0  0
 12 11  1  0  0  0  0
 13 11  1  0  0  0  0
 14 11  1  0  0  0  0
 15  3  1  0  0  0  0
 15 17  1  0  0  0  0
 16 15  1  0  0  0  0
 18 15  1  0  0  0  0
M  END
>  <minimizedAffinity>
-4.12673903

$$$$
