
 OpenBabel03272503193D

 30 32  0  0  0  0  0  0  0  0999 V2000
   38.0450   31.4500   47.4850 C   0  0  0  0  0  0  0  0  0  0  0  0
   39.0070   32.3420   47.2480 C   0  0  0  0  0  0  0  0  0  0  0  0
   39.3270   32.6720   45.9910 C   0  0  0  0  0  0  0  0  0  0  0  0
   38.6270   32.0550   44.9720 C   0  0  0  0  0  0  0  0  0  0  0  0
   37.4810   30.9770   45.8950 S   0  0  0  0  0  0  0  0  0  0  0  0
   39.5120   32.7810   48.1110 H   0  0  0  0  0  0  0  0  0  0  0  0
   40.0820   33.3750   45.6600 H   0  0  0  0  0  0  0  0  0  0  0  0
   40.9220   30.5360   43.6480 Cl  0  0  0  0  0  0  0  0  0  0  0  0
   39.6850   31.4980   42.8710 C   0  0  0  0  0  0  0  0  0  0  0  0
   38.6860   32.1520   43.5300 C   0  0  0  0  0  0  0  0  0  0  0  0
   37.7120   32.9030   42.9800 C   0  0  0  0  0  0  0  0  0  0  0  0
   37.6880   33.0540   41.5890 C   0  0  0  0  0  0  0  0  0  0  0  0
   38.6650   32.4240   40.8560 C   0  0  0  0  0  0  0  0  0  0  0  0
   38.7290   32.5470   39.1080 Cl  0  0  0  0  0  0  0  0  0  0  0  0
   39.6510   31.6570   41.4780 C   0  0  0  0  0  0  0  0  0  0  0  0
   36.9220   33.4170   43.5220 H   0  0  0  0  0  0  0  0  0  0  0  0
   36.9390   33.6410   41.0790 H   0  0  0  0  0  0  0  0  0  0  0  0
   40.4300   31.1540   40.8940 H   0  0  0  0  0  0  0  0  0  0  0  0
   37.6290   30.4170   51.0810 C   0  0  0  0  0  0  0  0  0  0  0  0
   38.2200   30.9550   49.9250 C   0  0  0  0  0  0  0  0  0  0  0  0
   37.4910   30.9070   48.7290 C   0  0  0  0  0  0  0  0  0  0  0  0
   36.2680   30.3570   48.7220 N   0  0  0  0  0  0  0  0  0  0  0  0
   35.7330   29.8500   49.8550 C   0  0  0  0  0  0  0  0  0  0  0  0
   36.4060   29.8810   51.0170 N   0  0  0  0  0  0  0  0  0  0  0  0
   38.1580   30.4340   52.0230 H   0  0  0  0  0  0  0  0  0  0  0  0
   39.1970   31.3920   49.9370 H   0  0  0  0  0  0  0  0  0  0  0  0
   34.3670   29.2620   49.7350 C   0  0  0  0  0  0  0  0  0  0  0  0
   33.5300   29.6390   50.7620 F   0  0  0  0  0  0  0  0  0  0  0  0
   34.4460   27.8650   49.7920 F   0  0  0  0  0  0  0  0  0  0  0  0
   33.8200   29.5240   48.4830 F   0  0  0  0  0  0  0  0  0  0  0  0
  1 21  1  0  0  0  0
  2  1  2  0  0  0  0
  2  6  1  0  0  0  0
  3  2  1  0  0  0  0
  4  5  1  0  0  0  0
  4  3  2  0  0  0  0
  5  1  1  0  0  0  0
  7  3  1  0  0  0  0
  9 10  1  0  0  0  0
  9  8  1  0  0  0  0
 10  4  1  0  0  0  0
 11 16  1  0  0  0  0
 11 10  2  0  0  0  0
 12 11  1  0  0  0  0
 13 15  1  0  0  0  0
 13 12  2  0  0  0  0
 14 13  1  0  0  0  0
 15  9  2  0  0  0  0
 17 12  1  0  0  0  0
 18 15  1  0  0  0  0
 19 25  1  0  0  0  0
 20 26  1  0  0  0  0
 20 19  2  0  0  0  0
 21 20  1  0  0  0  0
 22 21  2  0  0  0  0
 22 23  1  0  0  0  0
 23 24  2  0  0  0  0
 24 19  1  0  0  0  0
 27 29  1  0  0  0  0
 27 23  1  0  0  0  0
 27 28  1  0  0  0  0
 30 27  1  0  0  0  0
M  END
>  <minimizedAffinity>
-6.28791285

>  <minimizedRMSD>
1.21002817

$$$$
