
 OpenBabel03272509503D

 28 29  0  0  0  0  0  0  0  0999 V2000
   33.8780   28.6570   48.7730 C   0  0  0  0  0  0  0  0  0  0  0  0
   33.2270   29.2820   49.4510 H   0  0  0  0  0  0  0  0  0  0  0  0
   34.2320   29.3260   47.9820 H   0  0  0  0  0  0  0  0  0  0  0  0
   33.0300   27.5130   48.2900 C   0  0  0  0  0  0  0  0  0  0  0  0
   33.1040   26.6670   49.0220 H   0  0  0  0  0  0  0  0  0  0  0  0
   33.4670   27.0870   47.3420 H   0  0  0  0  0  0  0  0  0  0  0  0
   31.6040   27.8870   48.1370 C   0  0  0  0  0  0  0  0  0  0  0  0
   30.7710   27.6390   49.2030 C   0  0  0  0  0  0  0  0  0  0  0  0
   29.4320   27.9390   49.1860 C   0  0  0  0  0  0  0  0  0  0  0  0
   28.9020   28.4970   48.0900 N   0  0  0  0  0  0  0  0  0  0  0  0
   29.7200   28.7410   47.0450 C   0  0  0  0  0  0  0  0  0  0  0  0
   31.0350   28.4520   47.0490 N   0  0  0  0  0  0  0  0  0  0  0  0
   31.1440   27.1850   50.1260 H   0  0  0  0  0  0  0  0  0  0  0  0
   28.7580   27.7450   50.0330 H   0  0  0  0  0  0  0  0  0  0  0  0
   29.3320   29.1890   46.1440 H   0  0  0  0  0  0  0  0  0  0  0  0
   34.9300   28.1680   49.5890 O   0  0  0  0  0  0  0  0  0  0  0  0
   37.3080   30.2140   51.3960 C   0  0  0  0  0  0  0  0  0  0  0  0
   37.9590   30.8480   50.3300 C   0  0  0  0  0  0  0  0  0  0  0  0
   37.5300   30.5240   49.0440 C   0  0  0  0  0  0  0  0  0  0  0  0
   36.5150   29.6220   48.9090 N   0  0  0  0  0  0  0  0  0  0  0  0
   35.9220   29.0390   49.9560 C   0  0  0  0  0  0  0  0  0  0  0  0
   36.3260   29.3430   51.2000 N   0  0  0  0  0  0  0  0  0  0  0  0
   37.6660   30.4870   52.3840 H   0  0  0  0  0  0  0  0  0  0  0  0
   38.7610   31.5600   50.4700 H   0  0  0  0  0  0  0  0  0  0  0  0
   38.1650   31.1520   47.8320 C   0  0  0  0  0  0  0  0  0  0  0  0
   39.1800   31.9750   48.3340 F   0  0  0  0  0  0  0  0  0  0  0  0
   38.6910   30.1620   47.0090 F   0  0  0  0  0  0  0  0  0  0  0  0
   37.1990   31.8590   47.1770 F   0  0  0  0  0  0  0  0  0  0  0  0
  1  2  1  0  0  0  0
  1 16  1  0  0  0  0
  3  1  1  0  0  0  0
  4  1  1  0  0  0  0
  4  5  1  0  0  0  0
  6  4  1  0  0  0  0
  7  4  1  0  0  0  0
  7  8  1  0  0  0  0
  8 13  1  0  0  0  0
  9  8  2  0  0  0  0
  9 14  1  0  0  0  0
 10  9  1  0  0  0  0
 11 12  1  0  0  0  0
 11 10  2  0  0  0  0
 12  7  2  0  0  0  0
 15 11  1  0  0  0  0
 16 21  1  0  0  0  0
 17 23  1  0  0  0  0
 18 24  1  0  0  0  0
 18 17  2  0  0  0  0
 19 18  1  0  0  0  0
 20 19  2  0  0  0  0
 20 21  1  0  0  0  0
 21 22  2  0  0  0  0
 22 17  1  0  0  0  0
 25 26  1  0  0  0  0
 25 19  1  0  0  0  0
 27 25  1  0  0  0  0
 28 25  1  0  0  0  0
M  END
>  <minimizedAffinity>
-5.22029495

>  <minimizedRMSD>
0.41171959

$$$$
