
 OpenBabel03272502473D

 37 39  0  0  0  0  0  0  0  0999 V2000
   36.5420   30.6720   50.5750 C   0  0  0  0  0  0  0  0  0  0  0  0
   37.5490   31.3830   49.9270 C   0  0  0  0  0  0  0  0  0  0  0  0
   37.4230   31.5430   48.5490 C   0  0  0  0  0  0  0  0  0  0  0  0
   36.3470   31.0080   47.9190 N   0  0  0  0  0  0  0  0  0  0  0  0
   35.3950   30.3260   48.5900 C   0  0  0  0  0  0  0  0  0  0  0  0
   35.5080   30.1690   49.9040 N   0  0  0  0  0  0  0  0  0  0  0  0
   36.6150   30.5330   51.6440 H   0  0  0  0  0  0  0  0  0  0  0  0
   38.4110   31.8120   50.4220 H   0  0  0  0  0  0  0  0  0  0  0  0
   38.4210   32.2730   47.7510 C   0  0  0  0  0  0  0  0  0  0  0  0
   39.1220   33.3640   48.2050 C   0  0  0  0  0  0  0  0  0  0  0  0
   39.9620   33.8240   47.2580 N   0  0  0  0  0  0  0  0  0  0  0  0
   39.7930   33.0200   46.1940 C   0  0  0  0  0  0  0  0  0  0  0  0
   38.8700   32.1070   46.5160 N   0  0  0  0  0  0  0  0  0  0  0  0
   40.5450   31.7500   44.2600 C   0  0  0  0  0  0  0  0  0  0  0  0
   40.1410   30.7150   44.8120 O   0  0  0  0  0  0  0  0  0  0  0  0
   40.4060   33.0210   44.9110 N   0  0  0  0  0  0  0  0  0  0  0  0
   39.0390   33.8260   49.1950 H   0  0  0  0  0  0  0  0  0  0  0  0
   40.6320   34.6250   47.2680 H   0  0  0  0  0  0  0  0  0  0  0  0
   41.0200   31.7030   43.2540 H   0  0  0  0  0  0  0  0  0  0  0  0
   40.7320   33.9110   44.4820 H   0  0  0  0  0  0  0  0  0  0  0  0
   34.6810   27.5380   49.2940 Cl  0  0  0  0  0  0  0  0  0  0  0  0
   33.8470   28.4840   48.0950 C   0  0  0  0  0  0  0  0  0  0  0  0
   34.2590   29.7760   47.8420 C   0  0  0  0  0  0  0  0  0  0  0  0
   33.6230   30.5470   46.9030 C   0  0  0  0  0  0  0  0  0  0  0  0
   32.5590   30.0590   46.1870 C   0  0  0  0  0  0  0  0  0  0  0  0
   32.1290   28.7760   46.4220 C   0  0  0  0  0  0  0  0  0  0  0  0
   30.7760   28.0480   45.5650 Cl  0  0  0  0  0  0  0  0  0  0  0  0
   32.7950   28.0390   47.3700 C   0  0  0  0  0  0  0  0  0  0  0  0
   33.9460   31.5730   46.6970 H   0  0  0  0  0  0  0  0  0  0  0  0
   32.3360   26.6360   47.6370 C   0  0  0  0  0  0  0  0  0  0  0  0
   33.4260   25.7780   47.7850 F   0  0  0  0  0  0  0  0  0  0  0  0
   31.6660   26.1270   46.5180 F   0  0  0  0  0  0  0  0  0  0  0  0
   31.4620   26.5440   48.6870 F   0  0  0  0  0  0  0  0  0  0  0  0
   31.8380   30.8640   45.1580 C   0  0  0  0  0  0  0  0  0  0  0  0
   32.0180   30.4040   43.8890 F   0  0  0  0  0  0  0  0  0  0  0  0
   30.4840   30.8660   45.4220 F   0  0  0  0  0  0  0  0  0  0  0  0
   32.2370   32.2010   45.2750 F   0  0  0  0  0  0  0  0  0  0  0  0
  1  7  1  0  0  0  0
  2  8  1  0  0  0  0
  2  1  1  0  0  0  0
  3  2  2  0  0  0  0
  4  3  1  0  0  0  0
  4  5  2  0  0  0  0
  5  6  1  0  0  0  0
  6  1  2  0  0  0  0
  9 10  2  0  0  0  0
  9  3  1  0  0  0  0
 10 17  1  0  0  0  0
 11 18  1  0  0  0  0
 11 10  1  0  0  0  0
 12 13  2  0  0  0  0
 12 11  1  0  0  0  0
 13  9  1  0  0  0  0
 14 15  2  0  0  0  0
 14 16  1  0  0  0  0
 16 12  1  0  0  0  0
 19 14  1  0  0  0  0
 20 16  1  0  0  0  0
 22 21  1  0  0  0  0
 23 22  1  0  0  0  0
 23  5  1  0  0  0  0
 24 23  2  0  0  0  0
 25 26  2  0  0  0  0
 25 24  1  0  0  0  0
 26 28  1  0  0  0  0
 27 26  1  0  0  0  0
 28 30  1  0  0  0  0
 28 22  2  0  0  0  0
 29 24  1  0  0  0  0
 30 31  1  0  0  0  0
 30 33  1  0  0  0  0
 32 30  1  0  0  0  0
 34 37  1  0  0  0  0
 34 36  1  0  0  0  0
 34 25  1  0  0  0  0
 35 34  1  0  0  0  0
M  END
>  <minimizedAffinity>
-6.6687808

>  <minimizedRMSD>
0.372143418

$$$$
