
 OpenBabel03272508233D

 44 44  0  0  1  0  0  0  0  0999 V2000
   33.4950   28.4870   48.0530 C   0  0  0  0  0  0  0  0  0  0  0  0
   33.9120   27.6400   47.4250 H   0  0  0  0  0  0  0  0  0  0  0  0
   33.0830   29.1770   47.2880 H   0  0  0  0  0  0  0  0  0  0  0  0
   34.9250   30.7010   47.1550 F   0  0  0  0  0  0  0  0  0  0  0  0
   35.2230   30.1000   48.3490 C   0  0  0  0  0  0  0  0  0  0  0  0
   34.5360   28.9890   48.8660 C   0  0  0  0  0  0  0  0  0  0  0  0
   34.9720   28.5570   50.0430 C   0  0  0  0  0  0  0  0  0  0  0  0
   36.0060   29.1110   50.7440 C   0  0  0  0  0  0  0  0  0  0  0  0
   36.6950   30.2120   50.2420 C   0  0  0  0  0  0  0  0  0  0  0  0
   36.2540   30.6560   49.0420 C   0  0  0  0  0  0  0  0  0  0  0  0
   34.4420   27.6850   50.4610 H   0  0  0  0  0  0  0  0  0  0  0  0
   36.2730   28.6620   51.7080 H   0  0  0  0  0  0  0  0  0  0  0  0
   37.8030   30.8050   50.9950 C   0  0  0  0  0  0  0  0  0  0  0  0
   37.6790   31.9210   51.0890 H   0  0  0  0  0  0  0  0  0  0  0  0
   37.8170   30.4210   52.0320 H   0  0  0  0  0  0  0  0  0  0  0  0
   38.7420   30.5740   50.4880 H   0  0  0  0  0  0  0  0  0  0  0  0
   36.9730   31.7880   48.5260 O   0  0  0  0  0  0  0  0  0  0  0  0
   38.1220   31.4810   47.8510 C   0  0  0  0  0  0  0  0  0  0  0  0
   39.0380   32.3510   47.9970 O   0  0  0  0  0  0  0  0  0  0  0  0
   38.5180   30.4240   47.0350 N   0  0  0  0  0  0  0  0  0  0  0  0
   38.8010   30.5240   46.0120 H   0  0  0  0  0 10  0  0  0  0  0  0
   38.8340   29.7730   46.2870 H   0  0  0  0  0  0  0  0  0  0  0  0
   32.3110   27.8980   48.7390 C   0  0  0  0  0  0  0  0  0  0  0  0
   32.6690   27.1870   49.5110 H   0  0  0  0  0  0  0  0  0  0  0  0
   31.8570   28.7640   49.3070 H   0  0  0  0  0  0  0  0  0  0  0  0
   30.0200   27.2140   48.2730 C   0  0  0  0  0  0  0  0  0  0  0  0
   31.3340   27.2760   47.8960 C   0  0  0  0  0  0  0  0  0  0  0  0
   31.5990   26.7200   46.7030 C   0  0  0  0  0  0  0  0  0  0  0  0
   30.6540   26.1510   45.9470 N   0  0  0  0  0  0  0  0  0  0  0  0
   29.3610   26.0840   46.3060 C   0  0  0  0  0  0  0  0  0  0  0  0
   29.0360   26.6200   47.4820 N   0  0  0  0  0  0  0  0  0  0  0  0
   32.6020   26.6990   46.2820 H   0  0  0  0  0  0  0  0  0  0  0  0
   28.6600   25.6070   45.6380 H   0  0  0  0  0  0  0  0  0  0  0  0
   29.5340   27.7730   49.5960 C   0  0  1  0  0  0  0  0  0  0  0  0
   28.6870   28.9110   49.6360 C   0  0  0  0  0  0  0  0  0  0  0  0
   28.0440   27.5270   49.7930 C   0  0  2  0  0  0  0  0  0  0  0  0
   30.1520   27.5230   50.4550 H   0  0  0  0  0  0  0  0  0  0  0  0
   28.4340   29.4720   48.7150 H   0  0  0  0  0  0  0  0  0  0  0  0
   28.7170   29.5750   50.5490 H   0  0  0  0  0  0  0  0  0  0  0  0
   27.4320   27.1870   48.9360 H   0  0  0  0  0  0  0  0  0  0  0  0
   27.5330   27.2020   51.1550 C   0  0  0  0  0  0  0  0  0  0  0  0
   27.0990   25.8750   51.1640 F   0  0  0  0  0  0  0  0  0  0  0  0
   26.4160   27.9620   51.4240 F   0  0  0  0  0  0  0  0  0  0  0  0
   28.5280   27.3960   52.0900 F   0  0  0  0  0  0  0  0  0  0  0  0
  1 23  1  0  0  0  0
  1  6  1  0  0  0  0
  2  1  1  0  0  0  0
  3  1  1  0  0  0  0
  4  5  1  0  0  0  0
  5  6  2  0  0  0  0
  5 10  1  0  0  0  0
  6  7  1  0  0  0  0
  7 11  1  0  0  0  0
  7  8  2  0  0  0  0
  8 12  1  0  0  0  0
  9  8  1  0  0  0  0
  9 13  1  0  0  0  0
 10  9  2  0  0  0  0
 13 14  1  0  0  0  0
 13 15  1  0  0  0  0
 16 13  1  0  0  0  0
 17 10  1  0  0  0  0
 18 19  1  0  0  0  0
 18 17  1  0  0  0  0
 22 20  1  0  0  0  0
 23 25  1  0  0  0  0
 23 24  1  0  0  0  0
 26 34  1  0  0  0  0
 27 26  1  0  0  0  0
 27 23  1  0  0  0  0
 28 27  2  0  0  0  0
 29 30  2  0  0  0  0
 29 28  1  0  0  0  0
 30 31  1  0  0  0  0
 31 26  2  0  0  0  0
 32 28  1  0  0  0  0
 33 30  1  0  0  0  0
 34 35  1  0  0  0  0
 34 36  1  0  0  0  0
 34 37  1  1  0  0  0
 35 36  1  0  0  0  0
 35 39  1  0  0  0  0
 36 40  1  6  0  0  0
 36 41  1  0  0  0  0
 38 35  1  0  0  0  0
 41 42  1  0  0  0  0
 41 43  1  0  0  0  0
 41 44  1  0  0  0  0
M  END
>  <minimizedAffinity>
-6.57758522

>  <minimizedRMSD>
1.16635942

$$$$
