
 OpenBabel03272509003D

 23 24  0  0  0  0  0  0  0  0999 V2000
   38.1720   30.5090   49.2250 Cl  0  0  0  0  0  0  0  0  0  0  0  0
   36.9110   30.2190   48.0730 C   0  0  0  0  0  0  0  0  0  0  0  0
   37.0790   30.6040   46.7610 C   0  0  0  0  0  0  0  0  0  0  0  0
   36.1040   30.3980   45.8120 C   0  0  0  0  0  0  0  0  0  0  0  0
   34.9100   29.7910   46.1550 C   0  0  0  0  0  0  0  0  0  0  0  0
   34.7110   29.3910   47.4750 C   0  0  0  0  0  0  0  0  0  0  0  0
   33.2450   28.6120   48.0400 Cl  0  0  0  0  0  0  0  0  0  0  0  0
   35.7150   29.6190   48.3830 C   0  0  0  0  0  0  0  0  0  0  0  0
   36.2270   30.6970   44.7830 H   0  0  0  0  0  0  0  0  0  0  0  0
   34.1120   29.6060   45.4490 H   0  0  0  0  0  0  0  0  0  0  0  0
   39.7230   33.1030   46.2690 C   0  0  0  0  0  0  0  0  0  0  0  0
   40.7080   32.3870   45.5900 C   0  0  0  0  0  0  0  0  0  0  0  0
   40.4500   31.0190   45.2990 C   0  0  0  0  0  0  0  0  0  0  0  0
   39.2620   30.4990   45.7010 N   0  0  0  0  0  0  0  0  0  0  0  0
   38.3300   31.2480   46.3660 C   0  0  0  0  0  0  0  0  0  0  0  0
   38.5700   32.5370   46.6410 N   0  0  0  0  0  0  0  0  0  0  0  0
   39.9670   34.1410   46.4660 H   0  0  0  0  0  0  0  0  0  0  0  0
   41.6370   32.7940   45.2740 H   0  0  0  0  0  0  0  0  0  0  0  0
   41.1700   30.4040   44.7750 H   0  0  0  0  0  0  0  0  0  0  0  0
   35.5300   29.1990   49.8120 C   0  0  0  0  0  0  0  0  0  0  0  0
   34.6760   30.0490   50.4810 F   0  0  0  0  0  0  0  0  0  0  0  0
   34.8750   27.9650   49.7840 F   0  0  0  0  0  0  0  0  0  0  0  0
   36.7300   29.0100   50.4310 F   0  0  0  0  0  0  0  0  0  0  0  0
  2  8  1  0  0  0  0
  2  1  1  0  0  0  0
  3  2  2  0  0  0  0
  4  5  2  0  0  0  0
  4  3  1  0  0  0  0
  5  6  1  0  0  0  0
  6  7  1  0  0  0  0
  6  8  2  0  0  0  0
  8 20  1  0  0  0  0
  9  4  1  0  0  0  0
 10  5  1  0  0  0  0
 11 17  1  0  0  0  0
 11 16  1  0  0  0  0
 12 11  2  0  0  0  0
 13 12  1  0  0  0  0
 13 14  2  0  0  0  0
 14 15  1  0  0  0  0
 15 16  2  0  0  0  0
 15  3  1  0  0  0  0
 18 12  1  0  0  0  0
 19 13  1  0  0  0  0
 20 23  1  0  0  0  0
 20 21  1  0  0  0  0
 22 20  1  0  0  0  0
M  END
>  <minimizedAffinity>
-5.68339729

>  <minimizedRMSD>
2.46380424

$$$$
