
 OpenBabel03272510333D

 23 24  0  0  0  0  0  0  0  0999 V2000
   36.1580   30.1310   48.4440 C   0  0  0  0  0  0  0  0  0  0  0  0
   35.1350   29.9410   47.5320 C   0  0  0  0  0  0  0  0  0  0  0  0
   34.0240   29.1860   47.8530 C   0  0  0  0  0  0  0  0  0  0  0  0
   33.9670   28.6240   49.1220 C   0  0  0  0  0  0  0  0  0  0  0  0
   34.9750   28.8030   50.0440 C   0  0  0  0  0  0  0  0  0  0  0  0
   36.0930   29.5710   49.7000 C   0  0  0  0  0  0  0  0  0  0  0  0
   35.1880   30.3820   46.5440 H   0  0  0  0  0  0  0  0  0  0  0  0
   33.2110   29.0120   47.1810 H   0  0  0  0  0  0  0  0  0  0  0  0
   33.1260   28.0200   49.4400 H   0  0  0  0  0  0  0  0  0  0  0  0
   34.9010   28.3530   51.0220 H   0  0  0  0  0  0  0  0  0  0  0  0
   38.4710   32.9270   48.2350 C   0  0  0  0  0  0  0  0  0  0  0  0
   39.3860   32.5660   47.2480 C   0  0  0  0  0  0  0  0  0  0  0  0
   39.1900   31.3140   46.6420 C   0  0  0  0  0  0  0  0  0  0  0  0
   38.1460   30.5400   47.0380 N   0  0  0  0  0  0  0  0  0  0  0  0
   37.2800   30.9370   48.0070 C   0  0  0  0  0  0  0  0  0  0  0  0
   37.4650   32.1310   48.5860 N   0  0  0  0  0  0  0  0  0  0  0  0
   38.5770   33.8900   48.7370 H   0  0  0  0  0  0  0  0  0  0  0  0
   40.2030   33.2040   46.9550 H   0  0  0  0  0  0  0  0  0  0  0  0
   39.8700   30.9690   45.8600 H   0  0  0  0  0  0  0  0  0  0  0  0
   37.1570   29.7540   50.6990 C   0  0  0  0  0  0  0  0  0  0  0  0
   36.9790   28.9600   51.8040 F   0  0  0  0  0  0  0  0  0  0  0  0
   38.3800   29.6050   50.0830 F   0  0  0  0  0  0  0  0  0  0  0  0
   37.1400   31.0680   51.2000 F   0  0  0  0  0  0  0  0  0  0  0  0
  1  6  1  0  0  0  0
  2  3  1  0  0  0  0
  2  1  2  0  0  0  0
  3  4  2  0  0  0  0
  4  9  1  0  0  0  0
  4  5  1  0  0  0  0
  5 10  1  0  0  0  0
  6  5  2  0  0  0  0
  6 20  1  0  0  0  0
  7  2  1  0  0  0  0
  8  3  1  0  0  0  0
 11 16  1  0  0  0  0
 11 17  1  0  0  0  0
 12 11  2  0  0  0  0
 13 14  2  0  0  0  0
 13 12  1  0  0  0  0
 14 15  1  0  0  0  0
 15  1  1  0  0  0  0
 15 16  2  0  0  0  0
 18 12  1  0  0  0  0
 19 13  1  0  0  0  0
 20 23  1  0  0  0  0
 20 21  1  0  0  0  0
 22 20  1  0  0  0  0
M  END
>  <minimizedAffinity>
-5.90200233

>  <minimizedRMSD>
0.794226825

$$$$
