
 OpenBabel03272510333D

 23 24  0  0  0  0  0  0  0  0999 V2000
   36.2340   30.4350   48.8310 C   0  0  0  0  0  0  0  0  0  0  0  0
   35.1760   30.3890   47.9390 C   0  0  0  0  0  0  0  0  0  0  0  0
   34.1620   29.4630   48.0840 C   0  0  0  0  0  0  0  0  0  0  0  0
   34.2370   28.5790   49.1530 C   0  0  0  0  0  0  0  0  0  0  0  0
   35.2830   28.6100   50.0500 C   0  0  0  0  0  0  0  0  0  0  0  0
   36.3010   29.5550   49.8880 C   0  0  0  0  0  0  0  0  0  0  0  0
   35.1250   31.0810   47.1090 H   0  0  0  0  0  0  0  0  0  0  0  0
   33.3260   29.3910   47.4200 H   0  0  0  0  0  0  0  0  0  0  0  0
   33.4770   27.8270   49.3250 H   0  0  0  0  0  0  0  0  0  0  0  0
   35.3130   27.9090   50.8710 H   0  0  0  0  0  0  0  0  0  0  0  0
   38.2190   33.4480   49.2670 C   0  0  0  0  0  0  0  0  0  0  0  0
   39.1380   33.4300   48.2200 C   0  0  0  0  0  0  0  0  0  0  0  0
   39.0630   32.3370   47.3410 C   0  0  0  0  0  0  0  0  0  0  0  0
   38.1230   31.3790   47.5510 N   0  0  0  0  0  0  0  0  0  0  0  0
   37.2480   31.4410   48.5880 C   0  0  0  0  0  0  0  0  0  0  0  0
   37.3170   32.4830   49.4270 N   0  0  0  0  0  0  0  0  0  0  0  0
   38.2330   34.2750   49.9780 H   0  0  0  0  0  0  0  0  0  0  0  0
   39.8710   34.2070   48.0800 H   0  0  0  0  0  0  0  0  0  0  0  0
   39.7530   32.2600   46.4980 H   0  0  0  0  0  0  0  0  0  0  0  0
   37.4060   29.5750   50.8580 C   0  0  0  0  0  0  0  0  0  0  0  0
   38.6250   29.7660   50.2580 F   0  0  0  0  0  0  0  0  0  0  0  0
   37.1140   30.4810   51.8530 F   0  0  0  0  0  0  0  0  0  0  0  0
   37.5190   28.3280   51.5000 F   0  0  0  0  0  0  0  0  0  0  0  0
  1  6  1  0  0  0  0
  2  3  1  0  0  0  0
  2  1  2  0  0  0  0
  3  4  2  0  0  0  0
  4  9  1  0  0  0  0
  4  5  1  0  0  0  0
  5 10  1  0  0  0  0
  6  5  2  0  0  0  0
  6 20  1  0  0  0  0
  7  2  1  0  0  0  0
  8  3  1  0  0  0  0
 11 16  1  0  0  0  0
 11 17  1  0  0  0  0
 12 11  2  0  0  0  0
 13 14  2  0  0  0  0
 13 12  1  0  0  0  0
 14 15  1  0  0  0  0
 15  1  1  0  0  0  0
 15 16  2  0  0  0  0
 18 12  1  0  0  0  0
 19 13  1  0  0  0  0
 20 23  1  0  0  0  0
 20 22  1  0  0  0  0
 21 20  1  0  0  0  0
M  END
>  <minimizedAffinity>
-5.89791536

>  <minimizedRMSD>
0.550030649

$$$$
