
 OpenBabel03272503023D

 23 24  0  0  0  0  0  0  0  0999 V2000
   38.4390   30.5170   47.2920 F   0  0  0  0  0  0  0  0  0  0  0  0
   38.7540   31.7400   47.8010 C   0  0  0  0  0  0  0  0  0  0  0  0
   38.2470   32.1100   49.0150 C   0  0  0  0  0  0  0  0  0  0  0  0
   38.6010   33.3560   49.4780 C   0  0  0  0  0  0  0  0  0  0  0  0
   39.4310   34.2020   48.7590 C   0  0  0  0  0  0  0  0  0  0  0  0
   39.9260   33.7960   47.5360 C   0  0  0  0  0  0  0  0  0  0  0  0
   39.5760   32.5530   47.0660 C   0  0  0  0  0  0  0  0  0  0  0  0
   38.1910   33.6430   50.4490 H   0  0  0  0  0  0  0  0  0  0  0  0
   39.6700   35.1570   49.1690 H   0  0  0  0  0  0  0  0  0  0  0  0
   40.5780   34.4670   46.9770 H   0  0  0  0  0  0  0  0  0  0  0  0
   36.9320   29.5980   51.5230 C   0  0  0  0  0  0  0  0  0  0  0  0
   37.7820   30.4930   50.8530 C   0  0  0  0  0  0  0  0  0  0  0  0
   37.3830   31.1800   49.7230 C   0  0  0  0  0  0  0  0  0  0  0  0
   36.1150   30.9320   49.3050 N   0  0  0  0  0  0  0  0  0  0  0  0
   35.2980   30.0740   49.9460 C   0  0  0  0  0  0  0  0  0  0  0  0
   35.6960   29.4190   51.0340 N   0  0  0  0  0  0  0  0  0  0  0  0
   37.2510   29.0600   52.4110 H   0  0  0  0  0  0  0  0  0  0  0  0
   38.7990   30.6440   51.2480 H   0  0  0  0  0  0  0  0  0  0  0  0
   34.3190   29.9770   49.5020 H   0  0  0  0  0  0  0  0  0  0  0  0
   40.0880   32.0690   45.7470 C   0  0  0  0  0  0  0  0  0  0  0  0
   39.0550   31.7750   44.9050 F   0  0  0  0  0  0  0  0  0  0  0  0
   40.8500   33.0660   45.2060 F   0  0  0  0  0  0  0  0  0  0  0  0
   40.8440   30.9230   45.8970 F   0  0  0  0  0  0  0  0  0  0  0  0
  1  2  1  0  0  0  0
  2  3  1  0  0  0  0
  3  4  2  0  0  0  0
  3 13  1  0  0  0  0
  4  8  1  0  0  0  0
  5  9  1  0  0  0  0
  5  4  1  0  0  0  0
  6  5  2  0  0  0  0
  7  6  1  0  0  0  0
  7  2  2  0  0  0  0
 10  6  1  0  0  0  0
 11 17  1  0  0  0  0
 12 18  1  0  0  0  0
 12 11  2  0  0  0  0
 13 12  1  0  0  0  0
 14 13  2  0  0  0  0
 14 15  1  0  0  0  0
 15 16  2  0  0  0  0
 16 11  1  0  0  0  0
 19 15  1  0  0  0  0
 20 23  1  0  0  0  0
 20  7  1  0  0  0  0
 21 20  1  0  0  0  0
 22 20  1  0  0  0  0
M  END
>  <minimizedAffinity>
-6.40744257

>  <minimizedRMSD>
0.182317346

$$$$
