
 OpenBabel03272505533D

 39 41  0  0  1  0  0  0  0  0999 V2000
   35.6020   20.1540   33.6370 C   0  0  0  0  0  0  0  0  0  0  0  0
   36.0160   19.7620   32.3350 C   0  0  0  0  0  0  0  0  0  0  0  0
   37.0820   20.4490   31.7730 C   0  0  0  0  0  0  0  0  0  0  0  0
   37.6630   21.4480   32.4930 N   0  0  0  0  0  0  0  0  0  0  0  0
   37.2370   21.7880   33.7290 C   0  0  0  0  0  0  0  0  0  0  0  0
   36.2180   21.1440   34.2850 N   0  0  0  0  0  0  0  0  0  0  0  0
   37.8940   22.8340   34.4070 N   0  0  0  0  0  0  0  0  0  0  0  0
   37.9510   22.8860   35.8740 C   0  0  0  0  0  0  0  0  0  0  0  0
   39.3860   22.9500   36.2870 C   0  0  0  0  0  0  0  0  0  0  0  0
   40.2960   23.4060   35.3760 N   0  0  0  0  0  0  0  0  0  0  0  0
   39.9040   24.1120   34.1850 C   0  0  0  0  0  0  0  0  0  0  0  0
   38.5530   23.9190   33.7050 C   0  0  2  0  0  0  0  0  0  0  0  0
   34.7740   19.6550   34.1290 H   0  0  0  0  0  0  0  0  0  0  0  0
   35.4920   18.9520   31.8340 H   0  0  0  0  0  0  0  0  0  0  0  0
   37.4240   20.1790   30.7870 H   0  0  0  0  0  0  0  0  0  0  0  0
   37.3840   22.0390   36.2690 H   0  0  0  0  0  0  0  0  0  0  0  0
   37.4380   23.8080   36.1660 H   0  0  0  0  0  0  0  0  0  0  0  0
   39.4270   23.4600   37.2870 H   0  0  0  0  0  0  0  0  0  0  0  0
   39.6520   21.8850   36.5590 H   0  0  0  0  0  0  0  0  0  0  0  0
   41.2520   23.0530   35.4120 H   0  0  0  0  0  0  0  0  0  0  0  0
   40.5910   23.6090   33.4230 H   0  0  0  0  0  0  0  0  0  0  0  0
   40.3830   25.0770   34.2420 H   0  0  0  0  0  0  0  0  0  0  0  0
   38.5110   23.6590   32.6130 H   0  0  0  0  0  0  0  0  0  0  0  0
   37.6980   25.0920   33.8610 N   0  0  2  0  0  0  0  0  0  0  0  0
   36.9070   25.3090   32.6420 C   0  0  0  0  0  0  0  0  0  0  0  0
   36.8280   26.7910   32.3970 C   0  0  0  0  0  0  0  0  0  0  0  0
   37.3680   27.3410   33.6450 C   0  0  0  0  0  0  0  0  0  0  0  0
   38.3790   26.2960   34.1340 C   0  0  1  0  0  0  0  0  0  0  0  0
   37.4930   24.8930   31.7820 H   0  0  0  0  0  0  0  0  0  0  0  0
   35.9470   24.7910   32.7000 H   0  0  0  0  0  0  0  0  0  0  0  0
   35.7410   27.0200   32.2700 H   0  0  0  0  0  0  0  0  0  0  0  0
   37.3360   27.1220   31.4690 H   0  0  0  0  0  0  0  0  0  0  0  0
   36.5040   27.4470   34.3590 H   0  0  0  0  0  0  0  0  0  0  0  0
   37.8260   28.3500   33.5840 H   0  0  0  0  0  0  0  0  0  0  0  0
   39.1880   26.5570   33.4060 H   0  0  0  0  0  0  0  0  0  0  0  0
   38.5760   26.7920   35.4960 C   0  0  0  0  0  0  0  0  0  0  0  0
   38.3180   26.0900   36.5870 F   0  0  0  0  0  0  0  0  0  0  0  0
   37.9370   28.0430   35.6270 F   0  0  0  0  0  0  0  0  0  0  0  0
   39.9350   27.1370   35.6220 F   0  0  0  0  0  0  0  0  0  0  0  0
  1 13  1  0  0  0  0
  1  6  1  0  0  0  0
  2  1  2  0  0  0  0
  3  2  1  0  0  0  0
  3  4  2  0  0  0  0
  4  5  1  0  0  0  0
  5  6  2  0  0  0  0
  5  7  1  0  0  0  0
  7  8  1  0  0  0  0
  8 17  1  0  0  0  0
  8 16  1  0  0  0  0
  8  9  1  0  0  0  0
  9 19  1  0  0  0  0
  9 18  1  0  0  0  0
 10 20  1  0  0  0  0
 10  9  1  0  0  0  0
 11 22  1  0  0  0  0
 11 10  1  0  0  0  0
 12 23  1  6  0  0  0
 12 24  1  0  0  0  0
 12 11  1  0  0  0  0
 12  7  1  0  0  0  0
 14  2  1  0  0  0  0
 15  3  1  0  0  0  0
 21 11  1  0  0  0  0
 24 25  1  6  0  0  0
 24 28  1  0  0  0  0
 25 30  1  0  0  0  0
 26 25  1  0  0  0  0
 26 27  1  0  0  0  0
 27 28  1  0  0  0  0
 27 33  1  0  0  0  0
 28 35  1  6  0  0  0
 28 36  1  0  0  0  0
 29 25  1  0  0  0  0
 31 26  1  0  0  0  0
 32 26  1  0  0  0  0
 34 27  1  0  0  0  0
 36 39  1  0  0  0  0
 36 38  1  0  0  0  0
 36 37  1  0  0  0  0
M  END
>  <minimizedAffinity>
-5.36614561

$$$$

 OpenBabel03272505533D

 39 41  0  0  1  0  0  0  0  0999 V2000
   36.8300   27.9080   34.5520 C   0  0  0  0  0  0  0  0  0  0  0  0
   36.5170   27.7350   33.1760 C   0  0  0  0  0  0  0  0  0  0  0  0
   36.8120   26.5040   32.6070 C   0  0  0  0  0  0  0  0  0  0  0  0
   37.3780   25.5450   33.3900 N   0  0  0  0  0  0  0  0  0  0  0  0
   37.6580   25.7530   34.6950 C   0  0  0  0  0  0  0  0  0  0  0  0
   37.3850   26.9230   35.2600 N   0  0  0  0  0  0  0  0  0  0  0  0
   38.2440   24.7070   35.4360 N   0  0  0  0  0  0  0  0  0  0  0  0
   38.0390   24.5790   36.8850 C   0  0  0  0  0  0  0  0  0  0  0  0
   37.4710   23.2260   37.1620 C   0  0  0  0  0  0  0  0  0  0  0  0
   37.6730   22.2430   36.2340 N   0  0  0  0  0  0  0  0  0  0  0  0
   38.6530   22.3630   35.1880 C   0  0  0  0  0  0  0  0  0  0  0  0
   39.0810   23.6960   34.8200 C   0  0  2  0  0  0  0  0  0  0  0  0
   36.6230   28.8480   35.0520 H   0  0  0  0  0  0  0  0  0  0  0  0
   36.0650   28.5570   32.6280 H   0  0  0  0  0  0  0  0  0  0  0  0
   36.5880   26.3360   31.5660 H   0  0  0  0  0  0  0  0  0  0  0  0
   37.4300   25.4230   37.2200 H   0  0  0  0  0  0  0  0  0  0  0  0
   39.0290   24.6690   37.3420 H   0  0  0  0  0  0  0  0  0  0  0  0
   37.7610   22.9460   38.2110 H   0  0  0  0  0  0  0  0  0  0  0  0
   36.3590   23.3980   37.2680 H   0  0  0  0  0  0  0  0  0  0  0  0
   36.9730   21.5080   36.1320 H   0  0  0  0  0  0  0  0  0  0  0  0
   38.0480   21.9650   34.3050 H   0  0  0  0  0  0  0  0  0  0  0  0
   39.3320   21.5360   35.3220 H   0  0  0  0  0  0  0  0  0  0  0  0
   39.0330   23.8790   33.7130 H   0  0  0  0  0  0  0  0  0  0  0  0
   40.4550   24.0020   35.2080 N   0  0  2  0  0  0  0  0  0  0  0  0
   41.1440   24.7070   34.1180 C   0  0  0  0  0  0  0  0  0  0  0  0
   42.5600   24.2010   34.0620 C   0  0  0  0  0  0  0  0  0  0  0  0
   42.6600   23.4200   35.2990 C   0  0  0  0  0  0  0  0  0  0  0  0
   41.2450   22.8840   35.5450 C   0  0  1  0  0  0  0  0  0  0  0  0
   40.6710   24.3830   33.1550 H   0  0  0  0  0  0  0  0  0  0  0  0
   41.0360   25.7880   34.2200 H   0  0  0  0  0  0  0  0  0  0  0  0
   43.2080   25.1120   34.0830 H   0  0  0  0  0  0  0  0  0  0  0  0
   42.8070   23.6550   33.1300 H   0  0  0  0  0  0  0  0  0  0  0  0
   42.9820   24.1300   36.1120 H   0  0  0  0  0  0  0  0  0  0  0  0
   43.4100   22.6020   35.3080 H   0  0  0  0  0  0  0  0  0  0  0  0
   41.2800   22.0790   34.7680 H   0  0  0  0  0  0  0  0  0  0  0  0
   41.4110   22.4320   36.9270 C   0  0  0  0  0  0  0  0  0  0  0  0
   40.7490   22.9320   37.9570 F   0  0  0  0  0  0  0  0  0  0  0  0
   42.7830   22.4390   37.2510 F   0  0  0  0  0  0  0  0  0  0  0  0
   41.1060   21.0570   36.9550 F   0  0  0  0  0  0  0  0  0  0  0  0
  1 13  1  0  0  0  0
  1  6  1  0  0  0  0
  2  1  2  0  0  0  0
  3  2  1  0  0  0  0
  3  4  2  0  0  0  0
  4  5  1  0  0  0  0
  5  6  2  0  0  0  0
  5  7  1  0  0  0  0
  7  8  1  0  0  0  0
  8  9  1  0  0  0  0
  8 16  1  0  0  0  0
  8 17  1  0  0  0  0
  9 19  1  0  0  0  0
  9 18  1  0  0  0  0
 10  9  1  0  0  0  0
 11 22  1  0  0  0  0
 11 10  1  0  0  0  0
 12 23  1  6  0  0  0
 12 11  1  0  0  0  0
 12 24  1  0  0  0  0
 12  7  1  0  0  0  0
 14  2  1  0  0  0  0
 15  3  1  0  0  0  0
 20 10  1  0  0  0  0
 21 11  1  0  0  0  0
 24 25  1  6  0  0  0
 24 28  1  0  0  0  0
 25 30  1  0  0  0  0
 26 31  1  0  0  0  0
 26 25  1  0  0  0  0
 26 27  1  0  0  0  0
 27 34  1  0  0  0  0
 27 28  1  0  0  0  0
 27 33  1  0  0  0  0
 28 35  1  6  0  0  0
 28 36  1  0  0  0  0
 29 25  1  0  0  0  0
 32 26  1  0  0  0  0
 36 39  1  0  0  0  0
 36 38  1  0  0  0  0
 36 37  1  0  0  0  0
M  END
>  <minimizedAffinity>
-5.33440018

$$$$

 OpenBabel03272505533D

 39 41  0  0  1  0  0  0  0  0999 V2000
   37.7700   21.0340   30.6600 C   0  0  0  0  0  0  0  0  0  0  0  0
   36.3970   20.6830   30.7790 C   0  0  0  0  0  0  0  0  0  0  0  0
   35.5370   21.6450   31.2890 C   0  0  0  0  0  0  0  0  0  0  0  0
   36.0520   22.8540   31.6430 N   0  0  0  0  0  0  0  0  0  0  0  0
   37.3650   23.1450   31.5120 C   0  0  0  0  0  0  0  0  0  0  0  0
   38.2060   22.2390   31.0270 N   0  0  0  0  0  0  0  0  0  0  0  0
   37.8170   24.4220   31.9010 N   0  0  0  0  0  0  0  0  0  0  0  0
   38.9940   25.0460   31.2810 C   0  0  0  0  0  0  0  0  0  0  0  0
   38.5840   26.3700   30.7230 C   0  0  0  0  0  0  0  0  0  0  0  0
   37.4680   26.9670   31.2390 N   0  0  0  0  0  0  0  0  0  0  0  0
   36.8740   26.5440   32.4790 C   0  0  0  0  0  0  0  0  0  0  0  0
   37.1530   25.1980   32.9320 C   0  0  2  0  0  0  0  0  0  0  0  0
   38.4900   20.3240   30.2680 H   0  0  0  0  0  0  0  0  0  0  0  0
   36.0750   19.6920   30.4710 H   0  0  0  0  0  0  0  0  0  0  0  0
   34.4900   21.4140   31.3930 H   0  0  0  0  0  0  0  0  0  0  0  0
   39.4150   24.3410   30.5600 H   0  0  0  0  0  0  0  0  0  0  0  0
   39.7220   25.1890   32.0850 H   0  0  0  0  0  0  0  0  0  0  0  0
   39.4980   27.0240   30.7010 H   0  0  0  0  0  0  0  0  0  0  0  0
   38.4120   26.1770   29.6230 H   0  0  0  0  0  0  0  0  0  0  0  0
   36.9070   27.5700   30.6380 H   0  0  0  0  0  0  0  0  0  0  0  0
   35.7700   26.5600   32.1840 H   0  0  0  0  0  0  0  0  0  0  0  0
   36.8950   27.4060   33.1270 H   0  0  0  0  0  0  0  0  0  0  0  0
   36.2250   24.6280   33.2060 H   0  0  0  0  0  0  0  0  0  0  0  0
   38.0120   25.1380   34.1120 N   0  0  2  0  0  0  0  0  0  0  0  0
   38.1170   23.7550   34.5930 C   0  0  0  0  0  0  0  0  0  0  0  0
   38.1120   23.7850   36.0970 C   0  0  0  0  0  0  0  0  0  0  0  0
   38.2640   25.2160   36.3790 C   0  0  0  0  0  0  0  0  0  0  0  0
   37.5860   25.9260   35.2000 C   0  0  1  0  0  0  0  0  0  0  0  0
   37.1740   23.2230   34.3000 H   0  0  0  0  0  0  0  0  0  0  0  0
   38.9670   23.2440   34.1370 H   0  0  0  0  0  0  0  0  0  0  0  0
   39.0060   23.1940   36.4150 H   0  0  0  0  0  0  0  0  0  0  0  0
   37.2280   23.2980   36.5550 H   0  0  0  0  0  0  0  0  0  0  0  0
   39.3690   25.4300   36.4120 H   0  0  0  0  0  0  0  0  0  0  0  0
   37.8650   25.5740   37.3510 H   0  0  0  0  0  0  0  0  0  0  0  0
   36.5340   25.7430   35.5340 H   0  0  0  0  0  0  0  0  0  0  0  0
   38.0910   27.2800   35.4310 C   0  0  0  0  0  0  0  0  0  0  0  0
   37.3520   28.3740   35.3430 F   0  0  0  0  0  0  0  0  0  0  0  0
   39.2500   27.4770   34.6510 F   0  0  0  0  0  0  0  0  0  0  0  0
   38.6050   27.3160   36.7420 F   0  0  0  0  0  0  0  0  0  0  0  0
  1  2  2  0  0  0  0
  1  6  1  0  0  0  0
  2  3  1  0  0  0  0
  3 15  1  0  0  0  0
  3  4  2  0  0  0  0
  5  4  1  0  0  0  0
  5  7  1  0  0  0  0
  6  5  2  0  0  0  0
  7 12  1  0  0  0  0
  8  7  1  0  0  0  0
  8 17  1  0  0  0  0
  9 10  1  0  0  0  0
  9  8  1  0  0  0  0
 10 11  1  0  0  0  0
 11 12  1  0  0  0  0
 11 22  1  0  0  0  0
 12 23  1  1  0  0  0
 12 24  1  0  0  0  0
 13  1  1  0  0  0  0
 14  2  1  0  0  0  0
 16  8  1  0  0  0  0
 18  9  1  0  0  0  0
 19  9  1  0  0  0  0
 20 10  1  0  0  0  0
 21 11  1  0  0  0  0
 24 25  1  1  0  0  0
 24 28  1  0  0  0  0
 25 26  1  0  0  0  0
 26 27  1  0  0  0  0
 26 31  1  0  0  0  0
 26 32  1  0  0  0  0
 27 33  1  0  0  0  0
 27 34  1  0  0  0  0
 28 36  1  0  0  0  0
 28 35  1  1  0  0  0
 28 27  1  0  0  0  0
 29 25  1  0  0  0  0
 30 25  1  0  0  0  0
 36 39  1  0  0  0  0
 37 36  1  0  0  0  0
 38 36  1  0  0  0  0
M  END
>  <minimizedAffinity>
-5.32469177

$$$$

 OpenBabel03272505533D

 39 41  0  0  1  0  0  0  0  0999 V2000
   38.0530   24.5570   38.1260 C   0  0  0  0  0  0  0  0  0  0  0  0
   38.9090   23.5790   38.7000 C   0  0  0  0  0  0  0  0  0  0  0  0
   39.4790   22.6500   37.8410 C   0  0  0  0  0  0  0  0  0  0  0  0
   39.1870   22.7290   36.5140 N   0  0  0  0  0  0  0  0  0  0  0  0
   38.3670   23.6770   36.0110 C   0  0  0  0  0  0  0  0  0  0  0  0
   37.8100   24.5750   36.8150 N   0  0  0  0  0  0  0  0  0  0  0  0
   38.1170   23.6890   34.6240 N   0  0  0  0  0  0  0  0  0  0  0  0
   37.7860   24.9300   33.9100 C   0  0  0  0  0  0  0  0  0  0  0  0
   38.7740   25.1140   32.8050 C   0  0  0  0  0  0  0  0  0  0  0  0
   39.4360   24.0110   32.3460 N   0  0  0  0  0  0  0  0  0  0  0  0
   39.0030   22.6730   32.6470 C   0  0  0  0  0  0  0  0  0  0  0  0
   38.1710   22.4850   33.8170 C   0  0  2  0  0  0  0  0  0  0  0  0
   37.5780   25.3100   38.7470 H   0  0  0  0  0  0  0  0  0  0  0  0
   39.0860   23.5920   39.7730 H   0  0  0  0  0  0  0  0  0  0  0  0
   40.1340   21.8930   38.2410 H   0  0  0  0  0  0  0  0  0  0  0  0
   37.7390   25.7420   34.6410 H   0  0  0  0  0  0  0  0  0  0  0  0
   36.7840   24.7840   33.4950 H   0  0  0  0  0  0  0  0  0  0  0  0
   38.2760   25.7280   32.0060 H   0  0  0  0  0  0  0  0  0  0  0  0
   39.5330   25.8430   33.2180 H   0  0  0  0  0  0  0  0  0  0  0  0
   40.3790   24.1190   31.9720 H   0  0  0  0  0  0  0  0  0  0  0  0
   40.0100   22.1900   32.8890 H   0  0  0  0  0  0  0  0  0  0  0  0
   38.8070   22.2030   31.6960 H   0  0  0  0  0  0  0  0  0  0  0  0
   38.5450   21.6700   34.4920 H   0  0  0  0  0  0  0  0  0  0  0  0
   36.7880   22.1320   33.5070 N   0  0  2  0  0  0  0  0  0  0  0  0
   36.3860   20.9420   34.2670 C   0  0  0  0  0  0  0  0  0  0  0  0
   35.5240   20.0910   33.3740 C   0  0  0  0  0  0  0  0  0  0  0  0
   35.2780   20.9830   32.2370 C   0  0  0  0  0  0  0  0  0  0  0  0
   36.5310   21.8640   32.1470 C   0  0  1  0  0  0  0  0  0  0  0  0
   37.3100   20.3360   34.4590 H   0  0  0  0  0  0  0  0  0  0  0  0
   35.9400   21.2200   35.2240 H   0  0  0  0  0  0  0  0  0  0  0  0
   34.5940   19.8840   33.9590 H   0  0  0  0  0  0  0  0  0  0  0  0
   35.9690   19.1070   33.1230 H   0  0  0  0  0  0  0  0  0  0  0  0
   34.3630   21.5890   32.4860 H   0  0  0  0  0  0  0  0  0  0  0  0
   35.0540   20.4970   31.2650 H   0  0  0  0  0  0  0  0  0  0  0  0
   37.1930   21.0900   31.6840 H   0  0  0  0  0  0  0  0  0  0  0  0
   36.0230   22.8860   31.2300 C   0  0  0  0  0  0  0  0  0  0  0  0
   36.7870   23.6070   30.4260 F   0  0  0  0  0  0  0  0  0  0  0  0
   35.1910   23.7720   31.9450 F   0  0  0  0  0  0  0  0  0  0  0  0
   35.1110   22.2530   30.3640 F   0  0  0  0  0  0  0  0  0  0  0  0
  1  2  1  0  0  0  0
  1 13  1  0  0  0  0
  2 14  1  0  0  0  0
  3 15  1  0  0  0  0
  3  2  2  0  0  0  0
  4  3  1  0  0  0  0
  5  4  2  0  0  0  0
  5  6  1  0  0  0  0
  6  1  2  0  0  0  0
  7  5  1  0  0  0  0
  8  7  1  0  0  0  0
  8 16  1  0  0  0  0
  9 19  1  0  0  0  0
  9  8  1  0  0  0  0
 10 11  1  0  0  0  0
 10  9  1  0  0  0  0
 11 21  1  0  0  0  0
 11 12  1  0  0  0  0
 12 23  1  1  0  0  0
 12  7  1  0  0  0  0
 17  8  1  0  0  0  0
 18  9  1  0  0  0  0
 20 10  1  0  0  0  0
 22 11  1  0  0  0  0
 24 12  1  0  0  0  0
 24 25  1  1  0  0  0
 25 29  1  0  0  0  0
 25 30  1  0  0  0  0
 26 31  1  0  0  0  0
 26 25  1  0  0  0  0
 27 33  1  0  0  0  0
 27 26  1  0  0  0  0
 28 35  1  6  0  0  0
 28 27  1  0  0  0  0
 28 24  1  0  0  0  0
 32 26  1  0  0  0  0
 34 27  1  0  0  0  0
 36 38  1  0  0  0  0
 36 28  1  0  0  0  0
 37 36  1  0  0  0  0
 39 36  1  0  0  0  0
M  END
>  <minimizedAffinity>
-5.24268627

$$$$

 OpenBabel03272505533D

 39 41  0  0  1  0  0  0  0  0999 V2000
   36.6280   29.1660   30.5430 C   0  0  0  0  0  0  0  0  0  0  0  0
   37.4200   28.1350   31.1170 C   0  0  0  0  0  0  0  0  0  0  0  0
   37.0780   27.7050   32.3910 C   0  0  0  0  0  0  0  0  0  0  0  0
   36.0160   28.2890   33.0100 N   0  0  0  0  0  0  0  0  0  0  0  0
   35.2900   29.2670   32.4270 C   0  0  0  0  0  0  0  0  0  0  0  0
   35.6000   29.6950   31.2090 N   0  0  0  0  0  0  0  0  0  0  0  0
   34.2050   29.8190   33.1370 N   0  0  0  0  0  0  0  0  0  0  0  0
   33.0400   30.3900   32.4450 C   0  0  0  0  0  0  0  0  0  0  0  0
   31.8140   29.6890   32.9320 C   0  0  0  0  0  0  0  0  0  0  0  0
   31.8700   29.0660   34.1470 N   0  0  0  0  0  0  0  0  0  0  0  0
   32.9220   29.3230   35.0940 C   0  0  0  0  0  0  0  0  0  0  0  0
   34.1670   29.8590   34.5860 C   0  0  2  0  0  0  0  0  0  0  0  0
   36.8470   29.5450   29.5500 H   0  0  0  0  0  0  0  0  0  0  0  0
   38.2510   27.7260   30.5480 H   0  0  0  0  0  0  0  0  0  0  0  0
   37.6560   26.9240   32.8580 H   0  0  0  0  0  0  0  0  0  0  0  0
   33.2200   30.3330   31.3680 H   0  0  0  0  0  0  0  0  0  0  0  0
   33.0040   31.4460   32.7310 H   0  0  0  0  0  0  0  0  0  0  0  0
   30.9490   30.3950   32.8060 H   0  0  0  0  0  0  0  0  0  0  0  0
   31.5950   28.9120   32.1400 H   0  0  0  0  0  0  0  0  0  0  0  0
   31.2940   28.2400   34.3070 H   0  0  0  0  0  0  0  0  0  0  0  0
   33.1460   28.2560   35.4330 H   0  0  0  0  0  0  0  0  0  0  0  0
   32.4350   29.6910   35.9840 H   0  0  0  0  0  0  0  0  0  0  0  0
   35.0650   29.2850   34.9400 H   0  0  0  0  0  0  0  0  0  0  0  0
   34.4120   31.2460   34.9690 N   0  0  2  0  0  0  0  0  0  0  0  0
   35.7350   31.6760   34.4960 C   0  0  0  0  0  0  0  0  0  0  0  0
   36.3450   32.5500   35.5580 C   0  0  0  0  0  0  0  0  0  0  0  0
   35.2150   32.7720   36.4660 C   0  0  0  0  0  0  0  0  0  0  0  0
   34.3630   31.5020   36.3550 C   0  0  1  0  0  0  0  0  0  0  0  0
   36.3870   30.7660   34.4440 H   0  0  0  0  0  0  0  0  0  0  0  0
   35.6690   32.1220   33.5020 H   0  0  0  0  0  0  0  0  0  0  0  0
   36.6590   33.4880   35.0360 H   0  0  0  0  0  0  0  0  0  0  0  0
   37.2570   32.1230   36.0230 H   0  0  0  0  0  0  0  0  0  0  0  0
   34.6620   33.6760   36.0880 H   0  0  0  0  0  0  0  0  0  0  0  0
   35.4670   33.0000   37.5220 H   0  0  0  0  0  0  0  0  0  0  0  0
   35.0270   30.8520   36.9790 H   0  0  0  0  0  0  0  0  0  0  0  0
   33.1510   31.9830   37.0190 C   0  0  0  0  0  0  0  0  0  0  0  0
   32.0360   32.3080   36.3860 F   0  0  0  0  0  0  0  0  0  0  0  0
   33.4910   33.0530   37.8740 F   0  0  0  0  0  0  0  0  0  0  0  0
   32.7520   30.9880   37.9320 F   0  0  0  0  0  0  0  0  0  0  0  0
  1  2  2  0  0  0  0
  1  6  1  0  0  0  0
  2  3  1  0  0  0  0
  3 15  1  0  0  0  0
  3  4  2  0  0  0  0
  5  4  1  0  0  0  0
  5  7  1  0  0  0  0
  6  5  2  0  0  0  0
  7 12  1  0  0  0  0
  8 17  1  0  0  0  0
  8  9  1  0  0  0  0
  8  7  1  0  0  0  0
  9 10  1  0  0  0  0
 10 20  1  0  0  0  0
 10 11  1  0  0  0  0
 11 21  1  0  0  0  0
 11 22  1  0  0  0  0
 12 23  1  1  0  0  0
 12 24  1  0  0  0  0
 12 11  1  0  0  0  0
 13  1  1  0  0  0  0
 14  2  1  0  0  0  0
 16  8  1  0  0  0  0
 18  9  1  0  0  0  0
 19  9  1  0  0  0  0
 24 25  1  1  0  0  0
 24 28  1  0  0  0  0
 25 26  1  0  0  0  0
 26 32  1  0  0  0  0
 26 27  1  0  0  0  0
 27 34  1  0  0  0  0
 28 27  1  0  0  0  0
 28 35  1  1  0  0  0
 28 36  1  0  0  0  0
 29 25  1  0  0  0  0
 30 25  1  0  0  0  0
 31 26  1  0  0  0  0
 33 27  1  0  0  0  0
 36 38  1  0  0  0  0
 36 39  1  0  0  0  0
 37 36  1  0  0  0  0
M  END
>  <minimizedAffinity>
-5.22284937

$$$$

 OpenBabel03272505533D

 39 41  0  0  1  0  0  0  0  0999 V2000
   38.1080   23.9830   38.1630 C   0  0  0  0  0  0  0  0  0  0  0  0
   39.1850   23.0580   38.2340 C   0  0  0  0  0  0  0  0  0  0  0  0
   39.9030   22.8270   37.0700 C   0  0  0  0  0  0  0  0  0  0  0  0
   39.5380   23.4920   35.9390 N   0  0  0  0  0  0  0  0  0  0  0  0
   38.5070   24.3640   35.9170 C   0  0  0  0  0  0  0  0  0  0  0  0
   37.8060   24.5990   37.0190 N   0  0  0  0  0  0  0  0  0  0  0  0
   38.1950   25.0110   34.7050 N   0  0  0  0  0  0  0  0  0  0  0  0
   37.5660   26.3390   34.6790 C   0  0  0  0  0  0  0  0  0  0  0  0
   38.4360   27.2560   33.8820 C   0  0  0  0  0  0  0  0  0  0  0  0
   39.3020   26.6990   32.9830 N   0  0  0  0  0  0  0  0  0  0  0  0
   39.1880   25.3320   32.5510 C   0  0  0  0  0  0  0  0  0  0  0  0
   38.4740   24.4140   33.4130 C   0  0  2  0  0  0  0  0  0  0  0  0
   37.5100   24.2040   39.0400 H   0  0  0  0  0  0  0  0  0  0  0  0
   39.4050   22.5720   39.1820 H   0  0  0  0  0  0  0  0  0  0  0  0
   40.7270   22.1320   37.0860 H   0  0  0  0  0  0  0  0  0  0  0  0
   37.3760   26.6480   35.7100 H   0  0  0  0  0  0  0  0  0  0  0  0
   36.6020   26.2090   34.1770 H   0  0  0  0  0  0  0  0  0  0  0  0
   37.7780   28.0630   33.4600 H   0  0  0  0  0  0  0  0  0  0  0  0
   39.0340   27.8250   34.6530 H   0  0  0  0  0  0  0  0  0  0  0  0
   40.1790   27.1780   32.7800 H   0  0  0  0  0  0  0  0  0  0  0  0
   40.2870   25.0210   32.5920 H   0  0  0  0  0  0  0  0  0  0  0  0
   39.0550   25.3690   31.4810 H   0  0  0  0  0  0  0  0  0  0  0  0
   39.0500   23.4720   33.6190 H   0  0  0  0  0  0  0  0  0  0  0  0
   37.1890   23.9760   32.8730 N   0  0  2  0  0  0  0  0  0  0  0  0
   37.1110   22.5100   32.8760 C   0  0  0  0  0  0  0  0  0  0  0  0
   36.4100   22.0800   31.6170 C   0  0  0  0  0  0  0  0  0  0  0  0
   35.9020   23.3520   31.0950 C   0  0  0  0  0  0  0  0  0  0  0  0
   36.9170   24.4040   31.5580 C   0  0  1  0  0  0  0  0  0  0  0  0
   38.1570   22.1160   32.7870 H   0  0  0  0  0  0  0  0  0  0  0  0
   36.6730   22.1420   33.8060 H   0  0  0  0  0  0  0  0  0  0  0  0
   35.5870   21.3980   31.9460 H   0  0  0  0  0  0  0  0  0  0  0  0
   37.0480   21.4980   30.9220 H   0  0  0  0  0  0  0  0  0  0  0  0
   34.8900   23.5190   31.5600 H   0  0  0  0  0  0  0  0  0  0  0  0
   35.7340   23.4060   29.9990 H   0  0  0  0  0  0  0  0  0  0  0  0
   37.7070   24.1530   30.8060 H   0  0  0  0  0  0  0  0  0  0  0  0
   36.1390   25.6110   31.2730 C   0  0  0  0  0  0  0  0  0  0  0  0
   35.6530   26.4180   32.2010 F   0  0  0  0  0  0  0  0  0  0  0  0
   35.0870   25.2810   30.3930 F   0  0  0  0  0  0  0  0  0  0  0  0
   36.9430   26.4470   30.4750 F   0  0  0  0  0  0  0  0  0  0  0  0
  1  2  1  0  0  0  0
  1 13  1  0  0  0  0
  2 14  1  0  0  0  0
  3 15  1  0  0  0  0
  3  2  2  0  0  0  0
  4  3  1  0  0  0  0
  5  4  2  0  0  0  0
  5  6  1  0  0  0  0
  6  1  2  0  0  0  0
  7  5  1  0  0  0  0
  8  7  1  0  0  0  0
  8 16  1  0  0  0  0
  9 19  1  0  0  0  0
  9  8  1  0  0  0  0
 10  9  1  0  0  0  0
 11 21  1  0  0  0  0
 11 10  1  0  0  0  0
 11 12  1  0  0  0  0
 12 23  1  1  0  0  0
 12  7  1  0  0  0  0
 17  8  1  0  0  0  0
 18  9  1  0  0  0  0
 20 10  1  0  0  0  0
 22 11  1  0  0  0  0
 24 25  1  6  0  0  0
 24 12  1  0  0  0  0
 25 30  1  0  0  0  0
 26 31  1  0  0  0  0
 26 25  1  0  0  0  0
 27 28  1  0  0  0  0
 27 33  1  0  0  0  0
 27 26  1  0  0  0  0
 28 35  1  6  0  0  0
 28 24  1  0  0  0  0
 29 25  1  0  0  0  0
 32 26  1  0  0  0  0
 34 27  1  0  0  0  0
 36 28  1  0  0  0  0
 36 37  1  0  0  0  0
 38 36  1  0  0  0  0
 39 36  1  0  0  0  0
M  END
>  <minimizedAffinity>
-5.19313669

$$$$

 OpenBabel03272505533D

 39 41  0  0  1  0  0  0  0  0999 V2000
   41.4130   24.9990   31.1930 C   0  0  0  0  0  0  0  0  0  0  0  0
   40.6320   24.0700   30.4540 C   0  0  0  0  0  0  0  0  0  0  0  0
   39.4610   23.6150   31.0430 C   0  0  0  0  0  0  0  0  0  0  0  0
   39.1330   24.0780   32.2800 N   0  0  0  0  0  0  0  0  0  0  0  0
   39.9060   24.9620   32.9470 C   0  0  0  0  0  0  0  0  0  0  0  0
   41.0310   25.4100   32.4030 N   0  0  0  0  0  0  0  0  0  0  0  0
   39.4940   25.3920   34.2240 N   0  0  0  0  0  0  0  0  0  0  0  0
   39.8680   26.7110   34.7520 C   0  0  0  0  0  0  0  0  0  0  0  0
   38.6170   27.4460   35.1100 C   0  0  0  0  0  0  0  0  0  0  0  0
   37.4890   26.7130   35.3520 N   0  0  0  0  0  0  0  0  0  0  0  0
   37.5300   25.2940   35.5870 C   0  0  0  0  0  0  0  0  0  0  0  0
   38.6800   24.5660   35.0950 C   0  0  2  0  0  0  0  0  0  0  0  0
   42.3390   25.3910   30.7860 H   0  0  0  0  0  0  0  0  0  0  0  0
   40.9720   23.7550   29.4710 H   0  0  0  0  0  0  0  0  0  0  0  0
   38.8420   22.9100   30.5110 H   0  0  0  0  0  0  0  0  0  0  0  0
   40.5100   27.2040   34.0170 H   0  0  0  0  0  0  0  0  0  0  0  0
   40.4600   26.5230   35.6520 H   0  0  0  0  0  0  0  0  0  0  0  0
   38.8780   28.1840   35.9160 H   0  0  0  0  0  0  0  0  0  0  0  0
   38.4220   28.1260   34.2280 H   0  0  0  0  0  0  0  0  0  0  0  0
   36.5790   27.1220   35.1420 H   0  0  0  0  0  0  0  0  0  0  0  0
   36.6430   24.9630   34.9480 H   0  0  0  0  0  0  0  0  0  0  0  0
   37.1060   25.1440   36.5680 H   0  0  0  0  0  0  0  0  0  0  0  0
   38.3970   23.6600   34.4950 H   0  0  0  0  0  0  0  0  0  0  0  0
   39.5640   24.0770   36.1490 N   0  0  2  0  0  0  0  0  0  0  0  0
   40.6590   23.2890   35.5670 C   0  0  0  0  0  0  0  0  0  0  0  0
   40.9270   22.1240   36.4790 C   0  0  0  0  0  0  0  0  0  0  0  0
   40.1340   22.4660   37.6630 C   0  0  0  0  0  0  0  0  0  0  0  0
   38.9440   23.2690   37.1230 C   0  0  1  0  0  0  0  0  0  0  0  0
   40.2820   22.8420   34.6100 H   0  0  0  0  0  0  0  0  0  0  0  0
   41.5220   23.9210   35.3460 H   0  0  0  0  0  0  0  0  0  0  0  0
   42.0260   22.1460   36.6850 H   0  0  0  0  0  0  0  0  0  0  0  0
   40.7080   21.1360   36.0250 H   0  0  0  0  0  0  0  0  0  0  0  0
   40.7890   23.0940   38.3290 H   0  0  0  0  0  0  0  0  0  0  0  0
   39.7970   21.6190   38.2960 H   0  0  0  0  0  0  0  0  0  0  0  0
   38.3760   22.3930   36.7200 H   0  0  0  0  0  0  0  0  0  0  0  0
   38.4450   23.8120   38.3870 C   0  0  0  0  0  0  0  0  0  0  0  0
   37.9910   25.0460   38.5390 F   0  0  0  0  0  0  0  0  0  0  0  0
   39.4000   23.5760   39.3980 F   0  0  0  0  0  0  0  0  0  0  0  0
   37.3720   22.9980   38.7970 F   0  0  0  0  0  0  0  0  0  0  0  0
  1  6  1  0  0  0  0
  2  3  1  0  0  0  0
  2  1  2  0  0  0  0
  3  4  2  0  0  0  0
  4  5  1  0  0  0  0
  5  7  1  0  0  0  0
  6  5  2  0  0  0  0
  7  8  1  0  0  0  0
  7 12  1  0  0  0  0
  8  9  1  0  0  0  0
  8 17  1  0  0  0  0
  9 10  1  0  0  0  0
  9 18  1  0  0  0  0
 10 11  1  0  0  0  0
 11 22  1  0  0  0  0
 12 23  1  6  0  0  0
 12 11  1  0  0  0  0
 12 24  1  0  0  0  0
 13  1  1  0  0  0  0
 14  2  1  0  0  0  0
 15  3  1  0  0  0  0
 16  8  1  0  0  0  0
 19  9  1  0  0  0  0
 20 10  1  0  0  0  0
 21 11  1  0  0  0  0
 24 25  1  6  0  0  0
 24 28  1  0  0  0  0
 25 26  1  0  0  0  0
 26 31  1  0  0  0  0
 26 27  1  0  0  0  0
 27 34  1  0  0  0  0
 27 33  1  0  0  0  0
 28 35  1  6  0  0  0
 28 27  1  0  0  0  0
 28 36  1  0  0  0  0
 29 25  1  0  0  0  0
 30 25  1  0  0  0  0
 32 26  1  0  0  0  0
 36 37  1  0  0  0  0
 36 39  1  0  0  0  0
 36 38  1  0  0  0  0
M  END
>  <minimizedAffinity>
-5.12334967

$$$$

 OpenBabel03272505533D

 39 41  0  0  1  0  0  0  0  0999 V2000
   36.2320   23.8840   30.9440 C   0  0  0  0  0  0  0  0  0  0  0  0
   35.7440   25.2060   31.1300 C   0  0  0  0  0  0  0  0  0  0  0  0
   36.3130   25.9570   32.1490 C   0  0  0  0  0  0  0  0  0  0  0  0
   37.2920   25.3890   32.9050 N   0  0  0  0  0  0  0  0  0  0  0  0
   37.7260   24.1270   32.6930 C   0  0  0  0  0  0  0  0  0  0  0  0
   37.1960   23.3910   31.7240 N   0  0  0  0  0  0  0  0  0  0  0  0
   38.7460   23.6150   33.5210 N   0  0  0  0  0  0  0  0  0  0  0  0
   39.6780   22.5820   33.0470 C   0  0  0  0  0  0  0  0  0  0  0  0
   41.0710   23.0980   33.2070 C   0  0  0  0  0  0  0  0  0  0  0  0
   41.2860   24.0960   34.1150 N   0  0  0  0  0  0  0  0  0  0  0  0
   40.3190   24.4390   35.1230 C   0  0  0  0  0  0  0  0  0  0  0  0
   38.9400   24.0720   34.8830 C   0  0  2  0  0  0  0  0  0  0  0  0
   35.8270   23.2490   30.1640 H   0  0  0  0  0  0  0  0  0  0  0  0
   34.9580   25.5770   30.4770 H   0  0  0  0  0  0  0  0  0  0  0  0
   35.9680   26.9640   32.3190 H   0  0  0  0  0  0  0  0  0  0  0  0
   39.3920   22.3050   32.0290 H   0  0  0  0  0  0  0  0  0  0  0  0
   39.5240   21.7140   33.6950 H   0  0  0  0  0  0  0  0  0  0  0  0
   41.7490   22.2080   33.3190 H   0  0  0  0  0  0  0  0  0  0  0  0
   41.3550   23.4770   32.1810 H   0  0  0  0  0  0  0  0  0  0  0  0
   42.0370   24.7650   33.9460 H   0  0  0  0  0  0  0  0  0  0  0  0
   40.3630   25.5790   35.0580 H   0  0  0  0  0  0  0  0  0  0  0  0
   40.8160   24.2980   36.0700 H   0  0  0  0  0  0  0  0  0  0  0  0
   38.2280   24.9270   35.0330 H   0  0  0  0  0  0  0  0  0  0  0  0
   38.4550   23.0020   35.7510 N   0  0  2  0  0  0  0  0  0  0  0  0
   37.7010   22.0160   34.9670 C   0  0  0  0  0  0  0  0  0  0  0  0
   36.5270   21.5650   35.7930 C   0  0  0  0  0  0  0  0  0  0  0  0
   36.8340   22.1380   37.1070 C   0  0  0  0  0  0  0  0  0  0  0  0
   37.6190   23.4210   36.8060 C   0  0  1  0  0  0  0  0  0  0  0  0
   37.2600   22.5510   34.0860 H   0  0  0  0  0  0  0  0  0  0  0  0
   38.3540   21.2190   34.6060 H   0  0  0  0  0  0  0  0  0  0  0  0
   36.5710   20.4480   35.7980 H   0  0  0  0  0  0  0  0  0  0  0  0
   35.5420   21.8440   35.3680 H   0  0  0  0  0  0  0  0  0  0  0  0
   37.4660   21.3850   37.6560 H   0  0  0  0  0  0  0  0  0  0  0  0
   35.9700   22.3390   37.7740 H   0  0  0  0  0  0  0  0  0  0  0  0
   36.7370   24.0360   36.4950 H   0  0  0  0  0  0  0  0  0  0  0  0
   38.1310   23.6940   38.1500 C   0  0  0  0  0  0  0  0  0  0  0  0
   38.0470   24.8680   38.7530 F   0  0  0  0  0  0  0  0  0  0  0  0
   39.4730   23.2650   38.2250 F   0  0  0  0  0  0  0  0  0  0  0  0
   37.4850   22.8060   39.0310 F   0  0  0  0  0  0  0  0  0  0  0  0
  1  2  2  0  0  0  0
  1  6  1  0  0  0  0
  2  3  1  0  0  0  0
  3 15  1  0  0  0  0
  3  4  2  0  0  0  0
  5  4  1  0  0  0  0
  5  7  1  0  0  0  0
  6  5  2  0  0  0  0
  7 12  1  0  0  0  0
  8  9  1  0  0  0  0
  8  7  1  0  0  0  0
  8 17  1  0  0  0  0
  9 18  1  0  0  0  0
  9 10  1  0  0  0  0
 10 11  1  0  0  0  0
 11 22  1  0  0  0  0
 12 23  1  1  0  0  0
 12 11  1  0  0  0  0
 12 24  1  0  0  0  0
 13  1  1  0  0  0  0
 14  2  1  0  0  0  0
 16  8  1  0  0  0  0
 19  9  1  0  0  0  0
 20 10  1  0  0  0  0
 21 11  1  0  0  0  0
 24 25  1  6  0  0  0
 24 28  1  0  0  0  0
 25 26  1  0  0  0  0
 26 31  1  0  0  0  0
 26 27  1  0  0  0  0
 27 33  1  0  0  0  0
 27 34  1  0  0  0  0
 28 35  1  6  0  0  0
 28 27  1  0  0  0  0
 28 36  1  0  0  0  0
 29 25  1  0  0  0  0
 30 25  1  0  0  0  0
 32 26  1  0  0  0  0
 36 38  1  0  0  0  0
 36 37  1  0  0  0  0
 36 39  1  0  0  0  0
M  END
>  <minimizedAffinity>
-5.07912588

$$$$

 OpenBabel03272505533D

 39 41  0  0  1  0  0  0  0  0999 V2000
   39.8780   26.3420   32.4450 C   0  0  0  0  0  0  0  0  0  0  0  0
   38.7380   27.1730   32.6190 C   0  0  0  0  0  0  0  0  0  0  0  0
   37.6590   26.6360   33.3070 C   0  0  0  0  0  0  0  0  0  0  0  0
   37.7530   25.3590   33.7680 N   0  0  0  0  0  0  0  0  0  0  0  0
   38.8570   24.6040   33.5790 C   0  0  0  0  0  0  0  0  0  0  0  0
   39.9010   25.0980   32.9240 N   0  0  0  0  0  0  0  0  0  0  0  0
   38.8740   23.2910   34.0900 N   0  0  0  0  0  0  0  0  0  0  0  0
   40.1270   22.6310   34.4830 C   0  0  0  0  0  0  0  0  0  0  0  0
   40.0060   22.2030   35.9090 C   0  0  0  0  0  0  0  0  0  0  0  0
   38.7510   22.0390   36.4260 N   0  0  0  0  0  0  0  0  0  0  0  0
   37.5830   21.9490   35.5920 C   0  0  0  0  0  0  0  0  0  0  0  0
   37.6630   22.5100   34.2610 C   0  0  2  0  0  0  0  0  0  0  0  0
   40.7520   26.7060   31.9160 H   0  0  0  0  0  0  0  0  0  0  0  0
   38.7510   28.1820   32.2160 H   0  0  0  0  0  0  0  0  0  0  0  0
   36.7770   27.2370   33.4580 H   0  0  0  0  0  0  0  0  0  0  0  0
   40.9550   23.3110   34.2640 H   0  0  0  0  0  0  0  0  0  0  0  0
   40.2250   21.7540   33.8370 H   0  0  0  0  0  0  0  0  0  0  0  0
   40.6920   21.3260   36.0580 H   0  0  0  0  0  0  0  0  0  0  0  0
   40.5340   23.0120   36.4970 H   0  0  0  0  0  0  0  0  0  0  0  0
   38.5990   22.2080   37.4200 H   0  0  0  0  0  0  0  0  0  0  0  0
   36.8690   22.6200   36.1800 H   0  0  0  0  0  0  0  0  0  0  0  0
   37.1380   20.9890   35.8070 H   0  0  0  0  0  0  0  0  0  0  0  0
   36.8090   23.2000   34.0260 H   0  0  0  0  0  0  0  0  0  0  0  0
   37.6630   21.5100   33.1970 N   0  0  2  0  0  0  0  0  0  0  0  0
   38.5620   21.9230   32.1120 C   0  0  0  0  0  0  0  0  0  0  0  0
   37.9190   21.5430   30.8060 C   0  0  0  0  0  0  0  0  0  0  0  0
   36.8010   20.7010   31.2440 C   0  0  0  0  0  0  0  0  0  0  0  0
   36.4030   21.2530   32.6180 C   0  0  1  0  0  0  0  0  0  0  0  0
   38.6000   23.0430   32.1140 H   0  0  0  0  0  0  0  0  0  0  0  0
   39.5710   21.5340   32.2680 H   0  0  0  0  0  0  0  0  0  0  0  0
   38.6920   20.9630   30.2440 H   0  0  0  0  0  0  0  0  0  0  0  0
   37.6440   22.4090   30.1700 H   0  0  0  0  0  0  0  0  0  0  0  0
   37.1930   19.6480   31.3180 H   0  0  0  0  0  0  0  0  0  0  0  0
   35.9280   20.6430   30.5620 H   0  0  0  0  0  0  0  0  0  0  0  0
   35.8650   22.1570   32.2370 H   0  0  0  0  0  0  0  0  0  0  0  0
   35.5460   20.1540   33.0650 C   0  0  0  0  0  0  0  0  0  0  0  0
   35.9130   18.8830   33.0740 F   0  0  0  0  0  0  0  0  0  0  0  0
   34.3050   20.2410   32.4000 F   0  0  0  0  0  0  0  0  0  0  0  0
   35.1880   20.4200   34.4000 F   0  0  0  0  0  0  0  0  0  0  0  0
  1  2  2  0  0  0  0
  1  6  1  0  0  0  0
  2  3  1  0  0  0  0
  3 15  1  0  0  0  0
  3  4  2  0  0  0  0
  5  4  1  0  0  0  0
  5  7  1  0  0  0  0
  6  5  2  0  0  0  0
  7 12  1  0  0  0  0
  7  8  1  0  0  0  0
  8  9  1  0  0  0  0
  9 18  1  0  0  0  0
  9 10  1  0  0  0  0
  9 19  1  0  0  0  0
 10 20  1  0  0  0  0
 11 22  1  0  0  0  0
 11 21  1  0  0  0  0
 11 10  1  0  0  0  0
 12 23  1  6  0  0  0
 12 11  1  0  0  0  0
 13  1  1  0  0  0  0
 14  2  1  0  0  0  0
 16  8  1  0  0  0  0
 17  8  1  0  0  0  0
 24 25  1  6  0  0  0
 24 12  1  0  0  0  0
 25 29  1  0  0  0  0
 25 30  1  0  0  0  0
 26 27  1  0  0  0  0
 26 25  1  0  0  0  0
 27 33  1  0  0  0  0
 27 28  1  0  0  0  0
 28 35  1  6  0  0  0
 28 36  1  0  0  0  0
 28 24  1  0  0  0  0
 31 26  1  0  0  0  0
 32 26  1  0  0  0  0
 34 27  1  0  0  0  0
 36 37  1  0  0  0  0
 36 39  1  0  0  0  0
 38 36  1  0  0  0  0
M  END
>  <minimizedAffinity>
-5.07863665

$$$$
