
 OpenBabel03272510223D

 26 28  0  0  0  0  0  0  0  0999 V2000
   35.8470   30.1380   46.7970 C   0  0  0  0  0  0  0  0  0  0  0  0
   36.4620   30.5650   47.9500 C   0  0  0  0  0  0  0  0  0  0  0  0
   37.5430   31.4140   47.8920 C   0  0  0  0  0  0  0  0  0  0  0  0
   37.9770   31.8120   46.6410 C   0  0  0  0  0  0  0  0  0  0  0  0
   39.0200   32.6420   46.3320 N   0  0  0  0  0  0  0  0  0  0  0  0
   39.0640   32.7380   44.9970 C   0  0  0  0  0  0  0  0  0  0  0  0
   38.0880   31.9990   44.4370 N   0  0  0  0  0  0  0  0  0  0  0  0
   37.3930   31.4100   45.4450 C   0  0  0  0  0  0  0  0  0  0  0  0
   36.3090   30.5570   45.5410 C   0  0  0  0  0  0  0  0  0  0  0  0
   34.9980   29.4740   46.7690 H   0  0  0  0  0  0  0  0  0  0  0  0
   38.0190   31.7450   48.7940 H   0  0  0  0  0  0  0  0  0  0  0  0
   39.6730   33.1200   47.0120 H   0  0  0  0  0  0  0  0  0  0  0  0
   35.8280   30.2230   44.6150 H   0  0  0  0  0  0  0  0  0  0  0  0
   36.0460   29.3620   51.4980 C   0  0  0  0  0  0  0  0  0  0  0  0
   36.6550   29.8340   50.3400 C   0  0  0  0  0  0  0  0  0  0  0  0
   35.9030   30.0700   49.2040 C   0  0  0  0  0  0  0  0  0  0  0  0
   34.5590   29.8280   49.2550 N   0  0  0  0  0  0  0  0  0  0  0  0
   33.9920   29.3630   50.4120 C   0  0  0  0  0  0  0  0  0  0  0  0
   34.7190   29.1360   51.5020 N   0  0  0  0  0  0  0  0  0  0  0  0
   36.6590   29.1900   52.3600 H   0  0  0  0  0  0  0  0  0  0  0  0
   37.7020   30.0180   50.3190 H   0  0  0  0  0  0  0  0  0  0  0  0
   32.9200   29.2050   50.3370 H   0  0  0  0  0  0  0  0  0  0  0  0
   40.0820   33.5670   44.2830 C   0  0  0  0  0  0  0  0  0  0  0  0
   41.3480   33.0640   44.3610 F   0  0  0  0  0  0  0  0  0  0  0  0
   40.0720   34.8560   44.8100 F   0  0  0  0  0  0  0  0  0  0  0  0
   39.7530   33.7080   42.9460 F   0  0  0  0  0  0  0  0  0  0  0  0
  1  2  1  0  0  0  0
  2 16  1  0  0  0  0
  3  2  2  0  0  0  0
  3 11  1  0  0  0  0
  4  3  1  0  0  0  0
  5  4  1  0  0  0  0
  5 12  1  0  0  0  0
  6  5  1  0  0  0  0
  7  6  2  0  0  0  0
  7  8  1  0  0  0  0
  8  9  1  0  0  0  0
  8  4  2  0  0  0  0
  9  1  2  0  0  0  0
 10  1  1  0  0  0  0
 13  9  1  0  0  0  0
 14 19  1  0  0  0  0
 14 20  1  0  0  0  0
 15 14  2  0  0  0  0
 16 17  2  0  0  0  0
 16 15  1  0  0  0  0
 17 18  1  0  0  0  0
 18 19  2  0  0  0  0
 21 15  1  0  0  0  0
 22 18  1  0  0  0  0
 23 24  1  0  0  0  0
 23 25  1  0  0  0  0
 23  6  1  0  0  0  0
 26 23  1  0  0  0  0
M  END
>  <minimizedAffinity>
-5.02353382

>  <minimizedRMSD>
1.39030838

$$$$
