
 OpenBabel03272510073D

 25 26  0  0  0  0  0  0  0  0999 V2000
   36.9710   21.3930   32.8980 C   0  0  0  0  0  0  0  0  0  0  0  0
   35.8850   20.5570   33.2680 C   0  0  0  0  0  0  0  0  0  0  0  0
   35.5800   20.4450   34.6280 C   0  0  0  0  0  0  0  0  0  0  0  0
   36.3390   21.1420   35.5050 N   0  0  0  0  0  0  0  0  0  0  0  0
   37.3580   21.9230   35.1250 C   0  0  0  0  0  0  0  0  0  0  0  0
   37.6780   22.0540   33.8380 N   0  0  0  0  0  0  0  0  0  0  0  0
   38.1000   22.6200   36.1550 N   0  0  0  0  0  0  0  0  0  0  0  0
   37.5250   23.5820   37.0640 C   0  0  0  0  0  0  0  0  0  0  0  0
   38.5980   23.8470   38.0560 C   0  0  0  0  0  0  0  0  0  0  0  0
   39.6580   22.8010   37.8370 C   0  0  0  0  0  0  0  0  0  0  0  0
   39.5300   22.4370   36.4050 C   0  0  0  0  0  0  0  0  0  0  0  0
   37.2130   21.4840   31.8370 H   0  0  0  0  0  0  0  0  0  0  0  0
   34.7530   19.8110   34.9320 H   0  0  0  0  0  0  0  0  0  0  0  0
   37.1620   24.4800   36.5340 H   0  0  0  0  0  0  0  0  0  0  0  0
   36.6900   23.0540   37.6030 H   0  0  0  0  0  0  0  0  0  0  0  0
   39.0430   24.8350   37.8170 H   0  0  0  0  0  0  0  0  0  0  0  0
   38.2700   23.8230   39.1060 H   0  0  0  0  0  0  0  0  0  0  0  0
   40.6630   23.1310   38.1530 H   0  0  0  0  0  0  0  0  0  0  0  0
   39.3980   21.9080   38.4490 H   0  0  0  0  0  0  0  0  0  0  0  0
   40.1510   23.0950   35.7930 H   0  0  0  0  0  0  0  0  0  0  0  0
   39.7260   21.3600   36.1940 H   0  0  0  0  0  0  0  0  0  0  0  0
   35.1090   19.8330   32.2360 C   0  0  0  0  0  0  0  0  0  0  0  0
   35.8730   19.7490   31.0910 F   0  0  0  0  0  0  0  0  0  0  0  0
   34.9170   18.5340   32.7040 F   0  0  0  0  0  0  0  0  0  0  0  0
   33.8660   20.3670   32.0540 F   0  0  0  0  0  0  0  0  0  0  0  0
  1  2  2  0  0  0  0
  1  6  1  0  0  0  0
  2  3  1  0  0  0  0
  3 13  1  0  0  0  0
  3  4  2  0  0  0  0
  5  4  1  0  0  0  0
  5  7  1  0  0  0  0
  6  5  2  0  0  0  0
  7 11  1  0  0  0  0
  7  8  1  0  0  0  0
  8 15  1  0  0  0  0
  8  9  1  0  0  0  0
  9 17  1  0  0  0  0
 10  9  1  0  0  0  0
 10 18  1  0  0  0  0
 10 19  1  0  0  0  0
 11 10  1  0  0  0  0
 12  1  1  0  0  0  0
 14  8  1  0  0  0  0
 16  9  1  0  0  0  0
 20 11  1  0  0  0  0
 21 11  1  0  0  0  0
 22 24  1  0  0  0  0
 22  2  1  0  0  0  0
 23 22  1  0  0  0  0
 25 22  1  0  0  0  0
M  END
>  <minimizedAffinity>
-4.93885708

$$$$

 OpenBabel03272510073D

 25 26  0  0  0  0  0  0  0  0999 V2000
   38.0970   25.1950   36.3710 C   0  0  0  0  0  0  0  0  0  0  0  0
   38.1360   23.9210   36.9940 C   0  0  0  0  0  0  0  0  0  0  0  0
   38.0940   22.7890   36.1740 C   0  0  0  0  0  0  0  0  0  0  0  0
   38.0190   22.9820   34.8370 N   0  0  0  0  0  0  0  0  0  0  0  0
   37.9830   24.1970   34.2780 C   0  0  0  0  0  0  0  0  0  0  0  0
   38.0220   25.2990   35.0270 N   0  0  0  0  0  0  0  0  0  0  0  0
   37.9020   24.2780   32.8340 N   0  0  0  0  0  0  0  0  0  0  0  0
   38.8930   23.7440   31.9310 C   0  0  0  0  0  0  0  0  0  0  0  0
   38.2760   23.8660   30.5840 C   0  0  0  0  0  0  0  0  0  0  0  0
   36.8260   24.2070   30.8020 C   0  0  0  0  0  0  0  0  0  0  0  0
   36.8030   24.9130   32.1070 C   0  0  0  0  0  0  0  0  0  0  0  0
   38.1300   26.0820   37.0080 H   0  0  0  0  0  0  0  0  0  0  0  0
   38.1230   21.8060   36.6320 H   0  0  0  0  0  0  0  0  0  0  0  0
   39.8630   24.2590   32.0360 H   0  0  0  0  0  0  0  0  0  0  0  0
   38.9800   22.6460   32.1630 H   0  0  0  0  0  0  0  0  0  0  0  0
   38.7530   24.7260   30.0710 H   0  0  0  0  0  0  0  0  0  0  0  0
   38.3500   22.9620   29.9610 H   0  0  0  0  0  0  0  0  0  0  0  0
   36.3810   24.7610   29.9560 H   0  0  0  0  0  0  0  0  0  0  0  0
   36.2570   23.2580   30.9090 H   0  0  0  0  0  0  0  0  0  0  0  0
   36.9620   25.9840   31.9570 H   0  0  0  0  0  0  0  0  0  0  0  0
   35.8930   24.7060   32.7160 H   0  0  0  0  0  0  0  0  0  0  0  0
   38.2200   23.8090   38.4690 C   0  0  0  0  0  0  0  0  0  0  0  0
   37.3480   22.8230   38.8830 F   0  0  0  0  0  0  0  0  0  0  0  0
   39.5100   23.3790   38.7750 F   0  0  0  0  0  0  0  0  0  0  0  0
   38.0550   25.0130   39.0900 F   0  0  0  0  0  0  0  0  0  0  0  0
  1  2  1  0  0  0  0
  1 12  1  0  0  0  0
  2 22  1  0  0  0  0
  3 13  1  0  0  0  0
  3  2  2  0  0  0  0
  4  3  1  0  0  0  0
  5  4  2  0  0  0  0
  5  6  1  0  0  0  0
  6  1  2  0  0  0  0
  7  5  1  0  0  0  0
  8 14  1  0  0  0  0
  8 15  1  0  0  0  0
  8  7  1  0  0  0  0
  9 10  1  0  0  0  0
  9  8  1  0  0  0  0
 10 19  1  0  0  0  0
 10 11  1  0  0  0  0
 11 21  1  0  0  0  0
 11  7  1  0  0  0  0
 16  9  1  0  0  0  0
 17  9  1  0  0  0  0
 18 10  1  0  0  0  0
 20 11  1  0  0  0  0
 22 24  1  0  0  0  0
 22 23  1  0  0  0  0
 22 25  1  0  0  0  0
M  END
>  <minimizedAffinity>
-4.90258408

$$$$

 OpenBabel03272510073D

 25 26  0  0  0  0  0  0  0  0999 V2000
   38.2550   23.1270   35.9590 C   0  0  0  0  0  0  0  0  0  0  0  0
   38.2170   24.1100   36.9810 C   0  0  0  0  0  0  0  0  0  0  0  0
   38.0830   25.4480   36.5990 C   0  0  0  0  0  0  0  0  0  0  0  0
   37.9990   25.7210   35.2760 N   0  0  0  0  0  0  0  0  0  0  0  0
   38.0380   24.7710   34.3340 C   0  0  0  0  0  0  0  0  0  0  0  0
   38.1640   23.4850   34.6610 N   0  0  0  0  0  0  0  0  0  0  0  0
   37.9380   25.1840   32.9490 N   0  0  0  0  0  0  0  0  0  0  0  0
   36.8100   25.8850   32.3870 C   0  0  0  0  0  0  0  0  0  0  0  0
   37.2560   26.2820   31.0260 C   0  0  0  0  0  0  0  0  0  0  0  0
   38.7400   26.0360   30.9680 C   0  0  0  0  0  0  0  0  0  0  0  0
   38.9730   24.9420   31.9430 C   0  0  0  0  0  0  0  0  0  0  0  0
   38.3580   22.0800   36.2530 H   0  0  0  0  0  0  0  0  0  0  0  0
   38.0520   26.2150   37.3660 H   0  0  0  0  0  0  0  0  0  0  0  0
   35.8950   25.2690   32.4040 H   0  0  0  0  0  0  0  0  0  0  0  0
   36.6860   26.8280   32.9880 H   0  0  0  0  0  0  0  0  0  0  0  0
   36.7710   25.5980   30.2990 H   0  0  0  0  0  0  0  0  0  0  0  0
   37.0470   27.3290   30.7600 H   0  0  0  0  0  0  0  0  0  0  0  0
   39.1060   25.8430   29.9440 H   0  0  0  0  0  0  0  0  0  0  0  0
   39.2590   26.9480   31.3370 H   0  0  0  0  0  0  0  0  0  0  0  0
   38.8630   23.9720   31.4520 H   0  0  0  0  0  0  0  0  0  0  0  0
   39.9390   25.0260   32.4930 H   0  0  0  0  0  0  0  0  0  0  0  0
   38.3150   23.7160   38.4060 C   0  0  0  0  0  0  0  0  0  0  0  0
   39.5950   23.2610   38.6470 F   0  0  0  0  0  0  0  0  0  0  0  0
   38.1340   24.8720   39.1640 F   0  0  0  0  0  0  0  0  0  0  0  0
   37.3250   22.8520   38.7740 F   0  0  0  0  0  0  0  0  0  0  0  0
  1 12  1  0  0  0  0
  1  2  1  0  0  0  0
  2 22  1  0  0  0  0
  3  2  2  0  0  0  0
  3 13  1  0  0  0  0
  4  3  1  0  0  0  0
  5  6  1  0  0  0  0
  5  4  2  0  0  0  0
  6  1  2  0  0  0  0
  7  5  1  0  0  0  0
  8 14  1  0  0  0  0
  8  7  1  0  0  0  0
  8 15  1  0  0  0  0
  9  8  1  0  0  0  0
 10  9  1  0  0  0  0
 10 19  1  0  0  0  0
 10 11  1  0  0  0  0
 11 21  1  0  0  0  0
 11  7  1  0  0  0  0
 16  9  1  0  0  0  0
 17  9  1  0  0  0  0
 18 10  1  0  0  0  0
 20 11  1  0  0  0  0
 22 23  1  0  0  0  0
 22 25  1  0  0  0  0
 22 24  1  0  0  0  0
M  END
>  <minimizedAffinity>
-4.67529821

$$$$

 OpenBabel03272510073D

 25 26  0  0  0  0  0  0  0  0999 V2000
   38.1580   26.1940   36.7220 C   0  0  0  0  0  0  0  0  0  0  0  0
   38.1870   24.7760   36.6730 C   0  0  0  0  0  0  0  0  0  0  0  0
   38.1850   24.1640   35.4160 C   0  0  0  0  0  0  0  0  0  0  0  0
   38.1570   24.9640   34.3250 N   0  0  0  0  0  0  0  0  0  0  0  0
   38.1290   26.3000   34.4030 C   0  0  0  0  0  0  0  0  0  0  0  0
   38.1300   26.9180   35.5840 N   0  0  0  0  0  0  0  0  0  0  0  0
   38.1000   27.0520   33.1660 N   0  0  0  0  0  0  0  0  0  0  0  0
   39.1270   26.9980   32.1540 C   0  0  0  0  0  0  0  0  0  0  0  0
   38.5590   27.7450   31.0020 C   0  0  0  0  0  0  0  0  0  0  0  0
   37.0980   27.9560   31.3030 C   0  0  0  0  0  0  0  0  0  0  0  0
   37.0220   27.9650   32.7840 C   0  0  0  0  0  0  0  0  0  0  0  0
   38.1600   26.6760   37.7020 H   0  0  0  0  0  0  0  0  0  0  0  0
   38.2070   23.0810   35.3570 H   0  0  0  0  0  0  0  0  0  0  0  0
   40.0880   27.3940   32.5250 H   0  0  0  0  0  0  0  0  0  0  0  0
   39.2160   25.9190   31.8450 H   0  0  0  0  0  0  0  0  0  0  0  0
   39.0460   28.7410   30.9730 H   0  0  0  0  0  0  0  0  0  0  0  0
   38.6640   27.2410   30.0300 H   0  0  0  0  0  0  0  0  0  0  0  0
   36.6800   28.8470   30.8020 H   0  0  0  0  0  0  0  0  0  0  0  0
   36.5350   27.0740   30.9290 H   0  0  0  0  0  0  0  0  0  0  0  0
   37.1760   28.9780   33.1620 H   0  0  0  0  0  0  0  0  0  0  0  0
   36.0930   27.5030   33.1900 H   0  0  0  0  0  0  0  0  0  0  0  0
   38.2180   23.9810   37.9230 C   0  0  0  0  0  0  0  0  0  0  0  0
   37.8570   24.8000   38.9720 F   0  0  0  0  0  0  0  0  0  0  0  0
   37.2380   22.9960   37.8070 F   0  0  0  0  0  0  0  0  0  0  0  0
   39.4050   23.3280   38.0910 F   0  0  0  0  0  0  0  0  0  0  0  0
  1 12  1  0  0  0  0
  2  1  1  0  0  0  0
  2 22  1  0  0  0  0
  3  2  2  0  0  0  0
  4  5  2  0  0  0  0
  4  3  1  0  0  0  0
  5  6  1  0  0  0  0
  6  1  2  0  0  0  0
  7  5  1  0  0  0  0
  8 14  1  0  0  0  0
  8  7  1  0  0  0  0
  9 10  1  0  0  0  0
  9  8  1  0  0  0  0
 10 11  1  0  0  0  0
 11 20  1  0  0  0  0
 11  7  1  0  0  0  0
 11 21  1  0  0  0  0
 13  3  1  0  0  0  0
 15  8  1  0  0  0  0
 16  9  1  0  0  0  0
 17  9  1  0  0  0  0
 18 10  1  0  0  0  0
 19 10  1  0  0  0  0
 22 25  1  0  0  0  0
 22 23  1  0  0  0  0
 24 22  1  0  0  0  0
M  END
>  <minimizedAffinity>
-4.49358702

$$$$

 OpenBabel03272510073D

 25 26  0  0  0  0  0  0  0  0999 V2000
   37.4790   26.2000   33.6040 C   0  0  0  0  0  0  0  0  0  0  0  0
   38.1450   25.8660   34.8120 C   0  0  0  0  0  0  0  0  0  0  0  0
   38.4180   24.5170   35.0580 C   0  0  0  0  0  0  0  0  0  0  0  0
   38.0310   23.6150   34.1270 N   0  0  0  0  0  0  0  0  0  0  0  0
   37.4040   23.9600   32.9960 C   0  0  0  0  0  0  0  0  0  0  0  0
   37.1270   25.2370   32.7270 N   0  0  0  0  0  0  0  0  0  0  0  0
   37.0370   22.9060   32.0740 N   0  0  0  0  0  0  0  0  0  0  0  0
   37.9770   22.0140   31.4390 C   0  0  0  0  0  0  0  0  0  0  0  0
   37.1310   20.9870   30.7780 C   0  0  0  0  0  0  0  0  0  0  0  0
   35.7330   21.1740   31.3040 C   0  0  0  0  0  0  0  0  0  0  0  0
   35.6620   22.6100   31.6680 C   0  0  0  0  0  0  0  0  0  0  0  0
   37.2640   27.2530   33.4080 H   0  0  0  0  0  0  0  0  0  0  0  0
   38.9270   24.2420   35.9760 H   0  0  0  0  0  0  0  0  0  0  0  0
   38.6560   22.5540   30.7560 H   0  0  0  0  0  0  0  0  0  0  0  0
   38.5430   21.5030   32.2670 H   0  0  0  0  0  0  0  0  0  0  0  0
   37.1160   21.2100   29.6910 H   0  0  0  0  0  0  0  0  0  0  0  0
   37.4510   19.9480   30.9480 H   0  0  0  0  0  0  0  0  0  0  0  0
   34.9570   20.8250   30.6000 H   0  0  0  0  0  0  0  0  0  0  0  0
   35.6280   20.5730   32.2340 H   0  0  0  0  0  0  0  0  0  0  0  0
   35.3420   23.2000   30.8060 H   0  0  0  0  0  0  0  0  0  0  0  0
   35.0420   22.8170   32.5700 H   0  0  0  0  0  0  0  0  0  0  0  0
   38.5330   26.9250   35.7730 C   0  0  0  0  0  0  0  0  0  0  0  0
   39.8510   27.2620   35.5450 F   0  0  0  0  0  0  0  0  0  0  0  0
   37.7590   28.0470   35.4820 F   0  0  0  0  0  0  0  0  0  0  0  0
   38.2480   26.5810   37.0630 F   0  0  0  0  0  0  0  0  0  0  0  0
  1  2  1  0  0  0  0
  2  3  2  0  0  0  0
  2 22  1  0  0  0  0
  3 13  1  0  0  0  0
  4  3  1  0  0  0  0
  5  4  2  0  0  0  0
  6  5  1  0  0  0  0
  6  1  2  0  0  0  0
  7  5  1  0  0  0  0
  8  7  1  0  0  0  0
  8 15  1  0  0  0  0
  9 17  1  0  0  0  0
  9 10  1  0  0  0  0
  9  8  1  0  0  0  0
 10 11  1  0  0  0  0
 10 19  1  0  0  0  0
 11  7  1  0  0  0  0
 11 21  1  0  0  0  0
 12  1  1  0  0  0  0
 14  8  1  0  0  0  0
 16  9  1  0  0  0  0
 18 10  1  0  0  0  0
 20 11  1  0  0  0  0
 22 25  1  0  0  0  0
 23 22  1  0  0  0  0
 24 22  1  0  0  0  0
M  END
>  <minimizedAffinity>
-4.44101429

$$$$

 OpenBabel03272510073D

 25 26  0  0  0  0  0  0  0  0999 V2000
   40.3940   23.2660   34.8300 C   0  0  0  0  0  0  0  0  0  0  0  0
   39.9120   22.7040   36.0410 C   0  0  0  0  0  0  0  0  0  0  0  0
   38.5670   22.3250   36.0980 C   0  0  0  0  0  0  0  0  0  0  0  0
   37.8100   22.5170   34.9930 N   0  0  0  0  0  0  0  0  0  0  0  0
   38.2930   23.0500   33.8650 C   0  0  0  0  0  0  0  0  0  0  0  0
   39.5700   23.4240   33.7730 N   0  0  0  0  0  0  0  0  0  0  0  0
   37.3860   23.2080   32.7460 N   0  0  0  0  0  0  0  0  0  0  0  0
   36.6960   22.1200   32.0970 C   0  0  0  0  0  0  0  0  0  0  0  0
   35.7320   22.7820   31.1800 C   0  0  0  0  0  0  0  0  0  0  0  0
   35.7120   24.2410   31.5530 C   0  0  0  0  0  0  0  0  0  0  0  0
   37.0540   24.4940   32.1320 C   0  0  0  0  0  0  0  0  0  0  0  0
   41.4430   23.5630   34.7810 H   0  0  0  0  0  0  0  0  0  0  0  0
   38.1810   21.8930   37.0150 H   0  0  0  0  0  0  0  0  0  0  0  0
   37.3980   21.4290   31.5990 H   0  0  0  0  0  0  0  0  0  0  0  0
   36.0980   21.5980   32.8940 H   0  0  0  0  0  0  0  0  0  0  0  0
   36.1370   22.7020   30.1500 H   0  0  0  0  0  0  0  0  0  0  0  0
   34.7090   22.3790   31.2190 H   0  0  0  0  0  0  0  0  0  0  0  0
   35.4280   24.8980   30.7120 H   0  0  0  0  0  0  0  0  0  0  0  0
   34.9540   24.3840   32.3540 H   0  0  0  0  0  0  0  0  0  0  0  0
   37.7560   24.7770   31.3430 H   0  0  0  0  0  0  0  0  0  0  0  0
   37.0520   25.2260   32.9730 H   0  0  0  0  0  0  0  0  0  0  0  0
   40.8180   22.5300   37.2010 C   0  0  0  0  0  0  0  0  0  0  0  0
   41.9400   23.3050   37.0000 F   0  0  0  0  0  0  0  0  0  0  0  0
   40.1550   23.0380   38.3170 F   0  0  0  0  0  0  0  0  0  0  0  0
   41.0720   21.2160   37.4660 F   0  0  0  0  0  0  0  0  0  0  0  0
  1  2  1  0  0  0  0
  2  3  2  0  0  0  0
  2 22  1  0  0  0  0
  3 13  1  0  0  0  0
  4  3  1  0  0  0  0
  5  4  2  0  0  0  0
  6  5  1  0  0  0  0
  6  1  2  0  0  0  0
  7  5  1  0  0  0  0
  8  7  1  0  0  0  0
  8 15  1  0  0  0  0
  9 17  1  0  0  0  0
  9 10  1  0  0  0  0
  9  8  1  0  0  0  0
 10 11  1  0  0  0  0
 10 19  1  0  0  0  0
 11  7  1  0  0  0  0
 11 21  1  0  0  0  0
 12  1  1  0  0  0  0
 14  8  1  0  0  0  0
 16  9  1  0  0  0  0
 18 10  1  0  0  0  0
 20 11  1  0  0  0  0
 22 25  1  0  0  0  0
 22 24  1  0  0  0  0
 23 22  1  0  0  0  0
M  END
>  <minimizedAffinity>
-4.33006763

$$$$

 OpenBabel03272510073D

 25 26  0  0  0  0  0  0  0  0999 V2000
   35.2630   29.1000   32.6660 C   0  0  0  0  0  0  0  0  0  0  0  0
   35.8310   29.2240   33.9600 C   0  0  0  0  0  0  0  0  0  0  0  0
   36.6150   28.1680   34.4350 C   0  0  0  0  0  0  0  0  0  0  0  0
   36.7820   27.0940   33.6280 N   0  0  0  0  0  0  0  0  0  0  0  0
   36.2330   27.0060   32.4110 C   0  0  0  0  0  0  0  0  0  0  0  0
   35.4800   27.9930   31.9250 N   0  0  0  0  0  0  0  0  0  0  0  0
   36.4820   25.8060   31.6390 N   0  0  0  0  0  0  0  0  0  0  0  0
   37.7900   25.3580   31.2290 C   0  0  0  0  0  0  0  0  0  0  0  0
   37.5630   24.0000   30.6710 C   0  0  0  0  0  0  0  0  0  0  0  0
   36.1600   23.6060   31.0490 C   0  0  0  0  0  0  0  0  0  0  0  0
   35.4350   24.8940   31.1760 C   0  0  0  0  0  0  0  0  0  0  0  0
   34.6500   29.9230   32.2900 H   0  0  0  0  0  0  0  0  0  0  0  0
   37.0580   28.2430   35.4220 H   0  0  0  0  0  0  0  0  0  0  0  0
   38.2630   26.0660   30.5260 H   0  0  0  0  0  0  0  0  0  0  0  0
   38.3980   25.2390   32.1680 H   0  0  0  0  0  0  0  0  0  0  0  0
   37.6070   24.0770   29.5650 H   0  0  0  0  0  0  0  0  0  0  0  0
   38.2670   23.2330   31.0270 H   0  0  0  0  0  0  0  0  0  0  0  0
   35.7120   22.8790   30.3490 H   0  0  0  0  0  0  0  0  0  0  0  0
   36.1910   23.1230   32.0500 H   0  0  0  0  0  0  0  0  0  0  0  0
   35.0190   25.1880   30.2100 H   0  0  0  0  0  0  0  0  0  0  0  0
   34.6660   24.9010   31.9830 H   0  0  0  0  0  0  0  0  0  0  0  0
   35.5940   30.4400   34.7720 C   0  0  0  0  0  0  0  0  0  0  0  0
   34.3330   30.3580   35.3250 F   0  0  0  0  0  0  0  0  0  0  0  0
   36.5110   30.4180   35.8210 F   0  0  0  0  0  0  0  0  0  0  0  0
   35.8350   31.5860   34.0700 F   0  0  0  0  0  0  0  0  0  0  0  0
  1  2  1  0  0  0  0
  2  3  2  0  0  0  0
  2 22  1  0  0  0  0
  3 13  1  0  0  0  0
  4  3  1  0  0  0  0
  5  4  2  0  0  0  0
  6  5  1  0  0  0  0
  6  1  2  0  0  0  0
  7  5  1  0  0  0  0
  8  7  1  0  0  0  0
  8 15  1  0  0  0  0
  9 17  1  0  0  0  0
  9 10  1  0  0  0  0
  9  8  1  0  0  0  0
 10 11  1  0  0  0  0
 10 19  1  0  0  0  0
 11  7  1  0  0  0  0
 11 21  1  0  0  0  0
 12  1  1  0  0  0  0
 14  8  1  0  0  0  0
 16  9  1  0  0  0  0
 18 10  1  0  0  0  0
 20 11  1  0  0  0  0
 22 23  1  0  0  0  0
 22 24  1  0  0  0  0
 25 22  1  0  0  0  0
M  END
>  <minimizedAffinity>
-4.3281455

$$$$

 OpenBabel03272510073D

 25 26  0  0  0  0  0  0  0  0999 V2000
   37.2280   25.4780   32.1920 C   0  0  0  0  0  0  0  0  0  0  0  0
   36.2010   26.2270   31.5620 C   0  0  0  0  0  0  0  0  0  0  0  0
   35.1410   25.5260   30.9790 C   0  0  0  0  0  0  0  0  0  0  0  0
   35.1630   24.1750   31.0530 N   0  0  0  0  0  0  0  0  0  0  0  0
   36.1460   23.4950   31.6540 C   0  0  0  0  0  0  0  0  0  0  0  0
   37.1730   24.1300   32.2210 N   0  0  0  0  0  0  0  0  0  0  0  0
   36.0610   22.0490   31.6700 N   0  0  0  0  0  0  0  0  0  0  0  0
   34.9880   21.3020   32.2810 C   0  0  0  0  0  0  0  0  0  0  0  0
   35.2180   19.8980   31.8530 C   0  0  0  0  0  0  0  0  0  0  0  0
   36.2620   19.9420   30.7690 C   0  0  0  0  0  0  0  0  0  0  0  0
   37.0540   21.1600   31.0660 C   0  0  0  0  0  0  0  0  0  0  0  0
   38.0580   26.0210   32.6490 H   0  0  0  0  0  0  0  0  0  0  0  0
   34.3460   26.0810   30.4930 H   0  0  0  0  0  0  0  0  0  0  0  0
   34.9610   21.4460   33.3750 H   0  0  0  0  0  0  0  0  0  0  0  0
   34.0360   21.6520   31.7940 H   0  0  0  0  0  0  0  0  0  0  0  0
   35.6480   19.3480   32.7150 H   0  0  0  0  0  0  0  0  0  0  0  0
   34.3230   19.3790   31.4790 H   0  0  0  0  0  0  0  0  0  0  0  0
   36.8430   19.0060   30.6920 H   0  0  0  0  0  0  0  0  0  0  0  0
   35.7460   20.0900   29.7940 H   0  0  0  0  0  0  0  0  0  0  0  0
   37.8720   20.9180   31.7480 H   0  0  0  0  0  0  0  0  0  0  0  0
   37.4110   21.6980   30.1570 H   0  0  0  0  0  0  0  0  0  0  0  0
   36.2620   27.7070   31.5320 C   0  0  0  0  0  0  0  0  0  0  0  0
   36.3050   28.1170   30.2150 F   0  0  0  0  0  0  0  0  0  0  0  0
   35.0680   28.1780   32.0760 F   0  0  0  0  0  0  0  0  0  0  0  0
   37.2660   28.2000   32.3150 F   0  0  0  0  0  0  0  0  0  0  0  0
  1  6  1  0  0  0  0
  1 12  1  0  0  0  0
  2  1  2  0  0  0  0
  3  4  2  0  0  0  0
  3  2  1  0  0  0  0
  4  5  1  0  0  0  0
  5  7  1  0  0  0  0
  5  6  2  0  0  0  0
  7  8  1  0  0  0  0
  8 14  1  0  0  0  0
  9  8  1  0  0  0  0
  9 16  1  0  0  0  0
 10 11  1  0  0  0  0
 10  9  1  0  0  0  0
 11  7  1  0  0  0  0
 11 20  1  0  0  0  0
 13  3  1  0  0  0  0
 15  8  1  0  0  0  0
 17  9  1  0  0  0  0
 18 10  1  0  0  0  0
 19 10  1  0  0  0  0
 21 11  1  0  0  0  0
 22  2  1  0  0  0  0
 22 24  1  0  0  0  0
 22 25  1  0  0  0  0
 23 22  1  0  0  0  0
M  END
>  <minimizedAffinity>
-4.29675817

$$$$

 OpenBabel03272510073D

 25 26  0  0  0  0  0  0  0  0999 V2000
   37.1900   21.9350   33.5740 C   0  0  0  0  0  0  0  0  0  0  0  0
   36.4760   22.2190   32.3810 C   0  0  0  0  0  0  0  0  0  0  0  0
   36.5460   23.5190   31.8700 C   0  0  0  0  0  0  0  0  0  0  0  0
   37.2920   24.4230   32.5460 N   0  0  0  0  0  0  0  0  0  0  0  0
   37.9550   24.1250   33.6690 C   0  0  0  0  0  0  0  0  0  0  0  0
   37.9110   22.8970   34.1860 N   0  0  0  0  0  0  0  0  0  0  0  0
   38.7210   25.1770   34.3050 N   0  0  0  0  0  0  0  0  0  0  0  0
   39.8190   25.8750   33.6830 C   0  0  0  0  0  0  0  0  0  0  0  0
   40.1320   26.9890   34.6160 C   0  0  0  0  0  0  0  0  0  0  0  0
   39.0000   27.0520   35.6080 C   0  0  0  0  0  0  0  0  0  0  0  0
   38.4780   25.6650   35.6630 C   0  0  0  0  0  0  0  0  0  0  0  0
   37.1380   20.9210   33.9760 H   0  0  0  0  0  0  0  0  0  0  0  0
   36.0070   23.7560   30.9590 H   0  0  0  0  0  0  0  0  0  0  0  0
   40.6690   25.2020   33.4770 H   0  0  0  0  0  0  0  0  0  0  0  0
   39.4150   26.3320   32.7380 H   0  0  0  0  0  0  0  0  0  0  0  0
   41.0530   26.7160   35.1710 H   0  0  0  0  0  0  0  0  0  0  0  0
   40.2530   27.9710   34.1360 H   0  0  0  0  0  0  0  0  0  0  0  0
   39.3010   27.4830   36.5790 H   0  0  0  0  0  0  0  0  0  0  0  0
   38.2060   27.7080   35.1890 H   0  0  0  0  0  0  0  0  0  0  0  0
   39.0170   25.0900   36.4200 H   0  0  0  0  0  0  0  0  0  0  0  0
   37.3730   25.6050   35.8000 H   0  0  0  0  0  0  0  0  0  0  0  0
   35.6840   21.1630   31.7090 C   0  0  0  0  0  0  0  0  0  0  0  0
   34.6400   20.8050   32.5350 F   0  0  0  0  0  0  0  0  0  0  0  0
   35.1320   21.7320   30.5620 F   0  0  0  0  0  0  0  0  0  0  0  0
   36.4620   20.1220   31.2890 F   0  0  0  0  0  0  0  0  0  0  0  0
  1 12  1  0  0  0  0
  1  6  1  0  0  0  0
  2  1  2  0  0  0  0
  3  2  1  0  0  0  0
  3  4  2  0  0  0  0
  4  5  1  0  0  0  0
  5  6  2  0  0  0  0
  5  7  1  0  0  0  0
  7 11  1  0  0  0  0
  8  7  1  0  0  0  0
  8  9  1  0  0  0  0
  9 16  1  0  0  0  0
  9 10  1  0  0  0  0
 10 11  1  0  0  0  0
 10 18  1  0  0  0  0
 11 21  1  0  0  0  0
 11 20  1  0  0  0  0
 13  3  1  0  0  0  0
 14  8  1  0  0  0  0
 15  8  1  0  0  0  0
 17  9  1  0  0  0  0
 19 10  1  0  0  0  0
 22  2  1  0  0  0  0
 22 23  1  0  0  0  0
 24 22  1  0  0  0  0
 25 22  1  0  0  0  0
M  END
>  <minimizedAffinity>
-4.2816124

$$$$
