
 OpenBabel03272508183D

 20 21  0  0  0  0  0  0  0  0999 V2000
   38.3920   24.5220   35.5720 C   0  0  0  0  0  0  0  0  0  0  0  0
   38.1160   23.5470   36.5400 C   0  0  0  0  0  0  0  0  0  0  0  0
   37.7040   22.3100   36.0140 C   0  0  0  0  0  0  0  0  0  0  0  0
   37.6040   22.1420   34.6730 N   0  0  0  0  0  0  0  0  0  0  0  0
   37.8810   23.1110   33.7770 C   0  0  0  0  0  0  0  0  0  0  0  0
   38.2790   24.3170   34.2320 N   0  0  0  0  0  0  0  0  0  0  0  0
   37.4670   21.4950   36.7030 H   0  0  0  0  0  0  0  0  0  0  0  0
   37.8040   22.9800   32.7090 H   0  0  0  0  0  0  0  0  0  0  0  0
   38.9260   25.8290   36.1210 C   0  0  0  0  0  0  0  0  0  0  0  0
   39.3920   26.8590   35.2310 C   0  0  0  0  0  0  0  0  0  0  0  0
   37.9790   26.9940   35.7390 C   0  0  0  0  0  0  0  0  0  0  0  0
   39.0790   25.8450   37.2220 H   0  0  0  0  0  0  0  0  0  0  0  0
   39.5380   26.5310   34.1570 H   0  0  0  0  0  0  0  0  0  0  0  0
   40.1690   27.6090   35.4900 H   0  0  0  0  0  0  0  0  0  0  0  0
   37.8320   27.8200   36.4250 H   0  0  0  0  0  0  0  0  0  0  0  0
   37.2150   26.7820   34.9980 H   0  0  0  0  0  0  0  0  0  0  0  0
   38.2370   23.7500   37.9790 C   0  0  0  0  0  0  0  0  0  0  0  0
   37.8240   24.9830   38.4260 F   0  0  0  0  0  0  0  0  0  0  0  0
   37.3700   22.8460   38.6150 F   0  0  0  0  0  0  0  0  0  0  0  0
   39.4940   23.3940   38.4070 F   0  0  0  0  0  0  0  0  0  0  0  0
  1  9  1  0  0  0  0
  1  2  1  0  0  0  0
  2 17  1  0  0  0  0
  3  2  2  0  0  0  0
  3  7  1  0  0  0  0
  4  3  1  0  0  0  0
  5  6  1  0  0  0  0
  5  4  2  0  0  0  0
  6  1  2  0  0  0  0
  8  5  1  0  0  0  0
  9 12  1  0  0  0  0
 10 14  1  0  0  0  0
 10 11  1  0  0  0  0
 10  9  1  0  0  0  0
 11  9  1  0  0  0  0
 11 15  1  0  0  0  0
 13 10  1  0  0  0  0
 16 11  1  0  0  0  0
 17 20  1  0  0  0  0
 17 18  1  0  0  0  0
 17 19  1  0  0  0  0
M  END
>  <minimizedAffinity>
-4.2929225

$$$$

 OpenBabel03272508183D

 20 21  0  0  0  0  0  0  0  0999 V2000
   39.4830   23.3790   36.3500 C   0  0  0  0  0  0  0  0  0  0  0  0
   38.5180   24.0510   37.1140 C   0  0  0  0  0  0  0  0  0  0  0  0
   37.7480   24.9760   36.3870 C   0  0  0  0  0  0  0  0  0  0  0  0
   37.9700   25.1530   35.0620 N   0  0  0  0  0  0  0  0  0  0  0  0
   38.9120   24.4820   34.3670 C   0  0  0  0  0  0  0  0  0  0  0  0
   39.6790   23.5840   35.0200 N   0  0  0  0  0  0  0  0  0  0  0  0
   36.9730   25.5440   36.9090 H   0  0  0  0  0  0  0  0  0  0  0  0
   39.0900   24.6200   33.3130 H   0  0  0  0  0  0  0  0  0  0  0  0
   40.2570   22.3140   37.1000 C   0  0  0  0  0  0  0  0  0  0  0  0
   41.2330   21.5050   36.4180 C   0  0  0  0  0  0  0  0  0  0  0  0
   41.7560   22.6990   37.1760 C   0  0  0  0  0  0  0  0  0  0  0  0
   39.8920   22.1090   38.1300 H   0  0  0  0  0  0  0  0  0  0  0  0
   41.2000   21.5690   35.2880 H   0  0  0  0  0  0  0  0  0  0  0  0
   41.5090   20.4710   36.7140 H   0  0  0  0  0  0  0  0  0  0  0  0
   42.3350   22.4460   38.0550 H   0  0  0  0  0  0  0  0  0  0  0  0
   42.0840   23.5190   36.5470 H   0  0  0  0  0  0  0  0  0  0  0  0
   38.2940   23.8390   38.5380 C   0  0  0  0  0  0  0  0  0  0  0  0
   39.4360   23.7630   39.2990 F   0  0  0  0  0  0  0  0  0  0  0  0
   37.6210   24.9650   39.0400 F   0  0  0  0  0  0  0  0  0  0  0  0
   37.4230   22.7930   38.7330 F   0  0  0  0  0  0  0  0  0  0  0  0
  1  9  1  0  0  0  0
  1  2  1  0  0  0  0
  2 17  1  0  0  0  0
  3  7  1  0  0  0  0
  3  2  2  0  0  0  0
  4  3  1  0  0  0  0
  5  6  1  0  0  0  0
  5  4  2  0  0  0  0
  6  1  2  0  0  0  0
  8  5  1  0  0  0  0
  9 11  1  0  0  0  0
  9 12  1  0  0  0  0
 10 14  1  0  0  0  0
 10  9  1  0  0  0  0
 10 11  1  0  0  0  0
 11 15  1  0  0  0  0
 13 10  1  0  0  0  0
 16 11  1  0  0  0  0
 17 20  1  0  0  0  0
 17 19  1  0  0  0  0
 17 18  1  0  0  0  0
M  END
>  <minimizedAffinity>
-4.19070625

$$$$

 OpenBabel03272508183D

 20 21  0  0  0  0  0  0  0  0999 V2000
   39.1900   24.8890   35.8750 C   0  0  0  0  0  0  0  0  0  0  0  0
   39.0550   23.8700   36.8280 C   0  0  0  0  0  0  0  0  0  0  0  0
   40.0030   22.8380   36.7080 C   0  0  0  0  0  0  0  0  0  0  0  0
   40.9420   22.8880   35.7320 N   0  0  0  0  0  0  0  0  0  0  0  0
   41.0330   23.8920   34.8360 C   0  0  0  0  0  0  0  0  0  0  0  0
   40.1450   24.9050   34.9080 N   0  0  0  0  0  0  0  0  0  0  0  0
   39.9670   22.0030   37.4120 H   0  0  0  0  0  0  0  0  0  0  0  0
   41.7800   23.9350   34.0590 H   0  0  0  0  0  0  0  0  0  0  0  0
   38.2340   26.0510   36.0500 C   0  0  0  0  0  0  0  0  0  0  0  0
   38.4270   27.2720   35.3140 C   0  0  0  0  0  0  0  0  0  0  0  0
   37.4380   26.2880   34.7430 C   0  0  0  0  0  0  0  0  0  0  0  0
   37.5120   25.9400   36.8890 H   0  0  0  0  0  0  0  0  0  0  0  0
   39.4330   27.3670   34.8030 H   0  0  0  0  0  0  0  0  0  0  0  0
   38.1020   28.2760   35.6630 H   0  0  0  0  0  0  0  0  0  0  0  0
   36.4070   26.6190   34.7890 H   0  0  0  0  0  0  0  0  0  0  0  0
   37.7850   25.7680   33.8560 H   0  0  0  0  0  0  0  0  0  0  0  0
   38.0400   23.8410   37.8740 C   0  0  0  0  0  0  0  0  0  0  0  0
   36.7730   23.5330   37.4410 F   0  0  0  0  0  0  0  0  0  0  0  0
   38.3630   22.7990   38.7590 F   0  0  0  0  0  0  0  0  0  0  0  0
   38.1070   24.9840   38.6350 F   0  0  0  0  0  0  0  0  0  0  0  0
  1  9  1  0  0  0  0
  1  2  1  0  0  0  0
  2 17  1  0  0  0  0
  3  2  2  0  0  0  0
  3  7  1  0  0  0  0
  4  3  1  0  0  0  0
  5  6  1  0  0  0  0
  5  4  2  0  0  0  0
  6  1  2  0  0  0  0
  8  5  1  0  0  0  0
  9 12  1  0  0  0  0
 10 14  1  0  0  0  0
 10  9  1  0  0  0  0
 11 15  1  0  0  0  0
 11 10  1  0  0  0  0
 11  9  1  0  0  0  0
 13 10  1  0  0  0  0
 16 11  1  0  0  0  0
 17 20  1  0  0  0  0
 17 19  1  0  0  0  0
 18 17  1  0  0  0  0
M  END
>  <minimizedAffinity>
-3.93635583

$$$$

 OpenBabel03272508183D

 20 21  0  0  0  0  0  0  0  0999 V2000
   38.9020   24.2020   36.2350 C   0  0  0  0  0  0  0  0  0  0  0  0
   39.0690   25.3830   35.4990 C   0  0  0  0  0  0  0  0  0  0  0  0
   40.1530   25.3570   34.6040 C   0  0  0  0  0  0  0  0  0  0  0  0
   40.9290   24.2510   34.5080 N   0  0  0  0  0  0  0  0  0  0  0  0
   40.7300   23.1350   35.2380 C   0  0  0  0  0  0  0  0  0  0  0  0
   39.7030   23.1100   36.1140 N   0  0  0  0  0  0  0  0  0  0  0  0
   40.3540   26.2410   33.9910 H   0  0  0  0  0  0  0  0  0  0  0  0
   41.3450   22.2520   35.1640 H   0  0  0  0  0  0  0  0  0  0  0  0
   37.6840   24.1820   37.1360 C   0  0  0  0  0  0  0  0  0  0  0  0
   37.5060   23.1290   38.1000 C   0  0  0  0  0  0  0  0  0  0  0  0
   38.1060   24.4150   38.6080 C   0  0  0  0  0  0  0  0  0  0  0  0
   36.8960   24.9220   36.8720 H   0  0  0  0  0  0  0  0  0  0  0  0
   38.1950   22.2410   37.9680 H   0  0  0  0  0  0  0  0  0  0  0  0
   36.5200   22.7720   38.4660 H   0  0  0  0  0  0  0  0  0  0  0  0
   37.4590   24.9730   39.2740 H   0  0  0  0  0  0  0  0  0  0  0  0
   39.1660   24.3580   38.8290 H   0  0  0  0  0  0  0  0  0  0  0  0
   38.2160   26.5600   35.6150 C   0  0  0  0  0  0  0  0  0  0  0  0
   38.2660   27.1930   36.8330 F   0  0  0  0  0  0  0  0  0  0  0  0
   38.6870   27.5230   34.7080 F   0  0  0  0  0  0  0  0  0  0  0  0
   36.9420   26.2680   35.1890 F   0  0  0  0  0  0  0  0  0  0  0  0
  1  9  1  0  0  0  0
  2 17  1  0  0  0  0
  2  1  2  0  0  0  0
  3  2  1  0  0  0  0
  4  3  2  0  0  0  0
  4  5  1  0  0  0  0
  5  6  2  0  0  0  0
  6  1  1  0  0  0  0
  7  3  1  0  0  0  0
  8  5  1  0  0  0  0
  9 10  1  0  0  0  0
  9 11  1  0  0  0  0
 10 14  1  0  0  0  0
 10 11  1  0  0  0  0
 11 16  1  0  0  0  0
 11 15  1  0  0  0  0
 12  9  1  0  0  0  0
 13 10  1  0  0  0  0
 17 18  1  0  0  0  0
 19 17  1  0  0  0  0
 20 17  1  0  0  0  0
M  END
>  <minimizedAffinity>
-3.89017439

$$$$

 OpenBabel03272508183D

 20 21  0  0  0  0  0  0  0  0999 V2000
   38.1810   24.5750   34.6230 C   0  0  0  0  0  0  0  0  0  0  0  0
   38.1980   25.2820   35.8340 C   0  0  0  0  0  0  0  0  0  0  0  0
   38.0750   24.4720   36.9770 C   0  0  0  0  0  0  0  0  0  0  0  0
   37.9570   23.1280   36.8480 N   0  0  0  0  0  0  0  0  0  0  0  0
   37.9460   22.4910   35.6590 C   0  0  0  0  0  0  0  0  0  0  0  0
   38.0590   23.2240   34.5320 N   0  0  0  0  0  0  0  0  0  0  0  0
   38.0770   24.9450   37.9620 H   0  0  0  0  0  0  0  0  0  0  0  0
   37.8530   21.4220   35.5540 H   0  0  0  0  0  0  0  0  0  0  0  0
   38.4050   25.4260   33.3890 C   0  0  0  0  0  0  0  0  0  0  0  0
   38.3040   24.8470   32.0760 C   0  0  0  0  0  0  0  0  0  0  0  0
   37.0840   25.5660   32.5920 C   0  0  0  0  0  0  0  0  0  0  0  0
   38.8070   26.4430   33.5890 H   0  0  0  0  0  0  0  0  0  0  0  0
   38.2810   23.7150   32.0540 H   0  0  0  0  0  0  0  0  0  0  0  0
   38.8530   25.2150   31.1830 H   0  0  0  0  0  0  0  0  0  0  0  0
   36.8620   26.4890   32.0710 H   0  0  0  0  0  0  0  0  0  0  0  0
   36.2670   24.9120   32.8780 H   0  0  0  0  0  0  0  0  0  0  0  0
   38.3320   26.7290   35.9470 C   0  0  0  0  0  0  0  0  0  0  0  0
   37.3260   27.4520   35.3530 F   0  0  0  0  0  0  0  0  0  0  0  0
   38.2380   27.0640   37.3080 F   0  0  0  0  0  0  0  0  0  0  0  0
   39.5960   27.1210   35.5740 F   0  0  0  0  0  0  0  0  0  0  0  0
  1  2  1  0  0  0  0
  2 17  1  0  0  0  0
  2  3  2  0  0  0  0
  3  7  1  0  0  0  0
  4  3  1  0  0  0  0
  5  4  2  0  0  0  0
  6  1  2  0  0  0  0
  6  5  1  0  0  0  0
  8  5  1  0  0  0  0
  9 12  1  0  0  0  0
  9  1  1  0  0  0  0
 10 11  1  0  0  0  0
 10  9  1  0  0  0  0
 11 16  1  0  0  0  0
 11  9  1  0  0  0  0
 13 10  1  0  0  0  0
 14 10  1  0  0  0  0
 15 11  1  0  0  0  0
 17 19  1  0  0  0  0
 18 17  1  0  0  0  0
 20 17  1  0  0  0  0
M  END
>  <minimizedAffinity>
-3.79096556

$$$$

 OpenBabel03272508183D

 20 21  0  0  0  0  0  0  0  0999 V2000
   39.3950   22.5800   35.7790 C   0  0  0  0  0  0  0  0  0  0  0  0
   39.5120   22.9370   37.1290 C   0  0  0  0  0  0  0  0  0  0  0  0
   40.7500   22.6060   37.7090 C   0  0  0  0  0  0  0  0  0  0  0  0
   41.7060   21.9950   36.9680 N   0  0  0  0  0  0  0  0  0  0  0  0
   41.5480   21.6700   35.6690 C   0  0  0  0  0  0  0  0  0  0  0  0
   40.3770   21.9660   35.0670 N   0  0  0  0  0  0  0  0  0  0  0  0
   40.9220   22.8490   38.7610 H   0  0  0  0  0  0  0  0  0  0  0  0
   42.3070   21.1850   35.0760 H   0  0  0  0  0  0  0  0  0  0  0  0
   38.1030   23.0140   35.1180 C   0  0  0  0  0  0  0  0  0  0  0  0
   37.8040   22.6150   33.7680 C   0  0  0  0  0  0  0  0  0  0  0  0
   37.1930   21.7860   34.8690 C   0  0  0  0  0  0  0  0  0  0  0  0
   37.5220   23.7760   35.6820 H   0  0  0  0  0  0  0  0  0  0  0  0
   38.6760   22.1740   33.1970 H   0  0  0  0  0  0  0  0  0  0  0  0
   37.1680   23.1960   33.0670 H   0  0  0  0  0  0  0  0  0  0  0  0
   36.1170   21.8830   34.9520 H   0  0  0  0  0  0  0  0  0  0  0  0
   37.6450   20.8070   34.9950 H   0  0  0  0  0  0  0  0  0  0  0  0
   38.4710   23.6000   37.9050 C   0  0  0  0  0  0  0  0  0  0  0  0
   37.3210   22.8660   38.0750 F   0  0  0  0  0  0  0  0  0  0  0  0
   38.9580   23.7830   39.2100 F   0  0  0  0  0  0  0  0  0  0  0  0
   38.2560   24.8710   37.4270 F   0  0  0  0  0  0  0  0  0  0  0  0
  1  2  1  0  0  0  0
  2  3  2  0  0  0  0
  2 17  1  0  0  0  0
  3  7  1  0  0  0  0
  4  3  1  0  0  0  0
  5  4  2  0  0  0  0
  6  5  1  0  0  0  0
  6  1  2  0  0  0  0
  8  5  1  0  0  0  0
  9 12  1  0  0  0  0
  9  1  1  0  0  0  0
 10 11  1  0  0  0  0
 10  9  1  0  0  0  0
 11 15  1  0  0  0  0
 11 16  1  0  0  0  0
 11  9  1  0  0  0  0
 13 10  1  0  0  0  0
 14 10  1  0  0  0  0
 17 18  1  0  0  0  0
 17 19  1  0  0  0  0
 20 17  1  0  0  0  0
M  END
>  <minimizedAffinity>
-3.74889588

$$$$

 OpenBabel03272508183D

 20 21  0  0  0  0  0  0  0  0999 V2000
   38.2180   24.1690   35.3470 C   0  0  0  0  0  0  0  0  0  0  0  0
   38.2080   24.7270   36.6330 C   0  0  0  0  0  0  0  0  0  0  0  0
   38.1390   26.1310   36.6520 C   0  0  0  0  0  0  0  0  0  0  0  0
   38.0870   26.8260   35.4900 N   0  0  0  0  0  0  0  0  0  0  0  0
   38.0990   26.2440   34.2730 C   0  0  0  0  0  0  0  0  0  0  0  0
   38.1660   24.8980   34.2010 N   0  0  0  0  0  0  0  0  0  0  0  0
   38.1290   26.6470   37.6170 H   0  0  0  0  0  0  0  0  0  0  0  0
   38.0570   26.7940   33.3460 H   0  0  0  0  0  0  0  0  0  0  0  0
   38.1980   22.6540   35.3120 C   0  0  0  0  0  0  0  0  0  0  0  0
   38.3500   21.9510   34.0670 C   0  0  0  0  0  0  0  0  0  0  0  0
   39.5910   22.1130   34.9060 C   0  0  0  0  0  0  0  0  0  0  0  0
   37.8950   22.1690   36.2660 H   0  0  0  0  0  0  0  0  0  0  0  0
   38.2500   22.5940   33.1400 H   0  0  0  0  0  0  0  0  0  0  0  0
   37.9260   20.9460   33.8560 H   0  0  0  0  0  0  0  0  0  0  0  0
   39.9590   21.1890   35.3350 H   0  0  0  0  0  0  0  0  0  0  0  0
   40.3030   22.8330   34.5170 H   0  0  0  0  0  0  0  0  0  0  0  0
   38.2580   23.9580   37.8710 C   0  0  0  0  0  0  0  0  0  0  0  0
   39.4640   23.3490   38.1240 F   0  0  0  0  0  0  0  0  0  0  0  0
   38.0950   24.8550   38.9400 F   0  0  0  0  0  0  0  0  0  0  0  0
   37.1770   23.1130   37.9510 F   0  0  0  0  0  0  0  0  0  0  0  0
  1  2  1  0  0  0  0
  2  3  2  0  0  0  0
  2 17  1  0  0  0  0
  3  7  1  0  0  0  0
  4  3  1  0  0  0  0
  5  4  2  0  0  0  0
  6  5  1  0  0  0  0
  6  1  2  0  0  0  0
  8  5  1  0  0  0  0
  9  1  1  0  0  0  0
  9 12  1  0  0  0  0
 10 11  1  0  0  0  0
 10  9  1  0  0  0  0
 11  9  1  0  0  0  0
 11 15  1  0  0  0  0
 13 10  1  0  0  0  0
 14 10  1  0  0  0  0
 16 11  1  0  0  0  0
 17 20  1  0  0  0  0
 17 18  1  0  0  0  0
 17 19  1  0  0  0  0
M  END
>  <minimizedAffinity>
-3.7336731

$$$$

 OpenBabel03272508183D

 20 21  0  0  0  0  0  0  0  0999 V2000
   39.6650   24.7180   35.3510 C   0  0  0  0  0  0  0  0  0  0  0  0
   39.4000   26.0940   35.3080 C   0  0  0  0  0  0  0  0  0  0  0  0
   40.4120   26.8580   34.7010 C   0  0  0  0  0  0  0  0  0  0  0  0
   41.5240   26.2520   34.2170 N   0  0  0  0  0  0  0  0  0  0  0  0
   41.7350   24.9210   34.2810 C   0  0  0  0  0  0  0  0  0  0  0  0
   40.7940   24.1440   34.8560 N   0  0  0  0  0  0  0  0  0  0  0  0
   40.2850   27.9410   34.6280 H   0  0  0  0  0  0  0  0  0  0  0  0
   42.6180   24.4360   33.8960 H   0  0  0  0  0  0  0  0  0  0  0  0
   38.5420   23.8730   35.9190 C   0  0  0  0  0  0  0  0  0  0  0  0
   38.7110   22.4550   36.0890 C   0  0  0  0  0  0  0  0  0  0  0  0
   38.9460   23.3130   37.3050 C   0  0  0  0  0  0  0  0  0  0  0  0
   37.5670   24.3980   36.0200 H   0  0  0  0  0  0  0  0  0  0  0  0
   39.6160   22.0160   35.5690 H   0  0  0  0  0  0  0  0  0  0  0  0
   37.8820   21.7150   36.0600 H   0  0  0  0  0  0  0  0  0  0  0  0
   38.1980   23.1970   38.0810 H   0  0  0  0  0  0  0  0  0  0  0  0
   39.9880   23.4110   37.5890 H   0  0  0  0  0  0  0  0  0  0  0  0
   38.1930   26.7230   35.8300 C   0  0  0  0  0  0  0  0  0  0  0  0
   37.0160   26.1390   35.4260 F   0  0  0  0  0  0  0  0  0  0  0  0
   38.1940   26.5630   37.2260 F   0  0  0  0  0  0  0  0  0  0  0  0
   38.2400   28.0820   35.6310 F   0  0  0  0  0  0  0  0  0  0  0  0
  1  9  1  0  0  0  0
  2  1  1  0  0  0  0
  2 17  1  0  0  0  0
  3  2  2  0  0  0  0
  4  5  2  0  0  0  0
  4  3  1  0  0  0  0
  5  6  1  0  0  0  0
  6  1  2  0  0  0  0
  7  3  1  0  0  0  0
  8  5  1  0  0  0  0
  9 12  1  0  0  0  0
  9 10  1  0  0  0  0
  9 11  1  0  0  0  0
 10 11  1  0  0  0  0
 11 16  1  0  0  0  0
 11 15  1  0  0  0  0
 13 10  1  0  0  0  0
 14 10  1  0  0  0  0
 17 19  1  0  0  0  0
 18 17  1  0  0  0  0
 20 17  1  0  0  0  0
M  END
>  <minimizedAffinity>
-3.72424793

$$$$

 OpenBabel03272508183D

 20 21  0  0  0  0  0  0  0  0999 V2000
   38.3040   24.6990   34.4550 C   0  0  0  0  0  0  0  0  0  0  0  0
   38.0230   26.0630   34.6140 C   0  0  0  0  0  0  0  0  0  0  0  0
   37.1940   26.6010   33.6130 C   0  0  0  0  0  0  0  0  0  0  0  0
   36.7390   25.8120   32.6110 N   0  0  0  0  0  0  0  0  0  0  0  0
   37.0360   24.5010   32.5000 C   0  0  0  0  0  0  0  0  0  0  0  0
   37.8300   23.9370   33.4340 N   0  0  0  0  0  0  0  0  0  0  0  0
   36.9280   27.6610   33.6610 H   0  0  0  0  0  0  0  0  0  0  0  0
   36.6740   23.8700   31.7040 H   0  0  0  0  0  0  0  0  0  0  0  0
   39.1200   24.0850   35.5750 C   0  0  0  0  0  0  0  0  0  0  0  0
   39.6360   22.7470   35.4540 C   0  0  0  0  0  0  0  0  0  0  0  0
   40.5820   23.8700   35.1130 C   0  0  0  0  0  0  0  0  0  0  0  0
   39.1300   24.6700   36.5210 H   0  0  0  0  0  0  0  0  0  0  0  0
   39.2020   22.1440   34.6000 H   0  0  0  0  0  0  0  0  0  0  0  0
   39.8340   22.0700   36.3120 H   0  0  0  0  0  0  0  0  0  0  0  0
   41.3960   23.9920   35.8180 H   0  0  0  0  0  0  0  0  0  0  0  0
   40.7830   23.9800   34.0530 H   0  0  0  0  0  0  0  0  0  0  0  0
   38.5210   26.8910   35.7050 C   0  0  0  0  0  0  0  0  0  0  0  0
   39.8520   27.2220   35.6200 F   0  0  0  0  0  0  0  0  0  0  0  0
   37.8550   28.1260   35.6450 F   0  0  0  0  0  0  0  0  0  0  0  0
   38.1560   26.3520   36.9160 F   0  0  0  0  0  0  0  0  0  0  0  0
  1  2  1  0  0  0  0
  1  9  1  0  0  0  0
  2 17  1  0  0  0  0
  3  7  1  0  0  0  0
  3  2  2  0  0  0  0
  4  3  1  0  0  0  0
  5  4  2  0  0  0  0
  5  6  1  0  0  0  0
  6  1  2  0  0  0  0
  8  5  1  0  0  0  0
  9 12  1  0  0  0  0
 10  9  1  0  0  0  0
 10 14  1  0  0  0  0
 11 10  1  0  0  0  0
 11  9  1  0  0  0  0
 11 15  1  0  0  0  0
 13 10  1  0  0  0  0
 16 11  1  0  0  0  0
 17 20  1  0  0  0  0
 18 17  1  0  0  0  0
 19 17  1  0  0  0  0
M  END
>  <minimizedAffinity>
-3.71559548

$$$$
