
 OpenBabel03272507243D

 25 26  0  0  1  0  0  0  0  0999 V2000
   38.7550   21.9380   35.1110 C   0  0  0  0  0  0  0  0  0  0  0  0
   38.0430   22.9400   34.4340 C   0  0  0  0  0  0  0  0  0  0  0  0
   38.3640   24.2820   34.6800 C   0  0  0  0  0  0  0  0  0  0  0  0
   39.3580   24.5350   35.5700 N   0  0  0  0  0  0  0  0  0  0  0  0
   40.0340   23.5470   36.2140 C   0  0  0  0  0  0  0  0  0  0  0  0
   39.7240   22.2610   35.9770 N   0  0  0  0  0  0  0  0  0  0  0  0
   37.6930   25.3370   34.0360 N   0  0  0  0  0  0  0  0  0  0  0  0
   37.0930   25.2320   32.7070 C   0  0  0  0  0  0  0  0  0  0  0  0
   36.6370   26.6190   32.3530 C   0  0  0  0  0  0  0  0  0  0  0  0
   37.5700   27.4500   33.1930 C   0  0  0  0  0  0  0  0  0  0  0  0
   37.4600   26.6520   34.4980 C   0  0  2  0  0  0  0  0  0  0  0  0
   38.5240   20.9000   34.9370 H   0  0  0  0  0  0  0  0  0  0  0  0
   37.2440   22.6900   33.7210 H   0  0  0  0  0  0  0  0  0  0  0  0
   40.7860   23.9500   36.8810 H   0  0  0  0  0  0  0  0  0  0  0  0
   36.1970   24.5960   32.8310 H   0  0  0  0  0  0  0  0  0  0  0  0
   37.7920   24.8030   31.9650 H   0  0  0  0  0  0  0  0  0  0  0  0
   36.7320   26.8490   31.2750 H   0  0  0  0  0  0  0  0  0  0  0  0
   35.6030   26.8320   32.6900 H   0  0  0  0  0  0  0  0  0  0  0  0
   37.2280   28.4940   33.3150 H   0  0  0  0  0  0  0  0  0  0  0  0
   38.5930   27.3490   32.8080 H   0  0  0  0  0  0  0  0  0  0  0  0
   36.4120   26.7140   34.8800 H   0  0  0  0  0  0  0  0  0  0  0  0
   38.3370   27.1900   35.5610 C   0  0  0  0  0  0  0  0  0  0  0  0
   37.8970   28.4970   35.8210 F   0  0  0  0  0  0  0  0  0  0  0  0
   39.6600   27.2680   35.2830 F   0  0  0  0  0  0  0  0  0  0  0  0
   38.0310   26.5000   36.7300 F   0  0  0  0  0  0  0  0  0  0  0  0
  1  6  1  0  0  0  0
  2  3  1  0  0  0  0
  2  1  2  0  0  0  0
  3  4  2  0  0  0  0
  4  5  1  0  0  0  0
  5 14  1  0  0  0  0
  6  5  2  0  0  0  0
  7 11  1  0  0  0  0
  7  3  1  0  0  0  0
  8 15  1  0  0  0  0
  8  7  1  0  0  0  0
  9 18  1  0  0  0  0
  9  8  1  0  0  0  0
  9 10  1  0  0  0  0
 10 19  1  0  0  0  0
 10 11  1  0  0  0  0
 11 21  1  1  0  0  0
 11 22  1  0  0  0  0
 12  1  1  0  0  0  0
 13  2  1  0  0  0  0
 16  8  1  0  0  0  0
 17  9  1  0  0  0  0
 20 10  1  0  0  0  0
 22 23  1  0  0  0  0
 22 25  1  0  0  0  0
 24 22  1  0  0  0  0
M  END
>  <minimizedAffinity>
-4.27413893

$$$$

 OpenBabel03272507243D

 25 26  0  0  1  0  0  0  0  0999 V2000
   37.2920   23.5480   31.2450 C   0  0  0  0  0  0  0  0  0  0  0  0
   37.7820   23.3510   32.5450 C   0  0  0  0  0  0  0  0  0  0  0  0
   37.6850   24.4010   33.4700 C   0  0  0  0  0  0  0  0  0  0  0  0
   37.1150   25.5590   33.0460 N   0  0  0  0  0  0  0  0  0  0  0  0
   36.6480   25.7240   31.7820 C   0  0  0  0  0  0  0  0  0  0  0  0
   36.7410   24.7180   30.8960 N   0  0  0  0  0  0  0  0  0  0  0  0
   38.1540   24.2740   34.7900 N   0  0  0  0  0  0  0  0  0  0  0  0
   38.2090   23.0080   35.5180 C   0  0  0  0  0  0  0  0  0  0  0  0
   38.6140   23.3600   36.9220 C   0  0  0  0  0  0  0  0  0  0  0  0
   38.1290   24.7820   37.0110 C   0  0  0  0  0  0  0  0  0  0  0  0
   38.6480   25.2760   35.6550 C   0  0  2  0  0  0  0  0  0  0  0  0
   37.3560   22.7540   30.5190 H   0  0  0  0  0  0  0  0  0  0  0  0
   38.2360   22.3970   32.8470 H   0  0  0  0  0  0  0  0  0  0  0  0
   36.2310   26.7140   31.6380 H   0  0  0  0  0  0  0  0  0  0  0  0
   39.0320   22.4300   35.0570 H   0  0  0  0  0  0  0  0  0  0  0  0
   37.2520   22.4540   35.4690 H   0  0  0  0  0  0  0  0  0  0  0  0
   38.1450   22.7120   37.6870 H   0  0  0  0  0  0  0  0  0  0  0  0
   39.7130   23.3710   37.0640 H   0  0  0  0  0  0  0  0  0  0  0  0
   38.5760   25.3390   37.8540 H   0  0  0  0  0  0  0  0  0  0  0  0
   37.0310   24.7930   36.9890 H   0  0  0  0  0  0  0  0  0  0  0  0
   39.7650   25.2310   35.6500 H   0  0  0  0  0  0  0  0  0  0  0  0
   38.2740   26.6830   35.3890 C   0  0  0  0  0  0  0  0  0  0  0  0
   38.7600   27.4380   36.4670 F   0  0  0  0  0  0  0  0  0  0  0  0
   36.9520   26.9560   35.2810 F   0  0  0  0  0  0  0  0  0  0  0  0
   39.0430   27.1120   34.3110 F   0  0  0  0  0  0  0  0  0  0  0  0
  1  2  1  0  0  0  0
  2 13  1  0  0  0  0
  2  3  2  0  0  0  0
  3  7  1  0  0  0  0
  4  3  1  0  0  0  0
  5  4  2  0  0  0  0
  6  1  2  0  0  0  0
  6  5  1  0  0  0  0
  7  8  1  0  0  0  0
  7 11  1  0  0  0  0
  8  9  1  0  0  0  0
  9 10  1  0  0  0  0
  9 18  1  0  0  0  0
  9 17  1  0  0  0  0
 10 19  1  0  0  0  0
 11 21  1  1  0  0  0
 11 10  1  0  0  0  0
 12  1  1  0  0  0  0
 14  5  1  0  0  0  0
 15  8  1  0  0  0  0
 16  8  1  0  0  0  0
 20 10  1  0  0  0  0
 22 11  1  0  0  0  0
 22 23  1  0  0  0  0
 24 22  1  0  0  0  0
 25 22  1  0  0  0  0
M  END
>  <minimizedAffinity>
-4.24767685

$$$$

 OpenBabel03272507243D

 25 26  0  0  1  0  0  0  0  0999 V2000
   42.3810   21.8180   36.2340 C   0  0  0  0  0  0  0  0  0  0  0  0
   42.0880   22.9860   35.5140 C   0  0  0  0  0  0  0  0  0  0  0  0
   40.9280   23.7060   35.8360 C   0  0  0  0  0  0  0  0  0  0  0  0
   40.1490   23.2230   36.8370 N   0  0  0  0  0  0  0  0  0  0  0  0
   40.4540   22.0890   37.5200 C   0  0  0  0  0  0  0  0  0  0  0  0
   41.5660   21.4000   37.2110 N   0  0  0  0  0  0  0  0  0  0  0  0
   40.5730   24.8850   35.1560 N   0  0  0  0  0  0  0  0  0  0  0  0
   41.5380   25.7970   34.5440 C   0  0  0  0  0  0  0  0  0  0  0  0
   40.7440   26.9850   34.0820 C   0  0  0  0  0  0  0  0  0  0  0  0
   39.5690   26.9260   35.0210 C   0  0  0  0  0  0  0  0  0  0  0  0
   39.2860   25.4220   34.9250 C   0  0  2  0  0  0  0  0  0  0  0  0
   43.2670   21.2500   36.0030 H   0  0  0  0  0  0  0  0  0  0  0  0
   42.7470   23.3420   34.7090 H   0  0  0  0  0  0  0  0  0  0  0  0
   39.7130   21.8690   38.2790 H   0  0  0  0  0  0  0  0  0  0  0  0
   41.9230   25.2710   33.6500 H   0  0  0  0  0  0  0  0  0  0  0  0
   42.3580   26.0660   35.2370 H   0  0  0  0  0  0  0  0  0  0  0  0
   41.2960   27.9400   34.1660 H   0  0  0  0  0  0  0  0  0  0  0  0
   40.3540   26.8690   33.0500 H   0  0  0  0  0  0  0  0  0  0  0  0
   38.7110   27.5320   34.6780 H   0  0  0  0  0  0  0  0  0  0  0  0
   39.9070   27.1520   36.0410 H   0  0  0  0  0  0  0  0  0  0  0  0
   38.9790   25.1710   33.8800 H   0  0  0  0  0  0  0  0  0  0  0  0
   38.1790   25.0000   35.8110 C   0  0  0  0  0  0  0  0  0  0  0  0
   37.0790   25.8120   35.4920 F   0  0  0  0  0  0  0  0  0  0  0  0
   38.3820   25.1180   37.1450 F   0  0  0  0  0  0  0  0  0  0  0  0
   37.7850   23.7310   35.3960 F   0  0  0  0  0  0  0  0  0  0  0  0
  1  6  1  0  0  0  0
  2  3  1  0  0  0  0
  2  1  2  0  0  0  0
  3  4  2  0  0  0  0
  4  5  1  0  0  0  0
  5 14  1  0  0  0  0
  6  5  2  0  0  0  0
  7  3  1  0  0  0  0
  8  7  1  0  0  0  0
  8 16  1  0  0  0  0
  9 17  1  0  0  0  0
  9  8  1  0  0  0  0
  9 10  1  0  0  0  0
 10 20  1  0  0  0  0
 11 21  1  6  0  0  0
 11 10  1  0  0  0  0
 11  7  1  0  0  0  0
 11 22  1  0  0  0  0
 12  1  1  0  0  0  0
 13  2  1  0  0  0  0
 15  8  1  0  0  0  0
 18  9  1  0  0  0  0
 19 10  1  0  0  0  0
 22 24  1  0  0  0  0
 23 22  1  0  0  0  0
 25 22  1  0  0  0  0
M  END
>  <minimizedAffinity>
-4.23241806

$$$$

 OpenBabel03272507243D

 25 26  0  0  1  0  0  0  0  0999 V2000
   36.6690   20.9560   33.5410 C   0  0  0  0  0  0  0  0  0  0  0  0
   37.8460   21.5280   34.0470 C   0  0  0  0  0  0  0  0  0  0  0  0
   37.8830   21.9190   35.3930 C   0  0  0  0  0  0  0  0  0  0  0  0
   36.7630   21.7160   36.1350 N   0  0  0  0  0  0  0  0  0  0  0  0
   35.6350   21.1600   35.6210 C   0  0  0  0  0  0  0  0  0  0  0  0
   35.6010   20.7860   34.3310 N   0  0  0  0  0  0  0  0  0  0  0  0
   39.0280   22.4980   35.9680 N   0  0  0  0  0  0  0  0  0  0  0  0
   40.3930   22.2270   35.5180 C   0  0  0  0  0  0  0  0  0  0  0  0
   41.2940   22.9180   36.5030 C   0  0  0  0  0  0  0  0  0  0  0  0
   40.4100   22.9550   37.7210 C   0  0  0  0  0  0  0  0  0  0  0  0
   39.1160   23.4150   37.0390 C   0  0  2  0  0  0  0  0  0  0  0  0
   36.6190   20.6490   32.5090 H   0  0  0  0  0  0  0  0  0  0  0  0
   38.7300   21.6740   33.4100 H   0  0  0  0  0  0  0  0  0  0  0  0
   34.8540   21.0830   36.3680 H   0  0  0  0  0  0  0  0  0  0  0  0
   40.4950   22.7350   34.5420 H   0  0  0  0  0  0  0  0  0  0  0  0
   40.5970   21.1430   35.4310 H   0  0  0  0  0  0  0  0  0  0  0  0
   42.2370   22.3710   36.6890 H   0  0  0  0  0  0  0  0  0  0  0  0
   41.5180   23.9650   36.2190 H   0  0  0  0  0  0  0  0  0  0  0  0
   40.7560   23.6760   38.4830 H   0  0  0  0  0  0  0  0  0  0  0  0
   40.2630   21.9330   38.0940 H   0  0  0  0  0  0  0  0  0  0  0  0
   39.2650   24.4390   36.6190 H   0  0  0  0  0  0  0  0  0  0  0  0
   37.9820   23.5000   37.9860 C   0  0  0  0  0  0  0  0  0  0  0  0
   38.3730   24.3860   39.0020 F   0  0  0  0  0  0  0  0  0  0  0  0
   37.6010   22.3500   38.5920 F   0  0  0  0  0  0  0  0  0  0  0  0
   36.9560   24.1780   37.3330 F   0  0  0  0  0  0  0  0  0  0  0  0
  1  2  2  0  0  0  0
  1  6  1  0  0  0  0
  2  3  1  0  0  0  0
  3  7  1  0  0  0  0
  3  4  2  0  0  0  0
  5  4  1  0  0  0  0
  5 14  1  0  0  0  0
  6  5  2  0  0  0  0
  7 11  1  0  0  0  0
  8  7  1  0  0  0  0
  8  9  1  0  0  0  0
  9 17  1  0  0  0  0
  9 10  1  0  0  0  0
 10 20  1  0  0  0  0
 10 19  1  0  0  0  0
 11 21  1  6  0  0  0
 11 10  1  0  0  0  0
 11 22  1  0  0  0  0
 12  1  1  0  0  0  0
 13  2  1  0  0  0  0
 15  8  1  0  0  0  0
 16  8  1  0  0  0  0
 18  9  1  0  0  0  0
 22 24  1  0  0  0  0
 22 23  1  0  0  0  0
 25 22  1  0  0  0  0
M  END
>  <minimizedAffinity>
-4.18892527

$$$$

 OpenBabel03272507243D

 25 26  0  0  1  0  0  0  0  0999 V2000
   37.9210   22.8110   31.8720 C   0  0  0  0  0  0  0  0  0  0  0  0
   37.6950   24.0210   32.5460 C   0  0  0  0  0  0  0  0  0  0  0  0
   38.0930   24.1330   33.8860 C   0  0  0  0  0  0  0  0  0  0  0  0
   38.6810   23.0500   34.4580 N   0  0  0  0  0  0  0  0  0  0  0  0
   38.8890   21.8890   33.7840 C   0  0  0  0  0  0  0  0  0  0  0  0
   38.5080   21.7830   32.5000 N   0  0  0  0  0  0  0  0  0  0  0  0
   37.8980   25.3150   34.6230 N   0  0  0  0  0  0  0  0  0  0  0  0
   37.8630   26.6510   34.0280 C   0  0  0  0  0  0  0  0  0  0  0  0
   37.7990   27.6110   35.1820 C   0  0  0  0  0  0  0  0  0  0  0  0
   38.4390   26.7930   36.2700 C   0  0  0  0  0  0  0  0  0  0  0  0
   37.7040   25.4720   36.0130 C   0  0  2  0  0  0  0  0  0  0  0  0
   37.6230   22.7030   30.8420 H   0  0  0  0  0  0  0  0  0  0  0  0
   37.2150   24.8730   32.0450 H   0  0  0  0  0  0  0  0  0  0  0  0
   39.3690   21.1470   34.4100 H   0  0  0  0  0  0  0  0  0  0  0  0
   36.9060   26.7100   33.4770 H   0  0  0  0  0  0  0  0  0  0  0  0
   38.7240   26.8340   33.3580 H   0  0  0  0  0  0  0  0  0  0  0  0
   38.3450   28.5550   34.9950 H   0  0  0  0  0  0  0  0  0  0  0  0
   36.7610   27.8370   35.4980 H   0  0  0  0  0  0  0  0  0  0  0  0
   38.2390   27.1880   37.2830 H   0  0  0  0  0  0  0  0  0  0  0  0
   39.5030   26.6500   36.0400 H   0  0  0  0  0  0  0  0  0  0  0  0
   36.6130   25.6150   36.2060 H   0  0  0  0  0  0  0  0  0  0  0  0
   38.1610   24.3900   36.9130 C   0  0  0  0  0  0  0  0  0  0  0  0
   38.0640   24.8890   38.2210 F   0  0  0  0  0  0  0  0  0  0  0  0
   39.4320   23.9530   36.7510 F   0  0  0  0  0  0  0  0  0  0  0  0
   37.1950   23.3880   36.8690 F   0  0  0  0  0  0  0  0  0  0  0  0
  1  6  2  0  0  0  0
  1  2  1  0  0  0  0
  2  3  2  0  0  0  0
  3  4  1  0  0  0  0
  3  7  1  0  0  0  0
  5 14  1  0  0  0  0
  5  4  2  0  0  0  0
  6  5  1  0  0  0  0
  7 11  1  0  0  0  0
  8  7  1  0  0  0  0
  8  9  1  0  0  0  0
  9 18  1  0  0  0  0
  9 10  1  0  0  0  0
 10 19  1  0  0  0  0
 11 21  1  1  0  0  0
 11 10  1  0  0  0  0
 11 22  1  0  0  0  0
 12  1  1  0  0  0  0
 13  2  1  0  0  0  0
 15  8  1  0  0  0  0
 16  8  1  0  0  0  0
 17  9  1  0  0  0  0
 20 10  1  0  0  0  0
 22 23  1  0  0  0  0
 24 22  1  0  0  0  0
 25 22  1  0  0  0  0
M  END
>  <minimizedAffinity>
-4.18536091

$$$$

 OpenBabel03272507243D

 25 26  0  0  1  0  0  0  0  0999 V2000
   37.2230   22.7130   32.1180 C   0  0  0  0  0  0  0  0  0  0  0  0
   37.6180   23.7410   32.9880 C   0  0  0  0  0  0  0  0  0  0  0  0
   37.0640   25.0180   32.8210 C   0  0  0  0  0  0  0  0  0  0  0  0
   36.1670   25.1850   31.8150 N   0  0  0  0  0  0  0  0  0  0  0  0
   35.8000   24.1730   30.9860 C   0  0  0  0  0  0  0  0  0  0  0  0
   36.3320   22.9500   31.1470 N   0  0  0  0  0  0  0  0  0  0  0  0
   37.4130   26.0950   33.6560 N   0  0  0  0  0  0  0  0  0  0  0  0
   37.8400   25.9440   35.0460 C   0  0  0  0  0  0  0  0  0  0  0  0
   37.9510   27.3390   35.5940 C   0  0  0  0  0  0  0  0  0  0  0  0
   36.9880   28.0740   34.7000 C   0  0  0  0  0  0  0  0  0  0  0  0
   37.4320   27.4760   33.3600 C   0  0  2  0  0  0  0  0  0  0  0  0
   37.6360   21.7230   32.2290 H   0  0  0  0  0  0  0  0  0  0  0  0
   38.3480   23.5620   33.7900 H   0  0  0  0  0  0  0  0  0  0  0  0
   35.0770   24.5040   30.2500 H   0  0  0  0  0  0  0  0  0  0  0  0
   38.8550   25.5080   35.0040 H   0  0  0  0  0  0  0  0  0  0  0  0
   37.1500   25.3030   35.6280 H   0  0  0  0  0  0  0  0  0  0  0  0
   37.6680   27.4130   36.6610 H   0  0  0  0  0  0  0  0  0  0  0  0
   38.9550   27.7830   35.4420 H   0  0  0  0  0  0  0  0  0  0  0  0
   37.1230   29.1700   34.7300 H   0  0  0  0  0  0  0  0  0  0  0  0
   35.9660   27.7350   34.9120 H   0  0  0  0  0  0  0  0  0  0  0  0
   38.4870   27.7810   33.1520 H   0  0  0  0  0  0  0  0  0  0  0  0
   36.6130   27.9640   32.2280 C   0  0  0  0  0  0  0  0  0  0  0  0
   36.6750   29.3650   32.2640 F   0  0  0  0  0  0  0  0  0  0  0  0
   35.3010   27.6280   32.2300 F   0  0  0  0  0  0  0  0  0  0  0  0
   37.2940   27.6330   31.0600 F   0  0  0  0  0  0  0  0  0  0  0  0
  1 12  1  0  0  0  0
  1  2  1  0  0  0  0
  2 13  1  0  0  0  0
  3  2  2  0  0  0  0
  3  7  1  0  0  0  0
  4  3  1  0  0  0  0
  5  6  1  0  0  0  0
  5  4  2  0  0  0  0
  6  1  2  0  0  0  0
  7  8  1  0  0  0  0
  8  9  1  0  0  0  0
  8 16  1  0  0  0  0
  9 17  1  0  0  0  0
 10 19  1  0  0  0  0
 10 20  1  0  0  0  0
 10  9  1  0  0  0  0
 11 21  1  6  0  0  0
 11  7  1  0  0  0  0
 11 10  1  0  0  0  0
 14  5  1  0  0  0  0
 15  8  1  0  0  0  0
 18  9  1  0  0  0  0
 22 24  1  0  0  0  0
 22 23  1  0  0  0  0
 22 11  1  0  0  0  0
 25 22  1  0  0  0  0
M  END
>  <minimizedAffinity>
-4.04368877

$$$$

 OpenBabel03272507243D

 25 26  0  0  1  0  0  0  0  0999 V2000
   31.4310   29.0180   34.0090 C   0  0  0  0  0  0  0  0  0  0  0  0
   31.7910   29.8980   35.0410 C   0  0  0  0  0  0  0  0  0  0  0  0
   33.0170   30.5750   34.9550 C   0  0  0  0  0  0  0  0  0  0  0  0
   33.7900   30.3340   33.8640 N   0  0  0  0  0  0  0  0  0  0  0  0
   33.4180   29.4770   32.8780 C   0  0  0  0  0  0  0  0  0  0  0  0
   32.2440   28.8290   32.9620 N   0  0  0  0  0  0  0  0  0  0  0  0
   33.4420   31.4720   35.9510 N   0  0  0  0  0  0  0  0  0  0  0  0
   32.5320   32.2490   36.7910 C   0  0  0  0  0  0  0  0  0  0  0  0
   33.4040   33.1790   37.5870 C   0  0  0  0  0  0  0  0  0  0  0  0
   34.6030   33.2900   36.6840 C   0  0  0  0  0  0  0  0  0  0  0  0
   34.7590   31.8030   36.3430 C   0  0  2  0  0  0  0  0  0  0  0  0
   30.4930   28.4880   34.0550 H   0  0  0  0  0  0  0  0  0  0  0  0
   31.1350   30.0640   35.9070 H   0  0  0  0  0  0  0  0  0  0  0  0
   34.1670   29.4200   32.0970 H   0  0  0  0  0  0  0  0  0  0  0  0
   32.0740   31.5250   37.4890 H   0  0  0  0  0  0  0  0  0  0  0  0
   31.7630   32.7780   36.1970 H   0  0  0  0  0  0  0  0  0  0  0  0
   32.9340   34.1630   37.7770 H   0  0  0  0  0  0  0  0  0  0  0  0
   33.7450   32.7370   38.5440 H   0  0  0  0  0  0  0  0  0  0  0  0
   35.4950   33.6930   37.1980 H   0  0  0  0  0  0  0  0  0  0  0  0
   34.3210   33.8290   35.7710 H   0  0  0  0  0  0  0  0  0  0  0  0
   35.0060   31.2360   37.2730 H   0  0  0  0  0  0  0  0  0  0  0  0
   35.8600   31.5590   35.3840 C   0  0  0  0  0  0  0  0  0  0  0  0
   36.9900   32.2140   35.8970 F   0  0  0  0  0  0  0  0  0  0  0  0
   35.6830   32.0090   34.1200 F   0  0  0  0  0  0  0  0  0  0  0  0
   36.1890   30.2090   35.4780 F   0  0  0  0  0  0  0  0  0  0  0  0
  1 12  1  0  0  0  0
  1  2  1  0  0  0  0
  2 13  1  0  0  0  0
  3  2  2  0  0  0  0
  3  7  1  0  0  0  0
  4  3  1  0  0  0  0
  5  6  1  0  0  0  0
  5  4  2  0  0  0  0
  6  1  2  0  0  0  0
  7 11  1  0  0  0  0
  7  8  1  0  0  0  0
  8 15  1  0  0  0  0
  8  9  1  0  0  0  0
  9 17  1  0  0  0  0
  9 18  1  0  0  0  0
 10 19  1  0  0  0  0
 10  9  1  0  0  0  0
 11 10  1  0  0  0  0
 11 21  1  1  0  0  0
 14  5  1  0  0  0  0
 16  8  1  0  0  0  0
 20 10  1  0  0  0  0
 22 25  1  0  0  0  0
 22 23  1  0  0  0  0
 22 11  1  0  0  0  0
 24 22  1  0  0  0  0
M  END
>  <minimizedAffinity>
-3.95437407

$$$$

 OpenBabel03272507243D

 25 26  0  0  1  0  0  0  0  0999 V2000
   39.1790   26.5610   34.7960 C   0  0  0  0  0  0  0  0  0  0  0  0
   40.4120   25.9040   34.9260 C   0  0  0  0  0  0  0  0  0  0  0  0
   40.4370   24.6180   35.4830 C   0  0  0  0  0  0  0  0  0  0  0  0
   39.2520   24.0790   35.8690 N   0  0  0  0  0  0  0  0  0  0  0  0
   38.0700   24.7350   35.7330 C   0  0  0  0  0  0  0  0  0  0  0  0
   38.0470   25.9680   35.1980 N   0  0  0  0  0  0  0  0  0  0  0  0
   41.6360   23.9000   35.6420 N   0  0  0  0  0  0  0  0  0  0  0  0
   42.8060   24.0630   34.7790 C   0  0  0  0  0  0  0  0  0  0  0  0
   43.7790   23.0010   35.2040 C   0  0  0  0  0  0  0  0  0  0  0  0
   42.8460   21.9750   35.7890 C   0  0  0  0  0  0  0  0  0  0  0  0
   41.9640   22.9240   36.6100 C   0  0  2  0  0  0  0  0  0  0  0  0
   39.1370   27.5510   34.3700 H   0  0  0  0  0  0  0  0  0  0  0  0
   41.3490   26.3780   34.6000 H   0  0  0  0  0  0  0  0  0  0  0  0
   37.2410   24.1410   36.0970 H   0  0  0  0  0  0  0  0  0  0  0  0
   43.2360   25.0480   35.0380 H   0  0  0  0  0  0  0  0  0  0  0  0
   42.5440   24.0080   33.7060 H   0  0  0  0  0  0  0  0  0  0  0  0
   44.3740   22.5920   34.3650 H   0  0  0  0  0  0  0  0  0  0  0  0
   44.4580   23.3370   36.0130 H   0  0  0  0  0  0  0  0  0  0  0  0
   43.3620   21.2350   36.4260 H   0  0  0  0  0  0  0  0  0  0  0  0
   42.2360   21.5390   34.9870 H   0  0  0  0  0  0  0  0  0  0  0  0
   42.5820   23.4060   37.4060 H   0  0  0  0  0  0  0  0  0  0  0  0
   40.8600   22.2140   37.2940 C   0  0  0  0  0  0  0  0  0  0  0  0
   41.4480   21.1790   38.0360 F   0  0  0  0  0  0  0  0  0  0  0  0
   39.9150   21.6470   36.5070 F   0  0  0  0  0  0  0  0  0  0  0  0
   40.3620   23.0770   38.2670 F   0  0  0  0  0  0  0  0  0  0  0  0
  1  2  2  0  0  0  0
  1  6  1  0  0  0  0
  2  3  1  0  0  0  0
  3  7  1  0  0  0  0
  3  4  2  0  0  0  0
  5  4  1  0  0  0  0
  5 14  1  0  0  0  0
  6  5  2  0  0  0  0
  7 11  1  0  0  0  0
  8 15  1  0  0  0  0
  8  9  1  0  0  0  0
  8  7  1  0  0  0  0
  9 10  1  0  0  0  0
  9 18  1  0  0  0  0
 10 19  1  0  0  0  0
 10 11  1  0  0  0  0
 11 22  1  0  0  0  0
 11 21  1  1  0  0  0
 12  1  1  0  0  0  0
 13  2  1  0  0  0  0
 16  8  1  0  0  0  0
 17  9  1  0  0  0  0
 20 10  1  0  0  0  0
 22 23  1  0  0  0  0
 22 25  1  0  0  0  0
 24 22  1  0  0  0  0
M  END
>  <minimizedAffinity>
-3.91416121

$$$$

 OpenBabel03272507243D

 25 26  0  0  1  0  0  0  0  0999 V2000
   38.4310   28.1270   30.6450 C   0  0  0  0  0  0  0  0  0  0  0  0
   39.1960   27.3300   31.5100 C   0  0  0  0  0  0  0  0  0  0  0  0
   38.6710   27.0010   32.7680 C   0  0  0  0  0  0  0  0  0  0  0  0
   37.4370   27.4780   33.0760 N   0  0  0  0  0  0  0  0  0  0  0  0
   36.7160   28.2480   32.2210 C   0  0  0  0  0  0  0  0  0  0  0  0
   37.2200   28.5640   31.0160 N   0  0  0  0  0  0  0  0  0  0  0  0
   39.3820   26.2060   33.6850 N   0  0  0  0  0  0  0  0  0  0  0  0
   40.3540   25.1840   33.2970 C   0  0  0  0  0  0  0  0  0  0  0  0
   40.7390   24.4820   34.5690 C   0  0  0  0  0  0  0  0  0  0  0  0
   39.5150   24.7250   35.4110 C   0  0  0  0  0  0  0  0  0  0  0  0
   39.3230   26.2130   35.0960 C   0  0  2  0  0  0  0  0  0  0  0  0
   38.8150   28.3920   29.6740 H   0  0  0  0  0  0  0  0  0  0  0  0
   40.1910   26.9650   31.2200 H   0  0  0  0  0  0  0  0  0  0  0  0
   35.7610   28.5290   32.6480 H   0  0  0  0  0  0  0  0  0  0  0  0
   41.2380   25.7360   32.9270 H   0  0  0  0  0  0  0  0  0  0  0  0
   39.9550   24.4980   32.5260 H   0  0  0  0  0  0  0  0  0  0  0  0
   40.9410   23.4040   34.4280 H   0  0  0  0  0  0  0  0  0  0  0  0
   41.5980   24.9590   35.0810 H   0  0  0  0  0  0  0  0  0  0  0  0
   39.6890   24.5470   36.4870 H   0  0  0  0  0  0  0  0  0  0  0  0
   38.6680   24.1680   34.9890 H   0  0  0  0  0  0  0  0  0  0  0  0
   40.1990   26.7870   35.4850 H   0  0  0  0  0  0  0  0  0  0  0  0
   38.1180   26.7740   35.7470 C   0  0  0  0  0  0  0  0  0  0  0  0
   38.2510   26.5220   37.1210 F   0  0  0  0  0  0  0  0  0  0  0  0
   36.9230   26.2650   35.3670 F   0  0  0  0  0  0  0  0  0  0  0  0
   38.2140   28.1600   35.6550 F   0  0  0  0  0  0  0  0  0  0  0  0
  1  6  2  0  0  0  0
  1  2  1  0  0  0  0
  2  3  2  0  0  0  0
  3  4  1  0  0  0  0
  3  7  1  0  0  0  0
  5 14  1  0  0  0  0
  5  4  2  0  0  0  0
  6  5  1  0  0  0  0
  7 11  1  0  0  0  0
  8  7  1  0  0  0  0
  8  9  1  0  0  0  0
  9 18  1  0  0  0  0
  9 10  1  0  0  0  0
 10 19  1  0  0  0  0
 11 10  1  0  0  0  0
 11 21  1  1  0  0  0
 11 22  1  0  0  0  0
 12  1  1  0  0  0  0
 13  2  1  0  0  0  0
 15  8  1  0  0  0  0
 16  8  1  0  0  0  0
 17  9  1  0  0  0  0
 20 10  1  0  0  0  0
 22 23  1  0  0  0  0
 24 22  1  0  0  0  0
 25 22  1  0  0  0  0
M  END
>  <minimizedAffinity>
-3.89387274

$$$$
