
 OpenBabel03272510083D

 39 42  0  0  0  0  0  0  0  0999 V2000
   35.4210   28.2440   48.8890 C   0  0  0  0  0  0  0  0  0  0  0  0
   35.4570   29.6750   48.6300 C   0  0  0  0  0  0  0  0  0  0  0  0
   34.2300   30.3600   48.4460 C   0  0  0  0  0  0  0  0  0  0  0  0
   33.0930   29.6470   48.4980 N   0  0  0  0  0  0  0  0  0  0  0  0
   33.0870   28.3190   48.7270 C   0  0  0  0  0  0  0  0  0  0  0  0
   34.2310   27.6250   48.9250 N   0  0  0  0  0  0  0  0  0  0  0  0
   31.8210   27.6220   48.6960 N   0  0  0  0  0  0  0  0  0  0  0  0
   30.7390   27.9110   49.5790 C   0  0  0  0  0  0  0  0  0  0  0  0
   29.5700   27.1610   49.0100 C   0  0  0  0  0  0  0  0  0  0  0  0
   30.0070   26.6310   47.6550 C   0  0  0  0  0  0  0  0  0  0  0  0
   31.4700   26.5360   47.7610 C   0  0  0  0  0  0  0  0  0  0  0  0
   36.3870   27.7910   49.0350 H   0  0  0  0  0  0  0  0  0  0  0  0
   34.1890   31.4030   48.2720 H   0  0  0  0  0  0  0  0  0  0  0  0
   30.5390   29.0180   49.6330 H   0  0  0  0  0  0  0  0  0  0  0  0
   30.9590   27.5460   50.5840 H   0  0  0  0  0  0  0  0  0  0  0  0
   29.2810   26.3040   49.6470 H   0  0  0  0  0  0  0  0  0  0  0  0
   28.6700   27.8090   48.8760 H   0  0  0  0  0  0  0  0  0  0  0  0
   29.5290   25.6570   47.4290 H   0  0  0  0  0  0  0  0  0  0  0  0
   29.7080   27.3250   46.8500 H   0  0  0  0  0  0  0  0  0  0  0  0
   31.9380   26.7650   46.7890 H   0  0  0  0  0  0  0  0  0  0  0  0
   31.8730   25.5610   48.1160 H   0  0  0  0  0  0  0  0  0  0  0  0
   36.6080   30.4830   48.5490 C   0  0  0  0  0  0  0  0  0  0  0  0
   37.1520   30.7830   49.7380 N   0  0  0  0  0  0  0  0  0  0  0  0
   38.2260   31.5890   49.7950 C   0  0  0  0  0  0  0  0  0  0  0  0
   38.8230   32.1420   48.7020 N   0  0  0  0  0  0  0  0  0  0  0  0
   38.2890   31.8470   47.4960 C   0  0  0  0  0  0  0  0  0  0  0  0
   38.8330   32.3180   46.3210 C   0  0  0  0  0  0  0  0  0  0  0  0
   38.3070   31.9800   45.1070 C   0  0  0  0  0  0  0  0  0  0  0  0
   37.2130   31.1530   45.1080 C   0  0  0  0  0  0  0  0  0  0  0  0
   36.6250   30.6570   46.2400 C   0  0  0  0  0  0  0  0  0  0  0  0
   37.1860   31.0200   47.4290 C   0  0  0  0  0  0  0  0  0  0  0  0
   38.7240   31.8830   50.7130 H   0  0  0  0  0  0  0  0  0  0  0  0
   39.6890   32.9610   46.4640 H   0  0  0  0  0  0  0  0  0  0  0  0
   38.8000   32.3960   44.2590 H   0  0  0  0  0  0  0  0  0  0  0  0
   36.9160   30.9820   44.0560 H   0  0  0  0  0  0  0  0  0  0  0  0
   35.4930   29.8230   45.9230 C   0  0  0  0  0  0  0  0  0  0  0  0
   35.4230   28.5160   46.0030 F   0  0  0  0  0  0  0  0  0  0  0  0
   34.3130   30.5580   45.6660 F   0  0  0  0  0  0  0  0  0  0  0  0
   35.4980   29.5820   44.4920 F   0  0  0  0  0  0  0  0  0  0  0  0
  1  6  1  0  0  0  0
  1 12  1  0  0  0  0
  2  1  2  0  0  0  0
  3  4  2  0  0  0  0
  3  2  1  0  0  0  0
  4  5  1  0  0  0  0
  5  6  2  0  0  0  0
  7  5  1  0  0  0  0
  7  8  1  0  0  0  0
  8 14  1  0  0  0  0
  8 15  1  0  0  0  0
  9  8  1  0  0  0  0
  9 16  1  0  0  0  0
 10 11  1  0  0  0  0
 10  9  1  0  0  0  0
 11 21  1  0  0  0  0
 11  7  1  0  0  0  0
 13  3  1  0  0  0  0
 17  9  1  0  0  0  0
 18 10  1  0  0  0  0
 19 10  1  0  0  0  0
 20 11  1  0  0  0  0
 22  2  1  0  0  0  0
 22 23  1  0  0  0  0
 23 24  2  0  0  0  0
 24 32  1  0  0  0  0
 25 24  1  0  0  0  0
 26 25  2  0  0  0  0
 27 33  1  0  0  0  0
 27 26  1  0  0  0  0
 28 29  1  0  0  0  0
 28 27  2  0  0  0  0
 29 30  2  0  0  0  0
 30 31  1  0  0  0  0
 31 26  1  0  0  0  0
 31 22  2  0  0  0  0
 34 28  1  0  0  0  0
 35 29  1  0  0  0  0
 36 37  1  0  0  0  0
 36 30  1  0  0  0  0
 38 36  1  0  0  0  0
 39 36  1  0  0  0  0
M  END
>  <minimizedAffinity>
-4.57181501

>  <minimizedRMSD>
1.33415008

$$$$
