
 OpenBabel03272506473D

 37 39  0  0  1  0  0  0  0  0999 V2000
   32.2500   28.7560   47.3420 C   0  0  2  0  0  0  0  0  0  0  0  0
   33.5180   28.4140   48.0670 C   0  0  1  0  0  0  0  0  0  0  0  0
   33.7800   27.0930   47.8590 O   0  0  0  0  0  0  0  0  0  0  0  0
   32.9600   26.6180   46.8410 C   0  0  0  0  0  0  0  0  0  0  0  0
   32.4160   27.8170   46.1060 C   0  0  1  0  0  0  0  0  0  0  0  0
   31.3250   28.5040   47.8520 H   0  0  0  0  0  0  0  0  0  0  0  0
   33.4490   28.7130   49.1290 H   0  0  0  0  0  0  0  0  0  0  0  0
   32.2350   25.9670   47.3040 H   0  0  0  0  0  0  0  0  0  0  0  0
   33.5700   25.9670   46.1620 H   0  0  0  0  0  0  0  0  0  0  0  0
   33.1090   28.3070   45.4350 H   0  0  0  0  0  0  0  0  0  0  0  0
   32.2760   30.0940   46.9000 O   0  0  0  0  0  0  0  0  0  0  0  0
   31.4670   30.5790   47.1330 H   0  0  0  0  0  0  0  0  0  0  0  0
   34.8760   29.3880   47.3000 S   0  0  0  0  0  0  0  0  0  0  0  0
   37.1750   29.3590   50.5200 C   0  0  0  0  0  0  0  0  0  0  0  0
   37.7440   30.6370   50.5810 C   0  0  0  0  0  0  0  0  0  0  0  0
   37.3920   31.5460   49.5680 C   0  0  0  0  0  0  0  0  0  0  0  0
   36.5320   31.1430   48.6000 N   0  0  0  0  0  0  0  0  0  0  0  0
   36.0090   29.8960   48.5880 C   0  0  0  0  0  0  0  0  0  0  0  0
   36.3220   28.9860   49.5470 N   0  0  0  0  0  0  0  0  0  0  0  0
   37.4310   28.6460   51.2880 H   0  0  0  0  0  0  0  0  0  0  0  0
   38.4300   30.9300   51.3670 H   0  0  0  0  0  0  0  0  0  0  0  0
   37.7840   32.5420   49.5410 H   0  0  0  0  0  0  0  0  0  0  0  0
   31.1960   27.4930   45.5650 O   0  0  0  0  0  0  0  0  0  0  0  0
   29.6150   29.8880   44.9010 Cl  0  0  0  0  0  0  0  0  0  0  0  0
   29.2030   28.5740   45.9760 C   0  0  0  0  0  0  0  0  0  0  0  0
   30.0280   27.4940   46.1980 C   0  0  0  0  0  0  0  0  0  0  0  0
   29.5790   26.4920   47.0620 C   0  0  0  0  0  0  0  0  0  0  0  0
   28.3430   26.5890   47.6690 C   0  0  0  0  0  0  0  0  0  0  0  0
   27.5080   27.6720   47.4510 C   0  0  0  0  0  0  0  0  0  0  0  0
   27.9610   28.6680   46.5890 C   0  0  0  0  0  0  0  0  0  0  0  0
   30.1480   25.6100   47.2940 H   0  0  0  0  0  0  0  0  0  0  0  0
   27.9370   25.8540   48.3440 H   0  0  0  0  0  0  0  0  0  0  0  0
   26.5380   27.7600   47.9190 H   0  0  0  0  0  0  0  0  0  0  0  0
   27.0710   29.8340   46.3480 C   0  0  0  0  0  0  0  0  0  0  0  0
   26.0750   29.9300   47.3020 F   0  0  0  0  0  0  0  0  0  0  0  0
   26.4660   29.6280   45.1030 F   0  0  0  0  0  0  0  0  0  0  0  0
   27.7750   31.0010   46.2250 F   0  0  0  0  0  0  0  0  0  0  0  0
  1  6  1  1  0  0  0
  1  2  1  0  0  0  0
  2  7  1  1  0  0  0
  3  2  1  0  0  0  0
  4  8  1  0  0  0  0
  4  3  1  0  0  0  0
  5 10  1  6  0  0  0
  5  4  1  0  0  0  0
  5  1  1  0  0  0  0
  9  4  1  0  0  0  0
 11 12  1  0  0  0  0
 11  1  1  0  0  0  0
 13  2  1  0  0  0  0
 13 18  1  0  0  0  0
 14 15  1  0  0  0  0
 14 20  1  0  0  0  0
 15 21  1  0  0  0  0
 16 15  2  0  0  0  0
 17 16  1  0  0  0  0
 18 17  2  0  0  0  0
 18 19  1  0  0  0  0
 19 14  2  0  0  0  0
 22 16  1  0  0  0  0
 23  5  1  0  0  0  0
 23 26  1  0  0  0  0
 24 25  1  0  0  0  0
 25 26  2  0  0  0  0
 25 30  1  0  0  0  0
 26 27  1  0  0  0  0
 27 31  1  0  0  0  0
 27 28  2  0  0  0  0
 28 32  1  0  0  0  0
 29 28  1  0  0  0  0
 29 33  1  0  0  0  0
 30 29  2  0  0  0  0
 34 30  1  0  0  0  0
 34 35  1  0  0  0  0
 36 34  1  0  0  0  0
 37 34  1  0  0  0  0
M  END
>  <minimizedAffinity>
-4.85514688

>  <minimizedRMSD>
0.685523391

$$$$
