
 OpenBabel03272510233D

 26 28  0  0  0  0  0  0  0  0999 V2000
   35.8410   30.1300   46.7770 C   0  0  0  0  0  0  0  0  0  0  0  0
   36.4600   30.5650   47.9250 C   0  0  0  0  0  0  0  0  0  0  0  0
   37.5360   31.4200   47.8580 C   0  0  0  0  0  0  0  0  0  0  0  0
   37.9600   31.8160   46.6030 C   0  0  0  0  0  0  0  0  0  0  0  0
   38.9960   32.6510   46.2850 N   0  0  0  0  0  0  0  0  0  0  0  0
   39.0320   32.7440   44.9490 C   0  0  0  0  0  0  0  0  0  0  0  0
   38.0570   31.9970   44.3980 N   0  0  0  0  0  0  0  0  0  0  0  0
   37.3710   31.4070   45.4120 C   0  0  0  0  0  0  0  0  0  0  0  0
   36.2930   30.5480   45.5170 C   0  0  0  0  0  0  0  0  0  0  0  0
   34.9960   29.4620   46.7560 H   0  0  0  0  0  0  0  0  0  0  0  0
   38.0150   31.7560   48.7560 H   0  0  0  0  0  0  0  0  0  0  0  0
   39.6500   33.1360   46.9600 H   0  0  0  0  0  0  0  0  0  0  0  0
   35.8090   30.2090   44.5950 H   0  0  0  0  0  0  0  0  0  0  0  0
   36.0720   29.3750   51.4810 C   0  0  0  0  0  0  0  0  0  0  0  0
   36.6700   29.8470   50.3180 C   0  0  0  0  0  0  0  0  0  0  0  0
   35.9120   30.0710   49.1840 C   0  0  0  0  0  0  0  0  0  0  0  0
   34.5700   29.8170   49.2420 N   0  0  0  0  0  0  0  0  0  0  0  0
   34.0120   29.3520   50.4040 C   0  0  0  0  0  0  0  0  0  0  0  0
   34.7460   29.1370   51.4920 N   0  0  0  0  0  0  0  0  0  0  0  0
   36.6900   29.2130   52.3400 H   0  0  0  0  0  0  0  0  0  0  0  0
   37.7160   30.0410   50.2910 H   0  0  0  0  0  0  0  0  0  0  0  0
   32.9410   29.1840   50.3350 H   0  0  0  0  0  0  0  0  0  0  0  0
   40.0410   33.5760   44.2270 C   0  0  0  0  0  0  0  0  0  0  0  0
   39.7850   33.7080   42.8940 F   0  0  0  0  0  0  0  0  0  0  0  0
   41.3020   33.0100   44.3920 F   0  0  0  0  0  0  0  0  0  0  0  0
   40.1220   34.8410   44.7800 F   0  0  0  0  0  0  0  0  0  0  0  0
  1  2  1  0  0  0  0
  2 16  1  0  0  0  0
  3  2  2  0  0  0  0
  3 11  1  0  0  0  0
  4  3  1  0  0  0  0
  5  4  1  0  0  0  0
  5 12  1  0  0  0  0
  6  5  1  0  0  0  0
  7  6  2  0  0  0  0
  7  8  1  0  0  0  0
  8  9  1  0  0  0  0
  8  4  2  0  0  0  0
  9  1  2  0  0  0  0
 10  1  1  0  0  0  0
 13  9  1  0  0  0  0
 14 19  1  0  0  0  0
 14 20  1  0  0  0  0
 15 14  2  0  0  0  0
 16 17  2  0  0  0  0
 16 15  1  0  0  0  0
 17 18  1  0  0  0  0
 18 19  2  0  0  0  0
 21 15  1  0  0  0  0
 22 18  1  0  0  0  0
 23 25  1  0  0  0  0
 23 26  1  0  0  0  0
 23  6  1  0  0  0  0
 24 23  1  0  0  0  0
M  END
>  <minimizedAffinity>
-5.16548395

>  <minimizedRMSD>
1.39157283

$$$$
