
 OpenBabel03262523303D

 26 28  0  0  0  0  0  0  0  0999 V2000
   37.3500   26.7350   34.7190 C   0  0  0  0  0  0  0  0  0  0  0  0
   37.7260   25.5950   34.0210 C   0  0  0  0  0  0  0  0  0  0  0  0
   37.6110   25.5540   32.6530 C   0  0  0  0  0  0  0  0  0  0  0  0
   37.1070   26.6890   32.0160 C   0  0  0  0  0  0  0  0  0  0  0  0
   36.9120   26.8640   30.6830 N   0  0  0  0  0  0  0  0  0  0  0  0
   36.4120   28.1140   30.5430 C   0  0  0  0  0  0  0  0  0  0  0  0
   36.2940   28.7110   31.7300 N   0  0  0  0  0  0  0  0  0  0  0  0
   36.7210   27.8490   32.6780 C   0  0  0  0  0  0  0  0  0  0  0  0
   36.8500   27.8590   34.0620 C   0  0  0  0  0  0  0  0  0  0  0  0
   37.4160   26.8320   35.7950 H   0  0  0  0  0  0  0  0  0  0  0  0
   37.9000   24.6740   32.0980 H   0  0  0  0  0  0  0  0  0  0  0  0
   37.1020   26.1810   29.8930 H   0  0  0  0  0  0  0  0  0  0  0  0
   36.1250   28.6270   29.6340 H   0  0  0  0  0  0  0  0  0  0  0  0
   36.5540   28.7500   34.5970 H   0  0  0  0  0  0  0  0  0  0  0  0
   39.3130   22.3620   35.1160 C   0  0  0  0  0  0  0  0  0  0  0  0
   38.8650   23.3720   34.2600 C   0  0  0  0  0  0  0  0  0  0  0  0
   38.2350   24.4830   34.8030 C   0  0  0  0  0  0  0  0  0  0  0  0
   38.0820   24.5370   36.1600 N   0  0  0  0  0  0  0  0  0  0  0  0
   38.5280   23.5400   36.9720 C   0  0  0  0  0  0  0  0  0  0  0  0
   39.1400   22.4600   36.4450 N   0  0  0  0  0  0  0  0  0  0  0  0
   39.8040   21.4990   34.6710 H   0  0  0  0  0  0  0  0  0  0  0  0
   38.9880   23.3260   33.1850 H   0  0  0  0  0  0  0  0  0  0  0  0
   38.2890   23.7430   38.4210 C   0  0  0  0  0  0  0  0  0  0  0  0
   37.2630   22.9030   38.8560 F   0  0  0  0  0  0  0  0  0  0  0  0
   37.9520   25.0800   38.6060 F   0  0  0  0  0  0  0  0  0  0  0  0
   39.4710   23.4920   39.0900 F   0  0  0  0  0  0  0  0  0  0  0  0
  1 10  1  0  0  0  0
  2  1  2  0  0  0  0
  2 17  1  0  0  0  0
  3  2  1  0  0  0  0
  4  3  2  0  0  0  0
  4  8  1  0  0  0  0
  5  4  1  0  0  0  0
  6  5  1  0  0  0  0
  6  7  2  0  0  0  0
  7  8  1  0  0  0  0
  8  9  2  0  0  0  0
  9 14  1  0  0  0  0
  9  1  1  0  0  0  0
 11  3  1  0  0  0  0
 12  5  1  0  0  0  0
 13  6  1  0  0  0  0
 15 20  1  0  0  0  0
 16 17  1  0  0  0  0
 16 15  2  0  0  0  0
 17 18  2  0  0  0  0
 18 19  1  0  0  0  0
 19 23  1  0  0  0  0
 20 19  2  0  0  0  0
 21 15  1  0  0  0  0
 22 16  1  0  0  0  0
 23 25  1  0  0  0  0
 23 24  1  0  0  0  0
 23 26  1  0  0  0  0
M  END
>  <minimizedAffinity>
-5.71228695

$$$$

 OpenBabel03262523303D

 26 28  0  0  0  0  0  0  0  0999 V2000
   37.4310   25.7480   32.8160 C   0  0  0  0  0  0  0  0  0  0  0  0
   37.5160   25.8460   34.1980 C   0  0  0  0  0  0  0  0  0  0  0  0
   37.0520   26.9680   34.8400 C   0  0  0  0  0  0  0  0  0  0  0  0
   36.5040   27.9810   34.0500 C   0  0  0  0  0  0  0  0  0  0  0  0
   35.9890   29.1650   34.4740 N   0  0  0  0  0  0  0  0  0  0  0  0
   35.5820   29.8120   33.3570 C   0  0  0  0  0  0  0  0  0  0  0  0
   35.8230   29.0760   32.2710 N   0  0  0  0  0  0  0  0  0  0  0  0
   36.4000   27.9210   32.6660 C   0  0  0  0  0  0  0  0  0  0  0  0
   36.8790   26.7720   32.0450 C   0  0  0  0  0  0  0  0  0  0  0  0
   37.7770   24.8930   32.2500 H   0  0  0  0  0  0  0  0  0  0  0  0
   37.1110   27.0580   35.9150 H   0  0  0  0  0  0  0  0  0  0  0  0
   35.9110   29.5340   35.4660 H   0  0  0  0  0  0  0  0  0  0  0  0
   35.1190   30.7860   33.2740 H   0  0  0  0  0  0  0  0  0  0  0  0
   36.8100   26.7040   30.9700 H   0  0  0  0  0  0  0  0  0  0  0  0
   39.3070   22.6520   35.0660 C   0  0  0  0  0  0  0  0  0  0  0  0
   38.7790   23.6810   34.2810 C   0  0  0  0  0  0  0  0  0  0  0  0
   38.1070   24.7230   34.9020 C   0  0  0  0  0  0  0  0  0  0  0  0
   37.9920   24.6940   36.2640 N   0  0  0  0  0  0  0  0  0  0  0  0
   38.5160   23.6800   37.0060 C   0  0  0  0  0  0  0  0  0  0  0  0
   39.1690   22.6670   36.4030 N   0  0  0  0  0  0  0  0  0  0  0  0
   39.8310   21.8430   34.5600 H   0  0  0  0  0  0  0  0  0  0  0  0
   38.8720   23.7010   33.2020 H   0  0  0  0  0  0  0  0  0  0  0  0
   38.3090   23.7900   38.4700 C   0  0  0  0  0  0  0  0  0  0  0  0
   37.9610   25.0990   38.8040 F   0  0  0  0  0  0  0  0  0  0  0  0
   39.4960   23.4150   39.0900 F   0  0  0  0  0  0  0  0  0  0  0  0
   37.3230   22.8920   38.8320 F   0  0  0  0  0  0  0  0  0  0  0  0
  1  2  1  0  0  0  0
  2  3  2  0  0  0  0
  2 17  1  0  0  0  0
  3 11  1  0  0  0  0
  4  5  1  0  0  0  0
  4  3  1  0  0  0  0
  5 12  1  0  0  0  0
  6  5  1  0  0  0  0
  7  8  1  0  0  0  0
  7  6  2  0  0  0  0
  8  4  2  0  0  0  0
  9  8  1  0  0  0  0
  9  1  2  0  0  0  0
 10  1  1  0  0  0  0
 13  6  1  0  0  0  0
 14  9  1  0  0  0  0
 15 20  1  0  0  0  0
 16 17  1  0  0  0  0
 16 15  2  0  0  0  0
 17 18  2  0  0  0  0
 18 19  1  0  0  0  0
 19 23  1  0  0  0  0
 20 19  2  0  0  0  0
 21 15  1  0  0  0  0
 22 16  1  0  0  0  0
 23 24  1  0  0  0  0
 23 26  1  0  0  0  0
 23 25  1  0  0  0  0
M  END
>  <minimizedAffinity>
-5.58505392

$$$$

 OpenBabel03262523303D

 26 28  0  0  0  0  0  0  0  0999 V2000
   37.1250   27.2480   35.0020 C   0  0  0  0  0  0  0  0  0  0  0  0
   37.6530   26.2510   34.1930 C   0  0  0  0  0  0  0  0  0  0  0  0
   37.5720   26.3560   32.8260 C   0  0  0  0  0  0  0  0  0  0  0  0
   36.9430   27.4880   32.3050 C   0  0  0  0  0  0  0  0  0  0  0  0
   36.7550   27.7920   30.9940 N   0  0  0  0  0  0  0  0  0  0  0  0
   36.1060   28.9800   30.9800 C   0  0  0  0  0  0  0  0  0  0  0  0
   35.8910   29.4160   32.2220 N   0  0  0  0  0  0  0  0  0  0  0  0
   36.4030   28.5070   33.0800 C   0  0  0  0  0  0  0  0  0  0  0  0
   36.5010   28.3720   34.4600 C   0  0  0  0  0  0  0  0  0  0  0  0
   37.1560   27.2260   36.0840 H   0  0  0  0  0  0  0  0  0  0  0  0
   37.9790   25.5880   32.1850 H   0  0  0  0  0  0  0  0  0  0  0  0
   37.0430   27.2340   30.1390 H   0  0  0  0  0  0  0  0  0  0  0  0
   35.7760   29.5570   30.1260 H   0  0  0  0  0  0  0  0  0  0  0  0
   36.0870   29.1520   35.0820 H   0  0  0  0  0  0  0  0  0  0  0  0
   39.6280   23.1430   34.9730 C   0  0  0  0  0  0  0  0  0  0  0  0
   39.0770   24.1860   34.2230 C   0  0  0  0  0  0  0  0  0  0  0  0
   38.2800   25.1250   34.8610 C   0  0  0  0  0  0  0  0  0  0  0  0
   38.0710   24.9860   36.2040 N   0  0  0  0  0  0  0  0  0  0  0  0
   38.6200   23.9610   36.9130 C   0  0  0  0  0  0  0  0  0  0  0  0
   39.3930   23.0470   36.2930 N   0  0  0  0  0  0  0  0  0  0  0  0
   40.2500   22.4150   34.4550 H   0  0  0  0  0  0  0  0  0  0  0  0
   39.2450   24.2930   33.1580 H   0  0  0  0  0  0  0  0  0  0  0  0
   38.3010   23.9450   38.3610 C   0  0  0  0  0  0  0  0  0  0  0  0
   37.9880   25.2340   38.7930 F   0  0  0  0  0  0  0  0  0  0  0  0
   39.4150   23.4490   39.0300 F   0  0  0  0  0  0  0  0  0  0  0  0
   37.2480   23.0720   38.5580 F   0  0  0  0  0  0  0  0  0  0  0  0
  1 10  1  0  0  0  0
  2 17  1  0  0  0  0
  2  1  2  0  0  0  0
  3  2  1  0  0  0  0
  4  3  2  0  0  0  0
  4  8  1  0  0  0  0
  5  4  1  0  0  0  0
  6  5  1  0  0  0  0
  6  7  2  0  0  0  0
  7  8  1  0  0  0  0
  8  9  2  0  0  0  0
  9  1  1  0  0  0  0
  9 14  1  0  0  0  0
 11  3  1  0  0  0  0
 12  5  1  0  0  0  0
 13  6  1  0  0  0  0
 15 20  1  0  0  0  0
 16 17  1  0  0  0  0
 16 15  2  0  0  0  0
 17 18  2  0  0  0  0
 18 19  1  0  0  0  0
 19 23  1  0  0  0  0
 20 19  2  0  0  0  0
 21 15  1  0  0  0  0
 22 16  1  0  0  0  0
 23 26  1  0  0  0  0
 23 24  1  0  0  0  0
 23 25  1  0  0  0  0
M  END
>  <minimizedAffinity>
-5.54759026

$$$$

 OpenBabel03262523303D

 26 28  0  0  0  0  0  0  0  0999 V2000
   37.1110   26.0320   33.0440 C   0  0  0  0  0  0  0  0  0  0  0  0
   37.4910   26.2780   34.3570 C   0  0  0  0  0  0  0  0  0  0  0  0
   37.1340   27.4540   34.9690 C   0  0  0  0  0  0  0  0  0  0  0  0
   36.3890   28.3680   34.2210 C   0  0  0  0  0  0  0  0  0  0  0  0
   35.9320   29.5820   34.6270 N   0  0  0  0  0  0  0  0  0  0  0  0
   35.2670   30.0990   33.5670 C   0  0  0  0  0  0  0  0  0  0  0  0
   35.2950   29.2550   32.5350 N   0  0  0  0  0  0  0  0  0  0  0  0
   35.9890   28.1590   32.9070 C   0  0  0  0  0  0  0  0  0  0  0  0
   36.3660   26.9580   32.3150 C   0  0  0  0  0  0  0  0  0  0  0  0
   37.3600   25.1260   32.5050 H   0  0  0  0  0  0  0  0  0  0  0  0
   37.4220   27.6590   35.9900 H   0  0  0  0  0  0  0  0  0  0  0  0
   36.0570   30.0530   35.5690 H   0  0  0  0  0  0  0  0  0  0  0  0
   34.7590   31.0520   33.4910 H   0  0  0  0  0  0  0  0  0  0  0  0
   36.0670   26.7750   31.2930 H   0  0  0  0  0  0  0  0  0  0  0  0
   39.9380   23.5310   35.1530 C   0  0  0  0  0  0  0  0  0  0  0  0
   39.2600   24.4990   34.4080 C   0  0  0  0  0  0  0  0  0  0  0  0
   38.2650   25.2460   35.0220 C   0  0  0  0  0  0  0  0  0  0  0  0
   37.9930   24.9970   36.3380 N   0  0  0  0  0  0  0  0  0  0  0  0
   38.6690   24.0480   37.0430 C   0  0  0  0  0  0  0  0  0  0  0  0
   39.6350   23.3220   36.4460 N   0  0  0  0  0  0  0  0  0  0  0  0
   40.7140   22.9550   34.6530 H   0  0  0  0  0  0  0  0  0  0  0  0
   39.4770   24.6940   33.3650 H   0  0  0  0  0  0  0  0  0  0  0  0
   38.2600   23.8950   38.4590 C   0  0  0  0  0  0  0  0  0  0  0  0
   39.3580   23.5180   39.2330 F   0  0  0  0  0  0  0  0  0  0  0  0
   37.2610   22.9290   38.5050 F   0  0  0  0  0  0  0  0  0  0  0  0
   37.7270   25.0970   38.8840 F   0  0  0  0  0  0  0  0  0  0  0  0
  1  2  1  0  0  0  0
  2  3  2  0  0  0  0
  2 17  1  0  0  0  0
  3 11  1  0  0  0  0
  4  5  1  0  0  0  0
  4  3  1  0  0  0  0
  5 12  1  0  0  0  0
  6  5  1  0  0  0  0
  7  8  1  0  0  0  0
  7  6  2  0  0  0  0
  8  4  2  0  0  0  0
  9  8  1  0  0  0  0
  9  1  2  0  0  0  0
 10  1  1  0  0  0  0
 13  6  1  0  0  0  0
 14  9  1  0  0  0  0
 15 20  1  0  0  0  0
 16 17  1  0  0  0  0
 16 15  2  0  0  0  0
 17 18  2  0  0  0  0
 18 19  1  0  0  0  0
 19 23  1  0  0  0  0
 20 19  2  0  0  0  0
 21 15  1  0  0  0  0
 22 16  1  0  0  0  0
 23 25  1  0  0  0  0
 23 26  1  0  0  0  0
 23 24  1  0  0  0  0
M  END
>  <minimizedAffinity>
-5.4471159

$$$$

 OpenBabel03262523303D

 26 28  0  0  0  0  0  0  0  0999 V2000
   37.7820   26.7000   35.5390 C   0  0  0  0  0  0  0  0  0  0  0  0
   38.0270   25.3640   35.2520 C   0  0  0  0  0  0  0  0  0  0  0  0
   37.8280   24.8840   33.9800 C   0  0  0  0  0  0  0  0  0  0  0  0
   37.3760   25.7870   33.0160 C   0  0  0  0  0  0  0  0  0  0  0  0
   37.1160   25.5280   31.7070 N   0  0  0  0  0  0  0  0  0  0  0  0
   36.7060   26.7020   31.1730 C   0  0  0  0  0  0  0  0  0  0  0  0
   36.7050   27.6660   32.0950 N   0  0  0  0  0  0  0  0  0  0  0  0
   37.1200   27.1300   33.2630 C   0  0  0  0  0  0  0  0  0  0  0  0
   37.3310   27.5860   34.5600 C   0  0  0  0  0  0  0  0  0  0  0  0
   37.9190   27.1410   36.5190 H   0  0  0  0  0  0  0  0  0  0  0  0
   38.0150   23.8470   33.7430 H   0  0  0  0  0  0  0  0  0  0  0  0
   37.2050   24.6080   31.1860 H   0  0  0  0  0  0  0  0  0  0  0  0
   36.4060   26.9100   30.1540 H   0  0  0  0  0  0  0  0  0  0  0  0
   37.1370   28.6260   34.7750 H   0  0  0  0  0  0  0  0  0  0  0  0
   38.4170   23.6120   38.5590 C   0  0  0  0  0  0  0  0  0  0  0  0
   37.8740   24.4510   37.5830 C   0  0  0  0  0  0  0  0  0  0  0  0
   38.4940   24.5310   36.3450 C   0  0  0  0  0  0  0  0  0  0  0  0
   39.6160   23.7790   36.1360 N   0  0  0  0  0  0  0  0  0  0  0  0
   40.1250   22.9690   37.1040 C   0  0  0  0  0  0  0  0  0  0  0  0
   39.5240   22.8910   38.3080 N   0  0  0  0  0  0  0  0  0  0  0  0
   37.9170   23.5630   39.5250 H   0  0  0  0  0  0  0  0  0  0  0  0
   36.9840   25.0460   37.7520 H   0  0  0  0  0  0  0  0  0  0  0  0
   41.3460   22.2170   36.7280 C   0  0  0  0  0  0  0  0  0  0  0  0
   41.6110   21.2320   37.6800 F   0  0  0  0  0  0  0  0  0  0  0  0
   42.3920   23.1300   36.6480 F   0  0  0  0  0  0  0  0  0  0  0  0
   41.1440   21.6720   35.4740 F   0  0  0  0  0  0  0  0  0  0  0  0
  1 10  1  0  0  0  0
  2  1  1  0  0  0  0
  2 17  1  0  0  0  0
  3  2  2  0  0  0  0
  4  8  2  0  0  0  0
  4  3  1  0  0  0  0
  5  4  1  0  0  0  0
  6  5  1  0  0  0  0
  6  7  2  0  0  0  0
  7  8  1  0  0  0  0
  8  9  1  0  0  0  0
  9 14  1  0  0  0  0
  9  1  2  0  0  0  0
 11  3  1  0  0  0  0
 12  5  1  0  0  0  0
 13  6  1  0  0  0  0
 15 21  1  0  0  0  0
 16 22  1  0  0  0  0
 16 15  2  0  0  0  0
 17 16  1  0  0  0  0
 18 17  2  0  0  0  0
 18 19  1  0  0  0  0
 19 20  2  0  0  0  0
 20 15  1  0  0  0  0
 23 19  1  0  0  0  0
 23 24  1  0  0  0  0
 25 23  1  0  0  0  0
 26 23  1  0  0  0  0
M  END
>  <minimizedAffinity>
-5.29682255

$$$$

 OpenBabel03262523303D

 26 28  0  0  0  0  0  0  0  0999 V2000
   38.1880   24.5520   33.9320 C   0  0  0  0  0  0  0  0  0  0  0  0
   38.0310   25.1510   35.1750 C   0  0  0  0  0  0  0  0  0  0  0  0
   37.4570   26.3950   35.2730 C   0  0  0  0  0  0  0  0  0  0  0  0
   37.0500   27.0110   34.0880 C   0  0  0  0  0  0  0  0  0  0  0  0
   36.4630   28.2290   33.9560 N   0  0  0  0  0  0  0  0  0  0  0  0
   36.2530   28.3970   32.6290 C   0  0  0  0  0  0  0  0  0  0  0  0
   36.6840   27.3350   31.9460 N   0  0  0  0  0  0  0  0  0  0  0  0
   37.1890   26.4450   32.8270 C   0  0  0  0  0  0  0  0  0  0  0  0
   37.7740   25.1860   32.7600 C   0  0  0  0  0  0  0  0  0  0  0  0
   38.6330   23.5760   33.7860 H   0  0  0  0  0  0  0  0  0  0  0  0
   37.3280   26.8720   36.2340 H   0  0  0  0  0  0  0  0  0  0  0  0
   36.2110   28.9270   34.7150 H   0  0  0  0  0  0  0  0  0  0  0  0
   35.8060   29.2400   32.1190 H   0  0  0  0  0  0  0  0  0  0  0  0
   37.8940   24.7270   31.7890 H   0  0  0  0  0  0  0  0  0  0  0  0
   38.4120   23.6510   38.6050 C   0  0  0  0  0  0  0  0  0  0  0  0
   37.8700   24.4130   37.5670 C   0  0  0  0  0  0  0  0  0  0  0  0
   38.4960   24.4040   36.3290 C   0  0  0  0  0  0  0  0  0  0  0  0
   39.6230   23.6440   36.1820 N   0  0  0  0  0  0  0  0  0  0  0  0
   40.1310   22.9100   37.2100 C   0  0  0  0  0  0  0  0  0  0  0  0
   39.5230   22.9190   38.4140 N   0  0  0  0  0  0  0  0  0  0  0  0
   37.9070   23.6710   39.5690 H   0  0  0  0  0  0  0  0  0  0  0  0
   36.9770   25.0140   37.6860 H   0  0  0  0  0  0  0  0  0  0  0  0
   41.3570   22.1390   36.8970 C   0  0  0  0  0  0  0  0  0  0  0  0
   41.5760   21.1730   37.8800 F   0  0  0  0  0  0  0  0  0  0  0  0
   42.4150   23.0400   36.8360 F   0  0  0  0  0  0  0  0  0  0  0  0
   41.1970   21.5680   35.6490 F   0  0  0  0  0  0  0  0  0  0  0  0
  1  2  1  0  0  0  0
  2  3  2  0  0  0  0
  2 17  1  0  0  0  0
  3 11  1  0  0  0  0
  4  3  1  0  0  0  0
  5  4  1  0  0  0  0
  5 12  1  0  0  0  0
  6  5  1  0  0  0  0
  7  6  2  0  0  0  0
  7  8  1  0  0  0  0
  8  4  2  0  0  0  0
  9  8  1  0  0  0  0
  9  1  2  0  0  0  0
 10  1  1  0  0  0  0
 13  6  1  0  0  0  0
 14  9  1  0  0  0  0
 15 21  1  0  0  0  0
 16 22  1  0  0  0  0
 16 15  2  0  0  0  0
 17 16  1  0  0  0  0
 18 17  2  0  0  0  0
 18 19  1  0  0  0  0
 19 20  2  0  0  0  0
 20 15  1  0  0  0  0
 23 19  1  0  0  0  0
 23 24  1  0  0  0  0
 25 23  1  0  0  0  0
 26 23  1  0  0  0  0
M  END
>  <minimizedAffinity>
-5.29534626

$$$$

 OpenBabel03262523303D

 26 28  0  0  0  0  0  0  0  0999 V2000
   37.9160   24.4990   36.7320 C   0  0  0  0  0  0  0  0  0  0  0  0
   38.4950   24.8870   35.5310 C   0  0  0  0  0  0  0  0  0  0  0  0
   39.6940   24.3470   35.1370 C   0  0  0  0  0  0  0  0  0  0  0  0
   40.2880   23.4110   35.9860 C   0  0  0  0  0  0  0  0  0  0  0  0
   41.4640   22.7570   35.7930 N   0  0  0  0  0  0  0  0  0  0  0  0
   41.6240   21.9590   36.8740 C   0  0  0  0  0  0  0  0  0  0  0  0
   40.5990   22.0940   37.7170 N   0  0  0  0  0  0  0  0  0  0  0  0
   39.7420   22.9960   37.1940 C   0  0  0  0  0  0  0  0  0  0  0  0
   38.5260   23.5610   37.5650 C   0  0  0  0  0  0  0  0  0  0  0  0
   36.9740   24.8850   37.0990 H   0  0  0  0  0  0  0  0  0  0  0  0
   40.1560   24.6400   34.2050 H   0  0  0  0  0  0  0  0  0  0  0  0
   42.1370   22.8360   34.9760 H   0  0  0  0  0  0  0  0  0  0  0  0
   42.4370   21.2790   37.0950 H   0  0  0  0  0  0  0  0  0  0  0  0
   38.0840   23.2540   38.5010 H   0  0  0  0  0  0  0  0  0  0  0  0
   36.7870   28.0140   34.3190 C   0  0  0  0  0  0  0  0  0  0  0  0
   37.4880   27.1560   35.1700 C   0  0  0  0  0  0  0  0  0  0  0  0
   37.7750   25.8690   34.7410 C   0  0  0  0  0  0  0  0  0  0  0  0
   37.3540   25.4970   33.4950 N   0  0  0  0  0  0  0  0  0  0  0  0
   36.6720   26.3520   32.6840 C   0  0  0  0  0  0  0  0  0  0  0  0
   36.3930   27.6030   33.1010 N   0  0  0  0  0  0  0  0  0  0  0  0
   36.5710   29.0200   34.6740 H   0  0  0  0  0  0  0  0  0  0  0  0
   37.8210   27.4540   36.1580 H   0  0  0  0  0  0  0  0  0  0  0  0
   36.2840   25.8030   31.3630 C   0  0  0  0  0  0  0  0  0  0  0  0
   35.2520   24.8770   31.5170 F   0  0  0  0  0  0  0  0  0  0  0  0
   37.4120   25.2070   30.8090 F   0  0  0  0  0  0  0  0  0  0  0  0
   35.9040   26.8580   30.5550 F   0  0  0  0  0  0  0  0  0  0  0  0
  1 10  1  0  0  0  0
  1  9  1  0  0  0  0
  2  1  2  0  0  0  0
  3  2  1  0  0  0  0
  3  4  2  0  0  0  0
  4  8  1  0  0  0  0
  5  4  1  0  0  0  0
  5  6  1  0  0  0  0
  6 13  1  0  0  0  0
  6  7  2  0  0  0  0
  8  9  2  0  0  0  0
  8  7  1  0  0  0  0
  9 14  1  0  0  0  0
 11  3  1  0  0  0  0
 12  5  1  0  0  0  0
 15 21  1  0  0  0  0
 15 16  1  0  0  0  0
 16 22  1  0  0  0  0
 17 16  2  0  0  0  0
 17  2  1  0  0  0  0
 18 17  1  0  0  0  0
 19 20  1  0  0  0  0
 19 18  2  0  0  0  0
 20 15  2  0  0  0  0
 23 24  1  0  0  0  0
 23 19  1  0  0  0  0
 25 23  1  0  0  0  0
 26 23  1  0  0  0  0
M  END
>  <minimizedAffinity>
-5.24311686

$$$$

 OpenBabel03262523303D

 26 28  0  0  0  0  0  0  0  0999 V2000
   38.7600   24.7400   34.2680 C   0  0  0  0  0  0  0  0  0  0  0  0
   37.8750   25.6610   34.8130 C   0  0  0  0  0  0  0  0  0  0  0  0
   37.5700   25.6160   36.1510 C   0  0  0  0  0  0  0  0  0  0  0  0
   38.1810   24.6210   36.9160 C   0  0  0  0  0  0  0  0  0  0  0  0
   38.0250   24.3970   38.2480 N   0  0  0  0  0  0  0  0  0  0  0  0
   38.8100   23.3340   38.5390 C   0  0  0  0  0  0  0  0  0  0  0  0
   39.4410   22.9000   37.4470 N   0  0  0  0  0  0  0  0  0  0  0  0
   39.0710   23.6820   36.4100 C   0  0  0  0  0  0  0  0  0  0  0  0
   39.3590   23.7530   35.0510 C   0  0  0  0  0  0  0  0  0  0  0  0
   39.0420   24.7200   33.2230 H   0  0  0  0  0  0  0  0  0  0  0  0
   36.8840   26.3270   36.5880 H   0  0  0  0  0  0  0  0  0  0  0  0
   37.4190   24.9270   38.9400 H   0  0  0  0  0  0  0  0  0  0  0  0
   38.9600   22.8490   39.4950 H   0  0  0  0  0  0  0  0  0  0  0  0
   40.0480   23.0330   34.6350 H   0  0  0  0  0  0  0  0  0  0  0  0
   36.7760   27.5600   31.7560 C   0  0  0  0  0  0  0  0  0  0  0  0
   37.3570   26.5490   32.5250 C   0  0  0  0  0  0  0  0  0  0  0  0
   37.3090   26.6440   33.9080 C   0  0  0  0  0  0  0  0  0  0  0  0
   36.6910   27.7320   34.4570 N   0  0  0  0  0  0  0  0  0  0  0  0
   36.1320   28.7050   33.6860 C   0  0  0  0  0  0  0  0  0  0  0  0
   36.1780   28.6130   32.3410 N   0  0  0  0  0  0  0  0  0  0  0  0
   36.8240   27.4680   30.6720 H   0  0  0  0  0  0  0  0  0  0  0  0
   37.8460   25.6870   32.0860 H   0  0  0  0  0  0  0  0  0  0  0  0
   35.4990   29.8210   34.4270 C   0  0  0  0  0  0  0  0  0  0  0  0
   36.3030   30.1920   35.5060 F   0  0  0  0  0  0  0  0  0  0  0  0
   34.2520   29.3820   34.8610 F   0  0  0  0  0  0  0  0  0  0  0  0
   35.3120   30.8690   33.5470 F   0  0  0  0  0  0  0  0  0  0  0  0
  1  2  2  0  0  0  0
  1  9  1  0  0  0  0
  2  3  1  0  0  0  0
  3 11  1  0  0  0  0
  3  4  2  0  0  0  0
  4  5  1  0  0  0  0
  5  6  1  0  0  0  0
  5 12  1  0  0  0  0
  6 13  1  0  0  0  0
  7  6  2  0  0  0  0
  8  4  1  0  0  0  0
  8  7  1  0  0  0  0
  9  8  2  0  0  0  0
 10  1  1  0  0  0  0
 14  9  1  0  0  0  0
 15 20  2  0  0  0  0
 15 16  1  0  0  0  0
 16 17  2  0  0  0  0
 17 18  1  0  0  0  0
 17  2  1  0  0  0  0
 19 23  1  0  0  0  0
 19 18  2  0  0  0  0
 20 19  1  0  0  0  0
 21 15  1  0  0  0  0
 22 16  1  0  0  0  0
 23 25  1  0  0  0  0
 23 24  1  0  0  0  0
 26 23  1  0  0  0  0
M  END
>  <minimizedAffinity>
-5.13558865

$$$$

 OpenBabel03262523303D

 26 28  0  0  0  0  0  0  0  0999 V2000
   36.2880   28.5950   34.3740 C   0  0  0  0  0  0  0  0  0  0  0  0
   35.6140   29.7490   34.0010 C   0  0  0  0  0  0  0  0  0  0  0  0
   35.5260   30.0990   32.6750 C   0  0  0  0  0  0  0  0  0  0  0  0
   36.1370   29.2540   31.7460 C   0  0  0  0  0  0  0  0  0  0  0  0
   36.1710   29.4070   30.3960 N   0  0  0  0  0  0  0  0  0  0  0  0
   36.8700   28.3490   29.9220 C   0  0  0  0  0  0  0  0  0  0  0  0
   37.2610   27.5560   30.9210 N   0  0  0  0  0  0  0  0  0  0  0  0
   36.8200   28.0910   32.0790 C   0  0  0  0  0  0  0  0  0  0  0  0
   36.8910   27.7640   33.4290 C   0  0  0  0  0  0  0  0  0  0  0  0
   36.3930   28.2630   35.4000 H   0  0  0  0  0  0  0  0  0  0  0  0
   35.0040   30.9940   32.3700 H   0  0  0  0  0  0  0  0  0  0  0  0
   35.7500   30.1840   29.8090 H   0  0  0  0  0  0  0  0  0  0  0  0
   37.1160   28.1100   28.8960 H   0  0  0  0  0  0  0  0  0  0  0  0
   37.4180   26.8650   33.7110 H   0  0  0  0  0  0  0  0  0  0  0  0
   35.0430   32.1720   36.8230 C   0  0  0  0  0  0  0  0  0  0  0  0
   35.7200   31.4690   35.8240 C   0  0  0  0  0  0  0  0  0  0  0  0
   35.0230   30.5400   35.0650 C   0  0  0  0  0  0  0  0  0  0  0  0
   33.6960   30.3550   35.3330 N   0  0  0  0  0  0  0  0  0  0  0  0
   33.0590   31.0520   36.3130 C   0  0  0  0  0  0  0  0  0  0  0  0
   33.7360   31.9550   37.0510 N   0  0  0  0  0  0  0  0  0  0  0  0
   35.6070   32.8970   37.4090 H   0  0  0  0  0  0  0  0  0  0  0  0
   36.7720   31.6190   35.6130 H   0  0  0  0  0  0  0  0  0  0  0  0
   31.6200   30.7400   36.4850 C   0  0  0  0  0  0  0  0  0  0  0  0
   30.9450   31.8600   36.9710 F   0  0  0  0  0  0  0  0  0  0  0  0
   31.5260   29.6740   37.3730 F   0  0  0  0  0  0  0  0  0  0  0  0
   31.1210   30.3360   35.2610 F   0  0  0  0  0  0  0  0  0  0  0  0
  1 10  1  0  0  0  0
  2  1  1  0  0  0  0
  2 17  1  0  0  0  0
  3  2  2  0  0  0  0
  4  8  2  0  0  0  0
  4  3  1  0  0  0  0
  5  4  1  0  0  0  0
  6  5  1  0  0  0  0
  6  7  2  0  0  0  0
  7  8  1  0  0  0  0
  8  9  1  0  0  0  0
  9 14  1  0  0  0  0
  9  1  2  0  0  0  0
 11  3  1  0  0  0  0
 12  5  1  0  0  0  0
 13  6  1  0  0  0  0
 15 20  1  0  0  0  0
 15 21  1  0  0  0  0
 16 15  2  0  0  0  0
 17 18  2  0  0  0  0
 17 16  1  0  0  0  0
 18 19  1  0  0  0  0
 19 23  1  0  0  0  0
 19 20  2  0  0  0  0
 22 16  1  0  0  0  0
 23 24  1  0  0  0  0
 23 25  1  0  0  0  0
 26 23  1  0  0  0  0
M  END
>  <minimizedAffinity>
-5.08615255

$$$$
