
 OpenBabel03262520223D

 27 28  0  0  0  0  0  0  0  0999 V2000
   37.4190   31.1670   48.2090 C   0  0  0  0  0  0  0  0  0  0  0  0
   37.1880   30.9580   46.8130 C   0  0  0  0  0  0  0  0  0  0  0  0
   35.9660   30.4610   46.4470 C   0  0  0  0  0  0  0  0  0  0  0  0
   35.0690   30.2080   47.4580 N   0  0  0  0  0  0  0  0  0  0  0  0
   35.2930   30.4080   48.7550 C   0  0  0  0  0  0  0  0  0  0  0  0
   36.4870   30.8920   49.1140 N   0  0  0  0  0  0  0  0  0  0  0  0
   34.2270   30.1160   49.6130 N   0  0  0  0  0  0  0  0  0  0  0  0
   38.3350   31.5510   48.6330 H   0  0  0  0  0  0  0  0  0  0  0  0
   33.7740   31.0630   49.7510 H   0  0  0  0  0  0  0  0  0  0  0  0
   33.9030   29.2390   50.0400 H   0  0  0  0  0  0  0  0  0  0  0  0
   38.3510   31.3740   46.0430 C   0  0  0  0  0  0  0  0  0  0  0  0
   39.1360   32.4490   46.4830 C   0  0  0  0  0  0  0  0  0  0  0  0
   40.2210   32.9650   45.8660 C   0  0  0  0  0  0  0  0  0  0  0  0
   40.6460   32.4350   44.7000 C   0  0  0  0  0  0  0  0  0  0  0  0
   39.8940   31.3860   44.2560 C   0  0  0  0  0  0  0  0  0  0  0  0
   38.8520   30.9420   44.9120 N   0  0  0  0  0  0  0  0  0  0  0  0
   38.8390   32.9490   47.4630 H   0  0  0  0  0  0  0  0  0  0  0  0
   40.7530   33.8390   46.3450 H   0  0  0  0  0  0  0  0  0  0  0  0
   41.4920   32.8040   44.1770 H   0  0  0  0  0  0  0  0  0  0  0  0
   40.2820   30.7050   42.9450 C   0  0  0  0  0  0  0  0  0  0  0  0
   41.4510   30.0200   43.0640 F   0  0  0  0  0  0  0  0  0  0  0  0
   39.2660   29.8890   42.5250 F   0  0  0  0  0  0  0  0  0  0  0  0
   40.3980   31.7010   41.9690 F   0  0  0  0  0  0  0  0  0  0  0  0
   35.6700   30.2300   45.0340 C   0  0  0  0  0  0  0  0  0  0  0  0
   36.4390   29.2590   44.5890 F   0  0  0  0  0  0  0  0  0  0  0  0
   34.3450   29.9280   44.7760 F   0  0  0  0  0  0  0  0  0  0  0  0
   35.9510   31.3950   44.2650 F   0  0  0  0  0  0  0  0  0  0  0  0
  1  8  1  0  0  0  0
  1  6  1  0  0  0  0
  2  1  2  0  0  0  0
  3  2  1  0  0  0  0
  3  4  2  0  0  0  0
  4  5  1  0  0  0  0
  5  6  2  0  0  0  0
  5  7  1  0  0  0  0
  7  9  1  0  0  0  0
  7 10  1  0  0  0  0
 11 12  1  0  0  0  0
 11  2  1  0  0  0  0
 12 17  1  0  0  0  0
 13 18  1  0  0  0  0
 13 12  2  0  0  0  0
 14 13  1  0  0  0  0
 15 14  2  0  0  0  0
 15 16  1  0  0  0  0
 16 11  2  0  0  0  0
 19 14  1  0  0  0  0
 20 21  1  0  0  0  0
 20 15  1  0  0  0  0
 22 20  1  0  0  0  0
 23 20  1  0  0  0  0
 24  3  1  0  0  0  0
 25 24  1  0  0  0  0
 26 24  1  0  0  0  0
 27 24  1  0  0  0  0
M  END
>  <minimizedAffinity>
-5.29874897

>  <minimizedRMSD>
5.8613677

$$$$
