
 OpenBabel03272507243D

 25 26  0  0  1  0  0  0  0  0999 V2000
   36.3010   29.6390   51.0020 C   0  0  0  0  0  0  0  0  0  0  0  0
   37.2190   30.6630   50.7210 C   0  0  0  0  0  0  0  0  0  0  0  0
   37.4650   31.0020   49.3830 C   0  0  0  0  0  0  0  0  0  0  0  0
   36.7910   30.3110   48.4280 N   0  0  0  0  0  0  0  0  0  0  0  0
   35.9070   29.3230   48.7250 C   0  0  0  0  0  0  0  0  0  0  0  0
   35.6720   28.9990   50.0080 N   0  0  0  0  0  0  0  0  0  0  0  0
   38.3700   32.0180   49.0280 N   0  0  0  0  0  0  0  0  0  0  0  0
   38.6700   33.1750   49.8710 C   0  0  0  0  0  0  0  0  0  0  0  0
   39.5490   34.0690   49.0410 C   0  0  0  0  0  0  0  0  0  0  0  0
   39.1380   33.6630   47.6510 C   0  0  0  0  0  0  0  0  0  0  0  0
   39.1470   32.1430   47.8550 C   0  0  2  0  0  0  0  0  0  0  0  0
   36.0980   29.3620   52.0240 H   0  0  0  0  0  0  0  0  0  0  0  0
   37.7430   31.1970   51.5260 H   0  0  0  0  0  0  0  0  0  0  0  0
   35.4740   28.8940   47.8300 H   0  0  0  0  0  0  0  0  0  0  0  0
   39.2710   32.7870   50.7130 H   0  0  0  0  0  0  0  0  0  0  0  0
   37.7530   33.6800   50.2290 H   0  0  0  0  0  0  0  0  0  0  0  0
   39.3770   35.1460   49.2280 H   0  0  0  0  0  0  0  0  0  0  0  0
   40.6270   33.8370   49.1540 H   0  0  0  0  0  0  0  0  0  0  0  0
   39.8600   33.9820   46.8780 H   0  0  0  0  0  0  0  0  0  0  0  0
   38.1040   33.9840   47.4700 H   0  0  0  0  0  0  0  0  0  0  0  0
   40.1890   31.8080   48.0810 H   0  0  0  0  0  0  0  0  0  0  0  0
   38.7140   31.4110   46.6430 C   0  0  0  0  0  0  0  0  0  0  0  0
   37.4460   31.9090   46.3070 F   0  0  0  0  0  0  0  0  0  0  0  0
   38.5940   30.0670   46.7490 F   0  0  0  0  0  0  0  0  0  0  0  0
   39.5260   31.8400   45.5970 F   0  0  0  0  0  0  0  0  0  0  0  0
  1 12  1  0  0  0  0
  2  1  1  0  0  0  0
  2 13  1  0  0  0  0
  3  2  2  0  0  0  0
  4  5  2  0  0  0  0
  4  3  1  0  0  0  0
  5  6  1  0  0  0  0
  6  1  2  0  0  0  0
  7  3  1  0  0  0  0
  7  8  1  0  0  0  0
  8 16  1  0  0  0  0
  8 15  1  0  0  0  0
  9 18  1  0  0  0  0
  9 17  1  0  0  0  0
  9  8  1  0  0  0  0
 10 11  1  0  0  0  0
 10  9  1  0  0  0  0
 11 21  1  1  0  0  0
 11  7  1  0  0  0  0
 14  5  1  0  0  0  0
 19 10  1  0  0  0  0
 20 10  1  0  0  0  0
 22 24  1  0  0  0  0
 22 11  1  0  0  0  0
 23 22  1  0  0  0  0
 25 22  1  0  0  0  0
M  END
>  <minimizedAffinity>
-4.57995081

>  <minimizedRMSD>
1.92848885

$$$$
