
 OpenBabel03272503283D

 28 29  0  0  1  0  0  0  0  0999 V2000
   36.7080   30.4630   47.8060 N   0  0  0  0  0  0  0  0  0  0  0  0
   36.4770   29.5520   48.8990 C   0  0  0  0  0  0  0  0  0  0  0  0
   35.0030   29.2450   48.7870 C   0  0  2  0  0  0  0  0  0  0  0  0
   34.4770   30.1400   47.6570 C   0  0  0  0  0  0  0  0  0  0  0  0
   35.7440   30.1480   46.7950 C   0  0  0  0  0  0  0  0  0  0  0  0
   37.1100   28.6540   48.7080 H   0  0  0  0  0  0  0  0  0  0  0  0
   36.6910   29.9530   49.8950 H   0  0  0  0  0  0  0  0  0  0  0  0
   34.8750   28.1930   48.4810 H   0  0  0  0  0  0  0  0  0  0  0  0
   33.6620   29.6110   47.1430 H   0  0  0  0  0  0  0  0  0  0  0  0
   34.2570   31.1600   47.9850 H   0  0  0  0  0  0  0  0  0  0  0  0
   35.6600   31.0080   46.0960 H   0  0  0  0  0  0  0  0  0  0  0  0
   35.8760   29.1890   46.2870 H   0  0  0  0  0  0  0  0  0  0  0  0
   37.7020   31.4810   47.7440 C   0  0  0  0  0  0  0  0  0  0  0  0
   37.8980   32.2560   48.9040 C   0  0  0  0  0  0  0  0  0  0  0  0
   38.8830   33.2580   48.8280 C   0  0  0  0  0  0  0  0  0  0  0  0
   39.5660   33.3960   47.6390 N   0  0  0  0  0  0  0  0  0  0  0  0
   39.3520   32.6380   46.5560 C   0  0  0  0  0  0  0  0  0  0  0  0
   38.4080   31.6770   46.6250 N   0  0  0  0  0  0  0  0  0  0  0  0
   37.3600   32.1390   49.8230 H   0  0  0  0  0  0  0  0  0  0  0  0
   39.1140   33.9070   49.6560 H   0  0  0  0  0  0  0  0  0  0  0  0
   40.1790   32.9270   45.3640 C   0  0  0  0  0  0  0  0  0  0  0  0
   39.6070   32.2940   44.2780 F   0  0  0  0  0  0  0  0  0  0  0  0
   41.5000   32.5850   45.5090 F   0  0  0  0  0  0  0  0  0  0  0  0
   40.1690   34.3150   45.1800 F   0  0  0  0  0  0  0  0  0  0  0  0
   34.2610   29.4550   50.0750 C   0  0  0  0  0  0  0  0  0  0  0  0
   34.1020   30.8300   50.2110 F   0  0  0  0  0  0  0  0  0  0  0  0
   35.0920   29.0300   51.0800 F   0  0  0  0  0  0  0  0  0  0  0  0
   33.0610   28.8010   50.1320 F   0  0  0  0  0  0  0  0  0  0  0  0
  1  2  1  0  0  0  0
  2  7  1  0  0  0  0
  3  8  1  6  0  0  0
  3  2  1  0  0  0  0
  3 25  1  0  0  0  0
  4 10  1  0  0  0  0
  4  3  1  0  0  0  0
  5  4  1  0  0  0  0
  5  1  1  0  0  0  0
  6  2  1  0  0  0  0
  9  4  1  0  0  0  0
 11  5  1  0  0  0  0
 12  5  1  0  0  0  0
 13  1  1  0  0  0  0
 13 14  1  0  0  0  0
 14 19  1  0  0  0  0
 15 14  2  0  0  0  0
 15 20  1  0  0  0  0
 16 15  1  0  0  0  0
 17 18  1  0  0  0  0
 17 16  2  0  0  0  0
 18 13  2  0  0  0  0
 21 23  1  0  0  0  0
 21 17  1  0  0  0  0
 22 21  1  0  0  0  0
 24 21  1  0  0  0  0
 25 28  1  0  0  0  0
 25 26  1  0  0  0  0
 25 27  1  0  0  0  0
M  END
>  <minimizedAffinity>
-6.04612684

>  <minimizedRMSD>
7.00330019

$$$$
