
 OpenBabel03272509503D

 28 29  0  0  0  0  0  0  0  0999 V2000
   33.7970   28.6470   48.7210 C   0  0  0  0  0  0  0  0  0  0  0  0
   33.1330   29.4910   49.0670 H   0  0  0  0  0  0  0  0  0  0  0  0
   34.3600   29.0290   47.8640 H   0  0  0  0  0  0  0  0  0  0  0  0
   32.8950   27.4860   48.4060 C   0  0  0  0  0  0  0  0  0  0  0  0
   32.9970   26.7140   49.2120 H   0  0  0  0  0  0  0  0  0  0  0  0
   33.2610   26.9570   47.4810 H   0  0  0  0  0  0  0  0  0  0  0  0
   31.4710   27.8830   48.3040 C   0  0  0  0  0  0  0  0  0  0  0  0
   30.6920   27.7290   49.4260 C   0  0  0  0  0  0  0  0  0  0  0  0
   29.3610   28.0590   49.4590 C   0  0  0  0  0  0  0  0  0  0  0  0
   28.7830   28.5540   48.3580 N   0  0  0  0  0  0  0  0  0  0  0  0
   29.5480   28.7050   47.2560 C   0  0  0  0  0  0  0  0  0  0  0  0
   30.8550   28.3850   47.2100 N   0  0  0  0  0  0  0  0  0  0  0  0
   31.1050   27.3300   50.3580 H   0  0  0  0  0  0  0  0  0  0  0  0
   28.7300   27.9400   50.3530 H   0  0  0  0  0  0  0  0  0  0  0  0
   29.1200   29.1000   46.3480 H   0  0  0  0  0  0  0  0  0  0  0  0
   34.6270   28.3280   49.8260 O   0  0  0  0  0  0  0  0  0  0  0  0
   37.3130   30.1980   51.3740 C   0  0  0  0  0  0  0  0  0  0  0  0
   37.8290   30.8720   50.2600 C   0  0  0  0  0  0  0  0  0  0  0  0
   37.2080   30.6350   49.0340 C   0  0  0  0  0  0  0  0  0  0  0  0
   36.1520   29.7720   49.0000 N   0  0  0  0  0  0  0  0  0  0  0  0
   35.6920   29.1480   50.0910 C   0  0  0  0  0  0  0  0  0  0  0  0
   36.2810   29.3680   51.2770 N   0  0  0  0  0  0  0  0  0  0  0  0
   37.8170   30.4040   52.3130 H   0  0  0  0  0  0  0  0  0  0  0  0
   38.6680   31.5510   50.3190 H   0  0  0  0  0  0  0  0  0  0  0  0
   37.6870   31.3110   47.7780 C   0  0  0  0  0  0  0  0  0  0  0  0
   38.8490   30.6220   47.4090 F   0  0  0  0  0  0  0  0  0  0  0  0
   36.7160   31.2090   46.7870 F   0  0  0  0  0  0  0  0  0  0  0  0
   37.9310   32.6190   48.0780 F   0  0  0  0  0  0  0  0  0  0  0  0
  1  2  1  0  0  0  0
  1 16  1  0  0  0  0
  3  1  1  0  0  0  0
  4  1  1  0  0  0  0
  4  5  1  0  0  0  0
  6  4  1  0  0  0  0
  7  4  1  0  0  0  0
  7  8  1  0  0  0  0
  8  9  2  0  0  0  0
  8 13  1  0  0  0  0
  9 14  1  0  0  0  0
 10  9  1  0  0  0  0
 11 10  2  0  0  0  0
 12 11  1  0  0  0  0
 12  7  2  0  0  0  0
 15 11  1  0  0  0  0
 16 21  1  0  0  0  0
 17 23  1  0  0  0  0
 18 24  1  0  0  0  0
 18 17  2  0  0  0  0
 19 18  1  0  0  0  0
 20 19  2  0  0  0  0
 20 21  1  0  0  0  0
 21 22  2  0  0  0  0
 22 17  1  0  0  0  0
 25 28  1  0  0  0  0
 25 19  1  0  0  0  0
 26 25  1  0  0  0  0
 27 25  1  0  0  0  0
M  END
>  <minimizedAffinity>
-5.16751432

>  <minimizedRMSD>
0.501009881

$$$$
