
 OpenBabel03272509493D

 28 29  0  0  0  0  0  0  0  0999 V2000
   33.8830   28.6600   48.7740 C   0  0  0  0  0  0  0  0  0  0  0  0
   33.2280   29.2850   49.4470 H   0  0  0  0  0  0  0  0  0  0  0  0
   34.2410   29.3270   47.9830 H   0  0  0  0  0  0  0  0  0  0  0  0
   33.0390   27.5150   48.2870 C   0  0  0  0  0  0  0  0  0  0  0  0
   33.1150   26.6670   49.0170 H   0  0  0  0  0  0  0  0  0  0  0  0
   33.4780   27.0920   47.3390 H   0  0  0  0  0  0  0  0  0  0  0  0
   31.6120   27.8840   48.1340 C   0  0  0  0  0  0  0  0  0  0  0  0
   30.7800   27.6380   49.2000 C   0  0  0  0  0  0  0  0  0  0  0  0
   29.4400   27.9340   49.1830 C   0  0  0  0  0  0  0  0  0  0  0  0
   28.9080   28.4880   48.0860 N   0  0  0  0  0  0  0  0  0  0  0  0
   29.7260   28.7300   47.0400 C   0  0  0  0  0  0  0  0  0  0  0  0
   31.0410   28.4440   47.0440 N   0  0  0  0  0  0  0  0  0  0  0  0
   31.1540   27.1880   50.1250 H   0  0  0  0  0  0  0  0  0  0  0  0
   28.7670   27.7410   50.0310 H   0  0  0  0  0  0  0  0  0  0  0  0
   29.3360   29.1750   46.1380 H   0  0  0  0  0  0  0  0  0  0  0  0
   34.9300   28.1720   49.5960 O   0  0  0  0  0  0  0  0  0  0  0  0
   37.3140   30.2180   51.3980 C   0  0  0  0  0  0  0  0  0  0  0  0
   37.9640   30.8500   50.3300 C   0  0  0  0  0  0  0  0  0  0  0  0
   37.5320   30.5260   49.0450 C   0  0  0  0  0  0  0  0  0  0  0  0
   36.5160   29.6250   48.9120 N   0  0  0  0  0  0  0  0  0  0  0  0
   35.9240   29.0430   49.9610 C   0  0  0  0  0  0  0  0  0  0  0  0
   36.3300   29.3470   51.2040 N   0  0  0  0  0  0  0  0  0  0  0  0
   37.6740   30.4910   52.3850 H   0  0  0  0  0  0  0  0  0  0  0  0
   38.7670   31.5610   50.4680 H   0  0  0  0  0  0  0  0  0  0  0  0
   38.1650   31.1520   47.8310 C   0  0  0  0  0  0  0  0  0  0  0  0
   39.1810   31.9760   48.3300 F   0  0  0  0  0  0  0  0  0  0  0  0
   38.6910   30.1610   47.0090 F   0  0  0  0  0  0  0  0  0  0  0  0
   37.1990   31.8570   47.1760 F   0  0  0  0  0  0  0  0  0  0  0  0
  1  2  1  0  0  0  0
  1 16  1  0  0  0  0
  3  1  1  0  0  0  0
  4  1  1  0  0  0  0
  4  5  1  0  0  0  0
  6  4  1  0  0  0  0
  7  4  1  0  0  0  0
  7  8  1  0  0  0  0
  8 13  1  0  0  0  0
  9  8  2  0  0  0  0
  9 14  1  0  0  0  0
 10  9  1  0  0  0  0
 11 12  1  0  0  0  0
 11 10  2  0  0  0  0
 12  7  2  0  0  0  0
 15 11  1  0  0  0  0
 16 21  1  0  0  0  0
 17 23  1  0  0  0  0
 18 24  1  0  0  0  0
 18 17  2  0  0  0  0
 19 18  1  0  0  0  0
 20 19  2  0  0  0  0
 20 21  1  0  0  0  0
 21 22  2  0  0  0  0
 22 17  1  0  0  0  0
 25 26  1  0  0  0  0
 25 19  1  0  0  0  0
 27 25  1  0  0  0  0
 28 25  1  0  0  0  0
M  END
>  <minimizedAffinity>
-5.2179513

>  <minimizedRMSD>
0.469730914

$$$$
