
 OpenBabel03272503163D

 20 21  0  0  0  0  0  0  0  0999 V2000
   38.0820   31.5580   48.6240 C   0  0  0  0  0  0  0  0  0  0  0  0
   38.6590   32.7560   48.7610 C   0  0  0  0  0  0  0  0  0  0  0  0
   39.3580   33.3030   47.7560 C   0  0  0  0  0  0  0  0  0  0  0  0
   39.4420   32.5580   46.5890 C   0  0  0  0  0  0  0  0  0  0  0  0
   38.4730   31.0460   47.0030 S   0  0  0  0  0  0  0  0  0  0  0  0
   38.5450   33.2860   49.7260 H   0  0  0  0  0  0  0  0  0  0  0  0
   39.8690   34.2550   47.7390 H   0  0  0  0  0  0  0  0  0  0  0  0
   36.8780   29.6850   51.6550 C   0  0  0  0  0  0  0  0  0  0  0  0
   37.7310   30.4370   50.8410 C   0  0  0  0  0  0  0  0  0  0  0  0
   37.2810   30.7740   49.5690 C   0  0  0  0  0  0  0  0  0  0  0  0
   36.0580   30.3630   49.1830 N   0  0  0  0  0  0  0  0  0  0  0  0
   35.2570   29.6440   49.9760 C   0  0  0  0  0  0  0  0  0  0  0  0
   35.6690   29.3070   51.2100 N   0  0  0  0  0  0  0  0  0  0  0  0
   37.2420   29.4340   52.6380 H   0  0  0  0  0  0  0  0  0  0  0  0
   38.7120   30.7800   51.1180 H   0  0  0  0  0  0  0  0  0  0  0  0
   34.2900   29.3550   49.5920 H   0  0  0  0  0  0  0  0  0  0  0  0
   40.1080   32.8220   45.2950 C   0  0  0  0  0  0  0  0  0  0  0  0
   40.1070   34.1770   44.9880 F   0  0  0  0  0  0  0  0  0  0  0  0
   39.5430   32.0360   44.3360 F   0  0  0  0  0  0  0  0  0  0  0  0
   41.4500   32.4880   45.4280 F   0  0  0  0  0  0  0  0  0  0  0  0
  1  2  2  0  0  0  0
  1 10  1  0  0  0  0
  2  6  1  0  0  0  0
  3  2  1  0  0  0  0
  4  5  1  0  0  0  0
  4  3  2  0  0  0  0
  5  1  1  0  0  0  0
  7  3  1  0  0  0  0
  8 14  1  0  0  0  0
  9 15  1  0  0  0  0
  9  8  2  0  0  0  0
 10  9  1  0  0  0  0
 11 10  2  0  0  0  0
 11 12  1  0  0  0  0
 12 13  2  0  0  0  0
 13  8  1  0  0  0  0
 16 12  1  0  0  0  0
 17 20  1  0  0  0  0
 17  4  1  0  0  0  0
 18 17  1  0  0  0  0
 19 17  1  0  0  0  0
M  END
>  <minimizedAffinity>
-5.46546078

>  <minimizedRMSD>
1.61263096

$$$$
