
 OpenBabel03272506473D

 37 39  0  0  1  0  0  0  0  0999 V2000
   32.2950   28.5030   47.3260 C   0  0  2  0  0  0  0  0  0  0  0  0
   33.5300   28.3570   48.1640 C   0  0  1  0  0  0  0  0  0  0  0  0
   33.9860   27.0800   48.0260 O   0  0  0  0  0  0  0  0  0  0  0  0
   33.3290   26.4720   46.9620 C   0  0  0  0  0  0  0  0  0  0  0  0
   32.6920   27.5660   46.1420 C   0  0  1  0  0  0  0  0  0  0  0  0
   31.3720   28.1390   47.7670 H   0  0  0  0  0  0  0  0  0  0  0  0
   33.3300   28.6700   49.2050 H   0  0  0  0  0  0  0  0  0  0  0  0
   32.6620   25.7390   47.3870 H   0  0  0  0  0  0  0  0  0  0  0  0
   34.0770   25.8950   46.3590 H   0  0  0  0  0  0  0  0  0  0  0  0
   33.3680   28.1310   45.5130 H   0  0  0  0  0  0  0  0  0  0  0  0
   32.1770   29.8210   46.8390 O   0  0  0  0  0  0  0  0  0  0  0  0
   31.2930   30.1950   46.9880 H   0  0  0  0  0  0  0  0  0  0  0  0
   34.8040   29.4910   47.4760 S   0  0  0  0  0  0  0  0  0  0  0  0
   37.1420   29.2890   50.6630 C   0  0  0  0  0  0  0  0  0  0  0  0
   37.6770   30.5730   50.8120 C   0  0  0  0  0  0  0  0  0  0  0  0
   37.2890   31.5440   49.8720 C   0  0  0  0  0  0  0  0  0  0  0  0
   36.4290   31.1910   48.8860 N   0  0  0  0  0  0  0  0  0  0  0  0
   35.9390   29.9340   48.7870 C   0  0  0  0  0  0  0  0  0  0  0  0
   36.2880   28.9650   49.6730 N   0  0  0  0  0  0  0  0  0  0  0  0
   37.4270   28.5280   51.3730 H   0  0  0  0  0  0  0  0  0  0  0  0
   38.3640   30.8270   51.6110 H   0  0  0  0  0  0  0  0  0  0  0  0
   37.6530   32.5500   49.9160 H   0  0  0  0  0  0  0  0  0  0  0  0
   31.5790   27.0640   45.5150 O   0  0  0  0  0  0  0  0  0  0  0  0
   30.0730   29.1950   44.1490 Cl  0  0  0  0  0  0  0  0  0  0  0  0
   29.5260   28.1030   45.3990 C   0  0  0  0  0  0  0  0  0  0  0  0
   30.3280   27.1330   45.9570 C   0  0  0  0  0  0  0  0  0  0  0  0
   29.7710   26.3030   46.9330 C   0  0  0  0  0  0  0  0  0  0  0  0
   28.4550   26.4570   47.3180 C   0  0  0  0  0  0  0  0  0  0  0  0
   27.6420   27.4310   46.7630 C   0  0  0  0  0  0  0  0  0  0  0  0
   28.2030   28.2560   45.7910 C   0  0  0  0  0  0  0  0  0  0  0  0
   30.3140   25.5140   47.4210 H   0  0  0  0  0  0  0  0  0  0  0  0
   27.9640   25.8520   48.0630 H   0  0  0  0  0  0  0  0  0  0  0  0
   26.6110   27.5620   47.0560 H   0  0  0  0  0  0  0  0  0  0  0  0
   27.3380   29.3030   45.1880 C   0  0  0  0  0  0  0  0  0  0  0  0
   27.8210   30.5760   45.4330 F   0  0  0  0  0  0  0  0  0  0  0  0
   26.0830   29.1890   45.7980 F   0  0  0  0  0  0  0  0  0  0  0  0
   27.1200   29.0870   43.8550 F   0  0  0  0  0  0  0  0  0  0  0  0
  1  6  1  1  0  0  0
  1  2  1  0  0  0  0
  2  7  1  1  0  0  0
  3  2  1  0  0  0  0
  4  8  1  0  0  0  0
  4  3  1  0  0  0  0
  5 10  1  6  0  0  0
  5  4  1  0  0  0  0
  5  1  1  0  0  0  0
  9  4  1  0  0  0  0
 11 12  1  0  0  0  0
 11  1  1  0  0  0  0
 13  2  1  0  0  0  0
 13 18  1  0  0  0  0
 14 15  1  0  0  0  0
 14 20  1  0  0  0  0
 15 21  1  0  0  0  0
 16 22  1  0  0  0  0
 16 15  2  0  0  0  0
 17 16  1  0  0  0  0
 18 17  2  0  0  0  0
 18 19  1  0  0  0  0
 19 14  2  0  0  0  0
 23 26  1  0  0  0  0
 23  5  1  0  0  0  0
 24 25  1  0  0  0  0
 25 30  2  0  0  0  0
 25 26  1  0  0  0  0
 26 27  2  0  0  0  0
 27 28  1  0  0  0  0
 27 31  1  0  0  0  0
 28 32  1  0  0  0  0
 29 33  1  0  0  0  0
 29 28  2  0  0  0  0
 30 29  1  0  0  0  0
 34 35  1  0  0  0  0
 34 30  1  0  0  0  0
 34 36  1  0  0  0  0
 37 34  1  0  0  0  0
M  END
>  <minimizedAffinity>
-4.72912264

>  <minimizedRMSD>
0.219647363

$$$$
