
 OpenBabel03272509393D

 25 26  0  0  1  0  0  0  0  0999 V2000
   38.4960   24.2160   35.4800 C   0  0  0  0  0  0  0  0  0  0  0  0
   38.5360   25.1000   34.3710 C   0  0  0  0  0  0  0  0  0  0  0  0
   38.4100   26.4880   34.5080 C   0  0  0  0  0  0  0  0  0  0  0  0
   38.2380   26.9870   35.8230 C   0  0  0  0  0  0  0  0  0  0  0  0
   38.2020   26.0830   36.8960 C   0  0  0  0  0  0  0  0  0  0  0  0
   38.3250   24.7240   36.7310 C   0  0  0  0  0  0  0  0  0  0  0  0
   38.6710   24.6740   33.3860 H   0  0  0  0  0  0  0  0  0  0  0  0
   38.4530   27.0530   33.6120 H   0  0  0  0  0  0  0  0  0  0  0  0
   38.1510   28.0430   35.8630 H   0  0  0  0  0  0  0  0  0  0  0  0
   38.0680   26.6310   37.7990 H   0  0  0  0  0  0  0  0  0  0  0  0
   38.1780   24.0190   38.0120 C   0  0  0  0  0  0  0  0  0  0  0  0
   37.2380   23.0720   38.1460 F   0  0  0  0  0  0  0  0  0  0  0  0
   37.9840   24.9650   39.0530 F   0  0  0  0  0  0  0  0  0  0  0  0
   39.3580   23.3970   38.4340 F   0  0  0  0  0  0  0  0  0  0  0  0
   38.6540   22.7940   35.1940 C   0  0  1  0  0  3  0  0  0  0  0  0
   39.8140   22.3220   35.4930 O   0  0  0  0  0  1  0  0  0  0  0  0
   35.6810   20.7220   35.1220 C   0  0  0  0  0  0  0  0  0  0  0  0
   35.5640   20.3480   33.7920 C   0  0  0  0  0  0  0  0  0  0  0  0
   36.5270   20.7930   32.8770 C   0  0  0  0  0  0  0  0  0  0  0  0
   37.5610   21.5900   33.3250 N   0  0  0  0  0  0  0  0  0  0  0  0
   37.6320   21.9290   34.6260 C   0  0  0  0  0  0  0  0  0  0  0  0
   36.6960   21.4910   35.5030 N   0  0  0  0  0  0  0  0  0  0  0  0
   34.9570   20.3910   35.8260 H   0  0  0  0  0  0  0  0  0  0  0  0
   34.7310   19.7220   33.4950 H   0  0  0  0  0  0  0  0  0  0  0  0
   36.4590   20.5150   31.8450 H   0  0  0  0  0  0  0  0  0  0  0  0
  1  6  1  0  0  0  0
  2  3  1  0  0  0  0
  2  1  2  0  0  0  0
  3  4  2  0  0  0  0
  4  9  1  0  0  0  0
  4  5  1  0  0  0  0
  5 10  1  0  0  0  0
  6  5  2  0  0  0  0
  6 11  1  0  0  0  0
  7  2  1  0  0  0  0
  8  3  1  0  0  0  0
 11 12  1  0  0  0  0
 11 14  1  0  0  0  0
 11 13  1  0  0  0  0
 15  1  1  0  0  0  0
 15 16  1  1  0  0  0
 17 22  1  0  0  0  0
 17 23  1  0  0  0  0
 18 17  2  0  0  0  0
 19 20  2  0  0  0  0
 19 18  1  0  0  0  0
 20 21  1  0  0  0  0
 21 15  1  0  0  0  0
 21 22  2  0  0  0  0
 24 18  1  0  0  0  0
 25 19  1  0  0  0  0
M  END
>  <minimizedAffinity>
-5.35029936

$$$$

 OpenBabel03272509393D

 25 26  0  0  1  0  0  0  0  0999 V2000
   38.7860   27.1550   33.0620 C   0  0  0  0  0  0  0  0  0  0  0  0
   39.9320   27.1370   32.2270 C   0  0  0  0  0  0  0  0  0  0  0  0
   41.2320   27.0110   32.7330 C   0  0  0  0  0  0  0  0  0  0  0  0
   41.3620   26.8990   34.1400 C   0  0  0  0  0  0  0  0  0  0  0  0
   40.2050   26.9210   34.9340 C   0  0  0  0  0  0  0  0  0  0  0  0
   38.9410   27.0490   34.4090 C   0  0  0  0  0  0  0  0  0  0  0  0
   39.7850   27.2240   31.1580 H   0  0  0  0  0  0  0  0  0  0  0  0
   42.0150   27.0120   32.0190 H   0  0  0  0  0  0  0  0  0  0  0  0
   42.3680   26.8050   34.4620 H   0  0  0  0  0  0  0  0  0  0  0  0
   40.4910   26.8260   35.9560 H   0  0  0  0  0  0  0  0  0  0  0  0
   37.9300   27.1150   35.4730 C   0  0  0  0  0  0  0  0  0  0  0  0
   36.9030   26.2530   35.4710 F   0  0  0  0  0  0  0  0  0  0  0  0
   37.3880   28.4270   35.5310 F   0  0  0  0  0  0  0  0  0  0  0  0
   38.4770   26.9970   36.7570 F   0  0  0  0  0  0  0  0  0  0  0  0
   37.4910   27.2770   32.3990 C   0  0  1  0  0  3  0  0  0  0  0  0
   37.0800   28.4890   32.2640 O   0  0  0  0  0  1  0  0  0  0  0  0
   36.4640   23.8310   31.9380 C   0  0  0  0  0  0  0  0  0  0  0  0
   35.3090   23.9240   31.1760 C   0  0  0  0  0  0  0  0  0  0  0  0
   34.8570   25.1910   30.7850 C   0  0  0  0  0  0  0  0  0  0  0  0
   35.5720   26.3070   31.1680 N   0  0  0  0  0  0  0  0  0  0  0  0
   36.6870   26.1680   31.9090 C   0  0  0  0  0  0  0  0  0  0  0  0
   37.1170   24.9370   32.2800 N   0  0  0  0  0  0  0  0  0  0  0  0
   36.8180   22.8760   32.2400 H   0  0  0  0  0  0  0  0  0  0  0  0
   34.7860   23.0150   30.9040 H   0  0  0  0  0  0  0  0  0  0  0  0
   33.9680   25.2880   30.1940 H   0  0  0  0  0  0  0  0  0  0  0  0
  1  6  1  0  0  0  0
  2  3  1  0  0  0  0
  2  1  2  0  0  0  0
  3  4  2  0  0  0  0
  4  9  1  0  0  0  0
  4  5  1  0  0  0  0
  5 10  1  0  0  0  0
  6  5  2  0  0  0  0
  6 11  1  0  0  0  0
  7  2  1  0  0  0  0
  8  3  1  0  0  0  0
 11 13  1  0  0  0  0
 11 14  1  0  0  0  0
 12 11  1  0  0  0  0
 15 16  1  6  0  0  0
 15  1  1  0  0  0  0
 17 23  1  0  0  0  0
 17 22  1  0  0  0  0
 18 17  2  0  0  0  0
 19 20  2  0  0  0  0
 19 18  1  0  0  0  0
 20 21  1  0  0  0  0
 21 22  2  0  0  0  0
 21 15  1  0  0  0  0
 24 18  1  0  0  0  0
 25 19  1  0  0  0  0
M  END
>  <minimizedAffinity>
-5.28701639

$$$$

 OpenBabel03272509393D

 25 26  0  0  1  0  0  0  0  0999 V2000
   38.2510   24.4200   34.7260 C   0  0  0  0  0  0  0  0  0  0  0  0
   38.2410   23.0180   34.9390 C   0  0  0  0  0  0  0  0  0  0  0  0
   38.2050   22.4510   36.2190 C   0  0  0  0  0  0  0  0  0  0  0  0
   38.1760   23.3480   37.3160 C   0  0  0  0  0  0  0  0  0  0  0  0
   38.1870   24.7290   37.0660 C   0  0  0  0  0  0  0  0  0  0  0  0
   38.2270   25.2580   35.7970 C   0  0  0  0  0  0  0  0  0  0  0  0
   38.2630   22.3710   34.0720 H   0  0  0  0  0  0  0  0  0  0  0  0
   38.2030   21.3910   36.2620 H   0  0  0  0  0  0  0  0  0  0  0  0
   38.1460   22.8600   38.2560 H   0  0  0  0  0  0  0  0  0  0  0  0
   38.1610   25.2440   37.9970 H   0  0  0  0  0  0  0  0  0  0  0  0
   38.3040   26.7250   35.8380 C   0  0  0  0  0  0  0  0  0  0  0  0
   39.3380   27.3530   35.2590 F   0  0  0  0  0  0  0  0  0  0  0  0
   38.2350   27.1660   37.1860 F   0  0  0  0  0  0  0  0  0  0  0  0
   37.1740   27.3480   35.2950 F   0  0  0  0  0  0  0  0  0  0  0  0
   38.2760   24.8750   33.3390 C   0  0  1  0  0  3  0  0  0  0  0  0
   39.4500   25.1710   32.9020 O   0  0  0  0  0  1  0  0  0  0  0  0
   35.7180   26.5460   31.3890 C   0  0  0  0  0  0  0  0  0  0  0  0
   35.0060   25.5070   30.8090 C   0  0  0  0  0  0  0  0  0  0  0  0
   35.3830   24.1890   31.0900 C   0  0  0  0  0  0  0  0  0  0  0  0
   36.4520   23.9610   31.9340 N   0  0  0  0  0  0  0  0  0  0  0  0
   37.1150   25.0010   32.4720 C   0  0  0  0  0  0  0  0  0  0  0  0
   36.7400   26.2740   32.1950 N   0  0  0  0  0  0  0  0  0  0  0  0
   35.4420   27.5510   31.1840 H   0  0  0  0  0  0  0  0  0  0  0  0
   34.1760   25.7440   30.1540 H   0  0  0  0  0  0  0  0  0  0  0  0
   34.8460   23.3690   30.6560 H   0  0  0  0  0  0  0  0  0  0  0  0
  1  2  2  0  0  0  0
  1  6  1  0  0  0  0
  2  3  1  0  0  0  0
  3  8  1  0  0  0  0
  3  4  2  0  0  0  0
  4  9  1  0  0  0  0
  5  4  1  0  0  0  0
  5 10  1  0  0  0  0
  6 11  1  0  0  0  0
  6  5  2  0  0  0  0
  7  2  1  0  0  0  0
 11 13  1  0  0  0  0
 12 11  1  0  0  0  0
 14 11  1  0  0  0  0
 15 16  1  6  0  0  0
 15  1  1  0  0  0  0
 17 22  1  0  0  0  0
 18 19  1  0  0  0  0
 18 17  2  0  0  0  0
 19 20  2  0  0  0  0
 20 21  1  0  0  0  0
 21 15  1  0  0  0  0
 22 21  2  0  0  0  0
 23 17  1  0  0  0  0
 24 18  1  0  0  0  0
 25 19  1  0  0  0  0
M  END
>  <minimizedAffinity>
-5.12242746

$$$$

 OpenBabel03272509393D

 25 26  0  0  1  0  0  0  0  0999 V2000
   38.9380   23.9940   35.7480 C   0  0  0  0  0  0  0  0  0  0  0  0
   39.1500   24.7740   34.5820 C   0  0  0  0  0  0  0  0  0  0  0  0
   38.9060   26.1530   34.5430 C   0  0  0  0  0  0  0  0  0  0  0  0
   38.4320   26.7520   35.7360 C   0  0  0  0  0  0  0  0  0  0  0  0
   38.2340   25.9480   36.8700 C   0  0  0  0  0  0  0  0  0  0  0  0
   38.4790   24.5960   36.8780 C   0  0  0  0  0  0  0  0  0  0  0  0
   39.5150   24.2740   33.6950 H   0  0  0  0  0  0  0  0  0  0  0  0
   39.0970   26.6360   33.6190 H   0  0  0  0  0  0  0  0  0  0  0  0
   38.2680   27.7960   35.6450 H   0  0  0  0  0  0  0  0  0  0  0  0
   37.8790   26.5620   37.6650 H   0  0  0  0  0  0  0  0  0  0  0  0
   38.1150   24.0000   38.1710 C   0  0  0  0  0  0  0  0  0  0  0  0
   37.2460   22.9790   38.2130 F   0  0  0  0  0  0  0  0  0  0  0  0
   37.6290   25.0130   39.0390 F   0  0  0  0  0  0  0  0  0  0  0  0
   39.2230   23.5400   38.8930 F   0  0  0  0  0  0  0  0  0  0  0  0
   39.2470   22.5710   35.6520 C   0  0  1  0  0  3  0  0  0  0  0  0
   38.2590   21.8410   35.2670 O   0  0  0  0  0  1  0  0  0  0  0  0
   42.5760   21.2950   35.0000 C   0  0  0  0  0  0  0  0  0  0  0  0
   43.0420   20.9160   36.2500 C   0  0  0  0  0  0  0  0  0  0  0  0
   42.2050   21.0790   37.3610 C   0  0  0  0  0  0  0  0  0  0  0  0
   40.9450   21.6110   37.1810 N   0  0  0  0  0  0  0  0  0  0  0  0
   40.5360   21.9660   35.9480 C   0  0  0  0  0  0  0  0  0  0  0  0
   41.3540   21.8020   34.8790 N   0  0  0  0  0  0  0  0  0  0  0  0
   43.2010   21.1760   34.1490 H   0  0  0  0  0  0  0  0  0  0  0  0
   44.0410   20.5050   36.3340 H   0  0  0  0  0  0  0  0  0  0  0  0
   42.5420   20.7920   38.3370 H   0  0  0  0  0  0  0  0  0  0  0  0
  1  6  1  0  0  0  0
  2  1  2  0  0  0  0
  3  2  1  0  0  0  0
  3  4  2  0  0  0  0
  4  5  1  0  0  0  0
  5  6  2  0  0  0  0
  5 10  1  0  0  0  0
  6 11  1  0  0  0  0
  7  2  1  0  0  0  0
  8  3  1  0  0  0  0
  9  4  1  0  0  0  0
 11 12  1  0  0  0  0
 11 14  1  0  0  0  0
 11 13  1  0  0  0  0
 15 16  1  6  0  0  0
 15  1  1  0  0  0  0
 15 21  1  0  0  0  0
 17 18  1  0  0  0  0
 18 24  1  0  0  0  0
 18 19  2  0  0  0  0
 19 25  1  0  0  0  0
 20 19  1  0  0  0  0
 21 20  2  0  0  0  0
 22 17  2  0  0  0  0
 22 21  1  0  0  0  0
 23 17  1  0  0  0  0
M  END
>  <minimizedAffinity>
-5.00719118

$$$$

 OpenBabel03272509393D

 25 26  0  0  1  0  0  0  0  0999 V2000
   39.4530   23.4390   35.6000 C   0  0  0  0  0  0  0  0  0  0  0  0
   40.7250   23.2630   34.9980 C   0  0  0  0  0  0  0  0  0  0  0  0
   41.8400   22.8070   35.7110 C   0  0  0  0  0  0  0  0  0  0  0  0
   41.6470   22.5200   37.0850 C   0  0  0  0  0  0  0  0  0  0  0  0
   40.3740   22.7070   37.6470 C   0  0  0  0  0  0  0  0  0  0  0  0
   39.2970   23.1600   36.9220 C   0  0  0  0  0  0  0  0  0  0  0  0
   40.8250   23.4930   33.9450 H   0  0  0  0  0  0  0  0  0  0  0  0
   42.7420   22.7140   35.1610 H   0  0  0  0  0  0  0  0  0  0  0  0
   42.5250   22.1770   37.5700 H   0  0  0  0  0  0  0  0  0  0  0  0
   40.4150   22.4430   38.6780 H   0  0  0  0  0  0  0  0  0  0  0  0
   38.1160   23.3290   37.7800 C   0  0  0  0  0  0  0  0  0  0  0  0
   36.9290   22.8510   37.3800 F   0  0  0  0  0  0  0  0  0  0  0  0
   37.9440   24.7060   38.0820 F   0  0  0  0  0  0  0  0  0  0  0  0
   38.2890   22.7950   39.0630 F   0  0  0  0  0  0  0  0  0  0  0  0
   38.3740   23.9080   34.7360 C   0  0  1  0  0  3  0  0  0  0  0  0
   37.7600   22.9700   34.1030 O   0  0  0  0  0  1  0  0  0  0  0  0
   36.9060   26.7910   33.1030 C   0  0  0  0  0  0  0  0  0  0  0  0
   37.0650   27.8160   34.0240 C   0  0  0  0  0  0  0  0  0  0  0  0
   37.7020   27.5400   35.2400 C   0  0  0  0  0  0  0  0  0  0  0  0
   38.1530   26.2590   35.4860 N   0  0  0  0  0  0  0  0  0  0  0  0
   37.9750   25.2950   34.5630 C   0  0  0  0  0  0  0  0  0  0  0  0
   37.3580   25.5740   33.3880 N   0  0  0  0  0  0  0  0  0  0  0  0
   36.4240   26.9880   32.1770 H   0  0  0  0  0  0  0  0  0  0  0  0
   36.6900   28.8030   33.7790 H   0  0  0  0  0  0  0  0  0  0  0  0
   37.8380   28.3160   35.9660 H   0  0  0  0  0  0  0  0  0  0  0  0
  1  6  1  0  0  0  0
  2  1  2  0  0  0  0
  2  3  1  0  0  0  0
  3  4  2  0  0  0  0
  4  9  1  0  0  0  0
  4  5  1  0  0  0  0
  5 10  1  0  0  0  0
  6  5  2  0  0  0  0
  6 11  1  0  0  0  0
  7  2  1  0  0  0  0
  8  3  1  0  0  0  0
 11 13  1  0  0  0  0
 11 14  1  0  0  0  0
 12 11  1  0  0  0  0
 15 16  1  1  0  0  0
 15  1  1  0  0  0  0
 17 22  2  0  0  0  0
 17 18  1  0  0  0  0
 18 19  2  0  0  0  0
 19 20  1  0  0  0  0
 19 25  1  0  0  0  0
 21 15  1  0  0  0  0
 21 20  2  0  0  0  0
 22 21  1  0  0  0  0
 23 17  1  0  0  0  0
 24 18  1  0  0  0  0
M  END
>  <minimizedAffinity>
-4.99359798

$$$$

 OpenBabel03272509393D

 25 26  0  0  1  0  0  0  0  0999 V2000
   39.5920   22.6950   35.5350 C   0  0  0  0  0  0  0  0  0  0  0  0
   40.7140   22.0450   34.9600 C   0  0  0  0  0  0  0  0  0  0  0  0
   41.7840   21.5680   35.7280 C   0  0  0  0  0  0  0  0  0  0  0  0
   41.7020   21.7620   37.1290 C   0  0  0  0  0  0  0  0  0  0  0  0
   40.5770   22.4100   37.6620 C   0  0  0  0  0  0  0  0  0  0  0  0
   39.5420   22.8710   36.8830 C   0  0  0  0  0  0  0  0  0  0  0  0
   40.7330   21.9170   33.8860 H   0  0  0  0  0  0  0  0  0  0  0  0
   42.5710   21.0990   35.1940 H   0  0  0  0  0  0  0  0  0  0  0  0
   42.5390   21.3780   37.6560 H   0  0  0  0  0  0  0  0  0  0  0  0
   40.6850   22.4660   38.7200 H   0  0  0  0  0  0  0  0  0  0  0  0
   38.5380   23.5700   37.6970 C   0  0  0  0  0  0  0  0  0  0  0  0
   38.2010   24.8330   37.3980 F   0  0  0  0  0  0  0  0  0  0  0  0
   38.9310   23.5430   39.0610 F   0  0  0  0  0  0  0  0  0  0  0  0
   37.3150   22.8920   37.7590 F   0  0  0  0  0  0  0  0  0  0  0  0
   38.5430   23.1290   34.6190 C   0  0  1  0  0  3  0  0  0  0  0  0
   38.6650   24.3460   34.2150 O   0  0  0  0  0  1  0  0  0  0  0  0
   36.1220   21.7680   32.2900 C   0  0  0  0  0  0  0  0  0  0  0  0
   35.4210   20.8350   33.0400 C   0  0  0  0  0  0  0  0  0  0  0  0
   35.7590   20.6600   34.3880 C   0  0  0  0  0  0  0  0  0  0  0  0
   36.7780   21.4180   34.9290 N   0  0  0  0  0  0  0  0  0  0  0  0
   37.4310   22.3100   34.1620 C   0  0  0  0  0  0  0  0  0  0  0  0
   37.0940   22.4740   32.8580 N   0  0  0  0  0  0  0  0  0  0  0  0
   35.8750   21.9110   31.2670 H   0  0  0  0  0  0  0  0  0  0  0  0
   34.6320   20.2670   32.5640 H   0  0  0  0  0  0  0  0  0  0  0  0
   35.2310   19.9470   34.9880 H   0  0  0  0  0  0  0  0  0  0  0  0
  1  6  1  0  0  0  0
  2  1  2  0  0  0  0
  2  3  1  0  0  0  0
  3  4  2  0  0  0  0
  4  9  1  0  0  0  0
  4  5  1  0  0  0  0
  5 10  1  0  0  0  0
  6  5  2  0  0  0  0
  6 11  1  0  0  0  0
  7  2  1  0  0  0  0
  8  3  1  0  0  0  0
 11 14  1  0  0  0  0
 11 13  1  0  0  0  0
 12 11  1  0  0  0  0
 15 16  1  6  0  0  0
 15  1  1  0  0  0  0
 17 22  2  0  0  0  0
 17 18  1  0  0  0  0
 18 19  2  0  0  0  0
 19 20  1  0  0  0  0
 19 25  1  0  0  0  0
 21 15  1  0  0  0  0
 21 20  2  0  0  0  0
 22 21  1  0  0  0  0
 23 17  1  0  0  0  0
 24 18  1  0  0  0  0
M  END
>  <minimizedAffinity>
-4.98021793

$$$$

 OpenBabel03272509393D

 25 26  0  0  1  0  0  0  0  0999 V2000
   37.4730   22.5720   32.9560 C   0  0  0  0  0  0  0  0  0  0  0  0
   37.7450   23.8370   32.3750 C   0  0  0  0  0  0  0  0  0  0  0  0
   36.8580   24.4670   31.4930 C   0  0  0  0  0  0  0  0  0  0  0  0
   35.6540   23.7810   31.1980 C   0  0  0  0  0  0  0  0  0  0  0  0
   35.4200   22.5300   31.7920 C   0  0  0  0  0  0  0  0  0  0  0  0
   36.3110   21.9340   32.6520 C   0  0  0  0  0  0  0  0  0  0  0  0
   38.6760   24.3250   32.6310 H   0  0  0  0  0  0  0  0  0  0  0  0
   37.1630   25.4100   31.1170 H   0  0  0  0  0  0  0  0  0  0  0  0
   35.0240   24.3080   30.5280 H   0  0  0  0  0  0  0  0  0  0  0  0
   34.4750   22.1670   31.4590 H   0  0  0  0  0  0  0  0  0  0  0  0
   35.8410   20.6030   33.0600 C   0  0  0  0  0  0  0  0  0  0  0  0
   36.5710   19.5180   32.7600 F   0  0  0  0  0  0  0  0  0  0  0  0
   34.5290   20.3890   32.5600 F   0  0  0  0  0  0  0  0  0  0  0  0
   35.6200   20.4990   34.4390 F   0  0  0  0  0  0  0  0  0  0  0  0
   38.4780   22.0370   33.8690 C   0  0  1  0  0  3  0  0  0  0  0  0
   39.2770   21.1820   33.3330 O   0  0  0  0  0  1  0  0  0  0  0  0
   40.1450   22.5010   37.0550 C   0  0  0  0  0  0  0  0  0  0  0  0
   39.1690   23.0630   37.8650 C   0  0  0  0  0  0  0  0  0  0  0  0
   37.8940   23.2870   37.3330 C   0  0  0  0  0  0  0  0  0  0  0  0
   37.6440   22.9420   36.0200 N   0  0  0  0  0  0  0  0  0  0  0  0
   38.6220   22.4000   35.2710 C   0  0  0  0  0  0  0  0  0  0  0  0
   39.8530   22.1850   35.7970 N   0  0  0  0  0  0  0  0  0  0  0  0
   41.1160   22.3250   37.4470 H   0  0  0  0  0  0  0  0  0  0  0  0
   39.4210   23.3160   38.8890 H   0  0  0  0  0  0  0  0  0  0  0  0
   37.1240   23.7190   37.9400 H   0  0  0  0  0  0  0  0  0  0  0  0
  1 15  1  0  0  0  0
  2  7  1  0  0  0  0
  2  1  2  0  0  0  0
  3  2  1  0  0  0  0
  4  3  2  0  0  0  0
  4  5  1  0  0  0  0
  5  6  2  0  0  0  0
  6  1  1  0  0  0  0
  6 11  1  0  0  0  0
  8  3  1  0  0  0  0
  9  4  1  0  0  0  0
 10  5  1  0  0  0  0
 11 14  1  0  0  0  0
 12 11  1  0  0  0  0
 13 11  1  0  0  0  0
 15 16  1  6  0  0  0
 15 21  1  0  0  0  0
 17 23  1  0  0  0  0
 17 18  1  0  0  0  0
 18 24  1  0  0  0  0
 19 18  2  0  0  0  0
 19 25  1  0  0  0  0
 20 19  1  0  0  0  0
 21 22  1  0  0  0  0
 21 20  2  0  0  0  0
 22 17  2  0  0  0  0
M  END
>  <minimizedAffinity>
-4.93159389

$$$$

 OpenBabel03272509393D

 25 26  0  0  1  0  0  0  0  0999 V2000
   39.8530   23.9480   35.7810 C   0  0  0  0  0  0  0  0  0  0  0  0
   41.1370   23.6270   35.2710 C   0  0  0  0  0  0  0  0  0  0  0  0
   42.0130   22.7540   35.9290 C   0  0  0  0  0  0  0  0  0  0  0  0
   41.5580   22.1900   37.1470 C   0  0  0  0  0  0  0  0  0  0  0  0
   40.2810   22.5320   37.6210 C   0  0  0  0  0  0  0  0  0  0  0  0
   39.4450   23.3950   36.9550 C   0  0  0  0  0  0  0  0  0  0  0  0
   41.4420   24.0800   34.3370 H   0  0  0  0  0  0  0  0  0  0  0  0
   42.9480   22.5860   35.4590 H   0  0  0  0  0  0  0  0  0  0  0  0
   42.2620   21.5370   37.5960 H   0  0  0  0  0  0  0  0  0  0  0  0
   40.1100   22.0190   38.5390 H   0  0  0  0  0  0  0  0  0  0  0  0
   38.2090   23.6260   37.7150 C   0  0  0  0  0  0  0  0  0  0  0  0
   37.0240   23.3140   37.1700 F   0  0  0  0  0  0  0  0  0  0  0  0
   38.1490   24.9860   38.1210 F   0  0  0  0  0  0  0  0  0  0  0  0
   38.1990   22.9780   38.9560 F   0  0  0  0  0  0  0  0  0  0  0  0
   39.0390   24.8620   34.9860 C   0  0  1  0  0  3  0  0  0  0  0  0
   39.1900   26.1040   35.2890 O   0  0  0  0  0  1  0  0  0  0  0  0
   36.6490   25.2930   32.2950 C   0  0  0  0  0  0  0  0  0  0  0  0
   36.4000   24.0010   31.8570 C   0  0  0  0  0  0  0  0  0  0  0  0
   37.0460   22.9340   32.4940 C   0  0  0  0  0  0  0  0  0  0  0  0
   37.9100   23.1990   33.5370 N   0  0  0  0  0  0  0  0  0  0  0  0
   38.1220   24.4690   33.9270 C   0  0  0  0  0  0  0  0  0  0  0  0
   37.4890   25.4950   33.3050 N   0  0  0  0  0  0  0  0  0  0  0  0
   36.1650   26.1100   31.8210 H   0  0  0  0  0  0  0  0  0  0  0  0
   35.7130   23.8510   31.0320 H   0  0  0  0  0  0  0  0  0  0  0  0
   36.8680   21.9270   32.1740 H   0  0  0  0  0  0  0  0  0  0  0  0
  1  6  1  0  0  0  0
  2  1  2  0  0  0  0
  2  3  1  0  0  0  0
  3  4  2  0  0  0  0
  4  9  1  0  0  0  0
  4  5  1  0  0  0  0
  5 10  1  0  0  0  0
  6  5  2  0  0  0  0
  6 11  1  0  0  0  0
  7  2  1  0  0  0  0
  8  3  1  0  0  0  0
 11 13  1  0  0  0  0
 11 14  1  0  0  0  0
 12 11  1  0  0  0  0
 15 16  1  6  0  0  0
 15  1  1  0  0  0  0
 17 22  1  0  0  0  0
 18 17  2  0  0  0  0
 18 19  1  0  0  0  0
 19 20  2  0  0  0  0
 20 21  1  0  0  0  0
 21 15  1  0  0  0  0
 22 21  2  0  0  0  0
 23 17  1  0  0  0  0
 24 18  1  0  0  0  0
 25 19  1  0  0  0  0
M  END
>  <minimizedAffinity>
-4.93144417

$$$$

 OpenBabel03272509393D

 25 26  0  0  1  0  0  0  0  0999 V2000
   38.6460   27.0550   32.9540 C   0  0  0  0  0  0  0  0  0  0  0  0
   39.7630   27.0560   32.0790 C   0  0  0  0  0  0  0  0  0  0  0  0
   41.0840   27.0340   32.5440 C   0  0  0  0  0  0  0  0  0  0  0  0
   41.2670   27.0090   33.9490 C   0  0  0  0  0  0  0  0  0  0  0  0
   40.1380   27.0090   34.7830 C   0  0  0  0  0  0  0  0  0  0  0  0
   38.8520   27.0340   34.2980 C   0  0  0  0  0  0  0  0  0  0  0  0
   39.5750   27.0740   31.0140 H   0  0  0  0  0  0  0  0  0  0  0  0
   41.8420   27.0390   31.8020 H   0  0  0  0  0  0  0  0  0  0  0  0
   42.2870   26.9900   34.2390 H   0  0  0  0  0  0  0  0  0  0  0  0
   40.4630   26.9880   35.7970 H   0  0  0  0  0  0  0  0  0  0  0  0
   37.8750   27.1030   35.3930 C   0  0  0  0  0  0  0  0  0  0  0  0
   36.8820   26.2040   35.4570 F   0  0  0  0  0  0  0  0  0  0  0  0
   37.2860   28.3950   35.4230 F   0  0  0  0  0  0  0  0  0  0  0  0
   38.4680   27.0520   36.6610 F   0  0  0  0  0  0  0  0  0  0  0  0
   37.3250   27.0650   32.3340 C   0  0  1  0  0  3  0  0  0  0  0  0
   36.8010   25.8980   32.1900 O   0  0  0  0  0  1  0  0  0  0  0  0
   34.7720   29.6380   32.3700 C   0  0  0  0  0  0  0  0  0  0  0  0
   35.1260   30.4770   31.3240 C   0  0  0  0  0  0  0  0  0  0  0  0
   36.2580   30.1670   30.5610 C   0  0  0  0  0  0  0  0  0  0  0  0
   36.9890   29.0370   30.8720 N   0  0  0  0  0  0  0  0  0  0  0  0
   36.6080   28.2530   31.8970 C   0  0  0  0  0  0  0  0  0  0  0  0
   35.5080   28.5620   32.6280 N   0  0  0  0  0  0  0  0  0  0  0  0
   33.9140   29.8620   32.9550 H   0  0  0  0  0  0  0  0  0  0  0  0
   34.5170   31.3520   31.1250 H   0  0  0  0  0  0  0  0  0  0  0  0
   36.5510   30.7990   29.7470 H   0  0  0  0  0  0  0  0  0  0  0  0
  1  6  1  0  0  0  0
  2  3  1  0  0  0  0
  2  1  2  0  0  0  0
  3  4  2  0  0  0  0
  4  9  1  0  0  0  0
  4  5  1  0  0  0  0
  5 10  1  0  0  0  0
  6  5  2  0  0  0  0
  6 11  1  0  0  0  0
  7  2  1  0  0  0  0
  8  3  1  0  0  0  0
 11 13  1  0  0  0  0
 11 12  1  0  0  0  0
 11 14  1  0  0  0  0
 15 16  1  1  0  0  0
 15  1  1  0  0  0  0
 17 22  1  0  0  0  0
 17 23  1  0  0  0  0
 18 17  2  0  0  0  0
 19 20  2  0  0  0  0
 19 18  1  0  0  0  0
 20 21  1  0  0  0  0
 21 15  1  0  0  0  0
 21 22  2  0  0  0  0
 24 18  1  0  0  0  0
 25 19  1  0  0  0  0
M  END
>  <minimizedAffinity>
-4.78707075

$$$$
