
 OpenBabel03272505203D

 43 45  0  0  1  0  0  0  0  0999 V2000
   36.9320   30.1900   49.8230 C   0  0  0  0  0  0  0  0  0  0  0  0
   37.9190   30.7320   48.9680 C   0  0  0  0  0  0  0  0  0  0  0  0
   37.7740   30.6850   47.5840 C   0  0  0  0  0  0  0  0  0  0  0  0
   36.6210   30.0810   47.1930 N   0  0  0  0  0  0  0  0  0  0  0  0
   35.6830   29.5680   47.9840 C   0  0  0  0  0  0  0  0  0  0  0  0
   35.8440   29.6250   49.3130 N   0  0  0  0  0  0  0  0  0  0  0  0
   34.5240   28.9660   47.4030 N   0  0  0  0  0  0  0  0  0  0  0  0
   33.8300   27.8870   48.0820 C   0  0  0  0  0  0  0  0  0  0  0  0
   33.9330   26.6900   47.1250 C   0  0  0  0  0  0  0  0  0  0  0  0
   33.1990   27.0560   45.8720 C   0  0  0  0  0  0  0  0  0  0  0  0
   33.8360   28.2540   45.2050 C   0  0  0  0  0  0  0  0  0  0  0  0
   34.0190   29.4140   46.1340 C   0  0  1  0  0  0  0  0  0  0  0  0
   37.0450   30.2270   50.8960 H   0  0  0  0  0  0  0  0  0  0  0  0
   38.7610   31.1670   49.4870 H   0  0  0  0  0  0  0  0  0  0  0  0
   32.7450   28.0570   48.1970 H   0  0  0  0  0  0  0  0  0  0  0  0
   34.2440   27.6650   49.0770 H   0  0  0  0  0  0  0  0  0  0  0  0
   33.4660   25.8460   47.6290 H   0  0  0  0  0  0  0  0  0  0  0  0
   35.0030   26.5810   46.9250 H   0  0  0  0  0  0  0  0  0  0  0  0
   33.3610   26.2020   45.1520 H   0  0  0  0  0  0  0  0  0  0  0  0
   32.1240   27.1530   46.0280 H   0  0  0  0  0  0  0  0  0  0  0  0
   34.8110   27.9800   44.7870 H   0  0  0  0  0  0  0  0  0  0  0  0
   33.1720   28.5370   44.3590 H   0  0  0  0  0  0  0  0  0  0  0  0
   34.7870   30.0890   45.6650 H   0  0  0  0  0  0  0  0  0  0  0  0
   39.2860   32.5050   47.0940 C   0  0  0  0  0  0  0  0  0  0  0  0
   38.8240   31.2560   46.7980 C   0  0  0  0  0  0  0  0  0  0  0  0
   39.4180   30.6180   45.7310 C   0  0  0  0  0  0  0  0  0  0  0  0
   40.3970   31.1550   44.9980 C   0  0  0  0  0  0  0  0  0  0  0  0
   40.8850   32.4240   45.2800 C   0  0  0  0  0  0  0  0  0  0  0  0
   40.3060   33.0790   46.3410 C   0  0  0  0  0  0  0  0  0  0  0  0
   39.0570   29.6210   45.4860 H   0  0  0  0  0  0  0  0  0  0  0  0
   40.8190   30.5990   44.1740 H   0  0  0  0  0  0  0  0  0  0  0  0
   41.6790   32.8560   44.6850 H   0  0  0  0  0  0  0  0  0  0  0  0
   40.7200   34.0670   46.5220 H   0  0  0  0  0  0  0  0  0  0  0  0
   39.6000   34.3170   48.6210 N   0  0  0  0  0  0  0  0  0  0  0  0
   38.8250   33.3580   48.1540 C   0  0  0  0  0  0  0  0  0  0  0  0
   37.7560   33.6300   49.0100 N   0  0  0  0  0  0  0  0  0  0  0  0
   39.2620   34.9410   49.3860 H   0  0  0  0  0  0  0  0  0  0  0  0
   37.0100   34.3530   48.8240 H   0  0  0  0  0  0  0  0  0  0  0  0
   37.5910   33.1310   49.9350 H   0  0  0  0  0  0  0  0  0  0  0  0
   32.7550   30.2170   46.2200 C   0  0  0  0  0  0  0  0  0  0  0  0
   31.7580   29.4250   46.7980 F   0  0  0  0  0  0  0  0  0  0  0  0
   32.2710   30.5240   44.9500 F   0  0  0  0  0  0  0  0  0  0  0  0
   32.8670   31.3640   46.9440 F   0  0  0  0  0  0  0  0  0  0  0  0
  1 13  1  0  0  0  0
  2 14  1  0  0  0  0
  2  1  2  0  0  0  0
  3  2  1  0  0  0  0
  4  3  2  0  0  0  0
  4  5  1  0  0  0  0
  5  6  2  0  0  0  0
  6  1  1  0  0  0  0
  7  5  1  0  0  0  0
  7  8  1  0  0  0  0
  8 15  1  0  0  0  0
  8 16  1  0  0  0  0
  9 17  1  0  0  0  0
  9  8  1  0  0  0  0
 10 20  1  0  0  0  0
 10  9  1  0  0  0  0
 11 10  1  0  0  0  0
 11 12  1  0  0  0  0
 12 23  1  6  0  0  0
 12 40  1  0  0  0  0
 12  7  1  0  0  0  0
 18  9  1  0  0  0  0
 19 10  1  0  0  0  0
 21 11  1  0  0  0  0
 22 11  1  0  0  0  0
 24 35  1  0  0  0  0
 25 24  1  0  0  0  0
 25  3  1  0  0  0  0
 26 25  2  0  0  0  0
 27 28  2  0  0  0  0
 27 26  1  0  0  0  0
 28 29  1  0  0  0  0
 29 33  1  0  0  0  0
 29 24  2  0  0  0  0
 30 26  1  0  0  0  0
 31 27  1  0  0  0  0
 32 28  1  0  0  0  0
 34 37  1  0  0  0  0
 35 34  2  0  0  0  0
 35 36  1  0  0  0  0
 36 39  1  0  0  0  0
 38 36  1  0  0  0  0
 40 41  1  0  0  0  0
 40 43  1  0  0  0  0
 42 40  1  0  0  0  0
M  END
>  <minimizedAffinity>
-6.53189564

>  <minimizedRMSD>
1.08580279

$$$$
