
 OpenBabel03272509113D

 23 24  0  0  0  0  0  0  0  0999 V2000
   35.1910   29.1190   50.4620 C   0  0  0  0  0  0  0  0  0  0  0  0
   36.3450   29.8340   50.0450 C   0  0  0  0  0  0  0  0  0  0  0  0
   36.2810   30.4450   48.7960 C   0  0  0  0  0  0  0  0  0  0  0  0
   35.1490   30.3510   48.0180 N   0  0  0  0  0  0  0  0  0  0  0  0
   34.0670   29.6430   48.4830 C   0  0  0  0  0  0  0  0  0  0  0  0
   34.1090   29.0420   49.6960 N   0  0  0  0  0  0  0  0  0  0  0  0
   35.1390   28.6130   51.4100 H   0  0  0  0  0  0  0  0  0  0  0  0
   33.2460   29.6460   47.7790 H   0  0  0  0  0  0  0  0  0  0  0  0
   37.3960   31.1850   48.2540 C   0  0  0  0  0  0  0  0  0  0  0  0
   37.6730   32.4060   48.7820 C   0  0  0  0  0  0  0  0  0  0  0  0
   38.7440   33.1590   48.2810 C   0  0  0  0  0  0  0  0  0  0  0  0
   39.5140   32.6410   47.2410 C   0  0  0  0  0  0  0  0  0  0  0  0
   39.2680   31.3960   46.6660 C   0  0  0  0  0  0  0  0  0  0  0  0
   38.2030   30.7350   47.2230 C   0  0  0  0  0  0  0  0  0  0  0  0
   37.2550   33.0290   49.5330 H   0  0  0  0  0  0  0  0  0  0  0  0
   39.0990   34.1290   48.5780 H   0  0  0  0  0  0  0  0  0  0  0  0
   40.3720   33.1620   46.7870 H   0  0  0  0  0  0  0  0  0  0  0  0
   39.8290   30.9670   45.8740 H   0  0  0  0  0  0  0  0  0  0  0  0
   37.9450   29.7470   46.8270 H   0  0  0  0  0  0  0  0  0  0  0  0
   37.4410   29.8700   51.0340 C   0  0  0  0  0  0  0  0  0  0  0  0
   38.6000   30.4430   50.6200 F   0  0  0  0  0  0  0  0  0  0  0  0
   37.9030   28.4810   51.1670 F   0  0  0  0  0  0  0  0  0  0  0  0
   37.0690   30.1270   52.3170 F   0  0  0  0  0  0  0  0  0  0  0  0
  1  7  1  0  0  0  0
  2  1  1  0  0  0  0
  2 20  1  0  0  0  0
  3  2  2  0  0  0  0
  4  5  2  0  0  0  0
  4  3  1  0  0  0  0
  5  6  1  0  0  0  0
  6  1  2  0  0  0  0
  8  5  1  0  0  0  0
  9 10  1  0  0  0  0
  9  3  1  0  0  0  0
 10 15  1  0  0  0  0
 11 16  1  0  0  0  0
 11 10  2  0  0  0  0
 12 11  1  0  0  0  0
 13 14  1  0  0  0  0
 13 12  2  0  0  0  0
 14  9  2  0  0  0  0
 17 12  1  0  0  0  0
 18 13  1  0  0  0  0
 19 14  1  0  0  0  0
 20 22  1  0  0  0  0
 20 23  1  0  0  0  0
 21 20  1  0  0  0  0
M  END
>  <minimizedAffinity>
-5.95587921

>  <minimizedRMSD>
1.97505271

$$$$
