
 OpenBabel03272510163D

 23 24  0  0  0  0  0  0  0  0999 V2000
   37.3090   29.3520   51.0650 Br  0  0  0  0  0  0  0  0  0  0  0  0
   35.9600   29.3340   49.7060 C   0  0  0  0  0  0  0  0  0  0  0  0
   35.9940   30.2490   48.6780 C   0  0  0  0  0  0  0  0  0  0  0  0
   34.9860   30.1860   47.7220 C   0  0  0  0  0  0  0  0  0  0  0  0
   33.9690   29.2430   47.7780 C   0  0  0  0  0  0  0  0  0  0  0  0
   33.9740   28.3510   48.8180 C   0  0  0  0  0  0  0  0  0  0  0  0
   34.9710   28.4040   49.7760 C   0  0  0  0  0  0  0  0  0  0  0  0
   34.9980   30.9000   46.9060 H   0  0  0  0  0  0  0  0  0  0  0  0
   33.1740   27.6340   48.8340 H   0  0  0  0  0  0  0  0  0  0  0  0
   34.8950   27.6610   50.5610 H   0  0  0  0  0  0  0  0  0  0  0  0
   37.9920   33.1930   49.4440 C   0  0  0  0  0  0  0  0  0  0  0  0
   39.0210   33.1720   48.4680 C   0  0  0  0  0  0  0  0  0  0  0  0
   39.0120   32.1310   47.5460 C   0  0  0  0  0  0  0  0  0  0  0  0
   38.0230   31.1910   47.6280 N   0  0  0  0  0  0  0  0  0  0  0  0
   37.0500   31.2530   48.5900 C   0  0  0  0  0  0  0  0  0  0  0  0
   37.0420   32.2500   49.4870 N   0  0  0  0  0  0  0  0  0  0  0  0
   37.9350   33.9730   50.1940 H   0  0  0  0  0  0  0  0  0  0  0  0
   39.7550   33.9400   48.4690 H   0  0  0  0  0  0  0  0  0  0  0  0
   39.7740   32.0690   46.7810 H   0  0  0  0  0  0  0  0  0  0  0  0
   32.9400   29.2650   46.7020 C   0  0  0  0  0  0  0  0  0  0  0  0
   32.6960   30.5850   46.3800 F   0  0  0  0  0  0  0  0  0  0  0  0
   33.3730   28.5200   45.6210 F   0  0  0  0  0  0  0  0  0  0  0  0
   31.7560   28.6780   47.1130 F   0  0  0  0  0  0  0  0  0  0  0  0
  2  7  1  0  0  0  0
  2  1  1  0  0  0  0
  3  2  2  0  0  0  0
  4  5  2  0  0  0  0
  4  3  1  0  0  0  0
  5  6  1  0  0  0  0
  6  9  1  0  0  0  0
  6  7  2  0  0  0  0
  7 10  1  0  0  0  0
  8  4  1  0  0  0  0
 11 16  1  0  0  0  0
 11 17  1  0  0  0  0
 12 18  1  0  0  0  0
 12 11  2  0  0  0  0
 13 14  2  0  0  0  0
 13 12  1  0  0  0  0
 14 15  1  0  0  0  0
 15  3  1  0  0  0  0
 15 16  2  0  0  0  0
 19 13  1  0  0  0  0
 20 23  1  0  0  0  0
 20  5  1  0  0  0  0
 21 20  1  0  0  0  0
 22 20  1  0  0  0  0
M  END
>  <minimizedAffinity>
-5.79022455

>  <minimizedRMSD>
0.257868588

$$$$
