
 OpenBabel03272510233D

 26 28  0  0  0  0  0  0  0  0999 V2000
   35.8230   30.1050   46.9010 C   0  0  0  0  0  0  0  0  0  0  0  0
   36.8850   30.4820   47.6890 C   0  0  0  0  0  0  0  0  0  0  0  0
   37.9790   31.1060   47.1350 C   0  0  0  0  0  0  0  0  0  0  0  0
   37.9620   31.3340   45.7710 C   0  0  0  0  0  0  0  0  0  0  0  0
   38.9230   31.9310   45.0020 N   0  0  0  0  0  0  0  0  0  0  0  0
   38.4730   31.9320   43.7400 C   0  0  0  0  0  0  0  0  0  0  0  0
   37.2580   31.3560   43.6720 N   0  0  0  0  0  0  0  0  0  0  0  0
   36.9150   30.9740   44.9300 C   0  0  0  0  0  0  0  0  0  0  0  0
   35.8330   30.3480   45.5210 C   0  0  0  0  0  0  0  0  0  0  0  0
   34.9370   29.6130   47.2690 H   0  0  0  0  0  0  0  0  0  0  0  0
   38.8050   31.3990   47.7540 H   0  0  0  0  0  0  0  0  0  0  0  0
   39.8490   32.3210   45.3320 H   0  0  0  0  0  0  0  0  0  0  0  0
   34.9940   30.0530   44.8830 H   0  0  0  0  0  0  0  0  0  0  0  0
   37.5630   30.1870   51.3860 C   0  0  0  0  0  0  0  0  0  0  0  0
   37.7430   30.5080   50.0450 C   0  0  0  0  0  0  0  0  0  0  0  0
   36.7750   30.1820   49.1130 C   0  0  0  0  0  0  0  0  0  0  0  0
   35.6470   29.5450   49.5470 N   0  0  0  0  0  0  0  0  0  0  0  0
   35.5010   29.2430   50.8760 C   0  0  0  0  0  0  0  0  0  0  0  0
   36.4360   29.5580   51.7680 N   0  0  0  0  0  0  0  0  0  0  0  0
   38.3330   30.4550   52.0800 H   0  0  0  0  0  0  0  0  0  0  0  0
   38.6280   31.0060   49.7240 H   0  0  0  0  0  0  0  0  0  0  0  0
   34.5680   28.7360   51.1070 H   0  0  0  0  0  0  0  0  0  0  0  0
   39.2570   32.5070   42.6060 C   0  0  0  0  0  0  0  0  0  0  0  0
   38.5530   32.5840   41.4400 F   0  0  0  0  0  0  0  0  0  0  0  0
   40.3940   31.7310   42.3980 F   0  0  0  0  0  0  0  0  0  0  0  0
   39.7210   33.7720   42.9190 F   0  0  0  0  0  0  0  0  0  0  0  0
  1 10  1  0  0  0  0
  1  2  1  0  0  0  0
  2 16  1  0  0  0  0
  3  2  2  0  0  0  0
  3 11  1  0  0  0  0
  4  3  1  0  0  0  0
  5 12  1  0  0  0  0
  5  4  1  0  0  0  0
  6  5  1  0  0  0  0
  7  6  2  0  0  0  0
  7  8  1  0  0  0  0
  8  9  1  0  0  0  0
  8  4  2  0  0  0  0
  9  1  2  0  0  0  0
 13  9  1  0  0  0  0
 14 19  1  0  0  0  0
 14 20  1  0  0  0  0
 15 14  2  0  0  0  0
 16 17  2  0  0  0  0
 16 15  1  0  0  0  0
 17 18  1  0  0  0  0
 18 22  1  0  0  0  0
 18 19  2  0  0  0  0
 21 15  1  0  0  0  0
 23 26  1  0  0  0  0
 23  6  1  0  0  0  0
 24 23  1  0  0  0  0
 25 23  1  0  0  0  0
M  END
>  <minimizedAffinity>
-5.23165798

>  <minimizedRMSD>
2.019382

$$$$
