
 OpenBabel03272505153D

 23 24  0  0  0  0  0  0  0  0999 V2000
   40.5800   23.8970   34.5920 Cl  0  0  0  0  0  0  0  0  0  0  0  0
   39.6060   23.8220   36.0200 C   0  0  0  0  0  0  0  0  0  0  0  0
   38.4380   24.5180   36.1130 C   0  0  0  0  0  0  0  0  0  0  0  0
   37.7380   24.3960   37.2800 C   0  0  0  0  0  0  0  0  0  0  0  0
   38.1320   23.6300   38.3440 C   0  0  0  0  0  0  0  0  0  0  0  0
   39.3070   22.9430   38.2280 C   0  0  0  0  0  0  0  0  0  0  0  0
   40.0620   23.0240   37.0700 C   0  0  0  0  0  0  0  0  0  0  0  0
   36.7960   24.9560   37.3570 H   0  0  0  0  0  0  0  0  0  0  0  0
   37.5210   23.5870   39.2350 H   0  0  0  0  0  0  0  0  0  0  0  0
   39.6540   22.3260   39.0450 H   0  0  0  0  0  0  0  0  0  0  0  0
   37.6020   27.4790   33.9030 C   0  0  0  0  0  0  0  0  0  0  0  0
   38.0100   26.7300   35.0140 C   0  0  0  0  0  0  0  0  0  0  0  0
   38.0230   25.3290   34.9830 C   0  0  0  0  0  0  0  0  0  0  0  0
   37.6210   24.7720   33.8210 N   0  0  0  0  0  0  0  0  0  0  0  0
   37.2290   25.4930   32.7530 C   0  0  0  0  0  0  0  0  0  0  0  0
   37.2170   26.8310   32.7830 N   0  0  0  0  0  0  0  0  0  0  0  0
   37.6440   28.5570   34.0730 H   0  0  0  0  0  0  0  0  0  0  0  0
   38.3310   27.1680   35.9420 H   0  0  0  0  0  0  0  0  0  0  0  0
   36.9240   24.9580   31.8670 H   0  0  0  0  0  0  0  0  0  0  0  0
   41.3490   22.2770   36.9290 C   0  0  0  0  0  0  0  0  0  0  0  0
   41.2700   21.4760   35.8120 F   0  0  0  0  0  0  0  0  0  0  0  0
   42.4520   23.0740   36.9250 F   0  0  0  0  0  0  0  0  0  0  0  0
   41.4300   21.4000   38.0200 F   0  0  0  0  0  0  0  0  0  0  0  0
  1  2  1  0  0  0  0
  2  3  2  0  0  0  0
  2  7  1  0  0  0  0
  3  4  1  0  0  0  0
  4  8  1  0  0  0  0
  4  5  2  0  0  0  0
  5  9  1  0  0  0  0
  6  5  1  0  0  0  0
  6 10  1  0  0  0  0
  7  6  2  0  0  0  0
 11 17  1  0  0  0  0
 11 12  1  0  0  0  0
 12 18  1  0  0  0  0
 13 12  2  0  0  0  0
 13  3  1  0  0  0  0
 14 13  1  0  0  0  0
 15 16  1  0  0  0  0
 15 14  2  0  0  0  0
 16 11  2  0  0  0  0
 19 15  1  0  0  0  0
 20  7  1  0  0  0  0
 20 23  1  0  0  0  0
 21 20  1  0  0  0  0
 22 20  1  0  0  0  0
M  END
>  <minimizedAffinity>
-4.91184187

$$$$

 OpenBabel03272505153D

 23 24  0  0  0  0  0  0  0  0999 V2000
   38.1070   22.9970   34.9310 Cl  0  0  0  0  0  0  0  0  0  0  0  0
   38.1740   24.7150   35.1320 C   0  0  0  0  0  0  0  0  0  0  0  0
   38.1900   25.5490   34.0530 C   0  0  0  0  0  0  0  0  0  0  0  0
   38.2420   26.8900   34.3110 C   0  0  0  0  0  0  0  0  0  0  0  0
   38.2790   27.4370   35.5650 C   0  0  0  0  0  0  0  0  0  0  0  0
   38.2630   26.5810   36.6300 C   0  0  0  0  0  0  0  0  0  0  0  0
   38.2100   25.2110   36.4340 C   0  0  0  0  0  0  0  0  0  0  0  0
   38.2550   27.5640   33.4440 H   0  0  0  0  0  0  0  0  0  0  0  0
   38.3220   28.5110   35.6860 H   0  0  0  0  0  0  0  0  0  0  0  0
   38.2920   26.9730   37.6370 H   0  0  0  0  0  0  0  0  0  0  0  0
   36.9550   24.1460   30.7580 C   0  0  0  0  0  0  0  0  0  0  0  0
   36.9540   24.7110   32.0400 C   0  0  0  0  0  0  0  0  0  0  0  0
   38.1500   24.9650   32.7260 C   0  0  0  0  0  0  0  0  0  0  0  0
   39.2780   24.6300   32.0640 N   0  0  0  0  0  0  0  0  0  0  0  0
   39.2780   24.0880   30.8310 C   0  0  0  0  0  0  0  0  0  0  0  0
   38.1360   23.8450   30.1780 N   0  0  0  0  0  0  0  0  0  0  0  0
   35.9520   24.0060   30.3490 H   0  0  0  0  0  0  0  0  0  0  0  0
   36.0590   24.9790   32.5710 H   0  0  0  0  0  0  0  0  0  0  0  0
   40.2320   23.8530   30.3840 H   0  0  0  0  0  0  0  0  0  0  0  0
   38.1920   24.2630   37.5900 C   0  0  0  0  0  0  0  0  0  0  0  0
   37.0500   23.4970   37.5090 F   0  0  0  0  0  0  0  0  0  0  0  0
   39.3200   23.5110   37.7050 F   0  0  0  0  0  0  0  0  0  0  0  0
   38.0460   25.0390   38.7490 F   0  0  0  0  0  0  0  0  0  0  0  0
  1  2  1  0  0  0  0
  2  7  1  0  0  0  0
  3  4  1  0  0  0  0
  3  2  2  0  0  0  0
  4  5  2  0  0  0  0
  5  9  1  0  0  0  0
  5  6  1  0  0  0  0
  6 10  1  0  0  0  0
  7  6  2  0  0  0  0
  7 20  1  0  0  0  0
  8  4  1  0  0  0  0
 11 12  1  0  0  0  0
 12 18  1  0  0  0  0
 12 13  2  0  0  0  0
 13  3  1  0  0  0  0
 14 13  1  0  0  0  0
 15 14  2  0  0  0  0
 16 11  2  0  0  0  0
 16 15  1  0  0  0  0
 17 11  1  0  0  0  0
 19 15  1  0  0  0  0
 20 22  1  0  0  0  0
 20 23  1  0  0  0  0
 21 20  1  0  0  0  0
M  END
>  <minimizedAffinity>
-4.8216958

$$$$

 OpenBabel03272505153D

 23 24  0  0  0  0  0  0  0  0999 V2000
   38.4210   26.0400   36.3410 Cl  0  0  0  0  0  0  0  0  0  0  0  0
   38.1560   24.4780   35.6460 C   0  0  0  0  0  0  0  0  0  0  0  0
   38.0670   24.3150   34.2960 C   0  0  0  0  0  0  0  0  0  0  0  0
   37.8570   23.0440   33.8400 C   0  0  0  0  0  0  0  0  0  0  0  0
   37.7320   21.9430   34.6440 C   0  0  0  0  0  0  0  0  0  0  0  0
   37.8240   22.1320   35.9940 C   0  0  0  0  0  0  0  0  0  0  0  0
   38.0370   23.3960   36.5180 C   0  0  0  0  0  0  0  0  0  0  0  0
   37.7860   22.9090   32.7520 H   0  0  0  0  0  0  0  0  0  0  0  0
   37.5660   20.9690   34.2050 H   0  0  0  0  0  0  0  0  0  0  0  0
   37.7310   21.2890   36.6640 H   0  0  0  0  0  0  0  0  0  0  0  0
   37.2750   27.3850   32.2220 C   0  0  0  0  0  0  0  0  0  0  0  0
   37.1070   26.2630   33.0430 C   0  0  0  0  0  0  0  0  0  0  0  0
   38.2000   25.4840   33.4460 C   0  0  0  0  0  0  0  0  0  0  0  0
   39.4030   25.8950   32.9880 N   0  0  0  0  0  0  0  0  0  0  0  0
   39.5630   26.9740   32.1990 C   0  0  0  0  0  0  0  0  0  0  0  0
   38.5180   27.7170   31.8150 N   0  0  0  0  0  0  0  0  0  0  0  0
   36.3360   27.8920   31.9900 H   0  0  0  0  0  0  0  0  0  0  0  0
   36.1520   25.9310   33.4100 H   0  0  0  0  0  0  0  0  0  0  0  0
   40.5640   27.2240   31.8830 H   0  0  0  0  0  0  0  0  0  0  0  0
   38.1390   23.6170   37.9930 C   0  0  0  0  0  0  0  0  0  0  0  0
   37.8700   24.9420   38.2560 F   0  0  0  0  0  0  0  0  0  0  0  0
   37.3710   22.7700   38.7320 F   0  0  0  0  0  0  0  0  0  0  0  0
   39.4840   23.4270   38.3400 F   0  0  0  0  0  0  0  0  0  0  0  0
  2  1  1  0  0  0  0
  2  7  1  0  0  0  0
  3  2  2  0  0  0  0
  4  3  1  0  0  0  0
  4  5  2  0  0  0  0
  5  6  1  0  0  0  0
  6  7  2  0  0  0  0
  6 10  1  0  0  0  0
  7 20  1  0  0  0  0
  8  4  1  0  0  0  0
  9  5  1  0  0  0  0
 11 12  1  0  0  0  0
 12 18  1  0  0  0  0
 12 13  2  0  0  0  0
 13  3  1  0  0  0  0
 14 13  1  0  0  0  0
 15 14  2  0  0  0  0
 16 15  1  0  0  0  0
 16 11  2  0  0  0  0
 17 11  1  0  0  0  0
 19 15  1  0  0  0  0
 20 21  1  0  0  0  0
 20 23  1  0  0  0  0
 20 22  1  0  0  0  0
M  END
>  <minimizedAffinity>
-4.70849609

$$$$

 OpenBabel03272505153D

 23 24  0  0  0  0  0  0  0  0999 V2000
   38.0450   25.3250   35.7310 Cl  0  0  0  0  0  0  0  0  0  0  0  0
   39.3680   24.2860   36.1370 C   0  0  0  0  0  0  0  0  0  0  0  0
   40.5220   24.3000   35.4110 C   0  0  0  0  0  0  0  0  0  0  0  0
   41.5110   23.4440   35.8080 C   0  0  0  0  0  0  0  0  0  0  0  0
   41.4140   22.5890   36.8710 C   0  0  0  0  0  0  0  0  0  0  0  0
   40.2480   22.5920   37.5830 C   0  0  0  0  0  0  0  0  0  0  0  0
   39.2080   23.4370   37.2310 C   0  0  0  0  0  0  0  0  0  0  0  0
   42.4420   23.4530   35.2250 H   0  0  0  0  0  0  0  0  0  0  0  0
   42.2440   21.9400   37.1210 H   0  0  0  0  0  0  0  0  0  0  0  0
   40.1320   21.9320   38.4300 H   0  0  0  0  0  0  0  0  0  0  0  0
   41.2250   27.3530   33.2810 C   0  0  0  0  0  0  0  0  0  0  0  0
   41.1460   26.5040   34.3920 C   0  0  0  0  0  0  0  0  0  0  0  0
   40.6210   25.2080   34.2840 C   0  0  0  0  0  0  0  0  0  0  0  0
   40.2080   24.8530   33.0480 N   0  0  0  0  0  0  0  0  0  0  0  0
   40.2850   25.6700   31.9800 C   0  0  0  0  0  0  0  0  0  0  0  0
   40.7860   26.9070   32.0850 N   0  0  0  0  0  0  0  0  0  0  0  0
   41.6550   28.3290   33.5150 H   0  0  0  0  0  0  0  0  0  0  0  0
   41.4730   26.7820   35.3770 H   0  0  0  0  0  0  0  0  0  0  0  0
   39.9280   25.2960   31.0330 H   0  0  0  0  0  0  0  0  0  0  0  0
   37.9270   23.4510   38.0010 C   0  0  0  0  0  0  0  0  0  0  0  0
   37.7590   24.7050   38.5460 F   0  0  0  0  0  0  0  0  0  0  0  0
   36.8460   23.0440   37.2810 F   0  0  0  0  0  0  0  0  0  0  0  0
   38.0980   22.5850   39.0900 F   0  0  0  0  0  0  0  0  0  0  0  0
  1  2  1  0  0  0  0
  2  7  1  0  0  0  0
  3  4  1  0  0  0  0
  3  2  2  0  0  0  0
  4  5  2  0  0  0  0
  5  9  1  0  0  0  0
  5  6  1  0  0  0  0
  6 10  1  0  0  0  0
  7  6  2  0  0  0  0
  7 20  1  0  0  0  0
  8  4  1  0  0  0  0
 11 17  1  0  0  0  0
 11 12  1  0  0  0  0
 12 18  1  0  0  0  0
 13 12  2  0  0  0  0
 13  3  1  0  0  0  0
 14 13  1  0  0  0  0
 15 16  1  0  0  0  0
 15 14  2  0  0  0  0
 16 11  2  0  0  0  0
 19 15  1  0  0  0  0
 20 21  1  0  0  0  0
 20 23  1  0  0  0  0
 22 20  1  0  0  0  0
M  END
>  <minimizedAffinity>
-4.69628716

$$$$

 OpenBabel03272505153D

 23 24  0  0  0  0  0  0  0  0999 V2000
   37.7930   23.3020   33.4850 Cl  0  0  0  0  0  0  0  0  0  0  0  0
   37.6480   24.9730   33.9110 C   0  0  0  0  0  0  0  0  0  0  0  0
   38.1230   25.4390   35.1010 C   0  0  0  0  0  0  0  0  0  0  0  0
   37.9630   26.7740   35.3480 C   0  0  0  0  0  0  0  0  0  0  0  0
   37.3660   27.6560   34.4890 C   0  0  0  0  0  0  0  0  0  0  0  0
   36.8980   27.1650   33.3030 C   0  0  0  0  0  0  0  0  0  0  0  0
   37.0290   25.8210   32.9930 C   0  0  0  0  0  0  0  0  0  0  0  0
   38.3450   27.1520   36.3070 H   0  0  0  0  0  0  0  0  0  0  0  0
   37.2770   28.6990   34.7600 H   0  0  0  0  0  0  0  0  0  0  0  0
   36.4190   27.8280   32.5970 H   0  0  0  0  0  0  0  0  0  0  0  0
   38.8400   23.2330   38.0950 C   0  0  0  0  0  0  0  0  0  0  0  0
   38.1990   24.1420   37.2440 C   0  0  0  0  0  0  0  0  0  0  0  0
   38.7560   24.5020   36.0090 C   0  0  0  0  0  0  0  0  0  0  0  0
   39.9360   23.9140   35.7140 N   0  0  0  0  0  0  0  0  0  0  0  0
   40.5510   23.0400   36.5330 C   0  0  0  0  0  0  0  0  0  0  0  0
   40.0180   22.6970   37.7120 N   0  0  0  0  0  0  0  0  0  0  0  0
   38.2890   23.0480   39.0200 H   0  0  0  0  0  0  0  0  0  0  0  0
   37.2600   24.6120   37.4750 H   0  0  0  0  0  0  0  0  0  0  0  0
   41.4920   22.6230   36.2100 H   0  0  0  0  0  0  0  0  0  0  0  0
   36.5210   25.2710   31.6990 C   0  0  0  0  0  0  0  0  0  0  0  0
   37.5980   24.8450   30.9540 F   0  0  0  0  0  0  0  0  0  0  0  0
   35.5710   24.3080   31.8450 F   0  0  0  0  0  0  0  0  0  0  0  0
   35.9700   26.3460   30.9890 F   0  0  0  0  0  0  0  0  0  0  0  0
  1  2  1  0  0  0  0
  2  3  1  0  0  0  0
  3  4  2  0  0  0  0
  3 13  1  0  0  0  0
  4  8  1  0  0  0  0
  5  9  1  0  0  0  0
  5  4  1  0  0  0  0
  6  5  2  0  0  0  0
  7  6  1  0  0  0  0
  7  2  2  0  0  0  0
 10  6  1  0  0  0  0
 11 17  1  0  0  0  0
 12 18  1  0  0  0  0
 12 11  2  0  0  0  0
 13 12  1  0  0  0  0
 14 13  2  0  0  0  0
 14 15  1  0  0  0  0
 15 16  2  0  0  0  0
 16 11  1  0  0  0  0
 19 15  1  0  0  0  0
 20 22  1  0  0  0  0
 20  7  1  0  0  0  0
 21 20  1  0  0  0  0
 23 20  1  0  0  0  0
M  END
>  <minimizedAffinity>
-4.69164133

$$$$

 OpenBabel03272505153D

 23 24  0  0  0  0  0  0  0  0999 V2000
   37.7290   24.9260   35.9010 Cl  0  0  0  0  0  0  0  0  0  0  0  0
   39.0630   23.8440   36.1140 C   0  0  0  0  0  0  0  0  0  0  0  0
   39.8450   23.4760   35.0610 C   0  0  0  0  0  0  0  0  0  0  0  0
   40.8760   22.6180   35.3270 C   0  0  0  0  0  0  0  0  0  0  0  0
   41.1640   22.1150   36.5670 C   0  0  0  0  0  0  0  0  0  0  0  0
   40.3650   22.4980   37.6070 C   0  0  0  0  0  0  0  0  0  0  0  0
   39.3050   23.3660   37.4010 C   0  0  0  0  0  0  0  0  0  0  0  0
   41.5080   22.3200   34.4800 H   0  0  0  0  0  0  0  0  0  0  0  0
   41.9990   21.4390   36.6960 H   0  0  0  0  0  0  0  0  0  0  0  0
   40.5590   22.1240   38.6020 H   0  0  0  0  0  0  0  0  0  0  0  0
   38.4370   23.8970   31.5690 C   0  0  0  0  0  0  0  0  0  0  0  0
   38.7120   23.3480   32.8280 C   0  0  0  0  0  0  0  0  0  0  0  0
   39.5370   24.0110   33.7480 C   0  0  0  0  0  0  0  0  0  0  0  0
   40.0340   25.1950   33.3300 N   0  0  0  0  0  0  0  0  0  0  0  0
   39.7690   25.7220   32.1190 C   0  0  0  0  0  0  0  0  0  0  0  0
   38.9810   25.0880   31.2420 N   0  0  0  0  0  0  0  0  0  0  0  0
   37.7810   23.2700   30.9610 H   0  0  0  0  0  0  0  0  0  0  0  0
   38.3200   22.4060   33.1650 H   0  0  0  0  0  0  0  0  0  0  0  0
   40.2130   26.6750   31.8750 H   0  0  0  0  0  0  0  0  0  0  0  0
   38.4230   23.7930   38.5300 C   0  0  0  0  0  0  0  0  0  0  0  0
   38.1270   25.1290   38.3720 F   0  0  0  0  0  0  0  0  0  0  0  0
   37.3100   23.0240   38.6820 F   0  0  0  0  0  0  0  0  0  0  0  0
   39.1920   23.7110   39.7000 F   0  0  0  0  0  0  0  0  0  0  0  0
  1  2  1  0  0  0  0
  2  7  1  0  0  0  0
  3  4  1  0  0  0  0
  3  2  2  0  0  0  0
  4  5  2  0  0  0  0
  5  9  1  0  0  0  0
  5  6  1  0  0  0  0
  6 10  1  0  0  0  0
  7  6  2  0  0  0  0
  7 20  1  0  0  0  0
  8  4  1  0  0  0  0
 11 12  1  0  0  0  0
 12 18  1  0  0  0  0
 12 13  2  0  0  0  0
 13  3  1  0  0  0  0
 14 13  1  0  0  0  0
 15 14  2  0  0  0  0
 16 11  2  0  0  0  0
 16 15  1  0  0  0  0
 17 11  1  0  0  0  0
 19 15  1  0  0  0  0
 20 22  1  0  0  0  0
 20 23  1  0  0  0  0
 21 20  1  0  0  0  0
M  END
>  <minimizedAffinity>
-4.63593531

$$$$

 OpenBabel03272505153D

 23 24  0  0  0  0  0  0  0  0999 V2000
   38.3270   22.8670   35.1260 Cl  0  0  0  0  0  0  0  0  0  0  0  0
   38.2740   24.5940   35.2270 C   0  0  0  0  0  0  0  0  0  0  0  0
   38.2680   25.3640   34.1020 C   0  0  0  0  0  0  0  0  0  0  0  0
   38.2250   26.7190   34.2830 C   0  0  0  0  0  0  0  0  0  0  0  0
   38.1880   27.3370   35.5030 C   0  0  0  0  0  0  0  0  0  0  0  0
   38.1960   26.5440   36.6150 C   0  0  0  0  0  0  0  0  0  0  0  0
   38.2390   25.1640   36.4990 C   0  0  0  0  0  0  0  0  0  0  0  0
   38.2190   27.3420   33.3780 H   0  0  0  0  0  0  0  0  0  0  0  0
   38.1560   28.4170   35.5610 H   0  0  0  0  0  0  0  0  0  0  0  0
   38.1680   26.9930   37.5980 H   0  0  0  0  0  0  0  0  0  0  0  0
   39.4980   23.7910   30.8830 C   0  0  0  0  0  0  0  0  0  0  0  0
   39.5010   24.4290   32.1300 C   0  0  0  0  0  0  0  0  0  0  0  0
   38.3070   24.7060   32.8100 C   0  0  0  0  0  0  0  0  0  0  0  0
   37.1780   24.3140   32.1790 N   0  0  0  0  0  0  0  0  0  0  0  0
   37.1770   23.7010   30.9810 C   0  0  0  0  0  0  0  0  0  0  0  0
   38.3180   23.4380   30.3320 N   0  0  0  0  0  0  0  0  0  0  0  0
   40.5000   23.6420   30.4750 H   0  0  0  0  0  0  0  0  0  0  0  0
   40.3960   24.7420   32.6360 H   0  0  0  0  0  0  0  0  0  0  0  0
   36.2230   23.4270   30.5560 H   0  0  0  0  0  0  0  0  0  0  0  0
   38.2480   24.2840   37.7070 C   0  0  0  0  0  0  0  0  0  0  0  0
   39.3690   23.4860   37.6580 F   0  0  0  0  0  0  0  0  0  0  0  0
   38.1390   24.9610   38.8830 F   0  0  0  0  0  0  0  0  0  0  0  0
   37.1570   23.4130   37.5840 F   0  0  0  0  0  0  0  0  0  0  0  0
  1  2  1  0  0  0  0
  2  7  1  0  0  0  0
  3  4  1  0  0  0  0
  3  2  2  0  0  0  0
  4  5  2  0  0  0  0
  5  9  1  0  0  0  0
  5  6  1  0  0  0  0
  6 10  1  0  0  0  0
  7  6  2  0  0  0  0
  7 20  1  0  0  0  0
  8  4  1  0  0  0  0
 11 12  1  0  0  0  0
 12 18  1  0  0  0  0
 12 13  2  0  0  0  0
 13  3  1  0  0  0  0
 14 13  1  0  0  0  0
 15 14  2  0  0  0  0
 16 11  2  0  0  0  0
 16 15  1  0  0  0  0
 17 11  1  0  0  0  0
 19 15  1  0  0  0  0
 20 22  1  0  0  0  0
 21 20  1  0  0  0  0
 23 20  1  0  0  0  0
M  END
>  <minimizedAffinity>
-4.60235167

$$$$

 OpenBabel03272505153D

 23 24  0  0  0  0  0  0  0  0999 V2000
   38.8540   26.6640   35.2620 Cl  0  0  0  0  0  0  0  0  0  0  0  0
   38.3730   25.4170   34.1630 C   0  0  0  0  0  0  0  0  0  0  0  0
   38.2380   24.1270   34.5800 C   0  0  0  0  0  0  0  0  0  0  0  0
   37.8530   23.2120   33.6390 C   0  0  0  0  0  0  0  0  0  0  0  0
   37.6010   23.5090   32.3280 C   0  0  0  0  0  0  0  0  0  0  0  0
   37.7440   24.8090   31.9340 C   0  0  0  0  0  0  0  0  0  0  0  0
   38.1310   25.7830   32.8390 C   0  0  0  0  0  0  0  0  0  0  0  0
   37.7430   22.1710   33.9720 H   0  0  0  0  0  0  0  0  0  0  0  0
   37.3010   22.7260   31.6440 H   0  0  0  0  0  0  0  0  0  0  0  0
   37.5550   25.0850   30.9060 H   0  0  0  0  0  0  0  0  0  0  0  0
   39.9020   22.8940   37.7510 C   0  0  0  0  0  0  0  0  0  0  0  0
   39.6790   23.1780   36.3980 C   0  0  0  0  0  0  0  0  0  0  0  0
   38.5060   23.8150   35.9710 C   0  0  0  0  0  0  0  0  0  0  0  0
   37.6280   24.1270   36.9490 N   0  0  0  0  0  0  0  0  0  0  0  0
   37.8440   23.8530   38.2500 C   0  0  0  0  0  0  0  0  0  0  0  0
   38.9650   23.2440   38.6570 N   0  0  0  0  0  0  0  0  0  0  0  0
   40.8570   22.3960   37.9340 H   0  0  0  0  0  0  0  0  0  0  0  0
   40.3740   22.9320   35.6160 H   0  0  0  0  0  0  0  0  0  0  0  0
   37.0830   24.1400   38.9590 H   0  0  0  0  0  0  0  0  0  0  0  0
   38.2920   27.2100   32.4220 C   0  0  0  0  0  0  0  0  0  0  0  0
   38.1100   27.2890   31.0590 F   0  0  0  0  0  0  0  0  0  0  0  0
   37.4990   28.0770   33.1080 F   0  0  0  0  0  0  0  0  0  0  0  0
   39.6330   27.5490   32.6460 F   0  0  0  0  0  0  0  0  0  0  0  0
  2  3  1  0  0  0  0
  2  1  1  0  0  0  0
  3 13  1  0  0  0  0
  4  8  1  0  0  0  0
  4  3  2  0  0  0  0
  5  4  1  0  0  0  0
  6  5  2  0  0  0  0
  6  7  1  0  0  0  0
  7  2  2  0  0  0  0
  9  5  1  0  0  0  0
 10  6  1  0  0  0  0
 11 17  1  0  0  0  0
 11 16  1  0  0  0  0
 12 11  2  0  0  0  0
 13 12  1  0  0  0  0
 13 14  2  0  0  0  0
 14 15  1  0  0  0  0
 15 16  2  0  0  0  0
 15 19  1  0  0  0  0
 18 12  1  0  0  0  0
 20 23  1  0  0  0  0
 20  7  1  0  0  0  0
 20 22  1  0  0  0  0
 21 20  1  0  0  0  0
M  END
>  <minimizedAffinity>
-4.44379282

$$$$

 OpenBabel03272505153D

 23 24  0  0  0  0  0  0  0  0999 V2000
   38.4210   24.9690   33.2000 Cl  0  0  0  0  0  0  0  0  0  0  0  0
   38.2410   24.3570   34.8080 C   0  0  0  0  0  0  0  0  0  0  0  0
   38.0600   23.0260   35.0380 C   0  0  0  0  0  0  0  0  0  0  0  0
   37.9280   22.6370   36.3420 C   0  0  0  0  0  0  0  0  0  0  0  0
   37.9660   23.4890   37.4120 C   0  0  0  0  0  0  0  0  0  0  0  0
   38.1480   24.8190   37.1560 C   0  0  0  0  0  0  0  0  0  0  0  0
   38.2890   25.2760   35.8560 C   0  0  0  0  0  0  0  0  0  0  0  0
   37.7820   21.5650   36.5300 H   0  0  0  0  0  0  0  0  0  0  0  0
   37.8530   23.1020   38.4160 H   0  0  0  0  0  0  0  0  0  0  0  0
   38.1840   25.5250   37.9740 H   0  0  0  0  0  0  0  0  0  0  0  0
   36.8300   20.8800   32.1680 C   0  0  0  0  0  0  0  0  0  0  0  0
   36.8280   21.7530   33.2640 C   0  0  0  0  0  0  0  0  0  0  0  0
   38.0200   22.1250   33.9010 C   0  0  0  0  0  0  0  0  0  0  0  0
   39.1450   21.5870   33.3830 N   0  0  0  0  0  0  0  0  0  0  0  0
   39.1450   20.7480   32.3290 C   0  0  0  0  0  0  0  0  0  0  0  0
   38.0070   20.3930   31.7220 N   0  0  0  0  0  0  0  0  0  0  0  0
   35.8300   20.6810   31.7760 H   0  0  0  0  0  0  0  0  0  0  0  0
   35.9360   22.1840   33.6800 H   0  0  0  0  0  0  0  0  0  0  0  0
   40.0960   20.3680   31.9880 H   0  0  0  0  0  0  0  0  0  0  0  0
   38.4880   26.7280   35.5620 C   0  0  0  0  0  0  0  0  0  0  0  0
   39.7490   26.8970   35.0350 F   0  0  0  0  0  0  0  0  0  0  0  0
   37.5160   27.2710   34.7800 F   0  0  0  0  0  0  0  0  0  0  0  0
   38.5000   27.3940   36.7960 F   0  0  0  0  0  0  0  0  0  0  0  0
  1  2  1  0  0  0  0
  2  3  2  0  0  0  0
  2  7  1  0  0  0  0
  3  4  1  0  0  0  0
  4  8  1  0  0  0  0
  4  5  2  0  0  0  0
  5  9  1  0  0  0  0
  6  5  1  0  0  0  0
  6 10  1  0  0  0  0
  7  6  2  0  0  0  0
 11 12  1  0  0  0  0
 12 18  1  0  0  0  0
 12 13  2  0  0  0  0
 13  3  1  0  0  0  0
 14 13  1  0  0  0  0
 15 14  2  0  0  0  0
 16 11  2  0  0  0  0
 16 15  1  0  0  0  0
 17 11  1  0  0  0  0
 19 15  1  0  0  0  0
 20  7  1  0  0  0  0
 20 23  1  0  0  0  0
 21 20  1  0  0  0  0
 22 20  1  0  0  0  0
M  END
>  <minimizedAffinity>
-4.42604542

$$$$
