
 OpenBabel03262522173D

 40 42  0  0  1  0  0  0  0  0999 V2000
   36.7890   26.0890   32.0680 C   0  0  0  0  0  0  0  0  0  0  0  0
   35.6380   26.3030   31.2790 C   0  0  0  0  0  0  0  0  0  0  0  0
   34.8800   25.2420   30.8460 C   0  0  0  0  0  0  0  0  0  0  0  0
   35.2940   23.9830   31.2110 C   0  0  0  0  0  0  0  0  0  0  0  0
   36.4080   23.8010   31.9720 C   0  0  0  0  0  0  0  0  0  0  0  0
   37.1690   24.8320   32.4120 N   0  0  0  0  0  0  0  0  0  0  0  0
   35.3640   27.3150   31.0260 H   0  0  0  0  0  0  0  0  0  0  0  0
   33.9950   25.3690   30.2430 H   0  0  0  0  0  0  0  0  0  0  0  0
   34.7000   23.1440   30.8720 H   0  0  0  0  0  0  0  0  0  0  0  0
   37.5370   27.2410   32.4900 C   0  0  0  0  0  0  0  0  0  0  0  0
   37.0730   28.3740   32.3690 O   0  0  0  0  0  0  0  0  0  0  0  0
   38.9970   26.9610   34.4640 C   0  0  0  0  0  0  0  0  0  0  0  0
   38.8890   27.1170   33.0810 C   0  0  0  0  0  0  0  0  0  0  0  0
   40.0430   27.1560   32.2870 C   0  0  0  0  0  0  0  0  0  0  0  0
   41.2590   27.0360   32.9050 N   0  0  0  0  0  0  0  0  0  0  0  0
   41.3380   26.8850   34.2410 C   0  0  0  0  0  0  0  0  0  0  0  0
   40.2340   26.8500   35.0000 N   0  0  0  0  0  0  0  0  0  0  0  0
   38.0880   26.9340   35.0560 H   0  0  0  0  0  0  0  0  0  0  0  0
   39.9150   27.2800   31.2120 H   0  0  0  0  0  0  0  0  0  0  0  0
   42.3500   26.7970   34.6490 H   0  0  0  0  0  0  0  0  0  0  0  0
   36.9530   22.1350   32.4550 S   0  0  0  0  0  0  0  0  0  0  0  0
   38.7490   22.2750   32.7300 C   0  0  0  0  0  0  0  0  0  0  0  0
   39.0200   23.3510   32.6990 H   0  0  0  0  0  0  0  0  0  0  0  0
   39.3510   21.6810   32.0460 H   0  0  0  0  0  0  0  0  0  0  0  0
   38.8770   22.8720   36.2110 C   0  0  1  0  0  0  0  0  0  0  0  0
   37.9970   22.3700   35.0990 C   0  0  0  0  0  0  0  0  0  0  0  0
   39.0200   21.8010   34.1500 C   0  0  2  0  0  0  0  0  0  0  0  0
   40.2680   22.1450   34.5900 O   0  0  0  0  0  0  0  0  0  0  0  0
   40.1390   23.2410   35.4440 C   0  0  0  0  0  0  0  0  0  0  0  0
   39.1360   22.0740   36.9450 H   0  0  0  0  0  0  0  0  0  0  0  0
   37.5130   23.2490   34.6110 H   0  0  0  0  0  0  0  0  0  0  0  0
   37.2670   21.6220   35.4180 H   0  0  0  0  0  0  0  0  0  0  0  0
   38.9470   20.6970   34.1560 H   0  0  0  0  0  0  0  0  0  0  0  0
   39.9810   24.1830   34.9190 H   0  0  0  0  0  0  0  0  0  0  0  0
   40.9660   23.2970   36.1700 H   0  0  0  0  0  0  0  0  0  0  0  0
   38.3350   23.9710   36.8500 O   0  0  0  0  0  0  0  0  0  0  0  0
   38.2620   23.8660   38.2100 C   0  0  0  0  0  0  0  0  0  0  0  0
   37.2760   22.9070   38.4780 F   0  0  0  0  0  0  0  0  0  0  0  0
   37.9930   25.0630   38.8220 F   0  0  0  0  0  0  0  0  0  0  0  0
   39.4640   23.3190   38.6680 F   0  0  0  0  0  0  0  0  0  0  0  0
  1  6  1  0  0  0  0
  1 10  1  0  0  0  0
  2  1  2  0  0  0  0
  3  4  2  0  0  0  0
  3  2  1  0  0  0  0
  4  5  1  0  0  0  0
  5  6  2  0  0  0  0
  5 21  1  0  0  0  0
  7  2  1  0  0  0  0
  8  3  1  0  0  0  0
  9  4  1  0  0  0  0
 10 13  1  0  0  0  0
 11 10  2  0  0  0  0
 12 17  1  0  0  0  0
 12 18  1  0  0  0  0
 13 12  2  0  0  0  0
 14 15  2  0  0  0  0
 14 13  1  0  0  0  0
 15 16  1  0  0  0  0
 16 20  1  0  0  0  0
 16 17  2  0  0  0  0
 19 14  1  0  0  0  0
 21 22  1  0  0  0  0
 22 27  1  0  0  0  0
 23 22  1  0  0  0  0
 24 22  1  0  0  0  0
 25 36  1  0  0  0  0
 25 30  1  1  0  0  0
 26 32  1  0  0  0  0
 26 25  1  0  0  0  0
 27 33  1  1  0  0  0
 27 28  1  0  0  0  0
 27 26  1  0  0  0  0
 28 29  1  0  0  0  0
 29 35  1  0  0  0  0
 29 25  1  0  0  0  0
 31 26  1  0  0  0  0
 34 29  1  0  0  0  0
 36 37  1  0  0  0  0
 37 38  1  0  0  0  0
 37 40  1  0  0  0  0
 37 39  1  0  0  0  0
M  END
>  <minimizedAffinity>
-5.72376966

$$$$

 OpenBabel03262522173D

 40 42  0  0  1  0  0  0  0  0999 V2000
   36.8850   25.9280   31.9890 C   0  0  0  0  0  0  0  0  0  0  0  0
   35.7520   25.8360   31.1520 C   0  0  0  0  0  0  0  0  0  0  0  0
   35.1390   24.6260   30.9350 C   0  0  0  0  0  0  0  0  0  0  0  0
   35.6760   23.5280   31.5630 C   0  0  0  0  0  0  0  0  0  0  0  0
   36.7690   23.6400   32.3660 C   0  0  0  0  0  0  0  0  0  0  0  0
   37.3890   24.8230   32.5950 N   0  0  0  0  0  0  0  0  0  0  0  0
   35.3760   26.7340   30.6880 H   0  0  0  0  0  0  0  0  0  0  0  0
   34.2720   24.5200   30.3030 H   0  0  0  0  0  0  0  0  0  0  0  0
   35.1960   22.5720   31.3950 H   0  0  0  0  0  0  0  0  0  0  0  0
   37.4790   27.2230   32.1750 C   0  0  0  0  0  0  0  0  0  0  0  0
   38.6600   27.4200   31.8980 O   0  0  0  0  0  0  0  0  0  0  0  0
   36.4320   29.4380   31.8510 C   0  0  0  0  0  0  0  0  0  0  0  0
   36.7020   28.3670   32.7040 C   0  0  0  0  0  0  0  0  0  0  0  0
   36.2420   28.3910   34.0280 C   0  0  0  0  0  0  0  0  0  0  0  0
   35.5300   29.4830   34.4470 N   0  0  0  0  0  0  0  0  0  0  0  0
   35.2820   30.5040   33.6050 C   0  0  0  0  0  0  0  0  0  0  0  0
   35.7230   30.4820   32.3400 N   0  0  0  0  0  0  0  0  0  0  0  0
   36.7990   29.3950   30.8310 H   0  0  0  0  0  0  0  0  0  0  0  0
   36.4740   27.5350   34.6610 H   0  0  0  0  0  0  0  0  0  0  0  0
   34.7060   31.3350   34.0250 H   0  0  0  0  0  0  0  0  0  0  0  0
   37.4790   22.1860   33.1960 S   0  0  0  0  0  0  0  0  0  0  0  0
   39.2810   22.3350   32.9770 C   0  0  0  0  0  0  0  0  0  0  0  0
   39.4940   23.3350   32.5450 H   0  0  0  0  0  0  0  0  0  0  0  0
   39.7260   21.5330   32.3930 H   0  0  0  0  0  0  0  0  0  0  0  0
   39.2780   23.3400   36.3660 C   0  0  1  0  0  0  0  0  0  0  0  0
   38.8260   22.2590   35.4220 C   0  0  0  0  0  0  0  0  0  0  0  0
   39.9000   22.3240   34.3670 C   0  0  2  0  0  0  0  0  0  0  0  0
   40.6830   23.4200   34.6030 O   0  0  0  0  0  0  0  0  0  0  0  0
   39.9610   24.3030   35.4060 C   0  0  0  0  0  0  0  0  0  0  0  0
   40.0380   22.9780   37.0970 H   0  0  0  0  0  0  0  0  0  0  0  0
   37.8600   22.5770   34.9620 H   0  0  0  0  0  0  0  0  0  0  0  0
   38.7580   21.2700   35.8830 H   0  0  0  0  0  0  0  0  0  0  0  0
   40.5390   21.4240   34.4430 H   0  0  0  0  0  0  0  0  0  0  0  0
   39.2040   24.8660   34.8600 H   0  0  0  0  0  0  0  0  0  0  0  0
   40.6210   24.9540   36.0010 H   0  0  0  0  0  0  0  0  0  0  0  0
   38.2170   23.9410   37.0170 O   0  0  0  0  0  0  0  0  0  0  0  0
   38.1910   23.7500   38.3690 C   0  0  0  0  0  0  0  0  0  0  0  0
   39.4870   23.3660   38.7370 F   0  0  0  0  0  0  0  0  0  0  0  0
   37.2530   22.8280   38.7580 F   0  0  0  0  0  0  0  0  0  0  0  0
   37.9700   24.9890   38.9780 F   0  0  0  0  0  0  0  0  0  0  0  0
  1 10  1  0  0  0  0
  1  6  1  0  0  0  0
  2  1  2  0  0  0  0
  3  2  1  0  0  0  0
  3  4  2  0  0  0  0
  4  5  1  0  0  0  0
  5  6  2  0  0  0  0
  5 21  1  0  0  0  0
  7  2  1  0  0  0  0
  8  3  1  0  0  0  0
  9  4  1  0  0  0  0
 10 13  1  0  0  0  0
 11 10  2  0  0  0  0
 12 17  2  0  0  0  0
 12 13  1  0  0  0  0
 13 14  2  0  0  0  0
 14 15  1  0  0  0  0
 14 19  1  0  0  0  0
 16 20  1  0  0  0  0
 16 15  2  0  0  0  0
 17 16  1  0  0  0  0
 18 12  1  0  0  0  0
 22 21  1  0  0  0  0
 22 27  1  0  0  0  0
 23 22  1  0  0  0  0
 24 22  1  0  0  0  0
 25 36  1  0  0  0  0
 25 30  1  1  0  0  0
 26 32  1  0  0  0  0
 26 25  1  0  0  0  0
 27 33  1  1  0  0  0
 27 28  1  0  0  0  0
 27 26  1  0  0  0  0
 28 29  1  0  0  0  0
 29 35  1  0  0  0  0
 29 25  1  0  0  0  0
 31 26  1  0  0  0  0
 34 29  1  0  0  0  0
 36 37  1  0  0  0  0
 37 38  1  0  0  0  0
 37 39  1  0  0  0  0
 37 40  1  0  0  0  0
M  END
>  <minimizedAffinity>
-5.64294052

$$$$

 OpenBabel03262522173D

 40 42  0  0  1  0  0  0  0  0999 V2000
   38.0530   25.0840   35.6870 C   0  0  0  0  0  0  0  0  0  0  0  0
   38.4470   26.3390   36.1990 C   0  0  0  0  0  0  0  0  0  0  0  0
   38.2880   27.4810   35.4510 C   0  0  0  0  0  0  0  0  0  0  0  0
   37.7370   27.3410   34.2000 C   0  0  0  0  0  0  0  0  0  0  0  0
   37.3650   26.1200   33.7270 C   0  0  0  0  0  0  0  0  0  0  0  0
   37.5110   24.9820   34.4460 N   0  0  0  0  0  0  0  0  0  0  0  0
   38.8730   26.3840   37.1890 H   0  0  0  0  0  0  0  0  0  0  0  0
   38.5770   28.4550   35.8120 H   0  0  0  0  0  0  0  0  0  0  0  0
   37.6090   28.2380   33.6070 H   0  0  0  0  0  0  0  0  0  0  0  0
   38.2460   23.9290   36.5190 C   0  0  0  0  0  0  0  0  0  0  0  0
   37.3850   23.5830   37.3270 O   0  0  0  0  0  0  0  0  0  0  0  0
   40.0320   22.6330   37.6310 C   0  0  0  0  0  0  0  0  0  0  0  0
   39.4780   23.1120   36.4430 C   0  0  0  0  0  0  0  0  0  0  0  0
   40.0880   22.8170   35.2150 C   0  0  0  0  0  0  0  0  0  0  0  0
   41.2250   22.0560   35.2240 N   0  0  0  0  0  0  0  0  0  0  0  0
   41.7410   21.6050   36.3830 C   0  0  0  0  0  0  0  0  0  0  0  0
   41.1590   21.8870   37.5570 N   0  0  0  0  0  0  0  0  0  0  0  0
   39.5410   22.8750   38.5680 H   0  0  0  0  0  0  0  0  0  0  0  0
   39.6240   23.2110   34.3110 H   0  0  0  0  0  0  0  0  0  0  0  0
   42.6520   21.0050   36.2950 H   0  0  0  0  0  0  0  0  0  0  0  0
   36.6350   25.9380   32.0710 S   0  0  0  0  0  0  0  0  0  0  0  0
   37.9650   25.2560   31.0290 C   0  0  0  0  0  0  0  0  0  0  0  0
   38.8740   25.1480   31.6570 H   0  0  0  0  0  0  0  0  0  0  0  0
   38.1580   25.8270   30.1240 H   0  0  0  0  0  0  0  0  0  0  0  0
   36.7960   22.0300   31.8780 C   0  0  1  0  0  0  0  0  0  0  0  0
   36.3580   23.4040   31.4520 C   0  0  0  0  0  0  0  0  0  0  0  0
   37.5430   23.8490   30.6330 C   0  0  2  0  0  0  0  0  0  0  0  0
   38.5490   22.9350   30.7840 O   0  0  0  0  0  0  0  0  0  0  0  0
   38.3060   22.2120   31.9510 C   0  0  0  0  0  0  0  0  0  0  0  0
   36.5760   21.2530   31.1100 H   0  0  0  0  0  0  0  0  0  0  0  0
   36.2940   24.0500   32.3600 H   0  0  0  0  0  0  0  0  0  0  0  0
   35.4300   23.4120   30.8750 H   0  0  0  0  0  0  0  0  0  0  0  0
   37.2580   23.8720   29.5650 H   0  0  0  0  0  0  0  0  0  0  0  0
   38.5610   22.7560   32.8600 H   0  0  0  0  0  0  0  0  0  0  0  0
   38.7640   21.2110   31.9190 H   0  0  0  0  0  0  0  0  0  0  0  0
   36.2700   21.6720   33.1050 O   0  0  0  0  0  0  0  0  0  0  0  0
   35.6550   20.4530   33.1310 C   0  0  0  0  0  0  0  0  0  0  0  0
   35.3190   20.2110   34.4700 F   0  0  0  0  0  0  0  0  0  0  0  0
   36.4350   19.4520   32.6100 F   0  0  0  0  0  0  0  0  0  0  0  0
   34.4430   20.5630   32.4440 F   0  0  0  0  0  0  0  0  0  0  0  0
  1  2  1  0  0  0  0
  1 10  1  0  0  0  0
  2  7  1  0  0  0  0
  3  8  1  0  0  0  0
  3  2  2  0  0  0  0
  4  3  1  0  0  0  0
  5  4  2  0  0  0  0
  5  6  1  0  0  0  0
  6  1  2  0  0  0  0
  9  4  1  0  0  0  0
 10 11  2  0  0  0  0
 12 18  1  0  0  0  0
 13 10  1  0  0  0  0
 13 12  2  0  0  0  0
 14 15  2  0  0  0  0
 14 13  1  0  0  0  0
 15 16  1  0  0  0  0
 16 17  2  0  0  0  0
 17 12  1  0  0  0  0
 19 14  1  0  0  0  0
 20 16  1  0  0  0  0
 21  5  1  0  0  0  0
 22 23  1  0  0  0  0
 22 21  1  0  0  0  0
 24 22  1  0  0  0  0
 25 30  1  6  0  0  0
 25 29  1  0  0  0  0
 25 36  1  0  0  0  0
 26 25  1  0  0  0  0
 26 31  1  0  0  0  0
 27 33  1  6  0  0  0
 27 28  1  0  0  0  0
 27 22  1  0  0  0  0
 27 26  1  0  0  0  0
 28 29  1  0  0  0  0
 29 34  1  0  0  0  0
 32 26  1  0  0  0  0
 35 29  1  0  0  0  0
 36 37  1  0  0  0  0
 37 38  1  0  0  0  0
 39 37  1  0  0  0  0
 40 37  1  0  0  0  0
M  END
>  <minimizedAffinity>
-5.62621546

$$$$

 OpenBabel03262522173D

 40 42  0  0  1  0  0  0  0  0999 V2000
   35.1110   29.5350   33.1070 C   0  0  0  0  0  0  0  0  0  0  0  0
   34.8740   30.3300   31.9650 C   0  0  0  0  0  0  0  0  0  0  0  0
   35.6740   30.2120   30.8540 C   0  0  0  0  0  0  0  0  0  0  0  0
   36.6980   29.2980   30.9100 C   0  0  0  0  0  0  0  0  0  0  0  0
   36.9070   28.5420   32.0220 C   0  0  0  0  0  0  0  0  0  0  0  0
   36.1320   28.6400   33.1290 N   0  0  0  0  0  0  0  0  0  0  0  0
   34.0540   31.0290   31.9810 H   0  0  0  0  0  0  0  0  0  0  0  0
   35.5210   30.8030   29.9640 H   0  0  0  0  0  0  0  0  0  0  0  0
   37.3300   29.2010   30.0360 H   0  0  0  0  0  0  0  0  0  0  0  0
   34.2390   29.7060   34.2360 C   0  0  0  0  0  0  0  0  0  0  0  0
   33.2760   28.9610   34.4080 O   0  0  0  0  0  0  0  0  0  0  0  0
   33.4090   31.1150   36.0880 C   0  0  0  0  0  0  0  0  0  0  0  0
   34.4590   30.7770   35.2340 C   0  0  0  0  0  0  0  0  0  0  0  0
   35.6870   31.4470   35.3320 C   0  0  0  0  0  0  0  0  0  0  0  0
   35.8160   32.4270   36.2790 N   0  0  0  0  0  0  0  0  0  0  0  0
   34.7880   32.7350   37.0920 C   0  0  0  0  0  0  0  0  0  0  0  0
   33.6140   32.0960   36.9980 N   0  0  0  0  0  0  0  0  0  0  0  0
   32.4690   30.5820   35.9920 H   0  0  0  0  0  0  0  0  0  0  0  0
   36.4810   31.1520   34.6460 H   0  0  0  0  0  0  0  0  0  0  0  0
   34.9810   33.5320   37.8190 H   0  0  0  0  0  0  0  0  0  0  0  0
   38.2630   27.3320   32.0940 S   0  0  0  0  0  0  0  0  0  0  0  0
   37.5900   25.9060   33.0060 C   0  0  0  0  0  0  0  0  0  0  0  0
   37.5350   25.0440   32.3070 H   0  0  0  0  0  0  0  0  0  0  0  0
   36.6370   26.0990   33.4940 H   0  0  0  0  0  0  0  0  0  0  0  0
   38.3890   24.8140   36.2710 C   0  0  1  0  0  0  0  0  0  0  0  0
   38.1390   24.3450   34.8640 C   0  0  0  0  0  0  0  0  0  0  0  0
   38.6120   25.5350   34.0700 C   0  0  2  0  0  0  0  0  0  0  0  0
   38.8710   26.5650   34.9320 O   0  0  0  0  0  0  0  0  0  0  0  0
   38.1870   26.3160   36.1210 C   0  0  0  0  0  0  0  0  0  0  0  0
   39.4390   24.6360   36.6010 H   0  0  0  0  0  0  0  0  0  0  0  0
   37.0370   24.2410   34.7200 H   0  0  0  0  0  0  0  0  0  0  0  0
   38.6770   23.4310   34.6010 H   0  0  0  0  0  0  0  0  0  0  0  0
   39.5560   25.2750   33.5540 H   0  0  0  0  0  0  0  0  0  0  0  0
   37.1200   26.5320   36.0620 H   0  0  0  0  0  0  0  0  0  0  0  0
   38.6670   26.8040   36.9840 H   0  0  0  0  0  0  0  0  0  0  0  0
   37.4910   24.2700   37.1700 O   0  0  0  0  0  0  0  0  0  0  0  0
   38.0490   23.8010   38.3250 C   0  0  0  0  0  0  0  0  0  0  0  0
   39.3540   23.4080   38.0010 F   0  0  0  0  0  0  0  0  0  0  0  0
   37.3290   22.7770   38.8850 F   0  0  0  0  0  0  0  0  0  0  0  0
   38.1800   24.8750   39.2110 F   0  0  0  0  0  0  0  0  0  0  0  0
  1  6  1  0  0  0  0
  1 10  1  0  0  0  0
  2  7  1  0  0  0  0
  2  1  2  0  0  0  0
  3  4  2  0  0  0  0
  3  2  1  0  0  0  0
  4  5  1  0  0  0  0
  5 21  1  0  0  0  0
  5  6  2  0  0  0  0
  8  3  1  0  0  0  0
  9  4  1  0  0  0  0
 10 11  2  0  0  0  0
 10 13  1  0  0  0  0
 12 17  1  0  0  0  0
 13 14  1  0  0  0  0
 13 12  2  0  0  0  0
 14 15  2  0  0  0  0
 15 16  1  0  0  0  0
 16 20  1  0  0  0  0
 17 16  2  0  0  0  0
 18 12  1  0  0  0  0
 19 14  1  0  0  0  0
 21 22  1  0  0  0  0
 22 24  1  0  0  0  0
 22 27  1  0  0  0  0
 23 22  1  0  0  0  0
 25 30  1  1  0  0  0
 25 36  1  0  0  0  0
 26 25  1  0  0  0  0
 27 33  1  6  0  0  0
 27 26  1  0  0  0  0
 27 28  1  0  0  0  0
 28 29  1  0  0  0  0
 29 25  1  0  0  0  0
 29 35  1  0  0  0  0
 31 26  1  0  0  0  0
 32 26  1  0  0  0  0
 34 29  1  0  0  0  0
 36 37  1  0  0  0  0
 37 39  1  0  0  0  0
 37 40  1  0  0  0  0
 38 37  1  0  0  0  0
M  END
>  <minimizedAffinity>
-5.56898594

$$$$

 OpenBabel03262522173D

 40 42  0  0  1  0  0  0  0  0999 V2000
   36.6500   25.9470   32.1160 C   0  0  0  0  0  0  0  0  0  0  0  0
   35.5690   25.8580   31.2130 C   0  0  0  0  0  0  0  0  0  0  0  0
   35.0530   24.6340   30.8590 C   0  0  0  0  0  0  0  0  0  0  0  0
   35.6330   23.5210   31.4190 C   0  0  0  0  0  0  0  0  0  0  0  0
   36.6750   23.6310   32.2870 C   0  0  0  0  0  0  0  0  0  0  0  0
   37.2000   24.8260   32.6510 N   0  0  0  0  0  0  0  0  0  0  0  0
   35.1560   26.7670   30.8080 H   0  0  0  0  0  0  0  0  0  0  0  0
   34.2270   24.5300   30.1730 H   0  0  0  0  0  0  0  0  0  0  0  0
   35.2290   22.5550   31.1430 H   0  0  0  0  0  0  0  0  0  0  0  0
   37.1440   27.2550   32.4450 C   0  0  0  0  0  0  0  0  0  0  0  0
   37.5160   27.5200   33.5870 O   0  0  0  0  0  0  0  0  0  0  0  0
   38.2390   28.2730   30.4780 C   0  0  0  0  0  0  0  0  0  0  0  0
   37.2240   28.3340   31.4340 C   0  0  0  0  0  0  0  0  0  0  0  0
   36.3120   29.3990   31.4230 C   0  0  0  0  0  0  0  0  0  0  0  0
   36.4500   30.3590   30.4580 N   0  0  0  0  0  0  0  0  0  0  0  0
   37.4370   30.2790   29.5450 C   0  0  0  0  0  0  0  0  0  0  0  0
   38.3100   29.2620   29.5570 N   0  0  0  0  0  0  0  0  0  0  0  0
   38.9330   27.4390   30.5080 H   0  0  0  0  0  0  0  0  0  0  0  0
   35.5350   29.4080   32.1870 H   0  0  0  0  0  0  0  0  0  0  0  0
   37.4720   31.0910   28.8120 H   0  0  0  0  0  0  0  0  0  0  0  0
   37.4420   22.1570   33.0270 S   0  0  0  0  0  0  0  0  0  0  0  0
   39.2380   22.4460   32.9290 C   0  0  0  0  0  0  0  0  0  0  0  0
   39.4020   23.5100   32.6590 H   0  0  0  0  0  0  0  0  0  0  0  0
   39.7620   21.7680   32.2590 H   0  0  0  0  0  0  0  0  0  0  0  0
   39.2300   23.2270   36.3770 C   0  0  1  0  0  0  0  0  0  0  0  0
   38.6790   22.2770   35.3480 C   0  0  0  0  0  0  0  0  0  0  0  0
   39.7940   22.2650   34.3330 C   0  0  2  0  0  0  0  0  0  0  0  0
   40.7030   23.2300   34.6680 O   0  0  0  0  0  0  0  0  0  0  0  0
   40.0710   24.1490   35.5060 C   0  0  0  0  0  0  0  0  0  0  0  0
   39.9070   22.7220   37.1040 H   0  0  0  0  0  0  0  0  0  0  0  0
   37.7820   22.7490   34.8800 H   0  0  0  0  0  0  0  0  0  0  0  0
   38.4640   21.2790   35.7390 H   0  0  0  0  0  0  0  0  0  0  0  0
   40.3060   21.2850   34.3690 H   0  0  0  0  0  0  0  0  0  0  0  0
   39.4170   24.8410   34.9750 H   0  0  0  0  0  0  0  0  0  0  0  0
   40.7860   24.6680   36.1640 H   0  0  0  0  0  0  0  0  0  0  0  0
   38.2320   23.9210   37.0330 O   0  0  0  0  0  0  0  0  0  0  0  0
   38.2050   23.7450   38.3870 C   0  0  0  0  0  0  0  0  0  0  0  0
   39.5000   23.3620   38.7590 F   0  0  0  0  0  0  0  0  0  0  0  0
   37.2650   22.8290   38.7850 F   0  0  0  0  0  0  0  0  0  0  0  0
   37.9860   24.9910   38.9820 F   0  0  0  0  0  0  0  0  0  0  0  0
  1 10  1  0  0  0  0
  1  6  1  0  0  0  0
  2  1  2  0  0  0  0
  3  2  1  0  0  0  0
  3  4  2  0  0  0  0
  4  5  1  0  0  0  0
  5  6  2  0  0  0  0
  5 21  1  0  0  0  0
  7  2  1  0  0  0  0
  8  3  1  0  0  0  0
  9  4  1  0  0  0  0
 10 11  2  0  0  0  0
 12 18  1  0  0  0  0
 12 13  1  0  0  0  0
 13 10  1  0  0  0  0
 14 13  2  0  0  0  0
 14 19  1  0  0  0  0
 15 14  1  0  0  0  0
 16 17  1  0  0  0  0
 16 15  2  0  0  0  0
 17 12  2  0  0  0  0
 20 16  1  0  0  0  0
 22 21  1  0  0  0  0
 22 27  1  0  0  0  0
 23 22  1  0  0  0  0
 24 22  1  0  0  0  0
 25 36  1  0  0  0  0
 25 30  1  1  0  0  0
 26 32  1  0  0  0  0
 26 25  1  0  0  0  0
 27 33  1  1  0  0  0
 27 28  1  0  0  0  0
 27 26  1  0  0  0  0
 28 29  1  0  0  0  0
 29 35  1  0  0  0  0
 29 25  1  0  0  0  0
 31 26  1  0  0  0  0
 34 29  1  0  0  0  0
 36 37  1  0  0  0  0
 37 38  1  0  0  0  0
 37 39  1  0  0  0  0
 37 40  1  0  0  0  0
M  END
>  <minimizedAffinity>
-5.56015158

$$$$

 OpenBabel03262522173D

 40 42  0  0  1  0  0  0  0  0999 V2000
   36.5990   23.7660   31.9340 C   0  0  0  0  0  0  0  0  0  0  0  0
   35.3890   23.9720   31.2370 C   0  0  0  0  0  0  0  0  0  0  0  0
   35.0140   25.2350   30.8470 C   0  0  0  0  0  0  0  0  0  0  0  0
   35.8620   26.2700   31.1650 C   0  0  0  0  0  0  0  0  0  0  0  0
   37.0240   26.0460   31.8380 C   0  0  0  0  0  0  0  0  0  0  0  0
   37.4140   24.8100   32.2310 N   0  0  0  0  0  0  0  0  0  0  0  0
   34.7670   23.1210   31.0160 H   0  0  0  0  0  0  0  0  0  0  0  0
   34.0980   25.4290   30.3130 H   0  0  0  0  0  0  0  0  0  0  0  0
   35.5710   27.2670   30.8590 H   0  0  0  0  0  0  0  0  0  0  0  0
   36.9340   22.4210   32.3130 C   0  0  0  0  0  0  0  0  0  0  0  0
   37.0750   22.1160   33.4960 O   0  0  0  0  0  0  0  0  0  0  0  0
   36.1600   20.3470   31.2160 C   0  0  0  0  0  0  0  0  0  0  0  0
   37.1230   21.3520   31.3060 C   0  0  0  0  0  0  0  0  0  0  0  0
   38.2380   21.3350   30.4560 C   0  0  0  0  0  0  0  0  0  0  0  0
   38.3450   20.3150   29.5500 N   0  0  0  0  0  0  0  0  0  0  0  0
   37.4020   19.3550   29.4820 C   0  0  0  0  0  0  0  0  0  0  0  0
   36.3370   19.3710   30.2950 N   0  0  0  0  0  0  0  0  0  0  0  0
   35.3070   20.3830   31.8850 H   0  0  0  0  0  0  0  0  0  0  0  0
   38.9670   22.1390   30.5590 H   0  0  0  0  0  0  0  0  0  0  0  0
   37.5700   18.5790   28.7280 H   0  0  0  0  0  0  0  0  0  0  0  0
   38.1450   27.4160   32.2570 S   0  0  0  0  0  0  0  0  0  0  0  0
   39.5640   26.6400   33.0940 C   0  0  0  0  0  0  0  0  0  0  0  0
   40.4830   27.1860   32.7950 H   0  0  0  0  0  0  0  0  0  0  0  0
   39.6500   25.5690   32.9230 H   0  0  0  0  0  0  0  0  0  0  0  0
   38.3540   25.6300   36.2580 C   0  0  1  0  0  0  0  0  0  0  0  0
   39.5530   25.5900   35.3500 C   0  0  0  0  0  0  0  0  0  0  0  0
   39.3850   26.8780   34.5860 C   0  0  2  0  0  0  0  0  0  0  0  0
   38.1650   27.4150   34.8910 O   0  0  0  0  0  0  0  0  0  0  0  0
   37.3580   26.3960   35.3980 C   0  0  0  0  0  0  0  0  0  0  0  0
   38.5400   26.2210   37.1850 H   0  0  0  0  0  0  0  0  0  0  0  0
   39.4240   24.7390   34.6380 H   0  0  0  0  0  0  0  0  0  0  0  0
   40.5070   25.5440   35.8800 H   0  0  0  0  0  0  0  0  0  0  0  0
   40.1640   27.5950   34.9080 H   0  0  0  0  0  0  0  0  0  0  0  0
   36.9600   25.7330   34.6290 H   0  0  0  0  0  0  0  0  0  0  0  0
   36.5730   26.7850   36.0650 H   0  0  0  0  0  0  0  0  0  0  0  0
   37.8890   24.3660   36.5660 O   0  0  0  0  0  0  0  0  0  0  0  0
   38.1460   23.9550   37.8430 C   0  0  0  0  0  0  0  0  0  0  0  0
   37.2110   22.9510   38.1280 F   0  0  0  0  0  0  0  0  0  0  0  0
   38.0900   24.9810   38.7520 F   0  0  0  0  0  0  0  0  0  0  0  0
   39.3960   23.3310   37.8550 F   0  0  0  0  0  0  0  0  0  0  0  0
  1  6  1  0  0  0  0
  1 10  1  0  0  0  0
  2  1  2  0  0  0  0
  3  4  2  0  0  0  0
  3  2  1  0  0  0  0
  4  5  1  0  0  0  0
  5  6  2  0  0  0  0
  5 21  1  0  0  0  0
  7  2  1  0  0  0  0
  8  3  1  0  0  0  0
  9  4  1  0  0  0  0
 10 11  2  0  0  0  0
 12 13  1  0  0  0  0
 12 18  1  0  0  0  0
 13 10  1  0  0  0  0
 14 19  1  0  0  0  0
 14 13  2  0  0  0  0
 15 14  1  0  0  0  0
 16 15  2  0  0  0  0
 16 17  1  0  0  0  0
 17 12  2  0  0  0  0
 20 16  1  0  0  0  0
 21 22  1  0  0  0  0
 22 27  1  0  0  0  0
 23 22  1  0  0  0  0
 24 22  1  0  0  0  0
 25 36  1  0  0  0  0
 25 30  1  1  0  0  0
 26 32  1  0  0  0  0
 26 25  1  0  0  0  0
 27 28  1  0  0  0  0
 27 33  1  1  0  0  0
 27 26  1  0  0  0  0
 28 29  1  0  0  0  0
 29 35  1  0  0  0  0
 29 25  1  0  0  0  0
 31 26  1  0  0  0  0
 34 29  1  0  0  0  0
 36 37  1  0  0  0  0
 37 40  1  0  0  0  0
 37 38  1  0  0  0  0
 37 39  1  0  0  0  0
M  END
>  <minimizedAffinity>
-5.55609179

$$$$

 OpenBabel03262522173D

 40 42  0  0  1  0  0  0  0  0999 V2000
   37.6690   22.1030   33.5970 C   0  0  0  0  0  0  0  0  0  0  0  0
   36.7430   21.0380   33.6390 C   0  0  0  0  0  0  0  0  0  0  0  0
   35.6210   21.0560   32.8460 C   0  0  0  0  0  0  0  0  0  0  0  0
   35.4480   22.1450   32.0260 C   0  0  0  0  0  0  0  0  0  0  0  0
   36.3540   23.1610   32.0020 C   0  0  0  0  0  0  0  0  0  0  0  0
   37.4680   23.1640   32.7730 N   0  0  0  0  0  0  0  0  0  0  0  0
   36.9340   20.2110   34.3030 H   0  0  0  0  0  0  0  0  0  0  0  0
   34.8940   20.2600   32.8520 H   0  0  0  0  0  0  0  0  0  0  0  0
   34.5650   22.1640   31.3990 H   0  0  0  0  0  0  0  0  0  0  0  0
   38.8220   22.0230   34.4500 C   0  0  0  0  0  0  0  0  0  0  0  0
   39.8830   21.5600   34.0350 O   0  0  0  0  0  0  0  0  0  0  0  0
   39.9400   22.3660   36.6270 C   0  0  0  0  0  0  0  0  0  0  0  0
   38.7850   22.4900   35.8540 C   0  0  0  0  0  0  0  0  0  0  0  0
   37.6240   23.0450   36.4120 C   0  0  0  0  0  0  0  0  0  0  0  0
   37.6650   23.4540   37.7180 N   0  0  0  0  0  0  0  0  0  0  0  0
   38.7920   23.3240   38.4430 C   0  0  0  0  0  0  0  0  0  0  0  0
   39.9010   22.7930   37.9100 N   0  0  0  0  0  0  0  0  0  0  0  0
   40.8260   21.9340   36.1720 H   0  0  0  0  0  0  0  0  0  0  0  0
   36.7430   23.1230   35.7750 H   0  0  0  0  0  0  0  0  0  0  0  0
   38.7330   23.6770   39.4780 H   0  0  0  0  0  0  0  0  0  0  0  0
   36.1240   24.6010   30.9150 S   0  0  0  0  0  0  0  0  0  0  0  0
   37.8040   25.1880   30.5300 C   0  0  0  0  0  0  0  0  0  0  0  0
   37.8290   25.4870   29.4610 H   0  0  0  0  0  0  0  0  0  0  0  0
   38.5910   24.4790   30.7750 H   0  0  0  0  0  0  0  0  0  0  0  0
   37.9690   26.8870   33.6250 C   0  0  1  0  0  0  0  0  0  0  0  0
   38.7900   26.1500   32.6020 C   0  0  0  0  0  0  0  0  0  0  0  0
   38.0280   26.4570   31.3380 C   0  0  2  0  0  0  0  0  0  0  0  0
   36.8570   27.0820   31.6720 O   0  0  0  0  0  0  0  0  0  0  0  0
   36.5800   26.7980   33.0090 C   0  0  0  0  0  0  0  0  0  0  0  0
   38.2480   27.9640   33.7010 H   0  0  0  0  0  0  0  0  0  0  0  0
   38.7060   25.0560   32.8070 H   0  0  0  0  0  0  0  0  0  0  0  0
   39.8300   26.4820   32.5490 H   0  0  0  0  0  0  0  0  0  0  0  0
   38.6220   27.1530   30.7160 H   0  0  0  0  0  0  0  0  0  0  0  0
   36.1790   25.7960   33.1650 H   0  0  0  0  0  0  0  0  0  0  0  0
   35.9580   27.5770   33.4760 H   0  0  0  0  0  0  0  0  0  0  0  0
   38.0130   26.2790   34.8650 O   0  0  0  0  0  0  0  0  0  0  0  0
   38.5060   27.0600   35.8700 C   0  0  0  0  0  0  0  0  0  0  0  0
   39.8740   27.2170   35.6110 F   0  0  0  0  0  0  0  0  0  0  0  0
   38.2780   26.5320   37.1150 F   0  0  0  0  0  0  0  0  0  0  0  0
   37.9430   28.3340   35.7470 F   0  0  0  0  0  0  0  0  0  0  0  0
  1  2  1  0  0  0  0
  1 10  1  0  0  0  0
  2  7  1  0  0  0  0
  3  8  1  0  0  0  0
  3  2  2  0  0  0  0
  4  3  1  0  0  0  0
  5  4  2  0  0  0  0
  5  6  1  0  0  0  0
  6  1  2  0  0  0  0
  9  4  1  0  0  0  0
 10 13  1  0  0  0  0
 11 10  2  0  0  0  0
 12 17  1  0  0  0  0
 13 14  1  0  0  0  0
 13 12  2  0  0  0  0
 14 15  2  0  0  0  0
 15 16  1  0  0  0  0
 16 20  1  0  0  0  0
 17 16  2  0  0  0  0
 18 12  1  0  0  0  0
 19 14  1  0  0  0  0
 21  5  1  0  0  0  0
 22 24  1  0  0  0  0
 22 21  1  0  0  0  0
 22 27  1  0  0  0  0
 23 22  1  0  0  0  0
 25 30  1  1  0  0  0
 25 36  1  0  0  0  0
 26 31  1  0  0  0  0
 26 25  1  0  0  0  0
 27 33  1  6  0  0  0
 27 28  1  0  0  0  0
 27 26  1  0  0  0  0
 28 29  1  0  0  0  0
 29 34  1  0  0  0  0
 29 35  1  0  0  0  0
 29 25  1  0  0  0  0
 32 26  1  0  0  0  0
 36 37  1  0  0  0  0
 37 39  1  0  0  0  0
 38 37  1  0  0  0  0
 40 37  1  0  0  0  0
M  END
>  <minimizedAffinity>
-5.53793716

$$$$

 OpenBabel03262522173D

 40 42  0  0  1  0  0  0  0  0999 V2000
   37.3140   27.3260   33.2680 C   0  0  0  0  0  0  0  0  0  0  0  0
   37.0460   27.7570   34.5850 C   0  0  0  0  0  0  0  0  0  0  0  0
   38.0100   27.6680   35.5600 C   0  0  0  0  0  0  0  0  0  0  0  0
   39.2280   27.1450   35.1940 C   0  0  0  0  0  0  0  0  0  0  0  0
   39.4630   26.7350   33.9180 C   0  0  0  0  0  0  0  0  0  0  0  0
   38.5290   26.8140   32.9400 N   0  0  0  0  0  0  0  0  0  0  0  0
   36.0720   28.1600   34.8100 H   0  0  0  0  0  0  0  0  0  0  0  0
   37.8400   27.9880   36.5750 H   0  0  0  0  0  0  0  0  0  0  0  0
   39.9910   27.0720   35.9590 H   0  0  0  0  0  0  0  0  0  0  0  0
   36.2640   27.4470   32.2950 C   0  0  0  0  0  0  0  0  0  0  0  0
   35.8100   26.4540   31.7300 O   0  0  0  0  0  0  0  0  0  0  0  0
   36.3660   29.5520   31.0040 C   0  0  0  0  0  0  0  0  0  0  0  0
   35.6870   28.7610   31.9320 C   0  0  0  0  0  0  0  0  0  0  0  0
   34.4880   29.2180   32.4990 C   0  0  0  0  0  0  0  0  0  0  0  0
   34.0170   30.4440   32.1160 N   0  0  0  0  0  0  0  0  0  0  0  0
   34.6900   31.1890   31.2180 C   0  0  0  0  0  0  0  0  0  0  0  0
   35.8360   30.7530   30.6770 N   0  0  0  0  0  0  0  0  0  0  0  0
   37.2920   29.1760   30.5810 H   0  0  0  0  0  0  0  0  0  0  0  0
   33.9900   28.5700   33.2200 H   0  0  0  0  0  0  0  0  0  0  0  0
   34.2390   32.1550   30.9700 H   0  0  0  0  0  0  0  0  0  0  0  0
   41.0750   26.0430   33.4360 S   0  0  0  0  0  0  0  0  0  0  0  0
   41.7090   25.2110   34.9270 C   0  0  0  0  0  0  0  0  0  0  0  0
   41.3700   25.7860   35.8140 H   0  0  0  0  0  0  0  0  0  0  0  0
   42.7850   25.0550   34.9270 H   0  0  0  0  0  0  0  0  0  0  0  0
   39.8590   22.7840   36.7120 C   0  0  1  0  0  0  0  0  0  0  0  0
   39.7340   23.9580   35.7790 C   0  0  0  0  0  0  0  0  0  0  0  0
   41.0240   23.8550   35.0050 C   0  0  2  0  0  0  0  0  0  0  0  0
   41.8110   22.8990   35.5860 O   0  0  0  0  0  0  0  0  0  0  0  0
   41.3680   22.7120   36.8960 C   0  0  0  0  0  0  0  0  0  0  0  0
   39.5190   21.8300   36.2450 H   0  0  0  0  0  0  0  0  0  0  0  0
   39.7630   24.8930   36.3870 H   0  0  0  0  0  0  0  0  0  0  0  0
   38.8570   23.9150   35.1300 H   0  0  0  0  0  0  0  0  0  0  0  0
   40.8010   23.5310   33.9700 H   0  0  0  0  0  0  0  0  0  0  0  0
   41.6870   23.5000   37.5790 H   0  0  0  0  0  0  0  0  0  0  0  0
   41.6100   21.7060   37.2730 H   0  0  0  0  0  0  0  0  0  0  0  0
   39.2120   23.0020   37.9130 O   0  0  0  0  0  0  0  0  0  0  0  0
   37.8690   23.2260   37.8100 C   0  0  0  0  0  0  0  0  0  0  0  0
   37.2940   22.7230   38.9840 F   0  0  0  0  0  0  0  0  0  0  0  0
   37.3200   22.6600   36.6880 F   0  0  0  0  0  0  0  0  0  0  0  0
   37.6560   24.6080   37.8390 F   0  0  0  0  0  0  0  0  0  0  0  0
  1  2  1  0  0  0  0
  2  7  1  0  0  0  0
  2  3  2  0  0  0  0
  3  8  1  0  0  0  0
  4  3  1  0  0  0  0
  4  9  1  0  0  0  0
  5  4  2  0  0  0  0
  6  1  2  0  0  0  0
  6  5  1  0  0  0  0
 10  1  1  0  0  0  0
 11 10  2  0  0  0  0
 12 13  1  0  0  0  0
 13 10  1  0  0  0  0
 13 14  2  0  0  0  0
 14 19  1  0  0  0  0
 15 14  1  0  0  0  0
 16 15  2  0  0  0  0
 17 12  2  0  0  0  0
 17 16  1  0  0  0  0
 18 12  1  0  0  0  0
 20 16  1  0  0  0  0
 21  5  1  0  0  0  0
 21 22  1  0  0  0  0
 22 24  1  0  0  0  0
 22 27  1  0  0  0  0
 22 23  1  0  0  0  0
 25 30  1  6  0  0  0
 25 29  1  0  0  0  0
 25 36  1  0  0  0  0
 26 31  1  0  0  0  0
 26 25  1  0  0  0  0
 27 33  1  6  0  0  0
 27 28  1  0  0  0  0
 27 26  1  0  0  0  0
 28 29  1  0  0  0  0
 29 35  1  0  0  0  0
 29 34  1  0  0  0  0
 32 26  1  0  0  0  0
 37 40  1  0  0  0  0
 37 36  1  0  0  0  0
 37 38  1  0  0  0  0
 39 37  1  0  0  0  0
M  END
>  <minimizedAffinity>
-5.48417997

$$$$

 OpenBabel03262522173D

 40 42  0  0  1  0  0  0  0  0999 V2000
   35.9550   29.3280   32.6680 C   0  0  0  0  0  0  0  0  0  0  0  0
   35.9660   30.1980   31.5560 C   0  0  0  0  0  0  0  0  0  0  0  0
   36.6220   29.8470   30.4010 C   0  0  0  0  0  0  0  0  0  0  0  0
   37.2560   28.6280   30.3830 C   0  0  0  0  0  0  0  0  0  0  0  0
   37.2320   27.8060   31.4680 C   0  0  0  0  0  0  0  0  0  0  0  0
   36.5910   28.1300   32.6170 N   0  0  0  0  0  0  0  0  0  0  0  0
   35.4490   31.1410   31.6300 H   0  0  0  0  0  0  0  0  0  0  0  0
   36.6500   30.4860   29.5330 H   0  0  0  0  0  0  0  0  0  0  0  0
   37.7740   28.3460   29.4750 H   0  0  0  0  0  0  0  0  0  0  0  0
   35.2510   29.7540   33.8460 C   0  0  0  0  0  0  0  0  0  0  0  0
   35.8590   30.0400   34.8760 O   0  0  0  0  0  0  0  0  0  0  0  0
   33.0310   29.0470   33.0230 C   0  0  0  0  0  0  0  0  0  0  0  0
   33.7750   29.8660   33.8720 C   0  0  0  0  0  0  0  0  0  0  0  0
   33.1230   30.7700   34.7240 C   0  0  0  0  0  0  0  0  0  0  0  0
   31.7560   30.8180   34.6930 N   0  0  0  0  0  0  0  0  0  0  0  0
   31.0590   30.0170   33.8640 C   0  0  0  0  0  0  0  0  0  0  0  0
   31.6820   29.1540   33.0490 N   0  0  0  0  0  0  0  0  0  0  0  0
   33.5590   28.3560   32.3730 H   0  0  0  0  0  0  0  0  0  0  0  0
   33.7410   31.3920   35.3710 H   0  0  0  0  0  0  0  0  0  0  0  0
   29.9710   30.1230   33.9060 H   0  0  0  0  0  0  0  0  0  0  0  0
   38.0710   26.1920   31.4430 S   0  0  0  0  0  0  0  0  0  0  0  0
   37.3360   25.2440   32.8140 C   0  0  0  0  0  0  0  0  0  0  0  0
   37.1180   24.2200   32.4470 H   0  0  0  0  0  0  0  0  0  0  0  0
   36.4640   25.7140   33.2620 H   0  0  0  0  0  0  0  0  0  0  0  0
   38.3110   24.5330   36.1360 C   0  0  1  0  0  0  0  0  0  0  0  0
   38.1130   23.9240   34.7750 C   0  0  0  0  0  0  0  0  0  0  0  0
   38.4110   25.1010   33.8810 C   0  0  2  0  0  0  0  0  0  0  0  0
   38.5360   26.2210   34.6560 O   0  0  0  0  0  0  0  0  0  0  0  0
   37.9040   25.9770   35.8760 C   0  0  0  0  0  0  0  0  0  0  0  0
   39.3790   24.5250   36.4560 H   0  0  0  0  0  0  0  0  0  0  0  0
   37.0340   23.6610   34.6630 H   0  0  0  0  0  0  0  0  0  0  0  0
   38.7690   23.0740   34.5720 H   0  0  0  0  0  0  0  0  0  0  0  0
   39.3760   24.9320   33.3670 H   0  0  0  0  0  0  0  0  0  0  0  0
   36.8170   26.0410   35.8220 H   0  0  0  0  0  0  0  0  0  0  0  0
   38.3220   26.5920   36.6870 H   0  0  0  0  0  0  0  0  0  0  0  0
   37.5060   23.9450   37.0930 O   0  0  0  0  0  0  0  0  0  0  0  0
   38.0850   23.8040   38.3220 C   0  0  0  0  0  0  0  0  0  0  0  0
   37.3830   22.7800   38.9720 F   0  0  0  0  0  0  0  0  0  0  0  0
   38.0820   24.9680   39.0470 F   0  0  0  0  0  0  0  0  0  0  0  0
   39.3840   23.3230   38.1370 F   0  0  0  0  0  0  0  0  0  0  0  0
  1 10  1  0  0  0  0
  2  7  1  0  0  0  0
  2  1  2  0  0  0  0
  3  2  1  0  0  0  0
  4  3  2  0  0  0  0
  4  5  1  0  0  0  0
  5  6  2  0  0  0  0
  6  1  1  0  0  0  0
  8  3  1  0  0  0  0
  9  4  1  0  0  0  0
 10 13  1  0  0  0  0
 10 11  2  0  0  0  0
 12 17  2  0  0  0  0
 12 13  1  0  0  0  0
 13 14  2  0  0  0  0
 14 19  1  0  0  0  0
 15 14  1  0  0  0  0
 16 20  1  0  0  0  0
 16 15  2  0  0  0  0
 17 16  1  0  0  0  0
 18 12  1  0  0  0  0
 21  5  1  0  0  0  0
 21 22  1  0  0  0  0
 22 24  1  0  0  0  0
 22 27  1  0  0  0  0
 23 22  1  0  0  0  0
 25 30  1  1  0  0  0
 25 36  1  0  0  0  0
 26 25  1  0  0  0  0
 27 33  1  6  0  0  0
 27 28  1  0  0  0  0
 27 26  1  0  0  0  0
 28 29  1  0  0  0  0
 29 25  1  0  0  0  0
 29 35  1  0  0  0  0
 31 26  1  0  0  0  0
 32 26  1  0  0  0  0
 34 29  1  0  0  0  0
 36 37  1  0  0  0  0
 37 38  1  0  0  0  0
 37 39  1  0  0  0  0
 40 37  1  0  0  0  0
M  END
>  <minimizedAffinity>
-5.40590477

$$$$
