
 OpenBabel03272510113D

 30 32  0  0  0  0  0  0  0  0999 V2000
   33.8380   28.7100   48.2830 C   0  0  0  0  0  0  0  0  0  0  0  0
   34.4040   28.2840   49.4330 C   0  0  0  0  0  0  0  0  0  0  0  0
   35.6450   28.6830   49.8910 C   0  0  0  0  0  0  0  0  0  0  0  0
   36.3820   29.5650   49.1620 C   0  0  0  0  0  0  0  0  0  0  0  0
   35.7930   30.0070   47.9660 C   0  0  0  0  0  0  0  0  0  0  0  0
   34.5810   29.5880   47.5660 N   0  0  0  0  0  0  0  0  0  0  0  0
   33.8990   27.5830   50.0830 H   0  0  0  0  0  0  0  0  0  0  0  0
   36.1010   28.3450   50.8110 H   0  0  0  0  0  0  0  0  0  0  0  0
   36.3190   30.7110   47.3320 H   0  0  0  0  0  0  0  0  0  0  0  0
   31.6370   27.5390   48.5770 C   0  0  0  0  0  0  0  0  0  0  0  0
   32.5480   28.2860   47.8180 C   0  0  0  0  0  0  0  0  0  0  0  0
   32.1230   28.6080   46.5490 C   0  0  0  0  0  0  0  0  0  0  0  0
   30.9080   28.2180   46.0900 N   0  0  0  0  0  0  0  0  0  0  0  0
   30.0770   27.4930   46.8870 C   0  0  0  0  0  0  0  0  0  0  0  0
   30.4330   27.1500   48.1270 N   0  0  0  0  0  0  0  0  0  0  0  0
   31.9240   27.2600   49.5820 H   0  0  0  0  0  0  0  0  0  0  0  0
   32.8000   29.1950   45.9100 H   0  0  0  0  0  0  0  0  0  0  0  0
   29.1580   27.2640   46.3790 H   0  0  0  0  0  0  0  0  0  0  0  0
   37.6410   30.0810   49.4570 O   0  0  0  0  0  0  0  0  0  0  0  0
   38.2390   31.0590   48.6750 C   0  0  0  0  0  0  0  0  0  0  0  0
   38.3130   32.3100   49.2910 C   0  0  0  0  0  0  0  0  0  0  0  0
   38.9320   33.1630   48.3810 C   0  0  0  0  0  0  0  0  0  0  0  0
   39.1990   32.4320   47.2930 N   0  0  0  0  0  0  0  0  0  0  0  0
   38.7960   31.1960   47.4560 N   0  0  0  0  0  0  0  0  0  0  0  0
   38.0150   32.7210   50.2470 H   0  0  0  0  0  0  0  0  0  0  0  0
   39.1720   34.2280   48.4880 H   0  0  0  0  0  0  0  0  0  0  0  0
   39.8490   32.9530   46.1010 C   0  0  0  0  0  0  0  0  0  0  0  0
   38.9400   33.0910   45.0570 F   0  0  0  0  0  0  0  0  0  0  0  0
   40.8350   32.1300   45.6450 F   0  0  0  0  0  0  0  0  0  0  0  0
   40.3430   34.2240   46.3460 F   0  0  0  0  0  0  0  0  0  0  0  0
  1  2  1  0  0  0  0
  2  3  2  0  0  0  0
  2  7  1  0  0  0  0
  3  8  1  0  0  0  0
  4 19  1  0  0  0  0
  4  3  1  0  0  0  0
  5  4  2  0  0  0  0
  6  5  1  0  0  0  0
  6  1  2  0  0  0  0
  9  5  1  0  0  0  0
 10 16  1  0  0  0  0
 11  1  1  0  0  0  0
 11 10  2  0  0  0  0
 12 11  1  0  0  0  0
 13 12  2  0  0  0  0
 13 14  1  0  0  0  0
 14 15  2  0  0  0  0
 15 10  1  0  0  0  0
 17 12  1  0  0  0  0
 18 14  1  0  0  0  0
 20 21  1  0  0  0  0
 20 19  1  0  0  0  0
 21 25  1  0  0  0  0
 22 26  1  0  0  0  0
 22 21  2  0  0  0  0
 23 24  1  0  0  0  0
 23 22  1  0  0  0  0
 24 20  2  0  0  0  0
 27 30  1  0  0  0  0
 27 23  1  0  0  0  0
 28 27  1  0  0  0  0
 29 27  1  0  0  0  0
M  END
>  <minimizedAffinity>
-6.05423641

>  <minimizedRMSD>
0.864391327

$$$$
