
 OpenBabel03272510113D

 30 32  0  0  0  0  0  0  0  0999 V2000
   33.8090   28.7090   48.2910 C   0  0  0  0  0  0  0  0  0  0  0  0
   34.3810   28.2810   49.4370 C   0  0  0  0  0  0  0  0  0  0  0  0
   35.6290   28.6700   49.8850 C   0  0  0  0  0  0  0  0  0  0  0  0
   36.3660   29.5470   49.1490 C   0  0  0  0  0  0  0  0  0  0  0  0
   35.7720   29.9910   47.9580 C   0  0  0  0  0  0  0  0  0  0  0  0
   34.5530   29.5810   47.5680 N   0  0  0  0  0  0  0  0  0  0  0  0
   33.8760   27.5840   50.0920 H   0  0  0  0  0  0  0  0  0  0  0  0
   36.0890   28.3300   50.8010 H   0  0  0  0  0  0  0  0  0  0  0  0
   36.2970   30.6910   47.3180 H   0  0  0  0  0  0  0  0  0  0  0  0
   31.6290   27.4960   48.5780 C   0  0  0  0  0  0  0  0  0  0  0  0
   32.5120   28.2950   47.8370 C   0  0  0  0  0  0  0  0  0  0  0  0
   32.0500   28.6790   46.5990 C   0  0  0  0  0  0  0  0  0  0  0  0
   30.8280   28.3000   46.1510 N   0  0  0  0  0  0  0  0  0  0  0  0
   30.0270   27.5220   46.9280 C   0  0  0  0  0  0  0  0  0  0  0  0
   30.4190   27.1180   48.1380 N   0  0  0  0  0  0  0  0  0  0  0  0
   31.9460   27.1680   49.5580 H   0  0  0  0  0  0  0  0  0  0  0  0
   32.7040   29.3080   45.9760 H   0  0  0  0  0  0  0  0  0  0  0  0
   29.0980   27.3090   46.4320 H   0  0  0  0  0  0  0  0  0  0  0  0
   37.6320   30.0530   49.4330 O   0  0  0  0  0  0  0  0  0  0  0  0
   38.2240   31.0350   48.6530 C   0  0  0  0  0  0  0  0  0  0  0  0
   38.3120   32.2810   49.2800 C   0  0  0  0  0  0  0  0  0  0  0  0
   38.9240   33.1400   48.3710 C   0  0  0  0  0  0  0  0  0  0  0  0
   39.1740   32.4170   47.2730 N   0  0  0  0  0  0  0  0  0  0  0  0
   38.7680   31.1820   47.4290 N   0  0  0  0  0  0  0  0  0  0  0  0
   38.0270   32.6830   50.2440 H   0  0  0  0  0  0  0  0  0  0  0  0
   39.1700   34.2020   48.4850 H   0  0  0  0  0  0  0  0  0  0  0  0
   39.8130   32.9470   46.0790 C   0  0  0  0  0  0  0  0  0  0  0  0
   40.3590   34.2040   46.3210 F   0  0  0  0  0  0  0  0  0  0  0  0
   38.9360   33.1020   45.0470 F   0  0  0  0  0  0  0  0  0  0  0  0
   40.8730   32.1360   45.7060 F   0  0  0  0  0  0  0  0  0  0  0  0
  1  2  1  0  0  0  0
  2  3  2  0  0  0  0
  2  7  1  0  0  0  0
  3  8  1  0  0  0  0
  4 19  1  0  0  0  0
  4  3  1  0  0  0  0
  5  4  2  0  0  0  0
  6  5  1  0  0  0  0
  6  1  2  0  0  0  0
  9  5  1  0  0  0  0
 10 16  1  0  0  0  0
 11  1  1  0  0  0  0
 11 10  2  0  0  0  0
 12 11  1  0  0  0  0
 13 12  2  0  0  0  0
 13 14  1  0  0  0  0
 14 15  2  0  0  0  0
 15 10  1  0  0  0  0
 17 12  1  0  0  0  0
 18 14  1  0  0  0  0
 20 21  1  0  0  0  0
 20 19  1  0  0  0  0
 21 25  1  0  0  0  0
 22 26  1  0  0  0  0
 22 21  2  0  0  0  0
 23 24  1  0  0  0  0
 23 22  1  0  0  0  0
 24 20  2  0  0  0  0
 27 28  1  0  0  0  0
 27 23  1  0  0  0  0
 29 27  1  0  0  0  0
 30 27  1  0  0  0  0
M  END
>  <minimizedAffinity>
-6.06317139

>  <minimizedRMSD>
0.874588907

$$$$
