
 OpenBabel03272508333D

 20 21  0  0  0  0  0  0  0  0999 V2000
   37.9000   31.2300   48.0030 C   0  0  0  0  0  0  0  0  0  0  0  0
   37.3490   31.0710   46.7470 C   0  0  0  0  0  0  0  0  0  0  0  0
   38.1160   31.7990   45.8440 C   0  0  0  0  0  0  0  0  0  0  0  0
   39.0950   32.3690   46.5730 N   0  0  0  0  0  0  0  0  0  0  0  0
   38.9670   32.0310   47.8570 N   0  0  0  0  0  0  0  0  0  0  0  0
   36.4680   30.4840   46.4760 H   0  0  0  0  0  0  0  0  0  0  0  0
   37.9000   31.8440   44.7900 H   0  0  0  0  0  0  0  0  0  0  0  0
   37.2590   30.0970   51.5300 C   0  0  0  0  0  0  0  0  0  0  0  0
   37.8720   30.7470   50.4620 C   0  0  0  0  0  0  0  0  0  0  0  0
   37.3380   30.5980   49.1780 C   0  0  0  0  0  0  0  0  0  0  0  0
   36.2140   29.8020   49.0440 N   0  0  0  0  0  0  0  0  0  0  0  0
   35.6500   29.1880   50.1180 C   0  0  0  0  0  0  0  0  0  0  0  0
   36.1650   29.3340   51.3360 N   0  0  0  0  0  0  0  0  0  0  0  0
   37.6770   30.2160   52.5210 H   0  0  0  0  0  0  0  0  0  0  0  0
   38.7460   31.3600   50.5950 H   0  0  0  0  0  0  0  0  0  0  0  0
   34.7780   28.6080   49.8110 H   0  0  0  0  0  0  0  0  0  0  0  0
   40.1090   33.2200   45.9700 C   0  0  0  0  0  0  0  0  0  0  0  0
   41.2220   32.4760   45.6140 F   0  0  0  0  0  0  0  0  0  0  0  0
   39.5790   33.7690   44.8080 F   0  0  0  0  0  0  0  0  0  0  0  0
   40.4950   34.2130   46.8560 F   0  0  0  0  0  0  0  0  0  0  0  0
  1 10  1  0  0  0  0
  2  1  1  0  0  0  0
  3  4  1  0  0  0  0
  3  2  2  0  0  0  0
  4  5  1  0  0  0  0
  5  1  2  0  0  0  0
  6  2  1  0  0  0  0
  7  3  1  0  0  0  0
  8 14  1  0  0  0  0
  9 15  1  0  0  0  0
  9  8  2  0  0  0  0
 10  9  1  0  0  0  0
 11 10  2  0  0  0  0
 11 12  1  0  0  0  0
 12 13  2  0  0  0  0
 13  8  1  0  0  0  0
 16 12  1  0  0  0  0
 17  4  1  0  0  0  0
 17 20  1  0  0  0  0
 18 17  1  0  0  0  0
 19 17  1  0  0  0  0
M  END
>  <minimizedAffinity>
-5.62061787

>  <minimizedRMSD>
1.44122124

$$$$
