
 OpenBabel03272503313D

 29 30  0  0  1  0  0  0  0  0999 V2000
   37.0340   22.4220   31.9440 N   0  0  0  0  0  0  0  0  0  0  0  0
   36.9620   21.5440   33.0650 C   0  0  0  0  0  0  0  0  0  0  0  0
   36.6260   20.1940   32.4140 C   0  0  2  0  0  0  0  0  0  0  0  0
   36.4190   20.4930   30.9420 C   0  0  0  0  0  0  0  0  0  0  0  0
   37.4370   21.6260   30.8020 C   0  0  0  0  0  0  0  0  0  0  0  0
   36.1080   21.8230   33.7090 H   0  0  0  0  0  0  0  0  0  0  0  0
   37.8750   21.4480   33.6510 H   0  0  0  0  0  0  0  0  0  0  0  0
   37.4810   19.5020   32.4800 H   0  0  0  0  0  0  0  0  0  0  0  0
   35.3960   20.8560   30.7390 H   0  0  0  0  0  0  0  0  0  0  0  0
   36.7140   19.6390   30.3220 H   0  0  0  0  0  0  0  0  0  0  0  0
   38.4350   21.2030   30.8770 H   0  0  0  0  0  0  0  0  0  0  0  0
   37.2740   22.1920   29.8560 H   0  0  0  0  0  0  0  0  0  0  0  0
   36.7650   23.8260   31.9190 C   0  0  0  0  0  0  0  0  0  0  0  0
   35.6300   24.2320   31.1910 C   0  0  0  0  0  0  0  0  0  0  0  0
   35.3520   25.5980   31.1540 C   0  0  0  0  0  0  0  0  0  0  0  0
   36.2050   26.4310   31.8280 N   0  0  0  0  0  0  0  0  0  0  0  0
   37.2700   26.0310   32.5080 C   0  0  0  0  0  0  0  0  0  0  0  0
   37.5530   24.7030   32.5530 N   0  0  0  0  0  0  0  0  0  0  0  0
   34.9610   23.5810   30.6610 H   0  0  0  0  0  0  0  0  0  0  0  0
   34.5330   26.0640   30.6510 H   0  0  0  0  0  0  0  0  0  0  0  0
   38.3490   27.1520   33.3400 S   0  0  0  0  0  0  0  0  0  0  0  0
   37.6010   27.4400   34.9940 C   0  0  0  0  0  0  0  0  0  0  0  0
   36.7550   28.5370   34.8970 F   0  0  0  0  0  0  0  0  0  0  0  0
   38.5400   27.5890   35.9620 F   0  0  0  0  0  0  0  0  0  0  0  0
   36.7420   26.3680   35.2750 F   0  0  0  0  0  0  0  0  0  0  0  0
   35.4450   19.5330   33.0360 C   0  0  0  0  0  0  0  0  0  0  0  0
   34.3260   19.9770   32.3310 F   0  0  0  0  0  0  0  0  0  0  0  0
   35.3230   20.0340   34.3160 F   0  0  0  0  0  0  0  0  0  0  0  0
   35.5270   18.1740   33.0740 F   0  0  0  0  0  0  0  0  0  0  0  0
  1  2  1  0  0  0  0
  2  7  1  0  0  0  0
  2  6  1  0  0  0  0
  3  8  1  1  0  0  0
  3 26  1  0  0  0  0
  3  2  1  0  0  0  0
  4  3  1  0  0  0  0
  5 11  1  0  0  0  0
  5  4  1  0  0  0  0
  5  1  1  0  0  0  0
  9  4  1  0  0  0  0
 10  4  1  0  0  0  0
 12  5  1  0  0  0  0
 13  1  1  0  0  0  0
 13 18  1  0  0  0  0
 14 13  2  0  0  0  0
 15 14  1  0  0  0  0
 15 16  2  0  0  0  0
 16 17  1  0  0  0  0
 17 18  2  0  0  0  0
 17 21  1  0  0  0  0
 19 14  1  0  0  0  0
 20 15  1  0  0  0  0
 21 22  1  0  0  0  0
 22 25  1  0  0  0  0
 22 24  1  0  0  0  0
 23 22  1  0  0  0  0
 26 29  1  0  0  0  0
 26 28  1  0  0  0  0
 27 26  1  0  0  0  0
M  END
>  <minimizedAffinity>
-5.40023708

$$$$

 OpenBabel03272503313D

 29 30  0  0  1  0  0  0  0  0999 V2000
   38.2110   24.8770   35.2240 N   0  0  0  0  0  0  0  0  0  0  0  0
   39.0150   25.0030   36.3950 C   0  0  0  0  0  0  0  0  0  0  0  0
   38.8040   23.6520   37.0950 C   0  0  2  0  0  0  0  0  0  0  0  0
   37.7640   22.9230   36.2660 C   0  0  0  0  0  0  0  0  0  0  0  0
   38.1570   23.4670   34.8920 C   0  0  0  0  0  0  0  0  0  0  0  0
   38.5990   25.7870   37.0550 H   0  0  0  0  0  0  0  0  0  0  0  0
   40.0780   25.1620   36.2240 H   0  0  0  0  0  0  0  0  0  0  0  0
   39.7210   23.0440   37.0610 H   0  0  0  0  0  0  0  0  0  0  0  0
   36.7380   23.2330   36.5330 H   0  0  0  0  0  0  0  0  0  0  0  0
   37.9210   21.8390   36.3040 H   0  0  0  0  0  0  0  0  0  0  0  0
   39.1130   23.0340   34.6110 H   0  0  0  0  0  0  0  0  0  0  0  0
   37.3540   23.2740   34.1440 H   0  0  0  0  0  0  0  0  0  0  0  0
   37.5660   25.9230   34.4930 C   0  0  0  0  0  0  0  0  0  0  0  0
   37.3680   27.1360   35.1820 C   0  0  0  0  0  0  0  0  0  0  0  0
   36.7400   28.1680   34.4860 C   0  0  0  0  0  0  0  0  0  0  0  0
   36.3680   27.9180   33.1920 N   0  0  0  0  0  0  0  0  0  0  0  0
   36.5630   26.7700   32.5590 C   0  0  0  0  0  0  0  0  0  0  0  0
   37.1740   25.7550   33.2240 N   0  0  0  0  0  0  0  0  0  0  0  0
   37.6570   27.3320   36.1970 H   0  0  0  0  0  0  0  0  0  0  0  0
   36.5180   29.1430   34.8640 H   0  0  0  0  0  0  0  0  0  0  0  0
   36.0440   26.4950   30.8960 S   0  0  0  0  0  0  0  0  0  0  0  0
   34.6620   25.2880   30.9900 C   0  0  0  0  0  0  0  0  0  0  0  0
   33.5810   25.9190   31.5900 F   0  0  0  0  0  0  0  0  0  0  0  0
   35.0210   24.1460   31.6290 F   0  0  0  0  0  0  0  0  0  0  0  0
   34.2240   25.0260   29.6840 F   0  0  0  0  0  0  0  0  0  0  0  0
   38.3980   23.8000   38.5210 C   0  0  0  0  0  0  0  0  0  0  0  0
   37.3420   22.9120   38.7260 F   0  0  0  0  0  0  0  0  0  0  0  0
   37.8740   25.0680   38.6670 F   0  0  0  0  0  0  0  0  0  0  0  0
   39.4140   23.6100   39.4080 F   0  0  0  0  0  0  0  0  0  0  0  0
  1  2  1  0  0  0  0
  2  6  1  0  0  0  0
  2  3  1  0  0  0  0
  3  8  1  6  0  0  0
  3 26  1  0  0  0  0
  4 10  1  0  0  0  0
  4  9  1  0  0  0  0
  4  3  1  0  0  0  0
  5  1  1  0  0  0  0
  5  4  1  0  0  0  0
  7  2  1  0  0  0  0
 11  5  1  0  0  0  0
 12  5  1  0  0  0  0
 13 14  1  0  0  0  0
 13  1  1  0  0  0  0
 14 19  1  0  0  0  0
 15 20  1  0  0  0  0
 15 14  2  0  0  0  0
 16 15  1  0  0  0  0
 17 16  2  0  0  0  0
 17 18  1  0  0  0  0
 18 13  2  0  0  0  0
 21 22  1  0  0  0  0
 21 17  1  0  0  0  0
 22 23  1  0  0  0  0
 22 24  1  0  0  0  0
 25 22  1  0  0  0  0
 26 28  1  0  0  0  0
 26 27  1  0  0  0  0
 26 29  1  0  0  0  0
M  END
>  <minimizedAffinity>
-5.3156333

$$$$

 OpenBabel03272503313D

 29 30  0  0  1  0  0  0  0  0999 V2000
   38.4730   24.0360   34.5210 N   0  0  0  0  0  0  0  0  0  0  0  0
   37.9170   24.7110   35.6480 C   0  0  0  0  0  0  0  0  0  0  0  0
   38.9100   24.3680   36.7690 C   0  0  2  0  0  0  0  0  0  0  0  0
   39.8980   23.3960   36.1530 C   0  0  0  0  0  0  0  0  0  0  0  0
   39.9050   23.9600   34.7320 C   0  0  0  0  0  0  0  0  0  0  0  0
   36.9450   24.2590   35.9170 H   0  0  0  0  0  0  0  0  0  0  0  0
   37.8310   25.7930   35.5570 H   0  0  0  0  0  0  0  0  0  0  0  0
   39.4850   25.2570   37.0700 H   0  0  0  0  0  0  0  0  0  0  0  0
   39.5130   22.3610   36.1640 H   0  0  0  0  0  0  0  0  0  0  0  0
   40.8900   23.5020   36.6090 H   0  0  0  0  0  0  0  0  0  0  0  0
   40.4100   24.9210   34.7460 H   0  0  0  0  0  0  0  0  0  0  0  0
   40.3640   23.2360   34.0190 H   0  0  0  0  0  0  0  0  0  0  0  0
   37.7760   23.5200   33.3840 C   0  0  0  0  0  0  0  0  0  0  0  0
   37.2470   24.4730   32.4920 C   0  0  0  0  0  0  0  0  0  0  0  0
   36.5620   23.9890   31.3780 C   0  0  0  0  0  0  0  0  0  0  0  0
   36.4610   22.6300   31.2430 N   0  0  0  0  0  0  0  0  0  0  0  0
   36.9660   21.7480   32.0940 C   0  0  0  0  0  0  0  0  0  0  0  0
   37.6360   22.2040   33.1840 N   0  0  0  0  0  0  0  0  0  0  0  0
   37.3230   25.5380   32.5960 H   0  0  0  0  0  0  0  0  0  0  0  0
   36.1060   24.5770   30.6110 H   0  0  0  0  0  0  0  0  0  0  0  0
   36.7870   20.0060   31.8830 S   0  0  0  0  0  0  0  0  0  0  0  0
   35.2590   19.5400   32.7920 C   0  0  0  0  0  0  0  0  0  0  0  0
   35.3460   18.1930   33.1160 F   0  0  0  0  0  0  0  0  0  0  0  0
   34.1350   19.8370   32.0910 F   0  0  0  0  0  0  0  0  0  0  0  0
   35.2750   20.1930   34.0330 F   0  0  0  0  0  0  0  0  0  0  0  0
   38.2420   23.8150   37.9800 C   0  0  0  0  0  0  0  0  0  0  0  0
   37.9100   24.9070   38.7820 F   0  0  0  0  0  0  0  0  0  0  0  0
   39.1920   23.0960   38.6770 F   0  0  0  0  0  0  0  0  0  0  0  0
   37.1670   23.0260   37.7080 F   0  0  0  0  0  0  0  0  0  0  0  0
  1  5  1  0  0  0  0
  1  2  1  0  0  0  0
  2  6  1  0  0  0  0
  2  3  1  0  0  0  0
  3  8  1  1  0  0  0
  3 26  1  0  0  0  0
  4  9  1  0  0  0  0
  4 10  1  0  0  0  0
  4  3  1  0  0  0  0
  5 11  1  0  0  0  0
  5  4  1  0  0  0  0
  7  2  1  0  0  0  0
 12  5  1  0  0  0  0
 13  1  1  0  0  0  0
 14 19  1  0  0  0  0
 14 13  2  0  0  0  0
 15 14  1  0  0  0  0
 16 15  2  0  0  0  0
 16 17  1  0  0  0  0
 17 18  2  0  0  0  0
 18 13  1  0  0  0  0
 20 15  1  0  0  0  0
 21 17  1  0  0  0  0
 21 22  1  0  0  0  0
 22 23  1  0  0  0  0
 22 25  1  0  0  0  0
 24 22  1  0  0  0  0
 26 28  1  0  0  0  0
 26 27  1  0  0  0  0
 29 26  1  0  0  0  0
M  END
>  <minimizedAffinity>
-5.3028264

$$$$

 OpenBabel03272503313D

 29 30  0  0  1  0  0  0  0  0999 V2000
   37.7210   21.7180   32.4420 N   0  0  0  0  0  0  0  0  0  0  0  0
   37.3890   20.3500   32.2110 C   0  0  0  0  0  0  0  0  0  0  0  0
   36.0130   20.4480   31.5350 C   0  0  2  0  0  0  0  0  0  0  0  0
   35.6490   21.9200   31.5660 C   0  0  0  0  0  0  0  0  0  0  0  0
   37.0560   22.4990   31.4180 C   0  0  0  0  0  0  0  0  0  0  0  0
   37.2480   19.8290   33.1760 H   0  0  0  0  0  0  0  0  0  0  0  0
   38.0720   19.7990   31.5670 H   0  0  0  0  0  0  0  0  0  0  0  0
   36.0750   20.1590   30.4740 H   0  0  0  0  0  0  0  0  0  0  0  0
   35.2040   22.2100   32.5340 H   0  0  0  0  0  0  0  0  0  0  0  0
   35.0340   22.1910   30.7000 H   0  0  0  0  0  0  0  0  0  0  0  0
   37.4040   22.3040   30.4070 H   0  0  0  0  0  0  0  0  0  0  0  0
   37.0710   23.5810   31.6830 H   0  0  0  0  0  0  0  0  0  0  0  0
   38.5490   22.2500   33.4790 C   0  0  0  0  0  0  0  0  0  0  0  0
   39.8780   21.7820   33.5190 C   0  0  0  0  0  0  0  0  0  0  0  0
   40.7000   22.2880   34.5250 C   0  0  0  0  0  0  0  0  0  0  0  0
   40.1500   23.1960   35.3890 N   0  0  0  0  0  0  0  0  0  0  0  0
   38.8980   23.6250   35.3370 C   0  0  0  0  0  0  0  0  0  0  0  0
   38.0840   23.1420   34.3620 N   0  0  0  0  0  0  0  0  0  0  0  0
   40.3090   21.0680   32.8440 H   0  0  0  0  0  0  0  0  0  0  0  0
   41.7260   22.0370   34.6890 H   0  0  0  0  0  0  0  0  0  0  0  0
   38.2350   24.7820   36.4910 S   0  0  0  0  0  0  0  0  0  0  0  0
   38.0870   23.8790   38.0850 C   0  0  0  0  0  0  0  0  0  0  0  0
   39.3490   23.4220   38.4380 F   0  0  0  0  0  0  0  0  0  0  0  0
   37.1680   22.8820   38.0260 F   0  0  0  0  0  0  0  0  0  0  0  0
   37.7670   24.8100   39.0830 F   0  0  0  0  0  0  0  0  0  0  0  0
   34.9870   19.5900   32.1910 C   0  0  0  0  0  0  0  0  0  0  0  0
   35.2600   19.6210   33.5580 F   0  0  0  0  0  0  0  0  0  0  0  0
   35.2150   18.2930   31.7780 F   0  0  0  0  0  0  0  0  0  0  0  0
   33.7040   19.9490   31.9110 F   0  0  0  0  0  0  0  0  0  0  0  0
  1 13  1  0  0  0  0
  2  1  1  0  0  0  0
  2  6  1  0  0  0  0
  3  8  1  6  0  0  0
  3  4  1  0  0  0  0
  3 26  1  0  0  0  0
  3  2  1  0  0  0  0
  4  9  1  0  0  0  0
  5  4  1  0  0  0  0
  5 12  1  0  0  0  0
  5  1  1  0  0  0  0
  7  2  1  0  0  0  0
 10  4  1  0  0  0  0
 11  5  1  0  0  0  0
 13 14  2  0  0  0  0
 13 18  1  0  0  0  0
 14 15  1  0  0  0  0
 15 20  1  0  0  0  0
 15 16  2  0  0  0  0
 17 16  1  0  0  0  0
 17 21  1  0  0  0  0
 18 17  2  0  0  0  0
 19 14  1  0  0  0  0
 21 22  1  0  0  0  0
 22 23  1  0  0  0  0
 22 25  1  0  0  0  0
 24 22  1  0  0  0  0
 26 27  1  0  0  0  0
 28 26  1  0  0  0  0
 29 26  1  0  0  0  0
M  END
>  <minimizedAffinity>
-5.27946997

$$$$

 OpenBabel03272503313D

 29 30  0  0  1  0  0  0  0  0999 V2000
   37.4180   22.2500   32.9150 N   0  0  0  0  0  0  0  0  0  0  0  0
   37.3200   20.8490   32.6680 C   0  0  0  0  0  0  0  0  0  0  0  0
   36.0880   20.7540   31.7560 C   0  0  2  0  0  0  0  0  0  0  0  0
   35.5300   22.1630   31.6800 C   0  0  0  0  0  0  0  0  0  0  0  0
   36.8500   22.9280   31.7670 C   0  0  0  0  0  0  0  0  0  0  0  0
   37.0790   20.3170   33.6070 H   0  0  0  0  0  0  0  0  0  0  0  0
   38.1760   20.3950   32.1720 H   0  0  0  0  0  0  0  0  0  0  0  0
   36.3780   20.4720   30.7320 H   0  0  0  0  0  0  0  0  0  0  0  0
   34.8830   22.3920   32.5450 H   0  0  0  0  0  0  0  0  0  0  0  0
   35.0500   22.3430   30.7110 H   0  0  0  0  0  0  0  0  0  0  0  0
   37.3960   22.7790   30.8400 H   0  0  0  0  0  0  0  0  0  0  0  0
   36.6720   24.0030   32.0000 H   0  0  0  0  0  0  0  0  0  0  0  0
   37.9680   22.8950   34.0680 C   0  0  0  0  0  0  0  0  0  0  0  0
   38.1300   22.0930   35.2140 C   0  0  0  0  0  0  0  0  0  0  0  0
   38.6630   22.7040   36.3480 C   0  0  0  0  0  0  0  0  0  0  0  0
   38.9850   24.0310   36.2540 N   0  0  0  0  0  0  0  0  0  0  0  0
   38.8260   24.7710   35.1660 C   0  0  0  0  0  0  0  0  0  0  0  0
   38.3080   24.1900   34.0530 N   0  0  0  0  0  0  0  0  0  0  0  0
   37.8760   21.0520   35.2900 H   0  0  0  0  0  0  0  0  0  0  0  0
   38.8490   22.2360   37.2910 H   0  0  0  0  0  0  0  0  0  0  0  0
   39.2380   26.4850   35.1070 S   0  0  0  0  0  0  0  0  0  0  0  0
   37.6610   27.3750   34.7940 C   0  0  0  0  0  0  0  0  0  0  0  0
   36.6180   26.5560   35.2050 F   0  0  0  0  0  0  0  0  0  0  0  0
   37.5400   27.7640   33.5000 F   0  0  0  0  0  0  0  0  0  0  0  0
   37.6010   28.4720   35.6650 F   0  0  0  0  0  0  0  0  0  0  0  0
   35.0850   19.7660   32.2430 C   0  0  0  0  0  0  0  0  0  0  0  0
   35.3020   19.6250   33.6140 F   0  0  0  0  0  0  0  0  0  0  0  0
   35.4010   18.5500   31.6720 F   0  0  0  0  0  0  0  0  0  0  0  0
   33.7960   20.0970   31.9540 F   0  0  0  0  0  0  0  0  0  0  0  0
  1 13  1  0  0  0  0
  2  1  1  0  0  0  0
  2  6  1  0  0  0  0
  3  8  1  6  0  0  0
  3 26  1  0  0  0  0
  3  2  1  0  0  0  0
  4  3  1  0  0  0  0
  4  5  1  0  0  0  0
  4  9  1  0  0  0  0
  5 12  1  0  0  0  0
  5  1  1  0  0  0  0
  7  2  1  0  0  0  0
 10  4  1  0  0  0  0
 11  5  1  0  0  0  0
 13 14  1  0  0  0  0
 14 19  1  0  0  0  0
 14 15  2  0  0  0  0
 15 20  1  0  0  0  0
 16 15  1  0  0  0  0
 17 16  2  0  0  0  0
 18 13  2  0  0  0  0
 18 17  1  0  0  0  0
 21 17  1  0  0  0  0
 22 21  1  0  0  0  0
 22 23  1  0  0  0  0
 22 25  1  0  0  0  0
 24 22  1  0  0  0  0
 26 27  1  0  0  0  0
 28 26  1  0  0  0  0
 29 26  1  0  0  0  0
M  END
>  <minimizedAffinity>
-5.17042971

$$$$

 OpenBabel03272503313D

 29 30  0  0  1  0  0  0  0  0999 V2000
   38.1570   24.8270   35.0410 N   0  0  0  0  0  0  0  0  0  0  0  0
   39.0400   24.8730   36.1590 C   0  0  0  0  0  0  0  0  0  0  0  0
   38.7560   23.5390   36.8670 C   0  0  2  0  0  0  0  0  0  0  0  0
   37.6080   22.9100   36.1010 C   0  0  0  0  0  0  0  0  0  0  0  0
   37.9610   23.4300   34.7080 C   0  0  0  0  0  0  0  0  0  0  0  0
   38.7360   25.6830   36.8470 H   0  0  0  0  0  0  0  0  0  0  0  0
   40.1010   24.9410   35.9230 H   0  0  0  0  0  0  0  0  0  0  0  0
   39.6140   22.8540   36.7720 H   0  0  0  0  0  0  0  0  0  0  0  0
   36.6320   23.3040   36.4340 H   0  0  0  0  0  0  0  0  0  0  0  0
   37.6730   21.8150   36.1260 H   0  0  0  0  0  0  0  0  0  0  0  0
   38.8560   22.9190   34.3660 H   0  0  0  0  0  0  0  0  0  0  0  0
   37.0990   23.3150   34.0110 H   0  0  0  0  0  0  0  0  0  0  0  0
   37.5610   25.9320   34.3560 C   0  0  0  0  0  0  0  0  0  0  0  0
   37.1570   27.0180   35.1560 C   0  0  0  0  0  0  0  0  0  0  0  0
   36.5730   28.1050   34.5060 C   0  0  0  0  0  0  0  0  0  0  0  0
   36.4410   28.0260   33.1450 N   0  0  0  0  0  0  0  0  0  0  0  0
   36.8270   26.9950   32.4080 C   0  0  0  0  0  0  0  0  0  0  0  0
   37.3990   25.9290   33.0270 N   0  0  0  0  0  0  0  0  0  0  0  0
   37.2580   27.0810   36.2230 H   0  0  0  0  0  0  0  0  0  0  0  0
   36.2160   29.0010   34.9660 H   0  0  0  0  0  0  0  0  0  0  0  0
   36.6130   26.9380   30.6580 S   0  0  0  0  0  0  0  0  0  0  0  0
   36.8980   28.6510   30.0560 C   0  0  0  0  0  0  0  0  0  0  0  0
   38.0840   29.1090   30.6120 F   0  0  0  0  0  0  0  0  0  0  0  0
   35.8470   29.4680   30.3210 F   0  0  0  0  0  0  0  0  0  0  0  0
   37.1640   28.5890   28.6810 F   0  0  0  0  0  0  0  0  0  0  0  0
   38.4550   23.7080   38.3160 C   0  0  0  0  0  0  0  0  0  0  0  0
   37.3710   22.8750   38.5940 F   0  0  0  0  0  0  0  0  0  0  0  0
   38.0060   25.0010   38.4910 F   0  0  0  0  0  0  0  0  0  0  0  0
   39.5160   23.4680   39.1340 F   0  0  0  0  0  0  0  0  0  0  0  0
  1  2  1  0  0  0  0
  2  6  1  0  0  0  0
  2  3  1  0  0  0  0
  3  8  1  6  0  0  0
  3 26  1  0  0  0  0
  4 10  1  0  0  0  0
  4  9  1  0  0  0  0
  4  3  1  0  0  0  0
  5  1  1  0  0  0  0
  5  4  1  0  0  0  0
  7  2  1  0  0  0  0
 11  5  1  0  0  0  0
 12  5  1  0  0  0  0
 13  1  1  0  0  0  0
 13 14  1  0  0  0  0
 14 19  1  0  0  0  0
 15 20  1  0  0  0  0
 15 14  2  0  0  0  0
 16 15  1  0  0  0  0
 17 18  1  0  0  0  0
 17 16  2  0  0  0  0
 18 13  2  0  0  0  0
 21 17  1  0  0  0  0
 22 24  1  0  0  0  0
 22 23  1  0  0  0  0
 22 21  1  0  0  0  0
 25 22  1  0  0  0  0
 26 28  1  0  0  0  0
 26 27  1  0  0  0  0
 26 29  1  0  0  0  0
M  END
>  <minimizedAffinity>
-5.07260323

$$$$

 OpenBabel03272503313D

 29 30  0  0  1  0  0  0  0  0999 V2000
   38.5500   23.7120   34.3120 N   0  0  0  0  0  0  0  0  0  0  0  0
   38.8010   24.5730   35.4210 C   0  0  0  0  0  0  0  0  0  0  0  0
   39.1760   23.5840   36.5350 C   0  0  2  0  0  0  0  0  0  0  0  0
   38.9720   22.2040   35.9400 C   0  0  0  0  0  0  0  0  0  0  0  0
   39.3630   22.5270   34.4970 C   0  0  0  0  0  0  0  0  0  0  0  0
   37.8660   25.0770   35.7260 H   0  0  0  0  0  0  0  0  0  0  0  0
   39.6060   25.2940   35.2880 H   0  0  0  0  0  0  0  0  0  0  0  0
   40.2450   23.6650   36.7890 H   0  0  0  0  0  0  0  0  0  0  0  0
   37.9160   21.8860   36.0000 H   0  0  0  0  0  0  0  0  0  0  0  0
   39.6750   21.4820   36.3710 H   0  0  0  0  0  0  0  0  0  0  0  0
   40.4340   22.7050   34.4630 H   0  0  0  0  0  0  0  0  0  0  0  0
   39.0330   21.7180   33.8060 H   0  0  0  0  0  0  0  0  0  0  0  0
   37.6690   23.9460   33.2100 C   0  0  0  0  0  0  0  0  0  0  0  0
   37.2760   22.8120   32.4720 C   0  0  0  0  0  0  0  0  0  0  0  0
   36.4180   23.0210   31.3930 C   0  0  0  0  0  0  0  0  0  0  0  0
   36.0280   24.3090   31.1410 N   0  0  0  0  0  0  0  0  0  0  0  0
   36.4070   25.3640   31.8460 C   0  0  0  0  0  0  0  0  0  0  0  0
   37.2430   25.1770   32.9010 N   0  0  0  0  0  0  0  0  0  0  0  0
   37.5830   21.8020   32.6680 H   0  0  0  0  0  0  0  0  0  0  0  0
   36.0300   22.2700   30.7390 H   0  0  0  0  0  0  0  0  0  0  0  0
   35.8900   27.0070   31.4630 S   0  0  0  0  0  0  0  0  0  0  0  0
   37.1730   28.1190   32.1670 C   0  0  0  0  0  0  0  0  0  0  0  0
   38.4040   27.7350   31.6520 F   0  0  0  0  0  0  0  0  0  0  0  0
   37.1550   28.1270   33.5240 F   0  0  0  0  0  0  0  0  0  0  0  0
   36.9680   29.4040   31.6460 F   0  0  0  0  0  0  0  0  0  0  0  0
   38.3860   23.7930   37.7810 C   0  0  0  0  0  0  0  0  0  0  0  0
   39.1610   23.2960   38.8290 F   0  0  0  0  0  0  0  0  0  0  0  0
   37.2740   22.9790   37.7000 F   0  0  0  0  0  0  0  0  0  0  0  0
   38.0050   25.0840   37.9850 F   0  0  0  0  0  0  0  0  0  0  0  0
  1  5  1  0  0  0  0
  1  2  1  0  0  0  0
  2  6  1  0  0  0  0
  2  3  1  0  0  0  0
  3  8  1  1  0  0  0
  3 26  1  0  0  0  0
  4  9  1  0  0  0  0
  4 10  1  0  0  0  0
  4  3  1  0  0  0  0
  5  4  1  0  0  0  0
  7  2  1  0  0  0  0
 11  5  1  0  0  0  0
 12  5  1  0  0  0  0
 13  1  1  0  0  0  0
 14 19  1  0  0  0  0
 14 13  2  0  0  0  0
 15 14  1  0  0  0  0
 16 15  2  0  0  0  0
 16 17  1  0  0  0  0
 17 18  2  0  0  0  0
 18 13  1  0  0  0  0
 20 15  1  0  0  0  0
 21 17  1  0  0  0  0
 21 22  1  0  0  0  0
 22 24  1  0  0  0  0
 23 22  1  0  0  0  0
 25 22  1  0  0  0  0
 26 29  1  0  0  0  0
 26 27  1  0  0  0  0
 28 26  1  0  0  0  0
M  END
>  <minimizedAffinity>
-5.05822992

$$$$

 OpenBabel03272503313D

 29 30  0  0  1  0  0  0  0  0999 V2000
   35.3670   30.2440   32.8320 N   0  0  0  0  0  0  0  0  0  0  0  0
   34.9410   30.1820   34.1910 C   0  0  0  0  0  0  0  0  0  0  0  0
   35.1010   31.6360   34.6600 C   0  0  2  0  0  0  0  0  0  0  0  0
   35.7390   32.3700   33.4960 C   0  0  0  0  0  0  0  0  0  0  0  0
   35.0890   31.5850   32.3570 C   0  0  0  0  0  0  0  0  0  0  0  0
   35.6460   29.5650   34.7790 H   0  0  0  0  0  0  0  0  0  0  0  0
   33.9140   29.8580   34.3520 H   0  0  0  0  0  0  0  0  0  0  0  0
   34.1180   32.1040   34.8300 H   0  0  0  0  0  0  0  0  0  0  0  0
   36.8360   32.2430   33.4870 H   0  0  0  0  0  0  0  0  0  0  0  0
   35.4170   33.4180   33.4680 H   0  0  0  0  0  0  0  0  0  0  0  0
   34.0340   31.8400   32.3210 H   0  0  0  0  0  0  0  0  0  0  0  0
   35.6160   31.7730   31.3940 H   0  0  0  0  0  0  0  0  0  0  0  0
   35.9580   29.1980   32.0560 C   0  0  0  0  0  0  0  0  0  0  0  0
   36.3460   29.5360   30.7450 C   0  0  0  0  0  0  0  0  0  0  0  0
   36.9240   28.5290   29.9730 C   0  0  0  0  0  0  0  0  0  0  0  0
   37.0670   27.2960   30.5520 N   0  0  0  0  0  0  0  0  0  0  0  0
   36.6960   26.9960   31.7880 C   0  0  0  0  0  0  0  0  0  0  0  0
   36.1320   27.9670   32.5530 N   0  0  0  0  0  0  0  0  0  0  0  0
   36.2330   30.5010   30.2880 H   0  0  0  0  0  0  0  0  0  0  0  0
   37.2700   28.6230   28.9660 H   0  0  0  0  0  0  0  0  0  0  0  0
   36.8840   25.3840   32.4780 S   0  0  0  0  0  0  0  0  0  0  0  0
   35.9480   24.2490   31.3760 C   0  0  0  0  0  0  0  0  0  0  0  0
   34.8960   24.9630   30.8190 F   0  0  0  0  0  0  0  0  0  0  0  0
   35.5350   23.1310   32.0240 F   0  0  0  0  0  0  0  0  0  0  0  0
   36.7660   23.9340   30.2820 F   0  0  0  0  0  0  0  0  0  0  0  0
   35.8940   31.7530   35.9160 C   0  0  0  0  0  0  0  0  0  0  0  0
   36.8030   32.7910   35.7140 F   0  0  0  0  0  0  0  0  0  0  0  0
   36.6410   30.5990   36.0350 F   0  0  0  0  0  0  0  0  0  0  0  0
   35.1380   31.9360   37.0330 F   0  0  0  0  0  0  0  0  0  0  0  0
  1  2  1  0  0  0  0
  2  7  1  0  0  0  0
  2  3  1  0  0  0  0
  2  6  1  0  0  0  0
  3  8  1  1  0  0  0
  3 26  1  0  0  0  0
  4  3  1  0  0  0  0
  5  1  1  0  0  0  0
  5  4  1  0  0  0  0
  9  4  1  0  0  0  0
 10  4  1  0  0  0  0
 11  5  1  0  0  0  0
 12  5  1  0  0  0  0
 13 18  1  0  0  0  0
 13  1  1  0  0  0  0
 14 13  2  0  0  0  0
 15 16  2  0  0  0  0
 15 14  1  0  0  0  0
 16 17  1  0  0  0  0
 17 21  1  0  0  0  0
 17 18  2  0  0  0  0
 19 14  1  0  0  0  0
 20 15  1  0  0  0  0
 22 24  1  0  0  0  0
 22 21  1  0  0  0  0
 23 22  1  0  0  0  0
 25 22  1  0  0  0  0
 26 28  1  0  0  0  0
 26 29  1  0  0  0  0
 27 26  1  0  0  0  0
M  END
>  <minimizedAffinity>
-5.00809431

$$$$

 OpenBabel03272503313D

 29 30  0  0  1  0  0  0  0  0999 V2000
   35.3490   29.7140   33.3200 N   0  0  0  0  0  0  0  0  0  0  0  0
   34.7850   29.9560   34.6080 C   0  0  0  0  0  0  0  0  0  0  0  0
   34.9240   31.4790   34.7530 C   0  0  2  0  0  0  0  0  0  0  0  0
   35.6930   31.9360   33.5280 C   0  0  0  0  0  0  0  0  0  0  0  0
   35.1470   30.9130   32.5320 C   0  0  0  0  0  0  0  0  0  0  0  0
   35.4140   29.4900   35.3880 H   0  0  0  0  0  0  0  0  0  0  0  0
   33.7410   29.6730   34.7290 H   0  0  0  0  0  0  0  0  0  0  0  0
   33.9390   31.9700   34.7110 H   0  0  0  0  0  0  0  0  0  0  0  0
   36.7820   31.8140   33.6610 H   0  0  0  0  0  0  0  0  0  0  0  0
   35.3950   32.9490   33.2330 H   0  0  0  0  0  0  0  0  0  0  0  0
   34.1070   31.1500   32.3300 H   0  0  0  0  0  0  0  0  0  0  0  0
   35.7740   30.8820   31.6110 H   0  0  0  0  0  0  0  0  0  0  0  0
   35.9960   28.5230   32.8640 C   0  0  0  0  0  0  0  0  0  0  0  0
   35.8530   28.2190   31.4960 C   0  0  0  0  0  0  0  0  0  0  0  0
   36.4760   27.0610   31.0330 C   0  0  0  0  0  0  0  0  0  0  0  0
   37.1750   26.3160   31.9440 N   0  0  0  0  0  0  0  0  0  0  0  0
   37.2990   26.6170   33.2280 C   0  0  0  0  0  0  0  0  0  0  0  0
   36.6980   27.7430   33.6950 N   0  0  0  0  0  0  0  0  0  0  0  0
   35.3030   28.8010   30.7810 H   0  0  0  0  0  0  0  0  0  0  0  0
   36.4640   26.6940   30.0290 H   0  0  0  0  0  0  0  0  0  0  0  0
   38.1960   25.6080   34.3650 S   0  0  0  0  0  0  0  0  0  0  0  0
   39.5700   26.6540   34.9950 C   0  0  0  0  0  0  0  0  0  0  0  0
   40.6550   25.8270   35.2520 F   0  0  0  0  0  0  0  0  0  0  0  0
   39.2020   27.3850   36.0770 F   0  0  0  0  0  0  0  0  0  0  0  0
   40.0060   27.4760   33.9470 F   0  0  0  0  0  0  0  0  0  0  0  0
   35.5870   31.8780   36.0270 C   0  0  0  0  0  0  0  0  0  0  0  0
   36.0160   33.1940   35.8540 F   0  0  0  0  0  0  0  0  0  0  0  0
   36.7270   31.1100   36.1510 F   0  0  0  0  0  0  0  0  0  0  0  0
   34.8030   31.7290   37.1290 F   0  0  0  0  0  0  0  0  0  0  0  0
  1  2  1  0  0  0  0
  2  7  1  0  0  0  0
  2  3  1  0  0  0  0
  2  6  1  0  0  0  0
  3  8  1  6  0  0  0
  3 26  1  0  0  0  0
  4  9  1  0  0  0  0
  4  3  1  0  0  0  0
  5  1  1  0  0  0  0
  5  4  1  0  0  0  0
 10  4  1  0  0  0  0
 11  5  1  0  0  0  0
 12  5  1  0  0  0  0
 13  1  1  0  0  0  0
 13 18  1  0  0  0  0
 14 13  2  0  0  0  0
 15 14  1  0  0  0  0
 15 16  2  0  0  0  0
 16 17  1  0  0  0  0
 17 18  2  0  0  0  0
 17 21  1  0  0  0  0
 19 14  1  0  0  0  0
 20 15  1  0  0  0  0
 21 22  1  0  0  0  0
 22 23  1  0  0  0  0
 22 24  1  0  0  0  0
 25 22  1  0  0  0  0
 26 28  1  0  0  0  0
 26 29  1  0  0  0  0
 27 26  1  0  0  0  0
M  END
>  <minimizedAffinity>
-4.98171568

$$$$
