
 OpenBabel03272509443D

 33 34  0  0  1  0  0  0  0  0999 V2000
   38.9250   27.0300   33.9600 C   0  0  0  0  0  0  0  0  0  0  0  0
   40.0860   26.7730   33.2340 C   0  0  0  0  0  0  0  0  0  0  0  0
   40.1660   27.0220   31.8700 C   0  0  0  0  0  0  0  0  0  0  0  0
   39.0560   27.5450   31.1990 C   0  0  0  0  0  0  0  0  0  0  0  0
   37.9230   27.7920   31.9270 C   0  0  0  0  0  0  0  0  0  0  0  0
   37.8810   27.5290   33.2890 C   0  0  0  0  0  0  0  0  0  0  0  0
   40.9520   26.3660   33.7620 H   0  0  0  0  0  0  0  0  0  0  0  0
   41.0960   26.7930   31.3960 H   0  0  0  0  0  0  0  0  0  0  0  0
   39.1900   27.7140   30.1390 H   0  0  0  0  0  0  0  0  0  0  0  0
   37.1450   28.1960   31.2720 H   0  0  0  0  0  0  0  0  0  0  0  0
   38.8310   26.7420   35.3750 C   0  0  2  0  0  0  0  0  0  0  0  0
   39.9080   26.4580   35.6930 H   0  0  0  0  0  0  0  0  0  0  0  0
   38.0520   23.1940   35.4330 C   0  0  0  0  0  0  0  0  0  0  0  0
   37.7550   22.9320   36.7520 C   0  0  0  0  0  0  0  0  0  0  0  0
   37.7600   23.9960   37.6420 C   0  0  0  0  0  0  0  0  0  0  0  0
   38.0560   25.2600   37.1830 N   0  0  0  0  0  0  0  0  0  0  0  0
   38.3330   25.4420   35.9080 C   0  0  0  0  0  0  0  0  0  0  0  0
   38.3320   24.4160   35.0230 N   0  0  0  0  0  0  0  0  0  0  0  0
   38.0340   22.3300   34.7820 H   0  0  0  0  0  0  0  0  0  0  0  0
   37.5140   21.9830   37.2060 H   0  0  0  0  0  0  0  0  0  0  0  0
   37.5520   23.9940   38.7090 H   0  0  0  0  0  0  0  0  0  0  0  0
   38.7450   27.8060   36.0940 O   0  0  0  0  0  0  0  0  0  0  0  0
   37.9220   28.3410   36.1440 H   0  0  0  0  0  0  0  0  0  0  0  0
   36.6110   27.7990   33.9210 C   0  0  0  0  0  3  0  0  0  0  0  0
   35.9390   28.9480   33.7790 C   0  0  0  0  0  3  0  0  0  0  0  0
   34.6150   29.3140   34.3360 C   0  0  0  0  0  0  0  0  0  0  0  0
   34.3920   28.7270   35.2620 H   0  0  0  0  0  0  0  0  0  0  0  0
   33.8420   29.0020   33.5940 H   0  0  0  0  0  0  0  0  0  0  0  0
   34.5350   31.0880   34.5960 S   0  0  0  0  0  0  0  0  0  0  0  0
   35.6960   31.5830   35.9140 C   0  0  0  0  0  0  0  0  0  0  0  0
   36.3250   32.7550   35.4990 F   0  0  0  0  0  0  0  0  0  0  0  0
   36.6890   30.6020   36.0600 F   0  0  0  0  0  0  0  0  0  0  0  0
   35.0560   31.7860   37.1040 F   0  0  0  0  0  0  0  0  0  0  0  0
  1 11  1  0  0  0  0
  2  7  1  0  0  0  0
  2  1  2  0  0  0  0
  3  2  1  0  0  0  0
  4  3  2  0  0  0  0
  4  5  1  0  0  0  0
  5  6  2  0  0  0  0
  6 24  1  0  0  0  0
  6  1  1  0  0  0  0
  8  3  1  0  0  0  0
  9  4  1  0  0  0  0
 10  5  1  0  0  0  0
 11 12  1  1  0  0  0
 11 17  1  0  0  0  0
 11 22  1  0  0  0  0
 13 14  1  0  0  0  0
 14 20  1  0  0  0  0
 14 15  2  0  0  0  0
 15 21  1  0  0  0  0
 16 15  1  0  0  0  0
 17 16  2  0  0  0  0
 18 13  2  0  0  0  0
 18 17  1  0  0  0  0
 19 13  1  0  0  0  0
 22 23  1  0  0  0  0
 25 24  2  0  0  0  0
 25 26  1  0  0  0  0
 26 29  1  0  0  0  0
 26 27  1  0  0  0  0
 28 26  1  0  0  0  0
 29 30  1  0  0  0  0
 30 32  1  0  0  0  0
 30 33  1  0  0  0  0
 31 30  1  0  0  0  0
M  END
>  <minimizedAffinity>
-5.64369678

$$$$

 OpenBabel03272509443D

 33 34  0  0  1  0  0  0  0  0999 V2000
   36.6820   28.2000   32.3930 C   0  0  0  0  0  0  0  0  0  0  0  0
   36.1800   29.1570   31.5140 C   0  0  0  0  0  0  0  0  0  0  0  0
   35.4440   30.2460   31.9620 C   0  0  0  0  0  0  0  0  0  0  0  0
   35.1970   30.3950   33.3310 C   0  0  0  0  0  0  0  0  0  0  0  0
   35.6980   29.4460   34.1810 C   0  0  0  0  0  0  0  0  0  0  0  0
   36.4270   28.3700   33.6950 C   0  0  0  0  0  0  0  0  0  0  0  0
   36.3760   29.0380   30.4460 H   0  0  0  0  0  0  0  0  0  0  0  0
   35.0980   30.9290   31.2160 H   0  0  0  0  0  0  0  0  0  0  0  0
   34.6190   31.2660   33.6070 H   0  0  0  0  0  0  0  0  0  0  0  0
   35.4260   29.6940   35.2120 H   0  0  0  0  0  0  0  0  0  0  0  0
   37.4220   27.0490   31.9250 C   0  0  2  0  0  0  0  0  0  0  0  0
   37.3130   27.0740   30.7720 H   0  0  0  0  0  0  0  0  0  0  0  0
   35.2030   24.2880   31.1150 C   0  0  0  0  0  0  0  0  0  0  0  0
   35.8530   23.1750   31.6020 C   0  0  0  0  0  0  0  0  0  0  0  0
   37.0480   23.3650   32.2790 C   0  0  0  0  0  0  0  0  0  0  0  0
   37.5390   24.6430   32.4370 N   0  0  0  0  0  0  0  0  0  0  0  0
   36.8700   25.6640   31.9450 C   0  0  0  0  0  0  0  0  0  0  0  0
   35.6990   25.4990   31.2830 N   0  0  0  0  0  0  0  0  0  0  0  0
   34.2760   24.0840   30.5970 H   0  0  0  0  0  0  0  0  0  0  0  0
   35.5520   22.1420   31.5280 H   0  0  0  0  0  0  0  0  0  0  0  0
   37.7010   22.6240   32.7340 H   0  0  0  0  0  0  0  0  0  0  0  0
   38.6960   27.2310   31.9530 O   0  0  0  0  0  0  0  0  0  0  0  0
   39.2090   27.2260   32.7910 H   0  0  0  0  0  0  0  0  0  0  0  0
   36.8600   27.4270   34.7000 C   0  0  0  0  0  3  0  0  0  0  0  0
   37.9460   27.5970   35.4620 C   0  0  0  0  0  3  0  0  0  0  0  0
   38.4530   26.7260   36.5490 C   0  0  0  0  0  0  0  0  0  0  0  0
   38.0440   27.0420   37.5420 H   0  0  0  0  0  0  0  0  0  0  0  0
   39.5550   26.8870   36.6190 H   0  0  0  0  0  0  0  0  0  0  0  0
   38.1060   25.0080   36.1630 S   0  0  0  0  0  0  0  0  0  0  0  0
   38.1230   24.0060   37.6890 C   0  0  0  0  0  0  0  0  0  0  0  0
   39.3530   23.3530   37.7460 F   0  0  0  0  0  0  0  0  0  0  0  0
   37.1270   23.0210   37.6170 F   0  0  0  0  0  0  0  0  0  0  0  0
   37.9460   24.7760   38.8030 F   0  0  0  0  0  0  0  0  0  0  0  0
  1  6  1  0  0  0  0
  2  3  1  0  0  0  0
  2  1  2  0  0  0  0
  3  4  2  0  0  0  0
  4  9  1  0  0  0  0
  4  5  1  0  0  0  0
  5 10  1  0  0  0  0
  6  5  2  0  0  0  0
  6 24  1  0  0  0  0
  7  2  1  0  0  0  0
  8  3  1  0  0  0  0
 11 12  1  6  0  0  0
 11 17  1  0  0  0  0
 11 22  1  0  0  0  0
 11  1  1  0  0  0  0
 13 18  2  0  0  0  0
 13 14  1  0  0  0  0
 14 15  2  0  0  0  0
 15 16  1  0  0  0  0
 15 21  1  0  0  0  0
 17 16  2  0  0  0  0
 18 17  1  0  0  0  0
 19 13  1  0  0  0  0
 20 14  1  0  0  0  0
 22 23  1  0  0  0  0
 24 25  2  0  0  0  0
 25 26  1  0  0  0  0
 26 28  1  0  0  0  0
 26 27  1  0  0  0  0
 29 26  1  0  0  0  0
 29 30  1  0  0  0  0
 30 31  1  0  0  0  0
 30 33  1  0  0  0  0
 32 30  1  0  0  0  0
M  END
>  <minimizedAffinity>
-5.57470417

$$$$

 OpenBabel03272509443D

 33 34  0  0  1  0  0  0  0  0999 V2000
   38.9260   26.8930   33.3210 C   0  0  0  0  0  0  0  0  0  0  0  0
   39.8130   27.3300   32.3400 C   0  0  0  0  0  0  0  0  0  0  0  0
   41.1790   27.4140   32.5740 C   0  0  0  0  0  0  0  0  0  0  0  0
   41.6870   27.0520   33.8250 C   0  0  0  0  0  0  0  0  0  0  0  0
   40.8020   26.6240   34.7790 C   0  0  0  0  0  0  0  0  0  0  0  0
   39.4440   26.5550   34.5080 C   0  0  0  0  0  0  0  0  0  0  0  0
   39.4120   27.6110   31.3630 H   0  0  0  0  0  0  0  0  0  0  0  0
   41.7820   27.7610   31.7620 H   0  0  0  0  0  0  0  0  0  0  0  0
   42.7590   27.1410   33.9360 H   0  0  0  0  0  0  0  0  0  0  0  0
   41.3430   26.3780   35.6980 H   0  0  0  0  0  0  0  0  0  0  0  0
   37.4990   26.8350   33.0880 C   0  0  2  0  0  0  0  0  0  0  0  0
   37.0560   26.3980   34.0650 H   0  0  0  0  0  0  0  0  0  0  0  0
   36.7060   23.4500   32.0330 C   0  0  0  0  0  0  0  0  0  0  0  0
   35.6000   23.5960   31.2250 C   0  0  0  0  0  0  0  0  0  0  0  0
   35.1400   24.8810   30.9780 C   0  0  0  0  0  0  0  0  0  0  0  0
   35.7970   25.9520   31.5420 N   0  0  0  0  0  0  0  0  0  0  0  0
   36.8480   25.7440   32.3070 C   0  0  0  0  0  0  0  0  0  0  0  0
   37.3130   24.4960   32.5590 N   0  0  0  0  0  0  0  0  0  0  0  0
   37.0210   22.4280   32.1920 H   0  0  0  0  0  0  0  0  0  0  0  0
   35.0200   22.8240   30.7420 H   0  0  0  0  0  0  0  0  0  0  0  0
   34.2960   25.2000   30.3730 H   0  0  0  0  0  0  0  0  0  0  0  0
   36.9330   27.9860   33.1760 O   0  0  0  0  0  0  0  0  0  0  0  0
   37.0230   28.6710   32.4760 H   0  0  0  0  0  0  0  0  0  0  0  0
   38.6240   26.1260   35.6170 C   0  0  0  0  0  3  0  0  0  0  0  0
   38.6090   24.8740   36.0910 C   0  0  0  0  0  3  0  0  0  0  0  0
   37.8520   24.3370   37.2460 C   0  0  0  0  0  0  0  0  0  0  0  0
   36.9360   23.7900   36.9060 H   0  0  0  0  0  0  0  0  0  0  0  0
   37.4760   25.2070   37.8340 H   0  0  0  0  0  0  0  0  0  0  0  0
   38.9320   23.3280   38.2640 S   0  0  0  0  0  0  0  0  0  0  0  0
   40.1390   22.4460   37.2170 C   0  0  0  0  0  0  0  0  0  0  0  0
   40.8650   21.5920   38.0450 F   0  0  0  0  0  0  0  0  0  0  0  0
   41.0440   23.3660   36.6660 F   0  0  0  0  0  0  0  0  0  0  0  0
   39.5260   21.7350   36.2250 F   0  0  0  0  0  0  0  0  0  0  0  0
  1  6  1  0  0  0  0
  2  3  1  0  0  0  0
  2  1  2  0  0  0  0
  3  4  2  0  0  0  0
  4  9  1  0  0  0  0
  4  5  1  0  0  0  0
  5 10  1  0  0  0  0
  6  5  2  0  0  0  0
  6 24  1  0  0  0  0
  7  2  1  0  0  0  0
  8  3  1  0  0  0  0
 11 22  1  0  0  0  0
 11  1  1  0  0  0  0
 11 12  1  1  0  0  0
 13 19  1  0  0  0  0
 13 18  1  0  0  0  0
 14 13  2  0  0  0  0
 15 14  1  0  0  0  0
 15 16  2  0  0  0  0
 16 17  1  0  0  0  0
 17 18  2  0  0  0  0
 17 11  1  0  0  0  0
 20 14  1  0  0  0  0
 21 15  1  0  0  0  0
 23 22  1  0  0  0  0
 24 25  2  0  0  0  0
 25 26  1  0  0  0  0
 26 28  1  0  0  0  0
 26 29  1  0  0  0  0
 27 26  1  0  0  0  0
 30 31  1  0  0  0  0
 30 29  1  0  0  0  0
 32 30  1  0  0  0  0
 33 30  1  0  0  0  0
M  END
>  <minimizedAffinity>
-5.47351408

$$$$

 OpenBabel03272509443D

 33 34  0  0  1  0  0  0  0  0999 V2000
   36.6410   22.8770   32.2580 C   0  0  0  0  0  0  0  0  0  0  0  0
   35.5460   22.3110   31.6080 C   0  0  0  0  0  0  0  0  0  0  0  0
   34.9660   21.1290   32.0490 C   0  0  0  0  0  0  0  0  0  0  0  0
   35.4880   20.4830   33.1740 C   0  0  0  0  0  0  0  0  0  0  0  0
   36.5640   21.0520   33.8010 C   0  0  0  0  0  0  0  0  0  0  0  0
   37.1170   22.2340   33.3300 C   0  0  0  0  0  0  0  0  0  0  0  0
   35.1400   22.8200   30.7300 H   0  0  0  0  0  0  0  0  0  0  0  0
   34.1310   20.7690   31.4880 H   0  0  0  0  0  0  0  0  0  0  0  0
   34.9860   19.5680   33.4600 H   0  0  0  0  0  0  0  0  0  0  0  0
   36.8590   20.4380   34.6570 H   0  0  0  0  0  0  0  0  0  0  0  0
   37.2650   24.0930   31.7820 C   0  0  2  0  0  0  0  0  0  0  0  0
   38.1940   24.2350   32.4570 H   0  0  0  0  0  0  0  0  0  0  0  0
   37.0080   27.1710   33.6940 C   0  0  0  0  0  0  0  0  0  0  0  0
   36.2820   28.0160   32.8840 C   0  0  0  0  0  0  0  0  0  0  0  0
   35.8110   27.5150   31.6790 C   0  0  0  0  0  0  0  0  0  0  0  0
   36.0830   26.2080   31.3390 N   0  0  0  0  0  0  0  0  0  0  0  0
   36.7850   25.4530   32.1590 C   0  0  0  0  0  0  0  0  0  0  0  0
   37.2520   25.9240   33.3410 N   0  0  0  0  0  0  0  0  0  0  0  0
   37.3500   27.6120   34.6210 H   0  0  0  0  0  0  0  0  0  0  0  0
   36.0210   29.0480   33.0600 H   0  0  0  0  0  0  0  0  0  0  0  0
   35.2250   28.0160   30.9130 H   0  0  0  0  0  0  0  0  0  0  0  0
   37.9110   23.9230   30.6820 O   0  0  0  0  0  0  0  0  0  0  0  0
   37.4570   23.8120   29.8170 H   0  0  0  0  0  0  0  0  0  0  0  0
   38.2710   22.6990   34.0630 C   0  0  0  0  0  3  0  0  0  0  0  0
   38.7310   22.1140   35.1760 C   0  0  0  0  0  3  0  0  0  0  0  0
   39.9250   22.4720   35.9770 C   0  0  0  0  0  0  0  0  0  0  0  0
   40.5490   23.2370   35.4490 H   0  0  0  0  0  0  0  0  0  0  0  0
   40.5670   21.5620   36.0450 H   0  0  0  0  0  0  0  0  0  0  0  0
   39.4210   22.9920   37.6200 S   0  0  0  0  0  0  0  0  0  0  0  0
   38.1390   24.2860   37.5030 C   0  0  0  0  0  0  0  0  0  0  0  0
   38.5500   25.1950   36.5300 F   0  0  0  0  0  0  0  0  0  0  0  0
   38.0560   24.9800   38.7190 F   0  0  0  0  0  0  0  0  0  0  0  0
   36.9200   23.7630   37.1740 F   0  0  0  0  0  0  0  0  0  0  0  0
  1  6  1  0  0  0  0
  2  3  1  0  0  0  0
  2  1  2  0  0  0  0
  3  4  2  0  0  0  0
  4  9  1  0  0  0  0
  4  5  1  0  0  0  0
  5 10  1  0  0  0  0
  6  5  2  0  0  0  0
  6 24  1  0  0  0  0
  7  2  1  0  0  0  0
  8  3  1  0  0  0  0
 11 17  1  0  0  0  0
 11  1  1  0  0  0  0
 11 12  1  1  0  0  0
 13 19  1  0  0  0  0
 14 20  1  0  0  0  0
 14 13  2  0  0  0  0
 15 14  1  0  0  0  0
 16 15  2  0  0  0  0
 16 17  1  0  0  0  0
 17 18  2  0  0  0  0
 18 13  1  0  0  0  0
 21 15  1  0  0  0  0
 22 11  1  0  0  0  0
 23 22  1  0  0  0  0
 24 25  2  0  0  0  0
 25 26  1  0  0  0  0
 26 28  1  0  0  0  0
 26 29  1  0  0  0  0
 27 26  1  0  0  0  0
 30 29  1  0  0  0  0
 30 32  1  0  0  0  0
 31 30  1  0  0  0  0
 33 30  1  0  0  0  0
M  END
>  <minimizedAffinity>
-5.24176121

$$$$

 OpenBabel03272509443D

 33 34  0  0  1  0  0  0  0  0999 V2000
   36.9880   25.3930   31.7640 C   0  0  0  0  0  0  0  0  0  0  0  0
   36.2810   26.5460   31.4290 C   0  0  0  0  0  0  0  0  0  0  0  0
   36.1720   27.6170   32.3060 C   0  0  0  0  0  0  0  0  0  0  0  0
   36.7850   27.5460   33.5600 C   0  0  0  0  0  0  0  0  0  0  0  0
   37.4760   26.4060   33.8740 C   0  0  0  0  0  0  0  0  0  0  0  0
   37.5620   25.3550   32.9720 C   0  0  0  0  0  0  0  0  0  0  0  0
   35.8050   26.5990   30.4470 H   0  0  0  0  0  0  0  0  0  0  0  0
   35.6090   28.4590   31.9640 H   0  0  0  0  0  0  0  0  0  0  0  0
   36.6590   28.4160   34.1900 H   0  0  0  0  0  0  0  0  0  0  0  0
   37.8970   26.4950   34.8800 H   0  0  0  0  0  0  0  0  0  0  0  0
   37.0770   24.2640   30.8630 C   0  0  2  0  0  0  0  0  0  0  0  0
   36.2150   24.4200   30.1050 H   0  0  0  0  0  0  0  0  0  0  0  0
   37.0320   20.6540   31.2660 C   0  0  0  0  0  0  0  0  0  0  0  0
   35.8870   20.4070   31.9910 C   0  0  0  0  0  0  0  0  0  0  0  0
   35.0710   21.4830   32.3040 C   0  0  0  0  0  0  0  0  0  0  0  0
   35.4290   22.7460   31.8850 N   0  0  0  0  0  0  0  0  0  0  0  0
   36.5380   22.9140   31.1960 C   0  0  0  0  0  0  0  0  0  0  0  0
   37.3470   21.8740   30.8790 N   0  0  0  0  0  0  0  0  0  0  0  0
   37.6300   19.7800   31.0490 H   0  0  0  0  0  0  0  0  0  0  0  0
   35.5250   19.4600   32.3630 H   0  0  0  0  0  0  0  0  0  0  0  0
   34.1360   21.4930   32.8580 H   0  0  0  0  0  0  0  0  0  0  0  0
   38.0370   24.3800   30.0140 O   0  0  0  0  0  0  0  0  0  0  0  0
   38.9790   24.2580   30.2660 H   0  0  0  0  0  0  0  0  0  0  0  0
   38.2870   24.2020   33.4500 C   0  0  0  0  0  3  0  0  0  0  0  0
   38.1950   23.7300   34.6990 C   0  0  0  0  0  3  0  0  0  0  0  0
   38.8490   22.5340   35.2820 C   0  0  0  0  0  0  0  0  0  0  0  0
   39.5390   22.0540   34.5430 H   0  0  0  0  0  0  0  0  0  0  0  0
   38.0520   21.7790   35.4770 H   0  0  0  0  0  0  0  0  0  0  0  0
   39.6670   22.9760   36.8170 S   0  0  0  0  0  0  0  0  0  0  0  0
   38.4540   23.6560   38.0000 C   0  0  0  0  0  0  0  0  0  0  0  0
   38.1730   24.9620   37.6070 F   0  0  0  0  0  0  0  0  0  0  0  0
   39.0270   23.7170   39.2800 F   0  0  0  0  0  0  0  0  0  0  0  0
   37.3070   22.9150   38.0320 F   0  0  0  0  0  0  0  0  0  0  0  0
  1  6  1  0  0  0  0
  2  1  2  0  0  0  0
  2  3  1  0  0  0  0
  3  4  2  0  0  0  0
  4  5  1  0  0  0  0
  4  9  1  0  0  0  0
  5 10  1  0  0  0  0
  6 24  1  0  0  0  0
  6  5  2  0  0  0  0
  7  2  1  0  0  0  0
  8  3  1  0  0  0  0
 11 12  1  6  0  0  0
 11 17  1  0  0  0  0
 11  1  1  0  0  0  0
 13 14  1  0  0  0  0
 14 15  2  0  0  0  0
 14 20  1  0  0  0  0
 15 21  1  0  0  0  0
 16 15  1  0  0  0  0
 17 16  2  0  0  0  0
 18 17  1  0  0  0  0
 18 13  2  0  0  0  0
 19 13  1  0  0  0  0
 22 23  1  0  0  0  0
 22 11  1  0  0  0  0
 24 25  2  0  0  0  0
 25 26  1  0  0  0  0
 26 28  1  0  0  0  0
 26 29  1  0  0  0  0
 27 26  1  0  0  0  0
 29 30  1  0  0  0  0
 30 33  1  0  0  0  0
 30 32  1  0  0  0  0
 31 30  1  0  0  0  0
M  END
>  <minimizedAffinity>
-5.23072195

$$$$

 OpenBabel03272509443D

 33 34  0  0  1  0  0  0  0  0999 V2000
   38.4370   24.0280   35.6440 C   0  0  0  0  0  0  0  0  0  0  0  0
   38.4330   25.1520   36.4660 C   0  0  0  0  0  0  0  0  0  0  0  0
   38.1060   26.4120   35.9810 C   0  0  0  0  0  0  0  0  0  0  0  0
   37.7710   26.5650   34.6330 C   0  0  0  0  0  0  0  0  0  0  0  0
   37.7790   25.4500   33.8370 C   0  0  0  0  0  0  0  0  0  0  0  0
   38.1120   24.2080   34.3580 C   0  0  0  0  0  0  0  0  0  0  0  0
   38.6940   25.0290   37.5200 H   0  0  0  0  0  0  0  0  0  0  0  0
   38.1310   27.2160   36.6850 H   0  0  0  0  0  0  0  0  0  0  0  0
   37.5270   27.5730   34.3250 H   0  0  0  0  0  0  0  0  0  0  0  0
   37.4980   25.7240   32.8160 H   0  0  0  0  0  0  0  0  0  0  0  0
   38.8060   22.7210   36.1410 C   0  0  2  0  0  0  0  0  0  0  0  0
   38.8390   22.8390   37.2930 H   0  0  0  0  0  0  0  0  0  0  0  0
   41.8590   21.2640   37.4680 C   0  0  0  0  0  0  0  0  0  0  0  0
   42.6280   21.0120   36.3530 C   0  0  0  0  0  0  0  0  0  0  0  0
   42.1290   21.3990   35.1180 C   0  0  0  0  0  0  0  0  0  0  0  0
   40.8980   22.0140   35.0500 N   0  0  0  0  0  0  0  0  0  0  0  0
   40.2120   22.2240   36.1540 C   0  0  0  0  0  0  0  0  0  0  0  0
   40.6840   21.8540   37.3700 N   0  0  0  0  0  0  0  0  0  0  0  0
   42.2950   20.9430   38.4030 H   0  0  0  0  0  0  0  0  0  0  0  0
   43.5970   20.5380   36.3040 H   0  0  0  0  0  0  0  0  0  0  0  0
   42.5800   21.2920   34.1350 H   0  0  0  0  0  0  0  0  0  0  0  0
   37.8310   21.8830   36.1100 O   0  0  0  0  0  0  0  0  0  0  0  0
   37.5110   21.4780   35.2730 H   0  0  0  0  0  0  0  0  0  0  0  0
   38.1190   23.1290   33.3990 C   0  0  0  0  0  3  0  0  0  0  0  0
   37.1100   22.8760   32.5560 C   0  0  0  0  0  3  0  0  0  0  0  0
   37.0290   21.8350   31.5040 C   0  0  0  0  0  0  0  0  0  0  0  0
   37.8330   21.9750   30.7380 H   0  0  0  0  0  0  0  0  0  0  0  0
   36.0690   21.9870   30.9570 H   0  0  0  0  0  0  0  0  0  0  0  0
   37.0550   20.2060   32.2580 S   0  0  0  0  0  0  0  0  0  0  0  0
   35.5070   19.9180   33.1820 C   0  0  0  0  0  0  0  0  0  0  0  0
   35.2900   18.5410   33.2140 F   0  0  0  0  0  0  0  0  0  0  0  0
   34.4310   20.4970   32.4920 F   0  0  0  0  0  0  0  0  0  0  0  0
   35.5750   20.4140   34.4530 F   0  0  0  0  0  0  0  0  0  0  0  0
  1 11  1  0  0  0  0
  1  2  1  0  0  0  0
  2  7  1  0  0  0  0
  3  2  2  0  0  0  0
  3  8  1  0  0  0  0
  4  3  1  0  0  0  0
  5  6  1  0  0  0  0
  5  4  2  0  0  0  0
  6  1  2  0  0  0  0
  9  4  1  0  0  0  0
 10  5  1  0  0  0  0
 11 17  1  0  0  0  0
 11 12  1  1  0  0  0
 13 19  1  0  0  0  0
 14 13  2  0  0  0  0
 15 14  1  0  0  0  0
 16 15  2  0  0  0  0
 16 17  1  0  0  0  0
 17 18  2  0  0  0  0
 18 13  1  0  0  0  0
 20 14  1  0  0  0  0
 21 15  1  0  0  0  0
 22 11  1  0  0  0  0
 23 22  1  0  0  0  0
 24  6  1  0  0  0  0
 25 24  2  0  0  0  0
 26 29  1  0  0  0  0
 26 25  1  0  0  0  0
 27 26  1  0  0  0  0
 28 26  1  0  0  0  0
 29 30  1  0  0  0  0
 30 31  1  0  0  0  0
 30 33  1  0  0  0  0
 32 30  1  0  0  0  0
M  END
>  <minimizedAffinity>
-5.18956947

$$$$

 OpenBabel03272509443D

 33 34  0  0  1  0  0  0  0  0999 V2000
   36.0650   29.1290   32.0350 C   0  0  0  0  0  0  0  0  0  0  0  0
   36.1710   29.4430   30.6820 C   0  0  0  0  0  0  0  0  0  0  0  0
   37.0910   28.8130   29.8550 C   0  0  0  0  0  0  0  0  0  0  0  0
   37.9380   27.8350   30.3850 C   0  0  0  0  0  0  0  0  0  0  0  0
   37.8210   27.5370   31.7170 C   0  0  0  0  0  0  0  0  0  0  0  0
   36.8900   28.1900   32.5120 C   0  0  0  0  0  0  0  0  0  0  0  0
   35.5060   30.2070   30.2710 H   0  0  0  0  0  0  0  0  0  0  0  0
   37.1010   29.1200   28.8310 H   0  0  0  0  0  0  0  0  0  0  0  0
   38.6280   27.3860   29.6840 H   0  0  0  0  0  0  0  0  0  0  0  0
   38.5430   26.7600   31.9850 H   0  0  0  0  0  0  0  0  0  0  0  0
   35.1270   29.8060   32.9040 C   0  0  2  0  0  0  0  0  0  0  0  0
   34.5230   30.5030   32.2050 H   0  0  0  0  0  0  0  0  0  0  0  0
   35.9680   31.6750   35.9040 C   0  0  0  0  0  0  0  0  0  0  0  0
   36.4440   32.8780   35.4330 C   0  0  0  0  0  0  0  0  0  0  0  0
   36.4270   33.0930   34.0630 C   0  0  0  0  0  0  0  0  0  0  0  0
   35.9410   32.1070   33.2320 N   0  0  0  0  0  0  0  0  0  0  0  0
   35.5020   30.9780   33.7470 C   0  0  0  0  0  0  0  0  0  0  0  0
   35.5090   30.7510   35.0830 N   0  0  0  0  0  0  0  0  0  0  0  0
   36.0040   31.5610   36.9790 H   0  0  0  0  0  0  0  0  0  0  0  0
   36.8440   33.7050   36.0000 H   0  0  0  0  0  0  0  0  0  0  0  0
   36.7530   33.9660   33.5040 H   0  0  0  0  0  0  0  0  0  0  0  0
   34.1390   29.0580   33.2500 O   0  0  0  0  0  0  0  0  0  0  0  0
   34.2330   28.3340   33.9080 H   0  0  0  0  0  0  0  0  0  0  0  0
   36.9040   27.8040   33.9040 C   0  0  0  0  0  3  0  0  0  0  0  0
   37.5410   26.7240   34.3710 C   0  0  0  0  0  3  0  0  0  0  0  0
   37.6640   26.2630   35.7740 C   0  0  0  0  0  0  0  0  0  0  0  0
   36.6750   26.2980   36.2960 H   0  0  0  0  0  0  0  0  0  0  0  0
   38.3090   26.9970   36.3120 H   0  0  0  0  0  0  0  0  0  0  0  0
   38.4200   24.6360   35.8150 S   0  0  0  0  0  0  0  0  0  0  0  0
   38.2760   23.9190   37.4880 C   0  0  0  0  0  0  0  0  0  0  0  0
   37.1640   23.0790   37.4880 F   0  0  0  0  0  0  0  0  0  0  0  0
   38.0320   24.9400   38.4190 F   0  0  0  0  0  0  0  0  0  0  0  0
   39.3960   23.2190   37.8380 F   0  0  0  0  0  0  0  0  0  0  0  0
  1  6  1  0  0  0  0
  1 11  1  0  0  0  0
  2  1  2  0  0  0  0
  3  4  2  0  0  0  0
  3  2  1  0  0  0  0
  4  5  1  0  0  0  0
  5 10  1  0  0  0  0
  5  6  2  0  0  0  0
  6 24  1  0  0  0  0
  7  2  1  0  0  0  0
  8  3  1  0  0  0  0
  9  4  1  0  0  0  0
 11 12  1  6  0  0  0
 11 22  1  0  0  0  0
 11 17  1  0  0  0  0
 13 19  1  0  0  0  0
 14 13  1  0  0  0  0
 14 20  1  0  0  0  0
 15 14  2  0  0  0  0
 16 17  2  0  0  0  0
 16 15  1  0  0  0  0
 17 18  1  0  0  0  0
 18 13  2  0  0  0  0
 21 15  1  0  0  0  0
 22 23  1  0  0  0  0
 24 25  2  0  0  0  0
 25 26  1  0  0  0  0
 26 29  1  0  0  0  0
 26 27  1  0  0  0  0
 26 28  1  0  0  0  0
 29 30  1  0  0  0  0
 30 31  1  0  0  0  0
 30 33  1  0  0  0  0
 30 32  1  0  0  0  0
M  END
>  <minimizedAffinity>
-5.18169928

$$$$

 OpenBabel03272509443D

 33 34  0  0  1  0  0  0  0  0999 V2000
   37.4770   26.1230   33.0130 C   0  0  0  0  0  0  0  0  0  0  0  0
   37.3640   27.4700   33.3490 C   0  0  0  0  0  0  0  0  0  0  0  0
   36.4770   28.3150   32.6940 C   0  0  0  0  0  0  0  0  0  0  0  0
   35.6710   27.8080   31.6710 C   0  0  0  0  0  0  0  0  0  0  0  0
   35.7930   26.4810   31.3540 C   0  0  0  0  0  0  0  0  0  0  0  0
   36.6930   25.6690   32.0290 C   0  0  0  0  0  0  0  0  0  0  0  0
   37.9950   27.8630   34.1500 H   0  0  0  0  0  0  0  0  0  0  0  0
   36.4600   29.3330   33.0190 H   0  0  0  0  0  0  0  0  0  0  0  0
   35.0030   28.5210   31.2070 H   0  0  0  0  0  0  0  0  0  0  0  0
   35.1050   26.2320   30.5410 H   0  0  0  0  0  0  0  0  0  0  0  0
   38.4230   25.2500   33.6740 C   0  0  2  0  0  0  0  0  0  0  0  0
   38.3270   24.2360   33.1220 H   0  0  0  0  0  0  0  0  0  0  0  0
   37.9620   22.5160   36.0220 C   0  0  0  0  0  0  0  0  0  0  0  0
   37.9200   23.1290   37.2550 C   0  0  0  0  0  0  0  0  0  0  0  0
   37.9900   24.5140   37.2940 C   0  0  0  0  0  0  0  0  0  0  0  0
   38.0970   25.2180   36.1150 N   0  0  0  0  0  0  0  0  0  0  0  0
   38.1330   24.5700   34.9690 C   0  0  0  0  0  0  0  0  0  0  0  0
   38.0650   23.2180   34.9110 N   0  0  0  0  0  0  0  0  0  0  0  0
   37.9040   21.4360   36.0490 H   0  0  0  0  0  0  0  0  0  0  0  0
   37.8400   22.6670   38.2270 H   0  0  0  0  0  0  0  0  0  0  0  0
   37.9710   25.1740   38.1570 H   0  0  0  0  0  0  0  0  0  0  0  0
   39.6400   25.4850   33.3320 O   0  0  0  0  0  0  0  0  0  0  0  0
   40.1350   26.2710   33.6540 H   0  0  0  0  0  0  0  0  0  0  0  0
   36.7450   24.3030   31.5640 C   0  0  0  0  0  3  0  0  0  0  0  0
   35.6960   23.4730   31.5730 C   0  0  0  0  0  3  0  0  0  0  0  0
   35.6220   22.0770   31.0790 C   0  0  0  0  0  0  0  0  0  0  0  0
   35.9220   22.0160   30.0020 H   0  0  0  0  0  0  0  0  0  0  0  0
   34.5490   21.7690   31.1050 H   0  0  0  0  0  0  0  0  0  0  0  0
   36.5950   21.0040   32.1390 S   0  0  0  0  0  0  0  0  0  0  0  0
   35.5380   19.6970   32.8490 C   0  0  0  0  0  0  0  0  0  0  0  0
   35.4030   19.9620   34.2100 F   0  0  0  0  0  0  0  0  0  0  0  0
   36.1770   18.4540   32.7240 F   0  0  0  0  0  0  0  0  0  0  0  0
   34.3100   19.6580   32.2520 F   0  0  0  0  0  0  0  0  0  0  0  0
  1  2  1  0  0  0  0
  1 11  1  0  0  0  0
  2  7  1  0  0  0  0
  3  8  1  0  0  0  0
  3  2  2  0  0  0  0
  4  3  1  0  0  0  0
  5  4  2  0  0  0  0
  5  6  1  0  0  0  0
  6  1  2  0  0  0  0
  9  4  1  0  0  0  0
 10  5  1  0  0  0  0
 11 12  1  6  0  0  0
 11 17  1  0  0  0  0
 13 19  1  0  0  0  0
 13 14  1  0  0  0  0
 14 15  2  0  0  0  0
 14 20  1  0  0  0  0
 15 21  1  0  0  0  0
 16 15  1  0  0  0  0
 17 16  2  0  0  0  0
 18 17  1  0  0  0  0
 18 13  2  0  0  0  0
 22 23  1  0  0  0  0
 22 11  1  0  0  0  0
 24 25  2  0  0  0  0
 24  6  1  0  0  0  0
 26 28  1  0  0  0  0
 26 25  1  0  0  0  0
 26 29  1  0  0  0  0
 27 26  1  0  0  0  0
 29 30  1  0  0  0  0
 30 31  1  0  0  0  0
 32 30  1  0  0  0  0
 33 30  1  0  0  0  0
M  END
>  <minimizedAffinity>
-5.17495728

$$$$

 OpenBabel03272509443D

 33 34  0  0  1  0  0  0  0  0999 V2000
   38.9280   26.2520   34.2040 C   0  0  0  0  0  0  0  0  0  0  0  0
   40.0650   27.0540   34.2810 C   0  0  0  0  0  0  0  0  0  0  0  0
   40.8360   27.3390   33.1620 C   0  0  0  0  0  0  0  0  0  0  0  0
   40.4690   26.8120   31.9200 C   0  0  0  0  0  0  0  0  0  0  0  0
   39.3490   26.0260   31.8610 C   0  0  0  0  0  0  0  0  0  0  0  0
   38.6050   25.7620   33.0010 C   0  0  0  0  0  0  0  0  0  0  0  0
   40.3480   27.4660   35.2530 H   0  0  0  0  0  0  0  0  0  0  0  0
   41.6900   27.9620   33.3170 H   0  0  0  0  0  0  0  0  0  0  0  0
   41.1150   27.0760   31.0930 H   0  0  0  0  0  0  0  0  0  0  0  0
   39.1900   25.6880   30.8320 H   0  0  0  0  0  0  0  0  0  0  0  0
   38.1420   25.9290   35.3740 C   0  0  2  0  0  0  0  0  0  0  0  0
   38.4920   26.6790   36.1840 H   0  0  0  0  0  0  0  0  0  0  0  0
   39.9490   23.0600   36.6770 C   0  0  0  0  0  0  0  0  0  0  0  0
   39.4200   22.8660   37.9340 C   0  0  0  0  0  0  0  0  0  0  0  0
   38.3800   23.6900   38.3350 C   0  0  0  0  0  0  0  0  0  0  0  0
   37.9170   24.6610   37.4740 N   0  0  0  0  0  0  0  0  0  0  0  0
   38.4680   24.7950   36.2850 C   0  0  0  0  0  0  0  0  0  0  0  0
   39.4850   23.9980   35.8750 N   0  0  0  0  0  0  0  0  0  0  0  0
   40.7570   22.3900   36.4150 H   0  0  0  0  0  0  0  0  0  0  0  0
   39.7130   22.1390   38.6760 H   0  0  0  0  0  0  0  0  0  0  0  0
   37.8340   23.6940   39.2750 H   0  0  0  0  0  0  0  0  0  0  0  0
   36.9320   26.3590   35.2940 O   0  0  0  0  0  0  0  0  0  0  0  0
   36.2590   25.9320   34.7190 H   0  0  0  0  0  0  0  0  0  0  0  0
   37.4740   24.8870   32.8000 C   0  0  0  0  0  3  0  0  0  0  0  0
   37.5370   23.7330   32.1230 C   0  0  0  0  0  3  0  0  0  0  0  0
   36.4610   22.7390   31.8970 C   0  0  0  0  0  0  0  0  0  0  0  0
   36.1970   22.6730   30.8120 H   0  0  0  0  0  0  0  0  0  0  0  0
   35.5420   23.1200   32.4030 H   0  0  0  0  0  0  0  0  0  0  0  0
   36.9370   21.1580   32.6000 S   0  0  0  0  0  0  0  0  0  0  0  0
   35.4820   20.3310   33.3270 C   0  0  0  0  0  0  0  0  0  0  0  0
   35.7250   18.9590   33.3010 F   0  0  0  0  0  0  0  0  0  0  0  0
   34.3540   20.5730   32.5290 F   0  0  0  0  0  0  0  0  0  0  0  0
   35.2510   20.7440   34.6090 F   0  0  0  0  0  0  0  0  0  0  0  0
  1  2  1  0  0  0  0
  1 11  1  0  0  0  0
  2  7  1  0  0  0  0
  3  8  1  0  0  0  0
  3  2  2  0  0  0  0
  4  3  1  0  0  0  0
  5  4  2  0  0  0  0
  5  6  1  0  0  0  0
  6  1  2  0  0  0  0
  9  4  1  0  0  0  0
 10  5  1  0  0  0  0
 11 12  1  1  0  0  0
 11 17  1  0  0  0  0
 13 14  1  0  0  0  0
 14 15  2  0  0  0  0
 14 20  1  0  0  0  0
 15 21  1  0  0  0  0
 16 15  1  0  0  0  0
 17 16  2  0  0  0  0
 18 17  1  0  0  0  0
 18 13  2  0  0  0  0
 19 13  1  0  0  0  0
 22 11  1  0  0  0  0
 23 22  1  0  0  0  0
 24  6  1  0  0  0  0
 25 24  2  0  0  0  0
 26 25  1  0  0  0  0
 26 28  1  0  0  0  0
 26 29  1  0  0  0  0
 27 26  1  0  0  0  0
 29 30  1  0  0  0  0
 30 33  1  0  0  0  0
 31 30  1  0  0  0  0
 32 30  1  0  0  0  0
M  END
>  <minimizedAffinity>
-5.15505648

$$$$
