
 OpenBabel03272510113D

 30 32  0  0  0  0  0  0  0  0999 V2000
   33.8020   28.7080   48.2880 C   0  0  0  0  0  0  0  0  0  0  0  0
   34.3660   28.2790   49.4370 C   0  0  0  0  0  0  0  0  0  0  0  0
   35.6160   28.6600   49.8880 C   0  0  0  0  0  0  0  0  0  0  0  0
   36.3630   29.5270   49.1510 C   0  0  0  0  0  0  0  0  0  0  0  0
   35.7760   29.9720   47.9560 C   0  0  0  0  0  0  0  0  0  0  0  0
   34.5550   29.5700   47.5630 N   0  0  0  0  0  0  0  0  0  0  0  0
   33.8530   27.5890   50.0940 H   0  0  0  0  0  0  0  0  0  0  0  0
   36.0710   28.3190   50.8070 H   0  0  0  0  0  0  0  0  0  0  0  0
   36.3100   30.6650   47.3150 H   0  0  0  0  0  0  0  0  0  0  0  0
   31.6140   27.5080   48.5690 C   0  0  0  0  0  0  0  0  0  0  0  0
   32.5030   28.3030   47.8320 C   0  0  0  0  0  0  0  0  0  0  0  0
   32.0450   28.6920   46.5930 C   0  0  0  0  0  0  0  0  0  0  0  0
   30.8210   28.3210   46.1420 N   0  0  0  0  0  0  0  0  0  0  0  0
   30.0140   27.5460   46.9170 C   0  0  0  0  0  0  0  0  0  0  0  0
   30.4020   27.1370   48.1270 N   0  0  0  0  0  0  0  0  0  0  0  0
   31.9280   27.1750   49.5490 H   0  0  0  0  0  0  0  0  0  0  0  0
   32.7030   29.3180   45.9720 H   0  0  0  0  0  0  0  0  0  0  0  0
   29.0840   27.3410   46.4190 H   0  0  0  0  0  0  0  0  0  0  0  0
   37.6320   30.0240   49.4370 O   0  0  0  0  0  0  0  0  0  0  0  0
   38.2210   31.0220   48.6750 C   0  0  0  0  0  0  0  0  0  0  0  0
   38.2890   32.2600   49.3190 C   0  0  0  0  0  0  0  0  0  0  0  0
   38.9010   33.1370   48.4260 C   0  0  0  0  0  0  0  0  0  0  0  0
   39.1690   32.4310   47.3220 N   0  0  0  0  0  0  0  0  0  0  0  0
   38.7750   31.1900   47.4580 N   0  0  0  0  0  0  0  0  0  0  0  0
   37.9910   32.6480   50.2840 H   0  0  0  0  0  0  0  0  0  0  0  0
   39.1350   34.2000   48.5560 H   0  0  0  0  0  0  0  0  0  0  0  0
   39.8130   32.9830   46.1400 C   0  0  0  0  0  0  0  0  0  0  0  0
   40.8420   32.1550   45.7000 F   0  0  0  0  0  0  0  0  0  0  0  0
   40.3770   34.2010   46.3780 F   0  0  0  0  0  0  0  0  0  0  0  0
   38.9080   33.0550   45.0950 F   0  0  0  0  0  0  0  0  0  0  0  0
  1  2  1  0  0  0  0
  2  3  2  0  0  0  0
  2  7  1  0  0  0  0
  3  8  1  0  0  0  0
  4 19  1  0  0  0  0
  4  3  1  0  0  0  0
  5  4  2  0  0  0  0
  6  5  1  0  0  0  0
  6  1  2  0  0  0  0
  9  5  1  0  0  0  0
 10 16  1  0  0  0  0
 11  1  1  0  0  0  0
 11 10  2  0  0  0  0
 12 11  1  0  0  0  0
 13 12  2  0  0  0  0
 13 14  1  0  0  0  0
 14 15  2  0  0  0  0
 15 10  1  0  0  0  0
 17 12  1  0  0  0  0
 18 14  1  0  0  0  0
 20 21  1  0  0  0  0
 20 19  1  0  0  0  0
 21 25  1  0  0  0  0
 22 26  1  0  0  0  0
 22 21  2  0  0  0  0
 23 24  1  0  0  0  0
 23 22  1  0  0  0  0
 24 20  2  0  0  0  0
 27 29  1  0  0  0  0
 27 23  1  0  0  0  0
 28 27  1  0  0  0  0
 30 27  1  0  0  0  0
M  END
>  <minimizedAffinity>
-6.05837393

>  <minimizedRMSD>
0.794862032

$$$$
