
 OpenBabel03272510113D

 30 32  0  0  0  0  0  0  0  0999 V2000
   33.0260   28.5950   47.8310 C   0  0  0  0  0  0  0  0  0  0  0  0
   33.4970   28.0910   48.9920 C   0  0  0  0  0  0  0  0  0  0  0  0
   34.7720   28.3040   49.4800 C   0  0  0  0  0  0  0  0  0  0  0  0
   35.6460   29.0710   48.7710 C   0  0  0  0  0  0  0  0  0  0  0  0
   35.1560   29.5940   47.5640 C   0  0  0  0  0  0  0  0  0  0  0  0
   33.9040   29.3560   47.1350 N   0  0  0  0  0  0  0  0  0  0  0  0
   32.8810   27.4700   49.6280 H   0  0  0  0  0  0  0  0  0  0  0  0
   35.1530   27.9030   50.4080 H   0  0  0  0  0  0  0  0  0  0  0  0
   35.7920   30.2150   46.9440 H   0  0  0  0  0  0  0  0  0  0  0  0
   30.8060   27.4210   47.8660 C   0  0  0  0  0  0  0  0  0  0  0  0
   31.6990   28.3640   47.3360 C   0  0  0  0  0  0  0  0  0  0  0  0
   31.2150   29.0890   46.2700 C   0  0  0  0  0  0  0  0  0  0  0  0
   29.9640   28.8870   45.7870 N   0  0  0  0  0  0  0  0  0  0  0  0
   29.1550   27.9520   46.3540 C   0  0  0  0  0  0  0  0  0  0  0  0
   29.5670   27.2180   47.3900 N   0  0  0  0  0  0  0  0  0  0  0  0
   31.1390   26.8260   48.7050 H   0  0  0  0  0  0  0  0  0  0  0  0
   31.8750   29.8430   45.8160 H   0  0  0  0  0  0  0  0  0  0  0  0
   28.2030   27.9140   45.8590 H   0  0  0  0  0  0  0  0  0  0  0  0
   36.9600   29.3970   49.0950 O   0  0  0  0  0  0  0  0  0  0  0  0
   37.3790   30.7120   49.2380 C   0  0  0  0  0  0  0  0  0  0  0  0
   36.5110   31.5050   49.9920 C   0  0  0  0  0  0  0  0  0  0  0  0
   37.0750   32.7780   50.0350 C   0  0  0  0  0  0  0  0  0  0  0  0
   38.2140   32.7140   49.3370 N   0  0  0  0  0  0  0  0  0  0  0  0
   38.4010   31.5070   48.8660 N   0  0  0  0  0  0  0  0  0  0  0  0
   35.5710   31.3510   50.5050 H   0  0  0  0  0  0  0  0  0  0  0  0
   36.6980   33.6820   50.5290 H   0  0  0  0  0  0  0  0  0  0  0  0
   39.1110   33.8420   49.1390 C   0  0  0  0  0  0  0  0  0  0  0  0
   39.8980   33.6600   48.0070 F   0  0  0  0  0  0  0  0  0  0  0  0
   39.9730   34.0090   50.1820 F   0  0  0  0  0  0  0  0  0  0  0  0
   38.3800   34.9970   48.9160 F   0  0  0  0  0  0  0  0  0  0  0  0
  1  2  1  0  0  0  0
  2  3  2  0  0  0  0
  2  7  1  0  0  0  0
  3  8  1  0  0  0  0
  4 19  1  0  0  0  0
  4  3  1  0  0  0  0
  5  4  2  0  0  0  0
  6  5  1  0  0  0  0
  6  1  2  0  0  0  0
  9  5  1  0  0  0  0
 10 16  1  0  0  0  0
 11  1  1  0  0  0  0
 11 10  2  0  0  0  0
 12 11  1  0  0  0  0
 13 12  2  0  0  0  0
 13 14  1  0  0  0  0
 14 15  2  0  0  0  0
 15 10  1  0  0  0  0
 17 12  1  0  0  0  0
 18 14  1  0  0  0  0
 19 20  1  0  0  0  0
 20 21  1  0  0  0  0
 21 22  2  0  0  0  0
 21 25  1  0  0  0  0
 22 26  1  0  0  0  0
 23 22  1  0  0  0  0
 24 20  2  0  0  0  0
 24 23  1  0  0  0  0
 27 23  1  0  0  0  0
 27 29  1  0  0  0  0
 28 27  1  0  0  0  0
 30 27  1  0  0  0  0
M  END
>  <minimizedAffinity>
-5.32494116

>  <minimizedRMSD>
1.48595214

$$$$
