
 OpenBabel03272509423D

 33 34  0  0  1  0  0  0  0  0999 V2000
   37.0820   30.9390   49.0620 C   0  0  0  0  0  0  0  0  0  0  0  0
   36.8040   31.8720   50.0590 C   0  0  0  0  0  0  0  0  0  0  0  0
   37.3980   33.1270   50.0710 C   0  0  0  0  0  0  0  0  0  0  0  0
   38.2980   33.4740   49.0600 C   0  0  0  0  0  0  0  0  0  0  0  0
   38.5600   32.5460   48.0870 C   0  0  0  0  0  0  0  0  0  0  0  0
   37.9490   31.3010   48.1090 C   0  0  0  0  0  0  0  0  0  0  0  0
   36.0990   31.5980   50.8470 H   0  0  0  0  0  0  0  0  0  0  0  0
   37.1250   33.7760   50.8760 H   0  0  0  0  0  0  0  0  0  0  0  0
   38.7210   34.4670   49.1320 H   0  0  0  0  0  0  0  0  0  0  0  0
   39.2780   32.9560   47.3700 H   0  0  0  0  0  0  0  0  0  0  0  0
   36.4870   29.6200   49.0650 C   0  0  2  0  0  0  0  0  0  0  0  0
   36.9900   29.0650   48.1820 H   0  0  0  0  0  0  0  0  0  0  0  0
   33.6270   29.9610   46.8510 C   0  0  0  0  0  0  0  0  0  0  0  0
   32.8820   28.8250   47.0800 C   0  0  0  0  0  0  0  0  0  0  0  0
   33.3250   27.9430   48.0540 C   0  0  0  0  0  0  0  0  0  0  0  0
   34.4790   28.2290   48.7490 N   0  0  0  0  0  0  0  0  0  0  0  0
   35.1460   29.3330   48.4810 C   0  0  0  0  0  0  0  0  0  0  0  0
   34.7280   30.2070   47.5340 N   0  0  0  0  0  0  0  0  0  0  0  0
   33.2370   30.6140   46.0820 H   0  0  0  0  0  0  0  0  0  0  0  0
   31.9720   28.5140   46.5890 H   0  0  0  0  0  0  0  0  0  0  0  0
   32.8810   27.0060   48.3790 H   0  0  0  0  0  0  0  0  0  0  0  0
   36.9570   28.8650   49.9950 O   0  0  0  0  0  0  0  0  0  0  0  0
   36.7130   28.9810   50.9400 H   0  0  0  0  0  0  0  0  0  0  0  0
   38.3470   30.4090   47.0450 C   0  0  0  0  0  3  0  0  0  0  0  0
   38.6860   30.8200   45.8170 C   0  0  0  0  0  3  0  0  0  0  0  0
   39.1550   30.0060   44.6710 C   0  0  0  0  0  0  0  0  0  0  0  0
   38.2940   29.6560   44.0480 H   0  0  0  0  0  0  0  0  0  0  0  0
   39.6160   29.0790   45.0860 H   0  0  0  0  0  0  0  0  0  0  0  0
   40.3720   30.9280   43.7280 S   0  0  0  0  0  0  0  0  0  0  0  0
   40.7500   30.0570   42.1690 C   0  0  0  0  0  0  0  0  0  0  0  0
   40.8640   31.0220   41.1690 F   0  0  0  0  0  0  0  0  0  0  0  0
   39.6750   29.2220   41.8260 F   0  0  0  0  0  0  0  0  0  0  0  0
   41.9030   29.3320   42.2580 F   0  0  0  0  0  0  0  0  0  0  0  0
  1 11  1  0  0  0  0
  1  2  1  0  0  0  0
  2  3  2  0  0  0  0
  2  7  1  0  0  0  0
  3  8  1  0  0  0  0
  4  9  1  0  0  0  0
  4  3  1  0  0  0  0
  5  6  1  0  0  0  0
  5  4  2  0  0  0  0
  6  1  2  0  0  0  0
 10  5  1  0  0  0  0
 11 12  1  6  0  0  0
 11 22  1  0  0  0  0
 13 14  2  0  0  0  0
 13 18  1  0  0  0  0
 14 15  1  0  0  0  0
 15 21  1  0  0  0  0
 15 16  2  0  0  0  0
 17 16  1  0  0  0  0
 17 11  1  0  0  0  0
 18 17  2  0  0  0  0
 19 13  1  0  0  0  0
 20 14  1  0  0  0  0
 22 23  1  0  0  0  0
 24  6  1  0  0  0  0
 25 24  2  0  0  0  0
 26 28  1  0  0  0  0
 26 25  1  0  0  0  0
 27 26  1  0  0  0  0
 29 26  1  0  0  0  0
 30 33  1  0  0  0  0
 30 29  1  0  0  0  0
 31 30  1  0  0  0  0
 32 30  1  0  0  0  0
M  END
>  <minimizedAffinity>
-5.75240326

>  <minimizedRMSD>
0.568119168

$$$$
