
 OpenBabel03262522343D

 35 37  0  0  0  0  0  0  0  0999 V2000
   35.5810   29.9640   33.3460 C   0  0  0  0  0  0  0  0  0  0  0  0
   36.0440   30.6750   32.2900 C   0  0  0  0  0  0  0  0  0  0  0  0
   36.5490   30.1300   31.1380 C   0  0  0  0  0  0  0  0  0  0  0  0
   36.6110   28.7570   30.9960 C   0  0  0  0  0  0  0  0  0  0  0  0
   36.1390   28.0300   32.0680 C   0  0  0  0  0  0  0  0  0  0  0  0
   35.6580   28.6320   33.1670 N   0  0  0  0  0  0  0  0  0  0  0  0
   36.0340   31.7740   32.3150 H   0  0  0  0  0  0  0  0  0  0  0  0
   36.9060   30.7370   30.3260 H   0  0  0  0  0  0  0  0  0  0  0  0
   37.0010   28.3010   30.1100 H   0  0  0  0  0  0  0  0  0  0  0  0
   37.1770   25.8720   32.5940 C   0  0  0  0  0  0  0  0  0  0  0  0
   36.1680   26.5840   31.9450 C   0  0  0  0  0  0  0  0  0  0  0  0
   35.2520   25.8820   31.2020 C   0  0  0  0  0  0  0  0  0  0  0  0
   35.2580   24.5080   31.0490 C   0  0  0  0  0  0  0  0  0  0  0  0
   36.2340   23.7840   31.6700 C   0  0  0  0  0  0  0  0  0  0  0  0
   37.1480   24.4860   32.4130 C   0  0  0  0  0  0  0  0  0  0  0  0
   34.4620   26.4800   30.7000 H   0  0  0  0  0  0  0  0  0  0  0  0
   34.5080   24.0250   30.4530 H   0  0  0  0  0  0  0  0  0  0  0  0
   36.2840   22.7200   31.5840 H   0  0  0  0  0  0  0  0  0  0  0  0
   37.9280   23.8660   32.9050 H   0  0  0  0  0  0  0  0  0  0  0  0
   38.4320   26.5840   33.5380 S   0  0  0  0  0  0  0  0  0  0  0  0
   39.3590   25.4160   33.8970 O   0  0  0  0  0  0  0  0  0  0  0  0
   39.3010   27.4640   32.7100 O   0  0  0  0  0  0  0  0  0  0  0  0
   38.0910   27.0840   35.1750 C   0  0  0  0  0  0  0  0  0  0  0  0
   37.5370   26.0030   35.8520 F   0  0  0  0  0  0  0  0  0  0  0  0
   37.5400   28.2770   35.4080 F   0  0  0  0  0  0  0  0  0  0  0  0
   39.3170   27.2200   35.8940 F   0  0  0  0  0  0  0  0  0  0  0  0
   35.8140   31.2410   35.4980 C   0  0  0  0  0  0  0  0  0  0  0  0
   35.0390   30.5530   34.5440 C   0  0  0  0  0  0  0  0  0  0  0  0
   33.6480   30.4410   34.7620 C   0  0  0  0  0  0  0  0  0  0  0  0
   33.1310   31.0120   35.8970 N   0  0  0  0  0  0  0  0  0  0  0  0
   33.9350   31.6690   36.7900 C   0  0  0  0  0  0  0  0  0  0  0  0
   35.2490   31.7810   36.5940 N   0  0  0  0  0  0  0  0  0  0  0  0
   36.8680   31.3030   35.2940 H   0  0  0  0  0  0  0  0  0  0  0  0
   33.0010   29.9320   34.0780 H   0  0  0  0  0  0  0  0  0  0  0  0
   33.4410   32.0900   37.6600 H   0  0  0  0  0  0  0  0  0  0  0  0
  1 28  1  0  0  0  0
  2  7  1  0  0  0  0
  2  1  2  0  0  0  0
  3  2  1  0  0  0  0
  4  3  2  0  0  0  0
  4  5  1  0  0  0  0
  5  6  2  0  0  0  0
  6  1  1  0  0  0  0
  8  3  1  0  0  0  0
  9  4  1  0  0  0  0
 10 20  1  0  0  0  0
 11  5  1  0  0  0  0
 11 10  2  0  0  0  0
 12 11  1  0  0  0  0
 13 12  2  0  0  0  0
 13 14  1  0  0  0  0
 14 15  2  0  0  0  0
 15 10  1  0  0  0  0
 15 19  1  0  0  0  0
 16 12  1  0  0  0  0
 17 13  1  0  0  0  0
 18 14  1  0  0  0  0
 20 21  2  0  0  0  0
 20 23  1  0  0  0  0
 22 20  2  0  0  0  0
 23 25  1  0  0  0  0
 23 24  1  0  0  0  0
 23 26  1  0  0  0  0
 27 32  1  0  0  0  0
 28 29  1  0  0  0  0
 28 27  2  0  0  0  0
 29 30  2  0  0  0  0
 30 31  1  0  0  0  0
 31 35  1  0  0  0  0
 32 31  2  0  0  0  0
 33 27  1  0  0  0  0
 34 29  1  0  0  0  0
M  END
>  <minimizedAffinity>
-6.14474964

$$$$

 OpenBabel03262522343D

 35 37  0  0  0  0  0  0  0  0999 V2000
   36.3450   23.7570   31.6540 C   0  0  0  0  0  0  0  0  0  0  0  0
   35.3840   24.6120   31.2290 C   0  0  0  0  0  0  0  0  0  0  0  0
   35.5120   25.9760   31.1800 C   0  0  0  0  0  0  0  0  0  0  0  0
   36.6940   26.5700   31.5840 C   0  0  0  0  0  0  0  0  0  0  0  0
   37.6740   25.7020   32.0160 C   0  0  0  0  0  0  0  0  0  0  0  0
   37.4780   24.3760   32.0370 N   0  0  0  0  0  0  0  0  0  0  0  0
   34.4120   24.2280   30.8880 H   0  0  0  0  0  0  0  0  0  0  0  0
   34.7200   26.6140   30.8350 H   0  0  0  0  0  0  0  0  0  0  0  0
   36.8250   27.6320   31.5600 H   0  0  0  0  0  0  0  0  0  0  0  0
   39.1820   26.4730   33.7890 C   0  0  0  0  0  0  0  0  0  0  0  0
   38.9360   26.2910   32.4270 C   0  0  0  0  0  0  0  0  0  0  0  0
   39.8960   26.6920   31.5330 C   0  0  0  0  0  0  0  0  0  0  0  0
   41.1010   27.2690   31.8870 C   0  0  0  0  0  0  0  0  0  0  0  0
   41.3710   27.4630   33.2110 C   0  0  0  0  0  0  0  0  0  0  0  0
   40.4110   27.0610   34.1040 C   0  0  0  0  0  0  0  0  0  0  0  0
   39.6680   26.5300   30.4580 H   0  0  0  0  0  0  0  0  0  0  0  0
   41.8080   27.5580   31.1320 H   0  0  0  0  0  0  0  0  0  0  0  0
   42.2870   27.9060   33.5380 H   0  0  0  0  0  0  0  0  0  0  0  0
   40.6630   27.2340   35.1720 H   0  0  0  0  0  0  0  0  0  0  0  0
   38.0810   26.0670   35.0510 S   0  0  0  0  0  0  0  0  0  0  0  0
   38.6280   26.7860   36.2900 O   0  0  0  0  0  0  0  0  0  0  0  0
   36.7550   26.7100   34.8430 O   0  0  0  0  0  0  0  0  0  0  0  0
   38.1080   24.4550   35.7210 C   0  0  0  0  0  0  0  0  0  0  0  0
   39.3130   24.2860   36.3950 F   0  0  0  0  0  0  0  0  0  0  0  0
   37.6850   23.4210   34.9920 F   0  0  0  0  0  0  0  0  0  0  0  0
   37.2010   24.3850   36.8220 F   0  0  0  0  0  0  0  0  0  0  0  0
   35.1350   21.6590   32.3250 C   0  0  0  0  0  0  0  0  0  0  0  0
   36.1980   22.3240   31.6830 C   0  0  0  0  0  0  0  0  0  0  0  0
   37.1740   21.5480   31.0190 C   0  0  0  0  0  0  0  0  0  0  0  0
   37.0270   20.1840   31.0390 N   0  0  0  0  0  0  0  0  0  0  0  0
   35.9710   19.5940   31.6800 C   0  0  0  0  0  0  0  0  0  0  0  0
   35.0440   20.3160   32.3100 N   0  0  0  0  0  0  0  0  0  0  0  0
   34.4150   22.2870   32.8190 H   0  0  0  0  0  0  0  0  0  0  0  0
   38.0070   21.9880   30.5120 H   0  0  0  0  0  0  0  0  0  0  0  0
   35.9350   18.5090   31.6440 H   0  0  0  0  0  0  0  0  0  0  0  0
  1 28  1  0  0  0  0
  1  6  1  0  0  0  0
  2  1  2  0  0  0  0
  3  2  1  0  0  0  0
  3  4  2  0  0  0  0
  4  5  1  0  0  0  0
  5  6  2  0  0  0  0
  5 11  1  0  0  0  0
  7  2  1  0  0  0  0
  8  3  1  0  0  0  0
  9  4  1  0  0  0  0
 10 15  1  0  0  0  0
 10 20  1  0  0  0  0
 11 10  2  0  0  0  0
 12 13  2  0  0  0  0
 12 11  1  0  0  0  0
 13 14  1  0  0  0  0
 14 18  1  0  0  0  0
 14 15  2  0  0  0  0
 15 19  1  0  0  0  0
 16 12  1  0  0  0  0
 17 13  1  0  0  0  0
 20 23  1  0  0  0  0
 20 21  2  0  0  0  0
 22 20  2  0  0  0  0
 23 24  1  0  0  0  0
 23 26  1  0  0  0  0
 25 23  1  0  0  0  0
 27 33  1  0  0  0  0
 28 27  2  0  0  0  0
 29 30  2  0  0  0  0
 29 28  1  0  0  0  0
 30 31  1  0  0  0  0
 31 32  2  0  0  0  0
 32 27  1  0  0  0  0
 34 29  1  0  0  0  0
 35 31  1  0  0  0  0
M  END
>  <minimizedAffinity>
-5.85684776

$$$$

 OpenBabel03262522343D

 35 37  0  0  0  0  0  0  0  0999 V2000
   37.3380   25.1230   32.7340 C   0  0  0  0  0  0  0  0  0  0  0  0
   36.7850   24.0280   32.1580 C   0  0  0  0  0  0  0  0  0  0  0  0
   37.2520   22.7470   32.2980 C   0  0  0  0  0  0  0  0  0  0  0  0
   38.3680   22.5040   33.0770 C   0  0  0  0  0  0  0  0  0  0  0  0
   38.9320   23.6150   33.6650 C   0  0  0  0  0  0  0  0  0  0  0  0
   38.4200   24.8420   33.4830 N   0  0  0  0  0  0  0  0  0  0  0  0
   35.8940   24.1270   31.5220 H   0  0  0  0  0  0  0  0  0  0  0  0
   36.7790   21.9100   31.8190 H   0  0  0  0  0  0  0  0  0  0  0  0
   38.7580   21.5150   33.2050 H   0  0  0  0  0  0  0  0  0  0  0  0
   39.9150   23.2790   35.8870 C   0  0  0  0  0  0  0  0  0  0  0  0
   40.0940   23.3930   34.5080 C   0  0  0  0  0  0  0  0  0  0  0  0
   41.3690   23.3040   34.0080 C   0  0  0  0  0  0  0  0  0  0  0  0
   42.4980   23.1090   34.7800 C   0  0  0  0  0  0  0  0  0  0  0  0
   42.3570   22.9960   36.1320 C   0  0  0  0  0  0  0  0  0  0  0  0
   41.0820   23.0840   36.6310 C   0  0  0  0  0  0  0  0  0  0  0  0
   41.4740   23.3970   32.9060 H   0  0  0  0  0  0  0  0  0  0  0  0
   43.4660   23.0480   34.3200 H   0  0  0  0  0  0  0  0  0  0  0  0
   43.1980   22.8450   36.7740 H   0  0  0  0  0  0  0  0  0  0  0  0
   41.0030   22.9880   37.7350 H   0  0  0  0  0  0  0  0  0  0  0  0
   38.3970   23.4020   36.6950 S   0  0  0  0  0  0  0  0  0  0  0  0
   37.8510   24.7770   36.2920 O   0  0  0  0  0  0  0  0  0  0  0  0
   37.3990   22.4580   36.1210 O   0  0  0  0  0  0  0  0  0  0  0  0
   38.3680   23.6670   38.4200 C   0  0  0  0  0  0  0  0  0  0  0  0
   37.7590   24.8950   38.6600 F   0  0  0  0  0  0  0  0  0  0  0  0
   39.4430   23.3840   39.1590 F   0  0  0  0  0  0  0  0  0  0  0  0
   37.4060   22.7970   39.0170 F   0  0  0  0  0  0  0  0  0  0  0  0
   36.7540   27.3920   33.6430 C   0  0  0  0  0  0  0  0  0  0  0  0
   36.8240   26.4610   32.5880 C   0  0  0  0  0  0  0  0  0  0  0  0
   36.3770   26.8600   31.3090 C   0  0  0  0  0  0  0  0  0  0  0  0
   35.8990   28.1380   31.1690 N   0  0  0  0  0  0  0  0  0  0  0  0
   35.8540   28.9990   32.2330 C   0  0  0  0  0  0  0  0  0  0  0  0
   36.2730   28.6340   33.4450 N   0  0  0  0  0  0  0  0  0  0  0  0
   37.1030   27.0480   34.6010 H   0  0  0  0  0  0  0  0  0  0  0  0
   36.4030   26.2040   30.4640 H   0  0  0  0  0  0  0  0  0  0  0  0
   35.4610   29.9900   32.0300 H   0  0  0  0  0  0  0  0  0  0  0  0
  1  6  1  0  0  0  0
  2  3  1  0  0  0  0
  2  1  2  0  0  0  0
  3  4  2  0  0  0  0
  4  9  1  0  0  0  0
  4  5  1  0  0  0  0
  5 11  1  0  0  0  0
  6  5  2  0  0  0  0
  7  2  1  0  0  0  0
  8  3  1  0  0  0  0
 10 15  1  0  0  0  0
 10 20  1  0  0  0  0
 11 10  2  0  0  0  0
 12 11  1  0  0  0  0
 12 13  2  0  0  0  0
 13 14  1  0  0  0  0
 14 15  2  0  0  0  0
 14 18  1  0  0  0  0
 15 19  1  0  0  0  0
 16 12  1  0  0  0  0
 17 13  1  0  0  0  0
 20 23  1  0  0  0  0
 21 20  2  0  0  0  0
 22 20  2  0  0  0  0
 23 24  1  0  0  0  0
 23 26  1  0  0  0  0
 23 25  1  0  0  0  0
 27 33  1  0  0  0  0
 28  1  1  0  0  0  0
 28 27  2  0  0  0  0
 29 28  1  0  0  0  0
 30 29  2  0  0  0  0
 30 31  1  0  0  0  0
 31 32  2  0  0  0  0
 32 27  1  0  0  0  0
 34 29  1  0  0  0  0
 35 31  1  0  0  0  0
M  END
>  <minimizedAffinity>
-5.72598743

$$$$

 OpenBabel03262522343D

 35 37  0  0  0  0  0  0  0  0999 V2000
   37.6570   22.1490   35.0630 C   0  0  0  0  0  0  0  0  0  0  0  0
   37.0850   22.3630   36.2720 C   0  0  0  0  0  0  0  0  0  0  0  0
   37.6730   23.0390   37.3100 C   0  0  0  0  0  0  0  0  0  0  0  0
   38.9440   23.5600   37.1580 C   0  0  0  0  0  0  0  0  0  0  0  0
   39.5280   23.3460   35.9280 C   0  0  0  0  0  0  0  0  0  0  0  0
   38.8920   22.6730   34.9570 N   0  0  0  0  0  0  0  0  0  0  0  0
   36.0750   21.9840   36.4820 H   0  0  0  0  0  0  0  0  0  0  0  0
   37.1780   23.1820   38.2530 H   0  0  0  0  0  0  0  0  0  0  0  0
   39.4300   24.0920   37.9500 H   0  0  0  0  0  0  0  0  0  0  0  0
   40.9910   25.0740   34.9870 C   0  0  0  0  0  0  0  0  0  0  0  0
   40.8550   23.8990   35.7270 C   0  0  0  0  0  0  0  0  0  0  0  0
   41.9900   23.3080   36.2230 C   0  0  0  0  0  0  0  0  0  0  0  0
   43.2700   23.7970   36.0380 C   0  0  0  0  0  0  0  0  0  0  0  0
   43.4360   24.9430   35.3170 C   0  0  0  0  0  0  0  0  0  0  0  0
   42.3010   25.5340   34.8230 C   0  0  0  0  0  0  0  0  0  0  0  0
   41.8450   22.3760   36.8090 H   0  0  0  0  0  0  0  0  0  0  0  0
   44.1130   23.2820   36.4570 H   0  0  0  0  0  0  0  0  0  0  0  0
   44.4030   25.3620   35.1440 H   0  0  0  0  0  0  0  0  0  0  0  0
   42.4720   26.4640   34.2400 H   0  0  0  0  0  0  0  0  0  0  0  0
   39.6860   25.9340   34.2570 S   0  0  0  0  0  0  0  0  0  0  0  0
   40.3080   27.2520   33.7810 O   0  0  0  0  0  0  0  0  0  0  0  0
   39.2510   25.2860   32.9900 O   0  0  0  0  0  0  0  0  0  0  0  0
   38.4560   26.6410   35.2730 C   0  0  0  0  0  0  0  0  0  0  0  0
   39.0880   27.3300   36.3040 F   0  0  0  0  0  0  0  0  0  0  0  0
   37.3760   25.9330   35.6080 F   0  0  0  0  0  0  0  0  0  0  0  0
   37.8470   27.7350   34.5870 F   0  0  0  0  0  0  0  0  0  0  0  0
   35.8190   20.7220   34.1130 C   0  0  0  0  0  0  0  0  0  0  0  0
   37.0180   21.4490   33.9780 C   0  0  0  0  0  0  0  0  0  0  0  0
   37.6270   21.5100   32.7050 C   0  0  0  0  0  0  0  0  0  0  0  0
   37.0120   20.8530   31.6700 N   0  0  0  0  0  0  0  0  0  0  0  0
   35.8470   20.1610   31.8620 C   0  0  0  0  0  0  0  0  0  0  0  0
   35.2620   20.0960   33.0590 N   0  0  0  0  0  0  0  0  0  0  0  0
   35.3890   20.6990   35.0990 H   0  0  0  0  0  0  0  0  0  0  0  0
   38.5370   22.0460   32.5310 H   0  0  0  0  0  0  0  0  0  0  0  0
   35.4300   19.6710   30.9870 H   0  0  0  0  0  0  0  0  0  0  0  0
  1  2  1  0  0  0  0
  2  7  1  0  0  0  0
  2  3  2  0  0  0  0
  3  8  1  0  0  0  0
  4  3  1  0  0  0  0
  4  9  1  0  0  0  0
  5  4  2  0  0  0  0
  6  1  2  0  0  0  0
  6  5  1  0  0  0  0
 10 11  1  0  0  0  0
 11  5  1  0  0  0  0
 11 12  2  0  0  0  0
 12 16  1  0  0  0  0
 13 12  1  0  0  0  0
 13 17  1  0  0  0  0
 14 13  2  0  0  0  0
 15 10  2  0  0  0  0
 15 14  1  0  0  0  0
 18 14  1  0  0  0  0
 19 15  1  0  0  0  0
 20 10  1  0  0  0  0
 20 23  1  0  0  0  0
 21 20  2  0  0  0  0
 22 20  2  0  0  0  0
 23 25  1  0  0  0  0
 23 24  1  0  0  0  0
 26 23  1  0  0  0  0
 27 33  1  0  0  0  0
 28 27  1  0  0  0  0
 28  1  1  0  0  0  0
 29 28  2  0  0  0  0
 30 31  2  0  0  0  0
 30 29  1  0  0  0  0
 31 32  1  0  0  0  0
 32 27  2  0  0  0  0
 34 29  1  0  0  0  0
 35 31  1  0  0  0  0
M  END
>  <minimizedAffinity>
-5.57658386

$$$$

 OpenBabel03262522343D

 35 37  0  0  0  0  0  0  0  0999 V2000
   38.0130   21.6650   32.7980 C   0  0  0  0  0  0  0  0  0  0  0  0
   39.3030   21.3410   32.5380 C   0  0  0  0  0  0  0  0  0  0  0  0
   40.3850   22.1320   32.8280 C   0  0  0  0  0  0  0  0  0  0  0  0
   40.1950   23.3610   33.4310 C   0  0  0  0  0  0  0  0  0  0  0  0
   38.8850   23.6930   33.6990 C   0  0  0  0  0  0  0  0  0  0  0  0
   37.8740   22.8680   33.3860 N   0  0  0  0  0  0  0  0  0  0  0  0
   39.5470   20.3820   32.0600 H   0  0  0  0  0  0  0  0  0  0  0  0
   41.3900   21.8310   32.6010 H   0  0  0  0  0  0  0  0  0  0  0  0
   41.0190   24.0020   33.6690 H   0  0  0  0  0  0  0  0  0  0  0  0
   38.4810   24.9950   35.7370 C   0  0  0  0  0  0  0  0  0  0  0  0
   38.6510   24.9680   34.3520 C   0  0  0  0  0  0  0  0  0  0  0  0
   38.5760   26.1530   33.6640 C   0  0  0  0  0  0  0  0  0  0  0  0
   38.3400   27.3830   34.2500 C   0  0  0  0  0  0  0  0  0  0  0  0
   38.1670   27.4420   35.6020 C   0  0  0  0  0  0  0  0  0  0  0  0
   38.2430   26.2570   36.2890 C   0  0  0  0  0  0  0  0  0  0  0  0
   38.7190   26.0950   32.5650 H   0  0  0  0  0  0  0  0  0  0  0  0
   38.2960   28.2710   33.6490 H   0  0  0  0  0  0  0  0  0  0  0  0
   37.9810   28.3670   36.1040 H   0  0  0  0  0  0  0  0  0  0  0  0
   38.0970   26.3420   37.3870 H   0  0  0  0  0  0  0  0  0  0  0  0
   38.5050   23.6070   36.7580 S   0  0  0  0  0  0  0  0  0  0  0  0
   38.3160   24.1630   38.1750 O   0  0  0  0  0  0  0  0  0  0  0  0
   37.2940   22.7650   36.5600 O   0  0  0  0  0  0  0  0  0  0  0  0
   40.0200   22.7940   37.0580 C   0  0  0  0  0  0  0  0  0  0  0  0
   40.0550   21.6400   36.2830 F   0  0  0  0  0  0  0  0  0  0  0  0
   40.4860   22.6860   38.3040 F   0  0  0  0  0  0  0  0  0  0  0  0
   41.0810   23.5290   36.4480 F   0  0  0  0  0  0  0  0  0  0  0  0
   35.5480   21.2450   32.5470 C   0  0  0  0  0  0  0  0  0  0  0  0
   36.8890   20.8150   32.5010 C   0  0  0  0  0  0  0  0  0  0  0  0
   37.1530   19.4780   32.1310 C   0  0  0  0  0  0  0  0  0  0  0  0
   36.0830   18.6720   31.8370 N   0  0  0  0  0  0  0  0  0  0  0  0
   34.8000   19.1460   31.9000 C   0  0  0  0  0  0  0  0  0  0  0  0
   34.5380   20.4060   32.2480 N   0  0  0  0  0  0  0  0  0  0  0  0
   35.3900   22.2690   32.8340 H   0  0  0  0  0  0  0  0  0  0  0  0
   38.1480   19.0860   32.0750 H   0  0  0  0  0  0  0  0  0  0  0  0
   34.0150   18.4390   31.6510 H   0  0  0  0  0  0  0  0  0  0  0  0
  1  6  1  0  0  0  0
  2  1  2  0  0  0  0
  2  3  1  0  0  0  0
  3  4  2  0  0  0  0
  4  9  1  0  0  0  0
  4  5  1  0  0  0  0
  5 11  1  0  0  0  0
  6  5  2  0  0  0  0
  7  2  1  0  0  0  0
  8  3  1  0  0  0  0
 10 15  1  0  0  0  0
 10 20  1  0  0  0  0
 11 10  2  0  0  0  0
 12 13  2  0  0  0  0
 12 11  1  0  0  0  0
 13 14  1  0  0  0  0
 14 18  1  0  0  0  0
 14 15  2  0  0  0  0
 15 19  1  0  0  0  0
 16 12  1  0  0  0  0
 17 13  1  0  0  0  0
 20 23  1  0  0  0  0
 20 21  2  0  0  0  0
 22 20  2  0  0  0  0
 23 25  1  0  0  0  0
 24 23  1  0  0  0  0
 26 23  1  0  0  0  0
 27 33  1  0  0  0  0
 28 27  1  0  0  0  0
 28  1  1  0  0  0  0
 29 28  2  0  0  0  0
 30 31  2  0  0  0  0
 30 29  1  0  0  0  0
 31 32  1  0  0  0  0
 32 27  2  0  0  0  0
 34 29  1  0  0  0  0
 35 31  1  0  0  0  0
M  END
>  <minimizedAffinity>
-5.54146194

$$$$

 OpenBabel03262522343D

 35 37  0  0  0  0  0  0  0  0999 V2000
   36.5980   29.5350   30.2190 C   0  0  0  0  0  0  0  0  0  0  0  0
   35.8510   30.2010   31.1320 C   0  0  0  0  0  0  0  0  0  0  0  0
   35.1920   29.6180   32.1830 C   0  0  0  0  0  0  0  0  0  0  0  0
   35.2660   28.2490   32.3660 C   0  0  0  0  0  0  0  0  0  0  0  0
   36.0260   27.5690   31.4390 C   0  0  0  0  0  0  0  0  0  0  0  0
   36.6440   28.2070   30.4340 N   0  0  0  0  0  0  0  0  0  0  0  0
   35.7360   31.2920   31.0640 H   0  0  0  0  0  0  0  0  0  0  0  0
   34.6100   30.1890   32.8820 H   0  0  0  0  0  0  0  0  0  0  0  0
   34.7620   27.7640   33.1750 H   0  0  0  0  0  0  0  0  0  0  0  0
   37.1250   25.6360   32.4730 C   0  0  0  0  0  0  0  0  0  0  0  0
   36.1430   26.1320   31.6140 C   0  0  0  0  0  0  0  0  0  0  0  0
   35.3370   25.2360   30.9600 C   0  0  0  0  0  0  0  0  0  0  0  0
   35.4290   23.8630   31.0890 C   0  0  0  0  0  0  0  0  0  0  0  0
   36.3810   23.3450   31.9200 C   0  0  0  0  0  0  0  0  0  0  0  0
   37.1850   24.2430   32.5750 C   0  0  0  0  0  0  0  0  0  0  0  0
   34.5660   25.6660   30.2870 H   0  0  0  0  0  0  0  0  0  0  0  0
   34.7630   23.2200   30.5470 H   0  0  0  0  0  0  0  0  0  0  0  0
   36.4950   22.2910   32.0550 H   0  0  0  0  0  0  0  0  0  0  0  0
   37.9490   23.7880   33.2420 H   0  0  0  0  0  0  0  0  0  0  0  0
   38.2490   26.6060   33.3480 S   0  0  0  0  0  0  0  0  0  0  0  0
   39.2820   25.6100   33.8910 O   0  0  0  0  0  0  0  0  0  0  0  0
   39.0530   27.4630   32.4340 O   0  0  0  0  0  0  0  0  0  0  0  0
   37.7800   27.2760   34.8900 C   0  0  0  0  0  0  0  0  0  0  0  0
   37.2900   26.2420   35.6810 F   0  0  0  0  0  0  0  0  0  0  0  0
   37.1140   28.4310   34.9420 F   0  0  0  0  0  0  0  0  0  0  0  0
   38.9500   27.6170   35.6330 F   0  0  0  0  0  0  0  0  0  0  0  0
   37.1460   31.5250   28.7840 C   0  0  0  0  0  0  0  0  0  0  0  0
   37.2970   30.1670   29.1290 C   0  0  0  0  0  0  0  0  0  0  0  0
   38.1930   29.3770   28.3740 C   0  0  0  0  0  0  0  0  0  0  0  0
   38.8660   29.9830   27.3440 N   0  0  0  0  0  0  0  0  0  0  0  0
   38.6770   31.3070   27.0550 C   0  0  0  0  0  0  0  0  0  0  0  0
   37.8350   32.0630   27.7600 N   0  0  0  0  0  0  0  0  0  0  0  0
   36.4540   32.0890   29.3820 H   0  0  0  0  0  0  0  0  0  0  0  0
   38.3560   28.3400   28.5820 H   0  0  0  0  0  0  0  0  0  0  0  0
   39.2520   31.7030   26.2230 H   0  0  0  0  0  0  0  0  0  0  0  0
  1  6  2  0  0  0  0
  1  2  1  0  0  0  0
  2  3  2  0  0  0  0
  3  4  1  0  0  0  0
  3  8  1  0  0  0  0
  4  9  1  0  0  0  0
  5 11  1  0  0  0  0
  5  4  2  0  0  0  0
  6  5  1  0  0  0  0
  7  2  1  0  0  0  0
 10 15  1  0  0  0  0
 10 20  1  0  0  0  0
 11 10  2  0  0  0  0
 12 13  2  0  0  0  0
 12 11  1  0  0  0  0
 13 14  1  0  0  0  0
 14 18  1  0  0  0  0
 14 15  2  0  0  0  0
 15 19  1  0  0  0  0
 16 12  1  0  0  0  0
 17 13  1  0  0  0  0
 20 21  2  0  0  0  0
 20 23  1  0  0  0  0
 22 20  2  0  0  0  0
 23 25  1  0  0  0  0
 23 26  1  0  0  0  0
 23 24  1  0  0  0  0
 27 28  1  0  0  0  0
 27 33  1  0  0  0  0
 28  1  1  0  0  0  0
 29 34  1  0  0  0  0
 29 28  2  0  0  0  0
 30 29  1  0  0  0  0
 31 30  2  0  0  0  0
 31 32  1  0  0  0  0
 32 27  2  0  0  0  0
 35 31  1  0  0  0  0
M  END
>  <minimizedAffinity>
-5.52104807

$$$$

 OpenBabel03262522343D

 35 37  0  0  0  0  0  0  0  0999 V2000
   37.0140   23.7130   31.7310 C   0  0  0  0  0  0  0  0  0  0  0  0
   37.9890   23.8970   30.8080 C   0  0  0  0  0  0  0  0  0  0  0  0
   38.5110   25.1130   30.4490 C   0  0  0  0  0  0  0  0  0  0  0  0
   38.0390   26.2670   31.0470 C   0  0  0  0  0  0  0  0  0  0  0  0
   37.0490   26.0830   31.9870 C   0  0  0  0  0  0  0  0  0  0  0  0
   36.5840   24.8610   32.2880 N   0  0  0  0  0  0  0  0  0  0  0  0
   38.4240   23.0350   30.2820 H   0  0  0  0  0  0  0  0  0  0  0  0
   39.2850   25.2080   29.7100 H   0  0  0  0  0  0  0  0  0  0  0  0
   38.4260   27.2300   30.7880 H   0  0  0  0  0  0  0  0  0  0  0  0
   37.0070   27.5770   33.9310 C   0  0  0  0  0  0  0  0  0  0  0  0
   36.5450   27.2730   32.6500 C   0  0  0  0  0  0  0  0  0  0  0  0
   35.6200   28.1080   32.0760 C   0  0  0  0  0  0  0  0  0  0  0  0
   35.1070   29.2390   32.6830 C   0  0  0  0  0  0  0  0  0  0  0  0
   35.5370   29.5630   33.9370 C   0  0  0  0  0  0  0  0  0  0  0  0
   36.4620   28.7280   34.5090 C   0  0  0  0  0  0  0  0  0  0  0  0
   35.2760   27.8370   31.0560 H   0  0  0  0  0  0  0  0  0  0  0  0
   34.3850   29.8480   32.1730 H   0  0  0  0  0  0  0  0  0  0  0  0
   35.1710   30.4260   34.4500 H   0  0  0  0  0  0  0  0  0  0  0  0
   36.7900   29.0200   35.5300 H   0  0  0  0  0  0  0  0  0  0  0  0
   38.1360   26.6270   34.8210 S   0  0  0  0  0  0  0  0  0  0  0  0
   38.4040   27.4350   36.0970 O   0  0  0  0  0  0  0  0  0  0  0  0
   37.5100   25.3790   35.3360 O   0  0  0  0  0  0  0  0  0  0  0  0
   39.7940   26.5420   34.2800 C   0  0  0  0  0  0  0  0  0  0  0  0
   39.9430   25.3870   33.5200 F   0  0  0  0  0  0  0  0  0  0  0  0
   40.7880   26.8310   35.1230 F   0  0  0  0  0  0  0  0  0  0  0  0
   40.0140   27.5270   33.2710 F   0  0  0  0  0  0  0  0  0  0  0  0
   36.7530   21.8020   33.3420 C   0  0  0  0  0  0  0  0  0  0  0  0
   36.4870   22.4260   32.1070 C   0  0  0  0  0  0  0  0  0  0  0  0
   35.6480   21.7630   31.1850 C   0  0  0  0  0  0  0  0  0  0  0  0
   35.1380   20.5420   31.5490 N   0  0  0  0  0  0  0  0  0  0  0  0
   35.4330   19.9850   32.7640 C   0  0  0  0  0  0  0  0  0  0  0  0
   36.2240   20.6010   33.6430 N   0  0  0  0  0  0  0  0  0  0  0  0
   37.3980   22.3400   34.0140 H   0  0  0  0  0  0  0  0  0  0  0  0
   35.4040   22.1800   30.2310 H   0  0  0  0  0  0  0  0  0  0  0  0
   34.9850   19.0160   32.9680 H   0  0  0  0  0  0  0  0  0  0  0  0
  1 28  1  0  0  0  0
  1  6  1  0  0  0  0
  2  1  2  0  0  0  0
  3  2  1  0  0  0  0
  3  4  2  0  0  0  0
  4  5  1  0  0  0  0
  5  6  2  0  0  0  0
  5 11  1  0  0  0  0
  7  2  1  0  0  0  0
  8  3  1  0  0  0  0
  9  4  1  0  0  0  0
 10 15  1  0  0  0  0
 10 20  1  0  0  0  0
 11 10  2  0  0  0  0
 12 11  1  0  0  0  0
 12 13  2  0  0  0  0
 13 14  1  0  0  0  0
 14 18  1  0  0  0  0
 14 15  2  0  0  0  0
 15 19  1  0  0  0  0
 16 12  1  0  0  0  0
 17 13  1  0  0  0  0
 20 22  2  0  0  0  0
 20 21  2  0  0  0  0
 23 20  1  0  0  0  0
 23 25  1  0  0  0  0
 24 23  1  0  0  0  0
 26 23  1  0  0  0  0
 27 32  1  0  0  0  0
 27 33  1  0  0  0  0
 28 27  2  0  0  0  0
 29 30  2  0  0  0  0
 29 28  1  0  0  0  0
 30 31  1  0  0  0  0
 31 35  1  0  0  0  0
 31 32  2  0  0  0  0
 34 29  1  0  0  0  0
M  END
>  <minimizedAffinity>
-5.50624418

$$$$

 OpenBabel03262522343D

 35 37  0  0  0  0  0  0  0  0999 V2000
   36.1270   28.6350   32.2470 C   0  0  0  0  0  0  0  0  0  0  0  0
   36.5390   29.4970   31.2860 C   0  0  0  0  0  0  0  0  0  0  0  0
   36.4440   30.8630   31.3630 C   0  0  0  0  0  0  0  0  0  0  0  0
   35.8930   31.4510   32.4860 C   0  0  0  0  0  0  0  0  0  0  0  0
   35.4740   30.5760   33.4660 C   0  0  0  0  0  0  0  0  0  0  0  0
   35.5980   29.2490   33.3220 N   0  0  0  0  0  0  0  0  0  0  0  0
   36.9900   29.1180   30.3580 H   0  0  0  0  0  0  0  0  0  0  0  0
   36.7850   31.5060   30.5730 H   0  0  0  0  0  0  0  0  0  0  0  0
   35.8030   32.5130   32.5760 H   0  0  0  0  0  0  0  0  0  0  0  0
   33.5280   31.3350   34.7500 C   0  0  0  0  0  0  0  0  0  0  0  0
   34.9100   31.1610   34.6690 C   0  0  0  0  0  0  0  0  0  0  0  0
   35.6790   31.5660   35.7310 C   0  0  0  0  0  0  0  0  0  0  0  0
   35.1790   32.1400   36.8850 C   0  0  0  0  0  0  0  0  0  0  0  0
   33.8320   32.3250   36.9930 C   0  0  0  0  0  0  0  0  0  0  0  0
   33.0630   31.9200   35.9320 C   0  0  0  0  0  0  0  0  0  0  0  0
   36.7750   31.4100   35.6340 H   0  0  0  0  0  0  0  0  0  0  0  0
   35.8420   32.4310   37.6770 H   0  0  0  0  0  0  0  0  0  0  0  0
   33.3940   32.7650   37.8630 H   0  0  0  0  0  0  0  0  0  0  0  0
   31.9710   32.0860   36.0540 H   0  0  0  0  0  0  0  0  0  0  0  0
   32.4090   30.9230   33.5050 S   0  0  0  0  0  0  0  0  0  0  0  0
   31.0720   31.5080   33.9740 O   0  0  0  0  0  0  0  0  0  0  0  0
   32.6890   31.6770   32.2530 O   0  0  0  0  0  0  0  0  0  0  0  0
   31.8690   29.2700   33.3560 C   0  0  0  0  0  0  0  0  0  0  0  0
   32.7840   28.5840   32.5630 F   0  0  0  0  0  0  0  0  0  0  0  0
   30.5790   29.0050   33.1380 F   0  0  0  0  0  0  0  0  0  0  0  0
   32.0670   28.5930   34.5970 F   0  0  0  0  0  0  0  0  0  0  0  0
   35.6050   26.4220   31.1760 C   0  0  0  0  0  0  0  0  0  0  0  0
   36.2500   27.2030   32.1560 C   0  0  0  0  0  0  0  0  0  0  0  0
   37.0750   26.5510   33.0980 C   0  0  0  0  0  0  0  0  0  0  0  0
   37.2000   25.1880   33.0040 N   0  0  0  0  0  0  0  0  0  0  0  0
   36.5470   24.4820   32.0290 C   0  0  0  0  0  0  0  0  0  0  0  0
   35.7660   25.0860   31.1340 N   0  0  0  0  0  0  0  0  0  0  0  0
   34.9860   26.9580   30.4790 H   0  0  0  0  0  0  0  0  0  0  0  0
   37.5950   27.0820   33.8680 H   0  0  0  0  0  0  0  0  0  0  0  0
   36.7040   23.4080   32.0290 H   0  0  0  0  0  0  0  0  0  0  0  0
  1  6  1  0  0  0  0
  2  3  1  0  0  0  0
  2  1  2  0  0  0  0
  3  4  2  0  0  0  0
  4  9  1  0  0  0  0
  4  5  1  0  0  0  0
  5 11  1  0  0  0  0
  6  5  2  0  0  0  0
  7  2  1  0  0  0  0
  8  3  1  0  0  0  0
 10 15  1  0  0  0  0
 11 10  2  0  0  0  0
 11 12  1  0  0  0  0
 12 13  2  0  0  0  0
 13 14  1  0  0  0  0
 13 17  1  0  0  0  0
 14 18  1  0  0  0  0
 15 19  1  0  0  0  0
 15 14  2  0  0  0  0
 16 12  1  0  0  0  0
 20 21  2  0  0  0  0
 20 10  1  0  0  0  0
 22 20  2  0  0  0  0
 23 20  1  0  0  0  0
 23 26  1  0  0  0  0
 24 23  1  0  0  0  0
 25 23  1  0  0  0  0
 27 28  1  0  0  0  0
 28  1  1  0  0  0  0
 28 29  2  0  0  0  0
 29 34  1  0  0  0  0
 30 29  1  0  0  0  0
 31 30  2  0  0  0  0
 32 27  2  0  0  0  0
 32 31  1  0  0  0  0
 33 27  1  0  0  0  0
 35 31  1  0  0  0  0
M  END
>  <minimizedAffinity>
-5.50107002

$$$$

 OpenBabel03262522343D

 35 37  0  0  0  0  0  0  0  0999 V2000
   37.8190   27.0360   32.7990 C   0  0  0  0  0  0  0  0  0  0  0  0
   39.1500   27.1210   32.5620 C   0  0  0  0  0  0  0  0  0  0  0  0
   40.0420   26.0910   32.7130 C   0  0  0  0  0  0  0  0  0  0  0  0
   39.5970   24.8530   33.1380 C   0  0  0  0  0  0  0  0  0  0  0  0
   38.2430   24.7630   33.3790 C   0  0  0  0  0  0  0  0  0  0  0  0
   37.4280   25.8150   33.2100 N   0  0  0  0  0  0  0  0  0  0  0  0
   39.5930   28.0680   32.2200 H   0  0  0  0  0  0  0  0  0  0  0  0
   41.0910   26.2070   32.5120 H   0  0  0  0  0  0  0  0  0  0  0  0
   40.2680   24.0300   33.2670 H   0  0  0  0  0  0  0  0  0  0  0  0
   37.7730   23.1480   35.1630 C   0  0  0  0  0  0  0  0  0  0  0  0
   37.7370   23.4710   33.8060 C   0  0  0  0  0  0  0  0  0  0  0  0
   37.2360   22.5420   32.9300 C   0  0  0  0  0  0  0  0  0  0  0  0
   36.7610   21.2970   33.2970 C   0  0  0  0  0  0  0  0  0  0  0  0
   36.7840   20.9500   34.6170 C   0  0  0  0  0  0  0  0  0  0  0  0
   37.2840   21.8800   35.4930 C   0  0  0  0  0  0  0  0  0  0  0  0
   37.2200   22.8330   31.8580 H   0  0  0  0  0  0  0  0  0  0  0  0
   36.3800   20.6200   32.5560 H   0  0  0  0  0  0  0  0  0  0  0  0
   36.4300   20.0000   34.9540 H   0  0  0  0  0  0  0  0  0  0  0  0
   37.2900   21.5650   36.5580 H   0  0  0  0  0  0  0  0  0  0  0  0
   38.4000   24.1700   36.4020 S   0  0  0  0  0  0  0  0  0  0  0  0
   39.9230   24.0830   36.2440 O   0  0  0  0  0  0  0  0  0  0  0  0
   38.1110   25.6030   36.1210 O   0  0  0  0  0  0  0  0  0  0  0  0
   38.3350   23.6370   38.0620 C   0  0  0  0  0  0  0  0  0  0  0  0
   39.6020   23.1940   38.4260 F   0  0  0  0  0  0  0  0  0  0  0  0
   37.3040   22.9050   38.4900 F   0  0  0  0  0  0  0  0  0  0  0  0
   38.2180   24.7730   38.9190 F   0  0  0  0  0  0  0  0  0  0  0  0
   36.6930   28.7890   31.3920 C   0  0  0  0  0  0  0  0  0  0  0  0
   36.8940   28.1250   32.6190 C   0  0  0  0  0  0  0  0  0  0  0  0
   36.1380   28.5400   33.7390 C   0  0  0  0  0  0  0  0  0  0  0  0
   35.2490   29.5700   33.5640 N   0  0  0  0  0  0  0  0  0  0  0  0
   35.0980   30.1770   32.3460 C   0  0  0  0  0  0  0  0  0  0  0  0
   35.8060   29.7950   31.2820 N   0  0  0  0  0  0  0  0  0  0  0  0
   37.2890   28.4430   30.5670 H   0  0  0  0  0  0  0  0  0  0  0  0
   36.2390   28.0790   34.6990 H   0  0  0  0  0  0  0  0  0  0  0  0
   34.3720   30.9830   32.2990 H   0  0  0  0  0  0  0  0  0  0  0  0
  1  6  1  0  0  0  0
  2  3  1  0  0  0  0
  2  1  2  0  0  0  0
  3  4  2  0  0  0  0
  4  9  1  0  0  0  0
  4  5  1  0  0  0  0
  5 11  1  0  0  0  0
  6  5  2  0  0  0  0
  7  2  1  0  0  0  0
  8  3  1  0  0  0  0
 10 15  1  0  0  0  0
 10 20  1  0  0  0  0
 11 10  2  0  0  0  0
 12 13  2  0  0  0  0
 12 11  1  0  0  0  0
 13 14  1  0  0  0  0
 14 18  1  0  0  0  0
 14 15  2  0  0  0  0
 15 19  1  0  0  0  0
 16 12  1  0  0  0  0
 17 13  1  0  0  0  0
 20 23  1  0  0  0  0
 21 20  2  0  0  0  0
 22 20  2  0  0  0  0
 23 24  1  0  0  0  0
 23 25  1  0  0  0  0
 23 26  1  0  0  0  0
 27 28  1  0  0  0  0
 28  1  1  0  0  0  0
 28 29  2  0  0  0  0
 29 34  1  0  0  0  0
 30 29  1  0  0  0  0
 31 30  2  0  0  0  0
 32 27  2  0  0  0  0
 32 31  1  0  0  0  0
 33 27  1  0  0  0  0
 35 31  1  0  0  0  0
M  END
>  <minimizedAffinity>
-5.47920132

$$$$
