
 OpenBabel03272510113D

 30 32  0  0  0  0  0  0  0  0999 V2000
   33.8030   28.7080   48.2880 C   0  0  0  0  0  0  0  0  0  0  0  0
   34.3670   28.2800   49.4370 C   0  0  0  0  0  0  0  0  0  0  0  0
   35.6160   28.6610   49.8880 C   0  0  0  0  0  0  0  0  0  0  0  0
   36.3630   29.5280   49.1510 C   0  0  0  0  0  0  0  0  0  0  0  0
   35.7760   29.9730   47.9560 C   0  0  0  0  0  0  0  0  0  0  0  0
   34.5550   29.5710   47.5630 N   0  0  0  0  0  0  0  0  0  0  0  0
   33.8540   27.5890   50.0940 H   0  0  0  0  0  0  0  0  0  0  0  0
   36.0710   28.3200   50.8070 H   0  0  0  0  0  0  0  0  0  0  0  0
   36.3100   30.6660   47.3150 H   0  0  0  0  0  0  0  0  0  0  0  0
   31.6160   27.5050   48.5680 C   0  0  0  0  0  0  0  0  0  0  0  0
   32.5040   28.3030   47.8310 C   0  0  0  0  0  0  0  0  0  0  0  0
   32.0450   28.6940   46.5940 C   0  0  0  0  0  0  0  0  0  0  0  0
   30.8210   28.3230   46.1430 N   0  0  0  0  0  0  0  0  0  0  0  0
   30.0150   27.5460   46.9170 C   0  0  0  0  0  0  0  0  0  0  0  0
   30.4040   27.1340   48.1250 N   0  0  0  0  0  0  0  0  0  0  0  0
   31.9310   27.1710   49.5470 H   0  0  0  0  0  0  0  0  0  0  0  0
   32.7020   29.3220   45.9740 H   0  0  0  0  0  0  0  0  0  0  0  0
   29.0850   27.3400   46.4190 H   0  0  0  0  0  0  0  0  0  0  0  0
   37.6320   30.0250   49.4370 O   0  0  0  0  0  0  0  0  0  0  0  0
   38.2220   31.0230   48.6750 C   0  0  0  0  0  0  0  0  0  0  0  0
   38.2910   32.2610   49.3180 C   0  0  0  0  0  0  0  0  0  0  0  0
   38.9020   33.1380   48.4250 C   0  0  0  0  0  0  0  0  0  0  0  0
   39.1700   32.4310   47.3210 N   0  0  0  0  0  0  0  0  0  0  0  0
   38.7750   31.1910   47.4580 N   0  0  0  0  0  0  0  0  0  0  0  0
   37.9930   32.6490   50.2840 H   0  0  0  0  0  0  0  0  0  0  0  0
   39.1370   34.2010   48.5550 H   0  0  0  0  0  0  0  0  0  0  0  0
   39.8130   32.9830   46.1390 C   0  0  0  0  0  0  0  0  0  0  0  0
   40.8420   32.1560   45.6990 F   0  0  0  0  0  0  0  0  0  0  0  0
   40.3760   34.2010   46.3760 F   0  0  0  0  0  0  0  0  0  0  0  0
   38.9070   33.0540   45.0930 F   0  0  0  0  0  0  0  0  0  0  0  0
  1  2  1  0  0  0  0
  2  3  2  0  0  0  0
  2  7  1  0  0  0  0
  3  8  1  0  0  0  0
  4 19  1  0  0  0  0
  4  3  1  0  0  0  0
  5  4  2  0  0  0  0
  6  5  1  0  0  0  0
  6  1  2  0  0  0  0
  9  5  1  0  0  0  0
 10 16  1  0  0  0  0
 11  1  1  0  0  0  0
 11 10  2  0  0  0  0
 12 11  1  0  0  0  0
 13 12  2  0  0  0  0
 13 14  1  0  0  0  0
 14 15  2  0  0  0  0
 15 10  1  0  0  0  0
 17 12  1  0  0  0  0
 18 14  1  0  0  0  0
 20 21  1  0  0  0  0
 20 19  1  0  0  0  0
 21 25  1  0  0  0  0
 22 26  1  0  0  0  0
 22 21  2  0  0  0  0
 23 24  1  0  0  0  0
 23 22  1  0  0  0  0
 24 20  2  0  0  0  0
 27 29  1  0  0  0  0
 27 23  1  0  0  0  0
 28 27  1  0  0  0  0
 30 27  1  0  0  0  0
M  END
>  <minimizedAffinity>
-6.0589838

>  <minimizedRMSD>
0.843244255

$$$$
