
 OpenBabel03272502303D

 19 19  0  0  0  0  0  0  0  0999 V2000
   37.3850   27.5770   34.9690 C   0  0  0  0  0  3  0  0  0  0  0  0
   37.4030   26.2860   35.1870 C   0  0  0  0  0  3  0  0  0  0  0  0
   34.8490   29.7890   33.3680 C   0  0  0  0  0  0  0  0  0  0  0  0
   35.6870   29.2120   34.3190 C   0  0  0  0  0  0  0  0  0  0  0  0
   36.5300   28.1610   33.9630 C   0  0  0  0  0  0  0  0  0  0  0  0
   36.5050   27.7280   32.6790 N   0  0  0  0  0  0  0  0  0  0  0  0
   35.6830   28.3080   31.7890 C   0  0  0  0  0  0  0  0  0  0  0  0
   34.8650   29.3200   32.1120 N   0  0  0  0  0  0  0  0  0  0  0  0
   34.1690   30.6070   33.5730 H   0  0  0  0  0  0  0  0  0  0  0  0
   35.6350   29.6270   35.3190 H   0  0  0  0  0  0  0  0  0  0  0  0
   35.7870   27.8400   30.8070 H   0  0  0  0  0  0  0  0  0  0  0  0
   38.3440   25.7880   36.2590 C   0  0  0  0  0  0  0  0  0  0  0  0
   38.1440   26.4050   37.1540 H   0  0  0  0  0  0  0  0  0  0  0  0
   39.3840   25.8940   35.9300 H   0  0  0  0  0  0  0  0  0  0  0  0
   37.8930   24.0740   36.6520 S   0  0  0  0  0  0  0  0  0  0  0  0
   38.1720   23.7240   38.4150 C   0  0  0  0  0  0  0  0  0  0  0  0
   37.2690   22.8080   38.9180 F   0  0  0  0  0  0  0  0  0  0  0  0
   39.4840   23.3000   38.6140 F   0  0  0  0  0  0  0  0  0  0  0  0
   38.0480   24.9260   39.1070 F   0  0  0  0  0  0  0  0  0  0  0  0
  1  2  2  0  0  0  0
  2 12  1  0  0  0  0
  3  9  1  0  0  0  0
  3  4  1  0  0  0  0
  4 10  1  0  0  0  0
  5  4  2  0  0  0  0
  5  1  1  0  0  0  0
  6  5  1  0  0  0  0
  7  8  1  0  0  0  0
  7  6  2  0  0  0  0
  8  3  2  0  0  0  0
 11  7  1  0  0  0  0
 12 15  1  0  0  0  0
 12 13  1  0  0  0  0
 14 12  1  0  0  0  0
 15 16  1  0  0  0  0
 16 18  1  0  0  0  0
 16 17  1  0  0  0  0
 16 19  1  0  0  0  0
M  END
>  <minimizedAffinity>
-4.3192997

$$$$

 OpenBabel03272502303D

 19 19  0  0  0  0  0  0  0  0999 V2000
   37.4880   27.5040   34.9060 C   0  0  0  0  0  3  0  0  0  0  0  0
   37.4200   26.2290   35.1940 C   0  0  0  0  0  3  0  0  0  0  0  0
   35.6580   28.3730   31.7780 C   0  0  0  0  0  0  0  0  0  0  0  0
   36.5570   27.7820   32.6620 C   0  0  0  0  0  0  0  0  0  0  0  0
   36.5420   28.1270   34.0120 C   0  0  0  0  0  0  0  0  0  0  0  0
   35.6330   29.0430   34.4260 N   0  0  0  0  0  0  0  0  0  0  0  0
   34.7810   29.5920   33.5460 C   0  0  0  0  0  0  0  0  0  0  0  0
   34.7810   29.2740   32.2440 N   0  0  0  0  0  0  0  0  0  0  0  0
   35.6130   28.1540   30.7180 H   0  0  0  0  0  0  0  0  0  0  0  0
   37.2450   27.0610   32.2350 H   0  0  0  0  0  0  0  0  0  0  0  0
   34.1210   30.3080   34.0440 H   0  0  0  0  0  0  0  0  0  0  0  0
   38.4710   25.6850   36.1360 C   0  0  0  0  0  0  0  0  0  0  0  0
   38.4340   26.3230   37.0380 H   0  0  0  0  0  0  0  0  0  0  0  0
   39.4590   25.7230   35.6640 H   0  0  0  0  0  0  0  0  0  0  0  0
   37.9760   24.0070   36.6220 S   0  0  0  0  0  0  0  0  0  0  0  0
   38.2240   23.7560   38.4070 C   0  0  0  0  0  0  0  0  0  0  0  0
   39.4960   23.3060   38.7020 F   0  0  0  0  0  0  0  0  0  0  0  0
   37.9300   24.9290   39.0970 F   0  0  0  0  0  0  0  0  0  0  0  0
   37.2890   22.8150   38.8320 F   0  0  0  0  0  0  0  0  0  0  0  0
  1  2  2  0  0  0  0
  2 12  1  0  0  0  0
  3  8  2  0  0  0  0
  3  4  1  0  0  0  0
  4  5  2  0  0  0  0
  5  6  1  0  0  0  0
  5  1  1  0  0  0  0
  7 11  1  0  0  0  0
  7  6  2  0  0  0  0
  8  7  1  0  0  0  0
  9  3  1  0  0  0  0
 10  4  1  0  0  0  0
 12 15  1  0  0  0  0
 12 13  1  0  0  0  0
 14 12  1  0  0  0  0
 15 16  1  0  0  0  0
 16 17  1  0  0  0  0
 16 19  1  0  0  0  0
 16 18  1  0  0  0  0
M  END
>  <minimizedAffinity>
-4.27112818

$$$$

 OpenBabel03272502303D

 19 19  0  0  0  0  0  0  0  0999 V2000
   37.1480   27.4290   34.6650 C   0  0  0  0  0  3  0  0  0  0  0  0
   38.0530   26.5210   34.9310 C   0  0  0  0  0  3  0  0  0  0  0  0
   37.4510   27.7870   30.9680 C   0  0  0  0  0  0  0  0  0  0  0  0
   37.6990   27.4010   32.2820 C   0  0  0  0  0  0  0  0  0  0  0  0
   36.8660   27.8380   33.3100 C   0  0  0  0  0  0  0  0  0  0  0  0
   35.8200   28.6390   32.9880 N   0  0  0  0  0  0  0  0  0  0  0  0
   35.6110   28.9910   31.7090 C   0  0  0  0  0  0  0  0  0  0  0  0
   36.4020   28.5810   30.7070 N   0  0  0  0  0  0  0  0  0  0  0  0
   38.0550   27.4860   30.1210 H   0  0  0  0  0  0  0  0  0  0  0  0
   38.5590   26.7600   32.4400 H   0  0  0  0  0  0  0  0  0  0  0  0
   34.7330   29.6360   31.6260 H   0  0  0  0  0  0  0  0  0  0  0  0
   38.2690   26.1780   36.3870 C   0  0  0  0  0  0  0  0  0  0  0  0
   37.4540   26.6770   36.9440 H   0  0  0  0  0  0  0  0  0  0  0  0
   39.2500   26.5360   36.7190 H   0  0  0  0  0  0  0  0  0  0  0  0
   38.0600   24.3850   36.5810 S   0  0  0  0  0  0  0  0  0  0  0  0
   38.2070   23.9060   38.3300 C   0  0  0  0  0  0  0  0  0  0  0  0
   38.0780   24.9850   39.1820 F   0  0  0  0  0  0  0  0  0  0  0  0
   37.2790   22.9120   38.6290 F   0  0  0  0  0  0  0  0  0  0  0  0
   39.4610   23.3260   38.5020 F   0  0  0  0  0  0  0  0  0  0  0  0
  1  2  2  0  0  0  0
  2 12  1  0  0  0  0
  3  4  1  0  0  0  0
  4 10  1  0  0  0  0
  4  5  2  0  0  0  0
  5  1  1  0  0  0  0
  6  5  1  0  0  0  0
  7  6  2  0  0  0  0
  8  3  2  0  0  0  0
  8  7  1  0  0  0  0
  9  3  1  0  0  0  0
 11  7  1  0  0  0  0
 12 15  1  0  0  0  0
 12 14  1  0  0  0  0
 12 13  1  0  0  0  0
 15 16  1  0  0  0  0
 16 19  1  0  0  0  0
 16 18  1  0  0  0  0
 16 17  1  0  0  0  0
M  END
>  <minimizedAffinity>
-4.14922285

$$$$

 OpenBabel03272502303D

 19 19  0  0  0  0  0  0  0  0999 V2000
   37.8460   22.1640   33.6120 C   0  0  0  0  0  3  0  0  0  0  0  0
   37.9080   22.1380   34.9190 C   0  0  0  0  0  3  0  0  0  0  0  0
   35.1370   19.7080   32.8930 C   0  0  0  0  0  0  0  0  0  0  0  0
   35.9940   20.5680   33.5750 C   0  0  0  0  0  0  0  0  0  0  0  0
   36.9670   21.2830   32.8810 C   0  0  0  0  0  0  0  0  0  0  0  0
   37.0470   21.1140   31.5380 N   0  0  0  0  0  0  0  0  0  0  0  0
   36.2050   20.2760   30.9130 C   0  0  0  0  0  0  0  0  0  0  0  0
   35.2620   19.5790   31.5640 N   0  0  0  0  0  0  0  0  0  0  0  0
   34.3590   19.1210   33.3670 H   0  0  0  0  0  0  0  0  0  0  0  0
   35.8510   20.6350   34.6470 H   0  0  0  0  0  0  0  0  0  0  0  0
   36.4070   20.2570   29.8390 H   0  0  0  0  0  0  0  0  0  0  0  0
   38.8710   23.1010   35.5760 C   0  0  0  0  0  0  0  0  0  0  0  0
   39.2850   23.7240   34.7620 H   0  0  0  0  0  0  0  0  0  0  0  0
   39.6640   22.5500   36.0940 H   0  0  0  0  0  0  0  0  0  0  0  0
   37.9190   24.1850   36.6780 S   0  0  0  0  0  0  0  0  0  0  0  0
   38.2020   23.7400   38.4190 C   0  0  0  0  0  0  0  0  0  0  0  0
   37.2720   22.8310   38.8860 F   0  0  0  0  0  0  0  0  0  0  0  0
   39.5000   23.2640   38.5830 F   0  0  0  0  0  0  0  0  0  0  0  0
   38.1240   24.9110   39.1700 F   0  0  0  0  0  0  0  0  0  0  0  0
  1  2  2  0  0  0  0
  2 12  1  0  0  0  0
  3  9  1  0  0  0  0
  3  4  1  0  0  0  0
  4 10  1  0  0  0  0
  5  4  2  0  0  0  0
  5  1  1  0  0  0  0
  6  5  1  0  0  0  0
  7  6  2  0  0  0  0
  7  8  1  0  0  0  0
  8  3  2  0  0  0  0
 11  7  1  0  0  0  0
 12 14  1  0  0  0  0
 12 15  1  0  0  0  0
 13 12  1  0  0  0  0
 15 16  1  0  0  0  0
 16 18  1  0  0  0  0
 16 17  1  0  0  0  0
 16 19  1  0  0  0  0
M  END
>  <minimizedAffinity>
-4.04446268

$$$$

 OpenBabel03272502303D

 19 19  0  0  0  0  0  0  0  0999 V2000
   38.0220   22.0620   34.5890 C   0  0  0  0  0  3  0  0  0  0  0  0
   37.9280   22.9210   33.6050 C   0  0  0  0  0  3  0  0  0  0  0  0
   40.0640   22.6880   37.6420 C   0  0  0  0  0  0  0  0  0  0  0  0
   39.6930   22.3000   36.3580 C   0  0  0  0  0  0  0  0  0  0  0  0
   38.3810   22.4780   35.9230 C   0  0  0  0  0  0  0  0  0  0  0  0
   37.4940   23.0360   36.7830 N   0  0  0  0  0  0  0  0  0  0  0  0
   37.8870   23.3990   38.0140 C   0  0  0  0  0  0  0  0  0  0  0  0
   39.1440   23.2350   38.4510 N   0  0  0  0  0  0  0  0  0  0  0  0
   41.0630   22.5800   38.0460 H   0  0  0  0  0  0  0  0  0  0  0  0
   40.4730   21.8630   35.7450 H   0  0  0  0  0  0  0  0  0  0  0  0
   37.0520   23.8280   38.5740 H   0  0  0  0  0  0  0  0  0  0  0  0
   37.5530   22.3680   32.2490 C   0  0  0  0  0  0  0  0  0  0  0  0
   38.4760   22.3920   31.6410 H   0  0  0  0  0  0  0  0  0  0  0  0
   36.7650   22.9800   31.7950 H   0  0  0  0  0  0  0  0  0  0  0  0
   37.0720   20.6300   32.4630 S   0  0  0  0  0  0  0  0  0  0  0  0
   35.3170   20.5010   32.9250 C   0  0  0  0  0  0  0  0  0  0  0  0
   34.6740   19.4740   32.2610 F   0  0  0  0  0  0  0  0  0  0  0  0
   35.1990   20.3620   34.3060 F   0  0  0  0  0  0  0  0  0  0  0  0
   34.7080   21.7130   32.6070 F   0  0  0  0  0  0  0  0  0  0  0  0
  1  5  1  0  0  0  0
  2  1  2  0  0  0  0
  3  9  1  0  0  0  0
  3  8  1  0  0  0  0
  4  3  2  0  0  0  0
  5  4  1  0  0  0  0
  5  6  2  0  0  0  0
  6  7  1  0  0  0  0
  7  8  2  0  0  0  0
  7 11  1  0  0  0  0
 10  4  1  0  0  0  0
 12 15  1  0  0  0  0
 12  2  1  0  0  0  0
 13 12  1  0  0  0  0
 14 12  1  0  0  0  0
 15 16  1  0  0  0  0
 16 18  1  0  0  0  0
 17 16  1  0  0  0  0
 19 16  1  0  0  0  0
M  END
>  <minimizedAffinity>
-4.02182674

$$$$

 OpenBabel03272502303D

 19 19  0  0  0  0  0  0  0  0999 V2000
   38.1810   24.2740   34.5400 C   0  0  0  0  0  3  0  0  0  0  0  0
   39.0460   24.8980   33.7800 C   0  0  0  0  0  3  0  0  0  0  0  0
   37.9850   24.0290   38.2530 C   0  0  0  0  0  0  0  0  0  0  0  0
   37.6950   24.3700   36.9340 C   0  0  0  0  0  0  0  0  0  0  0  0
   38.5000   23.9020   35.8970 C   0  0  0  0  0  0  0  0  0  0  0  0
   39.5560   23.1140   36.2140 N   0  0  0  0  0  0  0  0  0  0  0  0
   39.8050   22.8060   37.4970 C   0  0  0  0  0  0  0  0  0  0  0  0
   39.0440   23.2460   38.5080 N   0  0  0  0  0  0  0  0  0  0  0  0
   37.4050   24.3560   39.1070 H   0  0  0  0  0  0  0  0  0  0  0  0
   36.8300   25.0040   36.7810 H   0  0  0  0  0  0  0  0  0  0  0  0
   40.6900   22.1680   37.5750 H   0  0  0  0  0  0  0  0  0  0  0  0
   38.6050   25.2300   32.3730 C   0  0  0  0  0  0  0  0  0  0  0  0
   38.7570   24.3100   31.7780 H   0  0  0  0  0  0  0  0  0  0  0  0
   39.1980   26.0600   31.9750 H   0  0  0  0  0  0  0  0  0  0  0  0
   36.8230   25.5800   32.4090 S   0  0  0  0  0  0  0  0  0  0  0  0
   35.9360   24.5260   31.2210 C   0  0  0  0  0  0  0  0  0  0  0  0
   35.2340   23.5120   31.8410 F   0  0  0  0  0  0  0  0  0  0  0  0
   35.1000   25.3070   30.4270 F   0  0  0  0  0  0  0  0  0  0  0  0
   36.8820   23.9770   30.3590 F   0  0  0  0  0  0  0  0  0  0  0  0
  1  5  1  0  0  0  0
  2  1  2  0  0  0  0
  3  8  1  0  0  0  0
  3  9  1  0  0  0  0
  4  3  2  0  0  0  0
  5  6  2  0  0  0  0
  5  4  1  0  0  0  0
  6  7  1  0  0  0  0
  7 11  1  0  0  0  0
  7  8  2  0  0  0  0
 10  4  1  0  0  0  0
 12 15  1  0  0  0  0
 12  2  1  0  0  0  0
 13 12  1  0  0  0  0
 14 12  1  0  0  0  0
 16 17  1  0  0  0  0
 16 15  1  0  0  0  0
 18 16  1  0  0  0  0
 19 16  1  0  0  0  0
M  END
>  <minimizedAffinity>
-3.86527801

$$$$

 OpenBabel03272502303D

 19 19  0  0  0  0  0  0  0  0999 V2000
   39.3810   26.3740   34.4750 C   0  0  0  0  0  3  0  0  0  0  0  0
   39.0580   27.1450   35.4820 C   0  0  0  0  0  3  0  0  0  0  0  0
   42.3230   27.6940   32.6050 C   0  0  0  0  0  0  0  0  0  0  0  0
   41.5170   27.2200   33.6380 C   0  0  0  0  0  0  0  0  0  0  0  0
   40.1960   26.8570   33.3860 C   0  0  0  0  0  0  0  0  0  0  0  0
   39.7310   26.9790   32.1190 N   0  0  0  0  0  0  0  0  0  0  0  0
   40.5350   27.4400   31.1480 C   0  0  0  0  0  0  0  0  0  0  0  0
   41.8090   27.7950   31.3700 N   0  0  0  0  0  0  0  0  0  0  0  0
   43.3560   27.9930   32.7280 H   0  0  0  0  0  0  0  0  0  0  0  0
   41.9790   27.1580   34.6160 H   0  0  0  0  0  0  0  0  0  0  0  0
   40.0040   27.4770   30.1930 H   0  0  0  0  0  0  0  0  0  0  0  0
   38.1930   26.5330   36.5600 C   0  0  0  0  0  0  0  0  0  0  0  0
   37.1530   26.8250   36.3240 H   0  0  0  0  0  0  0  0  0  0  0  0
   38.4940   26.9060   37.5450 H   0  0  0  0  0  0  0  0  0  0  0  0
   38.3090   24.7260   36.4170 S   0  0  0  0  0  0  0  0  0  0  0  0
   38.2680   23.9470   38.0600 C   0  0  0  0  0  0  0  0  0  0  0  0
   39.4620   23.3300   38.3780 F   0  0  0  0  0  0  0  0  0  0  0  0
   37.9140   24.8890   39.0230 F   0  0  0  0  0  0  0  0  0  0  0  0
   37.2450   23.0020   38.0520 F   0  0  0  0  0  0  0  0  0  0  0  0
  1  2  2  0  0  0  0
  2 12  1  0  0  0  0
  3  9  1  0  0  0  0
  3  4  1  0  0  0  0
  4 10  1  0  0  0  0
  5  4  2  0  0  0  0
  5  1  1  0  0  0  0
  6  5  1  0  0  0  0
  7  8  1  0  0  0  0
  7  6  2  0  0  0  0
  8  3  2  0  0  0  0
 11  7  1  0  0  0  0
 12 14  1  0  0  0  0
 13 12  1  0  0  0  0
 15 12  1  0  0  0  0
 15 16  1  0  0  0  0
 16 17  1  0  0  0  0
 16 18  1  0  0  0  0
 19 16  1  0  0  0  0
M  END
>  <minimizedAffinity>
-3.83697271

$$$$

 OpenBabel03272502303D

 19 19  0  0  0  0  0  0  0  0999 V2000
   38.1600   24.2740   34.4350 C   0  0  0  0  0  3  0  0  0  0  0  0
   38.8750   25.1710   33.8040 C   0  0  0  0  0  3  0  0  0  0  0  0
   39.8050   22.8070   37.4390 C   0  0  0  0  0  0  0  0  0  0  0  0
   39.5340   23.1540   36.1180 C   0  0  0  0  0  0  0  0  0  0  0  0
   38.4200   23.9330   35.8120 C   0  0  0  0  0  0  0  0  0  0  0  0
   37.6230   24.3350   36.8320 N   0  0  0  0  0  0  0  0  0  0  0  0
   37.9140   23.9820   38.0940 C   0  0  0  0  0  0  0  0  0  0  0  0
   38.9800   23.2320   38.4080 N   0  0  0  0  0  0  0  0  0  0  0  0
   40.6500   22.2050   37.7500 H   0  0  0  0  0  0  0  0  0  0  0  0
   40.2300   22.7850   35.3740 H   0  0  0  0  0  0  0  0  0  0  0  0
   37.1720   24.3860   38.7880 H   0  0  0  0  0  0  0  0  0  0  0  0
   38.5160   25.4400   32.3610 C   0  0  0  0  0  0  0  0  0  0  0  0
   38.6970   24.4940   31.8180 H   0  0  0  0  0  0  0  0  0  0  0  0
   39.1350   26.2500   31.9600 H   0  0  0  0  0  0  0  0  0  0  0  0
   36.7370   25.7960   32.2800 S   0  0  0  0  0  0  0  0  0  0  0  0
   35.8920   24.6070   31.1930 C   0  0  0  0  0  0  0  0  0  0  0  0
   35.2640   23.6020   31.9030 F   0  0  0  0  0  0  0  0  0  0  0  0
   34.9950   25.2760   30.3640 F   0  0  0  0  0  0  0  0  0  0  0  0
   36.8520   24.0510   30.3510 F   0  0  0  0  0  0  0  0  0  0  0  0
  1  5  1  0  0  0  0
  2  1  2  0  0  0  0
  3  9  1  0  0  0  0
  3  8  1  0  0  0  0
  4  3  2  0  0  0  0
  5  4  1  0  0  0  0
  5  6  2  0  0  0  0
  6  7  1  0  0  0  0
  7  8  2  0  0  0  0
  7 11  1  0  0  0  0
 10  4  1  0  0  0  0
 12  2  1  0  0  0  0
 13 12  1  0  0  0  0
 14 12  1  0  0  0  0
 15 12  1  0  0  0  0
 16 17  1  0  0  0  0
 16 15  1  0  0  0  0
 18 16  1  0  0  0  0
 19 16  1  0  0  0  0
M  END
>  <minimizedAffinity>
-3.8277154

$$$$

 OpenBabel03272502303D

 19 19  0  0  0  0  0  0  0  0999 V2000
   35.8460   29.9960   34.3080 C   0  0  0  0  0  3  0  0  0  0  0  0
   35.7890   28.6920   34.2090 C   0  0  0  0  0  3  0  0  0  0  0  0
   34.8630   32.3720   37.0050 C   0  0  0  0  0  0  0  0  0  0  0  0
   35.6290   31.6660   36.0810 C   0  0  0  0  0  0  0  0  0  0  0  0
   35.0300   30.7180   35.2540 C   0  0  0  0  0  0  0  0  0  0  0  0
   33.6960   30.5120   35.3800 N   0  0  0  0  0  0  0  0  0  0  0  0
   32.9890   31.2110   36.2820 C   0  0  0  0  0  0  0  0  0  0  0  0
   33.5470   32.1270   37.0870 N   0  0  0  0  0  0  0  0  0  0  0  0
   35.2610   33.1220   37.6780 H   0  0  0  0  0  0  0  0  0  0  0  0
   36.6870   31.9000   36.0550 H   0  0  0  0  0  0  0  0  0  0  0  0
   31.9350   30.9230   36.2530 H   0  0  0  0  0  0  0  0  0  0  0  0
   36.6850   28.0450   33.1770 C   0  0  0  0  0  0  0  0  0  0  0  0
   37.5000   28.7660   32.9830 H   0  0  0  0  0  0  0  0  0  0  0  0
   36.1190   27.8340   32.2630 H   0  0  0  0  0  0  0  0  0  0  0  0
   37.4200   26.5610   33.9200 S   0  0  0  0  0  0  0  0  0  0  0  0
   38.8700   26.9960   34.9280 C   0  0  0  0  0  0  0  0  0  0  0  0
   39.9370   27.4160   34.1570 F   0  0  0  0  0  0  0  0  0  0  0  0
   38.5200   27.9580   35.8720 F   0  0  0  0  0  0  0  0  0  0  0  0
   39.2360   25.8630   35.6500 F   0  0  0  0  0  0  0  0  0  0  0  0
  1  5  1  0  0  0  0
  2  1  2  0  0  0  0
  3  8  1  0  0  0  0
  3  9  1  0  0  0  0
  4  3  2  0  0  0  0
  5  6  2  0  0  0  0
  5  4  1  0  0  0  0
  6  7  1  0  0  0  0
  7  8  2  0  0  0  0
 10  4  1  0  0  0  0
 11  7  1  0  0  0  0
 12 15  1  0  0  0  0
 12  2  1  0  0  0  0
 13 12  1  0  0  0  0
 14 12  1  0  0  0  0
 15 16  1  0  0  0  0
 16 19  1  0  0  0  0
 16 18  1  0  0  0  0
 17 16  1  0  0  0  0
M  END
>  <minimizedAffinity>
-3.82250357

$$$$
