
 OpenBabel03272510123D

 30 32  0  0  0  0  0  0  0  0999 V2000
   35.3820   28.7430   32.8460 C   0  0  0  0  0  0  0  0  0  0  0  0
   35.9020   28.7550   34.0920 C   0  0  0  0  0  0  0  0  0  0  0  0
   36.8720   27.8820   34.5470 C   0  0  0  0  0  0  0  0  0  0  0  0
   37.3650   26.9270   33.7110 C   0  0  0  0  0  0  0  0  0  0  0  0
   36.8240   26.9150   32.4150 C   0  0  0  0  0  0  0  0  0  0  0  0
   35.8810   27.7890   32.0240 N   0  0  0  0  0  0  0  0  0  0  0  0
   35.5770   29.4750   34.8320 H   0  0  0  0  0  0  0  0  0  0  0  0
   37.2900   27.8880   35.5430 H   0  0  0  0  0  0  0  0  0  0  0  0
   37.1670   26.1850   31.6920 H   0  0  0  0  0  0  0  0  0  0  0  0
   34.5990   30.6960   31.4750 C   0  0  0  0  0  0  0  0  0  0  0  0
   34.3740   29.6560   32.3890 C   0  0  0  0  0  0  0  0  0  0  0  0
   33.0790   29.5510   32.8430 C   0  0  0  0  0  0  0  0  0  0  0  0
   32.1100   30.4030   32.4230 N   0  0  0  0  0  0  0  0  0  0  0  0
   32.4070   31.3890   31.5340 C   0  0  0  0  0  0  0  0  0  0  0  0
   33.6440   31.5410   31.0570 N   0  0  0  0  0  0  0  0  0  0  0  0
   35.6010   30.8200   31.0890 H   0  0  0  0  0  0  0  0  0  0  0  0
   32.8470   28.7520   33.5620 H   0  0  0  0  0  0  0  0  0  0  0  0
   31.5360   31.9750   31.3040 H   0  0  0  0  0  0  0  0  0  0  0  0
   38.3360   25.9670   33.9820 O   0  0  0  0  0  0  0  0  0  0  0  0
   38.2840   25.1670   35.1150 C   0  0  0  0  0  0  0  0  0  0  0  0
   38.2080   23.8000   34.8400 C   0  0  0  0  0  0  0  0  0  0  0  0
   38.1650   23.1500   36.0710 C   0  0  0  0  0  0  0  0  0  0  0  0
   38.2140   24.1050   37.0070 N   0  0  0  0  0  0  0  0  0  0  0  0
   38.2850   25.2900   36.4560 N   0  0  0  0  0  0  0  0  0  0  0  0
   38.1770   23.1910   33.9450 H   0  0  0  0  0  0  0  0  0  0  0  0
   38.1020   22.0760   36.2810 H   0  0  0  0  0  0  0  0  0  0  0  0
   38.1920   23.8430   38.4380 C   0  0  0  0  0  0  0  0  0  0  0  0
   39.4380   23.4150   38.8850 F   0  0  0  0  0  0  0  0  0  0  0  0
   37.3070   22.8610   38.7720 F   0  0  0  0  0  0  0  0  0  0  0  0
   37.9180   25.0100   39.1310 F   0  0  0  0  0  0  0  0  0  0  0  0
  1  2  1  0  0  0  0
  2  3  2  0  0  0  0
  2  7  1  0  0  0  0
  3  8  1  0  0  0  0
  4 19  1  0  0  0  0
  4  3  1  0  0  0  0
  5  4  2  0  0  0  0
  6  5  1  0  0  0  0
  6  1  2  0  0  0  0
  9  5  1  0  0  0  0
 10 11  1  0  0  0  0
 11 12  2  0  0  0  0
 11  1  1  0  0  0  0
 12 17  1  0  0  0  0
 13 12  1  0  0  0  0
 14 13  2  0  0  0  0
 15 10  2  0  0  0  0
 15 14  1  0  0  0  0
 16 10  1  0  0  0  0
 18 14  1  0  0  0  0
 19 20  1  0  0  0  0
 20 24  2  0  0  0  0
 21 20  1  0  0  0  0
 21 22  2  0  0  0  0
 22 26  1  0  0  0  0
 22 23  1  0  0  0  0
 23 27  1  0  0  0  0
 24 23  1  0  0  0  0
 25 21  1  0  0  0  0
 27 29  1  0  0  0  0
 27 28  1  0  0  0  0
 27 30  1  0  0  0  0
M  END
>  <minimizedAffinity>
-5.78891563

$$$$

 OpenBabel03272510123D

 30 32  0  0  0  0  0  0  0  0999 V2000
   35.4810   28.8430   32.8310 C   0  0  0  0  0  0  0  0  0  0  0  0
   36.3280   28.2710   31.9480 C   0  0  0  0  0  0  0  0  0  0  0  0
   37.4230   27.5030   32.2950 C   0  0  0  0  0  0  0  0  0  0  0  0
   37.7030   27.2820   33.6090 C   0  0  0  0  0  0  0  0  0  0  0  0
   36.8230   27.8770   34.5260 C   0  0  0  0  0  0  0  0  0  0  0  0
   35.7700   28.6160   34.1350 N   0  0  0  0  0  0  0  0  0  0  0  0
   36.1910   28.3870   30.8810 H   0  0  0  0  0  0  0  0  0  0  0  0
   38.1020   27.0440   31.5910 H   0  0  0  0  0  0  0  0  0  0  0  0
   36.9790   27.7460   35.5910 H   0  0  0  0  0  0  0  0  0  0  0  0
   33.0550   29.4750   32.9720 C   0  0  0  0  0  0  0  0  0  0  0  0
   34.3480   29.6400   32.4560 C   0  0  0  0  0  0  0  0  0  0  0  0
   34.4810   30.6510   31.5310 C   0  0  0  0  0  0  0  0  0  0  0  0
   33.4240   31.4160   31.1630 N   0  0  0  0  0  0  0  0  0  0  0  0
   32.1980   31.1950   31.7080 C   0  0  0  0  0  0  0  0  0  0  0  0
   32.0060   30.2300   32.6100 N   0  0  0  0  0  0  0  0  0  0  0  0
   32.8990   28.6930   33.7030 H   0  0  0  0  0  0  0  0  0  0  0  0
   35.4760   30.8240   31.0940 H   0  0  0  0  0  0  0  0  0  0  0  0
   31.4710   31.8810   31.3140 H   0  0  0  0  0  0  0  0  0  0  0  0
   38.7500   26.5420   34.1500 O   0  0  0  0  0  0  0  0  0  0  0  0
   38.5520   25.6210   35.1690 C   0  0  0  0  0  0  0  0  0  0  0  0
   38.2890   24.3250   34.7180 C   0  0  0  0  0  0  0  0  0  0  0  0
   38.1180   23.5380   35.8540 C   0  0  0  0  0  0  0  0  0  0  0  0
   38.2760   24.3490   36.9070 N   0  0  0  0  0  0  0  0  0  0  0  0
   38.5310   25.5720   36.5150 N   0  0  0  0  0  0  0  0  0  0  0  0
   38.1980   23.8450   33.7520 H   0  0  0  0  0  0  0  0  0  0  0  0
   37.8970   22.4660   35.9230 H   0  0  0  0  0  0  0  0  0  0  0  0
   38.1760   23.9140   38.2910 C   0  0  0  0  0  0  0  0  0  0  0  0
   37.2110   22.9220   38.4330 F   0  0  0  0  0  0  0  0  0  0  0  0
   37.8120   24.9260   39.1280 F   0  0  0  0  0  0  0  0  0  0  0  0
   39.3710   23.3430   38.6990 F   0  0  0  0  0  0  0  0  0  0  0  0
  1  6  1  0  0  0  0
  2  3  1  0  0  0  0
  2  1  2  0  0  0  0
  3  4  2  0  0  0  0
  4 19  1  0  0  0  0
  4  5  1  0  0  0  0
  5  9  1  0  0  0  0
  6  5  2  0  0  0  0
  7  2  1  0  0  0  0
  8  3  1  0  0  0  0
 10 16  1  0  0  0  0
 11  1  1  0  0  0  0
 11 10  2  0  0  0  0
 12 11  1  0  0  0  0
 13 12  2  0  0  0  0
 13 14  1  0  0  0  0
 14 15  2  0  0  0  0
 15 10  1  0  0  0  0
 17 12  1  0  0  0  0
 18 14  1  0  0  0  0
 19 20  1  0  0  0  0
 20 24  2  0  0  0  0
 21 20  1  0  0  0  0
 21 22  2  0  0  0  0
 22 26  1  0  0  0  0
 22 23  1  0  0  0  0
 23 27  1  0  0  0  0
 24 23  1  0  0  0  0
 25 21  1  0  0  0  0
 27 28  1  0  0  0  0
 27 30  1  0  0  0  0
 27 29  1  0  0  0  0
M  END
>  <minimizedAffinity>
-5.47510672

$$$$

 OpenBabel03272510123D

 30 32  0  0  0  0  0  0  0  0999 V2000
   38.4750   25.4430   35.3000 C   0  0  0  0  0  0  0  0  0  0  0  0
   38.4530   26.6370   35.9300 C   0  0  0  0  0  0  0  0  0  0  0  0
   37.7840   27.7550   35.4710 C   0  0  0  0  0  0  0  0  0  0  0  0
   37.0860   27.6910   34.3030 C   0  0  0  0  0  0  0  0  0  0  0  0
   37.1110   26.4500   33.6470 C   0  0  0  0  0  0  0  0  0  0  0  0
   37.7780   25.3920   34.1390 N   0  0  0  0  0  0  0  0  0  0  0  0
   38.9760   26.7900   36.8650 H   0  0  0  0  0  0  0  0  0  0  0  0
   37.7630   28.7120   35.9720 H   0  0  0  0  0  0  0  0  0  0  0  0
   36.5780   26.3200   32.7120 H   0  0  0  0  0  0  0  0  0  0  0  0
   40.2000   23.6290   35.0960 C   0  0  0  0  0  0  0  0  0  0  0  0
   39.1760   24.2900   35.7890 C   0  0  0  0  0  0  0  0  0  0  0  0
   38.8630   23.7520   37.0170 C   0  0  0  0  0  0  0  0  0  0  0  0
   39.5120   22.6630   37.4980 N   0  0  0  0  0  0  0  0  0  0  0  0
   40.4970   22.0760   36.7660 C   0  0  0  0  0  0  0  0  0  0  0  0
   40.8450   22.5510   35.5680 N   0  0  0  0  0  0  0  0  0  0  0  0
   40.4820   24.0140   34.1250 H   0  0  0  0  0  0  0  0  0  0  0  0
   38.0660   24.2330   37.6040 H   0  0  0  0  0  0  0  0  0  0  0  0
   40.9090   21.2290   37.2830 H   0  0  0  0  0  0  0  0  0  0  0  0
   36.3560   28.7010   33.6840 O   0  0  0  0  0  0  0  0  0  0  0  0
   35.5350   29.5620   34.3990 C   0  0  0  0  0  0  0  0  0  0  0  0
   34.1720   29.3840   34.1480 C   0  0  0  0  0  0  0  0  0  0  0  0
   33.5000   30.3140   34.9370 C   0  0  0  0  0  0  0  0  0  0  0  0
   34.4380   30.9940   35.6070 N   0  0  0  0  0  0  0  0  0  0  0  0
   35.6340   30.5590   35.2990 N   0  0  0  0  0  0  0  0  0  0  0  0
   33.5800   28.7290   33.5220 H   0  0  0  0  0  0  0  0  0  0  0  0
   32.4220   30.4930   35.0240 H   0  0  0  0  0  0  0  0  0  0  0  0
   34.1500   32.0650   36.5470 C   0  0  0  0  0  0  0  0  0  0  0  0
   35.3210   32.5620   37.1100 F   0  0  0  0  0  0  0  0  0  0  0  0
   33.3730   31.6480   37.5870 F   0  0  0  0  0  0  0  0  0  0  0  0
   33.5600   33.1320   35.8890 F   0  0  0  0  0  0  0  0  0  0  0  0
  1 11  1  0  0  0  0
  1  2  1  0  0  0  0
  2  7  1  0  0  0  0
  3  2  2  0  0  0  0
  3  8  1  0  0  0  0
  4  3  1  0  0  0  0
  5  6  1  0  0  0  0
  5  4  2  0  0  0  0
  6  1  2  0  0  0  0
  9  5  1  0  0  0  0
 10 15  2  0  0  0  0
 10 11  1  0  0  0  0
 11 12  2  0  0  0  0
 12 13  1  0  0  0  0
 12 17  1  0  0  0  0
 14 18  1  0  0  0  0
 14 13  2  0  0  0  0
 15 14  1  0  0  0  0
 16 10  1  0  0  0  0
 19  4  1  0  0  0  0
 19 20  1  0  0  0  0
 20 24  2  0  0  0  0
 21 20  1  0  0  0  0
 21 22  2  0  0  0  0
 22 26  1  0  0  0  0
 22 23  1  0  0  0  0
 23 27  1  0  0  0  0
 24 23  1  0  0  0  0
 25 21  1  0  0  0  0
 27 28  1  0  0  0  0
 27 29  1  0  0  0  0
 30 27  1  0  0  0  0
M  END
>  <minimizedAffinity>
-5.31280184

$$$$

 OpenBabel03272510123D

 30 32  0  0  0  0  0  0  0  0999 V2000
   37.4800   27.4200   31.4930 C   0  0  0  0  0  0  0  0  0  0  0  0
   37.2400   27.3580   32.8200 C   0  0  0  0  0  0  0  0  0  0  0  0
   37.3570   26.2140   33.5870 C   0  0  0  0  0  0  0  0  0  0  0  0
   37.7380   25.0460   33.0010 C   0  0  0  0  0  0  0  0  0  0  0  0
   37.9870   25.1110   31.6210 C   0  0  0  0  0  0  0  0  0  0  0  0
   37.8590   26.2510   30.9220 N   0  0  0  0  0  0  0  0  0  0  0  0
   36.9310   28.2320   33.3790 H   0  0  0  0  0  0  0  0  0  0  0  0
   37.1660   26.1600   34.6490 H   0  0  0  0  0  0  0  0  0  0  0  0
   38.2970   24.2210   31.0830 H   0  0  0  0  0  0  0  0  0  0  0  0
   37.7550   28.7350   29.3720 C   0  0  0  0  0  0  0  0  0  0  0  0
   37.3530   28.6150   30.7090 C   0  0  0  0  0  0  0  0  0  0  0  0
   36.8050   29.7540   31.2560 C   0  0  0  0  0  0  0  0  0  0  0  0
   36.6750   30.8940   30.5330 N   0  0  0  0  0  0  0  0  0  0  0  0
   37.0900   30.9330   29.2390 C   0  0  0  0  0  0  0  0  0  0  0  0
   37.6290   29.8610   28.6530 N   0  0  0  0  0  0  0  0  0  0  0  0
   38.1920   27.8670   28.8960 H   0  0  0  0  0  0  0  0  0  0  0  0
   36.4720   29.7150   32.3040 H   0  0  0  0  0  0  0  0  0  0  0  0
   36.9200   31.9020   28.8080 H   0  0  0  0  0  0  0  0  0  0  0  0
   37.9110   23.8010   33.6010 O   0  0  0  0  0  0  0  0  0  0  0  0
   38.2550   23.6700   34.9380 C   0  0  0  0  0  0  0  0  0  0  0  0
   39.4940   23.0590   35.1480 C   0  0  0  0  0  0  0  0  0  0  0  0
   39.6810   23.0060   36.5270 C   0  0  0  0  0  0  0  0  0  0  0  0
   38.5970   23.5620   37.0800 N   0  0  0  0  0  0  0  0  0  0  0  0
   37.7560   23.9550   36.1570 N   0  0  0  0  0  0  0  0  0  0  0  0
   40.2720   22.6520   34.5160 H   0  0  0  0  0  0  0  0  0  0  0  0
   40.5280   22.6000   37.0920 H   0  0  0  0  0  0  0  0  0  0  0  0
   38.3980   23.7050   38.5140 C   0  0  0  0  0  0  0  0  0  0  0  0
   37.9610   24.9870   38.8310 F   0  0  0  0  0  0  0  0  0  0  0  0
   39.5470   23.5060   39.2200 F   0  0  0  0  0  0  0  0  0  0  0  0
   37.4000   22.8450   38.9430 F   0  0  0  0  0  0  0  0  0  0  0  0
  1  2  1  0  0  0  0
  2  7  1  0  0  0  0
  2  3  2  0  0  0  0
  3  8  1  0  0  0  0
  4  3  1  0  0  0  0
  4 19  1  0  0  0  0
  5  4  2  0  0  0  0
  6  1  2  0  0  0  0
  6  5  1  0  0  0  0
  9  5  1  0  0  0  0
 10 11  1  0  0  0  0
 11 12  2  0  0  0  0
 11  1  1  0  0  0  0
 12 17  1  0  0  0  0
 13 12  1  0  0  0  0
 14 13  2  0  0  0  0
 15 14  1  0  0  0  0
 15 10  2  0  0  0  0
 16 10  1  0  0  0  0
 18 14  1  0  0  0  0
 19 20  1  0  0  0  0
 20 21  1  0  0  0  0
 20 24  2  0  0  0  0
 21 22  2  0  0  0  0
 22 23  1  0  0  0  0
 22 26  1  0  0  0  0
 23 27  1  0  0  0  0
 24 23  1  0  0  0  0
 25 21  1  0  0  0  0
 27 28  1  0  0  0  0
 27 30  1  0  0  0  0
 27 29  1  0  0  0  0
M  END
>  <minimizedAffinity>
-5.25112343

$$$$

 OpenBabel03272510123D

 30 32  0  0  0  0  0  0  0  0999 V2000
   36.2560   22.9730   31.6970 C   0  0  0  0  0  0  0  0  0  0  0  0
   35.3070   23.8570   31.3230 C   0  0  0  0  0  0  0  0  0  0  0  0
   35.5280   25.2050   31.1140 C   0  0  0  0  0  0  0  0  0  0  0  0
   36.7770   25.7180   31.2870 C   0  0  0  0  0  0  0  0  0  0  0  0
   37.7640   24.7990   31.6760 C   0  0  0  0  0  0  0  0  0  0  0  0
   37.4950   23.4950   31.8650 N   0  0  0  0  0  0  0  0  0  0  0  0
   34.2820   23.5490   31.1590 H   0  0  0  0  0  0  0  0  0  0  0  0
   34.7710   25.9160   30.8150 H   0  0  0  0  0  0  0  0  0  0  0  0
   38.7830   25.1310   31.8320 H   0  0  0  0  0  0  0  0  0  0  0  0
   36.0660   20.5960   30.9090 C   0  0  0  0  0  0  0  0  0  0  0  0
   36.0110   21.5750   31.9110 C   0  0  0  0  0  0  0  0  0  0  0  0
   35.6980   21.1060   33.1660 C   0  0  0  0  0  0  0  0  0  0  0  0
   35.4630   19.7890   33.3910 N   0  0  0  0  0  0  0  0  0  0  0  0
   35.5340   18.8980   32.3660 C   0  0  0  0  0  0  0  0  0  0  0  0
   35.8340   19.2920   31.1260 N   0  0  0  0  0  0  0  0  0  0  0  0
   36.3080   20.9150   29.9040 H   0  0  0  0  0  0  0  0  0  0  0  0
   35.6420   21.8320   33.9910 H   0  0  0  0  0  0  0  0  0  0  0  0
   35.3230   17.9010   32.7060 H   0  0  0  0  0  0  0  0  0  0  0  0
   37.1930   27.0370   31.1250 O   0  0  0  0  0  0  0  0  0  0  0  0
   36.6520   28.0770   31.8680 C   0  0  0  0  0  0  0  0  0  0  0  0
   36.3970   29.2310   31.1250 C   0  0  0  0  0  0  0  0  0  0  0  0
   35.8630   30.1630   32.0120 C   0  0  0  0  0  0  0  0  0  0  0  0
   35.8160   29.5670   33.2080 N   0  0  0  0  0  0  0  0  0  0  0  0
   36.2760   28.3430   33.1340 N   0  0  0  0  0  0  0  0  0  0  0  0
   36.5170   29.5280   30.0910 H   0  0  0  0  0  0  0  0  0  0  0  0
   35.5340   31.1900   31.8160 H   0  0  0  0  0  0  0  0  0  0  0  0
   35.3180   30.2050   34.4160 C   0  0  0  0  0  0  0  0  0  0  0  0
   36.2830   30.1980   35.4180 F   0  0  0  0  0  0  0  0  0  0  0  0
   34.2290   29.5660   34.9290 F   0  0  0  0  0  0  0  0  0  0  0  0
   35.0350   31.5380   34.1680 F   0  0  0  0  0  0  0  0  0  0  0  0
  1  6  1  0  0  0  0
  1 11  1  0  0  0  0
  2  1  2  0  0  0  0
  3  4  2  0  0  0  0
  3  2  1  0  0  0  0
  4  5  1  0  0  0  0
  5  9  1  0  0  0  0
  5  6  2  0  0  0  0
  7  2  1  0  0  0  0
  8  3  1  0  0  0  0
 10 15  2  0  0  0  0
 10 11  1  0  0  0  0
 11 12  2  0  0  0  0
 12 13  1  0  0  0  0
 12 17  1  0  0  0  0
 14 18  1  0  0  0  0
 14 13  2  0  0  0  0
 15 14  1  0  0  0  0
 16 10  1  0  0  0  0
 19  4  1  0  0  0  0
 19 20  1  0  0  0  0
 20 24  2  0  0  0  0
 21 20  1  0  0  0  0
 21 22  2  0  0  0  0
 22 23  1  0  0  0  0
 23 27  1  0  0  0  0
 24 23  1  0  0  0  0
 25 21  1  0  0  0  0
 26 22  1  0  0  0  0
 27 29  1  0  0  0  0
 27 28  1  0  0  0  0
 30 27  1  0  0  0  0
M  END
>  <minimizedAffinity>
-5.10373592

$$$$

 OpenBabel03272510123D

 30 32  0  0  0  0  0  0  0  0999 V2000
   35.7140   29.1720   34.1520 C   0  0  0  0  0  0  0  0  0  0  0  0
   36.6040   28.2700   34.6180 C   0  0  0  0  0  0  0  0  0  0  0  0
   37.1150   27.2190   33.8810 C   0  0  0  0  0  0  0  0  0  0  0  0
   36.7180   27.0450   32.5900 C   0  0  0  0  0  0  0  0  0  0  0  0
   35.7930   27.9830   32.1060 C   0  0  0  0  0  0  0  0  0  0  0  0
   35.3270   28.9890   32.8660 N   0  0  0  0  0  0  0  0  0  0  0  0
   36.9810   28.3220   35.6300 H   0  0  0  0  0  0  0  0  0  0  0  0
   37.8270   26.4950   34.2500 H   0  0  0  0  0  0  0  0  0  0  0  0
   35.4300   27.9110   31.0870 H   0  0  0  0  0  0  0  0  0  0  0  0
   35.9710   31.1300   35.7020 C   0  0  0  0  0  0  0  0  0  0  0  0
   35.1910   30.2590   34.9290 C   0  0  0  0  0  0  0  0  0  0  0  0
   33.8380   30.5120   34.9550 C   0  0  0  0  0  0  0  0  0  0  0  0
   33.3220   31.5330   35.6830 N   0  0  0  0  0  0  0  0  0  0  0  0
   34.1450   32.3370   36.4100 C   0  0  0  0  0  0  0  0  0  0  0  0
   35.4650   32.1430   36.4250 N   0  0  0  0  0  0  0  0  0  0  0  0
   37.0410   30.9730   35.7160 H   0  0  0  0  0  0  0  0  0  0  0  0
   33.1790   29.8570   34.3650 H   0  0  0  0  0  0  0  0  0  0  0  0
   33.5850   33.0940   36.9270 H   0  0  0  0  0  0  0  0  0  0  0  0
   37.1180   26.0550   31.6960 O   0  0  0  0  0  0  0  0  0  0  0  0
   36.8200   24.7150   31.8980 C   0  0  0  0  0  0  0  0  0  0  0  0
   35.7060   24.2680   31.1840 C   0  0  0  0  0  0  0  0  0  0  0  0
   35.5500   22.9200   31.4980 C   0  0  0  0  0  0  0  0  0  0  0  0
   36.5310   22.6120   32.3540 N   0  0  0  0  0  0  0  0  0  0  0  0
   37.2810   23.6580   32.5940 N   0  0  0  0  0  0  0  0  0  0  0  0
   34.9990   24.7120   30.4960 H   0  0  0  0  0  0  0  0  0  0  0  0
   34.7920   22.2130   31.1410 H   0  0  0  0  0  0  0  0  0  0  0  0
   36.7240   21.2900   32.9280 C   0  0  0  0  0  0  0  0  0  0  0  0
   35.8130   21.0530   33.9510 F   0  0  0  0  0  0  0  0  0  0  0  0
   37.9640   21.1380   33.4760 F   0  0  0  0  0  0  0  0  0  0  0  0
   36.4860   20.3160   31.9720 F   0  0  0  0  0  0  0  0  0  0  0  0
  1  2  1  0  0  0  0
  1 11  1  0  0  0  0
  2  7  1  0  0  0  0
  3  8  1  0  0  0  0
  3  2  2  0  0  0  0
  4  3  1  0  0  0  0
  5  4  2  0  0  0  0
  5  6  1  0  0  0  0
  6  1  2  0  0  0  0
  9  5  1  0  0  0  0
 10 16  1  0  0  0  0
 10 15  1  0  0  0  0
 11 12  1  0  0  0  0
 11 10  2  0  0  0  0
 12 13  2  0  0  0  0
 13 14  1  0  0  0  0
 14 15  2  0  0  0  0
 14 18  1  0  0  0  0
 17 12  1  0  0  0  0
 19 20  1  0  0  0  0
 19  4  1  0  0  0  0
 20 24  2  0  0  0  0
 21 22  2  0  0  0  0
 21 20  1  0  0  0  0
 22 23  1  0  0  0  0
 23 24  1  0  0  0  0
 23 27  1  0  0  0  0
 25 21  1  0  0  0  0
 26 22  1  0  0  0  0
 27 29  1  0  0  0  0
 27 28  1  0  0  0  0
 30 27  1  0  0  0  0
M  END
>  <minimizedAffinity>
-5.09477234

$$$$

 OpenBabel03272510123D

 30 32  0  0  0  0  0  0  0  0999 V2000
   36.2010   28.2450   33.5600 C   0  0  0  0  0  0  0  0  0  0  0  0
   36.8550   27.7890   34.6490 C   0  0  0  0  0  0  0  0  0  0  0  0
   37.6100   26.6310   34.6850 C   0  0  0  0  0  0  0  0  0  0  0  0
   37.7260   25.8680   33.5630 C   0  0  0  0  0  0  0  0  0  0  0  0
   37.0460   26.3430   32.4310 C   0  0  0  0  0  0  0  0  0  0  0  0
   36.3260   27.4770   32.4500 N   0  0  0  0  0  0  0  0  0  0  0  0
   36.8260   28.3230   35.5890 H   0  0  0  0  0  0  0  0  0  0  0  0
   38.1340   26.2630   35.5540 H   0  0  0  0  0  0  0  0  0  0  0  0
   37.0920   25.7900   31.4990 H   0  0  0  0  0  0  0  0  0  0  0  0
   35.2140   30.2820   34.6460 C   0  0  0  0  0  0  0  0  0  0  0  0
   35.4210   29.4490   33.5380 C   0  0  0  0  0  0  0  0  0  0  0  0
   34.8100   29.8640   32.3760 C   0  0  0  0  0  0  0  0  0  0  0  0
   34.0680   30.9990   32.3330 N   0  0  0  0  0  0  0  0  0  0  0  0
   33.9130   31.7560   33.4520 C   0  0  0  0  0  0  0  0  0  0  0  0
   34.4800   31.4060   34.6080 N   0  0  0  0  0  0  0  0  0  0  0  0
   35.6730   29.9990   35.5830 H   0  0  0  0  0  0  0  0  0  0  0  0
   34.9400   29.2470   31.4740 H   0  0  0  0  0  0  0  0  0  0  0  0
   33.3010   32.6160   33.2530 H   0  0  0  0  0  0  0  0  0  0  0  0
   38.4360   24.6810   33.4040 O   0  0  0  0  0  0  0  0  0  0  0  0
   38.8840   23.9390   34.4870 C   0  0  0  0  0  0  0  0  0  0  0  0
   38.0660   22.8540   34.8090 C   0  0  0  0  0  0  0  0  0  0  0  0
   38.6540   22.2260   35.9040 C   0  0  0  0  0  0  0  0  0  0  0  0
   39.7590   22.9220   36.1940 N   0  0  0  0  0  0  0  0  0  0  0  0
   39.9030   23.9280   35.3690 N   0  0  0  0  0  0  0  0  0  0  0  0
   37.1470   22.4350   34.4180 H   0  0  0  0  0  0  0  0  0  0  0  0
   38.3160   21.3380   36.4520 H   0  0  0  0  0  0  0  0  0  0  0  0
   40.6660   22.5910   37.2820 C   0  0  0  0  0  0  0  0  0  0  0  0
   41.8980   23.2140   37.1090 F   0  0  0  0  0  0  0  0  0  0  0  0
   40.9200   21.2540   37.3570 F   0  0  0  0  0  0  0  0  0  0  0  0
   40.1640   23.0660   38.4820 F   0  0  0  0  0  0  0  0  0  0  0  0
  1  2  1  0  0  0  0
  2  3  2  0  0  0  0
  2  7  1  0  0  0  0
  3  8  1  0  0  0  0
  4  3  1  0  0  0  0
  5  6  1  0  0  0  0
  5  4  2  0  0  0  0
  6  1  2  0  0  0  0
  9  5  1  0  0  0  0
 10 16  1  0  0  0  0
 11  1  1  0  0  0  0
 11 10  2  0  0  0  0
 12 11  1  0  0  0  0
 13 12  2  0  0  0  0
 13 14  1  0  0  0  0
 14 15  2  0  0  0  0
 15 10  1  0  0  0  0
 17 12  1  0  0  0  0
 18 14  1  0  0  0  0
 19  4  1  0  0  0  0
 19 20  1  0  0  0  0
 20 21  1  0  0  0  0
 20 24  2  0  0  0  0
 21 22  2  0  0  0  0
 22 23  1  0  0  0  0
 22 26  1  0  0  0  0
 23 27  1  0  0  0  0
 24 23  1  0  0  0  0
 25 21  1  0  0  0  0
 27 29  1  0  0  0  0
 27 30  1  0  0  0  0
 28 27  1  0  0  0  0
M  END
>  <minimizedAffinity>
-5.03448725

$$$$

 OpenBabel03272510123D

 30 32  0  0  0  0  0  0  0  0999 V2000
   37.5370   27.1170   32.9160 C   0  0  0  0  0  0  0  0  0  0  0  0
   37.4560   27.5180   34.2020 C   0  0  0  0  0  0  0  0  0  0  0  0
   37.5800   26.6810   35.2950 C   0  0  0  0  0  0  0  0  0  0  0  0
   37.7990   25.3500   35.1040 C   0  0  0  0  0  0  0  0  0  0  0  0
   37.8830   24.9340   33.7660 C   0  0  0  0  0  0  0  0  0  0  0  0
   37.7560   25.7910   32.7380 N   0  0  0  0  0  0  0  0  0  0  0  0
   37.2840   28.5550   34.4600 H   0  0  0  0  0  0  0  0  0  0  0  0
   37.5150   26.9980   36.3260 H   0  0  0  0  0  0  0  0  0  0  0  0
   38.0570   23.8900   33.5330 H   0  0  0  0  0  0  0  0  0  0  0  0
   38.2150   27.9530   30.6470 C   0  0  0  0  0  0  0  0  0  0  0  0
   37.4050   27.9980   31.7910 C   0  0  0  0  0  0  0  0  0  0  0  0
   36.4330   28.9730   31.7770 C   0  0  0  0  0  0  0  0  0  0  0  0
   36.2910   29.8160   30.7240 N   0  0  0  0  0  0  0  0  0  0  0  0
   37.1180   29.7110   29.6490 C   0  0  0  0  0  0  0  0  0  0  0  0
   38.0790   28.7860   29.6030 N   0  0  0  0  0  0  0  0  0  0  0  0
   38.9950   27.2040   30.6100 H   0  0  0  0  0  0  0  0  0  0  0  0
   35.7680   29.0520   32.6500 H   0  0  0  0  0  0  0  0  0  0  0  0
   36.8770   30.4470   28.9040 H   0  0  0  0  0  0  0  0  0  0  0  0
   37.9500   24.3590   36.0690 O   0  0  0  0  0  0  0  0  0  0  0  0
   39.1840   23.7920   36.3560 C   0  0  0  0  0  0  0  0  0  0  0  0
   39.1840   22.9800   37.4930 C   0  0  0  0  0  0  0  0  0  0  0  0
   40.4820   22.4980   37.6350 C   0  0  0  0  0  0  0  0  0  0  0  0
   41.1920   23.0120   36.6240 N   0  0  0  0  0  0  0  0  0  0  0  0
   40.4400   23.7710   35.8690 N   0  0  0  0  0  0  0  0  0  0  0  0
   38.4470   22.6740   38.2250 H   0  0  0  0  0  0  0  0  0  0  0  0
   40.8890   21.8300   38.4040 H   0  0  0  0  0  0  0  0  0  0  0  0
   42.6070   22.7510   36.4090 C   0  0  0  0  0  0  0  0  0  0  0  0
   43.3880   23.7720   36.9390 F   0  0  0  0  0  0  0  0  0  0  0  0
   42.9240   22.6730   35.0850 F   0  0  0  0  0  0  0  0  0  0  0  0
   42.9850   21.5960   37.0740 F   0  0  0  0  0  0  0  0  0  0  0  0
  1  2  1  0  0  0  0
  2  7  1  0  0  0  0
  2  3  2  0  0  0  0
  3  8  1  0  0  0  0
  4  3  1  0  0  0  0
  4 19  1  0  0  0  0
  5  4  2  0  0  0  0
  6  1  2  0  0  0  0
  6  5  1  0  0  0  0
  9  5  1  0  0  0  0
 10 11  1  0  0  0  0
 11  1  1  0  0  0  0
 12 11  2  0  0  0  0
 12 17  1  0  0  0  0
 13 12  1  0  0  0  0
 14 13  2  0  0  0  0
 15 14  1  0  0  0  0
 15 10  2  0  0  0  0
 16 10  1  0  0  0  0
 18 14  1  0  0  0  0
 19 20  1  0  0  0  0
 20 21  1  0  0  0  0
 21 22  2  0  0  0  0
 21 25  1  0  0  0  0
 22 26  1  0  0  0  0
 23 22  1  0  0  0  0
 24 20  2  0  0  0  0
 24 23  1  0  0  0  0
 27 23  1  0  0  0  0
 27 28  1  0  0  0  0
 27 30  1  0  0  0  0
 29 27  1  0  0  0  0
M  END
>  <minimizedAffinity>
-5.02207565

$$$$

 OpenBabel03272510123D

 30 32  0  0  0  0  0  0  0  0999 V2000
   36.0370   29.3680   34.2550 C   0  0  0  0  0  0  0  0  0  0  0  0
   35.8970   28.6890   33.0970 C   0  0  0  0  0  0  0  0  0  0  0  0
   36.4060   27.4250   32.8620 C   0  0  0  0  0  0  0  0  0  0  0  0
   37.1020   26.7860   33.8430 C   0  0  0  0  0  0  0  0  0  0  0  0
   37.2460   27.4930   35.0460 C   0  0  0  0  0  0  0  0  0  0  0  0
   36.7310   28.7220   35.2230 N   0  0  0  0  0  0  0  0  0  0  0  0
   35.3610   29.1100   32.2570 H   0  0  0  0  0  0  0  0  0  0  0  0
   36.2960   26.8780   31.9370 H   0  0  0  0  0  0  0  0  0  0  0  0
   37.7880   27.0490   35.8740 H   0  0  0  0  0  0  0  0  0  0  0  0
   34.5650   31.3130   33.6570 C   0  0  0  0  0  0  0  0  0  0  0  0
   35.5040   30.6810   34.4840 C   0  0  0  0  0  0  0  0  0  0  0  0
   35.9060   31.4170   35.5760 C   0  0  0  0  0  0  0  0  0  0  0  0
   35.4160   32.6590   35.8120 N   0  0  0  0  0  0  0  0  0  0  0  0
   34.5060   33.2070   34.9610 C   0  0  0  0  0  0  0  0  0  0  0  0
   34.0780   32.5430   33.8860 N   0  0  0  0  0  0  0  0  0  0  0  0
   34.2180   30.7760   32.7850 H   0  0  0  0  0  0  0  0  0  0  0  0
   36.6430   30.9680   36.2590 H   0  0  0  0  0  0  0  0  0  0  0  0
   34.2190   34.1900   35.2860 H   0  0  0  0  0  0  0  0  0  0  0  0
   37.6840   25.5220   33.7960 O   0  0  0  0  0  0  0  0  0  0  0  0
   38.1500   24.8830   34.9360 C   0  0  0  0  0  0  0  0  0  0  0  0
   39.4670   24.4270   34.8320 C   0  0  0  0  0  0  0  0  0  0  0  0
   39.7720   23.8190   36.0470 C   0  0  0  0  0  0  0  0  0  0  0  0
   38.6780   23.9230   36.8110 N   0  0  0  0  0  0  0  0  0  0  0  0
   37.7230   24.5460   36.1680 N   0  0  0  0  0  0  0  0  0  0  0  0
   40.2340   24.4450   34.0690 H   0  0  0  0  0  0  0  0  0  0  0  0
   40.7050   23.3370   36.3610 H   0  0  0  0  0  0  0  0  0  0  0  0
   38.5820   23.4090   38.1680 C   0  0  0  0  0  0  0  0  0  0  0  0
   38.6180   24.4450   39.0960 F   0  0  0  0  0  0  0  0  0  0  0  0
   39.6150   22.5770   38.4820 F   0  0  0  0  0  0  0  0  0  0  0  0
   37.3650   22.7740   38.3520 F   0  0  0  0  0  0  0  0  0  0  0  0
  1 11  1  0  0  0  0
  1  6  1  0  0  0  0
  2  1  2  0  0  0  0
  3  2  1  0  0  0  0
  3  4  2  0  0  0  0
  4  5  1  0  0  0  0
  5  6  2  0  0  0  0
  5  9  1  0  0  0  0
  7  2  1  0  0  0  0
  8  3  1  0  0  0  0
 10 15  2  0  0  0  0
 10 11  1  0  0  0  0
 11 12  2  0  0  0  0
 12 13  1  0  0  0  0
 12 17  1  0  0  0  0
 14 18  1  0  0  0  0
 14 13  2  0  0  0  0
 15 14  1  0  0  0  0
 16 10  1  0  0  0  0
 19  4  1  0  0  0  0
 19 20  1  0  0  0  0
 20 24  2  0  0  0  0
 21 20  1  0  0  0  0
 21 22  2  0  0  0  0
 22 26  1  0  0  0  0
 22 23  1  0  0  0  0
 23 27  1  0  0  0  0
 24 23  1  0  0  0  0
 25 21  1  0  0  0  0
 27 30  1  0  0  0  0
 27 29  1  0  0  0  0
 27 28  1  0  0  0  0
M  END
>  <minimizedAffinity>
-4.99763441

$$$$
