
 OpenBabel03272510113D

 30 32  0  0  0  0  0  0  0  0999 V2000
   33.8270   28.7010   48.2870 C   0  0  0  0  0  0  0  0  0  0  0  0
   34.3960   28.2780   49.4360 C   0  0  0  0  0  0  0  0  0  0  0  0
   35.6380   28.6780   49.8910 C   0  0  0  0  0  0  0  0  0  0  0  0
   36.3720   29.5610   49.1580 C   0  0  0  0  0  0  0  0  0  0  0  0
   35.7800   30.0000   47.9630 C   0  0  0  0  0  0  0  0  0  0  0  0
   34.5670   29.5780   47.5670 N   0  0  0  0  0  0  0  0  0  0  0  0
   33.8940   27.5760   50.0890 H   0  0  0  0  0  0  0  0  0  0  0  0
   36.0970   28.3420   50.8090 H   0  0  0  0  0  0  0  0  0  0  0  0
   36.3030   30.7040   47.3260 H   0  0  0  0  0  0  0  0  0  0  0  0
   31.6300   27.5220   48.5870 C   0  0  0  0  0  0  0  0  0  0  0  0
   32.5360   28.2750   47.8270 C   0  0  0  0  0  0  0  0  0  0  0  0
   32.1040   28.6000   46.5600 C   0  0  0  0  0  0  0  0  0  0  0  0
   30.8880   28.2080   46.1050 N   0  0  0  0  0  0  0  0  0  0  0  0
   30.0640   27.4770   46.9030 C   0  0  0  0  0  0  0  0  0  0  0  0
   30.4260   27.1310   48.1400 N   0  0  0  0  0  0  0  0  0  0  0  0
   31.9240   27.2400   49.5890 H   0  0  0  0  0  0  0  0  0  0  0  0
   32.7770   29.1910   45.9210 H   0  0  0  0  0  0  0  0  0  0  0  0
   29.1430   27.2480   46.3980 H   0  0  0  0  0  0  0  0  0  0  0  0
   37.6320   30.0780   49.4480 O   0  0  0  0  0  0  0  0  0  0  0  0
   38.2260   31.0550   48.6630 C   0  0  0  0  0  0  0  0  0  0  0  0
   38.3230   32.3020   49.2850 C   0  0  0  0  0  0  0  0  0  0  0  0
   38.9350   33.1540   48.3700 C   0  0  0  0  0  0  0  0  0  0  0  0
   39.1780   32.4260   47.2740 N   0  0  0  0  0  0  0  0  0  0  0  0
   38.7660   31.1940   47.4360 N   0  0  0  0  0  0  0  0  0  0  0  0
   38.0440   32.7090   50.2480 H   0  0  0  0  0  0  0  0  0  0  0  0
   39.1880   34.2150   48.4800 H   0  0  0  0  0  0  0  0  0  0  0  0
   39.8140   32.9490   46.0750 C   0  0  0  0  0  0  0  0  0  0  0  0
   40.3590   34.2080   46.3080 F   0  0  0  0  0  0  0  0  0  0  0  0
   38.9340   33.0970   45.0440 F   0  0  0  0  0  0  0  0  0  0  0  0
   40.8730   32.1370   45.7060 F   0  0  0  0  0  0  0  0  0  0  0  0
  1  2  1  0  0  0  0
  2  3  2  0  0  0  0
  2  7  1  0  0  0  0
  3  8  1  0  0  0  0
  4 19  1  0  0  0  0
  4  3  1  0  0  0  0
  5  4  2  0  0  0  0
  6  5  1  0  0  0  0
  6  1  2  0  0  0  0
  9  5  1  0  0  0  0
 10 16  1  0  0  0  0
 11  1  1  0  0  0  0
 11 10  2  0  0  0  0
 12 11  1  0  0  0  0
 13 12  2  0  0  0  0
 13 14  1  0  0  0  0
 14 15  2  0  0  0  0
 15 10  1  0  0  0  0
 17 12  1  0  0  0  0
 18 14  1  0  0  0  0
 20 21  1  0  0  0  0
 20 19  1  0  0  0  0
 21 25  1  0  0  0  0
 22 26  1  0  0  0  0
 22 21  2  0  0  0  0
 23 24  1  0  0  0  0
 23 22  1  0  0  0  0
 24 20  2  0  0  0  0
 27 28  1  0  0  0  0
 27 23  1  0  0  0  0
 29 27  1  0  0  0  0
 30 27  1  0  0  0  0
M  END
>  <minimizedAffinity>
-6.06671429

>  <minimizedRMSD>
0.831642449

$$$$
