
 OpenBabel03272510113D

 30 32  0  0  0  0  0  0  0  0999 V2000
   33.8290   28.7010   48.2870 C   0  0  0  0  0  0  0  0  0  0  0  0
   34.3980   28.2780   49.4360 C   0  0  0  0  0  0  0  0  0  0  0  0
   35.6400   28.6790   49.8910 C   0  0  0  0  0  0  0  0  0  0  0  0
   36.3730   29.5620   49.1590 C   0  0  0  0  0  0  0  0  0  0  0  0
   35.7810   30.0010   47.9640 C   0  0  0  0  0  0  0  0  0  0  0  0
   34.5680   29.5800   47.5680 N   0  0  0  0  0  0  0  0  0  0  0  0
   33.8960   27.5770   50.0890 H   0  0  0  0  0  0  0  0  0  0  0  0
   36.0990   28.3430   50.8100 H   0  0  0  0  0  0  0  0  0  0  0  0
   36.3030   30.7060   47.3270 H   0  0  0  0  0  0  0  0  0  0  0  0
   31.6320   27.5230   48.5870 C   0  0  0  0  0  0  0  0  0  0  0  0
   32.5380   28.2750   47.8270 C   0  0  0  0  0  0  0  0  0  0  0  0
   32.1070   28.5990   46.5600 C   0  0  0  0  0  0  0  0  0  0  0  0
   30.8910   28.2060   46.1040 N   0  0  0  0  0  0  0  0  0  0  0  0
   30.0660   27.4770   46.9030 C   0  0  0  0  0  0  0  0  0  0  0  0
   30.4270   27.1320   48.1400 N   0  0  0  0  0  0  0  0  0  0  0  0
   31.9240   27.2430   49.5900 H   0  0  0  0  0  0  0  0  0  0  0  0
   32.7800   29.1890   45.9200 H   0  0  0  0  0  0  0  0  0  0  0  0
   29.1460   27.2460   46.3980 H   0  0  0  0  0  0  0  0  0  0  0  0
   37.6320   30.0800   49.4490 O   0  0  0  0  0  0  0  0  0  0  0  0
   38.2270   31.0570   48.6630 C   0  0  0  0  0  0  0  0  0  0  0  0
   38.3240   32.3030   49.2860 C   0  0  0  0  0  0  0  0  0  0  0  0
   38.9370   33.1560   48.3700 C   0  0  0  0  0  0  0  0  0  0  0  0
   39.1780   32.4280   47.2740 N   0  0  0  0  0  0  0  0  0  0  0  0
   38.7660   31.1960   47.4360 N   0  0  0  0  0  0  0  0  0  0  0  0
   38.0460   32.7110   50.2490 H   0  0  0  0  0  0  0  0  0  0  0  0
   39.1900   34.2170   48.4800 H   0  0  0  0  0  0  0  0  0  0  0  0
   39.8140   32.9500   46.0750 C   0  0  0  0  0  0  0  0  0  0  0  0
   40.3590   34.2080   46.3070 F   0  0  0  0  0  0  0  0  0  0  0  0
   38.9350   33.0980   45.0440 F   0  0  0  0  0  0  0  0  0  0  0  0
   40.8740   32.1370   45.7060 F   0  0  0  0  0  0  0  0  0  0  0  0
  1  2  1  0  0  0  0
  2  3  2  0  0  0  0
  2  7  1  0  0  0  0
  3  8  1  0  0  0  0
  4 19  1  0  0  0  0
  4  3  1  0  0  0  0
  5  4  2  0  0  0  0
  6  5  1  0  0  0  0
  6  1  2  0  0  0  0
  9  5  1  0  0  0  0
 10 16  1  0  0  0  0
 11  1  1  0  0  0  0
 11 10  2  0  0  0  0
 12 11  1  0  0  0  0
 13 12  2  0  0  0  0
 13 14  1  0  0  0  0
 14 15  2  0  0  0  0
 15 10  1  0  0  0  0
 17 12  1  0  0  0  0
 18 14  1  0  0  0  0
 20 21  1  0  0  0  0
 20 19  1  0  0  0  0
 21 25  1  0  0  0  0
 22 26  1  0  0  0  0
 22 21  2  0  0  0  0
 23 24  1  0  0  0  0
 23 22  1  0  0  0  0
 24 20  2  0  0  0  0
 27 28  1  0  0  0  0
 27 23  1  0  0  0  0
 29 27  1  0  0  0  0
 30 27  1  0  0  0  0
M  END
>  <minimizedAffinity>
-6.06689072

>  <minimizedRMSD>
0.845650077

$$$$
