
 OpenBabel03272510113D

 30 32  0  0  0  0  0  0  0  0999 V2000
   33.1300   28.5790   47.8730 C   0  0  0  0  0  0  0  0  0  0  0  0
   33.5720   28.1130   49.0600 C   0  0  0  0  0  0  0  0  0  0  0  0
   34.8340   28.3440   49.5730 C   0  0  0  0  0  0  0  0  0  0  0  0
   35.7250   29.0900   48.8620 C   0  0  0  0  0  0  0  0  0  0  0  0
   35.2640   29.5740   47.6280 C   0  0  0  0  0  0  0  0  0  0  0  0
   34.0240   29.3200   47.1750 N   0  0  0  0  0  0  0  0  0  0  0  0
   32.9410   27.5100   49.7000 H   0  0  0  0  0  0  0  0  0  0  0  0
   35.1920   27.9730   50.5230 H   0  0  0  0  0  0  0  0  0  0  0  0
   35.9150   30.1770   47.0050 H   0  0  0  0  0  0  0  0  0  0  0  0
   30.9520   27.3300   47.8210 C   0  0  0  0  0  0  0  0  0  0  0  0
   31.8160   28.3290   47.3520 C   0  0  0  0  0  0  0  0  0  0  0  0
   31.3170   29.0930   46.3210 C   0  0  0  0  0  0  0  0  0  0  0  0
   30.0780   28.8740   45.8140 N   0  0  0  0  0  0  0  0  0  0  0  0
   29.2970   27.8830   46.3220 C   0  0  0  0  0  0  0  0  0  0  0  0
   29.7250   27.1090   47.3220 N   0  0  0  0  0  0  0  0  0  0  0  0
   31.2980   26.7020   48.6300 H   0  0  0  0  0  0  0  0  0  0  0  0
   31.9540   29.8930   45.9150 H   0  0  0  0  0  0  0  0  0  0  0  0
   28.3510   27.8390   45.8140 H   0  0  0  0  0  0  0  0  0  0  0  0
   37.0290   29.4300   49.2100 O   0  0  0  0  0  0  0  0  0  0  0  0
   37.4450   30.7490   49.3120 C   0  0  0  0  0  0  0  0  0  0  0  0
   36.5650   31.5670   50.0270 C   0  0  0  0  0  0  0  0  0  0  0  0
   37.1270   32.8410   50.0340 C   0  0  0  0  0  0  0  0  0  0  0  0
   38.2760   32.7550   49.3540 N   0  0  0  0  0  0  0  0  0  0  0  0
   38.4710   31.5330   48.9270 N   0  0  0  0  0  0  0  0  0  0  0  0
   35.6190   31.4280   50.5320 H   0  0  0  0  0  0  0  0  0  0  0  0
   36.7430   33.7610   50.4910 H   0  0  0  0  0  0  0  0  0  0  0  0
   39.1750   33.8760   49.1300 C   0  0  0  0  0  0  0  0  0  0  0  0
   38.4630   35.0610   48.9720 F   0  0  0  0  0  0  0  0  0  0  0  0
   39.9220   33.7250   48.0000 F   0  0  0  0  0  0  0  0  0  0  0  0
   39.9870   34.0640   50.2350 F   0  0  0  0  0  0  0  0  0  0  0  0
  1  2  1  0  0  0  0
  2  3  2  0  0  0  0
  2  7  1  0  0  0  0
  3  8  1  0  0  0  0
  4 19  1  0  0  0  0
  4  3  1  0  0  0  0
  5  4  2  0  0  0  0
  6  5  1  0  0  0  0
  6  1  2  0  0  0  0
  9  5  1  0  0  0  0
 10 16  1  0  0  0  0
 11 10  1  0  0  0  0
 11  1  1  0  0  0  0
 12 11  2  0  0  0  0
 13 12  1  0  0  0  0
 13 14  2  0  0  0  0
 14 15  1  0  0  0  0
 15 10  2  0  0  0  0
 17 12  1  0  0  0  0
 18 14  1  0  0  0  0
 19 20  1  0  0  0  0
 20 21  1  0  0  0  0
 21 22  2  0  0  0  0
 21 25  1  0  0  0  0
 22 26  1  0  0  0  0
 23 22  1  0  0  0  0
 24 20  2  0  0  0  0
 24 23  1  0  0  0  0
 27 23  1  0  0  0  0
 27 30  1  0  0  0  0
 28 27  1  0  0  0  0
 29 27  1  0  0  0  0
M  END
>  <minimizedAffinity>
-5.36496353

>  <minimizedRMSD>
1.43700826

$$$$
