
 OpenBabel03272501563D

 26 27  0  0  0  0  0  0  0  0999 V2000
   34.4610   28.1610   48.0940 C   0  0  0  0  0  0  0  0  0  0  0  0
   34.7910   27.1150   47.8200 H   0  0  0  0  0  0  0  0  0  0  0  0
   34.9380   28.9410   47.5010 H   0  0  0  0  0  0  0  0  0  0  0  0
   32.9790   28.1950   47.8490 C   0  0  0  0  0  0  0  0  0  0  0  0
   32.0310   27.4660   48.5480 C   0  0  0  0  0  0  0  0  0  0  0  0
   30.7550   27.7260   48.0750 C   0  0  0  0  0  0  0  0  0  0  0  0
   30.9720   28.6170   47.0880 N   0  0  0  0  0  0  0  0  0  0  0  0
   32.2700   28.8900   46.9580 N   0  0  0  0  0  0  0  0  0  0  0  0
   32.2460   26.7780   49.3640 H   0  0  0  0  0  0  0  0  0  0  0  0
   29.8060   27.3220   48.4040 H   0  0  0  0  0  0  0  0  0  0  0  0
   29.8840   29.1800   46.2940 C   0  0  0  0  0  0  0  0  0  0  0  0
   28.8730   29.5940   47.1480 F   0  0  0  0  0  0  0  0  0  0  0  0
   30.3080   30.3180   45.6340 F   0  0  0  0  0  0  0  0  0  0  0  0
   29.4080   28.2860   45.3640 F   0  0  0  0  0  0  0  0  0  0  0  0
   34.6330   28.3140   49.5880 C   0  0  0  0  0  0  0  0  0  0  0  0
   33.7740   28.8980   50.0090 H   0  0  0  0  0  0  0  0  0  0  0  0
   34.6610   27.3470   50.0920 H   0  0  0  0  0  0  0  0  0  0  0  0
   37.2770   30.1830   51.3620 C   0  0  0  0  0  0  0  0  0  0  0  0
   38.0630   30.6790   50.3140 C   0  0  0  0  0  0  0  0  0  0  0  0
   37.6640   30.3590   48.9920 C   0  0  0  0  0  0  0  0  0  0  0  0
   36.5600   29.6020   48.8070 N   0  0  0  0  0  0  0  0  0  0  0  0
   35.8380   29.1490   49.8630 C   0  0  0  0  0  0  0  0  0  0  0  0
   36.1920   29.4350   51.1060 N   0  0  0  0  0  0  0  0  0  0  0  0
   37.6350   30.4620   52.3440 H   0  0  0  0  0  0  0  0  0  0  0  0
   38.9500   31.2870   50.4330 H   0  0  0  0  0  0  0  0  0  0  0  0
   38.2030   30.6950   48.1320 H   0  0  0  0  0  0  0  0  0  0  0  0
  1 15  1  0  0  0  0
  2  1  1  0  0  0  0
  3  1  1  0  0  0  0
  4  1  1  0  0  0  0
  4  5  1  0  0  0  0
  5  9  1  0  0  0  0
  6 10  1  0  0  0  0
  6  5  2  0  0  0  0
  7  6  1  0  0  0  0
  8  7  1  0  0  0  0
  8  4  2  0  0  0  0
 11  7  1  0  0  0  0
 11 12  1  0  0  0  0
 13 11  1  0  0  0  0
 14 11  1  0  0  0  0
 15 22  1  0  0  0  0
 15 16  1  0  0  0  0
 15 17  1  0  0  0  0
 18 24  1  0  0  0  0
 19 25  1  0  0  0  0
 19 18  2  0  0  0  0
 20 19  1  0  0  0  0
 21 20  2  0  0  0  0
 21 22  1  0  0  0  0
 22 23  2  0  0  0  0
 23 18  1  0  0  0  0
 26 20  1  0  0  0  0
M  END
>  <minimizedAffinity>
-4.53726959

>  <minimizedRMSD>
0.072026521

$$$$
