
 OpenBabel03272509423D

 33 34  0  0  1  0  0  0  0  0999 V2000
   37.1050   30.9180   49.0930 C   0  0  0  0  0  0  0  0  0  0  0  0
   36.8240   31.8540   50.0870 C   0  0  0  0  0  0  0  0  0  0  0  0
   37.3840   33.1240   50.0730 C   0  0  0  0  0  0  0  0  0  0  0  0
   38.2520   33.4840   49.0380 C   0  0  0  0  0  0  0  0  0  0  0  0
   38.5170   32.5540   48.0690 C   0  0  0  0  0  0  0  0  0  0  0  0
   37.9400   31.2930   48.1170 C   0  0  0  0  0  0  0  0  0  0  0  0
   36.1440   31.5700   50.8930 H   0  0  0  0  0  0  0  0  0  0  0  0
   37.1120   33.7740   50.8770 H   0  0  0  0  0  0  0  0  0  0  0  0
   38.6490   34.4890   49.0910 H   0  0  0  0  0  0  0  0  0  0  0  0
   39.2080   32.9760   47.3320 H   0  0  0  0  0  0  0  0  0  0  0  0
   36.5460   29.5840   49.1220 C   0  0  2  0  0  0  0  0  0  0  0  0
   37.0340   29.0380   48.2260 H   0  0  0  0  0  0  0  0  0  0  0  0
   33.6440   29.7750   46.9450 C   0  0  0  0  0  0  0  0  0  0  0  0
   32.9060   28.6560   47.2630 C   0  0  0  0  0  0  0  0  0  0  0  0
   33.3690   27.8410   48.2850 C   0  0  0  0  0  0  0  0  0  0  0  0
   34.5360   28.1740   48.9380 N   0  0  0  0  0  0  0  0  0  0  0  0
   35.1950   29.2570   48.5840 C   0  0  0  0  0  0  0  0  0  0  0  0
   34.7570   30.0670   47.5890 N   0  0  0  0  0  0  0  0  0  0  0  0
   33.2380   30.3750   46.1430 H   0  0  0  0  0  0  0  0  0  0  0  0
   31.9880   28.3130   46.8120 H   0  0  0  0  0  0  0  0  0  0  0  0
   32.9330   26.9270   48.6800 H   0  0  0  0  0  0  0  0  0  0  0  0
   37.0660   28.8470   50.0400 O   0  0  0  0  0  0  0  0  0  0  0  0
   36.8510   28.9630   50.9920 H   0  0  0  0  0  0  0  0  0  0  0  0
   38.3390   30.4020   47.0540 C   0  0  0  0  0  3  0  0  0  0  0  0
   38.6900   30.8130   45.8290 C   0  0  0  0  0  3  0  0  0  0  0  0
   39.1600   29.9990   44.6840 C   0  0  0  0  0  0  0  0  0  0  0  0
   38.2990   29.6430   44.0640 H   0  0  0  0  0  0  0  0  0  0  0  0
   39.6270   29.0750   45.1000 H   0  0  0  0  0  0  0  0  0  0  0  0
   40.3710   30.9250   43.7360 S   0  0  0  0  0  0  0  0  0  0  0  0
   40.7460   30.0540   42.1760 C   0  0  0  0  0  0  0  0  0  0  0  0
   40.8580   31.0200   41.1770 F   0  0  0  0  0  0  0  0  0  0  0  0
   39.6710   29.2190   41.8340 F   0  0  0  0  0  0  0  0  0  0  0  0
   41.9000   29.3290   42.2630 F   0  0  0  0  0  0  0  0  0  0  0  0
  1 11  1  0  0  0  0
  1  2  1  0  0  0  0
  2  7  1  0  0  0  0
  3  2  2  0  0  0  0
  3  8  1  0  0  0  0
  4  9  1  0  0  0  0
  4  3  1  0  0  0  0
  5  6  1  0  0  0  0
  5  4  2  0  0  0  0
  6  1  2  0  0  0  0
 10  5  1  0  0  0  0
 11 12  1  6  0  0  0
 11 22  1  0  0  0  0
 13 14  2  0  0  0  0
 13 18  1  0  0  0  0
 14 15  1  0  0  0  0
 15 21  1  0  0  0  0
 15 16  2  0  0  0  0
 17 16  1  0  0  0  0
 17 11  1  0  0  0  0
 18 17  2  0  0  0  0
 19 13  1  0  0  0  0
 20 14  1  0  0  0  0
 22 23  1  0  0  0  0
 24  6  1  0  0  0  0
 25 24  2  0  0  0  0
 26 28  1  0  0  0  0
 26 25  1  0  0  0  0
 27 26  1  0  0  0  0
 29 26  1  0  0  0  0
 30 33  1  0  0  0  0
 30 29  1  0  0  0  0
 31 30  1  0  0  0  0
 32 30  1  0  0  0  0
M  END
>  <minimizedAffinity>
-5.75529766

>  <minimizedRMSD>
0.622461438

$$$$
