
 OpenBabel03272502273D

 35 37  0  0  0  0  0  0  0  0999 V2000
   36.0860   26.1780   31.5550 C   0  0  0  0  0  0  0  0  0  0  0  0
   36.8820   25.3510   32.3760 C   0  0  0  0  0  0  0  0  0  0  0  0
   37.4000   25.9130   33.5310 C   0  0  0  0  0  0  0  0  0  0  0  0
   37.1080   27.1890   33.7820 N   0  0  0  0  0  0  0  0  0  0  0  0
   36.3480   27.9680   32.9930 C   0  0  0  0  0  0  0  0  0  0  0  0
   35.8360   27.4570   31.8740 N   0  0  0  0  0  0  0  0  0  0  0  0
   35.6770   25.7440   30.6470 H   0  0  0  0  0  0  0  0  0  0  0  0
   37.1010   24.3170   32.1460 H   0  0  0  0  0  0  0  0  0  0  0  0
   38.2250   25.1700   34.4520 C   0  0  0  0  0  0  0  0  0  0  0  0
   39.4550   24.6700   34.0460 C   0  0  0  0  0  0  0  0  0  0  0  0
   40.2860   23.9550   34.8770 C   0  0  0  0  0  0  0  0  0  0  0  0
   39.8990   23.7190   36.1510 N   0  0  0  0  0  0  0  0  0  0  0  0
   38.7070   24.2110   36.5250 C   0  0  0  0  0  0  0  0  0  0  0  0
   37.8740   24.9140   35.7310 N   0  0  0  0  0  0  0  0  0  0  0  0
   39.7460   24.8710   33.0160 H   0  0  0  0  0  0  0  0  0  0  0  0
   41.2430   23.5830   34.5100 H   0  0  0  0  0  0  0  0  0  0  0  0
   38.2480   23.9730   37.9200 C   0  0  0  0  0  0  0  0  0  0  0  0
   39.2980   23.3140   38.5990 F   0  0  0  0  0  0  0  0  0  0  0  0
   37.9010   25.1340   38.5380 F   0  0  0  0  0  0  0  0  0  0  0  0
   37.2000   23.0720   37.9650 F   0  0  0  0  0  0  0  0  0  0  0  0
   36.1500   29.2820   33.4140 O   0  0  0  0  0  0  0  0  0  0  0  0
   32.5720   29.8660   34.0110 N   0  0  0  0  0  0  0  0  0  0  0  0
   33.6610   29.3820   33.3900 C   0  0  0  0  0  0  0  0  0  0  0  0
   34.9220   29.6740   33.8950 C   0  0  0  0  0  0  0  0  0  0  0  0
   35.0190   30.4630   35.0320 C   0  0  0  0  0  0  0  0  0  0  0  0
   36.0540   30.8430   35.6440 O   0  0  0  0  0  0  0  0  0  0  0  0
   33.8750   30.9220   35.6120 N   0  0  0  0  0  0  0  0  0  0  0  0
   32.6700   30.6240   35.1050 C   0  0  0  0  0  0  0  0  0  0  0  0
   31.5870   31.0350   35.6200 O   0  0  0  0  0  0  0  0  0  0  0  0
   31.6720   29.5920   33.5580 H   0  0  0  0  0  0  0  0  0  0  0  0
   33.6710   28.7640   32.5070 H   0  0  0  0  0  0  0  0  0  0  0  0
   33.8660   31.7540   36.8040 C   0  0  0  0  0  0  0  0  0  0  0  0
   35.1920   31.9180   37.2140 F   0  0  0  0  0  0  0  0  0  0  0  0
   33.1310   31.2410   37.8320 F   0  0  0  0  0  0  0  0  0  0  0  0
   33.4320   33.0270   36.4280 F   0  0  0  0  0  0  0  0  0  0  0  0
  1  6  2  0  0  0  0
  1  2  1  0  0  0  0
  2  3  2  0  0  0  0
  3  4  1  0  0  0  0
  3  9  1  0  0  0  0
  5 21  1  0  0  0  0
  5  4  2  0  0  0  0
  6  5  1  0  0  0  0
  7  1  1  0  0  0  0
  8  2  1  0  0  0  0
  9 14  1  0  0  0  0
 10  9  2  0  0  0  0
 10 11  1  0  0  0  0
 11 12  2  0  0  0  0
 12 13  1  0  0  0  0
 13 17  1  0  0  0  0
 14 13  2  0  0  0  0
 15 10  1  0  0  0  0
 16 11  1  0  0  0  0
 17 20  1  0  0  0  0
 17 19  1  0  0  0  0
 17 18  1  0  0  0  0
 21 24  1  0  0  0  0
 22 28  1  0  0  0  0
 23 24  2  0  0  0  0
 23 22  1  0  0  0  0
 24 25  1  0  0  0  0
 25 27  1  0  0  0  0
 25 26  2  0  0  0  0
 27 32  1  0  0  0  0
 28 27  1  0  0  0  0
 28 29  2  0  0  0  0
 30 22  1  0  0  0  0
 31 23  1  0  0  0  0
 32 33  1  0  0  0  0
 32 34  1  0  0  0  0
 35 32  1  0  0  0  0
M  END
>  <minimizedAffinity>
-6.6786027

$$$$

 OpenBabel03272502273D

 35 37  0  0  0  0  0  0  0  0999 V2000
   35.7310   25.8080   31.4040 C   0  0  0  0  0  0  0  0  0  0  0  0
   35.4110   24.4520   31.1780 C   0  0  0  0  0  0  0  0  0  0  0  0
   36.2260   23.5010   31.7700 C   0  0  0  0  0  0  0  0  0  0  0  0
   37.2480   23.9350   32.5070 N   0  0  0  0  0  0  0  0  0  0  0  0
   37.5430   25.2290   32.7160 C   0  0  0  0  0  0  0  0  0  0  0  0
   36.7790   26.1680   32.1600 N   0  0  0  0  0  0  0  0  0  0  0  0
   35.0970   26.5600   30.9430 H   0  0  0  0  0  0  0  0  0  0  0  0
   34.5740   24.1300   30.5740 H   0  0  0  0  0  0  0  0  0  0  0  0
   36.0010   22.0840   31.6150 C   0  0  0  0  0  0  0  0  0  0  0  0
   35.0930   21.4240   32.4310 C   0  0  0  0  0  0  0  0  0  0  0  0
   34.8350   20.0770   32.3310 C   0  0  0  0  0  0  0  0  0  0  0  0
   35.4910   19.3480   31.4000 N   0  0  0  0  0  0  0  0  0  0  0  0
   36.3660   20.0040   30.6210 C   0  0  0  0  0  0  0  0  0  0  0  0
   36.6360   21.3220   30.6980 N   0  0  0  0  0  0  0  0  0  0  0  0
   34.5760   22.0310   33.1740 H   0  0  0  0  0  0  0  0  0  0  0  0
   34.1110   19.6040   32.9960 H   0  0  0  0  0  0  0  0  0  0  0  0
   37.1050   19.2350   29.5840 C   0  0  0  0  0  0  0  0  0  0  0  0
   37.7420   18.1560   30.2380 F   0  0  0  0  0  0  0  0  0  0  0  0
   36.2770   18.8060   28.5940 F   0  0  0  0  0  0  0  0  0  0  0  0
   38.1490   19.9710   29.0520 F   0  0  0  0  0  0  0  0  0  0  0  0
   38.6520   25.4980   33.5160 O   0  0  0  0  0  0  0  0  0  0  0  0
   40.4010   22.6860   35.1070 N   0  0  0  0  0  0  0  0  0  0  0  0
   40.0600   23.5350   34.1230 C   0  0  0  0  0  0  0  0  0  0  0  0
   39.1320   24.5370   34.3770 C   0  0  0  0  0  0  0  0  0  0  0  0
   38.5820   24.6330   35.6470 C   0  0  0  0  0  0  0  0  0  0  0  0
   37.7340   25.4580   36.0810 O   0  0  0  0  0  0  0  0  0  0  0  0
   38.9720   23.7390   36.5990 N   0  0  0  0  0  0  0  0  0  0  0  0
   39.8700   22.7810   36.3280 C   0  0  0  0  0  0  0  0  0  0  0  0
   40.2530   21.9350   37.1900 O   0  0  0  0  0  0  0  0  0  0  0  0
   41.1030   21.9690   34.8210 H   0  0  0  0  0  0  0  0  0  0  0  0
   40.4400   23.5290   33.1150 H   0  0  0  0  0  0  0  0  0  0  0  0
   38.4580   23.7510   37.9590 C   0  0  0  0  0  0  0  0  0  0  0  0
   37.9880   25.0410   38.2200 F   0  0  0  0  0  0  0  0  0  0  0  0
   39.3780   23.4010   38.9010 F   0  0  0  0  0  0  0  0  0  0  0  0
   37.3300   22.9290   37.9920 F   0  0  0  0  0  0  0  0  0  0  0  0
  1  6  1  0  0  0  0
  2  1  2  0  0  0  0
  2  3  1  0  0  0  0
  3  4  2  0  0  0  0
  4  5  1  0  0  0  0
  5 21  1  0  0  0  0
  6  5  2  0  0  0  0
  7  1  1  0  0  0  0
  8  2  1  0  0  0  0
  9  3  1  0  0  0  0
  9 10  1  0  0  0  0
 10 15  1  0  0  0  0
 11 10  2  0  0  0  0
 11 16  1  0  0  0  0
 12 11  1  0  0  0  0
 13 14  1  0  0  0  0
 13 12  2  0  0  0  0
 14  9  2  0  0  0  0
 17 18  1  0  0  0  0
 17 13  1  0  0  0  0
 19 17  1  0  0  0  0
 20 17  1  0  0  0  0
 21 24  1  0  0  0  0
 22 28  1  0  0  0  0
 23 24  2  0  0  0  0
 23 22  1  0  0  0  0
 24 25  1  0  0  0  0
 25 26  2  0  0  0  0
 25 27  1  0  0  0  0
 27 32  1  0  0  0  0
 28 27  1  0  0  0  0
 28 29  2  0  0  0  0
 30 22  1  0  0  0  0
 31 23  1  0  0  0  0
 32 35  1  0  0  0  0
 32 33  1  0  0  0  0
 32 34  1  0  0  0  0
M  END
>  <minimizedAffinity>
-6.67828989

$$$$

 OpenBabel03272502273D

 35 37  0  0  0  0  0  0  0  0999 V2000
   35.5610   27.9600   31.9070 C   0  0  0  0  0  0  0  0  0  0  0  0
   34.9510   28.9290   32.7310 C   0  0  0  0  0  0  0  0  0  0  0  0
   35.5250   29.1590   33.9710 C   0  0  0  0  0  0  0  0  0  0  0  0
   36.6070   28.4500   34.2930 N   0  0  0  0  0  0  0  0  0  0  0  0
   37.1800   27.5300   33.4990 C   0  0  0  0  0  0  0  0  0  0  0  0
   36.6520   27.2850   32.3000 N   0  0  0  0  0  0  0  0  0  0  0  0
   35.1170   27.7750   30.9330 H   0  0  0  0  0  0  0  0  0  0  0  0
   34.0730   29.4900   32.4420 H   0  0  0  0  0  0  0  0  0  0  0  0
   34.9950   30.1250   34.9020 C   0  0  0  0  0  0  0  0  0  0  0  0
   35.8210   31.0950   35.4540 C   0  0  0  0  0  0  0  0  0  0  0  0
   35.3740   32.0430   36.3460 C   0  0  0  0  0  0  0  0  0  0  0  0
   34.0730   32.0410   36.7120 N   0  0  0  0  0  0  0  0  0  0  0  0
   33.2900   31.0950   36.1670 C   0  0  0  0  0  0  0  0  0  0  0  0
   33.7020   30.1560   35.2920 N   0  0  0  0  0  0  0  0  0  0  0  0
   36.8650   31.0770   35.1450 H   0  0  0  0  0  0  0  0  0  0  0  0
   36.0640   32.7840   36.7510 H   0  0  0  0  0  0  0  0  0  0  0  0
   31.8520   31.0630   36.5460 C   0  0  0  0  0  0  0  0  0  0  0  0
   31.6800   29.9900   37.4490 F   0  0  0  0  0  0  0  0  0  0  0  0
   31.4500   32.2450   37.0870 F   0  0  0  0  0  0  0  0  0  0  0  0
   31.0490   30.7300   35.4700 F   0  0  0  0  0  0  0  0  0  0  0  0
   38.3080   26.8840   34.0010 O   0  0  0  0  0  0  0  0  0  0  0  0
   38.0700   23.2260   34.2260 N   0  0  0  0  0  0  0  0  0  0  0  0
   38.1380   24.4280   33.6290 C   0  0  0  0  0  0  0  0  0  0  0  0
   38.2300   25.5730   34.4100 C   0  0  0  0  0  0  0  0  0  0  0  0
   38.2460   25.4410   35.7910 C   0  0  0  0  0  0  0  0  0  0  0  0
   38.3220   26.3400   36.6710 O   0  0  0  0  0  0  0  0  0  0  0  0
   38.1740   24.1920   36.3310 N   0  0  0  0  0  0  0  0  0  0  0  0
   38.0880   23.1020   35.5550 C   0  0  0  0  0  0  0  0  0  0  0  0
   38.0180   21.9270   36.0250 O   0  0  0  0  0  0  0  0  0  0  0  0
   38.0050   22.4260   33.5570 H   0  0  0  0  0  0  0  0  0  0  0  0
   38.1320   24.6160   32.5680 H   0  0  0  0  0  0  0  0  0  0  0  0
   38.1840   23.9420   37.7630 C   0  0  0  0  0  0  0  0  0  0  0  0
   37.2100   22.9750   38.0290 F   0  0  0  0  0  0  0  0  0  0  0  0
   37.9450   25.0500   38.5200 F   0  0  0  0  0  0  0  0  0  0  0  0
   39.4030   23.3400   38.0790 F   0  0  0  0  0  0  0  0  0  0  0  0
  1  6  2  0  0  0  0
  1  2  1  0  0  0  0
  2  3  2  0  0  0  0
  3  4  1  0  0  0  0
  3  9  1  0  0  0  0
  5 21  1  0  0  0  0
  5  4  2  0  0  0  0
  6  5  1  0  0  0  0
  7  1  1  0  0  0  0
  8  2  1  0  0  0  0
  9 14  2  0  0  0  0
  9 10  1  0  0  0  0
 10 11  2  0  0  0  0
 11 12  1  0  0  0  0
 11 16  1  0  0  0  0
 13 17  1  0  0  0  0
 13 12  2  0  0  0  0
 14 13  1  0  0  0  0
 15 10  1  0  0  0  0
 17 19  1  0  0  0  0
 17 18  1  0  0  0  0
 20 17  1  0  0  0  0
 21 24  1  0  0  0  0
 22 28  1  0  0  0  0
 23 22  1  0  0  0  0
 23 24  2  0  0  0  0
 24 25  1  0  0  0  0
 25 27  1  0  0  0  0
 25 26  2  0  0  0  0
 27 32  1  0  0  0  0
 28 29  2  0  0  0  0
 28 27  1  0  0  0  0
 30 22  1  0  0  0  0
 31 23  1  0  0  0  0
 32 33  1  0  0  0  0
 32 35  1  0  0  0  0
 32 34  1  0  0  0  0
M  END
>  <minimizedAffinity>
-6.60667181

$$$$

 OpenBabel03272502273D

 35 37  0  0  0  0  0  0  0  0999 V2000
   36.6410   28.1870   31.3080 C   0  0  0  0  0  0  0  0  0  0  0  0
   35.5320   28.8540   31.8700 C   0  0  0  0  0  0  0  0  0  0  0  0
   35.4500   28.8950   33.2520 C   0  0  0  0  0  0  0  0  0  0  0  0
   36.4210   28.3030   33.9470 N   0  0  0  0  0  0  0  0  0  0  0  0
   37.4740   27.6700   33.4010 C   0  0  0  0  0  0  0  0  0  0  0  0
   37.5820   27.6130   32.0740 N   0  0  0  0  0  0  0  0  0  0  0  0
   36.7130   28.1510   30.2240 H   0  0  0  0  0  0  0  0  0  0  0  0
   34.7580   29.3260   31.2800 H   0  0  0  0  0  0  0  0  0  0  0  0
   34.3660   29.5480   33.9450 C   0  0  0  0  0  0  0  0  0  0  0  0
   33.0600   29.4090   33.4950 C   0  0  0  0  0  0  0  0  0  0  0  0
   31.9850   30.0060   34.1130 C   0  0  0  0  0  0  0  0  0  0  0  0
   32.1960   30.7680   35.2100 N   0  0  0  0  0  0  0  0  0  0  0  0
   33.4670   30.8910   35.6290 C   0  0  0  0  0  0  0  0  0  0  0  0
   34.5360   30.3160   35.0430 N   0  0  0  0  0  0  0  0  0  0  0  0
   32.9140   28.7910   32.6100 H   0  0  0  0  0  0  0  0  0  0  0  0
   30.9780   29.8660   33.7200 H   0  0  0  0  0  0  0  0  0  0  0  0
   33.7370   31.7210   36.8330 C   0  0  0  0  0  0  0  0  0  0  0  0
   33.4430   33.0600   36.4940 F   0  0  0  0  0  0  0  0  0  0  0  0
   33.0090   31.3010   37.9040 F   0  0  0  0  0  0  0  0  0  0  0  0
   35.0840   31.7400   37.1470 F   0  0  0  0  0  0  0  0  0  0  0  0
   38.3940   27.1080   34.2840 O   0  0  0  0  0  0  0  0  0  0  0  0
   38.1600   23.4420   34.2950 N   0  0  0  0  0  0  0  0  0  0  0  0
   38.2410   24.6760   33.7690 C   0  0  0  0  0  0  0  0  0  0  0  0
   38.3070   25.7750   34.6160 C   0  0  0  0  0  0  0  0  0  0  0  0
   38.2850   25.5660   35.9870 C   0  0  0  0  0  0  0  0  0  0  0  0
   38.3330   26.4140   36.9180 O   0  0  0  0  0  0  0  0  0  0  0  0
   38.2000   24.2880   36.4530 N   0  0  0  0  0  0  0  0  0  0  0  0
   38.1390   23.2430   35.6150 C   0  0  0  0  0  0  0  0  0  0  0  0
   38.0590   22.0440   36.0160 O   0  0  0  0  0  0  0  0  0  0  0  0
   38.1160   22.6820   33.5810 H   0  0  0  0  0  0  0  0  0  0  0  0
   38.2650   24.9230   32.7210 H   0  0  0  0  0  0  0  0  0  0  0  0
   38.1700   23.9590   37.8690 C   0  0  0  0  0  0  0  0  0  0  0  0
   37.1650   23.0050   38.0580 F   0  0  0  0  0  0  0  0  0  0  0  0
   37.9430   25.0290   38.6820 F   0  0  0  0  0  0  0  0  0  0  0  0
   39.3650   23.3050   38.1760 F   0  0  0  0  0  0  0  0  0  0  0  0
  1  2  2  0  0  0  0
  1  6  1  0  0  0  0
  2  3  1  0  0  0  0
  3  9  1  0  0  0  0
  3  4  2  0  0  0  0
  5  4  1  0  0  0  0
  5 21  1  0  0  0  0
  6  5  2  0  0  0  0
  7  1  1  0  0  0  0
  8  2  1  0  0  0  0
  9 14  1  0  0  0  0
 10  9  2  0  0  0  0
 10 11  1  0  0  0  0
 11 12  2  0  0  0  0
 12 13  1  0  0  0  0
 13 17  1  0  0  0  0
 14 13  2  0  0  0  0
 15 10  1  0  0  0  0
 16 11  1  0  0  0  0
 17 20  1  0  0  0  0
 17 19  1  0  0  0  0
 18 17  1  0  0  0  0
 21 24  1  0  0  0  0
 22 28  1  0  0  0  0
 23 22  1  0  0  0  0
 23 24  2  0  0  0  0
 24 25  1  0  0  0  0
 25 27  1  0  0  0  0
 25 26  2  0  0  0  0
 27 32  1  0  0  0  0
 28 29  2  0  0  0  0
 28 27  1  0  0  0  0
 30 22  1  0  0  0  0
 31 23  1  0  0  0  0
 32 33  1  0  0  0  0
 32 35  1  0  0  0  0
 32 34  1  0  0  0  0
M  END
>  <minimizedAffinity>
-6.58418226

$$$$

 OpenBabel03272502273D

 35 37  0  0  0  0  0  0  0  0999 V2000
   36.1990   26.1650   31.6240 C   0  0  0  0  0  0  0  0  0  0  0  0
   36.0690   24.8160   31.2330 C   0  0  0  0  0  0  0  0  0  0  0  0
   36.9490   23.9050   31.7940 C   0  0  0  0  0  0  0  0  0  0  0  0
   37.8500   24.3690   32.6590 N   0  0  0  0  0  0  0  0  0  0  0  0
   37.9650   25.6570   33.0250 C   0  0  0  0  0  0  0  0  0  0  0  0
   37.1340   26.5580   32.5030 N   0  0  0  0  0  0  0  0  0  0  0  0
   35.5120   26.8860   31.1890 H   0  0  0  0  0  0  0  0  0  0  0  0
   35.3260   24.4690   30.5280 H   0  0  0  0  0  0  0  0  0  0  0  0
   36.9150   22.4980   31.4760 C   0  0  0  0  0  0  0  0  0  0  0  0
   37.8500   21.9520   30.6070 C   0  0  0  0  0  0  0  0  0  0  0  0
   37.8690   20.6190   30.2660 C   0  0  0  0  0  0  0  0  0  0  0  0
   36.9400   19.7910   30.7930 N   0  0  0  0  0  0  0  0  0  0  0  0
   36.0440   20.3380   31.6310 C   0  0  0  0  0  0  0  0  0  0  0  0
   36.0040   21.6390   31.9820 N   0  0  0  0  0  0  0  0  0  0  0  0
   38.5890   22.6380   30.1940 H   0  0  0  0  0  0  0  0  0  0  0  0
   38.6250   20.2390   29.5780 H   0  0  0  0  0  0  0  0  0  0  0  0
   35.0070   19.4580   32.2320 C   0  0  0  0  0  0  0  0  0  0  0  0
   35.2060   19.4680   33.6310 F   0  0  0  0  0  0  0  0  0  0  0  0
   33.7510   19.8650   31.8990 F   0  0  0  0  0  0  0  0  0  0  0  0
   35.1930   18.1340   31.8750 F   0  0  0  0  0  0  0  0  0  0  0  0
   38.9680   25.9610   33.9430 O   0  0  0  0  0  0  0  0  0  0  0  0
   40.8860   23.2940   35.5880 N   0  0  0  0  0  0  0  0  0  0  0  0
   40.5840   24.1980   34.6410 C   0  0  0  0  0  0  0  0  0  0  0  0
   39.4500   24.9870   34.7880 C   0  0  0  0  0  0  0  0  0  0  0  0
   38.6570   24.8150   35.9140 C   0  0  0  0  0  0  0  0  0  0  0  0
   37.5990   25.4190   36.2350 O   0  0  0  0  0  0  0  0  0  0  0  0
   39.0210   23.8790   36.8350 N   0  0  0  0  0  0  0  0  0  0  0  0
   40.1220   23.1310   36.6700 C   0  0  0  0  0  0  0  0  0  0  0  0
   40.4880   22.2530   37.5070 O   0  0  0  0  0  0  0  0  0  0  0  0
   41.7560   22.7510   35.3900 H   0  0  0  0  0  0  0  0  0  0  0  0
   41.1450   24.3940   33.7420 H   0  0  0  0  0  0  0  0  0  0  0  0
   38.2630   23.6190   38.0470 C   0  0  0  0  0  0  0  0  0  0  0  0
   37.8420   24.8530   38.5540 F   0  0  0  0  0  0  0  0  0  0  0  0
   38.9630   22.9490   39.0060 F   0  0  0  0  0  0  0  0  0  0  0  0
   37.0940   22.9490   37.6800 F   0  0  0  0  0  0  0  0  0  0  0  0
  1  6  1  0  0  0  0
  2  1  2  0  0  0  0
  2  3  1  0  0  0  0
  3  4  2  0  0  0  0
  4  5  1  0  0  0  0
  5 21  1  0  0  0  0
  6  5  2  0  0  0  0
  7  1  1  0  0  0  0
  8  2  1  0  0  0  0
  9  3  1  0  0  0  0
  9 14  1  0  0  0  0
 10  9  2  0  0  0  0
 11 10  1  0  0  0  0
 11 12  2  0  0  0  0
 12 13  1  0  0  0  0
 13 14  2  0  0  0  0
 13 17  1  0  0  0  0
 15 10  1  0  0  0  0
 16 11  1  0  0  0  0
 17 18  1  0  0  0  0
 19 17  1  0  0  0  0
 20 17  1  0  0  0  0
 21 24  1  0  0  0  0
 22 28  1  0  0  0  0
 23 24  2  0  0  0  0
 23 22  1  0  0  0  0
 24 25  1  0  0  0  0
 25 26  2  0  0  0  0
 25 27  1  0  0  0  0
 27 32  1  0  0  0  0
 28 27  1  0  0  0  0
 28 29  2  0  0  0  0
 30 22  1  0  0  0  0
 31 23  1  0  0  0  0
 32 33  1  0  0  0  0
 32 34  1  0  0  0  0
 35 32  1  0  0  0  0
M  END
>  <minimizedAffinity>
-6.53328037

$$$$

 OpenBabel03272502273D

 35 37  0  0  0  0  0  0  0  0999 V2000
   37.1870   27.0330   33.7630 C   0  0  0  0  0  0  0  0  0  0  0  0
   37.6870   26.4340   34.9380 C   0  0  0  0  0  0  0  0  0  0  0  0
   37.9750   25.0790   34.8860 C   0  0  0  0  0  0  0  0  0  0  0  0
   37.7600   24.4450   33.7340 N   0  0  0  0  0  0  0  0  0  0  0  0
   37.2840   25.0270   32.6200 C   0  0  0  0  0  0  0  0  0  0  0  0
   36.9970   26.3280   32.6380 N   0  0  0  0  0  0  0  0  0  0  0  0
   36.9590   28.0950   33.7960 H   0  0  0  0  0  0  0  0  0  0  0  0
   37.8520   26.9750   35.8600 H   0  0  0  0  0  0  0  0  0  0  0  0
   38.4930   24.3540   36.0200 C   0  0  0  0  0  0  0  0  0  0  0  0
   37.8380   24.4010   37.2430 C   0  0  0  0  0  0  0  0  0  0  0  0
   38.2810   23.7300   38.3590 C   0  0  0  0  0  0  0  0  0  0  0  0
   39.4080   22.9870   38.2770 N   0  0  0  0  0  0  0  0  0  0  0  0
   40.0280   22.9540   37.0860 C   0  0  0  0  0  0  0  0  0  0  0  0
   39.6140   23.6000   35.9780 N   0  0  0  0  0  0  0  0  0  0  0  0
   36.9330   25.0060   37.2870 H   0  0  0  0  0  0  0  0  0  0  0  0
   37.7300   23.8000   39.2980 H   0  0  0  0  0  0  0  0  0  0  0  0
   41.2700   22.1460   36.9560 C   0  0  0  0  0  0  0  0  0  0  0  0
   42.3540   23.0510   36.8950 F   0  0  0  0  0  0  0  0  0  0  0  0
   41.4050   21.2680   37.9870 F   0  0  0  0  0  0  0  0  0  0  0  0
   41.3200   21.4780   35.7460 F   0  0  0  0  0  0  0  0  0  0  0  0
   37.1220   24.2080   31.5050 O   0  0  0  0  0  0  0  0  0  0  0  0
   38.7050   20.8930   31.5360 N   0  0  0  0  0  0  0  0  0  0  0  0
   38.6320   22.2290   31.4120 C   0  0  0  0  0  0  0  0  0  0  0  0
   37.4090   22.8640   31.5870 C   0  0  0  0  0  0  0  0  0  0  0  0
   36.2930   22.0960   31.8840 C   0  0  0  0  0  0  0  0  0  0  0  0
   35.1040   22.4690   32.0780 O   0  0  0  0  0  0  0  0  0  0  0  0
   36.4370   20.7450   31.9950 N   0  0  0  0  0  0  0  0  0  0  0  0
   37.6290   20.1560   31.8230 C   0  0  0  0  0  0  0  0  0  0  0  0
   37.7970   18.9040   31.9180 O   0  0  0  0  0  0  0  0  0  0  0  0
   39.6640   20.5080   31.3880 H   0  0  0  0  0  0  0  0  0  0  0  0
   39.4470   22.8950   31.1860 H   0  0  0  0  0  0  0  0  0  0  0  0
   35.3340   19.8500   32.3020 C   0  0  0  0  0  0  0  0  0  0  0  0
   35.4740   18.7160   31.4950 F   0  0  0  0  0  0  0  0  0  0  0  0
   34.1030   20.4000   32.1060 F   0  0  0  0  0  0  0  0  0  0  0  0
   35.5090   19.3980   33.6120 F   0  0  0  0  0  0  0  0  0  0  0  0
  1  7  1  0  0  0  0
  1  2  1  0  0  0  0
  2  8  1  0  0  0  0
  3  2  2  0  0  0  0
  3  9  1  0  0  0  0
  4  3  1  0  0  0  0
  5  6  1  0  0  0  0
  5  4  2  0  0  0  0
  6  1  2  0  0  0  0
  9 10  1  0  0  0  0
 10 15  1  0  0  0  0
 10 11  2  0  0  0  0
 11 16  1  0  0  0  0
 12 11  1  0  0  0  0
 13 12  2  0  0  0  0
 14  9  2  0  0  0  0
 14 13  1  0  0  0  0
 17 13  1  0  0  0  0
 17 19  1  0  0  0  0
 18 17  1  0  0  0  0
 20 17  1  0  0  0  0
 21 24  1  0  0  0  0
 21  5  1  0  0  0  0
 22 28  1  0  0  0  0
 23 22  1  0  0  0  0
 23 24  2  0  0  0  0
 24 25  1  0  0  0  0
 25 27  1  0  0  0  0
 25 26  2  0  0  0  0
 27 32  1  0  0  0  0
 28 29  2  0  0  0  0
 28 27  1  0  0  0  0
 30 22  1  0  0  0  0
 31 23  1  0  0  0  0
 32 35  1  0  0  0  0
 33 32  1  0  0  0  0
 34 32  1  0  0  0  0
M  END
>  <minimizedAffinity>
-6.49744892

$$$$

 OpenBabel03272502273D

 35 37  0  0  0  0  0  0  0  0999 V2000
   35.4740   20.5350   33.2020 C   0  0  0  0  0  0  0  0  0  0  0  0
   36.3430   20.8250   34.2750 C   0  0  0  0  0  0  0  0  0  0  0  0
   37.2280   21.8780   34.1090 C   0  0  0  0  0  0  0  0  0  0  0  0
   37.1930   22.5380   32.9520 N   0  0  0  0  0  0  0  0  0  0  0  0
   36.3600   22.2540   31.9350 C   0  0  0  0  0  0  0  0  0  0  0  0
   35.4970   21.2460   32.0640 N   0  0  0  0  0  0  0  0  0  0  0  0
   34.7770   19.7110   33.3250 H   0  0  0  0  0  0  0  0  0  0  0  0
   36.3480   20.2710   35.2040 H   0  0  0  0  0  0  0  0  0  0  0  0
   38.1640   22.2720   35.1330 C   0  0  0  0  0  0  0  0  0  0  0  0
   39.5310   22.1710   34.9130 C   0  0  0  0  0  0  0  0  0  0  0  0
   40.4710   22.5320   35.8500 C   0  0  0  0  0  0  0  0  0  0  0  0
   40.0590   23.0070   37.0470 N   0  0  0  0  0  0  0  0  0  0  0  0
   38.7330   23.0970   37.2410 C   0  0  0  0  0  0  0  0  0  0  0  0
   37.7920   22.7510   36.3410 N   0  0  0  0  0  0  0  0  0  0  0  0
   39.8390   21.7860   33.9420 H   0  0  0  0  0  0  0  0  0  0  0  0
   41.5340   22.4340   35.6280 H   0  0  0  0  0  0  0  0  0  0  0  0
   38.2430   23.6160   38.5460 C   0  0  0  0  0  0  0  0  0  0  0  0
   37.7910   24.9370   38.3280 F   0  0  0  0  0  0  0  0  0  0  0  0
   37.2620   22.8270   39.0620 F   0  0  0  0  0  0  0  0  0  0  0  0
   39.2740   23.7590   39.4570 F   0  0  0  0  0  0  0  0  0  0  0  0
   36.4640   23.0510   30.7980 O   0  0  0  0  0  0  0  0  0  0  0  0
   35.1770   26.4750   31.1330 N   0  0  0  0  0  0  0  0  0  0  0  0
   35.1250   25.1340   31.0640 C   0  0  0  0  0  0  0  0  0  0  0  0
   36.3010   24.4140   30.8920 C   0  0  0  0  0  0  0  0  0  0  0  0
   37.5000   25.1050   30.7950 C   0  0  0  0  0  0  0  0  0  0  0  0
   38.6650   24.6500   30.6390 O   0  0  0  0  0  0  0  0  0  0  0  0
   37.4810   26.4650   30.8730 N   0  0  0  0  0  0  0  0  0  0  0  0
   36.3320   27.1370   31.0400 C   0  0  0  0  0  0  0  0  0  0  0  0
   36.2800   28.4010   31.1150 O   0  0  0  0  0  0  0  0  0  0  0  0
   34.2440   26.9260   31.2630 H   0  0  0  0  0  0  0  0  0  0  0  0
   34.2400   24.5240   31.1310 H   0  0  0  0  0  0  0  0  0  0  0  0
   38.6780   27.2840   30.7840 C   0  0  0  0  0  0  0  0  0  0  0  0
   38.3300   28.4700   30.1290 F   0  0  0  0  0  0  0  0  0  0  0  0
   39.7110   26.6860   30.1250 F   0  0  0  0  0  0  0  0  0  0  0  0
   39.0290   27.6640   32.0810 F   0  0  0  0  0  0  0  0  0  0  0  0
  1  7  1  0  0  0  0
  1  2  1  0  0  0  0
  2  8  1  0  0  0  0
  3  2  2  0  0  0  0
  3  9  1  0  0  0  0
  4  3  1  0  0  0  0
  5  6  1  0  0  0  0
  5  4  2  0  0  0  0
  6  1  2  0  0  0  0
  9 14  1  0  0  0  0
 10  9  2  0  0  0  0
 10 11  1  0  0  0  0
 11 12  2  0  0  0  0
 12 13  1  0  0  0  0
 13 17  1  0  0  0  0
 14 13  2  0  0  0  0
 15 10  1  0  0  0  0
 16 11  1  0  0  0  0
 17 19  1  0  0  0  0
 17 20  1  0  0  0  0
 18 17  1  0  0  0  0
 21 24  1  0  0  0  0
 21  5  1  0  0  0  0
 22 30  1  0  0  0  0
 23 31  1  0  0  0  0
 23 22  1  0  0  0  0
 24 23  2  0  0  0  0
 25 27  1  0  0  0  0
 25 24  1  0  0  0  0
 26 25  2  0  0  0  0
 27 28  1  0  0  0  0
 28 29  2  0  0  0  0
 28 22  1  0  0  0  0
 32 27  1  0  0  0  0
 32 35  1  0  0  0  0
 33 32  1  0  0  0  0
 34 32  1  0  0  0  0
M  END
>  <minimizedAffinity>
-6.45640421

$$$$

 OpenBabel03272502273D

 35 37  0  0  0  0  0  0  0  0999 V2000
   37.2650   26.9810   32.9660 C   0  0  0  0  0  0  0  0  0  0  0  0
   37.9410   26.4430   34.0820 C   0  0  0  0  0  0  0  0  0  0  0  0
   38.0480   25.0640   34.1530 C   0  0  0  0  0  0  0  0  0  0  0  0
   37.5090   24.3490   33.1660 N   0  0  0  0  0  0  0  0  0  0  0  0
   36.8680   24.8730   32.1070 C   0  0  0  0  0  0  0  0  0  0  0  0
   36.7460   26.1960   32.0100 N   0  0  0  0  0  0  0  0  0  0  0  0
   37.1760   28.0620   32.9030 H   0  0  0  0  0  0  0  0  0  0  0  0
   38.3690   27.0490   34.8690 H   0  0  0  0  0  0  0  0  0  0  0  0
   38.7170   24.3950   35.2420 C   0  0  0  0  0  0  0  0  0  0  0  0
   39.8940   23.6940   35.0200 C   0  0  0  0  0  0  0  0  0  0  0  0
   40.5780   23.0380   36.0170 C   0  0  0  0  0  0  0  0  0  0  0  0
   40.0900   23.0660   37.2780 N   0  0  0  0  0  0  0  0  0  0  0  0
   38.9500   23.7480   37.4740 C   0  0  0  0  0  0  0  0  0  0  0  0
   38.2620   24.4000   36.5150 N   0  0  0  0  0  0  0  0  0  0  0  0
   40.2680   23.6850   33.9970 H   0  0  0  0  0  0  0  0  0  0  0  0
   41.5000   22.5010   35.7910 H   0  0  0  0  0  0  0  0  0  0  0  0
   38.3840   23.8020   38.8480 C   0  0  0  0  0  0  0  0  0  0  0  0
   37.4770   22.7260   38.9700 F   0  0  0  0  0  0  0  0  0  0  0  0
   39.3620   23.7460   39.7940 F   0  0  0  0  0  0  0  0  0  0  0  0
   37.6010   24.9270   39.0330 F   0  0  0  0  0  0  0  0  0  0  0  0
   36.3650   23.9720   31.1700 O   0  0  0  0  0  0  0  0  0  0  0  0
   38.2650   20.8680   30.6750 N   0  0  0  0  0  0  0  0  0  0  0  0
   37.9980   22.1820   30.5950 C   0  0  0  0  0  0  0  0  0  0  0  0
   36.8220   22.6740   31.1460 C   0  0  0  0  0  0  0  0  0  0  0  0
   35.9520   21.7890   31.7650 C   0  0  0  0  0  0  0  0  0  0  0  0
   34.8460   22.0260   32.3200 O   0  0  0  0  0  0  0  0  0  0  0  0
   36.2840   20.4680   31.8110 N   0  0  0  0  0  0  0  0  0  0  0  0
   37.4270   20.0180   31.2730 C   0  0  0  0  0  0  0  0  0  0  0  0
   37.7640   18.7970   31.2980 O   0  0  0  0  0  0  0  0  0  0  0  0
   39.1710   20.5940   30.2340 H   0  0  0  0  0  0  0  0  0  0  0  0
   38.6190   22.9330   30.1340 H   0  0  0  0  0  0  0  0  0  0  0  0
   35.4450   19.4580   32.4350 C   0  0  0  0  0  0  0  0  0  0  0  0
   35.3670   19.7600   33.7990 F   0  0  0  0  0  0  0  0  0  0  0  0
   35.9010   18.1840   32.2760 F   0  0  0  0  0  0  0  0  0  0  0  0
   34.1490   19.6220   31.9430 F   0  0  0  0  0  0  0  0  0  0  0  0
  1  2  1  0  0  0  0
  2  3  2  0  0  0  0
  2  8  1  0  0  0  0
  3  9  1  0  0  0  0
  4  3  1  0  0  0  0
  5  4  2  0  0  0  0
  6  5  1  0  0  0  0
  6  1  2  0  0  0  0
  7  1  1  0  0  0  0
  9 14  1  0  0  0  0
 10  9  2  0  0  0  0
 10 11  1  0  0  0  0
 11 12  2  0  0  0  0
 12 13  1  0  0  0  0
 13 17  1  0  0  0  0
 14 13  2  0  0  0  0
 15 10  1  0  0  0  0
 16 11  1  0  0  0  0
 17 18  1  0  0  0  0
 17 20  1  0  0  0  0
 17 19  1  0  0  0  0
 21  5  1  0  0  0  0
 22 28  1  0  0  0  0
 23 22  1  0  0  0  0
 23 24  2  0  0  0  0
 24 21  1  0  0  0  0
 24 25  1  0  0  0  0
 25 27  1  0  0  0  0
 25 26  2  0  0  0  0
 27 32  1  0  0  0  0
 28 29  2  0  0  0  0
 28 27  1  0  0  0  0
 30 22  1  0  0  0  0
 31 23  1  0  0  0  0
 32 33  1  0  0  0  0
 34 32  1  0  0  0  0
 35 32  1  0  0  0  0
M  END
>  <minimizedAffinity>
-6.43521404

$$$$

 OpenBabel03272502273D

 35 37  0  0  0  0  0  0  0  0999 V2000
   35.5050   20.6310   33.6470 C   0  0  0  0  0  0  0  0  0  0  0  0
   36.2570   20.9150   34.8070 C   0  0  0  0  0  0  0  0  0  0  0  0
   37.2430   21.8820   34.7030 C   0  0  0  0  0  0  0  0  0  0  0  0
   37.4080   22.4720   33.5190 N   0  0  0  0  0  0  0  0  0  0  0  0
   36.6850   22.1940   32.4200 C   0  0  0  0  0  0  0  0  0  0  0  0
   35.7290   21.2680   32.4880 N   0  0  0  0  0  0  0  0  0  0  0  0
   34.7300   19.8740   33.7210 H   0  0  0  0  0  0  0  0  0  0  0  0
   36.1000   20.4190   35.7550 H   0  0  0  0  0  0  0  0  0  0  0  0
   38.0770   22.2610   35.8170 C   0  0  0  0  0  0  0  0  0  0  0  0
   37.5490   22.9940   36.8720 C   0  0  0  0  0  0  0  0  0  0  0  0
   38.2920   23.3840   37.9620 C   0  0  0  0  0  0  0  0  0  0  0  0
   39.6000   23.0460   38.0220 N   0  0  0  0  0  0  0  0  0  0  0  0
   40.0930   22.3380   36.9920 C   0  0  0  0  0  0  0  0  0  0  0  0
   39.3860   21.9430   35.9140 N   0  0  0  0  0  0  0  0  0  0  0  0
   36.4930   23.2540   36.8020 H   0  0  0  0  0  0  0  0  0  0  0  0
   37.8300   23.9590   38.7650 H   0  0  0  0  0  0  0  0  0  0  0  0
   41.5270   21.9470   37.0240 C   0  0  0  0  0  0  0  0  0  0  0  0
   41.7720   21.1590   35.8770 F   0  0  0  0  0  0  0  0  0  0  0  0
   42.3410   23.0370   37.0680 F   0  0  0  0  0  0  0  0  0  0  0  0
   41.8020   21.0990   38.0810 F   0  0  0  0  0  0  0  0  0  0  0  0
   36.9970   22.9110   31.2670 O   0  0  0  0  0  0  0  0  0  0  0  0
   35.2650   26.1360   30.9630 N   0  0  0  0  0  0  0  0  0  0  0  0
   35.3900   24.8010   31.0510 C   0  0  0  0  0  0  0  0  0  0  0  0
   36.6560   24.2400   31.1660 C   0  0  0  0  0  0  0  0  0  0  0  0
   37.7600   25.0800   31.1860 C   0  0  0  0  0  0  0  0  0  0  0  0
   38.9800   24.7800   31.2820 O   0  0  0  0  0  0  0  0  0  0  0  0
   37.5620   26.4250   31.0930 N   0  0  0  0  0  0  0  0  0  0  0  0
   36.3290   26.9420   30.9840 C   0  0  0  0  0  0  0  0  0  0  0  0
   36.1110   28.1870   30.8950 O   0  0  0  0  0  0  0  0  0  0  0  0
   34.2770   26.4630   30.8810 H   0  0  0  0  0  0  0  0  0  0  0  0
   34.5870   24.0830   31.0440 H   0  0  0  0  0  0  0  0  0  0  0  0
   38.6480   27.3910   31.1060 C   0  0  0  0  0  0  0  0  0  0  0  0
   39.0790   27.5250   32.4290 F   0  0  0  0  0  0  0  0  0  0  0  0
   38.3060   28.6150   30.6120 F   0  0  0  0  0  0  0  0  0  0  0  0
   39.7250   26.8270   30.4190 F   0  0  0  0  0  0  0  0  0  0  0  0
  1  7  1  0  0  0  0
  1  2  1  0  0  0  0
  2  8  1  0  0  0  0
  3  2  2  0  0  0  0
  3  9  1  0  0  0  0
  4  3  1  0  0  0  0
  5  6  1  0  0  0  0
  5  4  2  0  0  0  0
  6  1  2  0  0  0  0
  9 14  2  0  0  0  0
  9 10  1  0  0  0  0
 10 11  2  0  0  0  0
 11 12  1  0  0  0  0
 11 16  1  0  0  0  0
 13 17  1  0  0  0  0
 13 12  2  0  0  0  0
 14 13  1  0  0  0  0
 15 10  1  0  0  0  0
 17 19  1  0  0  0  0
 17 20  1  0  0  0  0
 18 17  1  0  0  0  0
 21  5  1  0  0  0  0
 22 28  1  0  0  0  0
 22 23  1  0  0  0  0
 23 24  2  0  0  0  0
 24 25  1  0  0  0  0
 24 21  1  0  0  0  0
 25 26  2  0  0  0  0
 27 32  1  0  0  0  0
 27 25  1  0  0  0  0
 28 27  1  0  0  0  0
 29 28  2  0  0  0  0
 30 22  1  0  0  0  0
 31 23  1  0  0  0  0
 32 33  1  0  0  0  0
 34 32  1  0  0  0  0
 35 32  1  0  0  0  0
M  END
>  <minimizedAffinity>
-6.42879963

$$$$
