
 OpenBabel03272501593D

 26 27  0  0  0  0  0  0  0  0999 V2000
   38.5150   26.1490   34.0310 C   0  0  0  0  0  0  0  0  0  0  0  0
   37.4670   26.5720   34.0620 H   0  0  0  0  0  0  0  0  0  0  0  0
   39.2940   26.8960   34.1740 H   0  0  0  0  0  0  0  0  0  0  0  0
   38.5800   25.1490   35.1500 C   0  0  0  0  0  0  0  0  0  0  0  0
   39.0250   23.8420   35.0380 C   0  0  0  0  0  0  0  0  0  0  0  0
   38.9580   23.1860   36.2560 C   0  0  0  0  0  0  0  0  0  0  0  0
   38.4650   24.1290   37.0830 N   0  0  0  0  0  0  0  0  0  0  0  0
   38.2460   25.2730   36.4360 N   0  0  0  0  0  0  0  0  0  0  0  0
   39.3850   23.3800   34.1190 H   0  0  0  0  0  0  0  0  0  0  0  0
   39.2290   22.1680   36.5020 H   0  0  0  0  0  0  0  0  0  0  0  0
   38.2230   23.8740   38.5000 C   0  0  0  0  0  0  0  0  0  0  0  0
   39.4190   23.5090   39.1000 F   0  0  0  0  0  0  0  0  0  0  0  0
   37.8200   25.0330   39.1350 F   0  0  0  0  0  0  0  0  0  0  0  0
   37.2610   22.9100   38.6930 F   0  0  0  0  0  0  0  0  0  0  0  0
   38.6420   25.3460   32.7560 C   0  0  0  0  0  0  0  0  0  0  0  0
   39.2970   25.8930   32.0290 H   0  0  0  0  0  0  0  0  0  0  0  0
   39.0880   24.3670   32.9390 H   0  0  0  0  0  0  0  0  0  0  0  0
   35.5590   24.0080   31.2270 C   0  0  0  0  0  0  0  0  0  0  0  0
   34.8600   25.1680   30.8720 C   0  0  0  0  0  0  0  0  0  0  0  0
   35.4700   26.4130   31.1670 C   0  0  0  0  0  0  0  0  0  0  0  0
   36.6800   26.4230   31.7690 N   0  0  0  0  0  0  0  0  0  0  0  0
   37.3100   25.2640   32.0900 C   0  0  0  0  0  0  0  0  0  0  0  0
   36.7590   24.0900   31.8230 N   0  0  0  0  0  0  0  0  0  0  0  0
   35.0410   23.0930   30.9740 H   0  0  0  0  0  0  0  0  0  0  0  0
   33.8920   25.1910   30.3890 H   0  0  0  0  0  0  0  0  0  0  0  0
   35.0100   27.3490   30.9320 H   0  0  0  0  0  0  0  0  0  0  0  0
  1  2  1  0  0  0  0
  1  3  1  0  0  0  0
  1  4  1  0  0  0  0
  4  8  2  0  0  0  0
  5  4  1  0  0  0  0
  5  6  2  0  0  0  0
  6 10  1  0  0  0  0
  6  7  1  0  0  0  0
  7 11  1  0  0  0  0
  8  7  1  0  0  0  0
  9  5  1  0  0  0  0
 11 14  1  0  0  0  0
 11 12  1  0  0  0  0
 11 13  1  0  0  0  0
 15 17  1  0  0  0  0
 15  1  1  0  0  0  0
 16 15  1  0  0  0  0
 18 23  1  0  0  0  0
 19 20  1  0  0  0  0
 19 18  2  0  0  0  0
 20 21  2  0  0  0  0
 21 22  1  0  0  0  0
 22 15  1  0  0  0  0
 23 22  2  0  0  0  0
 24 18  1  0  0  0  0
 25 19  1  0  0  0  0
 26 20  1  0  0  0  0
M  END
>  <minimizedAffinity>
-4.83786535

$$$$

 OpenBabel03272501593D

 26 27  0  0  0  0  0  0  0  0999 V2000
   39.3440   21.9160   33.8890 C   0  0  0  0  0  0  0  0  0  0  0  0
   40.3340   22.2110   33.4290 H   0  0  0  0  0  0  0  0  0  0  0  0
   39.1230   20.8530   33.8110 H   0  0  0  0  0  0  0  0  0  0  0  0
   39.4460   22.2920   35.3410 C   0  0  0  0  0  0  0  0  0  0  0  0
   40.5480   22.0770   36.1520 C   0  0  0  0  0  0  0  0  0  0  0  0
   40.3180   22.5410   37.4370 C   0  0  0  0  0  0  0  0  0  0  0  0
   39.0640   23.0290   37.3650 N   0  0  0  0  0  0  0  0  0  0  0  0
   38.5580   22.8830   36.1410 N   0  0  0  0  0  0  0  0  0  0  0  0
   41.4780   21.6080   35.8340 H   0  0  0  0  0  0  0  0  0  0  0  0
   40.9720   22.5230   38.3000 H   0  0  0  0  0  0  0  0  0  0  0  0
   38.3950   23.6320   38.5150 C   0  0  0  0  0  0  0  0  0  0  0  0
   39.3190   23.7920   39.5370 F   0  0  0  0  0  0  0  0  0  0  0  0
   37.9540   24.9030   38.2020 F   0  0  0  0  0  0  0  0  0  0  0  0
   37.3200   22.8850   38.9350 F   0  0  0  0  0  0  0  0  0  0  0  0
   38.2850   22.8230   33.3050 C   0  0  0  0  0  0  0  0  0  0  0  0
   37.8590   23.4740   34.1120 H   0  0  0  0  0  0  0  0  0  0  0  0
   38.6930   23.4740   32.5300 H   0  0  0  0  0  0  0  0  0  0  0  0
   35.7230   21.3030   31.1240 C   0  0  0  0  0  0  0  0  0  0  0  0
   35.0300   20.4590   32.0010 C   0  0  0  0  0  0  0  0  0  0  0  0
   35.4600   20.4260   33.3510 C   0  0  0  0  0  0  0  0  0  0  0  0
   36.5040   21.2000   33.7240 N   0  0  0  0  0  0  0  0  0  0  0  0
   37.1380   21.9980   32.8280 C   0  0  0  0  0  0  0  0  0  0  0  0
   36.7530   22.0450   31.5630 N   0  0  0  0  0  0  0  0  0  0  0  0
   35.3460   21.2820   30.1110 H   0  0  0  0  0  0  0  0  0  0  0  0
   34.1920   19.8300   31.7310 H   0  0  0  0  0  0  0  0  0  0  0  0
   34.9900   19.8120   34.0900 H   0  0  0  0  0  0  0  0  0  0  0  0
  1  4  1  0  0  0  0
  2  1  1  0  0  0  0
  3  1  1  0  0  0  0
  4  8  2  0  0  0  0
  4  5  1  0  0  0  0
  5  6  2  0  0  0  0
  6 10  1  0  0  0  0
  7  6  1  0  0  0  0
  7 11  1  0  0  0  0
  8  7  1  0  0  0  0
  9  5  1  0  0  0  0
 11 14  1  0  0  0  0
 11 12  1  0  0  0  0
 13 11  1  0  0  0  0
 15  1  1  0  0  0  0
 15 16  1  0  0  0  0
 17 15  1  0  0  0  0
 18 23  2  0  0  0  0
 18 19  1  0  0  0  0
 19 20  2  0  0  0  0
 20 21  1  0  0  0  0
 20 26  1  0  0  0  0
 22 15  1  0  0  0  0
 22 21  2  0  0  0  0
 23 22  1  0  0  0  0
 24 18  1  0  0  0  0
 25 19  1  0  0  0  0
M  END
>  <minimizedAffinity>
-4.83044291

$$$$

 OpenBabel03272501593D

 26 27  0  0  0  0  0  0  0  0999 V2000
   38.2100   25.7140   33.8180 C   0  0  0  0  0  0  0  0  0  0  0  0
   39.2390   25.6200   33.3590 H   0  0  0  0  0  0  0  0  0  0  0  0
   37.4020   25.4310   33.1440 H   0  0  0  0  0  0  0  0  0  0  0  0
   38.2100   24.7880   35.0020 C   0  0  0  0  0  0  0  0  0  0  0  0
   38.2160   23.4050   34.9420 C   0  0  0  0  0  0  0  0  0  0  0  0
   38.2160   22.8510   36.2120 C   0  0  0  0  0  0  0  0  0  0  0  0
   38.2080   23.9330   37.0160 N   0  0  0  0  0  0  0  0  0  0  0  0
   38.2050   25.0620   36.3080 N   0  0  0  0  0  0  0  0  0  0  0  0
   38.2230   22.8170   34.0250 H   0  0  0  0  0  0  0  0  0  0  0  0
   38.2200   21.8090   36.5060 H   0  0  0  0  0  0  0  0  0  0  0  0
   38.2040   23.8210   38.4720 C   0  0  0  0  0  0  0  0  0  0  0  0
   37.3150   22.8230   38.8430 F   0  0  0  0  0  0  0  0  0  0  0  0
   39.4420   23.4100   38.9260 F   0  0  0  0  0  0  0  0  0  0  0  0
   37.8870   25.0140   39.0780 F   0  0  0  0  0  0  0  0  0  0  0  0
   38.0920   27.1090   34.3890 C   0  0  0  0  0  0  0  0  0  0  0  0
   37.8650   27.0500   35.4850 H   0  0  0  0  0  0  0  0  0  0  0  0
   39.0180   27.6730   34.2670 H   0  0  0  0  0  0  0  0  0  0  0  0
   35.1390   29.2810   33.9510 C   0  0  0  0  0  0  0  0  0  0  0  0
   34.7550   29.0200   32.6290 C   0  0  0  0  0  0  0  0  0  0  0  0
   35.5300   28.0850   31.8980 C   0  0  0  0  0  0  0  0  0  0  0  0
   36.5870   27.4970   32.5000 N   0  0  0  0  0  0  0  0  0  0  0  0
   36.9110   27.7900   33.7860 C   0  0  0  0  0  0  0  0  0  0  0  0
   36.2020   28.6600   34.4880 N   0  0  0  0  0  0  0  0  0  0  0  0
   34.5080   30.0020   34.4530 H   0  0  0  0  0  0  0  0  0  0  0  0
   33.9140   29.4750   32.1220 H   0  0  0  0  0  0  0  0  0  0  0  0
   35.3100   27.8250   30.8840 H   0  0  0  0  0  0  0  0  0  0  0  0
  1 15  1  0  0  0  0
  1  4  1  0  0  0  0
  2  1  1  0  0  0  0
  3  1  1  0  0  0  0
  4  8  2  0  0  0  0
  5  4  1  0  0  0  0
  5  6  2  0  0  0  0
  6 10  1  0  0  0  0
  6  7  1  0  0  0  0
  7 11  1  0  0  0  0
  8  7  1  0  0  0  0
  9  5  1  0  0  0  0
 11 12  1  0  0  0  0
 11 13  1  0  0  0  0
 11 14  1  0  0  0  0
 15 16  1  0  0  0  0
 17 15  1  0  0  0  0
 18 24  1  0  0  0  0
 18 23  1  0  0  0  0
 19 18  2  0  0  0  0
 20 21  2  0  0  0  0
 20 19  1  0  0  0  0
 21 22  1  0  0  0  0
 22 15  1  0  0  0  0
 22 23  2  0  0  0  0
 25 19  1  0  0  0  0
 26 20  1  0  0  0  0
M  END
>  <minimizedAffinity>
-4.77833319

$$$$

 OpenBabel03272501593D

 26 27  0  0  0  0  0  0  0  0999 V2000
   38.1340   27.3670   35.0030 C   0  0  0  0  0  0  0  0  0  0  0  0
   38.2950   28.1060   35.8430 H   0  0  0  0  0  0  0  0  0  0  0  0
   38.8830   27.4290   34.2140 H   0  0  0  0  0  0  0  0  0  0  0  0
   38.2050   26.0090   35.6420 C   0  0  0  0  0  0  0  0  0  0  0  0
   38.1980   24.8000   34.9670 C   0  0  0  0  0  0  0  0  0  0  0  0
   38.2770   23.7350   35.8510 C   0  0  0  0  0  0  0  0  0  0  0  0
   38.3290   24.3410   37.0530 N   0  0  0  0  0  0  0  0  0  0  0  0
   38.2880   25.6670   36.9300 N   0  0  0  0  0  0  0  0  0  0  0  0
   38.1390   24.6870   33.8850 H   0  0  0  0  0  0  0  0  0  0  0  0
   38.2920   22.6730   35.6440 H   0  0  0  0  0  0  0  0  0  0  0  0
   38.4200   23.5880   38.3010 C   0  0  0  0  0  0  0  0  0  0  0  0
   38.5350   24.4820   39.3560 F   0  0  0  0  0  0  0  0  0  0  0  0
   37.2510   22.8880   38.5270 F   0  0  0  0  0  0  0  0  0  0  0  0
   39.4700   22.7000   38.2910 F   0  0  0  0  0  0  0  0  0  0  0  0
   36.7070   27.5220   34.5290 C   0  0  0  0  0  0  0  0  0  0  0  0
   36.2230   26.5140   34.4530 H   0  0  0  0  0  0  0  0  0  0  0  0
   36.1160   28.1270   35.2180 H   0  0  0  0  0  0  0  0  0  0  0  0
   37.6490   28.1760   31.0190 C   0  0  0  0  0  0  0  0  0  0  0  0
   36.6530   29.0630   30.5910 C   0  0  0  0  0  0  0  0  0  0  0  0
   35.6580   29.4290   31.5310 C   0  0  0  0  0  0  0  0  0  0  0  0
   35.7150   28.9130   32.7790 N   0  0  0  0  0  0  0  0  0  0  0  0
   36.7050   28.0570   33.1370 C   0  0  0  0  0  0  0  0  0  0  0  0
   37.6460   27.7020   32.2750 N   0  0  0  0  0  0  0  0  0  0  0  0
   38.3770   27.9380   30.2560 H   0  0  0  0  0  0  0  0  0  0  0  0
   36.5830   29.4910   29.6000 H   0  0  0  0  0  0  0  0  0  0  0  0
   34.8600   30.1000   31.2920 H   0  0  0  0  0  0  0  0  0  0  0  0
  1  4  1  0  0  0  0
  1  2  1  0  0  0  0
  3  1  1  0  0  0  0
  4  8  2  0  0  0  0
  5  4  1  0  0  0  0
  5  6  2  0  0  0  0
  6  7  1  0  0  0  0
  7 11  1  0  0  0  0
  8  7  1  0  0  0  0
  9  5  1  0  0  0  0
 10  6  1  0  0  0  0
 11 13  1  0  0  0  0
 11 12  1  0  0  0  0
 14 11  1  0  0  0  0
 15  1  1  0  0  0  0
 15 17  1  0  0  0  0
 16 15  1  0  0  0  0
 18 23  1  0  0  0  0
 19 18  2  0  0  0  0
 19 20  1  0  0  0  0
 20 21  2  0  0  0  0
 21 22  1  0  0  0  0
 22 15  1  0  0  0  0
 23 22  2  0  0  0  0
 24 18  1  0  0  0  0
 25 19  1  0  0  0  0
 26 20  1  0  0  0  0
M  END
>  <minimizedAffinity>
-4.65895844

$$$$

 OpenBabel03272501593D

 26 27  0  0  0  0  0  0  0  0999 V2000
   38.1230   27.1450   34.8840 C   0  0  0  0  0  0  0  0  0  0  0  0
   38.5340   28.1890   34.7410 H   0  0  0  0  0  0  0  0  0  0  0  0
   37.4960   27.0380   35.7680 H   0  0  0  0  0  0  0  0  0  0  0  0
   37.2990   26.8650   33.6590 C   0  0  0  0  0  0  0  0  0  0  0  0
   36.7110   27.8210   32.8490 C   0  0  0  0  0  0  0  0  0  0  0  0
   36.0210   27.2310   31.8020 C   0  0  0  0  0  0  0  0  0  0  0  0
   36.2140   25.9150   32.0140 N   0  0  0  0  0  0  0  0  0  0  0  0
   36.9610   25.7030   33.0970 N   0  0  0  0  0  0  0  0  0  0  0  0
   36.7750   28.8980   33.0020 H   0  0  0  0  0  0  0  0  0  0  0  0
   35.4590   27.6970   31.0030 H   0  0  0  0  0  0  0  0  0  0  0  0
   35.6540   24.8930   31.1340 C   0  0  0  0  0  0  0  0  0  0  0  0
   34.8010   25.5030   30.2250 F   0  0  0  0  0  0  0  0  0  0  0  0
   36.6520   24.3090   30.3780 F   0  0  0  0  0  0  0  0  0  0  0  0
   35.0020   23.9080   31.8370 F   0  0  0  0  0  0  0  0  0  0  0  0
   39.2900   26.1860   34.8210 C   0  0  0  0  0  0  0  0  0  0  0  0
   39.2860   25.6520   33.8360 H   0  0  0  0  0  0  0  0  0  0  0  0
   40.2450   26.7050   34.9180 H   0  0  0  0  0  0  0  0  0  0  0  0
   39.6790   23.0470   36.7250 C   0  0  0  0  0  0  0  0  0  0  0  0
   38.7270   23.1820   37.7440 C   0  0  0  0  0  0  0  0  0  0  0  0
   37.9540   24.3700   37.7600 C   0  0  0  0  0  0  0  0  0  0  0  0
   38.1660   25.3020   36.8060 N   0  0  0  0  0  0  0  0  0  0  0  0
   39.1040   25.1150   35.8420 C   0  0  0  0  0  0  0  0  0  0  0  0
   39.8380   24.0140   35.8070 N   0  0  0  0  0  0  0  0  0  0  0  0
   40.2340   22.1200   36.7690 H   0  0  0  0  0  0  0  0  0  0  0  0
   38.5360   22.4520   38.5200 H   0  0  0  0  0  0  0  0  0  0  0  0
   37.2050   24.5580   38.5000 H   0  0  0  0  0  0  0  0  0  0  0  0
  1  3  1  0  0  0  0
  2  1  1  0  0  0  0
  4  1  1  0  0  0  0
  5  9  1  0  0  0  0
  5  4  1  0  0  0  0
  6  7  1  0  0  0  0
  6  5  2  0  0  0  0
  7  8  1  0  0  0  0
  8  4  2  0  0  0  0
 10  6  1  0  0  0  0
 11 14  1  0  0  0  0
 11  7  1  0  0  0  0
 12 11  1  0  0  0  0
 13 11  1  0  0  0  0
 15  1  1  0  0  0  0
 15 17  1  0  0  0  0
 15 22  1  0  0  0  0
 16 15  1  0  0  0  0
 18 24  1  0  0  0  0
 18 19  1  0  0  0  0
 19 20  2  0  0  0  0
 19 25  1  0  0  0  0
 20 26  1  0  0  0  0
 21 20  1  0  0  0  0
 22 21  2  0  0  0  0
 23 22  1  0  0  0  0
 23 18  2  0  0  0  0
M  END
>  <minimizedAffinity>
-4.61723042

$$$$

 OpenBabel03272501593D

 26 27  0  0  0  0  0  0  0  0999 V2000
   38.6680   23.2900   33.4180 C   0  0  0  0  0  0  0  0  0  0  0  0
   37.7220   23.5450   32.8540 H   0  0  0  0  0  0  0  0  0  0  0  0
   39.5680   23.7210   32.9820 H   0  0  0  0  0  0  0  0  0  0  0  0
   38.4760   23.8450   34.8010 C   0  0  0  0  0  0  0  0  0  0  0  0
   38.1840   25.1650   35.1050 C   0  0  0  0  0  0  0  0  0  0  0  0
   38.0690   25.3470   36.4740 C   0  0  0  0  0  0  0  0  0  0  0  0
   38.3000   24.1140   36.9650 N   0  0  0  0  0  0  0  0  0  0  0  0
   38.5370   23.2390   35.9880 N   0  0  0  0  0  0  0  0  0  0  0  0
   38.0570   25.9630   34.3740 H   0  0  0  0  0  0  0  0  0  0  0  0
   37.8500   26.2500   37.0290 H   0  0  0  0  0  0  0  0  0  0  0  0
   38.2810   23.8290   38.3970 C   0  0  0  0  0  0  0  0  0  0  0  0
   37.9190   24.9830   39.0780 F   0  0  0  0  0  0  0  0  0  0  0  0
   37.3030   22.8980   38.6890 F   0  0  0  0  0  0  0  0  0  0  0  0
   39.4900   23.3520   38.8450 F   0  0  0  0  0  0  0  0  0  0  0  0
   38.7070   21.7880   33.5820 C   0  0  0  0  0  0  0  0  0  0  0  0
   39.5730   21.3680   33.0070 H   0  0  0  0  0  0  0  0  0  0  0  0
   38.8270   21.4990   34.6280 H   0  0  0  0  0  0  0  0  0  0  0  0
   35.2380   20.6560   33.0170 C   0  0  0  0  0  0  0  0  0  0  0  0
   35.3020   20.0870   31.7390 C   0  0  0  0  0  0  0  0  0  0  0  0
   36.5570   20.1010   31.0800 C   0  0  0  0  0  0  0  0  0  0  0  0
   37.6190   20.6540   31.7080 N   0  0  0  0  0  0  0  0  0  0  0  0
   37.4960   21.1900   32.9480 C   0  0  0  0  0  0  0  0  0  0  0  0
   36.3340   21.1890   33.5820 N   0  0  0  0  0  0  0  0  0  0  0  0
   34.2540   20.6130   33.4640 H   0  0  0  0  0  0  0  0  0  0  0  0
   34.4690   19.6380   31.2130 H   0  0  0  0  0  0  0  0  0  0  0  0
   36.6990   19.6900   30.1040 H   0  0  0  0  0  0  0  0  0  0  0  0
  1 15  1  0  0  0  0
  1  4  1  0  0  0  0
  2  1  1  0  0  0  0
  3  1  1  0  0  0  0
  4  5  1  0  0  0  0
  4  8  2  0  0  0  0
  5  6  2  0  0  0  0
  6  7  1  0  0  0  0
  6 10  1  0  0  0  0
  7 11  1  0  0  0  0
  8  7  1  0  0  0  0
  9  5  1  0  0  0  0
 11 13  1  0  0  0  0
 11 14  1  0  0  0  0
 11 12  1  0  0  0  0
 15 17  1  0  0  0  0
 16 15  1  0  0  0  0
 18 24  1  0  0  0  0
 18 23  1  0  0  0  0
 19 18  2  0  0  0  0
 20 21  2  0  0  0  0
 20 19  1  0  0  0  0
 21 22  1  0  0  0  0
 22 23  2  0  0  0  0
 22 15  1  0  0  0  0
 25 19  1  0  0  0  0
 26 20  1  0  0  0  0
M  END
>  <minimizedAffinity>
-4.55251074

$$$$

 OpenBabel03272501593D

 26 27  0  0  0  0  0  0  0  0999 V2000
   35.0850   29.0880   33.3120 C   0  0  0  0  0  0  0  0  0  0  0  0
   34.9100   28.9870   32.2000 H   0  0  0  0  0  0  0  0  0  0  0  0
   34.2700   28.6980   33.9210 H   0  0  0  0  0  0  0  0  0  0  0  0
   36.3320   28.3010   33.5980 C   0  0  0  0  0  0  0  0  0  0  0  0
   37.1840   27.7680   32.6440 C   0  0  0  0  0  0  0  0  0  0  0  0
   38.2420   27.1000   33.2390 C   0  0  0  0  0  0  0  0  0  0  0  0
   37.9950   27.2500   34.5550 N   0  0  0  0  0  0  0  0  0  0  0  0
   36.8810   27.9510   34.7630 N   0  0  0  0  0  0  0  0  0  0  0  0
   37.0520   27.8560   31.5670 H   0  0  0  0  0  0  0  0  0  0  0  0
   39.0710   26.5800   32.7770 H   0  0  0  0  0  0  0  0  0  0  0  0
   38.8730   26.6930   35.5810 C   0  0  0  0  0  0  0  0  0  0  0  0
   38.4170   27.0950   36.8280 F   0  0  0  0  0  0  0  0  0  0  0  0
   38.7990   25.3130   35.5800 F   0  0  0  0  0  0  0  0  0  0  0  0
   40.1840   27.0630   35.3930 F   0  0  0  0  0  0  0  0  0  0  0  0
   35.4390   30.5310   33.5860 C   0  0  0  0  0  0  0  0  0  0  0  0
   36.5420   30.6210   33.7660 H   0  0  0  0  0  0  0  0  0  0  0  0
   35.1820   31.1770   32.7450 H   0  0  0  0  0  0  0  0  0  0  0  0
   34.9100   32.0850   36.8940 C   0  0  0  0  0  0  0  0  0  0  0  0
   33.5890   31.7290   37.1960 C   0  0  0  0  0  0  0  0  0  0  0  0
   32.8900   30.9460   36.2430 C   0  0  0  0  0  0  0  0  0  0  0  0
   33.5220   30.5850   35.1030 N   0  0  0  0  0  0  0  0  0  0  0  0
   34.8040   30.9610   34.8660 C   0  0  0  0  0  0  0  0  0  0  0  0
   35.4750   31.6910   35.7410 N   0  0  0  0  0  0  0  0  0  0  0  0
   35.3860   32.6810   37.6600 H   0  0  0  0  0  0  0  0  0  0  0  0
   33.0600   32.0030   38.0990 H   0  0  0  0  0  0  0  0  0  0  0  0
   31.8800   30.6280   36.3900 H   0  0  0  0  0  0  0  0  0  0  0  0
  1 15  1  0  0  0  0
  1  4  1  0  0  0  0
  1  3  1  0  0  0  0
  2  1  1  0  0  0  0
  4  8  2  0  0  0  0
  5  6  2  0  0  0  0
  5  4  1  0  0  0  0
  6  7  1  0  0  0  0
  7  8  1  0  0  0  0
  7 11  1  0  0  0  0
  9  5  1  0  0  0  0
 10  6  1  0  0  0  0
 11 12  1  0  0  0  0
 13 11  1  0  0  0  0
 14 11  1  0  0  0  0
 15 16  1  0  0  0  0
 15 22  1  0  0  0  0
 17 15  1  0  0  0  0
 18 19  1  0  0  0  0
 18 24  1  0  0  0  0
 19 25  1  0  0  0  0
 20 26  1  0  0  0  0
 20 19  2  0  0  0  0
 21 20  1  0  0  0  0
 22 21  2  0  0  0  0
 22 23  1  0  0  0  0
 23 18  2  0  0  0  0
M  END
>  <minimizedAffinity>
-4.46588039

$$$$

 OpenBabel03272501593D

 26 27  0  0  0  0  0  0  0  0999 V2000
   36.7890   24.5790   31.0970 C   0  0  0  0  0  0  0  0  0  0  0  0
   36.5640   25.1390   30.1420 H   0  0  0  0  0  0  0  0  0  0  0  0
   37.6920   23.9720   31.0480 H   0  0  0  0  0  0  0  0  0  0  0  0
   36.9630   25.6330   32.1530 C   0  0  0  0  0  0  0  0  0  0  0  0
   36.4340   26.9130   32.1070 C   0  0  0  0  0  0  0  0  0  0  0  0
   36.7790   27.6350   33.2390 C   0  0  0  0  0  0  0  0  0  0  0  0
   37.5190   26.7580   33.9460 N   0  0  0  0  0  0  0  0  0  0  0  0
   37.6240   25.5910   33.3110 N   0  0  0  0  0  0  0  0  0  0  0  0
   35.8250   27.3100   31.2960 H   0  0  0  0  0  0  0  0  0  0  0  0
   36.5270   28.6530   33.5050 H   0  0  0  0  0  0  0  0  0  0  0  0
   38.1050   27.0990   35.2390 C   0  0  0  0  0  0  0  0  0  0  0  0
   39.4650   27.3150   35.0720 F   0  0  0  0  0  0  0  0  0  0  0  0
   37.5880   28.2940   35.7010 F   0  0  0  0  0  0  0  0  0  0  0  0
   37.8730   26.1250   36.1820 F   0  0  0  0  0  0  0  0  0  0  0  0
   35.5410   23.8170   31.4800 C   0  0  0  0  0  0  0  0  0  0  0  0
   35.1690   24.1770   32.4740 H   0  0  0  0  0  0  0  0  0  0  0  0
   34.7420   23.9590   30.7510 H   0  0  0  0  0  0  0  0  0  0  0  0
   37.2930   20.5700   31.3430 C   0  0  0  0  0  0  0  0  0  0  0  0
   36.4750   19.7430   32.1240 C   0  0  0  0  0  0  0  0  0  0  0  0
   35.3140   20.3240   32.6940 C   0  0  0  0  0  0  0  0  0  0  0  0
   35.0540   21.6290   32.4600 N   0  0  0  0  0  0  0  0  0  0  0  0
   35.8850   22.3820   31.6950 C   0  0  0  0  0  0  0  0  0  0  0  0
   36.9740   21.8600   31.1530 N   0  0  0  0  0  0  0  0  0  0  0  0
   38.1600   20.0670   30.9380 H   0  0  0  0  0  0  0  0  0  0  0  0
   36.6590   18.6960   32.3270 H   0  0  0  0  0  0  0  0  0  0  0  0
   34.6340   19.7680   33.3030 H   0  0  0  0  0  0  0  0  0  0  0  0
  1 15  1  0  0  0  0
  1  4  1  0  0  0  0
  2  1  1  0  0  0  0
  3  1  1  0  0  0  0
  4  8  2  0  0  0  0
  5  4  1  0  0  0  0
  5  6  2  0  0  0  0
  6 10  1  0  0  0  0
  6  7  1  0  0  0  0
  7 11  1  0  0  0  0
  8  7  1  0  0  0  0
  9  5  1  0  0  0  0
 11 13  1  0  0  0  0
 11 14  1  0  0  0  0
 12 11  1  0  0  0  0
 15 22  1  0  0  0  0
 15 16  1  0  0  0  0
 17 15  1  0  0  0  0
 18 19  1  0  0  0  0
 19 25  1  0  0  0  0
 19 20  2  0  0  0  0
 20 26  1  0  0  0  0
 21 20  1  0  0  0  0
 22 21  2  0  0  0  0
 23 18  2  0  0  0  0
 23 22  1  0  0  0  0
 24 18  1  0  0  0  0
M  END
>  <minimizedAffinity>
-4.31083679

$$$$

 OpenBabel03272501593D

 26 27  0  0  0  0  0  0  0  0999 V2000
   35.9520   29.4680   32.9360 C   0  0  0  0  0  0  0  0  0  0  0  0
   35.4640   29.6890   31.9400 H   0  0  0  0  0  0  0  0  0  0  0  0
   36.9000   29.9840   33.0830 H   0  0  0  0  0  0  0  0  0  0  0  0
   34.9730   29.9300   33.9770 C   0  0  0  0  0  0  0  0  0  0  0  0
   33.6510   29.5290   34.0730 C   0  0  0  0  0  0  0  0  0  0  0  0
   33.0210   30.1400   35.1460 C   0  0  0  0  0  0  0  0  0  0  0  0
   33.9960   30.9050   35.6750 N   0  0  0  0  0  0  0  0  0  0  0  0
   35.1340   30.7810   34.9920 N   0  0  0  0  0  0  0  0  0  0  0  0
   33.1590   28.8270   33.4010 H   0  0  0  0  0  0  0  0  0  0  0  0
   32.0000   30.0400   35.4880 H   0  0  0  0  0  0  0  0  0  0  0  0
   33.7770   31.7440   36.8500 C   0  0  0  0  0  0  0  0  0  0  0  0
   35.0070   32.1060   37.3780 F   0  0  0  0  0  0  0  0  0  0  0  0
   33.1600   32.9270   36.4880 F   0  0  0  0  0  0  0  0  0  0  0  0
   33.0000   31.1150   37.7940 F   0  0  0  0  0  0  0  0  0  0  0  0
   36.0270   27.9650   33.0810 C   0  0  0  0  0  0  0  0  0  0  0  0
   35.2270   27.6140   33.7840 H   0  0  0  0  0  0  0  0  0  0  0  0
   35.8790   27.4600   32.1250 H   0  0  0  0  0  0  0  0  0  0  0  0
   39.5280   26.9180   33.6100 C   0  0  0  0  0  0  0  0  0  0  0  0
   39.6490   26.9340   35.0050 C   0  0  0  0  0  0  0  0  0  0  0  0
   38.5060   27.3100   35.7550 C   0  0  0  0  0  0  0  0  0  0  0  0
   37.3690   27.6300   35.0980 N   0  0  0  0  0  0  0  0  0  0  0  0
   37.3120   27.5960   33.7430 C   0  0  0  0  0  0  0  0  0  0  0  0
   38.3660   27.2490   33.0220 N   0  0  0  0  0  0  0  0  0  0  0  0
   40.4340   26.6240   33.0980 H   0  0  0  0  0  0  0  0  0  0  0  0
   40.5450   26.6830   35.5570 H   0  0  0  0  0  0  0  0  0  0  0  0
   38.5070   27.3500   36.8230 H   0  0  0  0  0  0  0  0  0  0  0  0
  1 15  1  0  0  0  0
  1  3  1  0  0  0  0
  1  4  1  0  0  0  0
  2  1  1  0  0  0  0
  4  5  1  0  0  0  0
  4  8  2  0  0  0  0
  5  6  2  0  0  0  0
  6 10  1  0  0  0  0
  6  7  1  0  0  0  0
  7 11  1  0  0  0  0
  8  7  1  0  0  0  0
  9  5  1  0  0  0  0
 11 12  1  0  0  0  0
 11 14  1  0  0  0  0
 13 11  1  0  0  0  0
 15 22  1  0  0  0  0
 15 16  1  0  0  0  0
 17 15  1  0  0  0  0
 18 19  1  0  0  0  0
 19 25  1  0  0  0  0
 19 20  2  0  0  0  0
 20 26  1  0  0  0  0
 21 20  1  0  0  0  0
 22 21  2  0  0  0  0
 23 18  2  0  0  0  0
 23 22  1  0  0  0  0
 24 18  1  0  0  0  0
M  END
>  <minimizedAffinity>
-4.26203775

$$$$
