
 OpenBabel03272508343D

 20 21  0  0  0  0  0  0  0  0999 V2000
   37.8960   25.1350   35.0970 C   0  0  0  0  0  0  0  0  0  0  0  0
   38.7730   24.0900   34.8860 C   0  0  0  0  0  0  0  0  0  0  0  0
   39.0310   23.4880   36.1130 C   0  0  0  0  0  0  0  0  0  0  0  0
   38.3100   24.1800   37.0170 N   0  0  0  0  0  0  0  0  0  0  0  0
   37.6350   25.1600   36.4130 N   0  0  0  0  0  0  0  0  0  0  0  0
   39.2070   23.7660   33.9360 H   0  0  0  0  0  0  0  0  0  0  0  0
   39.6880   22.6430   36.2280 H   0  0  0  0  0  0  0  0  0  0  0  0
   36.6810   28.0570   33.0670 C   0  0  0  0  0  0  0  0  0  0  0  0
   37.1340   27.3340   34.1680 C   0  0  0  0  0  0  0  0  0  0  0  0
   37.4200   25.9740   34.0170 C   0  0  0  0  0  0  0  0  0  0  0  0
   37.2340   25.4190   32.7630 N   0  0  0  0  0  0  0  0  0  0  0  0
   36.7900   26.1670   31.7180 C   0  0  0  0  0  0  0  0  0  0  0  0
   36.5190   27.4600   31.8700 N   0  0  0  0  0  0  0  0  0  0  0  0
   36.4610   29.1100   33.1900 H   0  0  0  0  0  0  0  0  0  0  0  0
   37.2700   27.7920   35.1320 H   0  0  0  0  0  0  0  0  0  0  0  0
   36.7070   25.5530   30.8180 H   0  0  0  0  0  0  0  0  0  0  0  0
   38.3220   23.8430   38.4320 C   0  0  0  0  0  0  0  0  0  0  0  0
   39.5630   23.3590   38.8080 F   0  0  0  0  0  0  0  0  0  0  0  0
   38.0840   25.0060   39.1570 F   0  0  0  0  0  0  0  0  0  0  0  0
   37.3610   22.8830   38.7070 F   0  0  0  0  0  0  0  0  0  0  0  0
  1  5  2  0  0  0  0
  2  1  1  0  0  0  0
  2  3  2  0  0  0  0
  3  7  1  0  0  0  0
  3  4  1  0  0  0  0
  4 17  1  0  0  0  0
  5  4  1  0  0  0  0
  6  2  1  0  0  0  0
  8 14  1  0  0  0  0
  8  9  1  0  0  0  0
  9 15  1  0  0  0  0
 10  9  2  0  0  0  0
 10  1  1  0  0  0  0
 11 10  1  0  0  0  0
 12 13  1  0  0  0  0
 12 11  2  0  0  0  0
 13  8  2  0  0  0  0
 16 12  1  0  0  0  0
 17 20  1  0  0  0  0
 17 18  1  0  0  0  0
 17 19  1  0  0  0  0
M  END
>  <minimizedAffinity>
-4.6486063

$$$$

 OpenBabel03272508343D

 20 21  0  0  0  0  0  0  0  0999 V2000
   37.7080   22.2080   34.8870 C   0  0  0  0  0  0  0  0  0  0  0  0
   38.8380   22.9760   34.6900 C   0  0  0  0  0  0  0  0  0  0  0  0
   39.1830   23.5570   35.9050 C   0  0  0  0  0  0  0  0  0  0  0  0
   38.2620   23.1270   36.7890 N   0  0  0  0  0  0  0  0  0  0  0  0
   37.3850   22.3240   36.1840 N   0  0  0  0  0  0  0  0  0  0  0  0
   39.3890   23.1230   33.7560 H   0  0  0  0  0  0  0  0  0  0  0  0
   40.0320   24.2080   36.0270 H   0  0  0  0  0  0  0  0  0  0  0  0
   35.3540   20.0880   32.8630 C   0  0  0  0  0  0  0  0  0  0  0  0
   35.8730   20.7770   33.9550 C   0  0  0  0  0  0  0  0  0  0  0  0
   37.0850   21.4620   33.8140 C   0  0  0  0  0  0  0  0  0  0  0  0
   37.7040   21.4120   32.5780 N   0  0  0  0  0  0  0  0  0  0  0  0
   37.1570   20.7250   31.5400 C   0  0  0  0  0  0  0  0  0  0  0  0
   36.0050   20.0760   31.6830 N   0  0  0  0  0  0  0  0  0  0  0  0
   34.4160   19.5600   32.9780 H   0  0  0  0  0  0  0  0  0  0  0  0
   35.3700   20.7990   34.9060 H   0  0  0  0  0  0  0  0  0  0  0  0
   37.7900   20.8040   30.6540 H   0  0  0  0  0  0  0  0  0  0  0  0
   38.2910   23.5270   38.1870 C   0  0  0  0  0  0  0  0  0  0  0  0
   39.5410   23.2970   38.7360 F   0  0  0  0  0  0  0  0  0  0  0  0
   38.0460   24.8950   38.2510 F   0  0  0  0  0  0  0  0  0  0  0  0
   37.3440   22.8210   38.9110 F   0  0  0  0  0  0  0  0  0  0  0  0
  1  5  2  0  0  0  0
  2  1  1  0  0  0  0
  2  3  2  0  0  0  0
  3  7  1  0  0  0  0
  3  4  1  0  0  0  0
  4 17  1  0  0  0  0
  5  4  1  0  0  0  0
  6  2  1  0  0  0  0
  8 14  1  0  0  0  0
  8  9  1  0  0  0  0
  9 15  1  0  0  0  0
 10  9  2  0  0  0  0
 10  1  1  0  0  0  0
 11 10  1  0  0  0  0
 12 13  1  0  0  0  0
 12 11  2  0  0  0  0
 13  8  2  0  0  0  0
 16 12  1  0  0  0  0
 17 19  1  0  0  0  0
 17 18  1  0  0  0  0
 17 20  1  0  0  0  0
M  END
>  <minimizedAffinity>
-4.52557945

$$$$

 OpenBabel03272508343D

 20 21  0  0  0  0  0  0  0  0999 V2000
   38.0760   23.3360   34.8410 C   0  0  0  0  0  0  0  0  0  0  0  0
   38.2840   24.6960   34.9530 C   0  0  0  0  0  0  0  0  0  0  0  0
   38.3640   25.0110   36.3050 C   0  0  0  0  0  0  0  0  0  0  0  0
   38.2060   23.8440   36.9610 N   0  0  0  0  0  0  0  0  0  0  0  0
   38.0350   22.8480   36.0900 N   0  0  0  0  0  0  0  0  0  0  0  0
   38.3730   25.4250   34.1430 H   0  0  0  0  0  0  0  0  0  0  0  0
   38.5240   26.0120   36.6690 H   0  0  0  0  0  0  0  0  0  0  0  0
   38.3870   20.9140   31.9830 C   0  0  0  0  0  0  0  0  0  0  0  0
   38.5740   21.4680   33.2460 C   0  0  0  0  0  0  0  0  0  0  0  0
   37.9460   22.6780   33.5580 C   0  0  0  0  0  0  0  0  0  0  0  0
   37.1650   23.2610   32.5760 N   0  0  0  0  0  0  0  0  0  0  0  0
   37.0120   22.6800   31.3560 C   0  0  0  0  0  0  0  0  0  0  0  0
   37.6130   21.5300   31.0680 N   0  0  0  0  0  0  0  0  0  0  0  0
   38.8760   19.9770   31.7470 H   0  0  0  0  0  0  0  0  0  0  0  0
   39.1880   20.9920   33.9910 H   0  0  0  0  0  0  0  0  0  0  0  0
   36.3620   23.2890   30.7230 H   0  0  0  0  0  0  0  0  0  0  0  0
   38.2300   23.7680   38.4130 C   0  0  0  0  0  0  0  0  0  0  0  0
   37.3100   22.8380   38.8690 F   0  0  0  0  0  0  0  0  0  0  0  0
   39.4930   23.3400   38.8040 F   0  0  0  0  0  0  0  0  0  0  0  0
   37.9330   25.0040   38.9660 F   0  0  0  0  0  0  0  0  0  0  0  0
  1  2  1  0  0  0  0
  1  5  2  0  0  0  0
  2  3  2  0  0  0  0
  3  7  1  0  0  0  0
  3  4  1  0  0  0  0
  4 17  1  0  0  0  0
  5  4  1  0  0  0  0
  6  2  1  0  0  0  0
  8  9  1  0  0  0  0
  9 10  2  0  0  0  0
  9 15  1  0  0  0  0
 10  1  1  0  0  0  0
 11 10  1  0  0  0  0
 12 11  2  0  0  0  0
 13 12  1  0  0  0  0
 13  8  2  0  0  0  0
 14  8  1  0  0  0  0
 16 12  1  0  0  0  0
 17 19  1  0  0  0  0
 17 18  1  0  0  0  0
 17 20  1  0  0  0  0
M  END
>  <minimizedAffinity>
-4.36487389

$$$$

 OpenBabel03272508343D

 20 21  0  0  0  0  0  0  0  0999 V2000
   37.1310   21.7960   34.8190 C   0  0  0  0  0  0  0  0  0  0  0  0
   36.1010   20.8890   34.9700 C   0  0  0  0  0  0  0  0  0  0  0  0
   35.5720   20.6230   33.7120 C   0  0  0  0  0  0  0  0  0  0  0  0
   36.2900   21.3680   32.8500 N   0  0  0  0  0  0  0  0  0  0  0  0
   37.2170   22.0660   33.5080 N   0  0  0  0  0  0  0  0  0  0  0  0
   35.7400   20.4400   35.9000 H   0  0  0  0  0  0  0  0  0  0  0  0
   34.7510   19.9440   33.5490 H   0  0  0  0  0  0  0  0  0  0  0  0
   39.9400   22.6800   37.1560 C   0  0  0  0  0  0  0  0  0  0  0  0
   39.2910   22.1770   36.0310 C   0  0  0  0  0  0  0  0  0  0  0  0
   37.8990   22.2860   35.9440 C   0  0  0  0  0  0  0  0  0  0  0  0
   37.2410   22.8960   36.9970 N   0  0  0  0  0  0  0  0  0  0  0  0
   37.9200   23.3720   38.0750 C   0  0  0  0  0  0  0  0  0  0  0  0
   39.2430   23.2640   38.1500 N   0  0  0  0  0  0  0  0  0  0  0  0
   41.0180   22.5930   37.2170 H   0  0  0  0  0  0  0  0  0  0  0  0
   39.8280   21.7070   35.2270 H   0  0  0  0  0  0  0  0  0  0  0  0
   37.2290   23.8160   38.7940 H   0  0  0  0  0  0  0  0  0  0  0  0
   36.0260   21.3580   31.4190 C   0  0  0  0  0  0  0  0  0  0  0  0
   35.5300   22.5820   31.0050 F   0  0  0  0  0  0  0  0  0  0  0  0
   37.2310   21.1450   30.7580 F   0  0  0  0  0  0  0  0  0  0  0  0
   35.1080   20.3690   31.1050 F   0  0  0  0  0  0  0  0  0  0  0  0
  1  2  1  0  0  0  0
  1 10  1  0  0  0  0
  2  6  1  0  0  0  0
  3  2  2  0  0  0  0
  4  5  1  0  0  0  0
  4  3  1  0  0  0  0
  5  1  2  0  0  0  0
  7  3  1  0  0  0  0
  8 14  1  0  0  0  0
  8 13  1  0  0  0  0
  9  8  2  0  0  0  0
 10  9  1  0  0  0  0
 10 11  2  0  0  0  0
 11 12  1  0  0  0  0
 12 13  2  0  0  0  0
 12 16  1  0  0  0  0
 15  9  1  0  0  0  0
 17  4  1  0  0  0  0
 18 17  1  0  0  0  0
 19 17  1  0  0  0  0
 20 17  1  0  0  0  0
M  END
>  <minimizedAffinity>
-4.36104345

$$$$

 OpenBabel03272508343D

 20 21  0  0  0  0  0  0  0  0999 V2000
   38.1750   23.9790   34.6730 C   0  0  0  0  0  0  0  0  0  0  0  0
   38.6510   22.6930   34.8360 C   0  0  0  0  0  0  0  0  0  0  0  0
   38.7520   22.4390   36.2000 C   0  0  0  0  0  0  0  0  0  0  0  0
   38.3390   23.5660   36.8120 N   0  0  0  0  0  0  0  0  0  0  0  0
   37.9950   24.4820   35.9040 N   0  0  0  0  0  0  0  0  0  0  0  0
   38.9110   21.9750   34.0530 H   0  0  0  0  0  0  0  0  0  0  0  0
   39.1010   21.5020   36.6000 H   0  0  0  0  0  0  0  0  0  0  0  0
   37.2160   24.5040   31.0760 C   0  0  0  0  0  0  0  0  0  0  0  0
   37.3900   23.8560   32.2970 C   0  0  0  0  0  0  0  0  0  0  0  0
   37.9530   24.5600   33.3660 C   0  0  0  0  0  0  0  0  0  0  0  0
   38.3090   25.8780   33.1440 N   0  0  0  0  0  0  0  0  0  0  0  0
   38.1190   26.4680   31.9330 C   0  0  0  0  0  0  0  0  0  0  0  0
   37.5830   25.7910   30.9210 N   0  0  0  0  0  0  0  0  0  0  0  0
   36.7800   23.9540   30.2520 H   0  0  0  0  0  0  0  0  0  0  0  0
   37.1040   22.8290   32.4410 H   0  0  0  0  0  0  0  0  0  0  0  0
   38.4610   27.5050   31.9570 H   0  0  0  0  0  0  0  0  0  0  0  0
   38.3030   23.6860   38.2610 C   0  0  0  0  0  0  0  0  0  0  0  0
   37.3520   22.8340   38.7980 F   0  0  0  0  0  0  0  0  0  0  0  0
   39.5430   23.3030   38.7580 F   0  0  0  0  0  0  0  0  0  0  0  0
   38.0020   24.9870   38.6300 F   0  0  0  0  0  0  0  0  0  0  0  0
  1  2  1  0  0  0  0
  1  5  2  0  0  0  0
  2  3  2  0  0  0  0
  3  7  1  0  0  0  0
  3  4  1  0  0  0  0
  4 17  1  0  0  0  0
  5  4  1  0  0  0  0
  6  2  1  0  0  0  0
  8  9  1  0  0  0  0
  9 15  1  0  0  0  0
  9 10  2  0  0  0  0
 10  1  1  0  0  0  0
 11 10  1  0  0  0  0
 12 16  1  0  0  0  0
 12 11  2  0  0  0  0
 13  8  2  0  0  0  0
 13 12  1  0  0  0  0
 14  8  1  0  0  0  0
 17 20  1  0  0  0  0
 17 19  1  0  0  0  0
 17 18  1  0  0  0  0
M  END
>  <minimizedAffinity>
-4.31220865

$$$$

 OpenBabel03272508343D

 20 21  0  0  0  0  0  0  0  0999 V2000
   37.9410   21.8980   34.4590 C   0  0  0  0  0  0  0  0  0  0  0  0
   38.8000   21.8240   33.3810 C   0  0  0  0  0  0  0  0  0  0  0  0
   38.0770   21.3720   32.2820 C   0  0  0  0  0  0  0  0  0  0  0  0
   36.8170   21.1910   32.7250 N   0  0  0  0  0  0  0  0  0  0  0  0
   36.7360   21.5040   34.0190 N   0  0  0  0  0  0  0  0  0  0  0  0
   39.8660   22.0680   33.3610 H   0  0  0  0  0  0  0  0  0  0  0  0
   38.5140   21.2250   31.3090 H   0  0  0  0  0  0  0  0  0  0  0  0
   40.0230   22.6720   37.4920 C   0  0  0  0  0  0  0  0  0  0  0  0
   39.6990   22.2200   36.2160 C   0  0  0  0  0  0  0  0  0  0  0  0
   38.3800   22.3370   35.7670 C   0  0  0  0  0  0  0  0  0  0  0  0
   37.4610   22.9050   36.6320 N   0  0  0  0  0  0  0  0  0  0  0  0
   37.8260   23.3330   37.8700 C   0  0  0  0  0  0  0  0  0  0  0  0
   39.0820   23.2160   38.2890 N   0  0  0  0  0  0  0  0  0  0  0  0
   41.0460   22.5780   37.8340 H   0  0  0  0  0  0  0  0  0  0  0  0
   40.4340   21.7820   35.5640 H   0  0  0  0  0  0  0  0  0  0  0  0
   36.9650   23.7480   38.3980 H   0  0  0  0  0  0  0  0  0  0  0  0
   35.7550   20.7180   31.8510 C   0  0  0  0  0  0  0  0  0  0  0  0
   36.0490   19.4550   31.3640 F   0  0  0  0  0  0  0  0  0  0  0  0
   34.5880   20.6200   32.6000 F   0  0  0  0  0  0  0  0  0  0  0  0
   35.5870   21.5840   30.7830 F   0  0  0  0  0  0  0  0  0  0  0  0
  1 10  1  0  0  0  0
  2  1  1  0  0  0  0
  3  4  1  0  0  0  0
  3  2  2  0  0  0  0
  4  5  1  0  0  0  0
  5  1  2  0  0  0  0
  6  2  1  0  0  0  0
  7  3  1  0  0  0  0
  8 14  1  0  0  0  0
  8 13  1  0  0  0  0
  9  8  2  0  0  0  0
 10  9  1  0  0  0  0
 10 11  2  0  0  0  0
 11 12  1  0  0  0  0
 12 13  2  0  0  0  0
 12 16  1  0  0  0  0
 15  9  1  0  0  0  0
 17 19  1  0  0  0  0
 17  4  1  0  0  0  0
 18 17  1  0  0  0  0
 20 17  1  0  0  0  0
M  END
>  <minimizedAffinity>
-4.26100731

$$$$

 OpenBabel03272508343D

 20 21  0  0  0  0  0  0  0  0999 V2000
   37.5350   26.7680   34.4650 C   0  0  0  0  0  0  0  0  0  0  0  0
   38.1400   27.5720   35.4100 C   0  0  0  0  0  0  0  0  0  0  0  0
   38.4270   26.7890   36.5230 C   0  0  0  0  0  0  0  0  0  0  0  0
   37.9910   25.5510   36.2200 N   0  0  0  0  0  0  0  0  0  0  0  0
   37.4610   25.5380   34.9960 N   0  0  0  0  0  0  0  0  0  0  0  0
   38.3680   28.6380   35.3290 H   0  0  0  0  0  0  0  0  0  0  0  0
   38.9030   27.1760   37.4080 H   0  0  0  0  0  0  0  0  0  0  0  0
   35.9010   28.7900   31.7500 C   0  0  0  0  0  0  0  0  0  0  0  0
   36.2560   28.3770   33.0310 C   0  0  0  0  0  0  0  0  0  0  0  0
   37.1060   27.2760   33.1790 C   0  0  0  0  0  0  0  0  0  0  0  0
   37.5500   26.6540   32.0250 N   0  0  0  0  0  0  0  0  0  0  0  0
   37.1760   27.0960   30.7950 C   0  0  0  0  0  0  0  0  0  0  0  0
   36.3660   28.1430   30.6630 N   0  0  0  0  0  0  0  0  0  0  0  0
   35.2430   29.6430   31.6410 H   0  0  0  0  0  0  0  0  0  0  0  0
   35.8960   28.8790   33.9110 H   0  0  0  0  0  0  0  0  0  0  0  0
   37.6270   26.4790   30.0150 H   0  0  0  0  0  0  0  0  0  0  0  0
   38.1190   24.4410   37.1520 C   0  0  0  0  0  0  0  0  0  0  0  0
   38.0420   24.8890   38.4600 F   0  0  0  0  0  0  0  0  0  0  0  0
   37.0540   23.5730   36.9390 F   0  0  0  0  0  0  0  0  0  0  0  0
   39.3290   23.7930   36.9680 F   0  0  0  0  0  0  0  0  0  0  0  0
  1  5  2  0  0  0  0
  1  2  1  0  0  0  0
  2  3  2  0  0  0  0
  3  7  1  0  0  0  0
  4  3  1  0  0  0  0
  4 17  1  0  0  0  0
  5  4  1  0  0  0  0
  6  2  1  0  0  0  0
  8  9  1  0  0  0  0
  9 10  2  0  0  0  0
  9 15  1  0  0  0  0
 10  1  1  0  0  0  0
 11 10  1  0  0  0  0
 12 11  2  0  0  0  0
 13 12  1  0  0  0  0
 13  8  2  0  0  0  0
 14  8  1  0  0  0  0
 16 12  1  0  0  0  0
 17 18  1  0  0  0  0
 19 17  1  0  0  0  0
 20 17  1  0  0  0  0
M  END
>  <minimizedAffinity>
-4.24358797

$$$$

 OpenBabel03272508343D

 20 21  0  0  0  0  0  0  0  0999 V2000
   38.6690   24.6470   35.8080 C   0  0  0  0  0  0  0  0  0  0  0  0
   38.1420   24.1810   36.9960 C   0  0  0  0  0  0  0  0  0  0  0  0
   39.0300   23.2520   37.5270 C   0  0  0  0  0  0  0  0  0  0  0  0
   40.0540   23.1860   36.6540 N   0  0  0  0  0  0  0  0  0  0  0  0
   39.8400   24.0160   35.6310 N   0  0  0  0  0  0  0  0  0  0  0  0
   37.1970   24.4700   37.4640 H   0  0  0  0  0  0  0  0  0  0  0  0
   38.8570   22.7350   38.4560 H   0  0  0  0  0  0  0  0  0  0  0  0
   37.0010   27.7910   34.5970 C   0  0  0  0  0  0  0  0  0  0  0  0
   37.6570   26.9120   35.4550 C   0  0  0  0  0  0  0  0  0  0  0  0
   37.9880   25.6340   34.9960 C   0  0  0  0  0  0  0  0  0  0  0  0
   37.6380   25.3140   33.6960 N   0  0  0  0  0  0  0  0  0  0  0  0
   36.9980   26.2070   32.8950 C   0  0  0  0  0  0  0  0  0  0  0  0
   36.6870   27.4210   33.3400 N   0  0  0  0  0  0  0  0  0  0  0  0
   36.7480   28.7800   34.9580 H   0  0  0  0  0  0  0  0  0  0  0  0
   37.9170   27.1880   36.4620 H   0  0  0  0  0  0  0  0  0  0  0  0
   36.8100   25.7710   31.9120 H   0  0  0  0  0  0  0  0  0  0  0  0
   41.1940   22.3090   36.8690 C   0  0  0  0  0  0  0  0  0  0  0  0
   41.3680   21.4600   35.7890 F   0  0  0  0  0  0  0  0  0  0  0  0
   42.3340   23.0970   36.9740 F   0  0  0  0  0  0  0  0  0  0  0  0
   41.0100   21.5500   38.0130 F   0  0  0  0  0  0  0  0  0  0  0  0
  1  2  1  0  0  0  0
  2  6  1  0  0  0  0
  2  3  2  0  0  0  0
  3  7  1  0  0  0  0
  4 17  1  0  0  0  0
  4  3  1  0  0  0  0
  5  1  2  0  0  0  0
  5  4  1  0  0  0  0
  8 14  1  0  0  0  0
  8  9  1  0  0  0  0
  9 15  1  0  0  0  0
 10  9  2  0  0  0  0
 10  1  1  0  0  0  0
 11 10  1  0  0  0  0
 12 13  1  0  0  0  0
 12 11  2  0  0  0  0
 13  8  2  0  0  0  0
 16 12  1  0  0  0  0
 17 19  1  0  0  0  0
 17 20  1  0  0  0  0
 18 17  1  0  0  0  0
M  END
>  <minimizedAffinity>
-4.21003819

$$$$

 OpenBabel03272508343D

 20 21  0  0  0  0  0  0  0  0999 V2000
   38.1690   24.6910   34.5030 C   0  0  0  0  0  0  0  0  0  0  0  0
   38.1610   25.9470   35.0740 C   0  0  0  0  0  0  0  0  0  0  0  0
   38.1690   25.7950   36.4560 C   0  0  0  0  0  0  0  0  0  0  0  0
   38.1810   24.4650   36.6750 N   0  0  0  0  0  0  0  0  0  0  0  0
   38.1810   23.8090   35.5140 N   0  0  0  0  0  0  0  0  0  0  0  0
   38.1510   26.9120   34.5590 H   0  0  0  0  0  0  0  0  0  0  0  0
   38.1650   26.6260   37.1410 H   0  0  0  0  0  0  0  0  0  0  0  0
   39.2110   24.3500   30.9070 C   0  0  0  0  0  0  0  0  0  0  0  0
   39.3180   24.5530   32.2800 C   0  0  0  0  0  0  0  0  0  0  0  0
   38.1640   24.4940   33.0690 C   0  0  0  0  0  0  0  0  0  0  0  0
   36.9670   24.2330   32.4270 N   0  0  0  0  0  0  0  0  0  0  0  0
   36.9130   24.0400   31.0820 C   0  0  0  0  0  0  0  0  0  0  0  0
   38.0150   24.0990   30.3390 N   0  0  0  0  0  0  0  0  0  0  0  0
   40.1070   24.3960   30.3020 H   0  0  0  0  0  0  0  0  0  0  0  0
   40.2630   24.7550   32.7530 H   0  0  0  0  0  0  0  0  0  0  0  0
   35.8850   23.8480   30.7650 H   0  0  0  0  0  0  0  0  0  0  0  0
   38.1910   23.9070   38.0190 C   0  0  0  0  0  0  0  0  0  0  0  0
   37.2310   22.9170   38.1430 F   0  0  0  0  0  0  0  0  0  0  0  0
   39.4330   23.3210   38.2350 F   0  0  0  0  0  0  0  0  0  0  0  0
   37.9410   24.8970   38.9540 F   0  0  0  0  0  0  0  0  0  0  0  0
  1  2  1  0  0  0  0
  1  5  2  0  0  0  0
  2  3  2  0  0  0  0
  3  4  1  0  0  0  0
  3  7  1  0  0  0  0
  4 17  1  0  0  0  0
  5  4  1  0  0  0  0
  6  2  1  0  0  0  0
  8  9  1  0  0  0  0
  9 15  1  0  0  0  0
  9 10  2  0  0  0  0
 10  1  1  0  0  0  0
 11 10  1  0  0  0  0
 12 11  2  0  0  0  0
 13  8  2  0  0  0  0
 13 12  1  0  0  0  0
 14  8  1  0  0  0  0
 16 12  1  0  0  0  0
 17 18  1  0  0  0  0
 17 19  1  0  0  0  0
 17 20  1  0  0  0  0
M  END
>  <minimizedAffinity>
-4.18818808

$$$$
