
 OpenBabel03272510113D

 30 32  0  0  0  0  0  0  0  0999 V2000
   33.8280   28.7010   48.2870 C   0  0  0  0  0  0  0  0  0  0  0  0
   34.3970   28.2770   49.4360 C   0  0  0  0  0  0  0  0  0  0  0  0
   35.6390   28.6780   49.8910 C   0  0  0  0  0  0  0  0  0  0  0  0
   36.3720   29.5610   49.1580 C   0  0  0  0  0  0  0  0  0  0  0  0
   35.7800   30.0010   47.9640 C   0  0  0  0  0  0  0  0  0  0  0  0
   34.5670   29.5790   47.5680 N   0  0  0  0  0  0  0  0  0  0  0  0
   33.8950   27.5750   50.0880 H   0  0  0  0  0  0  0  0  0  0  0  0
   36.0980   28.3410   50.8090 H   0  0  0  0  0  0  0  0  0  0  0  0
   36.3020   30.7060   47.3270 H   0  0  0  0  0  0  0  0  0  0  0  0
   31.6310   27.5220   48.5870 C   0  0  0  0  0  0  0  0  0  0  0  0
   32.5370   28.2750   47.8270 C   0  0  0  0  0  0  0  0  0  0  0  0
   32.1050   28.5990   46.5600 C   0  0  0  0  0  0  0  0  0  0  0  0
   30.8900   28.2070   46.1050 N   0  0  0  0  0  0  0  0  0  0  0  0
   30.0650   27.4770   46.9030 C   0  0  0  0  0  0  0  0  0  0  0  0
   30.4260   27.1320   48.1400 N   0  0  0  0  0  0  0  0  0  0  0  0
   31.9230   27.2420   49.5890 H   0  0  0  0  0  0  0  0  0  0  0  0
   32.7780   29.1890   45.9200 H   0  0  0  0  0  0  0  0  0  0  0  0
   29.1440   27.2470   46.3980 H   0  0  0  0  0  0  0  0  0  0  0  0
   37.6320   30.0790   49.4490 O   0  0  0  0  0  0  0  0  0  0  0  0
   38.2260   31.0560   48.6630 C   0  0  0  0  0  0  0  0  0  0  0  0
   38.3230   32.3020   49.2860 C   0  0  0  0  0  0  0  0  0  0  0  0
   38.9360   33.1550   48.3710 C   0  0  0  0  0  0  0  0  0  0  0  0
   39.1780   32.4270   47.2740 N   0  0  0  0  0  0  0  0  0  0  0  0
   38.7660   31.1950   47.4370 N   0  0  0  0  0  0  0  0  0  0  0  0
   38.0450   32.7100   50.2490 H   0  0  0  0  0  0  0  0  0  0  0  0
   39.1890   34.2160   48.4800 H   0  0  0  0  0  0  0  0  0  0  0  0
   39.8140   32.9490   46.0750 C   0  0  0  0  0  0  0  0  0  0  0  0
   40.3600   34.2080   46.3080 F   0  0  0  0  0  0  0  0  0  0  0  0
   38.9340   33.0970   45.0440 F   0  0  0  0  0  0  0  0  0  0  0  0
   40.8730   32.1370   45.7060 F   0  0  0  0  0  0  0  0  0  0  0  0
  1  2  1  0  0  0  0
  2  3  2  0  0  0  0
  2  7  1  0  0  0  0
  3  8  1  0  0  0  0
  4 19  1  0  0  0  0
  4  3  1  0  0  0  0
  5  4  2  0  0  0  0
  6  5  1  0  0  0  0
  6  1  2  0  0  0  0
  9  5  1  0  0  0  0
 10 16  1  0  0  0  0
 11  1  1  0  0  0  0
 11 10  2  0  0  0  0
 12 11  1  0  0  0  0
 13 12  2  0  0  0  0
 13 14  1  0  0  0  0
 14 15  2  0  0  0  0
 15 10  1  0  0  0  0
 17 12  1  0  0  0  0
 18 14  1  0  0  0  0
 20 21  1  0  0  0  0
 20 19  1  0  0  0  0
 21 25  1  0  0  0  0
 22 26  1  0  0  0  0
 22 21  2  0  0  0  0
 23 24  1  0  0  0  0
 23 22  1  0  0  0  0
 24 20  2  0  0  0  0
 27 28  1  0  0  0  0
 27 23  1  0  0  0  0
 29 27  1  0  0  0  0
 30 27  1  0  0  0  0
M  END
>  <minimizedAffinity>
-6.06658888

>  <minimizedRMSD>
0.829957604

$$$$
