
 OpenBabel03272509413D

 33 34  0  0  1  0  0  0  0  0999 V2000
   37.0870   30.9380   49.0570 C   0  0  0  0  0  0  0  0  0  0  0  0
   36.8140   31.8750   50.0520 C   0  0  0  0  0  0  0  0  0  0  0  0
   37.4110   33.1290   50.0590 C   0  0  0  0  0  0  0  0  0  0  0  0
   38.3090   33.4700   49.0430 C   0  0  0  0  0  0  0  0  0  0  0  0
   38.5660   32.5380   48.0730 C   0  0  0  0  0  0  0  0  0  0  0  0
   37.9520   31.2940   48.1010 C   0  0  0  0  0  0  0  0  0  0  0  0
   36.1100   31.6050   50.8430 H   0  0  0  0  0  0  0  0  0  0  0  0
   37.1420   33.7810   50.8620 H   0  0  0  0  0  0  0  0  0  0  0  0
   38.7350   34.4620   49.1110 H   0  0  0  0  0  0  0  0  0  0  0  0
   39.2830   32.9440   47.3530 H   0  0  0  0  0  0  0  0  0  0  0  0
   36.4890   29.6210   49.0660 C   0  0  2  0  0  0  0  0  0  0  0  0
   36.9910   29.0600   48.1860 H   0  0  0  0  0  0  0  0  0  0  0  0
   33.6300   29.9600   46.8500 C   0  0  0  0  0  0  0  0  0  0  0  0
   32.8840   28.8250   47.0810 C   0  0  0  0  0  0  0  0  0  0  0  0
   33.3260   27.9450   48.0560 C   0  0  0  0  0  0  0  0  0  0  0  0
   34.4800   28.2310   48.7520 N   0  0  0  0  0  0  0  0  0  0  0  0
   35.1480   29.3330   48.4820 C   0  0  0  0  0  0  0  0  0  0  0  0
   34.7310   30.2070   47.5330 N   0  0  0  0  0  0  0  0  0  0  0  0
   33.2410   30.6120   46.0800 H   0  0  0  0  0  0  0  0  0  0  0  0
   31.9740   28.5150   46.5900 H   0  0  0  0  0  0  0  0  0  0  0  0
   32.8810   27.0080   48.3830 H   0  0  0  0  0  0  0  0  0  0  0  0
   36.9560   28.8690   50.0000 O   0  0  0  0  0  0  0  0  0  0  0  0
   36.7110   28.9910   50.9450 H   0  0  0  0  0  0  0  0  0  0  0  0
   38.3460   30.3990   47.0390 C   0  0  0  0  0  3  0  0  0  0  0  0
   38.6940   30.8050   45.8130 C   0  0  0  0  0  3  0  0  0  0  0  0
   39.1600   29.9860   44.6690 C   0  0  0  0  0  0  0  0  0  0  0  0
   38.2960   29.6330   44.0500 H   0  0  0  0  0  0  0  0  0  0  0  0
   39.6230   29.0610   45.0860 H   0  0  0  0  0  0  0  0  0  0  0  0
   40.3730   30.9040   43.7170 S   0  0  0  0  0  0  0  0  0  0  0  0
   40.7190   30.0440   42.1450 C   0  0  0  0  0  0  0  0  0  0  0  0
   41.9180   29.3510   42.3020 F   0  0  0  0  0  0  0  0  0  0  0  0
   40.9110   30.9890   41.1240 F   0  0  0  0  0  0  0  0  0  0  0  0
   39.7160   29.1810   41.8060 F   0  0  0  0  0  0  0  0  0  0  0  0
  1 11  1  0  0  0  0
  1  2  1  0  0  0  0
  2  3  2  0  0  0  0
  2  7  1  0  0  0  0
  3  8  1  0  0  0  0
  4  9  1  0  0  0  0
  4  3  1  0  0  0  0
  5  6  1  0  0  0  0
  5  4  2  0  0  0  0
  6  1  2  0  0  0  0
 10  5  1  0  0  0  0
 11 12  1  6  0  0  0
 11 22  1  0  0  0  0
 13 14  2  0  0  0  0
 13 18  1  0  0  0  0
 14 15  1  0  0  0  0
 15 21  1  0  0  0  0
 15 16  2  0  0  0  0
 17 16  1  0  0  0  0
 17 11  1  0  0  0  0
 18 17  2  0  0  0  0
 19 13  1  0  0  0  0
 20 14  1  0  0  0  0
 22 23  1  0  0  0  0
 24  6  1  0  0  0  0
 25 24  2  0  0  0  0
 26 28  1  0  0  0  0
 26 25  1  0  0  0  0
 27 26  1  0  0  0  0
 29 26  1  0  0  0  0
 30 31  1  0  0  0  0
 30 29  1  0  0  0  0
 32 30  1  0  0  0  0
 33 30  1  0  0  0  0
M  END
>  <minimizedAffinity>
-5.74906397

>  <minimizedRMSD>
0.550175786

$$$$
