
 OpenBabel03272506253D

 27 28  0  0  0  0  0  0  0  0999 V2000
   39.9490   24.2450   34.9800 C   0  0  0  0  0  0  0  0  0  0  0  0
   41.2160   24.4980   34.5370 C   0  0  0  0  0  0  0  0  0  0  0  0
   42.3830   24.0400   35.1270 C   0  0  0  0  0  0  0  0  0  0  0  0
   42.2690   23.2440   36.2830 C   0  0  0  0  0  0  0  0  0  0  0  0
   40.9970   22.9790   36.7420 C   0  0  0  0  0  0  0  0  0  0  0  0
   39.8520   23.4530   36.1280 C   0  0  0  0  0  0  0  0  0  0  0  0
   41.4120   25.1070   33.6470 H   0  0  0  0  0  0  0  0  0  0  0  0
   43.3700   24.2610   34.7480 H   0  0  0  0  0  0  0  0  0  0  0  0
   43.1160   22.8400   36.8130 H   0  0  0  0  0  0  0  0  0  0  0  0
   40.7870   22.3750   37.6250 H   0  0  0  0  0  0  0  0  0  0  0  0
   38.3820   24.0410   33.1410 C   0  0  0  0  0  0  0  0  0  0  0  0
   38.8610   24.8030   34.2410 C   0  0  0  0  0  0  0  0  0  0  0  0
   38.2410   26.0240   34.5110 C   0  0  0  0  0  0  0  0  0  0  0  0
   37.2080   26.4280   33.7130 N   0  0  0  0  0  0  0  0  0  0  0  0
   36.7700   25.6690   32.6600 C   0  0  0  0  0  0  0  0  0  0  0  0
   37.3580   24.4830   32.3820 N   0  0  0  0  0  0  0  0  0  0  0  0
   38.8450   23.0890   32.9090 H   0  0  0  0  0  0  0  0  0  0  0  0
   35.9390   26.0790   32.0820 H   0  0  0  0  0  0  0  0  0  0  0  0
   38.6420   26.9150   35.6250 C   0  0  0  0  0  0  0  0  0  0  0  0
   37.9720   28.1400   35.5110 F   0  0  0  0  0  0  0  0  0  0  0  0
   38.4620   26.4350   36.8740 F   0  0  0  0  0  0  0  0  0  0  0  0
   39.9850   27.2760   35.4650 F   0  0  0  0  0  0  0  0  0  0  0  0
   38.1990   23.1220   36.7040 S   0  0  0  0  0  0  0  0  0  0  0  0
   37.9660   23.3930   38.4560 C   0  0  0  0  0  0  0  0  0  0  0  0
   37.3890   24.6640   38.5920 F   0  0  0  0  0  0  0  0  0  0  0  0
   39.2020   23.4710   39.0660 F   0  0  0  0  0  0  0  0  0  0  0  0
   37.1260   22.4710   39.0420 F   0  0  0  0  0  0  0  0  0  0  0  0
  1  6  1  0  0  0  0
  2  1  2  0  0  0  0
  2  3  1  0  0  0  0
  3  4  2  0  0  0  0
  4  5  1  0  0  0  0
  4  9  1  0  0  0  0
  5 10  1  0  0  0  0
  6 23  1  0  0  0  0
  6  5  2  0  0  0  0
  7  2  1  0  0  0  0
  8  3  1  0  0  0  0
 11 12  1  0  0  0  0
 12 13  2  0  0  0  0
 12  1  1  0  0  0  0
 13 19  1  0  0  0  0
 14 13  1  0  0  0  0
 15 14  2  0  0  0  0
 16 15  1  0  0  0  0
 16 11  2  0  0  0  0
 17 11  1  0  0  0  0
 18 15  1  0  0  0  0
 19 21  1  0  0  0  0
 20 19  1  0  0  0  0
 22 19  1  0  0  0  0
 23 24  1  0  0  0  0
 24 25  1  0  0  0  0
 24 27  1  0  0  0  0
 24 26  1  0  0  0  0
M  END
>  <minimizedAffinity>
-5.61891747

$$$$

 OpenBabel03272506253D

 27 28  0  0  0  0  0  0  0  0999 V2000
   38.8160   25.2090   35.3350 C   0  0  0  0  0  0  0  0  0  0  0  0
   38.8580   26.4720   35.8520 C   0  0  0  0  0  0  0  0  0  0  0  0
   38.1480   27.5620   35.3750 C   0  0  0  0  0  0  0  0  0  0  0  0
   37.3070   27.3670   34.2630 C   0  0  0  0  0  0  0  0  0  0  0  0
   37.2520   26.0970   33.7310 C   0  0  0  0  0  0  0  0  0  0  0  0
   37.9760   25.0300   34.2320 C   0  0  0  0  0  0  0  0  0  0  0  0
   39.4820   26.7280   36.7160 H   0  0  0  0  0  0  0  0  0  0  0  0
   38.2070   28.5500   35.8110 H   0  0  0  0  0  0  0  0  0  0  0  0
   36.7150   28.1500   33.8200 H   0  0  0  0  0  0  0  0  0  0  0  0
   36.6370   25.8280   32.8720 H   0  0  0  0  0  0  0  0  0  0  0  0
   40.8780   23.9340   35.3570 C   0  0  0  0  0  0  0  0  0  0  0  0
   39.6200   24.2060   35.9600 C   0  0  0  0  0  0  0  0  0  0  0  0
   39.2690   23.4830   37.1010 C   0  0  0  0  0  0  0  0  0  0  0  0
   40.1450   22.5530   37.5840 N   0  0  0  0  0  0  0  0  0  0  0  0
   41.3500   22.3140   36.9810 C   0  0  0  0  0  0  0  0  0  0  0  0
   41.7090   23.0040   35.8740 N   0  0  0  0  0  0  0  0  0  0  0  0
   41.1750   24.4800   34.4710 H   0  0  0  0  0  0  0  0  0  0  0  0
   41.9800   21.5500   37.4430 H   0  0  0  0  0  0  0  0  0  0  0  0
   37.9900   23.6680   37.8260 C   0  0  0  0  0  0  0  0  0  0  0  0
   38.0060   24.8940   38.5030 F   0  0  0  0  0  0  0  0  0  0  0  0
   36.8630   23.5960   37.0850 F   0  0  0  0  0  0  0  0  0  0  0  0
   37.9120   22.7350   38.8660 F   0  0  0  0  0  0  0  0  0  0  0  0
   37.9200   23.3810   33.5590 S   0  0  0  0  0  0  0  0  0  0  0  0
   37.1150   23.2670   31.9660 C   0  0  0  0  0  0  0  0  0  0  0  0
   37.3060   21.9540   31.5150 F   0  0  0  0  0  0  0  0  0  0  0  0
   37.7820   24.0770   31.0690 F   0  0  0  0  0  0  0  0  0  0  0  0
   35.7610   23.5140   32.0230 F   0  0  0  0  0  0  0  0  0  0  0  0
  1  2  1  0  0  0  0
  1 12  1  0  0  0  0
  2  7  1  0  0  0  0
  3  8  1  0  0  0  0
  3  2  2  0  0  0  0
  4  3  1  0  0  0  0
  5  6  1  0  0  0  0
  5  4  2  0  0  0  0
  6  1  2  0  0  0  0
  9  4  1  0  0  0  0
 10  5  1  0  0  0  0
 11 16  2  0  0  0  0
 11 12  1  0  0  0  0
 12 13  2  0  0  0  0
 13 14  1  0  0  0  0
 13 19  1  0  0  0  0
 15 18  1  0  0  0  0
 15 14  2  0  0  0  0
 16 15  1  0  0  0  0
 17 11  1  0  0  0  0
 19 20  1  0  0  0  0
 19 22  1  0  0  0  0
 21 19  1  0  0  0  0
 23  6  1  0  0  0  0
 24 27  1  0  0  0  0
 24 23  1  0  0  0  0
 25 24  1  0  0  0  0
 26 24  1  0  0  0  0
M  END
>  <minimizedAffinity>
-5.39049768

$$$$

 OpenBabel03272506253D

 27 28  0  0  0  0  0  0  0  0999 V2000
   38.9570   24.0780   35.8850 C   0  0  0  0  0  0  0  0  0  0  0  0
   37.9940   24.5860   36.7100 C   0  0  0  0  0  0  0  0  0  0  0  0
   37.8730   24.3250   38.0650 C   0  0  0  0  0  0  0  0  0  0  0  0
   38.8170   23.4630   38.6580 C   0  0  0  0  0  0  0  0  0  0  0  0
   39.7950   22.9430   37.8390 C   0  0  0  0  0  0  0  0  0  0  0  0
   39.8860   23.2250   36.4880 C   0  0  0  0  0  0  0  0  0  0  0  0
   37.2140   25.2650   36.3470 H   0  0  0  0  0  0  0  0  0  0  0  0
   37.0970   24.7460   38.6880 H   0  0  0  0  0  0  0  0  0  0  0  0
   38.8080   23.2000   39.7020 H   0  0  0  0  0  0  0  0  0  0  0  0
   40.5760   22.2670   38.1860 H   0  0  0  0  0  0  0  0  0  0  0  0
   38.1380   23.6500   33.6440 C   0  0  0  0  0  0  0  0  0  0  0  0
   38.9240   24.4590   34.5090 C   0  0  0  0  0  0  0  0  0  0  0  0
   39.5950   25.5500   33.9560 C   0  0  0  0  0  0  0  0  0  0  0  0
   39.4670   25.7900   32.6160 N   0  0  0  0  0  0  0  0  0  0  0  0
   38.7020   24.9920   31.8090 C   0  0  0  0  0  0  0  0  0  0  0  0
   38.0440   23.9300   32.3270 N   0  0  0  0  0  0  0  0  0  0  0  0
   37.6060   22.7970   34.0460 H   0  0  0  0  0  0  0  0  0  0  0  0
   38.6640   25.2670   30.7530 H   0  0  0  0  0  0  0  0  0  0  0  0
   40.4460   26.4720   34.7440 C   0  0  0  0  0  0  0  0  0  0  0  0
   39.6580   27.1590   35.6760 F   0  0  0  0  0  0  0  0  0  0  0  0
   41.4980   25.9200   35.3860 F   0  0  0  0  0  0  0  0  0  0  0  0
   40.9100   27.4960   33.9090 F   0  0  0  0  0  0  0  0  0  0  0  0
   41.1420   22.5630   35.4110 S   0  0  0  0  0  0  0  0  0  0  0  0
   42.7740   22.5030   36.1400 C   0  0  0  0  0  0  0  0  0  0  0  0
   42.7490   21.4780   37.0960 F   0  0  0  0  0  0  0  0  0  0  0  0
   42.9940   23.6710   36.8420 F   0  0  0  0  0  0  0  0  0  0  0  0
   43.7670   22.2200   35.2270 F   0  0  0  0  0  0  0  0  0  0  0  0
  1  6  2  0  0  0  0
  1  2  1  0  0  0  0
  2  3  2  0  0  0  0
  3  4  1  0  0  0  0
  3  8  1  0  0  0  0
  4  9  1  0  0  0  0
  5 10  1  0  0  0  0
  5  4  2  0  0  0  0
  6  5  1  0  0  0  0
  7  2  1  0  0  0  0
 11 17  1  0  0  0  0
 11 12  1  0  0  0  0
 12  1  1  0  0  0  0
 13 12  2  0  0  0  0
 13 19  1  0  0  0  0
 14 13  1  0  0  0  0
 15 16  1  0  0  0  0
 15 14  2  0  0  0  0
 16 11  2  0  0  0  0
 18 15  1  0  0  0  0
 19 21  1  0  0  0  0
 19 20  1  0  0  0  0
 22 19  1  0  0  0  0
 23 24  1  0  0  0  0
 23  6  1  0  0  0  0
 24 26  1  0  0  0  0
 24 25  1  0  0  0  0
 27 24  1  0  0  0  0
M  END
>  <minimizedAffinity>
-5.22296

$$$$

 OpenBabel03272506253D

 27 28  0  0  0  0  0  0  0  0999 V2000
   39.4000   24.7690   34.7510 C   0  0  0  0  0  0  0  0  0  0  0  0
   39.8440   25.9010   34.1300 C   0  0  0  0  0  0  0  0  0  0  0  0
   39.5410   27.1990   34.5080 C   0  0  0  0  0  0  0  0  0  0  0  0
   38.7050   27.3820   35.6260 C   0  0  0  0  0  0  0  0  0  0  0  0
   38.2490   26.2490   36.2630 C   0  0  0  0  0  0  0  0  0  0  0  0
   38.5720   24.9660   35.8580 C   0  0  0  0  0  0  0  0  0  0  0  0
   40.4990   25.8670   33.2520 H   0  0  0  0  0  0  0  0  0  0  0  0
   39.9120   28.0740   33.9920 H   0  0  0  0  0  0  0  0  0  0  0  0
   38.4120   28.3500   35.9980 H   0  0  0  0  0  0  0  0  0  0  0  0
   37.5970   26.2690   37.1370 H   0  0  0  0  0  0  0  0  0  0  0  0
   38.9780   22.9280   33.2300 C   0  0  0  0  0  0  0  0  0  0  0  0
   39.8180   23.5100   34.2180 C   0  0  0  0  0  0  0  0  0  0  0  0
   40.9710   22.8180   34.5890 C   0  0  0  0  0  0  0  0  0  0  0  0
   41.2400   21.6190   33.9890 N   0  0  0  0  0  0  0  0  0  0  0  0
   40.4100   21.0850   33.0400 C   0  0  0  0  0  0  0  0  0  0  0  0
   39.2880   21.7410   32.6670 N   0  0  0  0  0  0  0  0  0  0  0  0
   38.0770   23.4440   32.9240 H   0  0  0  0  0  0  0  0  0  0  0  0
   40.7120   20.1230   32.6200 H   0  0  0  0  0  0  0  0  0  0  0  0
   41.9310   23.3110   35.6040 C   0  0  0  0  0  0  0  0  0  0  0  0
   43.0050   22.4180   35.7100 F   0  0  0  0  0  0  0  0  0  0  0  0
   42.4170   24.5570   35.4170 F   0  0  0  0  0  0  0  0  0  0  0  0
   41.3370   23.2400   36.8700 F   0  0  0  0  0  0  0  0  0  0  0  0
   37.9930   23.4880   36.6680 S   0  0  0  0  0  0  0  0  0  0  0  0
   38.0320   23.5680   38.4540 C   0  0  0  0  0  0  0  0  0  0  0  0
   39.3250   23.1920   38.8440 F   0  0  0  0  0  0  0  0  0  0  0  0
   37.1860   22.6040   38.9640 F   0  0  0  0  0  0  0  0  0  0  0  0
   37.7810   24.8310   38.9470 F   0  0  0  0  0  0  0  0  0  0  0  0
  1  6  1  0  0  0  0
  2  3  1  0  0  0  0
  2  1  2  0  0  0  0
  3  4  2  0  0  0  0
  4  9  1  0  0  0  0
  4  5  1  0  0  0  0
  5 10  1  0  0  0  0
  6  5  2  0  0  0  0
  6 23  1  0  0  0  0
  7  2  1  0  0  0  0
  8  3  1  0  0  0  0
 11 12  1  0  0  0  0
 12 13  2  0  0  0  0
 12  1  1  0  0  0  0
 13 19  1  0  0  0  0
 14 13  1  0  0  0  0
 15 14  2  0  0  0  0
 16 15  1  0  0  0  0
 16 11  2  0  0  0  0
 17 11  1  0  0  0  0
 18 15  1  0  0  0  0
 19 20  1  0  0  0  0
 19 22  1  0  0  0  0
 21 19  1  0  0  0  0
 23 24  1  0  0  0  0
 24 25  1  0  0  0  0
 24 27  1  0  0  0  0
 24 26  1  0  0  0  0
M  END
>  <minimizedAffinity>
-5.08934832

$$$$

 OpenBabel03272506253D

 27 28  0  0  0  0  0  0  0  0999 V2000
   38.4080   22.9200   34.2710 C   0  0  0  0  0  0  0  0  0  0  0  0
   37.7160   21.8590   33.7610 C   0  0  0  0  0  0  0  0  0  0  0  0
   36.8190   21.9130   32.7060 C   0  0  0  0  0  0  0  0  0  0  0  0
   36.5900   23.1620   32.0980 C   0  0  0  0  0  0  0  0  0  0  0  0
   37.2810   24.2430   32.6010 C   0  0  0  0  0  0  0  0  0  0  0  0
   38.1700   24.1530   33.6560 C   0  0  0  0  0  0  0  0  0  0  0  0
   37.8230   20.8450   34.1630 H   0  0  0  0  0  0  0  0  0  0  0  0
   36.2880   21.0500   32.3290 H   0  0  0  0  0  0  0  0  0  0  0  0
   35.9130   23.3070   31.2730 H   0  0  0  0  0  0  0  0  0  0  0  0
   37.1840   25.2560   32.2100 H   0  0  0  0  0  0  0  0  0  0  0  0
   40.6150   22.2690   35.0340 C   0  0  0  0  0  0  0  0  0  0  0  0
   39.2930   22.6750   35.3650 C   0  0  0  0  0  0  0  0  0  0  0  0
   38.9650   22.7990   36.7150 C   0  0  0  0  0  0  0  0  0  0  0  0
   39.9220   22.5290   37.6520 N   0  0  0  0  0  0  0  0  0  0  0  0
   41.1870   22.1410   37.3010 C   0  0  0  0  0  0  0  0  0  0  0  0
   41.5250   22.0140   35.9970 N   0  0  0  0  0  0  0  0  0  0  0  0
   40.8970   22.1640   33.9940 H   0  0  0  0  0  0  0  0  0  0  0  0
   41.8790   21.9470   38.1230 H   0  0  0  0  0  0  0  0  0  0  0  0
   37.6250   23.2130   37.1960 C   0  0  0  0  0  0  0  0  0  0  0  0
   37.5800   23.1270   38.5930 F   0  0  0  0  0  0  0  0  0  0  0  0
   37.2040   24.4400   36.8220 F   0  0  0  0  0  0  0  0  0  0  0  0
   36.6790   22.2640   36.7920 F   0  0  0  0  0  0  0  0  0  0  0  0
   39.0740   25.5380   34.3220 S   0  0  0  0  0  0  0  0  0  0  0  0
   38.0940   27.0170   34.5370 C   0  0  0  0  0  0  0  0  0  0  0  0
   38.7300   27.7790   35.5270 F   0  0  0  0  0  0  0  0  0  0  0  0
   36.8640   26.6680   35.0590 F   0  0  0  0  0  0  0  0  0  0  0  0
   38.0040   27.7810   33.3930 F   0  0  0  0  0  0  0  0  0  0  0  0
  1 12  1  0  0  0  0
  2  7  1  0  0  0  0
  2  1  1  0  0  0  0
  3  2  2  0  0  0  0
  4  5  2  0  0  0  0
  4  3  1  0  0  0  0
  5  6  1  0  0  0  0
  6  1  2  0  0  0  0
  6 23  1  0  0  0  0
  8  3  1  0  0  0  0
  9  4  1  0  0  0  0
 10  5  1  0  0  0  0
 11 12  2  0  0  0  0
 11 16  1  0  0  0  0
 12 13  1  0  0  0  0
 13 19  1  0  0  0  0
 13 14  2  0  0  0  0
 15 14  1  0  0  0  0
 15 18  1  0  0  0  0
 16 15  2  0  0  0  0
 17 11  1  0  0  0  0
 19 20  1  0  0  0  0
 21 19  1  0  0  0  0
 22 19  1  0  0  0  0
 23 24  1  0  0  0  0
 24 26  1  0  0  0  0
 24 25  1  0  0  0  0
 27 24  1  0  0  0  0
M  END
>  <minimizedAffinity>
-5.08446121

$$$$

 OpenBabel03272506253D

 27 28  0  0  0  0  0  0  0  0999 V2000
   38.9710   23.8180   34.3880 C   0  0  0  0  0  0  0  0  0  0  0  0
   39.4400   25.0310   33.9710 C   0  0  0  0  0  0  0  0  0  0  0  0
   38.9360   25.7710   32.9140 C   0  0  0  0  0  0  0  0  0  0  0  0
   37.8470   25.2400   32.1970 C   0  0  0  0  0  0  0  0  0  0  0  0
   37.3610   24.0170   32.6060 C   0  0  0  0  0  0  0  0  0  0  0  0
   37.8890   23.3040   33.6670 C   0  0  0  0  0  0  0  0  0  0  0  0
   40.2850   25.5300   34.4610 H   0  0  0  0  0  0  0  0  0  0  0  0
   39.3350   26.7290   32.6120 H   0  0  0  0  0  0  0  0  0  0  0  0
   37.3850   25.7380   31.3610 H   0  0  0  0  0  0  0  0  0  0  0  0
   36.5230   23.5100   32.1270 H   0  0  0  0  0  0  0  0  0  0  0  0
   40.7050   22.3340   35.2040 C   0  0  0  0  0  0  0  0  0  0  0  0
   39.6190   23.2000   35.5020 C   0  0  0  0  0  0  0  0  0  0  0  0
   39.2700   23.3780   36.8410 C   0  0  0  0  0  0  0  0  0  0  0  0
   39.9850   22.7170   37.8000 N   0  0  0  0  0  0  0  0  0  0  0  0
   41.0270   21.8890   37.4800 C   0  0  0  0  0  0  0  0  0  0  0  0
   41.3810   21.7040   36.1880 N   0  0  0  0  0  0  0  0  0  0  0  0
   40.9970   22.1770   34.1730 H   0  0  0  0  0  0  0  0  0  0  0  0
   41.5360   21.4070   38.3180 H   0  0  0  0  0  0  0  0  0  0  0  0
   38.1590   24.2520   37.2880 C   0  0  0  0  0  0  0  0  0  0  0  0
   38.3970   25.5670   36.8680 F   0  0  0  0  0  0  0  0  0  0  0  0
   36.9170   23.8900   36.9030 F   0  0  0  0  0  0  0  0  0  0  0  0
   38.1910   24.3570   38.6840 F   0  0  0  0  0  0  0  0  0  0  0  0
   37.2760   21.7220   34.2120 S   0  0  0  0  0  0  0  0  0  0  0  0
   36.1220   20.9550   33.0810 C   0  0  0  0  0  0  0  0  0  0  0  0
   35.6820   19.7760   33.6980 F   0  0  0  0  0  0  0  0  0  0  0  0
   36.8030   20.5590   31.9470 F   0  0  0  0  0  0  0  0  0  0  0  0
   35.0220   21.7400   32.8120 F   0  0  0  0  0  0  0  0  0  0  0  0
  1 12  1  0  0  0  0
  2  1  1  0  0  0  0
  2  7  1  0  0  0  0
  3  2  2  0  0  0  0
  4  5  2  0  0  0  0
  4  3  1  0  0  0  0
  5  6  1  0  0  0  0
  6 23  1  0  0  0  0
  6  1  2  0  0  0  0
  8  3  1  0  0  0  0
  9  4  1  0  0  0  0
 10  5  1  0  0  0  0
 11 12  2  0  0  0  0
 11 16  1  0  0  0  0
 12 13  1  0  0  0  0
 13 19  1  0  0  0  0
 13 14  2  0  0  0  0
 15 14  1  0  0  0  0
 15 18  1  0  0  0  0
 16 15  2  0  0  0  0
 17 11  1  0  0  0  0
 19 22  1  0  0  0  0
 20 19  1  0  0  0  0
 21 19  1  0  0  0  0
 24 25  1  0  0  0  0
 24 23  1  0  0  0  0
 26 24  1  0  0  0  0
 27 24  1  0  0  0  0
M  END
>  <minimizedAffinity>
-5.03774405

$$$$

 OpenBabel03272506253D

 27 28  0  0  0  0  0  0  0  0999 V2000
   38.8440   26.3850   32.8750 C   0  0  0  0  0  0  0  0  0  0  0  0
   39.8640   26.7990   32.0670 C   0  0  0  0  0  0  0  0  0  0  0  0
   41.1100   27.2260   32.4970 C   0  0  0  0  0  0  0  0  0  0  0  0
   41.3610   27.2400   33.8830 C   0  0  0  0  0  0  0  0  0  0  0  0
   40.3410   26.8240   34.7110 C   0  0  0  0  0  0  0  0  0  0  0  0
   39.1080   26.4040   34.2470 C   0  0  0  0  0  0  0  0  0  0  0  0
   39.7700   26.8260   30.9750 H   0  0  0  0  0  0  0  0  0  0  0  0
   41.8950   27.5470   31.8270 H   0  0  0  0  0  0  0  0  0  0  0  0
   42.2960   27.5540   34.3140 H   0  0  0  0  0  0  0  0  0  0  0  0
   40.4210   26.7920   35.7970 H   0  0  0  0  0  0  0  0  0  0  0  0
   37.5230   24.6090   31.8850 C   0  0  0  0  0  0  0  0  0  0  0  0
   37.6240   25.9780   32.2510 C   0  0  0  0  0  0  0  0  0  0  0  0
   36.5390   26.8120   31.9770 C   0  0  0  0  0  0  0  0  0  0  0  0
   35.4350   26.2770   31.3740 N   0  0  0  0  0  0  0  0  0  0  0  0
   35.3690   24.9530   31.0340 C   0  0  0  0  0  0  0  0  0  0  0  0
   36.4100   24.1290   31.2910 N   0  0  0  0  0  0  0  0  0  0  0  0
   38.3500   23.9400   32.0860 H   0  0  0  0  0  0  0  0  0  0  0  0
   34.4440   24.6220   30.5560 H   0  0  0  0  0  0  0  0  0  0  0  0
   36.5130   28.2570   32.3060 C   0  0  0  0  0  0  0  0  0  0  0  0
   35.3050   28.8160   31.8730 F   0  0  0  0  0  0  0  0  0  0  0  0
   36.7030   28.5820   33.6030 F   0  0  0  0  0  0  0  0  0  0  0  0
   37.4660   28.9220   31.5260 F   0  0  0  0  0  0  0  0  0  0  0  0
   37.7760   25.8620   35.3000 S   0  0  0  0  0  0  0  0  0  0  0  0
   38.0110   24.2330   35.9990 C   0  0  0  0  0  0  0  0  0  0  0  0
   37.1190   24.1260   37.0740 F   0  0  0  0  0  0  0  0  0  0  0  0
   39.2770   24.1580   36.5470 F   0  0  0  0  0  0  0  0  0  0  0  0
   37.7420   23.2160   35.1090 F   0  0  0  0  0  0  0  0  0  0  0  0
  1  6  1  0  0  0  0
  2  3  1  0  0  0  0
  2  1  2  0  0  0  0
  3  4  2  0  0  0  0
  4  9  1  0  0  0  0
  4  5  1  0  0  0  0
  5 10  1  0  0  0  0
  6  5  2  0  0  0  0
  6 23  1  0  0  0  0
  7  2  1  0  0  0  0
  8  3  1  0  0  0  0
 11 17  1  0  0  0  0
 11 12  1  0  0  0  0
 12  1  1  0  0  0  0
 13 12  2  0  0  0  0
 13 19  1  0  0  0  0
 14 13  1  0  0  0  0
 15 16  1  0  0  0  0
 15 14  2  0  0  0  0
 16 11  2  0  0  0  0
 18 15  1  0  0  0  0
 19 21  1  0  0  0  0
 20 19  1  0  0  0  0
 22 19  1  0  0  0  0
 23 24  1  0  0  0  0
 24 26  1  0  0  0  0
 24 25  1  0  0  0  0
 27 24  1  0  0  0  0
M  END
>  <minimizedAffinity>
-4.9791007

$$$$

 OpenBabel03272506253D

 27 28  0  0  0  0  0  0  0  0999 V2000
   38.9420   25.9910   32.6500 C   0  0  0  0  0  0  0  0  0  0  0  0
   40.2580   26.2700   32.4220 C   0  0  0  0  0  0  0  0  0  0  0  0
   40.7460   27.1070   31.4320 C   0  0  0  0  0  0  0  0  0  0  0  0
   39.8150   27.7320   30.5790 C   0  0  0  0  0  0  0  0  0  0  0  0
   38.4820   27.4610   30.7970 C   0  0  0  0  0  0  0  0  0  0  0  0
   38.0300   26.6180   31.7960 C   0  0  0  0  0  0  0  0  0  0  0  0
   41.0610   25.8350   33.0290 H   0  0  0  0  0  0  0  0  0  0  0  0
   41.7980   27.3050   31.2810 H   0  0  0  0  0  0  0  0  0  0  0  0
   40.0950   28.3990   29.7810 H   0  0  0  0  0  0  0  0  0  0  0  0
   37.6750   27.8860   30.2010 H   0  0  0  0  0  0  0  0  0  0  0  0
   38.4910   23.7250   33.3870 C   0  0  0  0  0  0  0  0  0  0  0  0
   38.6250   25.1000   33.7220 C   0  0  0  0  0  0  0  0  0  0  0  0
   38.4390   25.4710   35.0540 C   0  0  0  0  0  0  0  0  0  0  0  0
   38.1390   24.5030   35.9700 N   0  0  0  0  0  0  0  0  0  0  0  0
   38.0170   23.1860   35.6150 C   0  0  0  0  0  0  0  0  0  0  0  0
   38.1940   22.8060   34.3290 N   0  0  0  0  0  0  0  0  0  0  0  0
   38.6310   23.4100   32.3600 H   0  0  0  0  0  0  0  0  0  0  0  0
   37.7750   22.4890   36.4210 H   0  0  0  0  0  0  0  0  0  0  0  0
   38.5490   26.8680   35.5370 C   0  0  0  0  0  0  0  0  0  0  0  0
   39.8840   27.2860   35.4680 F   0  0  0  0  0  0  0  0  0  0  0  0
   37.7740   27.7820   34.9160 F   0  0  0  0  0  0  0  0  0  0  0  0
   38.2800   26.9010   36.9110 F   0  0  0  0  0  0  0  0  0  0  0  0
   36.3110   26.2550   32.0950 S   0  0  0  0  0  0  0  0  0  0  0  0
   35.6740   24.8870   31.1360 C   0  0  0  0  0  0  0  0  0  0  0  0
   36.7500   24.3850   30.3910 F   0  0  0  0  0  0  0  0  0  0  0  0
   34.7660   25.3690   30.2150 F   0  0  0  0  0  0  0  0  0  0  0  0
   35.1720   23.8650   31.9140 F   0  0  0  0  0  0  0  0  0  0  0  0
  1 12  1  0  0  0  0
  2  1  1  0  0  0  0
  2  7  1  0  0  0  0
  3  2  2  0  0  0  0
  4  5  2  0  0  0  0
  4  3  1  0  0  0  0
  5  6  1  0  0  0  0
  6 23  1  0  0  0  0
  6  1  2  0  0  0  0
  8  3  1  0  0  0  0
  9  4  1  0  0  0  0
 10  5  1  0  0  0  0
 11 12  2  0  0  0  0
 11 16  1  0  0  0  0
 12 13  1  0  0  0  0
 13 19  1  0  0  0  0
 13 14  2  0  0  0  0
 15 14  1  0  0  0  0
 15 18  1  0  0  0  0
 16 15  2  0  0  0  0
 17 11  1  0  0  0  0
 19 22  1  0  0  0  0
 20 19  1  0  0  0  0
 21 19  1  0  0  0  0
 24 27  1  0  0  0  0
 24 23  1  0  0  0  0
 25 24  1  0  0  0  0
 26 24  1  0  0  0  0
M  END
>  <minimizedAffinity>
-4.97171688

$$$$

 OpenBabel03272506253D

 27 28  0  0  0  0  0  0  0  0999 V2000
   39.3000   23.9680   35.5420 C   0  0  0  0  0  0  0  0  0  0  0  0
   38.7250   23.5300   36.7000 C   0  0  0  0  0  0  0  0  0  0  0  0
   39.3810   22.8700   37.7270 C   0  0  0  0  0  0  0  0  0  0  0  0
   40.7590   22.6230   37.5780 C   0  0  0  0  0  0  0  0  0  0  0  0
   41.3550   23.0600   36.4140 C   0  0  0  0  0  0  0  0  0  0  0  0
   40.6690   23.7160   35.4090 C   0  0  0  0  0  0  0  0  0  0  0  0
   37.6590   23.6720   36.9120 H   0  0  0  0  0  0  0  0  0  0  0  0
   38.8920   22.5370   38.6310 H   0  0  0  0  0  0  0  0  0  0  0  0
   41.3560   22.1180   38.3190 H   0  0  0  0  0  0  0  0  0  0  0  0
   42.4130   22.9250   36.1900 H   0  0  0  0  0  0  0  0  0  0  0  0
   37.9540   23.8370   33.5290 C   0  0  0  0  0  0  0  0  0  0  0  0
   38.4640   24.6320   34.5920 C   0  0  0  0  0  0  0  0  0  0  0  0
   38.1140   25.9820   34.6270 C   0  0  0  0  0  0  0  0  0  0  0  0
   37.3020   26.4760   33.6450 N   0  0  0  0  0  0  0  0  0  0  0  0
   36.8270   25.6840   32.6340 C   0  0  0  0  0  0  0  0  0  0  0  0
   37.1550   24.3730   32.5830 N   0  0  0  0  0  0  0  0  0  0  0  0
   38.2100   22.7860   33.4780 H   0  0  0  0  0  0  0  0  0  0  0  0
   36.1860   26.1730   31.8970 H   0  0  0  0  0  0  0  0  0  0  0  0
   38.5750   26.9200   35.6770 C   0  0  0  0  0  0  0  0  0  0  0  0
   39.9760   26.9420   35.7060 F   0  0  0  0  0  0  0  0  0  0  0  0
   38.1220   28.1890   35.5920 F   0  0  0  0  0  0  0  0  0  0  0  0
   38.2430   26.4010   36.9350 F   0  0  0  0  0  0  0  0  0  0  0  0
   41.4190   24.2900   33.8970 S   0  0  0  0  0  0  0  0  0  0  0  0
   42.5750   25.6360   34.1190 C   0  0  0  0  0  0  0  0  0  0  0  0
   41.9280   26.7960   33.6710 F   0  0  0  0  0  0  0  0  0  0  0  0
   43.6480   25.4490   33.2710 F   0  0  0  0  0  0  0  0  0  0  0  0
   42.9440   25.8250   35.4330 F   0  0  0  0  0  0  0  0  0  0  0  0
  1  2  1  0  0  0  0
  2  7  1  0  0  0  0
  2  3  2  0  0  0  0
  3  8  1  0  0  0  0
  4  3  1  0  0  0  0
  4  9  1  0  0  0  0
  5  4  2  0  0  0  0
  6  1  2  0  0  0  0
  6  5  1  0  0  0  0
 10  5  1  0  0  0  0
 11 12  1  0  0  0  0
 12 13  2  0  0  0  0
 12  1  1  0  0  0  0
 13 19  1  0  0  0  0
 14 13  1  0  0  0  0
 15 14  2  0  0  0  0
 16 15  1  0  0  0  0
 16 11  2  0  0  0  0
 17 11  1  0  0  0  0
 18 15  1  0  0  0  0
 19 20  1  0  0  0  0
 19 22  1  0  0  0  0
 21 19  1  0  0  0  0
 23 24  1  0  0  0  0
 23  6  1  0  0  0  0
 24 27  1  0  0  0  0
 25 24  1  0  0  0  0
 26 24  1  0  0  0  0
M  END
>  <minimizedAffinity>
-4.96896553

$$$$
