
 OpenBabel03272510103D

 23 24  0  0  0  0  0  0  0  0999 V2000
   37.6200   31.2160   48.6790 C   0  0  0  0  0  0  0  0  0  0  0  0
   38.1020   32.4720   48.9120 C   0  0  0  0  0  0  0  0  0  0  0  0
   38.9840   33.1380   48.0970 C   0  0  0  0  0  0  0  0  0  0  0  0
   39.4440   32.5280   46.9460 C   0  0  0  0  0  0  0  0  0  0  0  0
   38.9480   31.2430   46.7140 C   0  0  0  0  0  0  0  0  0  0  0  0
   38.0830   30.6330   47.5450 N   0  0  0  0  0  0  0  0  0  0  0  0
   37.7840   33.0170   49.8030 H   0  0  0  0  0  0  0  0  0  0  0  0
   39.3710   34.1320   48.2720 H   0  0  0  0  0  0  0  0  0  0  0  0
   39.2660   30.7000   45.8270 H   0  0  0  0  0  0  0  0  0  0  0  0
   37.0280   29.9940   50.7940 C   0  0  0  0  0  0  0  0  0  0  0  0
   36.6950   30.5330   49.5460 C   0  0  0  0  0  0  0  0  0  0  0  0
   35.3770   30.3940   49.1240 C   0  0  0  0  0  0  0  0  0  0  0  0
   34.4880   29.7460   49.9410 N   0  0  0  0  0  0  0  0  0  0  0  0
   34.8670   29.2450   51.1360 C   0  0  0  0  0  0  0  0  0  0  0  0
   36.1340   29.3650   51.5690 N   0  0  0  0  0  0  0  0  0  0  0  0
   38.0600   30.1090   51.1120 H   0  0  0  0  0  0  0  0  0  0  0  0
   35.0140   30.7780   48.1690 H   0  0  0  0  0  0  0  0  0  0  0  0
   34.0310   28.7710   51.6370 H   0  0  0  0  0  0  0  0  0  0  0  0
   40.3290   33.0400   46.0100 O   0  0  0  0  0  0  0  0  0  0  0  0
   40.0010   33.3290   44.6850 C   0  0  0  0  0  0  0  0  0  0  0  0
   38.6280   33.2390   44.5090 F   0  0  0  0  0  0  0  0  0  0  0  0
   40.3700   34.6000   44.2720 F   0  0  0  0  0  0  0  0  0  0  0  0
   40.5820   32.3450   43.8900 F   0  0  0  0  0  0  0  0  0  0  0  0
  1  2  1  0  0  0  0
  1 11  1  0  0  0  0
  2  7  1  0  0  0  0
  3  8  1  0  0  0  0
  3  2  2  0  0  0  0
  4  3  1  0  0  0  0
  5  4  2  0  0  0  0
  5  6  1  0  0  0  0
  6  1  2  0  0  0  0
  9  5  1  0  0  0  0
 10 16  1  0  0  0  0
 10 15  1  0  0  0  0
 11 10  2  0  0  0  0
 12 11  1  0  0  0  0
 12 13  2  0  0  0  0
 13 14  1  0  0  0  0
 14 15  2  0  0  0  0
 14 18  1  0  0  0  0
 17 12  1  0  0  0  0
 19  4  1  0  0  0  0
 20 19  1  0  0  0  0
 21 20  1  0  0  0  0
 22 20  1  0  0  0  0
 23 20  1  0  0  0  0
M  END
>  <minimizedAffinity>
-5.47152185

>  <minimizedRMSD>
1.39299297

$$$$
