
 OpenBabel03272508163D

 26 27  0  0  0  0  0  0  0  0999 V2000
   37.1990   30.9410   49.0440 Cl  0  0  0  0  0  0  0  0  0  0  0  0
   37.0850   31.0140   47.3250 C   0  0  0  0  0  0  0  0  0  0  0  0
   36.0230   30.3170   46.8300 C   0  0  0  0  0  0  0  0  0  0  0  0
   35.8260   30.3060   45.4260 C   0  0  0  0  0  0  0  0  0  0  0  0
   36.6670   30.9690   44.5850 C   0  0  0  0  0  0  0  0  0  0  0  0
   37.7330   31.6670   45.1140 C   0  0  0  0  0  0  0  0  0  0  0  0
   38.8340   32.5240   44.0850 Cl  0  0  0  0  0  0  0  0  0  0  0  0
   37.9180   31.6750   46.4600 C   0  0  0  0  0  0  0  0  0  0  0  0
   35.0200   29.7860   44.9430 H   0  0  0  0  0  0  0  0  0  0  0  0
   36.5400   30.9780   43.5090 H   0  0  0  0  0  0  0  0  0  0  0  0
   35.3730   28.8980   48.7360 C   0  0  0  0  0  0  0  0  0  0  0  0
   34.9870   29.5300   47.5320 C   0  0  0  0  0  0  0  0  0  0  0  0
   33.6870   29.3830   47.0790 C   0  0  0  0  0  0  0  0  0  0  0  0
   32.8400   28.6240   47.8340 N   0  0  0  0  0  0  0  0  0  0  0  0
   33.2290   28.0290   48.9790 C   0  0  0  0  0  0  0  0  0  0  0  0
   34.5150   28.1660   49.4400 N   0  0  0  0  0  0  0  0  0  0  0  0
   36.3620   28.9780   49.1300 H   0  0  0  0  0  0  0  0  0  0  0  0
   33.4250   29.8720   46.1660 H   0  0  0  0  0  0  0  0  0  0  0  0
   32.4700   27.4640   49.4730 H   0  0  0  0  0  0  0  0  0  0  0  0
   39.0300   32.3960   47.1090 C   0  0  0  0  0  0  0  0  0  0  0  0
   39.9830   32.9840   46.6030 O   0  0  0  0  0  0  0  0  0  0  0  0
   39.2250   32.5600   48.4990 O   0  0  0  0  0  0  0  0  0  0  0  0
   39.1320   33.7930   49.1340 C   0  0  0  0  0  0  0  0  0  0  0  0
   39.8120   34.7560   48.3950 F   0  0  0  0  0  0  0  0  0  0  0  0
   37.7930   34.1340   49.1510 F   0  0  0  0  0  0  0  0  0  0  0  0
   39.6130   33.7970   50.4230 F   0  0  0  0  0  0  0  0  0  0  0  0
  2  1  1  0  0  0  0
  3  2  1  0  0  0  0
  3 12  1  0  0  0  0
  4  3  2  0  0  0  0
  5  6  2  0  0  0  0
  5  4  1  0  0  0  0
  6  8  1  0  0  0  0
  7  6  1  0  0  0  0
  8 20  1  0  0  0  0
  8  2  2  0  0  0  0
  9  4  1  0  0  0  0
 10  5  1  0  0  0  0
 11 17  1  0  0  0  0
 11 16  1  0  0  0  0
 12 11  2  0  0  0  0
 13 12  1  0  0  0  0
 13 14  2  0  0  0  0
 14 15  1  0  0  0  0
 15 16  2  0  0  0  0
 15 19  1  0  0  0  0
 18 13  1  0  0  0  0
 20 22  1  0  0  0  0
 21 20  2  0  0  0  0
 22 23  1  0  0  0  0
 23 25  1  0  0  0  0
 23 26  1  0  0  0  0
 24 23  1  0  0  0  0
M  END
>  <minimizedAffinity>
-5.85281897

>  <minimizedRMSD>
1.97943294

$$$$
