
 OpenBabel03272508163D

 26 27  0  0  0  0  0  0  0  0999 V2000
   35.0010   30.0390   49.3550 Cl  0  0  0  0  0  0  0  0  0  0  0  0
   35.8880   30.2310   47.8880 C   0  0  0  0  0  0  0  0  0  0  0  0
   35.1190   30.0710   46.7730 C   0  0  0  0  0  0  0  0  0  0  0  0
   35.7410   30.2060   45.5060 C   0  0  0  0  0  0  0  0  0  0  0  0
   37.0680   30.4890   45.3930 C   0  0  0  0  0  0  0  0  0  0  0  0
   37.8210   30.6480   46.5370 C   0  0  0  0  0  0  0  0  0  0  0  0
   39.5150   31.0060   46.4460 Cl  0  0  0  0  0  0  0  0  0  0  0  0
   37.2220   30.5170   47.7500 C   0  0  0  0  0  0  0  0  0  0  0  0
   35.2200   30.0980   44.5740 H   0  0  0  0  0  0  0  0  0  0  0  0
   37.5690   30.5990   44.4380 H   0  0  0  0  0  0  0  0  0  0  0  0
   33.2490   28.5040   47.1230 C   0  0  0  0  0  0  0  0  0  0  0  0
   33.6790   29.7630   46.6440 C   0  0  0  0  0  0  0  0  0  0  0  0
   32.7500   30.6270   46.0880 C   0  0  0  0  0  0  0  0  0  0  0  0
   31.4530   30.2060   46.0350 N   0  0  0  0  0  0  0  0  0  0  0  0
   31.0640   29.0010   46.4970 C   0  0  0  0  0  0  0  0  0  0  0  0
   31.9740   28.1340   47.0500 N   0  0  0  0  0  0  0  0  0  0  0  0
   33.9220   27.8010   47.5590 H   0  0  0  0  0  0  0  0  0  0  0  0
   33.1040   31.5710   45.7350 H   0  0  0  0  0  0  0  0  0  0  0  0
   30.0220   28.7940   46.3950 H   0  0  0  0  0  0  0  0  0  0  0  0
   37.9510   30.6710   49.0230 C   0  0  0  0  0  0  0  0  0  0  0  0
   38.0260   29.9050   49.9800 O   0  0  0  0  0  0  0  0  0  0  0  0
   38.7420   31.7780   49.4070 O   0  0  0  0  0  0  0  0  0  0  0  0
   38.2720   33.0850   49.3850 C   0  0  0  0  0  0  0  0  0  0  0  0
   39.1580   33.9160   50.0630 F   0  0  0  0  0  0  0  0  0  0  0  0
   38.2460   33.4770   48.0600 F   0  0  0  0  0  0  0  0  0  0  0  0
   37.0150   33.2380   49.9240 F   0  0  0  0  0  0  0  0  0  0  0  0
  2  1  1  0  0  0  0
  3  2  2  0  0  0  0
  4  3  1  0  0  0  0
  5  4  2  0  0  0  0
  5  6  1  0  0  0  0
  6  8  2  0  0  0  0
  7  6  1  0  0  0  0
  8  2  1  0  0  0  0
  8 20  1  0  0  0  0
  9  4  1  0  0  0  0
 10  5  1  0  0  0  0
 11 17  1  0  0  0  0
 12  3  1  0  0  0  0
 12 11  2  0  0  0  0
 13 12  1  0  0  0  0
 14 13  2  0  0  0  0
 14 15  1  0  0  0  0
 15 16  2  0  0  0  0
 16 11  1  0  0  0  0
 18 13  1  0  0  0  0
 19 15  1  0  0  0  0
 20 22  1  0  0  0  0
 20 21  2  0  0  0  0
 23 22  1  0  0  0  0
 23 26  1  0  0  0  0
 23 24  1  0  0  0  0
 25 23  1  0  0  0  0
M  END
>  <minimizedAffinity>
-5.80440092

>  <minimizedRMSD>
3.04751015

$$$$
