
 OpenBabel03272508163D

 26 27  0  0  0  0  0  0  0  0999 V2000
   36.4560   30.5260   48.8620 Cl  0  0  0  0  0  0  0  0  0  0  0  0
   36.5620   30.6740   47.1460 C   0  0  0  0  0  0  0  0  0  0  0  0
   35.5430   30.0480   46.4920 C   0  0  0  0  0  0  0  0  0  0  0  0
   35.5240   30.1020   45.0750 C   0  0  0  0  0  0  0  0  0  0  0  0
   36.4920   30.7580   44.3770 C   0  0  0  0  0  0  0  0  0  0  0  0
   37.5110   31.3830   45.0650 C   0  0  0  0  0  0  0  0  0  0  0  0
   38.7670   32.2290   44.2210 Cl  0  0  0  0  0  0  0  0  0  0  0  0
   37.5250   31.3290   46.4230 C   0  0  0  0  0  0  0  0  0  0  0  0
   34.7650   29.6410   44.4730 H   0  0  0  0  0  0  0  0  0  0  0  0
   36.5020   30.8160   43.2950 H   0  0  0  0  0  0  0  0  0  0  0  0
   34.6690   28.3580   48.0570 C   0  0  0  0  0  0  0  0  0  0  0  0
   34.3950   29.2830   47.0240 C   0  0  0  0  0  0  0  0  0  0  0  0
   33.0950   29.4230   46.5700 C   0  0  0  0  0  0  0  0  0  0  0  0
   32.1370   28.6470   47.1550 N   0  0  0  0  0  0  0  0  0  0  0  0
   32.4200   27.7700   48.1400 C   0  0  0  0  0  0  0  0  0  0  0  0
   33.7040   27.6210   48.6000 N   0  0  0  0  0  0  0  0  0  0  0  0
   35.6520   28.2100   48.4440 H   0  0  0  0  0  0  0  0  0  0  0  0
   32.9190   30.1290   45.7880 H   0  0  0  0  0  0  0  0  0  0  0  0
   31.5800   27.2250   48.5120 H   0  0  0  0  0  0  0  0  0  0  0  0
   38.5750   31.9700   47.2370 C   0  0  0  0  0  0  0  0  0  0  0  0
   39.4950   32.7070   46.8890 O   0  0  0  0  0  0  0  0  0  0  0  0
   38.7360   31.8600   48.6360 O   0  0  0  0  0  0  0  0  0  0  0  0
   38.4000   32.8800   49.5180 C   0  0  0  0  0  0  0  0  0  0  0  0
   37.7990   32.3450   50.6520 F   0  0  0  0  0  0  0  0  0  0  0  0
   39.5830   33.4800   49.9040 F   0  0  0  0  0  0  0  0  0  0  0  0
   37.5670   33.8340   48.9790 F   0  0  0  0  0  0  0  0  0  0  0  0
  2  1  1  0  0  0  0
  3 12  1  0  0  0  0
  3  2  1  0  0  0  0
  4  3  2  0  0  0  0
  5  6  2  0  0  0  0
  5  4  1  0  0  0  0
  6  8  1  0  0  0  0
  7  6  1  0  0  0  0
  8  2  2  0  0  0  0
  8 20  1  0  0  0  0
  9  4  1  0  0  0  0
 10  5  1  0  0  0  0
 11 17  1  0  0  0  0
 11 16  1  0  0  0  0
 12 11  2  0  0  0  0
 13 12  1  0  0  0  0
 13 14  2  0  0  0  0
 14 15  1  0  0  0  0
 15 19  1  0  0  0  0
 15 16  2  0  0  0  0
 18 13  1  0  0  0  0
 20 22  1  0  0  0  0
 21 20  2  0  0  0  0
 22 23  1  0  0  0  0
 23 25  1  0  0  0  0
 23 24  1  0  0  0  0
 26 23  1  0  0  0  0
M  END
>  <minimizedAffinity>
-5.11248064

>  <minimizedRMSD>
2.43784523

$$$$
