
 OpenBabel03272503403D

 36 38  0  0  1  0  0  0  0  0999 V2000
   38.6350   31.0480   45.7240 C   0  0  0  0  0  0  0  0  0  0  0  0
   39.9760   31.0080   45.9700 C   0  0  0  0  0  0  0  0  0  0  0  0
   40.5670   31.3180   44.7320 C   0  0  0  0  0  0  0  0  0  0  0  0
   39.6090   31.5230   43.8270 N   0  0  0  0  0  0  0  0  0  0  0  0
   38.4190   31.3590   44.4300 N   0  0  0  0  0  0  0  0  0  0  0  0
   40.4500   30.7860   46.9160 H   0  0  0  0  0  0  0  0  0  0  0  0
   41.6420   31.3640   44.6090 H   0  0  0  0  0  0  0  0  0  0  0  0
   40.5150   30.6870   41.7230 C   0  0  2  0  0  0  0  0  0  0  0  0
   39.8810   31.8600   42.4550 C   0  0  1  0  0  0  0  0  0  0  0  0
   38.6230   31.9710   41.6180 C   0  0  0  0  0  0  0  0  0  0  0  0
   38.9660   31.6880   40.3230 O   0  0  0  0  0  0  0  0  0  0  0  0
   40.2040   31.1160   40.2810 C   0  0  0  0  0  0  0  0  0  0  0  0
   41.5880   30.5800   41.8910 H   0  0  0  0  0  0  0  0  0  0  0  0
   40.4620   32.7810   42.3790 H   0  0  0  0  0  0  0  0  0  0  0  0
   37.9520   31.1600   41.9820 H   0  0  0  0  0  0  0  0  0  0  0  0
   38.0710   32.9080   41.7750 H   0  0  0  0  0  0  0  0  0  0  0  0
   40.2930   30.2550   39.5960 H   0  0  0  0  0  0  0  0  0  0  0  0
   41.0070   31.8190   39.9970 H   0  0  0  0  0  0  0  0  0  0  0  0
   39.7680   29.5530   42.0250 O   0  0  0  0  0  0  0  0  0  0  0  0
   40.5410   28.3980   42.0310 C   0  0  0  0  0  0  0  0  0  0  0  0
   40.5890   27.9250   40.7340 F   0  0  0  0  0  0  0  0  0  0  0  0
   40.1020   27.4280   42.8850 F   0  0  0  0  0  0  0  0  0  0  0  0
   41.8370   28.8190   42.3240 F   0  0  0  0  0  0  0  0  0  0  0  0
   36.7940   30.6140   48.9680 C   0  0  0  0  0  0  0  0  0  0  0  0
   37.8130   30.8700   48.0750 C   0  0  0  0  0  0  0  0  0  0  0  0
   37.6060   30.7920   46.7180 C   0  0  0  0  0  0  0  0  0  0  0  0
   36.3560   30.4520   46.2910 N   0  0  0  0  0  0  0  0  0  0  0  0
   35.3610   30.2030   47.1940 C   0  0  0  0  0  0  0  0  0  0  0  0
   35.5620   30.2780   48.4900 N   0  0  0  0  0  0  0  0  0  0  0  0
   38.8290   31.1460   48.3610 H   0  0  0  0  0  0  0  0  0  0  0  0
   34.3820   29.9350   46.7940 H   0  0  0  0  0  0  0  0  0  0  0  0
   37.1790   30.7390   50.2930 O   0  0  0  0  0  0  0  0  0  0  0  0
   37.0560   29.7160   51.2390 C   0  0  0  0  0  0  0  0  0  0  0  0
   35.7360   29.3720   51.4960 F   0  0  0  0  0  0  0  0  0  0  0  0
   37.7080   30.0960   52.3800 F   0  0  0  0  0  0  0  0  0  0  0  0
   37.7050   28.5940   50.7340 F   0  0  0  0  0  0  0  0  0  0  0  0
  1  2  1  0  0  0  0
  1 26  1  0  0  0  0
  2  6  1  0  0  0  0
  3  2  2  0  0  0  0
  4  5  1  0  0  0  0
  4  3  1  0  0  0  0
  5  1  2  0  0  0  0
  7  3  1  0  0  0  0
  8 13  1  1  0  0  0
  8 19  1  0  0  0  0
  8  9  1  0  0  0  0
  9 14  1  6  0  0  0
  9  4  1  0  0  0  0
 10 16  1  0  0  0  0
 10 15  1  0  0  0  0
 10  9  1  0  0  0  0
 11 10  1  0  0  0  0
 12 11  1  0  0  0  0
 12  8  1  0  0  0  0
 17 12  1  0  0  0  0
 18 12  1  0  0  0  0
 19 20  1  0  0  0  0
 20 23  1  0  0  0  0
 20 22  1  0  0  0  0
 21 20  1  0  0  0  0
 24 32  1  0  0  0  0
 25 30  1  0  0  0  0
 25 24  2  0  0  0  0
 26 25  1  0  0  0  0
 27 26  2  0  0  0  0
 27 28  1  0  0  0  0
 28 29  2  0  0  0  0
 29 24  1  0  0  0  0
 31 28  1  0  0  0  0
 32 33  1  0  0  0  0
 33 34  1  0  0  0  0
 33 35  1  0  0  0  0
 36 33  1  0  0  0  0
M  END
>  <minimizedAffinity>
-6.26379395

>  <minimizedRMSD>
0.861347675

$$$$
