
 OpenBabel03272510103D

 23 24  0  0  0  0  0  0  0  0999 V2000
   37.7130   31.2070   48.7080 C   0  0  0  0  0  0  0  0  0  0  0  0
   38.1830   32.4710   48.9220 C   0  0  0  0  0  0  0  0  0  0  0  0
   39.0310   33.1460   48.0790 C   0  0  0  0  0  0  0  0  0  0  0  0
   39.4670   32.5370   46.9180 C   0  0  0  0  0  0  0  0  0  0  0  0
   38.9830   31.2450   46.7060 C   0  0  0  0  0  0  0  0  0  0  0  0
   38.1520   30.6260   47.5640 N   0  0  0  0  0  0  0  0  0  0  0  0
   37.8820   33.0160   49.8190 H   0  0  0  0  0  0  0  0  0  0  0  0
   39.4080   34.1460   48.2390 H   0  0  0  0  0  0  0  0  0  0  0  0
   39.2840   30.7020   45.8120 H   0  0  0  0  0  0  0  0  0  0  0  0
   37.1820   30.0470   50.8740 C   0  0  0  0  0  0  0  0  0  0  0  0
   36.8230   30.5150   49.6040 C   0  0  0  0  0  0  0  0  0  0  0  0
   35.5140   30.2900   49.1900 C   0  0  0  0  0  0  0  0  0  0  0  0
   34.6590   29.6320   50.0340 N   0  0  0  0  0  0  0  0  0  0  0  0
   35.0610   29.2030   51.2490 C   0  0  0  0  0  0  0  0  0  0  0  0
   36.3200   29.4060   51.6750 N   0  0  0  0  0  0  0  0  0  0  0  0
   38.2060   30.2280   51.1860 H   0  0  0  0  0  0  0  0  0  0  0  0
   35.1340   30.6130   48.2190 H   0  0  0  0  0  0  0  0  0  0  0  0
   34.2500   28.7080   51.7700 H   0  0  0  0  0  0  0  0  0  0  0  0
   40.3170   33.0580   45.9550 O   0  0  0  0  0  0  0  0  0  0  0  0
   39.9700   33.2620   44.6190 C   0  0  0  0  0  0  0  0  0  0  0  0
   40.3800   34.5240   44.2150 F   0  0  0  0  0  0  0  0  0  0  0  0
   40.5430   32.3590   43.7380 F   0  0  0  0  0  0  0  0  0  0  0  0
   38.5810   33.2390   44.5440 F   0  0  0  0  0  0  0  0  0  0  0  0
  1  2  1  0  0  0  0
  1 11  1  0  0  0  0
  2  7  1  0  0  0  0
  3  8  1  0  0  0  0
  3  2  2  0  0  0  0
  4  3  1  0  0  0  0
  5  4  2  0  0  0  0
  5  6  1  0  0  0  0
  6  1  2  0  0  0  0
  9  5  1  0  0  0  0
 10 16  1  0  0  0  0
 10 15  1  0  0  0  0
 11 10  2  0  0  0  0
 12 11  1  0  0  0  0
 12 13  2  0  0  0  0
 13 14  1  0  0  0  0
 14 15  2  0  0  0  0
 14 18  1  0  0  0  0
 17 12  1  0  0  0  0
 19  4  1  0  0  0  0
 20 19  1  0  0  0  0
 21 20  1  0  0  0  0
 22 20  1  0  0  0  0
 23 20  1  0  0  0  0
M  END
>  <minimizedAffinity>
-5.45324755

>  <minimizedRMSD>
1.43325496

$$$$
