
 OpenBabel03272507383D

 18 18  0  0  0  0  0  0  0  0999 V2000
   38.4930   25.0270   36.3200 C   0  0  0  0  0  0  0  0  0  0  0  0
   39.4460   24.5450   35.4180 C   0  0  0  0  0  0  0  0  0  0  0  0
   40.1390   25.4440   34.6220 C   0  0  0  0  0  0  0  0  0  0  0  0
   39.8400   26.7580   34.7720 N   0  0  0  0  0  0  0  0  0  0  0  0
   38.9230   27.2190   35.6400 C   0  0  0  0  0  0  0  0  0  0  0  0
   38.2610   26.3550   36.4020 N   0  0  0  0  0  0  0  0  0  0  0  0
   40.8920   25.1250   33.9000 H   0  0  0  0  0  0  0  0  0  0  0  0
   38.6900   28.2680   35.7560 H   0  0  0  0  0  0  0  0  0  0  0  0
   40.9140   22.6650   35.8740 C   0  0  0  0  0  0  0  0  0  0  0  0
   41.8390   23.1270   36.6310 O   0  0  0  0  0  0  0  0  0  0  0  0
   39.7710   23.2090   35.2430 N   0  0  0  0  0  0  0  0  0  0  0  0
   41.1780   21.5970   35.7640 H   0  0  0  0  0  0  0  0  0  0  0  0
   39.2310   22.5580   34.6720 H   0  0  0  0  0  0  0  0  0  0  0  0
   37.8950   24.0120   37.0360 O   0  0  0  0  0  0  0  0  0  0  0  0
   38.0650   23.7180   38.3840 C   0  0  0  0  0  0  0  0  0  0  0  0
   37.2110   22.7340   38.8550 F   0  0  0  0  0  0  0  0  0  0  0  0
   39.3840   23.4010   38.6630 F   0  0  0  0  0  0  0  0  0  0  0  0
   37.7140   24.8750   39.0880 F   0  0  0  0  0  0  0  0  0  0  0  0
  1  6  1  0  0  0  0
  1 14  1  0  0  0  0
  2  1  2  0  0  0  0
  3  4  2  0  0  0  0
  3  2  1  0  0  0  0
  4  5  1  0  0  0  0
  5  8  1  0  0  0  0
  5  6  2  0  0  0  0
  7  3  1  0  0  0  0
  9 10  2  0  0  0  0
 11  2  1  0  0  0  0
 11  9  1  0  0  0  0
 12  9  1  0  0  0  0
 13 11  1  0  0  0  0
 14 15  1  0  0  0  0
 15 17  1  0  0  0  0
 15 16  1  0  0  0  0
 15 18  1  0  0  0  0
M  END
>  <minimizedAffinity>
-4.21567249

$$$$

 OpenBabel03272507383D

 18 18  0  0  0  0  0  0  0  0999 V2000
   38.4270   25.0840   36.2750 C   0  0  0  0  0  0  0  0  0  0  0  0
   39.3370   24.6000   35.3310 C   0  0  0  0  0  0  0  0  0  0  0  0
   40.0020   25.4980   34.5110 C   0  0  0  0  0  0  0  0  0  0  0  0
   39.7210   26.8140   34.6810 N   0  0  0  0  0  0  0  0  0  0  0  0
   38.8460   27.2760   35.5910 C   0  0  0  0  0  0  0  0  0  0  0  0
   38.2100   26.4130   36.3760 N   0  0  0  0  0  0  0  0  0  0  0  0
   40.7220   25.1780   33.7560 H   0  0  0  0  0  0  0  0  0  0  0  0
   38.6270   28.3270   35.7230 H   0  0  0  0  0  0  0  0  0  0  0  0
   38.9100   22.4940   34.1980 C   0  0  0  0  0  0  0  0  0  0  0  0
   37.9220   22.7200   33.4130 O   0  0  0  0  0  0  0  0  0  0  0  0
   39.6430   23.2630   35.1330 N   0  0  0  0  0  0  0  0  0  0  0  0
   39.1530   21.4320   34.0110 H   0  0  0  0  0  0  0  0  0  0  0  0
   40.3850   22.7660   35.6270 H   0  0  0  0  0  0  0  0  0  0  0  0
   37.8520   24.0690   37.0100 O   0  0  0  0  0  0  0  0  0  0  0  0
   38.0400   23.7940   38.3600 C   0  0  0  0  0  0  0  0  0  0  0  0
   37.9460   24.9100   39.1750 F   0  0  0  0  0  0  0  0  0  0  0  0
   37.1860   22.7940   38.7910 F   0  0  0  0  0  0  0  0  0  0  0  0
   39.3620   23.3550   38.4930 F   0  0  0  0  0  0  0  0  0  0  0  0
  1  6  1  0  0  0  0
  1 14  1  0  0  0  0
  2  1  2  0  0  0  0
  3  4  2  0  0  0  0
  3  2  1  0  0  0  0
  4  5  1  0  0  0  0
  5  8  1  0  0  0  0
  5  6  2  0  0  0  0
  7  3  1  0  0  0  0
  9 11  1  0  0  0  0
 10  9  2  0  0  0  0
 11  2  1  0  0  0  0
 11 13  1  0  0  0  0
 12  9  1  0  0  0  0
 14 15  1  0  0  0  0
 15 18  1  0  0  0  0
 15 17  1  0  0  0  0
 15 16  1  0  0  0  0
M  END
>  <minimizedAffinity>
-4.15238953

$$$$

 OpenBabel03272507383D

 18 18  0  0  0  0  0  0  0  0999 V2000
   38.4530   24.6660   35.0630 C   0  0  0  0  0  0  0  0  0  0  0  0
   38.1800   23.6220   35.9500 C   0  0  0  0  0  0  0  0  0  0  0  0
   38.7830   22.3890   35.7500 C   0  0  0  0  0  0  0  0  0  0  0  0
   39.6150   22.2760   34.6860 N   0  0  0  0  0  0  0  0  0  0  0  0
   39.8770   23.2820   33.8340 C   0  0  0  0  0  0  0  0  0  0  0  0
   39.2970   24.4630   34.0290 N   0  0  0  0  0  0  0  0  0  0  0  0
   38.6060   21.5380   36.4100 H   0  0  0  0  0  0  0  0  0  0  0  0
   40.5420   23.1860   32.9880 H   0  0  0  0  0  0  0  0  0  0  0  0
   37.8630   23.6990   38.3570 C   0  0  0  0  0  0  0  0  0  0  0  0
   39.0370   23.6040   38.8610 O   0  0  0  0  0  0  0  0  0  0  0  0
   37.3340   23.7080   37.0450 N   0  0  0  0  0  0  0  0  0  0  0  0
   37.2070   23.7890   39.2420 H   0  0  0  0  0  0  0  0  0  0  0  0
   36.3180   23.7820   36.9800 H   0  0  0  0  0  0  0  0  0  0  0  0
   37.7790   25.8220   35.3980 O   0  0  0  0  0  0  0  0  0  0  0  0
   38.3010   26.9520   36.0180 C   0  0  0  0  0  0  0  0  0  0  0  0
   37.7220   28.1380   35.5970 F   0  0  0  0  0  0  0  0  0  0  0  0
   38.2440   26.8370   37.3960 F   0  0  0  0  0  0  0  0  0  0  0  0
   39.6400   27.0370   35.6210 F   0  0  0  0  0  0  0  0  0  0  0  0
  1 14  1  0  0  0  0
  1  2  1  0  0  0  0
  2 11  1  0  0  0  0
  3  2  2  0  0  0  0
  3  7  1  0  0  0  0
  4  3  1  0  0  0  0
  5  6  1  0  0  0  0
  5  4  2  0  0  0  0
  6  1  2  0  0  0  0
  8  5  1  0  0  0  0
  9 10  2  0  0  0  0
  9 12  1  0  0  0  0
 11  9  1  0  0  0  0
 13 11  1  0  0  0  0
 14 15  1  0  0  0  0
 15 17  1  0  0  0  0
 16 15  1  0  0  0  0
 18 15  1  0  0  0  0
M  END
>  <minimizedAffinity>
-4.06932354

$$$$

 OpenBabel03272507383D

 18 18  0  0  0  0  0  0  0  0999 V2000
   38.5590   23.1310   36.0500 C   0  0  0  0  0  0  0  0  0  0  0  0
   38.8180   24.1270   35.1050 C   0  0  0  0  0  0  0  0  0  0  0  0
   38.3580   23.9650   33.8070 C   0  0  0  0  0  0  0  0  0  0  0  0
   37.6730   22.8260   33.5340 N   0  0  0  0  0  0  0  0  0  0  0  0
   37.4250   21.8700   34.4450 C   0  0  0  0  0  0  0  0  0  0  0  0
   37.8670   22.0290   35.6890 N   0  0  0  0  0  0  0  0  0  0  0  0
   38.5320   24.7090   33.0280 H   0  0  0  0  0  0  0  0  0  0  0  0
   36.8770   20.9650   34.2220 H   0  0  0  0  0  0  0  0  0  0  0  0
   38.8200   26.5150   35.5520 C   0  0  0  0  0  0  0  0  0  0  0  0
   37.5870   26.8660   35.5440 O   0  0  0  0  0  0  0  0  0  0  0  0
   39.5160   25.2990   35.3550 N   0  0  0  0  0  0  0  0  0  0  0  0
   39.3560   27.4550   35.7740 H   0  0  0  0  0  0  0  0  0  0  0  0
   40.5330   25.3590   35.4110 H   0  0  0  0  0  0  0  0  0  0  0  0
   39.0800   23.4410   37.2890 O   0  0  0  0  0  0  0  0  0  0  0  0
   38.3760   23.7960   38.4340 C   0  0  0  0  0  0  0  0  0  0  0  0
   37.9040   25.0980   38.4200 F   0  0  0  0  0  0  0  0  0  0  0  0
   37.3490   22.9020   38.6860 F   0  0  0  0  0  0  0  0  0  0  0  0
   39.2920   23.7500   39.4910 F   0  0  0  0  0  0  0  0  0  0  0  0
  1 14  1  0  0  0  0
  2 11  1  0  0  0  0
  2  1  2  0  0  0  0
  3  2  1  0  0  0  0
  4  3  2  0  0  0  0
  4  5  1  0  0  0  0
  5  6  2  0  0  0  0
  6  1  1  0  0  0  0
  7  3  1  0  0  0  0
  8  5  1  0  0  0  0
  9 12  1  0  0  0  0
 10  9  2  0  0  0  0
 11 13  1  0  0  0  0
 11  9  1  0  0  0  0
 14 15  1  0  0  0  0
 15 17  1  0  0  0  0
 15 18  1  0  0  0  0
 16 15  1  0  0  0  0
M  END
>  <minimizedAffinity>
-4.0612793

$$$$

 OpenBabel03272507383D

 18 18  0  0  0  0  0  0  0  0999 V2000
   38.9470   24.9820   35.7970 C   0  0  0  0  0  0  0  0  0  0  0  0
   39.2790   26.2830   35.4090 C   0  0  0  0  0  0  0  0  0  0  0  0
   40.1830   26.4700   34.3740 C   0  0  0  0  0  0  0  0  0  0  0  0
   40.6970   25.3560   33.7950 N   0  0  0  0  0  0  0  0  0  0  0  0
   40.3750   24.1070   34.1700 C   0  0  0  0  0  0  0  0  0  0  0  0
   39.5090   23.9300   35.1630 N   0  0  0  0  0  0  0  0  0  0  0  0
   40.4790   27.4620   34.0300 H   0  0  0  0  0  0  0  0  0  0  0  0
   40.7870   23.2220   33.7040 H   0  0  0  0  0  0  0  0  0  0  0  0
   37.5840   28.0210   35.4810 C   0  0  0  0  0  0  0  0  0  0  0  0
   36.7740   27.7500   34.5260 O   0  0  0  0  0  0  0  0  0  0  0  0
   38.7720   27.4380   35.9820 N   0  0  0  0  0  0  0  0  0  0  0  0
   37.1520   28.9300   35.9380 H   0  0  0  0  0  0  0  0  0  0  0  0
   39.2020   27.9240   36.7700 H   0  0  0  0  0  0  0  0  0  0  0  0
   38.0400   24.9650   36.8350 O   0  0  0  0  0  0  0  0  0  0  0  0
   38.0480   24.1310   37.9480 C   0  0  0  0  0  0  0  0  0  0  0  0
   39.2610   23.4990   38.1640 F   0  0  0  0  0  0  0  0  0  0  0  0
   37.6340   24.8070   39.0830 F   0  0  0  0  0  0  0  0  0  0  0  0
   37.1420   23.1000   37.6740 F   0  0  0  0  0  0  0  0  0  0  0  0
  1 14  1  0  0  0  0
  2  1  1  0  0  0  0
  2 11  1  0  0  0  0
  3  2  2  0  0  0  0
  4  5  2  0  0  0  0
  4  3  1  0  0  0  0
  5  6  1  0  0  0  0
  6  1  2  0  0  0  0
  7  3  1  0  0  0  0
  8  5  1  0  0  0  0
  9 12  1  0  0  0  0
  9 11  1  0  0  0  0
 10  9  2  0  0  0  0
 11 13  1  0  0  0  0
 14 15  1  0  0  0  0
 15 16  1  0  0  0  0
 15 17  1  0  0  0  0
 18 15  1  0  0  0  0
M  END
>  <minimizedAffinity>
-3.97734642

$$$$

 OpenBabel03272507383D

 18 18  0  0  0  0  0  0  0  0999 V2000
   39.8120   24.0160   35.7580 C   0  0  0  0  0  0  0  0  0  0  0  0
   39.5460   23.0650   36.7470 C   0  0  0  0  0  0  0  0  0  0  0  0
   40.5960   22.3380   37.2860 C   0  0  0  0  0  0  0  0  0  0  0  0
   41.8380   22.6010   36.8070 N   0  0  0  0  0  0  0  0  0  0  0  0
   42.0910   23.5160   35.8560 C   0  0  0  0  0  0  0  0  0  0  0  0
   41.0820   24.2120   35.3420 N   0  0  0  0  0  0  0  0  0  0  0  0
   40.4480   21.5820   38.0590 H   0  0  0  0  0  0  0  0  0  0  0  0
   43.0830   23.7220   35.4800 H   0  0  0  0  0  0  0  0  0  0  0  0
   37.7710   23.5130   38.3440 C   0  0  0  0  0  0  0  0  0  0  0  0
   38.2050   24.4690   39.0790 O   0  0  0  0  0  0  0  0  0  0  0  0
   38.2890   22.7740   37.2530 N   0  0  0  0  0  0  0  0  0  0  0  0
   36.7630   23.3110   38.7480 H   0  0  0  0  0  0  0  0  0  0  0  0
   37.6800   22.0410   36.8900 H   0  0  0  0  0  0  0  0  0  0  0  0
   38.6670   24.6520   35.3270 O   0  0  0  0  0  0  0  0  0  0  0  0
   38.3510   26.0000   35.4600 C   0  0  0  0  0  0  0  0  0  0  0  0
   38.3290   26.4420   36.7720 F   0  0  0  0  0  0  0  0  0  0  0  0
   39.1890   26.7870   34.6880 F   0  0  0  0  0  0  0  0  0  0  0  0
   37.0370   26.1450   35.0020 F   0  0  0  0  0  0  0  0  0  0  0  0
  1  2  1  0  0  0  0
  2 11  1  0  0  0  0
  2  3  2  0  0  0  0
  3  7  1  0  0  0  0
  4  3  1  0  0  0  0
  5  4  2  0  0  0  0
  6  1  2  0  0  0  0
  6  5  1  0  0  0  0
  8  5  1  0  0  0  0
  9 12  1  0  0  0  0
  9 10  2  0  0  0  0
 11  9  1  0  0  0  0
 13 11  1  0  0  0  0
 14 15  1  0  0  0  0
 14  1  1  0  0  0  0
 15 16  1  0  0  0  0
 17 15  1  0  0  0  0
 18 15  1  0  0  0  0
M  END
>  <minimizedAffinity>
-3.93821812

$$$$

 OpenBabel03272507383D

 18 18  0  0  0  0  0  0  0  0999 V2000
   38.6710   24.6240   36.2940 C   0  0  0  0  0  0  0  0  0  0  0  0
   39.7590   23.9390   35.7480 C   0  0  0  0  0  0  0  0  0  0  0  0
   40.3600   22.9270   36.4810 C   0  0  0  0  0  0  0  0  0  0  0  0
   39.8410   22.6620   37.7060 N   0  0  0  0  0  0  0  0  0  0  0  0
   38.7930   23.3220   38.2290 C   0  0  0  0  0  0  0  0  0  0  0  0
   38.2200   24.2920   37.5240 N   0  0  0  0  0  0  0  0  0  0  0  0
   41.2130   22.3600   36.1050 H   0  0  0  0  0  0  0  0  0  0  0  0
   38.3830   23.1060   39.2060 H   0  0  0  0  0  0  0  0  0  0  0  0
   41.5500   24.8630   34.3910 C   0  0  0  0  0  0  0  0  0  0  0  0
   42.3800   25.3770   35.2220 O   0  0  0  0  0  0  0  0  0  0  0  0
   40.3110   24.1880   34.5010 N   0  0  0  0  0  0  0  0  0  0  0  0
   42.0160   25.0530   33.4070 H   0  0  0  0  0  0  0  0  0  0  0  0
   39.8800   23.9130   33.6180 H   0  0  0  0  0  0  0  0  0  0  0  0
   38.1880   25.5970   35.4450 O   0  0  0  0  0  0  0  0  0  0  0  0
   38.4130   26.9670   35.5190 C   0  0  0  0  0  0  0  0  0  0  0  0
   39.6860   27.3470   35.1290 F   0  0  0  0  0  0  0  0  0  0  0  0
   37.4500   27.6700   34.8150 F   0  0  0  0  0  0  0  0  0  0  0  0
   38.3280   27.3080   36.8740 F   0  0  0  0  0  0  0  0  0  0  0  0
  1  6  1  0  0  0  0
  2  1  2  0  0  0  0
  2  3  1  0  0  0  0
  3  4  2  0  0  0  0
  4  5  1  0  0  0  0
  5  8  1  0  0  0  0
  6  5  2  0  0  0  0
  7  3  1  0  0  0  0
  9 11  1  0  0  0  0
  9 10  2  0  0  0  0
 11  2  1  0  0  0  0
 12  9  1  0  0  0  0
 13 11  1  0  0  0  0
 14 15  1  0  0  0  0
 14  1  1  0  0  0  0
 15 18  1  0  0  0  0
 16 15  1  0  0  0  0
 17 15  1  0  0  0  0
M  END
>  <minimizedAffinity>
-3.84238458

$$$$

 OpenBabel03272507383D

 18 18  0  0  0  0  0  0  0  0999 V2000
   38.3080   24.8490   36.3690 C   0  0  0  0  0  0  0  0  0  0  0  0
   39.3070   24.0170   35.8580 C   0  0  0  0  0  0  0  0  0  0  0  0
   39.8630   23.0460   36.6770 C   0  0  0  0  0  0  0  0  0  0  0  0
   39.3920   22.9660   37.9470 N   0  0  0  0  0  0  0  0  0  0  0  0
   38.4300   23.7680   38.4350 C   0  0  0  0  0  0  0  0  0  0  0  0
   37.8990   24.6970   37.6480 N   0  0  0  0  0  0  0  0  0  0  0  0
   40.6470   22.3690   36.3320 H   0  0  0  0  0  0  0  0  0  0  0  0
   38.0580   23.6990   39.4480 H   0  0  0  0  0  0  0  0  0  0  0  0
   41.0020   24.7870   34.2980 C   0  0  0  0  0  0  0  0  0  0  0  0
   41.8230   25.4800   34.9970 O   0  0  0  0  0  0  0  0  0  0  0  0
   39.8090   24.0760   34.5680 N   0  0  0  0  0  0  0  0  0  0  0  0
   41.4290   24.8280   33.2790 H   0  0  0  0  0  0  0  0  0  0  0  0
   39.3700   23.6300   33.7610 H   0  0  0  0  0  0  0  0  0  0  0  0
   37.8590   25.7570   35.4340 O   0  0  0  0  0  0  0  0  0  0  0  0
   38.2310   27.0920   35.3100 C   0  0  0  0  0  0  0  0  0  0  0  0
   37.1690   27.9770   35.3780 F   0  0  0  0  0  0  0  0  0  0  0  0
   39.2110   27.4250   36.2300 F   0  0  0  0  0  0  0  0  0  0  0  0
   38.7480   27.2390   34.0180 F   0  0  0  0  0  0  0  0  0  0  0  0
  1  6  1  0  0  0  0
  2  1  2  0  0  0  0
  2  3  1  0  0  0  0
  3  4  2  0  0  0  0
  4  5  1  0  0  0  0
  5  8  1  0  0  0  0
  6  5  2  0  0  0  0
  7  3  1  0  0  0  0
  9 11  1  0  0  0  0
  9 10  2  0  0  0  0
 11  2  1  0  0  0  0
 12  9  1  0  0  0  0
 13 11  1  0  0  0  0
 14  1  1  0  0  0  0
 15 16  1  0  0  0  0
 15 14  1  0  0  0  0
 15 17  1  0  0  0  0
 18 15  1  0  0  0  0
M  END
>  <minimizedAffinity>
-3.82375026

$$$$

 OpenBabel03272507383D

 18 18  0  0  0  0  0  0  0  0999 V2000
   40.1970   22.6310   36.9130 C   0  0  0  0  0  0  0  0  0  0  0  0
   40.7480   23.4610   35.9330 C   0  0  0  0  0  0  0  0  0  0  0  0
   42.0610   23.2610   35.5360 C   0  0  0  0  0  0  0  0  0  0  0  0
   42.7400   22.2520   36.1370 N   0  0  0  0  0  0  0  0  0  0  0  0
   42.2070   21.4540   37.0790 C   0  0  0  0  0  0  0  0  0  0  0  0
   40.9480   21.6490   37.4570 N   0  0  0  0  0  0  0  0  0  0  0  0
   42.5430   23.8790   34.7770 H   0  0  0  0  0  0  0  0  0  0  0  0
   42.7520   20.6510   37.5540 H   0  0  0  0  0  0  0  0  0  0  0  0
   39.4390   24.2850   34.0590 C   0  0  0  0  0  0  0  0  0  0  0  0
   39.3120   23.2880   33.2650 O   0  0  0  0  0  0  0  0  0  0  0  0
   40.0800   24.5000   35.3030 N   0  0  0  0  0  0  0  0  0  0  0  0
   38.8840   25.0940   33.5520 H   0  0  0  0  0  0  0  0  0  0  0  0
   40.0080   25.4460   35.6780 H   0  0  0  0  0  0  0  0  0  0  0  0
   38.8880   22.9580   37.1950 O   0  0  0  0  0  0  0  0  0  0  0  0
   38.4100   23.6290   38.3160 C   0  0  0  0  0  0  0  0  0  0  0  0
   39.3090   23.6720   39.3670 F   0  0  0  0  0  0  0  0  0  0  0  0
   37.9730   24.9010   37.9870 F   0  0  0  0  0  0  0  0  0  0  0  0
   37.3260   22.8820   38.7910 F   0  0  0  0  0  0  0  0  0  0  0  0
  1 14  1  0  0  0  0
  1  6  1  0  0  0  0
  2  1  2  0  0  0  0
  3  2  1  0  0  0  0
  3  4  2  0  0  0  0
  4  5  1  0  0  0  0
  5  6  2  0  0  0  0
  5  8  1  0  0  0  0
  7  3  1  0  0  0  0
  9 11  1  0  0  0  0
 10  9  2  0  0  0  0
 11 13  1  0  0  0  0
 11  2  1  0  0  0  0
 12  9  1  0  0  0  0
 14 15  1  0  0  0  0
 15 18  1  0  0  0  0
 15 16  1  0  0  0  0
 17 15  1  0  0  0  0
M  END
>  <minimizedAffinity>
-3.81131101

$$$$
