
 OpenBabel03272508163D

 26 27  0  0  0  0  0  0  0  0999 V2000
   37.1750   30.9160   48.9930 Cl  0  0  0  0  0  0  0  0  0  0  0  0
   37.0500   30.9840   47.2740 C   0  0  0  0  0  0  0  0  0  0  0  0
   35.9860   30.2860   46.7870 C   0  0  0  0  0  0  0  0  0  0  0  0
   35.7810   30.2700   45.3840 C   0  0  0  0  0  0  0  0  0  0  0  0
   36.6180   30.9290   44.5360 C   0  0  0  0  0  0  0  0  0  0  0  0
   37.6870   31.6280   45.0570 C   0  0  0  0  0  0  0  0  0  0  0  0
   38.7830   32.4810   44.0190 Cl  0  0  0  0  0  0  0  0  0  0  0  0
   37.8800   31.6410   46.4010 C   0  0  0  0  0  0  0  0  0  0  0  0
   34.9720   29.7490   44.9070 H   0  0  0  0  0  0  0  0  0  0  0  0
   36.4850   30.9340   43.4610 H   0  0  0  0  0  0  0  0  0  0  0  0
   35.3440   28.8780   48.7050 C   0  0  0  0  0  0  0  0  0  0  0  0
   34.9530   29.5020   47.4980 C   0  0  0  0  0  0  0  0  0  0  0  0
   33.6510   29.3500   47.0500 C   0  0  0  0  0  0  0  0  0  0  0  0
   32.8090   28.5950   47.8120 N   0  0  0  0  0  0  0  0  0  0  0  0
   33.2020   28.0080   48.9600 C   0  0  0  0  0  0  0  0  0  0  0  0
   34.4890   28.1500   49.4160 N   0  0  0  0  0  0  0  0  0  0  0  0
   36.3340   28.9620   49.0950 H   0  0  0  0  0  0  0  0  0  0  0  0
   33.3860   29.8330   46.1350 H   0  0  0  0  0  0  0  0  0  0  0  0
   32.4450   27.4450   49.4600 H   0  0  0  0  0  0  0  0  0  0  0  0
   38.9960   32.3630   47.0420 C   0  0  0  0  0  0  0  0  0  0  0  0
   39.9380   32.9620   46.5290 O   0  0  0  0  0  0  0  0  0  0  0  0
   39.2090   32.5160   48.4300 O   0  0  0  0  0  0  0  0  0  0  0  0
   39.0730   33.7340   49.0860 C   0  0  0  0  0  0  0  0  0  0  0  0
   37.7300   34.0930   49.1390 F   0  0  0  0  0  0  0  0  0  0  0  0
   39.5170   33.5430   50.3800 F   0  0  0  0  0  0  0  0  0  0  0  0
   39.7870   34.7610   48.5120 F   0  0  0  0  0  0  0  0  0  0  0  0
  2  1  1  0  0  0  0
  3  2  1  0  0  0  0
  3 12  1  0  0  0  0
  4  3  2  0  0  0  0
  5  6  2  0  0  0  0
  5  4  1  0  0  0  0
  6  8  1  0  0  0  0
  7  6  1  0  0  0  0
  8 20  1  0  0  0  0
  8  2  2  0  0  0  0
  9  4  1  0  0  0  0
 10  5  1  0  0  0  0
 11 17  1  0  0  0  0
 11 16  1  0  0  0  0
 12 11  2  0  0  0  0
 13 12  1  0  0  0  0
 13 14  2  0  0  0  0
 14 15  1  0  0  0  0
 15 16  2  0  0  0  0
 15 19  1  0  0  0  0
 18 13  1  0  0  0  0
 20 22  1  0  0  0  0
 21 20  2  0  0  0  0
 22 23  1  0  0  0  0
 23 24  1  0  0  0  0
 23 25  1  0  0  0  0
 26 23  1  0  0  0  0
M  END
>  <minimizedAffinity>
-5.80290556

>  <minimizedRMSD>
2.04254007

$$$$
