
 OpenBabel03272508163D

 26 27  0  0  0  0  0  0  0  0999 V2000
   35.8240   29.7820   48.4920 Cl  0  0  0  0  0  0  0  0  0  0  0  0
   36.1170   30.2530   46.8590 C   0  0  0  0  0  0  0  0  0  0  0  0
   35.0890   29.9420   46.0200 C   0  0  0  0  0  0  0  0  0  0  0  0
   35.2170   30.2810   44.6490 C   0  0  0  0  0  0  0  0  0  0  0  0
   36.3320   30.9020   44.1730 C   0  0  0  0  0  0  0  0  0  0  0  0
   37.3570   31.2060   45.0450 C   0  0  0  0  0  0  0  0  0  0  0  0
   38.7970   31.9920   44.4860 Cl  0  0  0  0  0  0  0  0  0  0  0  0
   37.2300   30.8780   46.3570 C   0  0  0  0  0  0  0  0  0  0  0  0
   34.4630   30.0780   43.9130 H   0  0  0  0  0  0  0  0  0  0  0  0
   36.4560   31.1740   43.1310 H   0  0  0  0  0  0  0  0  0  0  0  0
   33.8440   27.9020   46.6210 C   0  0  0  0  0  0  0  0  0  0  0  0
   33.7980   29.2780   46.2980 C   0  0  0  0  0  0  0  0  0  0  0  0
   32.5720   29.9210   46.2590 C   0  0  0  0  0  0  0  0  0  0  0  0
   31.4630   29.1780   46.5380 N   0  0  0  0  0  0  0  0  0  0  0  0
   31.5280   27.8670   46.8430 C   0  0  0  0  0  0  0  0  0  0  0  0
   32.7360   27.2160   46.8860 N   0  0  0  0  0  0  0  0  0  0  0  0
   34.7600   27.3580   46.6650 H   0  0  0  0  0  0  0  0  0  0  0  0
   32.5690   30.9610   46.0120 H   0  0  0  0  0  0  0  0  0  0  0  0
   30.5880   27.4020   47.0410 H   0  0  0  0  0  0  0  0  0  0  0  0
   38.2750   31.1670   47.3570 C   0  0  0  0  0  0  0  0  0  0  0  0
   39.4910   31.2730   47.2120 O   0  0  0  0  0  0  0  0  0  0  0  0
   38.0760   31.3890   48.7390 O   0  0  0  0  0  0  0  0  0  0  0  0
   38.0950   32.6550   49.3100 C   0  0  0  0  0  0  0  0  0  0  0  0
   38.1270   33.6230   48.3100 F   0  0  0  0  0  0  0  0  0  0  0  0
   36.9090   32.7980   50.0060 F   0  0  0  0  0  0  0  0  0  0  0  0
   39.1490   32.8670   50.1690 F   0  0  0  0  0  0  0  0  0  0  0  0
  2  1  1  0  0  0  0
  3 12  1  0  0  0  0
  3  2  2  0  0  0  0
  4  3  1  0  0  0  0
  5  4  2  0  0  0  0
  5  6  1  0  0  0  0
  6  8  2  0  0  0  0
  7  6  1  0  0  0  0
  8  2  1  0  0  0  0
  8 20  1  0  0  0  0
  9  4  1  0  0  0  0
 10  5  1  0  0  0  0
 11 17  1  0  0  0  0
 11 16  1  0  0  0  0
 12 11  2  0  0  0  0
 13 12  1  0  0  0  0
 13 14  2  0  0  0  0
 14 15  1  0  0  0  0
 15 16  2  0  0  0  0
 15 19  1  0  0  0  0
 18 13  1  0  0  0  0
 20 22  1  0  0  0  0
 21 20  2  0  0  0  0
 22 23  1  0  0  0  0
 23 25  1  0  0  0  0
 23 26  1  0  0  0  0
 24 23  1  0  0  0  0
M  END
>  <minimizedAffinity>
-4.71020031

>  <minimizedRMSD>
3.12043238

$$$$
