
 OpenBabel03272510103D

 23 24  0  0  0  0  0  0  0  0999 V2000
   37.7070   31.2090   48.7110 C   0  0  0  0  0  0  0  0  0  0  0  0
   38.1860   32.4690   48.9290 C   0  0  0  0  0  0  0  0  0  0  0  0
   39.0300   33.1450   48.0830 C   0  0  0  0  0  0  0  0  0  0  0  0
   39.4510   32.5430   46.9130 C   0  0  0  0  0  0  0  0  0  0  0  0
   38.9580   31.2540   46.6970 C   0  0  0  0  0  0  0  0  0  0  0  0
   38.1310   30.6340   47.5580 N   0  0  0  0  0  0  0  0  0  0  0  0
   37.8970   33.0090   49.8330 H   0  0  0  0  0  0  0  0  0  0  0  0
   39.4150   34.1420   48.2460 H   0  0  0  0  0  0  0  0  0  0  0  0
   39.2470   30.7170   45.7960 H   0  0  0  0  0  0  0  0  0  0  0  0
   37.1860   30.0510   50.8790 C   0  0  0  0  0  0  0  0  0  0  0  0
   36.8220   30.5160   49.6100 C   0  0  0  0  0  0  0  0  0  0  0  0
   35.5130   30.2870   49.2000 C   0  0  0  0  0  0  0  0  0  0  0  0
   34.6620   29.6280   50.0480 N   0  0  0  0  0  0  0  0  0  0  0  0
   35.0690   29.2020   51.2620 C   0  0  0  0  0  0  0  0  0  0  0  0
   36.3280   29.4090   51.6840 N   0  0  0  0  0  0  0  0  0  0  0  0
   38.2100   30.2350   51.1880 H   0  0  0  0  0  0  0  0  0  0  0  0
   35.1280   30.6080   48.2300 H   0  0  0  0  0  0  0  0  0  0  0  0
   34.2610   28.7050   51.7870 H   0  0  0  0  0  0  0  0  0  0  0  0
   40.2950   33.0650   45.9460 O   0  0  0  0  0  0  0  0  0  0  0  0
   39.9300   33.3020   44.6200 C   0  0  0  0  0  0  0  0  0  0  0  0
   40.5600   32.3880   43.7890 F   0  0  0  0  0  0  0  0  0  0  0  0
   38.5710   33.1880   44.3750 F   0  0  0  0  0  0  0  0  0  0  0  0
   40.4080   34.5630   44.2790 F   0  0  0  0  0  0  0  0  0  0  0  0
  1  2  1  0  0  0  0
  1 11  1  0  0  0  0
  2  7  1  0  0  0  0
  3  8  1  0  0  0  0
  3  2  2  0  0  0  0
  4  3  1  0  0  0  0
  5  4  2  0  0  0  0
  5  6  1  0  0  0  0
  6  1  2  0  0  0  0
  9  5  1  0  0  0  0
 10 16  1  0  0  0  0
 10 15  1  0  0  0  0
 11 10  2  0  0  0  0
 12 11  1  0  0  0  0
 12 13  2  0  0  0  0
 13 14  1  0  0  0  0
 14 15  2  0  0  0  0
 14 18  1  0  0  0  0
 17 12  1  0  0  0  0
 19  4  1  0  0  0  0
 20 19  1  0  0  0  0
 21 20  1  0  0  0  0
 22 20  1  0  0  0  0
 23 20  1  0  0  0  0
M  END
>  <minimizedAffinity>
-5.45134449

>  <minimizedRMSD>
1.51945734

$$$$
