
 OpenBabel03272506353D

 18 18  0  0  0  0  0  0  0  0999 V2000
   36.8600   30.8280   49.2960 C   0  0  0  0  0  0  0  0  0  0  0  0
   38.0690   31.0190   48.5820 C   0  0  0  0  0  0  0  0  0  0  0  0
   38.0350   30.9450   47.2070 C   0  0  0  0  0  0  0  0  0  0  0  0
   36.8210   30.6890   46.6150 N   0  0  0  0  0  0  0  0  0  0  0  0
   35.6880   30.5120   47.3150 C   0  0  0  0  0  0  0  0  0  0  0  0
   35.7260   30.5850   48.6410 N   0  0  0  0  0  0  0  0  0  0  0  0
   33.8940   28.9740   47.0520 C   0  0  0  0  0  0  0  0  0  0  0  0
   34.3460   28.1320   47.8820 O   0  0  0  0  0  0  0  0  0  0  0  0
   34.4540   30.2470   46.6400 N   0  0  0  0  0  0  0  0  0  0  0  0
   39.0350   31.2230   49.0350 H   0  0  0  0  0  0  0  0  0  0  0  0
   38.9300   31.0840   46.6240 H   0  0  0  0  0  0  0  0  0  0  0  0
   32.9380   28.6820   46.5860 H   0  0  0  0  0  0  0  0  0  0  0  0
   34.0270   30.8920   45.9500 H   0  0  0  0  0  0  0  0  0  0  0  0
   37.0160   30.9250   50.6760 O   0  0  0  0  0  0  0  0  0  0  0  0
   36.9800   29.7260   51.4160 C   0  0  0  0  0  0  0  0  0  0  0  0
   37.5920   29.9680   52.6300 F   0  0  0  0  0  0  0  0  0  0  0  0
   35.6840   29.3440   51.6500 F   0  0  0  0  0  0  0  0  0  0  0  0
   37.6200   28.7070   50.7400 F   0  0  0  0  0  0  0  0  0  0  0  0
  1 14  1  0  0  0  0
  2 10  1  0  0  0  0
  2  1  2  0  0  0  0
  3  2  1  0  0  0  0
  4  3  2  0  0  0  0
  4  5  1  0  0  0  0
  5  6  2  0  0  0  0
  6  1  1  0  0  0  0
  7  8  2  0  0  0  0
  9  7  1  0  0  0  0
  9  5  1  0  0  0  0
 11  3  1  0  0  0  0
 12  7  1  0  0  0  0
 13  9  1  0  0  0  0
 14 15  1  0  0  0  0
 15 17  1  0  0  0  0
 15 16  1  0  0  0  0
 18 15  1  0  0  0  0
M  END
>  <minimizedAffinity>
-5.03479767

>  <minimizedRMSD>
2.23449612

$$$$
