
 OpenBabel03272507263D

 32 33  0  0  1  0  0  0  0  0999 V2000
   36.9610   29.8920   48.7970 C   0  0  0  0  0  0  0  0  0  0  0  0
   37.9720   30.5140   48.0260 C   0  0  0  0  0  0  0  0  0  0  0  0
   37.6260   30.9260   46.7240 C   0  0  0  0  0  0  0  0  0  0  0  0
   36.3710   30.7080   46.2900 N   0  0  0  0  0  0  0  0  0  0  0  0
   35.4360   30.1100   47.0610 C   0  0  0  0  0  0  0  0  0  0  0  0
   35.7410   29.7090   48.3040 N   0  0  0  0  0  0  0  0  0  0  0  0
   38.5790   31.5520   45.8960 N   0  0  0  0  0  0  0  0  0  0  0  0
   39.7040   32.3690   46.3840 C   0  0  0  0  0  0  0  0  0  0  0  0
   40.2960   33.0250   45.1750 C   0  0  0  0  0  0  0  0  0  0  0  0
   39.2150   32.9340   44.1810 C   0  0  0  0  0  0  0  0  0  0  0  0
   38.6670   31.5410   44.4700 C   0  0  2  0  0  0  0  0  0  0  0  0
   37.3080   29.6070   49.7810 H   0  0  0  0  0  0  0  0  0  0  0  0
   38.9650   30.6700   48.4070 H   0  0  0  0  0  0  0  0  0  0  0  0
   34.4320   29.9530   46.6700 H   0  0  0  0  0  0  0  0  0  0  0  0
   39.3010   33.0740   47.1400 H   0  0  0  0  0  0  0  0  0  0  0  0
   40.4310   31.7010   46.9030 H   0  0  0  0  0  0  0  0  0  0  0  0
   40.4080   34.1100   45.4370 H   0  0  0  0  0  0  0  0  0  0  0  0
   41.2900   32.6860   44.8760 H   0  0  0  0  0  0  0  0  0  0  0  0
   38.4290   33.6880   44.4120 H   0  0  0  0  0  0  0  0  0  0  0  0
   39.5680   33.0390   43.1250 H   0  0  0  0  0  0  0  0  0  0  0  0
   37.4520   31.2390   43.6930 C   0  0  0  0  0  0  0  0  0  0  0  0
   36.5530   32.2650   43.9530 F   0  0  0  0  0  0  0  0  0  0  0  0
   36.8180   30.0780   44.0130 F   0  0  0  0  0  0  0  0  0  0  0  0
   37.7910   31.3520   42.3590 F   0  0  0  0  0  0  0  0  0  0  0  0
   39.7070   30.5110   44.1400 C   0  0  0  0  0  0  0  0  0  0  0  0
   40.5190   30.4580   44.8990 H   0  0  0  0  0  0  0  0  0  0  0  0
   40.2450   30.9260   43.2400 H   0  0  0  0  0  0  0  0  0  0  0  0
   39.1150   29.4540   43.9660 O   0  0  0  0  0  0  0  0  0  0  0  0
   39.4200   28.4560   43.0770 C   0  0  0  0  0  0  0  0  0  0  0  0
   38.4670   28.5040   42.0510 F   0  0  0  0  0  0  0  0  0  0  0  0
   40.6630   28.4980   42.5310 F   0  0  0  0  0  0  0  0  0  0  0  0
   39.1430   27.2530   43.7350 F   0  0  0  0  0  0  0  0  0  0  0  0
  1 12  1  0  0  0  0
  2 13  1  0  0  0  0
  2  1  2  0  0  0  0
  3  2  1  0  0  0  0
  4  3  2  0  0  0  0
  4  5  1  0  0  0  0
  5  6  2  0  0  0  0
  6  1  1  0  0  0  0
  7  8  1  0  0  0  0
  7  3  1  0  0  0  0
  8 16  1  0  0  0  0
  8 15  1  0  0  0  0
  9 17  1  0  0  0  0
  9  8  1  0  0  0  0
 10 19  1  0  0  0  0
 10 11  1  0  0  0  0
 10  9  1  0  0  0  0
 11 21  1  6  0  0  0
 11  7  1  0  0  0  0
 14  5  1  0  0  0  0
 18  9  1  0  0  0  0
 20 10  1  0  0  0  0
 21 22  1  0  0  0  0
 21 23  1  0  0  0  0
 24 21  1  0  0  0  0
 25 11  1  0  0  0  0
 25 26  1  0  0  0  0
 27 25  1  0  0  0  0
 28 25  1  0  0  0  0
 29 32  1  0  0  0  0
 29 28  1  0  0  0  0
 30 29  1  0  0  0  0
 31 29  1  0  0  0  0
M  END
>  <minimizedAffinity>
-4.65987682

>  <minimizedRMSD>
1.05061996

$$$$
