
 OpenBabel03272510243D

 27 29  0  0  0  0  0  0  0  0999 V2000
   37.6470   30.4560   50.0600 C   0  0  0  0  0  0  0  0  0  0  0  0
   37.4500   31.0670   48.8390 C   0  0  0  0  0  0  0  0  0  0  0  0
   36.4270   30.6650   48.0100 C   0  0  0  0  0  0  0  0  0  0  0  0
   35.6130   29.6260   48.4560 C   0  0  0  0  0  0  0  0  0  0  0  0
   34.5440   29.0570   47.8170 N   0  0  0  0  0  0  0  0  0  0  0  0
   34.0880   28.1100   48.6320 C   0  0  0  0  0  0  0  0  0  0  0  0
   34.7990   28.0410   49.7470 N   0  0  0  0  0  0  0  0  0  0  0  0
   35.7750   28.9880   49.6690 C   0  0  0  0  0  0  0  0  0  0  0  0
   36.8190   29.4190   50.4870 C   0  0  0  0  0  0  0  0  0  0  0  0
   38.4430   30.7400   50.7490 H   0  0  0  0  0  0  0  0  0  0  0  0
   36.2720   31.1410   47.0540 H   0  0  0  0  0  0  0  0  0  0  0  0
   34.1920   29.3520   46.8660 H   0  0  0  0  0  0  0  0  0  0  0  0
   36.9530   28.9260   51.4360 H   0  0  0  0  0  0  0  0  0  0  0  0
   39.8370   33.3300   47.0170 C   0  0  0  0  0  0  0  0  0  0  0  0
   38.9900   32.2500   47.2420 C   0  0  0  0  0  0  0  0  0  0  0  0
   38.3580   32.1400   48.4700 C   0  0  0  0  0  0  0  0  0  0  0  0
   38.6020   33.1140   49.4090 N   0  0  0  0  0  0  0  0  0  0  0  0
   39.4340   34.1580   49.1650 C   0  0  0  0  0  0  0  0  0  0  0  0
   40.0380   34.2590   47.9860 N   0  0  0  0  0  0  0  0  0  0  0  0
   40.3450   33.4410   46.0680 H   0  0  0  0  0  0  0  0  0  0  0  0
   38.8040   31.4970   46.5080 H   0  0  0  0  0  0  0  0  0  0  0  0
   39.5220   34.8370   50.0050 H   0  0  0  0  0  0  0  0  0  0  0  0
   32.9900   27.3200   48.2940 O   0  0  0  0  0  0  0  0  0  0  0  0
   31.6760   27.6330   48.6380 C   0  0  0  0  0  0  0  0  0  0  0  0
   31.6750   28.3270   49.8350 F   0  0  0  0  0  0  0  0  0  0  0  0
   30.9160   26.4870   48.8520 F   0  0  0  0  0  0  0  0  0  0  0  0
   31.1240   28.3820   47.6150 F   0  0  0  0  0  0  0  0  0  0  0  0
  1  9  1  0  0  0  0
  1 10  1  0  0  0  0
  2  1  2  0  0  0  0
  3  4  2  0  0  0  0
  3  2  1  0  0  0  0
  4  8  1  0  0  0  0
  5  4  1  0  0  0  0
  5  6  1  0  0  0  0
  6  7  2  0  0  0  0
  8  7  1  0  0  0  0
  8  9  2  0  0  0  0
  9 13  1  0  0  0  0
 11  3  1  0  0  0  0
 12  5  1  0  0  0  0
 14 15  2  0  0  0  0
 14 19  1  0  0  0  0
 15 16  1  0  0  0  0
 16  2  1  0  0  0  0
 16 17  2  0  0  0  0
 18 17  1  0  0  0  0
 18 22  1  0  0  0  0
 19 18  2  0  0  0  0
 20 14  1  0  0  0  0
 21 15  1  0  0  0  0
 23  6  1  0  0  0  0
 23 24  1  0  0  0  0
 24 26  1  0  0  0  0
 24 25  1  0  0  0  0
 27 24  1  0  0  0  0
M  END
>  <minimizedAffinity>
-6.04221106

>  <minimizedRMSD>
8.07926083

$$$$
