
 OpenBabel03272503003D

 29 30  0  0  1  0  0  0  0  0999 V2000
   38.2510   22.7690   35.8290 N   0  0  0  0  0  0  0  0  0  0  0  0
   39.6180   22.4920   36.2160 C   0  0  0  0  0  0  0  0  0  0  0  0
   39.9650   22.5900   37.6330 C   0  0  0  0  0  0  0  0  0  0  0  0
   39.1560   23.4720   38.4930 C   0  0  0  0  0  0  0  0  0  0  0  0
   37.7810   23.7810   37.9630 C   0  0  0  0  0  0  0  0  0  0  0  0
   37.8550   24.0120   36.4620 C   0  0  1  0  0  0  0  0  0  0  0  0
   39.8580   21.4970   35.7810 H   0  0  0  0  0  0  0  0  0  0  0  0
   40.2400   23.2180   35.6240 H   0  0  0  0  0  0  0  0  0  0  0  0
   41.0280   22.9060   37.7400 H   0  0  0  0  0  0  0  0  0  0  0  0
   39.9670   21.5380   38.0480 H   0  0  0  0  0  0  0  0  0  0  0  0
   38.9780   22.9720   39.4840 H   0  0  0  0  0  0  0  0  0  0  0  0
   39.6800   24.4190   38.7560 H   0  0  0  0  0  0  0  0  0  0  0  0
   37.4450   24.7350   38.4450 H   0  0  0  0  0  0  0  0  0  0  0  0
   37.0290   23.0230   38.2370 H   0  0  0  0  0  0  0  0  0  0  0  0
   36.9090   24.4010   36.0700 H   0  0  0  0  0  0  0  0  0  0  0  0
   37.4540   21.9560   34.9800 C   0  0  0  0  0  0  0  0  0  0  0  0
   36.3260   21.2540   35.3990 C   0  0  0  0  0  0  0  0  0  0  0  0
   35.6360   20.4950   34.4600 C   0  0  0  0  0  0  0  0  0  0  0  0
   36.1040   20.4800   33.1780 N   0  0  0  0  0  0  0  0  0  0  0  0
   37.1970   21.1710   32.8130 C   0  0  0  0  0  0  0  0  0  0  0  0
   37.8590   21.9000   33.7180 N   0  0  0  0  0  0  0  0  0  0  0  0
   36.0380   21.3280   36.4180 H   0  0  0  0  0  0  0  0  0  0  0  0
   34.7670   19.9550   34.7850 H   0  0  0  0  0  0  0  0  0  0  0  0
   37.5160   21.1110   31.7620 H   0  0  0  0  0  0  0  0  0  0  0  0
   38.8390   24.9960   36.2910 O   0  0  0  0  0  0  0  0  0  0  0  0
   38.2900   26.2300   36.0110 C   0  0  0  0  0  0  0  0  0  0  0  0
   37.0800   26.1350   35.3510 F   0  0  0  0  0  0  0  0  0  0  0  0
   39.1910   26.8640   35.1490 F   0  0  0  0  0  0  0  0  0  0  0  0
   38.2240   26.9730   37.1590 F   0  0  0  0  0  0  0  0  0  0  0  0
  1  2  1  0  0  0  0
  1  6  1  0  0  0  0
  2  3  1  0  0  0  0
  3  9  1  0  0  0  0
  3 10  1  0  0  0  0
  3  4  1  0  0  0  0
  4 12  1  0  0  0  0
  4 11  1  0  0  0  0
  5 14  1  0  0  0  0
  5 13  1  0  0  0  0
  5  4  1  0  0  0  0
  6 15  1  6  0  0  0
  6  5  1  0  0  0  0
  7  2  1  0  0  0  0
  8  2  1  0  0  0  0
 16 17  1  0  0  0  0
 16  1  1  0  0  0  0
 17 22  1  0  0  0  0
 18 23  1  0  0  0  0
 18 17  2  0  0  0  0
 19 18  1  0  0  0  0
 20 19  2  0  0  0  0
 20 21  1  0  0  0  0
 21 16  2  0  0  0  0
 24 20  1  0  0  0  0
 25  6  1  0  0  0  0
 26 25  1  0  0  0  0
 26 29  1  0  0  0  0
 27 26  1  0  0  0  0
 28 26  1  0  0  0  0
M  END
>  <minimizedAffinity>
-4.91173601

$$$$

 OpenBabel03272503003D

 29 30  0  0  1  0  0  0  0  0999 V2000
   38.5220   22.7520   35.4080 N   0  0  0  0  0  0  0  0  0  0  0  0
   39.2910   23.7980   34.7690 C   0  0  0  0  0  0  0  0  0  0  0  0
   40.7390   23.8080   34.9700 C   0  0  0  0  0  0  0  0  0  0  0  0
   41.2820   23.1820   36.1890 C   0  0  0  0  0  0  0  0  0  0  0  0
   40.3710   22.1740   36.8390 C   0  0  0  0  0  0  0  0  0  0  0  0
   38.9390   22.6820   36.7960 C   0  0  1  0  0  0  0  0  0  0  0  0
   39.0050   23.7680   33.6940 H   0  0  0  0  0  0  0  0  0  0  0  0
   38.8500   24.7580   35.1520 H   0  0  0  0  0  0  0  0  0  0  0  0
   41.1170   24.8550   34.9380 H   0  0  0  0  0  0  0  0  0  0  0  0
   41.2050   23.3390   34.0520 H   0  0  0  0  0  0  0  0  0  0  0  0
   42.2140   22.6080   35.9340 H   0  0  0  0  0  0  0  0  0  0  0  0
   41.6190   23.9280   36.9450 H   0  0  0  0  0  0  0  0  0  0  0  0
   40.6780   22.0920   37.9130 H   0  0  0  0  0  0  0  0  0  0  0  0
   40.4730   21.1600   36.4170 H   0  0  0  0  0  0  0  0  0  0  0  0
   38.2750   22.0570   37.4030 H   0  0  0  0  0  0  0  0  0  0  0  0
   37.5380   21.9470   34.7740 C   0  0  0  0  0  0  0  0  0  0  0  0
   37.5020   21.6860   33.4060 C   0  0  0  0  0  0  0  0  0  0  0  0
   36.4800   20.8780   32.9170 C   0  0  0  0  0  0  0  0  0  0  0  0
   35.5700   20.3860   33.8070 N   0  0  0  0  0  0  0  0  0  0  0  0
   35.6400   20.6620   35.1190 C   0  0  0  0  0  0  0  0  0  0  0  0
   36.6220   21.4380   35.5880 N   0  0  0  0  0  0  0  0  0  0  0  0
   38.2550   22.1130   32.7920 H   0  0  0  0  0  0  0  0  0  0  0  0
   36.4540   20.6780   31.8630 H   0  0  0  0  0  0  0  0  0  0  0  0
   34.8700   20.2300   35.7770 H   0  0  0  0  0  0  0  0  0  0  0  0
   38.9850   23.9600   37.3690 O   0  0  0  0  0  0  0  0  0  0  0  0
   38.3440   24.0000   38.5900 C   0  0  0  0  0  0  0  0  0  0  0  0
   37.8130   25.2450   38.8700 F   0  0  0  0  0  0  0  0  0  0  0  0
   39.3290   23.7390   39.5480 F   0  0  0  0  0  0  0  0  0  0  0  0
   37.4230   22.9900   38.6570 F   0  0  0  0  0  0  0  0  0  0  0  0
  1  6  1  0  0  0  0
  2  3  1  0  0  0  0
  2  8  1  0  0  0  0
  2  1  1  0  0  0  0
  3  4  1  0  0  0  0
  4  5  1  0  0  0  0
  4 12  1  0  0  0  0
  5 13  1  0  0  0  0
  6  5  1  0  0  0  0
  6 25  1  0  0  0  0
  6 15  1  1  0  0  0
  7  2  1  0  0  0  0
  9  3  1  0  0  0  0
 10  3  1  0  0  0  0
 11  4  1  0  0  0  0
 14  5  1  0  0  0  0
 16  1  1  0  0  0  0
 16 21  1  0  0  0  0
 17 16  2  0  0  0  0
 18 17  1  0  0  0  0
 18 19  2  0  0  0  0
 19 20  1  0  0  0  0
 20 21  2  0  0  0  0
 20 24  1  0  0  0  0
 22 17  1  0  0  0  0
 23 18  1  0  0  0  0
 25 26  1  0  0  0  0
 26 29  1  0  0  0  0
 26 27  1  0  0  0  0
 26 28  1  0  0  0  0
M  END
>  <minimizedAffinity>
-4.85893393

$$$$

 OpenBabel03272503003D

 29 30  0  0  1  0  0  0  0  0999 V2000
   38.6410   24.7760   35.2600 N   0  0  0  0  0  0  0  0  0  0  0  0
   40.0540   24.5310   35.0630 C   0  0  0  0  0  0  0  0  0  0  0  0
   40.4810   23.1670   34.7590 C   0  0  0  0  0  0  0  0  0  0  0  0
   39.6310   22.0500   35.2090 C   0  0  0  0  0  0  0  0  0  0  0  0
   38.1960   22.4190   35.4800 C   0  0  0  0  0  0  0  0  0  0  0  0
   38.1420   23.7680   36.1770 C   0  0  1  0  0  0  0  0  0  0  0  0
   40.3820   25.2670   34.2960 H   0  0  0  0  0  0  0  0  0  0  0  0
   40.5430   24.8760   36.0150 H   0  0  0  0  0  0  0  0  0  0  0  0
   41.5030   22.9920   35.1660 H   0  0  0  0  0  0  0  0  0  0  0  0
   40.6370   23.1090   33.6400 H   0  0  0  0  0  0  0  0  0  0  0  0
   39.5820   21.2660   34.4040 H   0  0  0  0  0  0  0  0  0  0  0  0
   40.0540   21.5110   36.0880 H   0  0  0  0  0  0  0  0  0  0  0  0
   37.7810   21.6490   36.1800 H   0  0  0  0  0  0  0  0  0  0  0  0
   37.5610   22.3820   34.5790 H   0  0  0  0  0  0  0  0  0  0  0  0
   37.1320   23.9910   36.5370 H   0  0  0  0  0  0  0  0  0  0  0  0
   37.8920   25.8190   34.6540 C   0  0  0  0  0  0  0  0  0  0  0  0
   37.5450   27.0080   35.2930 C   0  0  0  0  0  0  0  0  0  0  0  0
   36.8080   27.9480   34.5810 C   0  0  0  0  0  0  0  0  0  0  0  0
   36.4660   27.6520   33.2920 N   0  0  0  0  0  0  0  0  0  0  0  0
   36.8200   26.4930   32.7120 C   0  0  0  0  0  0  0  0  0  0  0  0
   37.5290   25.5910   33.3990 N   0  0  0  0  0  0  0  0  0  0  0  0
   37.8580   27.1480   36.2980 H   0  0  0  0  0  0  0  0  0  0  0  0
   36.5420   28.8620   35.0750 H   0  0  0  0  0  0  0  0  0  0  0  0
   36.5080   26.3240   31.6710 H   0  0  0  0  0  0  0  0  0  0  0  0
   38.9870   23.6410   37.2880 O   0  0  0  0  0  0  0  0  0  0  0  0
   38.3280   23.9120   38.4700 C   0  0  0  0  0  0  0  0  0  0  0  0
   37.8800   25.2180   38.5400 F   0  0  0  0  0  0  0  0  0  0  0  0
   39.2740   23.7370   39.4850 F   0  0  0  0  0  0  0  0  0  0  0  0
   37.3370   22.9880   38.6640 F   0  0  0  0  0  0  0  0  0  0  0  0
  1  6  1  0  0  0  0
  2  1  1  0  0  0  0
  2  8  1  0  0  0  0
  3  2  1  0  0  0  0
  3  9  1  0  0  0  0
  3  4  1  0  0  0  0
  4  5  1  0  0  0  0
  4 12  1  0  0  0  0
  5  6  1  0  0  0  0
  5 13  1  0  0  0  0
  6 15  1  1  0  0  0
  6 25  1  0  0  0  0
  7  2  1  0  0  0  0
 10  3  1  0  0  0  0
 11  4  1  0  0  0  0
 14  5  1  0  0  0  0
 16  1  1  0  0  0  0
 16 17  1  0  0  0  0
 17 22  1  0  0  0  0
 18 23  1  0  0  0  0
 18 17  2  0  0  0  0
 19 18  1  0  0  0  0
 20 19  2  0  0  0  0
 20 21  1  0  0  0  0
 21 16  2  0  0  0  0
 24 20  1  0  0  0  0
 25 26  1  0  0  0  0
 26 27  1  0  0  0  0
 26 29  1  0  0  0  0
 26 28  1  0  0  0  0
M  END
>  <minimizedAffinity>
-4.74772453

$$$$

 OpenBabel03272503003D

 29 30  0  0  1  0  0  0  0  0999 V2000
   38.3650   21.8960   34.2620 N   0  0  0  0  0  0  0  0  0  0  0  0
   39.3130   21.3860   33.2950 C   0  0  0  0  0  0  0  0  0  0  0  0
   39.2770   21.9360   31.9400 C   0  0  0  0  0  0  0  0  0  0  0  0
   38.0100   22.5070   31.4490 C   0  0  0  0  0  0  0  0  0  0  0  0
   37.0460   22.9220   32.5290 C   0  0  0  0  0  0  0  0  0  0  0  0
   37.0530   21.8880   33.6420 C   0  0  1  0  0  0  0  0  0  0  0  0
   40.3130   21.4830   33.7730 H   0  0  0  0  0  0  0  0  0  0  0  0
   39.1230   20.2790   33.2570 H   0  0  0  0  0  0  0  0  0  0  0  0
   39.5980   21.1590   31.2090 H   0  0  0  0  0  0  0  0  0  0  0  0
   40.1020   22.7070   31.8730 H   0  0  0  0  0  0  0  0  0  0  0  0
   38.2200   23.4470   30.8700 H   0  0  0  0  0  0  0  0  0  0  0  0
   37.4940   21.8450   30.7160 H   0  0  0  0  0  0  0  0  0  0  0  0
   36.0220   22.9340   32.0730 H   0  0  0  0  0  0  0  0  0  0  0  0
   37.2230   23.9450   32.9000 H   0  0  0  0  0  0  0  0  0  0  0  0
   36.2480   22.0690   34.3620 H   0  0  0  0  0  0  0  0  0  0  0  0
   38.6800   22.3240   35.5790 C   0  0  0  0  0  0  0  0  0  0  0  0
   37.7960   23.0020   36.4160 C   0  0  0  0  0  0  0  0  0  0  0  0
   38.2360   23.3630   37.6850 C   0  0  0  0  0  0  0  0  0  0  0  0
   39.5120   23.0310   38.0400 N   0  0  0  0  0  0  0  0  0  0  0  0
   40.3340   22.3760   37.2030 C   0  0  0  0  0  0  0  0  0  0  0  0
   39.9090   22.0300   35.9840 N   0  0  0  0  0  0  0  0  0  0  0  0
   36.8230   23.2150   36.0510 H   0  0  0  0  0  0  0  0  0  0  0  0
   37.5540   23.8850   38.3280 H   0  0  0  0  0  0  0  0  0  0  0  0
   41.3490   22.1430   37.5580 H   0  0  0  0  0  0  0  0  0  0  0  0
   36.8080   20.6630   33.0070 O   0  0  0  0  0  0  0  0  0  0  0  0
   35.5670   20.1540   33.3310 C   0  0  0  0  0  0  0  0  0  0  0  0
   34.5560   20.6890   32.5570 F   0  0  0  0  0  0  0  0  0  0  0  0
   35.3310   20.5380   34.6560 F   0  0  0  0  0  0  0  0  0  0  0  0
   35.6100   18.7860   33.2980 F   0  0  0  0  0  0  0  0  0  0  0  0
  1 16  1  0  0  0  0
  2  7  1  0  0  0  0
  2  1  1  0  0  0  0
  3  2  1  0  0  0  0
  4  3  1  0  0  0  0
  4  5  1  0  0  0  0
  5 14  1  0  0  0  0
  5  6  1  0  0  0  0
  6  1  1  0  0  0  0
  6 15  1  1  0  0  0
  8  2  1  0  0  0  0
  9  3  1  0  0  0  0
 10  3  1  0  0  0  0
 11  4  1  0  0  0  0
 12  4  1  0  0  0  0
 13  5  1  0  0  0  0
 16 21  2  0  0  0  0
 16 17  1  0  0  0  0
 17 18  2  0  0  0  0
 18 19  1  0  0  0  0
 18 23  1  0  0  0  0
 20 24  1  0  0  0  0
 20 19  2  0  0  0  0
 21 20  1  0  0  0  0
 22 17  1  0  0  0  0
 25 26  1  0  0  0  0
 25  6  1  0  0  0  0
 26 28  1  0  0  0  0
 27 26  1  0  0  0  0
 29 26  1  0  0  0  0
M  END
>  <minimizedAffinity>
-4.55698156

$$$$

 OpenBabel03272503003D

 29 30  0  0  1  0  0  0  0  0999 V2000
   38.3080   23.7630   34.2290 N   0  0  0  0  0  0  0  0  0  0  0  0
   39.3710   22.8780   34.6550 C   0  0  0  0  0  0  0  0  0  0  0  0
   39.4550   22.5360   36.0740 C   0  0  0  0  0  0  0  0  0  0  0  0
   38.8890   23.4780   37.0570 C   0  0  0  0  0  0  0  0  0  0  0  0
   37.8580   24.4240   36.5010 C   0  0  0  0  0  0  0  0  0  0  0  0
   38.2960   24.9030   35.1260 C   0  0  1  0  0  0  0  0  0  0  0  0
   39.2980   21.9820   34.0000 H   0  0  0  0  0  0  0  0  0  0  0  0
   40.3200   23.3870   34.3340 H   0  0  0  0  0  0  0  0  0  0  0  0
   40.5180   22.3590   36.3580 H   0  0  0  0  0  0  0  0  0  0  0  0
   38.9830   21.5150   36.1990 H   0  0  0  0  0  0  0  0  0  0  0  0
   38.3530   22.9060   37.8620 H   0  0  0  0  0  0  0  0  0  0  0  0
   39.6710   24.0520   37.6050 H   0  0  0  0  0  0  0  0  0  0  0  0
   37.8200   25.3130   37.1820 H   0  0  0  0  0  0  0  0  0  0  0  0
   36.8390   24.0030   36.4970 H   0  0  0  0  0  0  0  0  0  0  0  0
   37.6580   25.7160   34.7640 H   0  0  0  0  0  0  0  0  0  0  0  0
   37.4410   23.5390   33.1280 C   0  0  0  0  0  0  0  0  0  0  0  0
   37.0140   24.5340   32.2510 C   0  0  0  0  0  0  0  0  0  0  0  0
   36.1620   24.1750   31.2120 C   0  0  0  0  0  0  0  0  0  0  0  0
   35.7930   22.8640   31.1080 N   0  0  0  0  0  0  0  0  0  0  0  0
   36.2270   21.9350   31.9750 C   0  0  0  0  0  0  0  0  0  0  0  0
   37.0450   22.2820   32.9730 N   0  0  0  0  0  0  0  0  0  0  0  0
   37.3550   25.5260   32.4120 H   0  0  0  0  0  0  0  0  0  0  0  0
   35.8340   24.9430   30.5380 H   0  0  0  0  0  0  0  0  0  0  0  0
   35.8870   20.8980   31.8290 H   0  0  0  0  0  0  0  0  0  0  0  0
   39.5910   25.4080   35.3090 O   0  0  0  0  0  0  0  0  0  0  0  0
   39.6530   26.7650   35.0660 C   0  0  0  0  0  0  0  0  0  0  0  0
   39.0980   27.5130   36.0870 F   0  0  0  0  0  0  0  0  0  0  0  0
   38.8820   26.9840   33.9190 F   0  0  0  0  0  0  0  0  0  0  0  0
   40.9420   27.1200   34.7730 F   0  0  0  0  0  0  0  0  0  0  0  0
  1  2  1  0  0  0  0
  1  6  1  0  0  0  0
  2  3  1  0  0  0  0
  3 10  1  0  0  0  0
  3  9  1  0  0  0  0
  3  4  1  0  0  0  0
  4 12  1  0  0  0  0
  4 11  1  0  0  0  0
  5  4  1  0  0  0  0
  5 13  1  0  0  0  0
  6 15  1  6  0  0  0
  6 25  1  0  0  0  0
  6  5  1  0  0  0  0
  7  2  1  0  0  0  0
  8  2  1  0  0  0  0
 14  5  1  0  0  0  0
 16  1  1  0  0  0  0
 17 22  1  0  0  0  0
 17 16  2  0  0  0  0
 18 17  1  0  0  0  0
 19 18  2  0  0  0  0
 19 20  1  0  0  0  0
 20 21  2  0  0  0  0
 21 16  1  0  0  0  0
 23 18  1  0  0  0  0
 24 20  1  0  0  0  0
 26 25  1  0  0  0  0
 26 27  1  0  0  0  0
 28 26  1  0  0  0  0
 29 26  1  0  0  0  0
M  END
>  <minimizedAffinity>
-4.45502329

$$$$

 OpenBabel03272503003D

 29 30  0  0  1  0  0  0  0  0999 V2000
   39.8510   25.1310   34.6840 N   0  0  0  0  0  0  0  0  0  0  0  0
   39.4360   24.9090   33.3150 C   0  0  0  0  0  0  0  0  0  0  0  0
   40.1140   25.6600   32.2600 C   0  0  0  0  0  0  0  0  0  0  0  0
   40.7300   26.9540   32.6070 C   0  0  0  0  0  0  0  0  0  0  0  0
   41.0400   27.1330   34.0690 C   0  0  0  0  0  0  0  0  0  0  0  0
   39.9030   26.5640   34.9030 C   0  0  1  0  0  0  0  0  0  0  0  0
   39.4870   23.8080   33.1610 H   0  0  0  0  0  0  0  0  0  0  0  0
   38.3380   25.1470   33.3020 H   0  0  0  0  0  0  0  0  0  0  0  0
   39.4110   25.8420   31.4150 H   0  0  0  0  0  0  0  0  0  0  0  0
   40.8880   24.9710   31.8060 H   0  0  0  0  0  0  0  0  0  0  0  0
   41.7220   27.0500   32.0860 H   0  0  0  0  0  0  0  0  0  0  0  0
   40.1430   27.8250   32.2360 H   0  0  0  0  0  0  0  0  0  0  0  0
   41.0960   28.2350   34.2650 H   0  0  0  0  0  0  0  0  0  0  0  0
   42.0220   26.7240   34.3590 H   0  0  0  0  0  0  0  0  0  0  0  0
   40.0140   26.8240   35.9610 H   0  0  0  0  0  0  0  0  0  0  0  0
   40.1490   24.1150   35.6310 C   0  0  0  0  0  0  0  0  0  0  0  0
   41.3360   23.3860   35.6490 C   0  0  0  0  0  0  0  0  0  0  0  0
   41.4990   22.4180   36.6350 C   0  0  0  0  0  0  0  0  0  0  0  0
   40.4840   22.2370   37.5310 N   0  0  0  0  0  0  0  0  0  0  0  0
   39.3550   22.9620   37.4780 C   0  0  0  0  0  0  0  0  0  0  0  0
   39.2000   23.8920   36.5300 N   0  0  0  0  0  0  0  0  0  0  0  0
   42.0680   23.5980   34.9110 H   0  0  0  0  0  0  0  0  0  0  0  0
   42.4140   21.8570   36.6470 H   0  0  0  0  0  0  0  0  0  0  0  0
   38.5800   22.7610   38.2330 H   0  0  0  0  0  0  0  0  0  0  0  0
   38.7450   27.1870   34.4160 O   0  0  0  0  0  0  0  0  0  0  0  0
   37.7910   27.3410   35.4020 C   0  0  0  0  0  0  0  0  0  0  0  0
   37.2040   28.5920   35.3810 F   0  0  0  0  0  0  0  0  0  0  0  0
   38.4740   27.2180   36.6170 F   0  0  0  0  0  0  0  0  0  0  0  0
   36.8870   26.3160   35.3290 F   0  0  0  0  0  0  0  0  0  0  0  0
  1  6  1  0  0  0  0
  1 16  1  0  0  0  0
  2  1  1  0  0  0  0
  3  4  1  0  0  0  0
  3  2  1  0  0  0  0
  4  5  1  0  0  0  0
  5 13  1  0  0  0  0
  5 14  1  0  0  0  0
  5  6  1  0  0  0  0
  6 15  1  1  0  0  0
  7  2  1  0  0  0  0
  8  2  1  0  0  0  0
  9  3  1  0  0  0  0
 10  3  1  0  0  0  0
 11  4  1  0  0  0  0
 12  4  1  0  0  0  0
 16 17  2  0  0  0  0
 16 21  1  0  0  0  0
 17 18  1  0  0  0  0
 18 23  1  0  0  0  0
 18 19  2  0  0  0  0
 20 19  1  0  0  0  0
 20 24  1  0  0  0  0
 21 20  2  0  0  0  0
 22 17  1  0  0  0  0
 25  6  1  0  0  0  0
 25 26  1  0  0  0  0
 26 28  1  0  0  0  0
 27 26  1  0  0  0  0
 29 26  1  0  0  0  0
M  END
>  <minimizedAffinity>
-4.42978525

$$$$

 OpenBabel03272503003D

 29 30  0  0  1  0  0  0  0  0999 V2000
   37.9350   24.7780   34.1530 N   0  0  0  0  0  0  0  0  0  0  0  0
   37.4820   26.1500   34.2260 C   0  0  0  0  0  0  0  0  0  0  0  0
   38.4860   27.1980   34.4070 C   0  0  0  0  0  0  0  0  0  0  0  0
   39.7600   26.8420   35.0590 C   0  0  0  0  0  0  0  0  0  0  0  0
   40.1020   25.3760   35.0150 C   0  0  0  0  0  0  0  0  0  0  0  0
   38.8480   24.5540   35.2590 C   0  0  1  0  0  0  0  0  0  0  0  0
   36.8530   26.3080   33.3220 H   0  0  0  0  0  0  0  0  0  0  0  0
   36.7560   26.1720   35.0840 H   0  0  0  0  0  0  0  0  0  0  0  0
   38.0470   28.0470   34.9780 H   0  0  0  0  0  0  0  0  0  0  0  0
   38.6840   27.6480   33.3880 H   0  0  0  0  0  0  0  0  0  0  0  0
   40.6100   27.3540   34.5290 H   0  0  0  0  0  0  0  0  0  0  0  0
   39.8280   27.2150   36.1070 H   0  0  0  0  0  0  0  0  0  0  0  0
   40.8170   25.1760   35.8550 H   0  0  0  0  0  0  0  0  0  0  0  0
   40.6300   25.0800   34.0940 H   0  0  0  0  0  0  0  0  0  0  0  0
   39.0850   23.4940   35.3990 H   0  0  0  0  0  0  0  0  0  0  0  0
   37.5450   23.8320   33.1680 C   0  0  0  0  0  0  0  0  0  0  0  0
   37.8600   22.4750   33.2150 C   0  0  0  0  0  0  0  0  0  0  0  0
   37.4140   21.6600   32.1810 C   0  0  0  0  0  0  0  0  0  0  0  0
   36.6900   22.2350   31.1760 N   0  0  0  0  0  0  0  0  0  0  0  0
   36.4080   23.5480   31.1680 C   0  0  0  0  0  0  0  0  0  0  0  0
   36.8380   24.3310   32.1630 N   0  0  0  0  0  0  0  0  0  0  0  0
   38.4280   22.1200   34.0380 H   0  0  0  0  0  0  0  0  0  0  0  0
   37.6580   20.6150   32.2190 H   0  0  0  0  0  0  0  0  0  0  0  0
   35.8200   23.9410   30.3250 H   0  0  0  0  0  0  0  0  0  0  0  0
   38.3120   25.0470   36.4560 O   0  0  0  0  0  0  0  0  0  0  0  0
   38.1700   24.0540   37.4040 C   0  0  0  0  0  0  0  0  0  0  0  0
   39.2970   23.2620   37.5140 F   0  0  0  0  0  0  0  0  0  0  0  0
   37.1260   23.2400   36.9530 F   0  0  0  0  0  0  0  0  0  0  0  0
   37.7790   24.6090   38.5930 F   0  0  0  0  0  0  0  0  0  0  0  0
  1  2  1  0  0  0  0
  1  6  1  0  0  0  0
  2  3  1  0  0  0  0
  2  8  1  0  0  0  0
  3  9  1  0  0  0  0
  3  4  1  0  0  0  0
  4 12  1  0  0  0  0
  5  4  1  0  0  0  0
  5  6  1  0  0  0  0
  5 13  1  0  0  0  0
  6 15  1  1  0  0  0
  6 25  1  0  0  0  0
  7  2  1  0  0  0  0
 10  3  1  0  0  0  0
 11  4  1  0  0  0  0
 14  5  1  0  0  0  0
 16 17  1  0  0  0  0
 16  1  1  0  0  0  0
 17 22  1  0  0  0  0
 18 23  1  0  0  0  0
 18 17  2  0  0  0  0
 19 18  1  0  0  0  0
 20 19  2  0  0  0  0
 20 21  1  0  0  0  0
 21 16  2  0  0  0  0
 24 20  1  0  0  0  0
 25 26  1  0  0  0  0
 26 27  1  0  0  0  0
 26 29  1  0  0  0  0
 28 26  1  0  0  0  0
M  END
>  <minimizedAffinity>
-4.39823198

$$$$

 OpenBabel03272503003D

 29 30  0  0  1  0  0  0  0  0999 V2000
   39.5020   26.0590   34.6320 N   0  0  0  0  0  0  0  0  0  0  0  0
   38.5450   25.7950   33.5780 C   0  0  0  0  0  0  0  0  0  0  0  0
   37.4110   26.7070   33.4340 C   0  0  0  0  0  0  0  0  0  0  0  0
   36.9620   27.4580   34.6200 C   0  0  0  0  0  0  0  0  0  0  0  0
   37.9960   27.6010   35.7060 C   0  0  0  0  0  0  0  0  0  0  0  0
   38.7580   26.2950   35.8550 C   0  0  1  0  0  0  0  0  0  0  0  0
   39.1430   25.7010   32.6450 H   0  0  0  0  0  0  0  0  0  0  0  0
   38.1700   24.7550   33.7800 H   0  0  0  0  0  0  0  0  0  0  0  0
   36.5300   26.1530   33.0380 H   0  0  0  0  0  0  0  0  0  0  0  0
   37.6640   27.4220   32.5950 H   0  0  0  0  0  0  0  0  0  0  0  0
   36.7060   28.5120   34.3230 H   0  0  0  0  0  0  0  0  0  0  0  0
   36.0150   27.0590   35.0510 H   0  0  0  0  0  0  0  0  0  0  0  0
   37.4470   27.7950   36.6640 H   0  0  0  0  0  0  0  0  0  0  0  0
   38.6630   28.4660   35.5590 H   0  0  0  0  0  0  0  0  0  0  0  0
   39.4010   26.3070   36.7420 H   0  0  0  0  0  0  0  0  0  0  0  0
   40.9130   26.0790   34.4780 C   0  0  0  0  0  0  0  0  0  0  0  0
   41.7730   25.1140   34.9990 C   0  0  0  0  0  0  0  0  0  0  0  0
   43.1380   25.2570   34.7720 C   0  0  0  0  0  0  0  0  0  0  0  0
   43.5590   26.3370   34.0500 N   0  0  0  0  0  0  0  0  0  0  0  0
   42.6970   27.2460   33.5650 C   0  0  0  0  0  0  0  0  0  0  0  0
   41.3850   27.1060   33.7840 N   0  0  0  0  0  0  0  0  0  0  0  0
   41.3520   24.3100   35.5470 H   0  0  0  0  0  0  0  0  0  0  0  0
   43.7990   24.5130   35.1740 H   0  0  0  0  0  0  0  0  0  0  0  0
   43.1090   28.0900   32.9920 H   0  0  0  0  0  0  0  0  0  0  0  0
   37.7740   25.3140   36.0390 O   0  0  0  0  0  0  0  0  0  0  0  0
   38.0840   24.4620   37.0800 C   0  0  0  0  0  0  0  0  0  0  0  0
   39.2770   23.7950   36.8820 F   0  0  0  0  0  0  0  0  0  0  0  0
   37.0660   23.5030   37.1050 F   0  0  0  0  0  0  0  0  0  0  0  0
   38.0360   25.1490   38.2630 F   0  0  0  0  0  0  0  0  0  0  0  0
  1  6  1  0  0  0  0
  2  8  1  0  0  0  0
  2  1  1  0  0  0  0
  3  2  1  0  0  0  0
  3  4  1  0  0  0  0
  4 12  1  0  0  0  0
  4  5  1  0  0  0  0
  5  6  1  0  0  0  0
  5 13  1  0  0  0  0
  6 25  1  0  0  0  0
  6 15  1  1  0  0  0
  7  2  1  0  0  0  0
  9  3  1  0  0  0  0
 10  3  1  0  0  0  0
 11  4  1  0  0  0  0
 14  5  1  0  0  0  0
 16  1  1  0  0  0  0
 16 17  1  0  0  0  0
 17 22  1  0  0  0  0
 18 17  2  0  0  0  0
 18 23  1  0  0  0  0
 19 18  1  0  0  0  0
 20 21  1  0  0  0  0
 20 19  2  0  0  0  0
 21 16  2  0  0  0  0
 24 20  1  0  0  0  0
 25 26  1  0  0  0  0
 26 28  1  0  0  0  0
 26 29  1  0  0  0  0
 27 26  1  0  0  0  0
M  END
>  <minimizedAffinity>
-4.3859539

$$$$

 OpenBabel03272503003D

 29 30  0  0  1  0  0  0  0  0999 V2000
   37.1810   22.8180   32.2540 N   0  0  0  0  0  0  0  0  0  0  0  0
   38.4440   22.6600   32.9430 C   0  0  0  0  0  0  0  0  0  0  0  0
   39.4260   21.7380   32.3760 C   0  0  0  0  0  0  0  0  0  0  0  0
   38.9420   20.6300   31.5330 C   0  0  0  0  0  0  0  0  0  0  0  0
   37.5770   20.8430   30.9340 C   0  0  0  0  0  0  0  0  0  0  0  0
   36.6670   21.4930   31.9640 C   0  0  1  0  0  0  0  0  0  0  0  0
   38.8450   23.6890   33.0760 H   0  0  0  0  0  0  0  0  0  0  0  0
   38.1690   22.3270   33.9810 H   0  0  0  0  0  0  0  0  0  0  0  0
   40.0390   21.2910   33.1920 H   0  0  0  0  0  0  0  0  0  0  0  0
   40.1760   22.3620   31.8040 H   0  0  0  0  0  0  0  0  0  0  0  0
   39.6280   20.4990   30.6510 H   0  0  0  0  0  0  0  0  0  0  0  0
   38.9760   19.6440   32.0520 H   0  0  0  0  0  0  0  0  0  0  0  0
   37.1590   19.8330   30.6900 H   0  0  0  0  0  0  0  0  0  0  0  0
   37.6020   21.3980   29.9820 H   0  0  0  0  0  0  0  0  0  0  0  0
   35.6260   21.5120   31.6220 H   0  0  0  0  0  0  0  0  0  0  0  0
   36.5690   24.0580   31.9290 C   0  0  0  0  0  0  0  0  0  0  0  0
   35.4610   24.1890   31.0940 C   0  0  0  0  0  0  0  0  0  0  0  0
   34.9620   25.4660   30.8590 C   0  0  0  0  0  0  0  0  0  0  0  0
   35.5860   26.5200   31.4620 N   0  0  0  0  0  0  0  0  0  0  0  0
   36.6530   26.3510   32.2600 C   0  0  0  0  0  0  0  0  0  0  0  0
   37.1310   25.1220   32.4840 N   0  0  0  0  0  0  0  0  0  0  0  0
   35.0430   23.3110   30.6710 H   0  0  0  0  0  0  0  0  0  0  0  0
   34.1080   25.5660   30.2160 H   0  0  0  0  0  0  0  0  0  0  0  0
   37.1050   27.2470   32.7110 H   0  0  0  0  0  0  0  0  0  0  0  0
   36.7440   20.6680   33.0940 O   0  0  0  0  0  0  0  0  0  0  0  0
   35.4950   20.2730   33.5290 C   0  0  0  0  0  0  0  0  0  0  0  0
   35.2670   20.5980   34.8520 F   0  0  0  0  0  0  0  0  0  0  0  0
   35.4800   18.8770   33.4300 F   0  0  0  0  0  0  0  0  0  0  0  0
   34.5390   20.7590   32.6790 F   0  0  0  0  0  0  0  0  0  0  0  0
  1  2  1  0  0  0  0
  2  7  1  0  0  0  0
  2  8  1  0  0  0  0
  3  2  1  0  0  0  0
  3  9  1  0  0  0  0
  4 12  1  0  0  0  0
  4  3  1  0  0  0  0
  5  4  1  0  0  0  0
  5  6  1  0  0  0  0
  6 15  1  6  0  0  0
  6  1  1  0  0  0  0
  6 25  1  0  0  0  0
 10  3  1  0  0  0  0
 11  4  1  0  0  0  0
 13  5  1  0  0  0  0
 14  5  1  0  0  0  0
 16  1  1  0  0  0  0
 16 21  1  0  0  0  0
 17 16  2  0  0  0  0
 18 17  1  0  0  0  0
 18 19  2  0  0  0  0
 19 20  1  0  0  0  0
 20 21  2  0  0  0  0
 20 24  1  0  0  0  0
 22 17  1  0  0  0  0
 23 18  1  0  0  0  0
 25 26  1  0  0  0  0
 26 27  1  0  0  0  0
 28 26  1  0  0  0  0
 29 26  1  0  0  0  0
M  END
>  <minimizedAffinity>
-4.36634636

$$$$
