
 OpenBabel03272507163D

 21 22  0  0  1  0  0  0  0  0999 V2000
   36.8050   30.9900   50.5880 C   0  0  1  0  0  0  0  0  0  0  0  0
   36.1470   29.7040   50.5620 C   0  0  2  0  0  0  0  0  0  0  0  0
   37.5190   29.7800   51.2020 C   0  0  0  0  0  0  0  0  0  0  0  0
   36.5270   31.7820   51.3220 H   0  0  0  0  0  0  0  0  0  0  0  0
   35.2730   29.5180   51.2090 H   0  0  0  0  0  0  0  0  0  0  0  0
   38.4030   29.3730   50.7010 H   0  0  0  0  0  0  0  0  0  0  0  0
   37.5040   29.7200   52.2930 H   0  0  0  0  0  0  0  0  0  0  0  0
   37.5210   31.5300   49.3800 C   0  0  0  0  0  0  0  0  0  0  0  0
   38.3730   32.6100   49.6080 C   0  0  0  0  0  0  0  0  0  0  0  0
   39.0120   33.1260   48.4690 C   0  0  0  0  0  0  0  0  0  0  0  0
   38.7740   32.5640   47.2370 N   0  0  0  0  0  0  0  0  0  0  0  0
   37.9320   31.5110   47.0760 C   0  0  0  0  0  0  0  0  0  0  0  0
   37.2990   30.9890   48.1640 N   0  0  0  0  0  0  0  0  0  0  0  0
   38.5290   33.0190   50.5980 H   0  0  0  0  0  0  0  0  0  0  0  0
   39.6860   33.9630   48.5720 H   0  0  0  0  0  0  0  0  0  0  0  0
   37.8070   31.1340   46.0710 H   0  0  0  0  0  0  0  0  0  0  0  0
   36.1110   28.9760   49.3610 O   0  0  0  0  0  0  0  0  0  0  0  0
   34.7780   28.8350   48.9440 C   0  0  0  0  0  0  0  0  0  0  0  0
   34.7940   28.1550   47.7330 F   0  0  0  0  0  0  0  0  0  0  0  0
   34.0900   28.1150   49.8860 F   0  0  0  0  0  0  0  0  0  0  0  0
   34.1910   30.0840   48.7430 F   0  0  0  0  0  0  0  0  0  0  0  0
  1  3  1  0  0  0  0
  1  4  1  1  0  0  0
  2  1  1  0  0  0  0
  2  3  1  0  0  0  0
  2  5  1  1  0  0  0
  3  7  1  0  0  0  0
  6  3  1  0  0  0  0
  8  9  1  0  0  0  0
  8  1  1  0  0  0  0
  9 14  1  0  0  0  0
 10 15  1  0  0  0  0
 10  9  2  0  0  0  0
 11 10  1  0  0  0  0
 12 11  2  0  0  0  0
 12 13  1  0  0  0  0
 13  8  2  0  0  0  0
 16 12  1  0  0  0  0
 17  2  1  0  0  0  0
 18 17  1  0  0  0  0
 18 20  1  0  0  0  0
 19 18  1  0  0  0  0
 21 18  1  0  0  0  0
M  END
>  <minimizedAffinity>
-4.8189435

>  <minimizedRMSD>
0.965540588

$$$$
