
 OpenBabel03272510243D

 27 29  0  0  0  0  0  0  0  0999 V2000
   34.3450   29.2020   45.7000 C   0  0  0  0  0  0  0  0  0  0  0  0
   33.9670   29.0950   47.0230 C   0  0  0  0  0  0  0  0  0  0  0  0
   34.7090   29.6930   48.0150 C   0  0  0  0  0  0  0  0  0  0  0  0
   35.8450   30.4000   47.6280 C   0  0  0  0  0  0  0  0  0  0  0  0
   36.7330   31.0730   48.4220 N   0  0  0  0  0  0  0  0  0  0  0  0
   37.6460   31.5870   47.6030 C   0  0  0  0  0  0  0  0  0  0  0  0
   37.3950   31.2840   46.3390 N   0  0  0  0  0  0  0  0  0  0  0  0
   36.2590   30.5320   46.3170 C   0  0  0  0  0  0  0  0  0  0  0  0
   35.4860   29.9150   45.3340 C   0  0  0  0  0  0  0  0  0  0  0  0
   33.7890   28.7460   44.8810 H   0  0  0  0  0  0  0  0  0  0  0  0
   34.4150   29.6100   49.0500 H   0  0  0  0  0  0  0  0  0  0  0  0
   36.6610   31.1400   49.4740 H   0  0  0  0  0  0  0  0  0  0  0  0
   35.8020   30.0120   44.3090 H   0  0  0  0  0  0  0  0  0  0  0  0
   31.5080   26.5560   48.3070 C   0  0  0  0  0  0  0  0  0  0  0  0
   32.7280   27.1910   48.1020 C   0  0  0  0  0  0  0  0  0  0  0  0
   32.7650   28.3330   47.3180 C   0  0  0  0  0  0  0  0  0  0  0  0
   31.5820   28.7830   46.7800 N   0  0  0  0  0  0  0  0  0  0  0  0
   30.4040   28.1440   46.9950 C   0  0  0  0  0  0  0  0  0  0  0  0
   30.3740   27.0490   47.7480 N   0  0  0  0  0  0  0  0  0  0  0  0
   31.4500   25.6620   48.9140 H   0  0  0  0  0  0  0  0  0  0  0  0
   33.6440   26.8380   48.5230 H   0  0  0  0  0  0  0  0  0  0  0  0
   29.5650   28.6220   46.5030 H   0  0  0  0  0  0  0  0  0  0  0  0
   38.7150   32.3440   48.0810 O   0  0  0  0  0  0  0  0  0  0  0  0
   38.7090   33.0040   49.3090 C   0  0  0  0  0  0  0  0  0  0  0  0
   39.7320   33.9350   49.3270 F   0  0  0  0  0  0  0  0  0  0  0  0
   38.9610   32.1290   50.3620 F   0  0  0  0  0  0  0  0  0  0  0  0
   37.4730   33.6010   49.4760 F   0  0  0  0  0  0  0  0  0  0  0  0
  1  2  1  0  0  0  0
  2 16  1  0  0  0  0
  2  3  2  0  0  0  0
  3 11  1  0  0  0  0
  4  3  1  0  0  0  0
  4  5  1  0  0  0  0
  5 12  1  0  0  0  0
  6 23  1  0  0  0  0
  6  5  1  0  0  0  0
  7  6  2  0  0  0  0
  8  7  1  0  0  0  0
  8  4  2  0  0  0  0
  9  1  2  0  0  0  0
  9  8  1  0  0  0  0
 10  1  1  0  0  0  0
 13  9  1  0  0  0  0
 14 20  1  0  0  0  0
 15 14  1  0  0  0  0
 15 21  1  0  0  0  0
 16 15  2  0  0  0  0
 17 18  2  0  0  0  0
 17 16  1  0  0  0  0
 18 19  1  0  0  0  0
 19 14  2  0  0  0  0
 22 18  1  0  0  0  0
 23 24  1  0  0  0  0
 24 25  1  0  0  0  0
 24 27  1  0  0  0  0
 24 26  1  0  0  0  0
M  END
>  <minimizedAffinity>
-5.46776819

>  <minimizedRMSD>
5.19300699

$$$$
