
 OpenBabel03272510243D

 27 29  0  0  0  0  0  0  0  0999 V2000
   34.7620   29.5640   46.2480 C   0  0  0  0  0  0  0  0  0  0  0  0
   34.2160   29.3390   47.4950 C   0  0  0  0  0  0  0  0  0  0  0  0
   34.8380   29.8110   48.6290 C   0  0  0  0  0  0  0  0  0  0  0  0
   36.0280   30.5150   48.4600 C   0  0  0  0  0  0  0  0  0  0  0  0
   36.8210   31.0760   49.4240 N   0  0  0  0  0  0  0  0  0  0  0  0
   37.8410   31.6380   48.7810 C   0  0  0  0  0  0  0  0  0  0  0  0
   37.7460   31.4710   47.4720 N   0  0  0  0  0  0  0  0  0  0  0  0
   36.6080   30.7630   47.2310 C   0  0  0  0  0  0  0  0  0  0  0  0
   35.9540   30.2720   46.1020 C   0  0  0  0  0  0  0  0  0  0  0  0
   34.3060   29.2090   45.3230 H   0  0  0  0  0  0  0  0  0  0  0  0
   34.4130   29.6360   49.6050 H   0  0  0  0  0  0  0  0  0  0  0  0
   36.6170   31.0410   50.4590 H   0  0  0  0  0  0  0  0  0  0  0  0
   36.4000   30.4590   45.1390 H   0  0  0  0  0  0  0  0  0  0  0  0
   31.4640   26.9540   48.4310 C   0  0  0  0  0  0  0  0  0  0  0  0
   32.6990   27.5920   48.4790 C   0  0  0  0  0  0  0  0  0  0  0  0
   32.9710   28.5910   47.5590 C   0  0  0  0  0  0  0  0  0  0  0  0
   31.9980   28.9030   46.6400 N   0  0  0  0  0  0  0  0  0  0  0  0
   30.8000   28.2640   46.6140 C   0  0  0  0  0  0  0  0  0  0  0  0
   30.5440   27.3070   47.4990 N   0  0  0  0  0  0  0  0  0  0  0  0
   31.2240   26.1690   49.1370 H   0  0  0  0  0  0  0  0  0  0  0  0
   33.4520   27.3460   49.1950 H   0  0  0  0  0  0  0  0  0  0  0  0
   30.1430   28.6240   45.8320 H   0  0  0  0  0  0  0  0  0  0  0  0
   38.8560   32.3100   49.4640 O   0  0  0  0  0  0  0  0  0  0  0  0
   39.0990   33.6770   49.3390 C   0  0  0  0  0  0  0  0  0  0  0  0
   37.8920   34.3420   49.2230 F   0  0  0  0  0  0  0  0  0  0  0  0
   39.8150   33.9660   48.1810 F   0  0  0  0  0  0  0  0  0  0  0  0
   39.8070   34.0960   50.4500 F   0  0  0  0  0  0  0  0  0  0  0  0
  1  2  1  0  0  0  0
  2 16  1  0  0  0  0
  2  3  2  0  0  0  0
  3 11  1  0  0  0  0
  4  3  1  0  0  0  0
  4  5  1  0  0  0  0
  5 12  1  0  0  0  0
  6  5  1  0  0  0  0
  6 23  1  0  0  0  0
  7  6  2  0  0  0  0
  8  7  1  0  0  0  0
  8  4  2  0  0  0  0
  9  1  2  0  0  0  0
  9  8  1  0  0  0  0
 10  1  1  0  0  0  0
 13  9  1  0  0  0  0
 14 15  1  0  0  0  0
 14 20  1  0  0  0  0
 15 21  1  0  0  0  0
 16 15  2  0  0  0  0
 17 16  1  0  0  0  0
 18 17  2  0  0  0  0
 18 19  1  0  0  0  0
 19 14  2  0  0  0  0
 22 18  1  0  0  0  0
 24 23  1  0  0  0  0
 24 27  1  0  0  0  0
 25 24  1  0  0  0  0
 26 24  1  0  0  0  0
M  END
>  <minimizedAffinity>
-5.62761641

>  <minimizedRMSD>
5.05296707

$$$$
