
 OpenBabel03272500563D

 28 29  0  0  0  0  0  0  0  0999 V2000
   38.7800   25.7090   33.1600 C   0  0  0  0  0  0  0  0  0  0  0  0
   39.6500   26.2860   32.2560 C   0  0  0  0  0  0  0  0  0  0  0  0
   40.7260   27.0720   32.6660 C   0  0  0  0  0  0  0  0  0  0  0  0
   40.9190   27.2740   34.0780 C   0  0  0  0  0  0  0  0  0  0  0  0
   40.0280   26.6790   34.9270 C   0  0  0  0  0  0  0  0  0  0  0  0
   38.9930   25.9280   34.5190 C   0  0  0  0  0  0  0  0  0  0  0  0
   39.5180   26.1410   31.1810 H   0  0  0  0  0  0  0  0  0  0  0  0
   41.3650   27.4910   31.8700 H   0  0  0  0  0  0  0  0  0  0  0  0
   41.7880   27.8990   34.1970 H   0  0  0  0  0  0  0  0  0  0  0  0
   40.4260   26.9470   35.8830 H   0  0  0  0  0  0  0  0  0  0  0  0
   36.5840   25.5630   32.1080 C   0  0  0  0  0  0  0  0  0  0  0  0
   37.7380   24.8930   32.5830 C   0  0  0  0  0  0  0  0  0  0  0  0
   37.7360   23.5180   32.4390 C   0  0  0  0  0  0  0  0  0  0  0  0
   36.6770   22.9060   31.8760 N   0  0  0  0  0  0  0  0  0  0  0  0
   35.6010   23.5410   31.4330 C   0  0  0  0  0  0  0  0  0  0  0  0
   35.5640   24.8780   31.5550 N   0  0  0  0  0  0  0  0  0  0  0  0
   36.4670   26.6400   32.1650 H   0  0  0  0  0  0  0  0  0  0  0  0
   38.6200   23.0080   32.8030 H   0  0  0  0  0  0  0  0  0  0  0  0
   34.7480   23.0560   30.9800 H   0  0  0  0  0  0  0  0  0  0  0  0
   38.6230   24.1400   35.9920 C   0  0  0  0  0  0  0  0  0  0  0  0
   39.7860   23.7100   35.6270 O   0  0  0  0  0  0  0  0  0  0  0  0
   38.0990   25.3690   35.4110 N   0  0  0  0  0  0  0  0  0  0  0  0
   37.1680   25.7450   35.6560 H   0  0  0  0  0  0  0  0  0  0  0  0
   37.8360   23.4470   36.9480 O   0  0  0  0  0  0  0  0  0  0  0  0
   38.1170   23.6400   38.3250 C   0  0  0  0  0  0  0  0  0  0  0  0
   37.2770   22.7620   39.0120 F   0  0  0  0  0  0  0  0  0  0  0  0
   39.4170   23.2200   38.6260 F   0  0  0  0  0  0  0  0  0  0  0  0
   37.9210   24.9240   38.7470 F   0  0  0  0  0  0  0  0  0  0  0  0
  1  6  1  0  0  0  0
  2  3  1  0  0  0  0
  2  1  2  0  0  0  0
  3  4  2  0  0  0  0
  4  9  1  0  0  0  0
  4  5  1  0  0  0  0
  5 10  1  0  0  0  0
  6  5  2  0  0  0  0
  6 22  1  0  0  0  0
  7  2  1  0  0  0  0
  8  3  1  0  0  0  0
 11 17  1  0  0  0  0
 11 12  1  0  0  0  0
 12  1  1  0  0  0  0
 13 12  2  0  0  0  0
 13 18  1  0  0  0  0
 14 13  1  0  0  0  0
 15 16  1  0  0  0  0
 15 14  2  0  0  0  0
 16 11  2  0  0  0  0
 19 15  1  0  0  0  0
 20 24  1  0  0  0  0
 21 20  2  0  0  0  0
 22 23  1  0  0  0  0
 22 20  1  0  0  0  0
 24 25  1  0  0  0  0
 25 27  1  0  0  0  0
 25 28  1  0  0  0  0
 25 26  1  0  0  0  0
M  END
>  <minimizedAffinity>
-5.30165291

$$$$

 OpenBabel03272500563D

 28 29  0  0  0  0  0  0  0  0999 V2000
   39.2570   26.7430   32.9760 C   0  0  0  0  0  0  0  0  0  0  0  0
   40.2250   27.2270   32.1190 C   0  0  0  0  0  0  0  0  0  0  0  0
   41.5450   27.4160   32.5270 C   0  0  0  0  0  0  0  0  0  0  0  0
   41.8870   27.0900   33.8860 C   0  0  0  0  0  0  0  0  0  0  0  0
   40.8900   26.6150   34.6900 C   0  0  0  0  0  0  0  0  0  0  0  0
   39.6220   26.4410   34.2860 C   0  0  0  0  0  0  0  0  0  0  0  0
   39.9820   27.4780   31.0830 H   0  0  0  0  0  0  0  0  0  0  0  0
   42.2460   27.8080   31.7710 H   0  0  0  0  0  0  0  0  0  0  0  0
   42.9360   27.3000   34.0130 H   0  0  0  0  0  0  0  0  0  0  0  0
   41.4180   26.4150   35.5990 H   0  0  0  0  0  0  0  0  0  0  0  0
   37.6770   25.3200   31.7810 C   0  0  0  0  0  0  0  0  0  0  0  0
   37.9470   26.5670   32.3950 C   0  0  0  0  0  0  0  0  0  0  0  0
   36.9150   27.4860   32.3670 C   0  0  0  0  0  0  0  0  0  0  0  0
   35.7470   27.1620   31.7800 N   0  0  0  0  0  0  0  0  0  0  0  0
   35.5030   25.9910   31.2080 C   0  0  0  0  0  0  0  0  0  0  0  0
   36.4810   25.0710   31.2140 N   0  0  0  0  0  0  0  0  0  0  0  0
   38.4080   24.5180   31.7380 H   0  0  0  0  0  0  0  0  0  0  0  0
   37.1230   28.4390   32.8370 H   0  0  0  0  0  0  0  0  0  0  0  0
   34.5680   25.7250   30.7350 H   0  0  0  0  0  0  0  0  0  0  0  0
   38.7100   24.5400   35.3170 C   0  0  0  0  0  0  0  0  0  0  0  0
   39.6140   23.8680   34.6840 O   0  0  0  0  0  0  0  0  0  0  0  0
   38.6380   25.9850   35.1410 N   0  0  0  0  0  0  0  0  0  0  0  0
   37.9220   26.5650   35.6110 H   0  0  0  0  0  0  0  0  0  0  0  0
   37.7810   23.9100   36.1830 O   0  0  0  0  0  0  0  0  0  0  0  0
   38.0910   23.8270   37.5650 C   0  0  0  0  0  0  0  0  0  0  0  0
   39.4400   23.4700   37.6320 F   0  0  0  0  0  0  0  0  0  0  0  0
   38.0140   25.0890   38.1640 F   0  0  0  0  0  0  0  0  0  0  0  0
   37.3200   22.9290   38.2450 F   0  0  0  0  0  0  0  0  0  0  0  0
  1  6  1  0  0  0  0
  2  3  1  0  0  0  0
  2  1  2  0  0  0  0
  3  4  2  0  0  0  0
  4  9  1  0  0  0  0
  4  5  1  0  0  0  0
  5 10  1  0  0  0  0
  6  5  2  0  0  0  0
  6 22  1  0  0  0  0
  7  2  1  0  0  0  0
  8  3  1  0  0  0  0
 11 12  1  0  0  0  0
 12  1  1  0  0  0  0
 13 12  2  0  0  0  0
 13 18  1  0  0  0  0
 14 13  1  0  0  0  0
 15 16  1  0  0  0  0
 15 14  2  0  0  0  0
 16 11  2  0  0  0  0
 17 11  1  0  0  0  0
 19 15  1  0  0  0  0
 20 24  1  0  0  0  0
 21 20  2  0  0  0  0
 22 20  1  0  0  0  0
 22 23  1  0  0  0  0
 24 25  1  0  0  0  0
 25 26  1  0  0  0  0
 25 27  1  0  0  0  0
 25 28  1  0  0  0  0
M  END
>  <minimizedAffinity>
-4.90247631

$$$$

 OpenBabel03272500563D

 28 29  0  0  0  0  0  0  0  0999 V2000
   37.9980   25.7270   33.7070 C   0  0  0  0  0  0  0  0  0  0  0  0
   37.1030   26.7590   33.5000 C   0  0  0  0  0  0  0  0  0  0  0  0
   36.9630   27.8080   34.4060 C   0  0  0  0  0  0  0  0  0  0  0  0
   37.7870   27.8000   35.5860 C   0  0  0  0  0  0  0  0  0  0  0  0
   38.6550   26.7560   35.7400 C   0  0  0  0  0  0  0  0  0  0  0  0
   38.7770   25.7480   34.8620 C   0  0  0  0  0  0  0  0  0  0  0  0
   36.4710   26.7810   32.6080 H   0  0  0  0  0  0  0  0  0  0  0  0
   36.2210   28.5860   34.1540 H   0  0  0  0  0  0  0  0  0  0  0  0
   37.5400   28.6790   36.1570 H   0  0  0  0  0  0  0  0  0  0  0  0
   39.1580   27.0220   36.6460 H   0  0  0  0  0  0  0  0  0  0  0  0
   38.9040   25.0030   31.5610 C   0  0  0  0  0  0  0  0  0  0  0  0
   38.0520   24.7350   32.6610 C   0  0  0  0  0  0  0  0  0  0  0  0
   37.3610   23.5390   32.6060 C   0  0  0  0  0  0  0  0  0  0  0  0
   37.5250   22.7190   31.5500 N   0  0  0  0  0  0  0  0  0  0  0  0
   38.3250   22.9790   30.5260 C   0  0  0  0  0  0  0  0  0  0  0  0
   39.0150   24.1310   30.5410 N   0  0  0  0  0  0  0  0  0  0  0  0
   39.4980   25.9090   31.4890 H   0  0  0  0  0  0  0  0  0  0  0  0
   36.7100   23.3350   33.4470 H   0  0  0  0  0  0  0  0  0  0  0  0
   38.4620   22.3260   29.6750 H   0  0  0  0  0  0  0  0  0  0  0  0
   39.0730   23.6980   35.9640 C   0  0  0  0  0  0  0  0  0  0  0  0
   37.8940   23.8890   36.4560 O   0  0  0  0  0  0  0  0  0  0  0  0
   39.6470   24.6960   35.0710 N   0  0  0  0  0  0  0  0  0  0  0  0
   40.5930   24.5980   34.6660 H   0  0  0  0  0  0  0  0  0  0  0  0
   39.8300   22.5380   36.2680 O   0  0  0  0  0  0  0  0  0  0  0  0
   40.6890   22.5650   37.3970 C   0  0  0  0  0  0  0  0  0  0  0  0
   41.0400   21.2360   37.6420 F   0  0  0  0  0  0  0  0  0  0  0  0
   41.8890   23.2130   37.0870 F   0  0  0  0  0  0  0  0  0  0  0  0
   40.1170   23.1240   38.5040 F   0  0  0  0  0  0  0  0  0  0  0  0
  1  6  1  0  0  0  0
  2  1  2  0  0  0  0
  2  3  1  0  0  0  0
  3  4  2  0  0  0  0
  4  5  1  0  0  0  0
  4  9  1  0  0  0  0
  5 10  1  0  0  0  0
  6 22  1  0  0  0  0
  6  5  2  0  0  0  0
  7  2  1  0  0  0  0
  8  3  1  0  0  0  0
 11 12  1  0  0  0  0
 12  1  1  0  0  0  0
 13 12  2  0  0  0  0
 13 18  1  0  0  0  0
 14 13  1  0  0  0  0
 15 16  1  0  0  0  0
 15 14  2  0  0  0  0
 16 11  2  0  0  0  0
 17 11  1  0  0  0  0
 19 15  1  0  0  0  0
 20 24  1  0  0  0  0
 20 21  2  0  0  0  0
 22 20  1  0  0  0  0
 23 22  1  0  0  0  0
 24 25  1  0  0  0  0
 25 26  1  0  0  0  0
 25 28  1  0  0  0  0
 27 25  1  0  0  0  0
M  END
>  <minimizedAffinity>
-4.83812761

$$$$

 OpenBabel03272500563D

 28 29  0  0  0  0  0  0  0  0999 V2000
   39.5340   25.6720   34.6390 C   0  0  0  0  0  0  0  0  0  0  0  0
   40.7350   26.3340   34.8030 C   0  0  0  0  0  0  0  0  0  0  0  0
   41.2750   27.1410   33.8040 C   0  0  0  0  0  0  0  0  0  0  0  0
   40.5440   27.2770   32.5730 C   0  0  0  0  0  0  0  0  0  0  0  0
   39.3620   26.6010   32.4640 C   0  0  0  0  0  0  0  0  0  0  0  0
   38.8530   25.8220   33.4320 C   0  0  0  0  0  0  0  0  0  0  0  0
   41.3010   26.2420   35.7340 H   0  0  0  0  0  0  0  0  0  0  0  0
   42.2400   27.6280   34.0280 H   0  0  0  0  0  0  0  0  0  0  0  0
   41.1120   27.9310   31.9310 H   0  0  0  0  0  0  0  0  0  0  0  0
   39.0200   26.9110   31.4990 H   0  0  0  0  0  0  0  0  0  0  0  0
   39.6630   23.6230   35.9560 C   0  0  0  0  0  0  0  0  0  0  0  0
   39.0880   24.9050   35.7770 C   0  0  0  0  0  0  0  0  0  0  0  0
   38.1520   25.2800   36.7230 C   0  0  0  0  0  0  0  0  0  0  0  0
   37.8460   24.4400   37.7310 N   0  0  0  0  0  0  0  0  0  0  0  0
   38.3910   23.2430   37.8910 C   0  0  0  0  0  0  0  0  0  0  0  0
   39.3040   22.8410   36.9930 N   0  0  0  0  0  0  0  0  0  0  0  0
   40.4080   23.2170   35.2800 H   0  0  0  0  0  0  0  0  0  0  0  0
   37.7130   26.2600   36.5850 H   0  0  0  0  0  0  0  0  0  0  0  0
   38.1500   22.5640   38.6970 H   0  0  0  0  0  0  0  0  0  0  0  0
   37.8820   23.8490   32.6120 C   0  0  0  0  0  0  0  0  0  0  0  0
   39.0770   23.5130   32.2520 O   0  0  0  0  0  0  0  0  0  0  0  0
   37.6680   25.1330   33.2700 N   0  0  0  0  0  0  0  0  0  0  0  0
   36.7310   25.4560   33.5620 H   0  0  0  0  0  0  0  0  0  0  0  0
   36.7680   23.0030   32.3870 O   0  0  0  0  0  0  0  0  0  0  0  0
   35.8590   23.3390   31.3510 C   0  0  0  0  0  0  0  0  0  0  0  0
   36.6190   23.9860   30.3730 F   0  0  0  0  0  0  0  0  0  0  0  0
   35.3680   22.1840   30.7320 F   0  0  0  0  0  0  0  0  0  0  0  0
   34.8290   24.1340   31.7640 F   0  0  0  0  0  0  0  0  0  0  0  0
  1  2  1  0  0  0  0
  1 12  1  0  0  0  0
  2  7  1  0  0  0  0
  3  8  1  0  0  0  0
  3  2  2  0  0  0  0
  4  3  1  0  0  0  0
  5  4  2  0  0  0  0
  5  6  1  0  0  0  0
  6  1  2  0  0  0  0
  9  4  1  0  0  0  0
 10  5  1  0  0  0  0
 11 16  1  0  0  0  0
 12 11  2  0  0  0  0
 12 13  1  0  0  0  0
 13 14  2  0  0  0  0
 14 15  1  0  0  0  0
 15 19  1  0  0  0  0
 16 15  2  0  0  0  0
 17 11  1  0  0  0  0
 18 13  1  0  0  0  0
 20 22  1  0  0  0  0
 21 20  2  0  0  0  0
 22  6  1  0  0  0  0
 22 23  1  0  0  0  0
 24 20  1  0  0  0  0
 25 28  1  0  0  0  0
 25 24  1  0  0  0  0
 26 25  1  0  0  0  0
 27 25  1  0  0  0  0
M  END
>  <minimizedAffinity>
-4.83716488

$$$$

 OpenBabel03272500563D

 28 29  0  0  0  0  0  0  0  0999 V2000
   39.0640   26.9330   33.3300 C   0  0  0  0  0  0  0  0  0  0  0  0
   38.4450   27.5260   32.2470 C   0  0  0  0  0  0  0  0  0  0  0  0
   37.1520   28.0410   32.3270 C   0  0  0  0  0  0  0  0  0  0  0  0
   36.4600   27.9430   33.5840 C   0  0  0  0  0  0  0  0  0  0  0  0
   37.1190   27.3470   34.6220 C   0  0  0  0  0  0  0  0  0  0  0  0
   38.3630   26.8510   34.5310 C   0  0  0  0  0  0  0  0  0  0  0  0
   38.9580   27.6100   31.2860 H   0  0  0  0  0  0  0  0  0  0  0  0
   36.7420   28.4950   31.4080 H   0  0  0  0  0  0  0  0  0  0  0  0
   35.4870   28.3880   33.4520 H   0  0  0  0  0  0  0  0  0  0  0  0
   36.4130   27.4510   35.4190 H   0  0  0  0  0  0  0  0  0  0  0  0
   41.4560   27.4090   33.3600 C   0  0  0  0  0  0  0  0  0  0  0  0
   40.4160   26.4830   33.1010 C   0  0  0  0  0  0  0  0  0  0  0  0
   40.8180   25.2400   32.6500 C   0  0  0  0  0  0  0  0  0  0  0  0
   42.1300   24.9790   32.4880 N   0  0  0  0  0  0  0  0  0  0  0  0
   43.0960   25.8520   32.7340 C   0  0  0  0  0  0  0  0  0  0  0  0
   42.7470   27.0720   33.1730 N   0  0  0  0  0  0  0  0  0  0  0  0
   41.2670   28.4170   33.7170 H   0  0  0  0  0  0  0  0  0  0  0  0
   40.0210   24.5330   32.4520 H   0  0  0  0  0  0  0  0  0  0  0  0
   44.1500   25.6500   32.6050 H   0  0  0  0  0  0  0  0  0  0  0  0
   38.6440   24.8140   35.6620 C   0  0  0  0  0  0  0  0  0  0  0  0
   37.8360   24.3140   34.7860 O   0  0  0  0  0  0  0  0  0  0  0  0
   38.9830   26.2300   35.5980 N   0  0  0  0  0  0  0  0  0  0  0  0
   39.6100   26.6820   36.2850 H   0  0  0  0  0  0  0  0  0  0  0  0
   39.2150   24.0210   36.6900 O   0  0  0  0  0  0  0  0  0  0  0  0
   38.4560   23.7830   37.8640 C   0  0  0  0  0  0  0  0  0  0  0  0
   37.9330   25.0230   38.2380 F   0  0  0  0  0  0  0  0  0  0  0  0
   37.3430   22.9850   37.5770 F   0  0  0  0  0  0  0  0  0  0  0  0
   39.1820   23.2390   38.8840 F   0  0  0  0  0  0  0  0  0  0  0  0
  1  6  1  0  0  0  0
  2  3  1  0  0  0  0
  2  1  2  0  0  0  0
  3  4  2  0  0  0  0
  4  5  1  0  0  0  0
  5 10  1  0  0  0  0
  6  5  2  0  0  0  0
  6 22  1  0  0  0  0
  7  2  1  0  0  0  0
  8  3  1  0  0  0  0
  9  4  1  0  0  0  0
 11 17  1  0  0  0  0
 12  1  1  0  0  0  0
 12 11  2  0  0  0  0
 13 12  1  0  0  0  0
 14 13  2  0  0  0  0
 14 15  1  0  0  0  0
 15 16  2  0  0  0  0
 16 11  1  0  0  0  0
 18 13  1  0  0  0  0
 19 15  1  0  0  0  0
 20 24  1  0  0  0  0
 21 20  2  0  0  0  0
 22 20  1  0  0  0  0
 22 23  1  0  0  0  0
 24 25  1  0  0  0  0
 25 26  1  0  0  0  0
 25 28  1  0  0  0  0
 27 25  1  0  0  0  0
M  END
>  <minimizedAffinity>
-4.63896227

$$$$

 OpenBabel03272500563D

 28 29  0  0  0  0  0  0  0  0999 V2000
   39.4160   25.6260   34.5670 C   0  0  0  0  0  0  0  0  0  0  0  0
   40.5730   26.3740   34.6660 C   0  0  0  0  0  0  0  0  0  0  0  0
   41.0250   27.1770   33.6200 C   0  0  0  0  0  0  0  0  0  0  0  0
   40.2470   27.2150   32.4100 C   0  0  0  0  0  0  0  0  0  0  0  0
   39.1120   26.4550   32.3660 C   0  0  0  0  0  0  0  0  0  0  0  0
   38.6900   25.6820   33.3790 C   0  0  0  0  0  0  0  0  0  0  0  0
   41.1730   26.3580   35.5790 H   0  0  0  0  0  0  0  0  0  0  0  0
   41.9600   27.7370   33.7940 H   0  0  0  0  0  0  0  0  0  0  0  0
   40.7480   27.8810   31.7260 H   0  0  0  0  0  0  0  0  0  0  0  0
   38.7200   26.7040   31.4020 H   0  0  0  0  0  0  0  0  0  0  0  0
   39.7710   23.6720   35.9840 C   0  0  0  0  0  0  0  0  0  0  0  0
   39.0610   24.8750   35.7470 C   0  0  0  0  0  0  0  0  0  0  0  0
   38.0950   25.1960   36.6830 C   0  0  0  0  0  0  0  0  0  0  0  0
   37.8860   24.3820   37.7350 N   0  0  0  0  0  0  0  0  0  0  0  0
   38.5560   23.2580   37.9490 C   0  0  0  0  0  0  0  0  0  0  0  0
   39.5030   22.9100   37.0620 N   0  0  0  0  0  0  0  0  0  0  0  0
   40.5510   23.3130   35.3210 H   0  0  0  0  0  0  0  0  0  0  0  0
   37.5540   26.1160   36.5000 H   0  0  0  0  0  0  0  0  0  0  0  0
   38.3930   22.6000   38.7900 H   0  0  0  0  0  0  0  0  0  0  0  0
   37.8380   23.6070   32.6890 C   0  0  0  0  0  0  0  0  0  0  0  0
   39.0460   23.3310   32.3180 O   0  0  0  0  0  0  0  0  0  0  0  0
   37.5510   24.9070   33.2820 N   0  0  0  0  0  0  0  0  0  0  0  0
   36.6000   25.1830   33.5790 H   0  0  0  0  0  0  0  0  0  0  0  0
   36.7790   22.6770   32.5370 O   0  0  0  0  0  0  0  0  0  0  0  0
   36.7650   21.5240   33.3630 C   0  0  0  0  0  0  0  0  0  0  0  0
   37.2700   21.9350   34.5990 F   0  0  0  0  0  0  0  0  0  0  0  0
   35.4520   21.1160   33.6180 F   0  0  0  0  0  0  0  0  0  0  0  0
   37.4980   20.4860   32.8650 F   0  0  0  0  0  0  0  0  0  0  0  0
  1  2  1  0  0  0  0
  1 12  1  0  0  0  0
  2  7  1  0  0  0  0
  3  8  1  0  0  0  0
  3  2  2  0  0  0  0
  4  3  1  0  0  0  0
  5  4  2  0  0  0  0
  5  6  1  0  0  0  0
  6  1  2  0  0  0  0
  9  4  1  0  0  0  0
 10  5  1  0  0  0  0
 11 16  1  0  0  0  0
 12 11  2  0  0  0  0
 12 13  1  0  0  0  0
 13 14  2  0  0  0  0
 14 15  1  0  0  0  0
 15 19  1  0  0  0  0
 16 15  2  0  0  0  0
 17 11  1  0  0  0  0
 18 13  1  0  0  0  0
 20 22  1  0  0  0  0
 21 20  2  0  0  0  0
 22  6  1  0  0  0  0
 22 23  1  0  0  0  0
 24 20  1  0  0  0  0
 24 25  1  0  0  0  0
 25 27  1  0  0  0  0
 25 26  1  0  0  0  0
 28 25  1  0  0  0  0
M  END
>  <minimizedAffinity>
-4.53440094

$$$$

 OpenBabel03272500563D

 28 29  0  0  0  0  0  0  0  0999 V2000
   38.4780   25.5000   35.3130 C   0  0  0  0  0  0  0  0  0  0  0  0
   38.4470   26.7200   35.9590 C   0  0  0  0  0  0  0  0  0  0  0  0
   37.7480   27.8100   35.4430 C   0  0  0  0  0  0  0  0  0  0  0  0
   37.0430   27.6380   34.2010 C   0  0  0  0  0  0  0  0  0  0  0  0
   37.1070   26.4100   33.6050 C   0  0  0  0  0  0  0  0  0  0  0  0
   37.7880   25.3690   34.1090 C   0  0  0  0  0  0  0  0  0  0  0  0
   38.9750   26.8670   36.9040 H   0  0  0  0  0  0  0  0  0  0  0  0
   37.7830   28.7440   36.0310 H   0  0  0  0  0  0  0  0  0  0  0  0
   36.5700   28.5770   33.9660 H   0  0  0  0  0  0  0  0  0  0  0  0
   36.4750   26.5470   32.7530 H   0  0  0  0  0  0  0  0  0  0  0  0
   38.6070   23.8820   37.1340 C   0  0  0  0  0  0  0  0  0  0  0  0
   39.2130   24.4590   35.9900 C   0  0  0  0  0  0  0  0  0  0  0  0
   40.4540   23.9540   35.6500 C   0  0  0  0  0  0  0  0  0  0  0  0
   41.0050   22.9760   36.3940 N   0  0  0  0  0  0  0  0  0  0  0  0
   40.4300   22.4420   37.4620 C   0  0  0  0  0  0  0  0  0  0  0  0
   39.2240   22.9040   37.8260 N   0  0  0  0  0  0  0  0  0  0  0  0
   37.6340   24.1940   37.5010 H   0  0  0  0  0  0  0  0  0  0  0  0
   40.9150   24.3960   34.7760 H   0  0  0  0  0  0  0  0  0  0  0  0
   40.8670   21.6570   38.0630 H   0  0  0  0  0  0  0  0  0  0  0  0
   38.8350   24.1700   32.3850 C   0  0  0  0  0  0  0  0  0  0  0  0
   39.4960   25.2550   32.1480 O   0  0  0  0  0  0  0  0  0  0  0  0
   37.8510   24.1520   33.4600 N   0  0  0  0  0  0  0  0  0  0  0  0
   37.2840   23.3150   33.6780 H   0  0  0  0  0  0  0  0  0  0  0  0
   39.0420   22.9890   31.6280 O   0  0  0  0  0  0  0  0  0  0  0  0
   38.4760   22.9080   30.3300 C   0  0  0  0  0  0  0  0  0  0  0  0
   37.2960   23.6550   30.3810 F   0  0  0  0  0  0  0  0  0  0  0  0
   39.2870   23.5640   29.3970 F   0  0  0  0  0  0  0  0  0  0  0  0
   38.2200   21.6300   29.9240 F   0  0  0  0  0  0  0  0  0  0  0  0
  1  2  1  0  0  0  0
  1 12  1  0  0  0  0
  2  7  1  0  0  0  0
  3  2  2  0  0  0  0
  3  8  1  0  0  0  0
  4  3  1  0  0  0  0
  5  6  1  0  0  0  0
  5  4  2  0  0  0  0
  6  1  2  0  0  0  0
  9  4  1  0  0  0  0
 10  5  1  0  0  0  0
 11 17  1  0  0  0  0
 11 16  1  0  0  0  0
 12 11  2  0  0  0  0
 13 12  1  0  0  0  0
 13 14  2  0  0  0  0
 14 15  1  0  0  0  0
 15 16  2  0  0  0  0
 15 19  1  0  0  0  0
 18 13  1  0  0  0  0
 20 22  1  0  0  0  0
 21 20  2  0  0  0  0
 22 23  1  0  0  0  0
 22  6  1  0  0  0  0
 24 20  1  0  0  0  0
 25 26  1  0  0  0  0
 25 24  1  0  0  0  0
 27 25  1  0  0  0  0
 28 25  1  0  0  0  0
M  END
>  <minimizedAffinity>
-4.49810457

$$$$

 OpenBabel03272500563D

 28 29  0  0  0  0  0  0  0  0999 V2000
   39.4690   23.9850   35.7030 C   0  0  0  0  0  0  0  0  0  0  0  0
   40.2620   23.2220   36.5380 C   0  0  0  0  0  0  0  0  0  0  0  0
   39.8850   22.9270   37.8470 C   0  0  0  0  0  0  0  0  0  0  0  0
   38.6280   23.4400   38.3220 C   0  0  0  0  0  0  0  0  0  0  0  0
   37.8830   24.1880   37.4540 C   0  0  0  0  0  0  0  0  0  0  0  0
   38.2600   24.4690   36.1970 C   0  0  0  0  0  0  0  0  0  0  0  0
   41.2180   22.8230   36.1910 H   0  0  0  0  0  0  0  0  0  0  0  0
   40.5850   22.3120   38.4370 H   0  0  0  0  0  0  0  0  0  0  0  0
   38.5110   23.1130   39.3420 H   0  0  0  0  0  0  0  0  0  0  0  0
   37.0080   24.3910   38.0350 H   0  0  0  0  0  0  0  0  0  0  0  0
   41.0010   25.1360   34.1930 C   0  0  0  0  0  0  0  0  0  0  0  0
   39.9780   24.1710   34.3650 C   0  0  0  0  0  0  0  0  0  0  0  0
   39.5770   23.5110   33.2180 C   0  0  0  0  0  0  0  0  0  0  0  0
   40.1580   23.8060   32.0400 N   0  0  0  0  0  0  0  0  0  0  0  0
   41.1160   24.7100   31.8890 C   0  0  0  0  0  0  0  0  0  0  0  0
   41.5330   25.3730   32.9790 N   0  0  0  0  0  0  0  0  0  0  0  0
   41.3990   25.7200   35.0170 H   0  0  0  0  0  0  0  0  0  0  0  0
   38.7950   22.7740   33.3520 H   0  0  0  0  0  0  0  0  0  0  0  0
   41.5850   24.9510   30.9460 H   0  0  0  0  0  0  0  0  0  0  0  0
   37.8140   26.6670   35.5060 C   0  0  0  0  0  0  0  0  0  0  0  0
   38.7160   27.0270   36.3600 O   0  0  0  0  0  0  0  0  0  0  0  0
   37.4900   25.2540   35.3610 N   0  0  0  0  0  0  0  0  0  0  0  0
   36.7650   24.9170   34.7050 H   0  0  0  0  0  0  0  0  0  0  0  0
   37.1280   27.6120   34.7020 O   0  0  0  0  0  0  0  0  0  0  0  0
   37.2850   27.5440   33.2930 C   0  0  0  0  0  0  0  0  0  0  0  0
   38.6210   27.2020   33.0740 F   0  0  0  0  0  0  0  0  0  0  0  0
   36.5410   26.4840   32.7660 F   0  0  0  0  0  0  0  0  0  0  0  0
   36.9750   28.7100   32.6530 F   0  0  0  0  0  0  0  0  0  0  0  0
  1  6  2  0  0  0  0
  1  2  1  0  0  0  0
  2  3  2  0  0  0  0
  3  4  1  0  0  0  0
  3  8  1  0  0  0  0
  4  9  1  0  0  0  0
  5 10  1  0  0  0  0
  5  4  2  0  0  0  0
  6  5  1  0  0  0  0
  7  2  1  0  0  0  0
 11 12  1  0  0  0  0
 11 17  1  0  0  0  0
 12  1  1  0  0  0  0
 13 18  1  0  0  0  0
 13 12  2  0  0  0  0
 14 13  1  0  0  0  0
 15 14  2  0  0  0  0
 15 16  1  0  0  0  0
 16 11  2  0  0  0  0
 19 15  1  0  0  0  0
 20 21  2  0  0  0  0
 22 20  1  0  0  0  0
 22  6  1  0  0  0  0
 23 22  1  0  0  0  0
 24 20  1  0  0  0  0
 25 24  1  0  0  0  0
 26 25  1  0  0  0  0
 27 25  1  0  0  0  0
 28 25  1  0  0  0  0
M  END
>  <minimizedAffinity>
-4.49425364

$$$$

 OpenBabel03272500563D

 28 29  0  0  0  0  0  0  0  0999 V2000
   36.9920   23.1640   32.4660 C   0  0  0  0  0  0  0  0  0  0  0  0
   35.7890   22.7630   31.9190 C   0  0  0  0  0  0  0  0  0  0  0  0
   35.1850   21.5570   32.2690 C   0  0  0  0  0  0  0  0  0  0  0  0
   35.8500   20.7200   33.2330 C   0  0  0  0  0  0  0  0  0  0  0  0
   37.0370   21.1660   33.7410 C   0  0  0  0  0  0  0  0  0  0  0  0
   37.6110   22.3280   33.3920 C   0  0  0  0  0  0  0  0  0  0  0  0
   35.2700   23.3890   31.1880 H   0  0  0  0  0  0  0  0  0  0  0  0
   34.2250   21.3230   31.7790 H   0  0  0  0  0  0  0  0  0  0  0  0
   35.2390   19.8440   33.3740 H   0  0  0  0  0  0  0  0  0  0  0  0
   37.2760   20.3970   34.4450 H   0  0  0  0  0  0  0  0  0  0  0  0
   37.0260   25.5860   32.7590 C   0  0  0  0  0  0  0  0  0  0  0  0
   37.4710   24.4550   32.0310 C   0  0  0  0  0  0  0  0  0  0  0  0
   38.3210   24.7180   30.9730 C   0  0  0  0  0  0  0  0  0  0  0  0
   38.6720   25.9890   30.6980 N   0  0  0  0  0  0  0  0  0  0  0  0
   38.2510   27.0420   31.3850 C   0  0  0  0  0  0  0  0  0  0  0  0
   37.4240   26.8280   32.4210 N   0  0  0  0  0  0  0  0  0  0  0  0
   36.3560   25.5080   33.6090 H   0  0  0  0  0  0  0  0  0  0  0  0
   38.6590   23.8520   30.4180 H   0  0  0  0  0  0  0  0  0  0  0  0
   38.5290   28.0640   31.1700 H   0  0  0  0  0  0  0  0  0  0  0  0
   38.6960   23.2010   35.2810 C   0  0  0  0  0  0  0  0  0  0  0  0
   37.5290   23.2190   35.8370 O   0  0  0  0  0  0  0  0  0  0  0  0
   38.8280   22.7280   33.9100 N   0  0  0  0  0  0  0  0  0  0  0  0
   39.7350   22.7100   33.4150 H   0  0  0  0  0  0  0  0  0  0  0  0
   39.8580   23.6310   35.9710 O   0  0  0  0  0  0  0  0  0  0  0  0
   40.3440   22.8350   37.0400 C   0  0  0  0  0  0  0  0  0  0  0  0
   40.1460   21.5090   36.6500 F   0  0  0  0  0  0  0  0  0  0  0  0
   41.7300   22.9780   37.1700 F   0  0  0  0  0  0  0  0  0  0  0  0
   39.7250   23.0840   38.2320 F   0  0  0  0  0  0  0  0  0  0  0  0
  1  6  1  0  0  0  0
  2  3  1  0  0  0  0
  2  1  2  0  0  0  0
  3  4  2  0  0  0  0
  4  9  1  0  0  0  0
  4  5  1  0  0  0  0
  5 10  1  0  0  0  0
  6  5  2  0  0  0  0
  6 22  1  0  0  0  0
  7  2  1  0  0  0  0
  8  3  1  0  0  0  0
 11 17  1  0  0  0  0
 12  1  1  0  0  0  0
 12 11  2  0  0  0  0
 13 12  1  0  0  0  0
 14 13  2  0  0  0  0
 14 15  1  0  0  0  0
 15 16  2  0  0  0  0
 16 11  1  0  0  0  0
 18 13  1  0  0  0  0
 19 15  1  0  0  0  0
 20 21  2  0  0  0  0
 20 24  1  0  0  0  0
 22 20  1  0  0  0  0
 23 22  1  0  0  0  0
 24 25  1  0  0  0  0
 25 27  1  0  0  0  0
 25 28  1  0  0  0  0
 26 25  1  0  0  0  0
M  END
>  <minimizedAffinity>
-4.48662567

$$$$
