
 OpenBabel03272504193D

 22 22  0  0  0  0  0  0  0  0999 V2000
   36.1060   30.1170   49.9660 C   0  0  0  0  0  0  0  0  0  0  0  0
   35.9060   29.7530   50.9950 H   0  0  0  0  0  0  0  0  0  0  0  0
   37.0930   29.6510   49.6970 H   0  0  0  0  0  0  0  0  0  0  0  0
   35.1120   29.4680   49.0830 C   0  0  0  0  0  0  0  0  0  0  0  0
   34.6010   30.1990   48.0240 C   0  0  0  0  0  0  0  0  0  0  0  0
   33.6620   29.6180   47.1730 C   0  0  0  0  0  0  0  0  0  0  0  0
   33.2940   28.3300   47.4450 N   0  0  0  0  0  0  0  0  0  0  0  0
   33.8000   27.6400   48.4740 C   0  0  0  0  0  0  0  0  0  0  0  0
   34.7090   28.2140   49.2910 N   0  0  0  0  0  0  0  0  0  0  0  0
   34.9410   31.2290   47.8670 H   0  0  0  0  0  0  0  0  0  0  0  0
   33.2780   30.2070   46.3560 H   0  0  0  0  0  0  0  0  0  0  0  0
   33.4830   26.6190   48.6570 H   0  0  0  0  0  0  0  0  0  0  0  0
   36.1050   31.4930   49.8730 O   0  0  0  0  0  0  0  0  0  0  0  0
   37.8910   31.5180   47.9240 O   0  0  0  0  0  0  0  0  0  0  0  0
   37.6480   31.9610   49.3400 P   0  0  2  0  0  0  0  0  0  0  0  0
   38.8160   31.1720   50.3180 O   0  0  0  0  0  0  0  0  0  0  0  0
   39.2320   30.4310   49.8380 H   0  0  0  0  0  0  0  0  0  0  0  0
   37.8370   33.6300   49.4440 O   0  0  0  0  0  0  0  0  0  0  0  0
   39.1950   33.9000   49.2330 C   0  0  0  0  0  0  0  0  0  0  0  0
   39.3730   35.1760   48.7320 F   0  0  0  0  0  0  0  0  0  0  0  0
   39.6000   33.0180   48.2260 F   0  0  0  0  0  0  0  0  0  0  0  0
   39.9080   33.6470   50.3720 F   0  0  0  0  0  0  0  0  0  0  0  0
  1  2  1  0  0  0  0
  3  1  1  0  0  0  0
  4  9  1  0  0  0  0
  4  1  1  0  0  0  0
  5  4  2  0  0  0  0
  6  7  2  0  0  0  0
  6  5  1  0  0  0  0
  7  8  1  0  0  0  0
  8 12  1  0  0  0  0
  8  9  2  0  0  0  0
 10  5  1  0  0  0  0
 11  6  1  0  0  0  0
 13  1  1  0  0  0  0
 15 14  2  6  0  0  0
 15 18  1  0  0  0  0
 15 13  1  0  0  0  0
 15 16  1  0  0  0  0
 17 16  1  0  0  0  0
 19 18  1  0  0  0  0
 19 22  1  0  0  0  0
 20 19  1  0  0  0  0
 21 19  1  0  0  0  0
M  END
>  <minimizedAffinity>
-4.83095503

>  <minimizedRMSD>
0.689998984

$$$$
