
 OpenBabel03272508213D

 37 39  0  0  0  0  0  0  0  0999 V2000
   34.1560   28.7730   47.3710 C   0  0  0  0  0  0  0  0  0  0  0  0
   34.5530   27.9510   46.6920 H   0  0  0  0  0  0  0  0  0  0  0  0
   34.0940   28.2660   48.3550 H   0  0  0  0  0  0  0  0  0  0  0  0
   31.7140   28.5020   47.3090 C   0  0  0  0  0  0  0  0  0  0  0  0
   32.8590   29.1190   46.8870 C   0  0  0  0  0  0  0  0  0  0  0  0
   32.6350   30.0470   45.9170 C   0  0  0  0  0  0  0  0  0  0  0  0
   31.4370   30.3360   45.4180 N   0  0  0  0  0  0  0  0  0  0  0  0
   30.3310   29.7330   45.8290 C   0  0  0  0  0  0  0  0  0  0  0  0
   30.4590   28.8090   46.7790 N   0  0  0  0  0  0  0  0  0  0  0  0
   33.4570   30.6320   45.4750 H   0  0  0  0  0  0  0  0  0  0  0  0
   29.3080   29.8510   45.5310 H   0  0  0  0  0  0  0  0  0  0  0  0
   31.7390   27.5410   48.4980 C   0  0  0  0  0  0  0  0  0  0  0  0
   30.6600   26.7560   48.8720 C   0  0  0  0  0  0  0  0  0  0  0  0
   31.5940   26.0850   47.8720 C   0  0  0  0  0  0  0  0  0  0  0  0
   32.5930   27.5500   49.1290 H   0  0  0  0  0  0  0  0  0  0  0  0
   30.5340   26.2900   49.8470 H   0  0  0  0  0  0  0  0  0  0  0  0
   29.6440   26.9500   48.4080 H   0  0  0  0  0  0  0  0  0  0  0  0
   32.2280   25.3060   48.3080 H   0  0  0  0  0  0  0  0  0  0  0  0
   31.3050   25.9890   46.8400 H   0  0  0  0  0  0  0  0  0  0  0  0
   35.1850   29.8360   47.3960 C   0  0  0  0  0  0  0  0  0  0  0  0
   34.6450   30.8060   47.1770 H   0  0  0  0  0  0  0  0  0  0  0  0
   35.8930   29.7420   46.5420 H   0  0  0  0  0  0  0  0  0  0  0  0
   37.3500   31.5650   47.3440 F   0  0  0  0  0  0  0  0  0  0  0  0
   36.9990   30.8950   48.4670 C   0  0  0  0  0  0  0  0  0  0  0  0
   35.9250   30.0170   48.6000 C   0  0  0  0  0  0  0  0  0  0  0  0
   35.7510   29.4510   49.8160 C   0  0  0  0  0  0  0  0  0  0  0  0
   36.5420   29.6920   50.8850 C   0  0  0  0  0  0  0  0  0  0  0  0
   37.6230   30.5730   50.7600 C   0  0  0  0  0  0  0  0  0  0  0  0
   37.8350   31.1650   49.5300 C   0  0  0  0  0  0  0  0  0  0  0  0
   35.0500   28.7170   50.0790 H   0  0  0  0  0  0  0  0  0  0  0  0
   36.4650   29.2810   51.8990 H   0  0  0  0  0  0  0  0  0  0  0  0
   38.2950   30.8020   51.6000 H   0  0  0  0  0  0  0  0  0  0  0  0
   38.9420   32.0190   49.4560 O   0  0  0  0  0  0  0  0  0  0  0  0
   38.8780   33.3880   49.3140 C   0  0  0  0  0  0  0  0  0  0  0  0
   37.6410   33.9520   49.2690 F   0  0  0  0  0  0  0  0  0  0  0  0
   39.6810   34.0190   50.2750 F   0  0  0  0  0  0  0  0  0  0  0  0
   39.4980   33.6960   48.0970 F   0  0  0  0  0  0  0  0  0  0  0  0
  1 20  1  0  0  0  0
  1  3  1  0  0  0  0
  2  1  1  0  0  0  0
  4 12  1  0  0  0  0
  5  4  1  0  0  0  0
  5  1  1  0  0  0  0
  6  5  2  0  0  0  0
  7  8  2  0  0  0  0
  7  6  1  0  0  0  0
  8  9  1  0  0  0  0
  9  4  2  0  0  0  0
 10  6  1  0  0  0  0
 11  8  1  0  0  0  0
 12 13  1  0  0  0  0
 12 15  1  0  0  0  0
 13 16  1  0  0  0  0
 14 18  1  0  0  0  0
 14 12  1  0  0  0  0
 14 13  1  0  0  0  0
 17 13  1  0  0  0  0
 19 14  1  0  0  0  0
 20 25  1  0  0  0  0
 21 20  1  0  0  0  0
 22 20  1  0  0  0  0
 23 24  1  0  0  0  0
 24 25  2  0  0  0  0
 24 29  1  0  0  0  0
 25 26  1  0  0  0  0
 26 30  1  0  0  0  0
 26 27  2  0  0  0  0
 27 31  1  0  0  0  0
 28 27  1  0  0  0  0
 28 32  1  0  0  0  0
 29 28  2  0  0  0  0
 33 29  1  0  0  0  0
 34 33  1  0  0  0  0
 34 36  1  0  0  0  0
 35 34  1  0  0  0  0
 37 34  1  0  0  0  0
M  END
>  <minimizedAffinity>
-6.37433958

>  <minimizedRMSD>
3.43137193

$$$$
