
 OpenBabel03272500003D

 24 25  0  0  0  0  0  0  0  0999 V2000
   37.9020   24.8200   34.6540 C   0  0  0  0  0  0  0  0  0  0  0  0
   38.5110   25.2710   35.8650 C   0  0  0  0  0  0  0  0  0  0  0  0
   38.5690   26.6520   36.0990 C   0  0  0  0  0  0  0  0  0  0  0  0
   38.0390   27.4930   35.1580 N   0  0  0  0  0  0  0  0  0  0  0  0
   37.4680   27.0190   34.0190 C   0  0  0  0  0  0  0  0  0  0  0  0
   37.4020   25.6920   33.7730 N   0  0  0  0  0  0  0  0  0  0  0  0
   37.8180   23.7760   34.3990 H   0  0  0  0  0  0  0  0  0  0  0  0
   39.0260   27.0000   37.0080 H   0  0  0  0  0  0  0  0  0  0  0  0
   39.1930   27.2540   31.4230 Br  0  0  0  0  0  0  0  0  0  0  0  0
   37.5480   28.1430   31.8200 C   0  0  0  0  0  0  0  0  0  0  0  0
   36.9110   27.9210   33.0270 C   0  0  0  0  0  0  0  0  0  0  0  0
   35.7310   28.6030   33.2250 C   0  0  0  0  0  0  0  0  0  0  0  0
   35.1530   29.4700   32.3300 C   0  0  0  0  0  0  0  0  0  0  0  0
   35.8320   29.6570   31.1390 C   0  0  0  0  0  0  0  0  0  0  0  0
   37.0420   28.9840   30.8850 C   0  0  0  0  0  0  0  0  0  0  0  0
   35.2110   28.4380   34.1800 H   0  0  0  0  0  0  0  0  0  0  0  0
   34.2200   29.9690   32.5630 H   0  0  0  0  0  0  0  0  0  0  0  0
   35.4300   30.3280   30.3910 H   0  0  0  0  0  0  0  0  0  0  0  0
   37.5110   29.1900   29.9180 H   0  0  0  0  0  0  0  0  0  0  0  0
   39.0080   24.3270   36.7360 O   0  0  0  0  0  0  0  0  0  0  0  0
   38.2530   23.8940   37.8480 C   0  0  0  0  0  0  0  0  0  0  0  0
   39.0300   22.9850   38.5320 F   0  0  0  0  0  0  0  0  0  0  0  0
   37.0920   23.2310   37.4980 F   0  0  0  0  0  0  0  0  0  0  0  0
   37.8840   24.9420   38.6820 F   0  0  0  0  0  0  0  0  0  0  0  0
  1  2  1  0  0  0  0
  2  3  2  0  0  0  0
  2 20  1  0  0  0  0
  3  8  1  0  0  0  0
  4  3  1  0  0  0  0
  5  4  2  0  0  0  0
  6  5  1  0  0  0  0
  6  1  2  0  0  0  0
  7  1  1  0  0  0  0
  9 10  1  0  0  0  0
 10 11  1  0  0  0  0
 11 12  2  0  0  0  0
 11  5  1  0  0  0  0
 12 16  1  0  0  0  0
 13 17  1  0  0  0  0
 13 12  1  0  0  0  0
 14 13  2  0  0  0  0
 15 14  1  0  0  0  0
 15 10  2  0  0  0  0
 18 14  1  0  0  0  0
 19 15  1  0  0  0  0
 20 21  1  0  0  0  0
 21 22  1  0  0  0  0
 21 24  1  0  0  0  0
 23 21  1  0  0  0  0
M  END
>  <minimizedAffinity>
-4.95011187

$$$$

 OpenBabel03272500003D

 24 25  0  0  0  0  0  0  0  0999 V2000
   38.8800   24.2110   35.0700 C   0  0  0  0  0  0  0  0  0  0  0  0
   38.2070   24.9260   36.1070 C   0  0  0  0  0  0  0  0  0  0  0  0
   38.3040   26.3250   36.1130 C   0  0  0  0  0  0  0  0  0  0  0  0
   39.0360   26.9300   35.1280 N   0  0  0  0  0  0  0  0  0  0  0  0
   39.6610   26.2080   34.1600 C   0  0  0  0  0  0  0  0  0  0  0  0
   39.5810   24.8600   34.1340 N   0  0  0  0  0  0  0  0  0  0  0  0
   38.8560   23.1360   34.9940 H   0  0  0  0  0  0  0  0  0  0  0  0
   37.8000   26.8710   36.8910 H   0  0  0  0  0  0  0  0  0  0  0  0
   38.0810   26.6420   31.4970 Br  0  0  0  0  0  0  0  0  0  0  0  0
   39.8900   27.1270   31.8780 C   0  0  0  0  0  0  0  0  0  0  0  0
   40.4370   26.8610   33.1200 C   0  0  0  0  0  0  0  0  0  0  0  0
   41.7450   27.2470   33.3030 C   0  0  0  0  0  0  0  0  0  0  0  0
   42.5320   27.8650   32.3620 C   0  0  0  0  0  0  0  0  0  0  0  0
   41.9380   28.1070   31.1370 C   0  0  0  0  0  0  0  0  0  0  0  0
   40.6020   27.7330   30.8960 C   0  0  0  0  0  0  0  0  0  0  0  0
   42.1950   27.0430   34.2860 H   0  0  0  0  0  0  0  0  0  0  0  0
   43.5570   28.1380   32.5860 H   0  0  0  0  0  0  0  0  0  0  0  0
   42.5040   28.5910   30.3500 H   0  0  0  0  0  0  0  0  0  0  0  0
   40.2130   27.9620   29.8990 H   0  0  0  0  0  0  0  0  0  0  0  0
   37.4990   24.2050   37.0430 O   0  0  0  0  0  0  0  0  0  0  0  0
   38.0680   23.8850   38.2960 C   0  0  0  0  0  0  0  0  0  0  0  0
   37.2760   22.9070   38.8580 F   0  0  0  0  0  0  0  0  0  0  0  0
   38.0700   24.9450   39.1830 F   0  0  0  0  0  0  0  0  0  0  0  0
   39.3810   23.4450   38.1890 F   0  0  0  0  0  0  0  0  0  0  0  0
  1  2  1  0  0  0  0
  2  3  2  0  0  0  0
  2 20  1  0  0  0  0
  3  8  1  0  0  0  0
  4  3  1  0  0  0  0
  5  4  2  0  0  0  0
  6  5  1  0  0  0  0
  6  1  2  0  0  0  0
  7  1  1  0  0  0  0
  9 10  1  0  0  0  0
 10 11  1  0  0  0  0
 11 12  2  0  0  0  0
 11  5  1  0  0  0  0
 12 16  1  0  0  0  0
 13 17  1  0  0  0  0
 13 12  1  0  0  0  0
 14 13  2  0  0  0  0
 15 14  1  0  0  0  0
 15 10  2  0  0  0  0
 18 14  1  0  0  0  0
 19 15  1  0  0  0  0
 20 21  1  0  0  0  0
 21 22  1  0  0  0  0
 21 23  1  0  0  0  0
 24 21  1  0  0  0  0
M  END
>  <minimizedAffinity>
-4.78799248

$$$$

 OpenBabel03272500003D

 24 25  0  0  0  0  0  0  0  0999 V2000
   37.9650   24.5990   34.3870 C   0  0  0  0  0  0  0  0  0  0  0  0
   38.9360   24.9730   35.3650 C   0  0  0  0  0  0  0  0  0  0  0  0
   39.5100   26.2490   35.2700 C   0  0  0  0  0  0  0  0  0  0  0  0
   39.1090   27.0670   34.2480 N   0  0  0  0  0  0  0  0  0  0  0  0
   38.1800   26.6690   33.3390 C   0  0  0  0  0  0  0  0  0  0  0  0
   37.6140   25.4440   33.4110 N   0  0  0  0  0  0  0  0  0  0  0  0
   37.4770   23.6380   34.3890 H   0  0  0  0  0  0  0  0  0  0  0  0
   40.2430   26.5380   36.0020 H   0  0  0  0  0  0  0  0  0  0  0  0
   35.9340   28.6860   34.1500 Br  0  0  0  0  0  0  0  0  0  0  0  0
   36.7780   28.4960   32.4460 C   0  0  0  0  0  0  0  0  0  0  0  0
   37.7640   27.5450   32.2580 C   0  0  0  0  0  0  0  0  0  0  0  0
   38.3150   27.4820   30.9980 C   0  0  0  0  0  0  0  0  0  0  0  0
   37.9650   28.2770   29.9360 C   0  0  0  0  0  0  0  0  0  0  0  0
   36.9740   29.2120   30.1760 C   0  0  0  0  0  0  0  0  0  0  0  0
   36.3760   29.3190   31.4460 C   0  0  0  0  0  0  0  0  0  0  0  0
   39.1020   26.7310   30.8330 H   0  0  0  0  0  0  0  0  0  0  0  0
   38.4490   28.1640   28.9730 H   0  0  0  0  0  0  0  0  0  0  0  0
   36.6510   29.8700   29.3800 H   0  0  0  0  0  0  0  0  0  0  0  0
   35.6010   30.0850   31.5480 H   0  0  0  0  0  0  0  0  0  0  0  0
   39.2570   24.0620   36.3470 O   0  0  0  0  0  0  0  0  0  0  0  0
   38.4480   23.9160   37.4960 C   0  0  0  0  0  0  0  0  0  0  0  0
   39.2000   23.2420   38.4330 F   0  0  0  0  0  0  0  0  0  0  0  0
   37.3180   23.1500   37.2760 F   0  0  0  0  0  0  0  0  0  0  0  0
   38.0170   25.1350   38.0030 F   0  0  0  0  0  0  0  0  0  0  0  0
  1  7  1  0  0  0  0
  1  2  1  0  0  0  0
  2 20  1  0  0  0  0
  3  2  2  0  0  0  0
  3  8  1  0  0  0  0
  4  3  1  0  0  0  0
  5  6  1  0  0  0  0
  5  4  2  0  0  0  0
  6  1  2  0  0  0  0
 10  9  1  0  0  0  0
 11 10  1  0  0  0  0
 11  5  1  0  0  0  0
 12 11  2  0  0  0  0
 13 14  2  0  0  0  0
 13 12  1  0  0  0  0
 14 15  1  0  0  0  0
 15 19  1  0  0  0  0
 15 10  2  0  0  0  0
 16 12  1  0  0  0  0
 17 13  1  0  0  0  0
 18 14  1  0  0  0  0
 20 21  1  0  0  0  0
 21 24  1  0  0  0  0
 21 22  1  0  0  0  0
 23 21  1  0  0  0  0
M  END
>  <minimizedAffinity>
-4.67299986

$$$$

 OpenBabel03272500003D

 24 25  0  0  0  0  0  0  0  0999 V2000
   37.7690   25.6260   32.7610 C   0  0  0  0  0  0  0  0  0  0  0  0
   38.6320   26.7290   32.4780 C   0  0  0  0  0  0  0  0  0  0  0  0
   39.5580   27.1100   33.4590 C   0  0  0  0  0  0  0  0  0  0  0  0
   39.5880   26.4070   34.6330 N   0  0  0  0  0  0  0  0  0  0  0  0
   38.7480   25.3620   34.8590 C   0  0  0  0  0  0  0  0  0  0  0  0
   37.8470   24.9780   33.9280 N   0  0  0  0  0  0  0  0  0  0  0  0
   37.0300   25.2710   32.0620 H   0  0  0  0  0  0  0  0  0  0  0  0
   40.2110   27.9400   33.2540 H   0  0  0  0  0  0  0  0  0  0  0  0
   40.8240   23.0260   34.8730 Br  0  0  0  0  0  0  0  0  0  0  0  0
   39.6490   23.5570   36.2840 C   0  0  0  0  0  0  0  0  0  0  0  0
   38.7880   24.6240   36.1090 C   0  0  0  0  0  0  0  0  0  0  0  0
   37.9800   24.9350   37.1800 C   0  0  0  0  0  0  0  0  0  0  0  0
   37.9670   24.2770   38.3850 C   0  0  0  0  0  0  0  0  0  0  0  0
   38.8480   23.2160   38.5080 C   0  0  0  0  0  0  0  0  0  0  0  0
   39.6960   22.8560   37.4440 C   0  0  0  0  0  0  0  0  0  0  0  0
   37.2890   25.7820   37.0570 H   0  0  0  0  0  0  0  0  0  0  0  0
   37.2990   24.5850   39.1800 H   0  0  0  0  0  0  0  0  0  0  0  0
   38.8870   22.6550   39.4330 H   0  0  0  0  0  0  0  0  0  0  0  0
   40.3600   22.0050   37.6280 H   0  0  0  0  0  0  0  0  0  0  0  0
   38.5070   27.3580   31.2590 O   0  0  0  0  0  0  0  0  0  0  0  0
   37.4820   28.3020   31.0290 C   0  0  0  0  0  0  0  0  0  0  0  0
   38.0380   29.3290   30.2980 F   0  0  0  0  0  0  0  0  0  0  0  0
   36.9900   28.8700   32.1890 F   0  0  0  0  0  0  0  0  0  0  0  0
   36.3970   27.7570   30.3550 F   0  0  0  0  0  0  0  0  0  0  0  0
  1  6  1  0  0  0  0
  2  1  2  0  0  0  0
  2  3  1  0  0  0  0
  3  4  2  0  0  0  0
  4  5  1  0  0  0  0
  5 11  1  0  0  0  0
  6  5  2  0  0  0  0
  7  1  1  0  0  0  0
  8  3  1  0  0  0  0
  9 10  1  0  0  0  0
 10 15  1  0  0  0  0
 11 10  2  0  0  0  0
 11 12  1  0  0  0  0
 12 13  2  0  0  0  0
 13 14  1  0  0  0  0
 13 17  1  0  0  0  0
 14 18  1  0  0  0  0
 15 19  1  0  0  0  0
 15 14  2  0  0  0  0
 16 12  1  0  0  0  0
 20  2  1  0  0  0  0
 21 20  1  0  0  0  0
 21 23  1  0  0  0  0
 22 21  1  0  0  0  0
 24 21  1  0  0  0  0
M  END
>  <minimizedAffinity>
-4.61733389

$$$$

 OpenBabel03272500003D

 24 25  0  0  0  0  0  0  0  0999 V2000
   39.2600   22.8960   37.2580 C   0  0  0  0  0  0  0  0  0  0  0  0
   40.6150   22.6340   36.8920 C   0  0  0  0  0  0  0  0  0  0  0  0
   41.2040   23.4500   35.9160 C   0  0  0  0  0  0  0  0  0  0  0  0
   40.4510   24.4540   35.3680 N   0  0  0  0  0  0  0  0  0  0  0  0
   39.1640   24.6670   35.7480 C   0  0  0  0  0  0  0  0  0  0  0  0
   38.5760   23.8930   36.6860 N   0  0  0  0  0  0  0  0  0  0  0  0
   38.7350   22.3150   37.9990 H   0  0  0  0  0  0  0  0  0  0  0  0
   42.2240   23.2590   35.6340 H   0  0  0  0  0  0  0  0  0  0  0  0
   37.8420   23.8950   33.0220 Br  0  0  0  0  0  0  0  0  0  0  0  0
   37.7220   25.5620   33.9520 C   0  0  0  0  0  0  0  0  0  0  0  0
   38.3740   25.7340   35.1590 C   0  0  0  0  0  0  0  0  0  0  0  0
   38.2300   26.9670   35.7560 C   0  0  0  0  0  0  0  0  0  0  0  0
   37.5020   28.0150   35.2510 C   0  0  0  0  0  0  0  0  0  0  0  0
   36.8700   27.7910   34.0410 C   0  0  0  0  0  0  0  0  0  0  0  0
   36.9840   26.5490   33.3870 C   0  0  0  0  0  0  0  0  0  0  0  0
   38.7420   27.1200   36.7170 H   0  0  0  0  0  0  0  0  0  0  0  0
   37.4380   28.9560   35.7850 H   0  0  0  0  0  0  0  0  0  0  0  0
   36.2800   28.5770   33.5880 H   0  0  0  0  0  0  0  0  0  0  0  0
   36.4520   26.4580   32.4350 H   0  0  0  0  0  0  0  0  0  0  0  0
   41.2700   21.5940   37.5150 O   0  0  0  0  0  0  0  0  0  0  0  0
   42.4560   21.0520   36.9710 C   0  0  0  0  0  0  0  0  0  0  0  0
   42.1370   20.5600   35.7240 F   0  0  0  0  0  0  0  0  0  0  0  0
   42.9530   19.9860   37.6970 F   0  0  0  0  0  0  0  0  0  0  0  0
   43.4770   21.9890   36.8780 F   0  0  0  0  0  0  0  0  0  0  0  0
  1  7  1  0  0  0  0
  2  1  1  0  0  0  0
  2 20  1  0  0  0  0
  3  2  2  0  0  0  0
  4  5  2  0  0  0  0
  4  3  1  0  0  0  0
  5  6  1  0  0  0  0
  6  1  2  0  0  0  0
  8  3  1  0  0  0  0
  9 10  1  0  0  0  0
 10 11  1  0  0  0  0
 11  5  1  0  0  0  0
 11 12  2  0  0  0  0
 12 16  1  0  0  0  0
 13 12  1  0  0  0  0
 13 17  1  0  0  0  0
 14 13  2  0  0  0  0
 15 10  2  0  0  0  0
 15 14  1  0  0  0  0
 18 14  1  0  0  0  0
 19 15  1  0  0  0  0
 21 20  1  0  0  0  0
 21 23  1  0  0  0  0
 22 21  1  0  0  0  0
 24 21  1  0  0  0  0
M  END
>  <minimizedAffinity>
-4.60749531

$$$$

 OpenBabel03272500003D

 24 25  0  0  0  0  0  0  0  0999 V2000
   37.1940   25.6770   32.8190 C   0  0  0  0  0  0  0  0  0  0  0  0
   36.4730   26.5660   31.9660 C   0  0  0  0  0  0  0  0  0  0  0  0
   35.6220   26.0090   31.0010 C   0  0  0  0  0  0  0  0  0  0  0  0
   35.5270   24.6460   30.9270 N   0  0  0  0  0  0  0  0  0  0  0  0
   36.2330   23.8370   31.7610 C   0  0  0  0  0  0  0  0  0  0  0  0
   37.0590   24.3520   32.6980 N   0  0  0  0  0  0  0  0  0  0  0  0
   37.8680   26.0230   33.5850 H   0  0  0  0  0  0  0  0  0  0  0  0
   35.0760   26.6720   30.3540 H   0  0  0  0  0  0  0  0  0  0  0  0
   38.6200   22.4870   30.2600 Br  0  0  0  0  0  0  0  0  0  0  0  0
   37.0950   21.6370   31.0400 C   0  0  0  0  0  0  0  0  0  0  0  0
   36.1250   22.3910   31.6730 C   0  0  0  0  0  0  0  0  0  0  0  0
   35.0640   21.6930   32.2060 C   0  0  0  0  0  0  0  0  0  0  0  0
   34.9030   20.3310   32.1550 C   0  0  0  0  0  0  0  0  0  0  0  0
   35.9010   19.6230   31.5100 C   0  0  0  0  0  0  0  0  0  0  0  0
   37.0070   20.2870   30.9470 C   0  0  0  0  0  0  0  0  0  0  0  0
   34.2840   22.2780   32.7140 H   0  0  0  0  0  0  0  0  0  0  0  0
   34.0360   19.8560   32.6010 H   0  0  0  0  0  0  0  0  0  0  0  0
   35.8330   18.5450   31.4340 H   0  0  0  0  0  0  0  0  0  0  0  0
   37.7490   19.6500   30.4550 H   0  0  0  0  0  0  0  0  0  0  0  0
   36.6520   27.9210   32.1360 O   0  0  0  0  0  0  0  0  0  0  0  0
   35.7850   28.6710   32.9620 C   0  0  0  0  0  0  0  0  0  0  0  0
   36.1930   29.9850   32.8850 F   0  0  0  0  0  0  0  0  0  0  0  0
   35.8570   28.3170   34.2960 F   0  0  0  0  0  0  0  0  0  0  0  0
   34.4540   28.5530   32.5850 F   0  0  0  0  0  0  0  0  0  0  0  0
  1  7  1  0  0  0  0
  2 20  1  0  0  0  0
  2  1  2  0  0  0  0
  3  2  1  0  0  0  0
  4  3  2  0  0  0  0
  4  5  1  0  0  0  0
  5  6  2  0  0  0  0
  6  1  1  0  0  0  0
  8  3  1  0  0  0  0
  9 10  1  0  0  0  0
 10 11  1  0  0  0  0
 11  5  1  0  0  0  0
 11 12  2  0  0  0  0
 12 16  1  0  0  0  0
 13 12  1  0  0  0  0
 13 17  1  0  0  0  0
 14 13  2  0  0  0  0
 15 10  2  0  0  0  0
 15 14  1  0  0  0  0
 18 14  1  0  0  0  0
 19 15  1  0  0  0  0
 20 21  1  0  0  0  0
 21 23  1  0  0  0  0
 22 21  1  0  0  0  0
 24 21  1  0  0  0  0
M  END
>  <minimizedAffinity>
-4.57087708

$$$$

 OpenBabel03272500003D

 24 25  0  0  0  0  0  0  0  0999 V2000
   38.4960   22.9350   35.5600 C   0  0  0  0  0  0  0  0  0  0  0  0
   39.9070   22.8360   35.3680 C   0  0  0  0  0  0  0  0  0  0  0  0
   40.5160   23.7280   34.4740 C   0  0  0  0  0  0  0  0  0  0  0  0
   39.7270   24.6460   33.8340 N   0  0  0  0  0  0  0  0  0  0  0  0
   38.3860   24.7040   34.0480 C   0  0  0  0  0  0  0  0  0  0  0  0
   37.7790   23.8540   34.9040 N   0  0  0  0  0  0  0  0  0  0  0  0
   37.9520   22.2880   36.2280 H   0  0  0  0  0  0  0  0  0  0  0  0
   41.5780   23.6600   34.3240 H   0  0  0  0  0  0  0  0  0  0  0  0
   38.1530   27.4340   35.5540 Br  0  0  0  0  0  0  0  0  0  0  0  0
   37.3480   26.9410   33.8920 C   0  0  0  0  0  0  0  0  0  0  0  0
   37.5580   25.6810   33.3620 C   0  0  0  0  0  0  0  0  0  0  0  0
   36.9390   25.4160   32.1610 C   0  0  0  0  0  0  0  0  0  0  0  0
   36.1450   26.2930   31.4650 C   0  0  0  0  0  0  0  0  0  0  0  0
   35.9660   27.5390   32.0380 C   0  0  0  0  0  0  0  0  0  0  0  0
   36.5760   27.8620   33.2650 C   0  0  0  0  0  0  0  0  0  0  0  0
   37.0970   24.4180   31.7250 H   0  0  0  0  0  0  0  0  0  0  0  0
   35.6930   26.0060   30.5220 H   0  0  0  0  0  0  0  0  0  0  0  0
   35.3500   28.2770   31.5400 H   0  0  0  0  0  0  0  0  0  0  0  0
   36.3810   28.8700   33.6460 H   0  0  0  0  0  0  0  0  0  0  0  0
   40.5950   21.8700   36.0700 O   0  0  0  0  0  0  0  0  0  0  0  0
   41.2800   22.1890   37.2640 C   0  0  0  0  0  0  0  0  0  0  0  0
   41.6700   20.9960   37.8330 F   0  0  0  0  0  0  0  0  0  0  0  0
   40.4860   22.8270   38.1980 F   0  0  0  0  0  0  0  0  0  0  0  0
   42.3820   23.0060   37.0440 F   0  0  0  0  0  0  0  0  0  0  0  0
  1  7  1  0  0  0  0
  2  1  1  0  0  0  0
  2 20  1  0  0  0  0
  3  2  2  0  0  0  0
  4  5  2  0  0  0  0
  4  3  1  0  0  0  0
  5  6  1  0  0  0  0
  6  1  2  0  0  0  0
  8  3  1  0  0  0  0
 10  9  1  0  0  0  0
 11 10  1  0  0  0  0
 11  5  1  0  0  0  0
 12 11  2  0  0  0  0
 13 14  2  0  0  0  0
 13 12  1  0  0  0  0
 14 15  1  0  0  0  0
 15 19  1  0  0  0  0
 15 10  2  0  0  0  0
 16 12  1  0  0  0  0
 17 13  1  0  0  0  0
 18 14  1  0  0  0  0
 20 21  1  0  0  0  0
 21 22  1  0  0  0  0
 21 23  1  0  0  0  0
 24 21  1  0  0  0  0
M  END
>  <minimizedAffinity>
-4.56449318

$$$$

 OpenBabel03272500003D

 24 25  0  0  0  0  0  0  0  0999 V2000
   38.2460   27.1810   35.0580 C   0  0  0  0  0  0  0  0  0  0  0  0
   37.3780   26.8470   33.9750 C   0  0  0  0  0  0  0  0  0  0  0  0
   37.3890   25.5260   33.5040 C   0  0  0  0  0  0  0  0  0  0  0  0
   38.2300   24.6290   34.1060 N   0  0  0  0  0  0  0  0  0  0  0  0
   39.0400   24.9920   35.1350 C   0  0  0  0  0  0  0  0  0  0  0  0
   39.0450   26.2590   35.6050 N   0  0  0  0  0  0  0  0  0  0  0  0
   38.2970   28.1720   35.4790 H   0  0  0  0  0  0  0  0  0  0  0  0
   36.7390   25.2660   32.6880 H   0  0  0  0  0  0  0  0  0  0  0  0
   37.7950   23.5690   37.6240 Br  0  0  0  0  0  0  0  0  0  0  0  0
   39.5370   23.3150   36.8800 C   0  0  0  0  0  0  0  0  0  0  0  0
   39.9300   24.0320   35.7650 C   0  0  0  0  0  0  0  0  0  0  0  0
   41.2010   23.7820   35.2990 C   0  0  0  0  0  0  0  0  0  0  0  0
   42.0890   22.8920   35.8490 C   0  0  0  0  0  0  0  0  0  0  0  0
   41.6480   22.2010   36.9630 C   0  0  0  0  0  0  0  0  0  0  0  0
   40.3570   22.4180   37.4820 C   0  0  0  0  0  0  0  0  0  0  0  0
   41.5290   24.3440   34.4120 H   0  0  0  0  0  0  0  0  0  0  0  0
   43.0750   22.7530   35.4210 H   0  0  0  0  0  0  0  0  0  0  0  0
   42.3000   21.4840   37.4460 H   0  0  0  0  0  0  0  0  0  0  0  0
   40.0890   21.8300   38.3650 H   0  0  0  0  0  0  0  0  0  0  0  0
   36.5760   27.8370   33.4520 O   0  0  0  0  0  0  0  0  0  0  0  0
   36.8250   28.3740   32.1690 C   0  0  0  0  0  0  0  0  0  0  0  0
   36.0320   27.6790   31.2830 F   0  0  0  0  0  0  0  0  0  0  0  0
   38.1300   28.1990   31.7470 F   0  0  0  0  0  0  0  0  0  0  0  0
   36.5570   29.7350   32.0990 F   0  0  0  0  0  0  0  0  0  0  0  0
  1  7  1  0  0  0  0
  1  6  1  0  0  0  0
  2  1  2  0  0  0  0
  3  2  1  0  0  0  0
  3  4  2  0  0  0  0
  4  5  1  0  0  0  0
  5  6  2  0  0  0  0
  5 11  1  0  0  0  0
  8  3  1  0  0  0  0
 10 15  1  0  0  0  0
 10  9  1  0  0  0  0
 11 10  2  0  0  0  0
 12 11  1  0  0  0  0
 12 13  2  0  0  0  0
 13 14  1  0  0  0  0
 14 18  1  0  0  0  0
 14 15  2  0  0  0  0
 15 19  1  0  0  0  0
 16 12  1  0  0  0  0
 17 13  1  0  0  0  0
 20  2  1  0  0  0  0
 21 20  1  0  0  0  0
 22 21  1  0  0  0  0
 23 21  1  0  0  0  0
 24 21  1  0  0  0  0
M  END
>  <minimizedAffinity>
-4.56349421

$$$$

 OpenBabel03272500003D

 24 25  0  0  0  0  0  0  0  0999 V2000
   35.6080   28.8470   31.9500 C   0  0  0  0  0  0  0  0  0  0  0  0
   36.3950   27.7300   32.3640 C   0  0  0  0  0  0  0  0  0  0  0  0
   36.7460   27.6350   33.7180 C   0  0  0  0  0  0  0  0  0  0  0  0
   36.3170   28.6160   34.5710 N   0  0  0  0  0  0  0  0  0  0  0  0
   35.5680   29.6630   34.1330 C   0  0  0  0  0  0  0  0  0  0  0  0
   35.2190   29.7740   32.8320 N   0  0  0  0  0  0  0  0  0  0  0  0
   35.2960   28.9940   30.9290 H   0  0  0  0  0  0  0  0  0  0  0  0
   37.3390   26.7970   34.0370 H   0  0  0  0  0  0  0  0  0  0  0  0
   32.6000   29.3270   35.0550 Br  0  0  0  0  0  0  0  0  0  0  0  0
   33.8320   30.7020   35.5490 C   0  0  0  0  0  0  0  0  0  0  0  0
   35.1190   30.6990   35.0460 C   0  0  0  0  0  0  0  0  0  0  0  0
   35.9360   31.7280   35.4590 C   0  0  0  0  0  0  0  0  0  0  0  0
   35.5730   32.7370   36.3160 C   0  0  0  0  0  0  0  0  0  0  0  0
   34.2740   32.6940   36.7910 C   0  0  0  0  0  0  0  0  0  0  0  0
   33.3970   31.6640   36.4010 C   0  0  0  0  0  0  0  0  0  0  0  0
   36.9640   31.7400   35.0680 H   0  0  0  0  0  0  0  0  0  0  0  0
   36.2770   33.5120   36.5930 H   0  0  0  0  0  0  0  0  0  0  0  0
   33.9230   33.4610   37.4700 H   0  0  0  0  0  0  0  0  0  0  0  0
   32.3880   31.7080   36.8230 H   0  0  0  0  0  0  0  0  0  0  0  0
   36.7660   26.8060   31.4120 O   0  0  0  0  0  0  0  0  0  0  0  0
   36.2140   25.5050   31.4060 C   0  0  0  0  0  0  0  0  0  0  0  0
   34.8550   25.6470   31.2300 F   0  0  0  0  0  0  0  0  0  0  0  0
   36.3860   24.8320   32.6000 F   0  0  0  0  0  0  0  0  0  0  0  0
   36.7520   24.7030   30.4080 F   0  0  0  0  0  0  0  0  0  0  0  0
  1  2  2  0  0  0  0
  1  6  1  0  0  0  0
  2  3  1  0  0  0  0
  3  8  1  0  0  0  0
  3  4  2  0  0  0  0
  5  4  1  0  0  0  0
  5 11  1  0  0  0  0
  6  5  2  0  0  0  0
  7  1  1  0  0  0  0
  9 10  1  0  0  0  0
 10 15  1  0  0  0  0
 11 12  1  0  0  0  0
 11 10  2  0  0  0  0
 12 13  2  0  0  0  0
 13 17  1  0  0  0  0
 13 14  1  0  0  0  0
 14 18  1  0  0  0  0
 15 14  2  0  0  0  0
 15 19  1  0  0  0  0
 16 12  1  0  0  0  0
 20  2  1  0  0  0  0
 21 20  1  0  0  0  0
 21 23  1  0  0  0  0
 22 21  1  0  0  0  0
 24 21  1  0  0  0  0
M  END
>  <minimizedAffinity>
-4.56087112

$$$$
