
 OpenBabel03272501193D

 25 26  0  0  0  0  0  0  0  0999 V2000
   39.7520   24.5780   35.5560 C   0  0  0  0  0  0  0  0  0  0  0  0
   40.5260   25.4410   34.8080 C   0  0  0  0  0  0  0  0  0  0  0  0
   40.0880   26.7730   34.7810 C   0  0  0  0  0  0  0  0  0  0  0  0
   38.9340   27.1640   35.4840 C   0  0  0  0  0  0  0  0  0  0  0  0
   38.2140   26.2140   36.2150 C   0  0  0  0  0  0  0  0  0  0  0  0
   38.6330   24.9080   36.2480 C   0  0  0  0  0  0  0  0  0  0  0  0
   40.6280   27.5200   34.2230 H   0  0  0  0  0  0  0  0  0  0  0  0
   38.6520   28.2060   35.4190 H   0  0  0  0  0  0  0  0  0  0  0  0
   37.3370   26.5770   36.7320 H   0  0  0  0  0  0  0  0  0  0  0  0
   42.9530   25.1030   34.7100 C   0  0  0  0  0  0  0  0  0  0  0  0
   41.7050   25.0370   34.0930 C   0  0  0  0  0  0  0  0  0  0  0  0
   41.6570   24.5750   32.7810 C   0  0  0  0  0  0  0  0  0  0  0  0
   42.8140   24.2110   32.1600 N   0  0  0  0  0  0  0  0  0  0  0  0
   44.0130   24.2940   32.8070 C   0  0  0  0  0  0  0  0  0  0  0  0
   44.0780   24.7380   34.0780 N   0  0  0  0  0  0  0  0  0  0  0  0
   42.9850   25.4630   35.7310 H   0  0  0  0  0  0  0  0  0  0  0  0
   40.7150   24.5040   32.2560 H   0  0  0  0  0  0  0  0  0  0  0  0
   44.9440   24.0130   32.3410 H   0  0  0  0  0  0  0  0  0  0  0  0
   40.1280   23.2330   35.6290 O   0  0  0  0  0  0  0  0  0  0  0  0
   39.6130   22.6160   35.0020 H   0  0  0  0  0  0  0  0  0  0  0  0
   37.8900   24.0120   36.9800 O   0  0  0  0  0  0  0  0  0  0  0  0
   37.9750   23.7760   38.3570 C   0  0  0  0  0  0  0  0  0  0  0  0
   39.2990   23.4120   38.6400 F   0  0  0  0  0  0  0  0  0  0  0  0
   37.1690   22.7670   38.8130 F   0  0  0  0  0  0  0  0  0  0  0  0
   37.7530   24.9100   39.1150 F   0  0  0  0  0  0  0  0  0  0  0  0
  1 19  1  0  0  0  0
  1  6  1  0  0  0  0
  2  1  2  0  0  0  0
  3  2  1  0  0  0  0
  3  4  2  0  0  0  0
  4  5  1  0  0  0  0
  5  6  2  0  0  0  0
  5  9  1  0  0  0  0
  6 21  1  0  0  0  0
  7  3  1  0  0  0  0
  8  4  1  0  0  0  0
 10 16  1  0  0  0  0
 11 10  1  0  0  0  0
 11  2  1  0  0  0  0
 12 11  2  0  0  0  0
 13 12  1  0  0  0  0
 13 14  2  0  0  0  0
 14 15  1  0  0  0  0
 15 10  2  0  0  0  0
 17 12  1  0  0  0  0
 18 14  1  0  0  0  0
 20 19  1  0  0  0  0
 21 22  1  0  0  0  0
 22 23  1  0  0  0  0
 22 24  1  0  0  0  0
 22 25  1  0  0  0  0
M  END
>  <minimizedAffinity>
-4.81355572

$$$$

 OpenBabel03272501193D

 25 26  0  0  0  0  0  0  0  0999 V2000
   38.2230   24.5460   34.7790 C   0  0  0  0  0  0  0  0  0  0  0  0
   38.7640   25.2580   33.7280 C   0  0  0  0  0  0  0  0  0  0  0  0
   39.0940   26.5920   34.0090 C   0  0  0  0  0  0  0  0  0  0  0  0
   38.8740   27.1310   35.2900 C   0  0  0  0  0  0  0  0  0  0  0  0
   38.3190   26.3290   36.2920 C   0  0  0  0  0  0  0  0  0  0  0  0
   37.9920   25.0240   36.0280 C   0  0  0  0  0  0  0  0  0  0  0  0
   39.5220   27.2260   33.2510 H   0  0  0  0  0  0  0  0  0  0  0  0
   39.1500   28.1660   35.4380 H   0  0  0  0  0  0  0  0  0  0  0  0
   38.1740   26.8020   37.2530 H   0  0  0  0  0  0  0  0  0  0  0  0
   37.9660   24.7100   31.4750 C   0  0  0  0  0  0  0  0  0  0  0  0
   38.9890   24.7030   32.4220 C   0  0  0  0  0  0  0  0  0  0  0  0
   40.2080   24.1420   32.0520 C   0  0  0  0  0  0  0  0  0  0  0  0
   40.3530   23.6310   30.7970 N   0  0  0  0  0  0  0  0  0  0  0  0
   39.3210   23.6620   29.9040 C   0  0  0  0  0  0  0  0  0  0  0  0
   38.1330   24.2010   30.2450 N   0  0  0  0  0  0  0  0  0  0  0  0
   37.0200   25.1470   31.7670 H   0  0  0  0  0  0  0  0  0  0  0  0
   41.0340   24.1110   32.7480 H   0  0  0  0  0  0  0  0  0  0  0  0
   39.4060   23.2650   28.9050 H   0  0  0  0  0  0  0  0  0  0  0  0
   37.8700   23.2090   34.5720 O   0  0  0  0  0  0  0  0  0  0  0  0
   36.8780   23.0580   34.3970 H   0  0  0  0  0  0  0  0  0  0  0  0
   37.4470   24.2780   37.0460 O   0  0  0  0  0  0  0  0  0  0  0  0
   38.0720   23.9040   38.2420 C   0  0  0  0  0  0  0  0  0  0  0  0
   37.3160   22.8670   38.8050 F   0  0  0  0  0  0  0  0  0  0  0  0
   38.1570   24.9000   39.1760 F   0  0  0  0  0  0  0  0  0  0  0  0
   39.3270   23.3580   38.0490 F   0  0  0  0  0  0  0  0  0  0  0  0
  1  6  1  0  0  0  0
  2  3  1  0  0  0  0
  2  1  2  0  0  0  0
  3  4  2  0  0  0  0
  4  8  1  0  0  0  0
  4  5  1  0  0  0  0
  5  9  1  0  0  0  0
  6  5  2  0  0  0  0
  6 21  1  0  0  0  0
  7  3  1  0  0  0  0
 10 16  1  0  0  0  0
 10 11  1  0  0  0  0
 11  2  1  0  0  0  0
 12 11  2  0  0  0  0
 12 17  1  0  0  0  0
 13 12  1  0  0  0  0
 14 15  1  0  0  0  0
 14 13  2  0  0  0  0
 15 10  2  0  0  0  0
 18 14  1  0  0  0  0
 19  1  1  0  0  0  0
 20 19  1  0  0  0  0
 21 22  1  0  0  0  0
 22 23  1  0  0  0  0
 22 24  1  0  0  0  0
 25 22  1  0  0  0  0
M  END
>  <minimizedAffinity>
-4.79418993

$$$$

 OpenBabel03272501193D

 25 26  0  0  0  0  0  0  0  0999 V2000
   37.6170   25.6590   34.0090 C   0  0  0  0  0  0  0  0  0  0  0  0
   37.5750   27.0360   33.9620 C   0  0  0  0  0  0  0  0  0  0  0  0
   37.9880   27.6920   35.1310 C   0  0  0  0  0  0  0  0  0  0  0  0
   38.4110   26.9580   36.2550 C   0  0  0  0  0  0  0  0  0  0  0  0
   38.4180   25.5610   36.2060 C   0  0  0  0  0  0  0  0  0  0  0  0
   38.0160   24.9100   35.0680 C   0  0  0  0  0  0  0  0  0  0  0  0
   37.9890   28.7680   35.1900 H   0  0  0  0  0  0  0  0  0  0  0  0
   38.7160   27.5270   37.1230 H   0  0  0  0  0  0  0  0  0  0  0  0
   38.7530   25.0560   37.1010 H   0  0  0  0  0  0  0  0  0  0  0  0
   35.8890   28.3880   32.8040 C   0  0  0  0  0  0  0  0  0  0  0  0
   37.1440   27.7820   32.8120 C   0  0  0  0  0  0  0  0  0  0  0  0
   37.9400   27.9270   31.6790 C   0  0  0  0  0  0  0  0  0  0  0  0
   37.4680   28.6460   30.6220 N   0  0  0  0  0  0  0  0  0  0  0  0
   36.2310   29.2210   30.6610 C   0  0  0  0  0  0  0  0  0  0  0  0
   35.4470   29.0910   31.7500 N   0  0  0  0  0  0  0  0  0  0  0  0
   35.2730   28.2720   33.6870 H   0  0  0  0  0  0  0  0  0  0  0  0
   38.9210   27.4780   31.6340 H   0  0  0  0  0  0  0  0  0  0  0  0
   35.8310   29.7950   29.8400 H   0  0  0  0  0  0  0  0  0  0  0  0
   37.2200   24.9370   32.8790 O   0  0  0  0  0  0  0  0  0  0  0  0
   36.2680   24.5750   32.9230 H   0  0  0  0  0  0  0  0  0  0  0  0
   38.0390   23.5350   35.0710 O   0  0  0  0  0  0  0  0  0  0  0  0
   37.8560   22.6940   36.1750 C   0  0  0  0  0  0  0  0  0  0  0  0
   37.4280   21.4510   35.6890 F   0  0  0  0  0  0  0  0  0  0  0  0
   36.9170   23.1260   37.0720 F   0  0  0  0  0  0  0  0  0  0  0  0
   39.0330   22.4210   36.8470 F   0  0  0  0  0  0  0  0  0  0  0  0
  1  6  1  0  0  0  0
  2  1  2  0  0  0  0
  2  3  1  0  0  0  0
  3  7  1  0  0  0  0
  3  4  2  0  0  0  0
  4  8  1  0  0  0  0
  5  4  1  0  0  0  0
  5  9  1  0  0  0  0
  6 21  1  0  0  0  0
  6  5  2  0  0  0  0
 10 11  1  0  0  0  0
 10 16  1  0  0  0  0
 11  2  1  0  0  0  0
 12 11  2  0  0  0  0
 13 14  2  0  0  0  0
 13 12  1  0  0  0  0
 14 15  1  0  0  0  0
 15 10  2  0  0  0  0
 17 12  1  0  0  0  0
 18 14  1  0  0  0  0
 19 20  1  0  0  0  0
 19  1  1  0  0  0  0
 21 22  1  0  0  0  0
 22 25  1  0  0  0  0
 22 24  1  0  0  0  0
 23 22  1  0  0  0  0
M  END
>  <minimizedAffinity>
-4.7676754

$$$$

 OpenBabel03272501193D

 25 26  0  0  0  0  0  0  0  0999 V2000
   37.8690   22.9480   33.8190 C   0  0  0  0  0  0  0  0  0  0  0  0
   38.4700   23.8760   34.6440 C   0  0  0  0  0  0  0  0  0  0  0  0
   38.9310   25.0380   34.0090 C   0  0  0  0  0  0  0  0  0  0  0  0
   38.7700   25.2100   32.6220 C   0  0  0  0  0  0  0  0  0  0  0  0
   38.1460   24.2110   31.8690 C   0  0  0  0  0  0  0  0  0  0  0  0
   37.6930   23.0700   32.4790 C   0  0  0  0  0  0  0  0  0  0  0  0
   39.4150   25.8190   34.5710 H   0  0  0  0  0  0  0  0  0  0  0  0
   39.1490   26.1300   32.1960 H   0  0  0  0  0  0  0  0  0  0  0  0
   38.0540   24.4030   30.8090 H   0  0  0  0  0  0  0  0  0  0  0  0
   37.6900   24.2230   36.9430 C   0  0  0  0  0  0  0  0  0  0  0  0
   38.6320   23.6960   36.0600 C   0  0  0  0  0  0  0  0  0  0  0  0
   39.7110   23.0060   36.6040 C   0  0  0  0  0  0  0  0  0  0  0  0
   39.8040   22.8750   37.9570 N   0  0  0  0  0  0  0  0  0  0  0  0
   38.8560   23.4090   38.7810 C   0  0  0  0  0  0  0  0  0  0  0  0
   37.8040   24.0800   38.2710 N   0  0  0  0  0  0  0  0  0  0  0  0
   36.8520   24.7590   36.5150 H   0  0  0  0  0  0  0  0  0  0  0  0
   40.4700   22.5770   35.9650 H   0  0  0  0  0  0  0  0  0  0  0  0
   38.9040   23.3210   39.8550 H   0  0  0  0  0  0  0  0  0  0  0  0
   37.3850   21.7640   34.3830 O   0  0  0  0  0  0  0  0  0  0  0  0
   38.0030   20.9620   34.2750 H   0  0  0  0  0  0  0  0  0  0  0  0
   37.0880   22.1170   31.6950 O   0  0  0  0  0  0  0  0  0  0  0  0
   35.7250   22.0180   31.3920 C   0  0  0  0  0  0  0  0  0  0  0  0
   35.3610   23.1850   30.7060 F   0  0  0  0  0  0  0  0  0  0  0  0
   34.9050   21.9130   32.4830 F   0  0  0  0  0  0  0  0  0  0  0  0
   35.4400   20.9910   30.5120 F   0  0  0  0  0  0  0  0  0  0  0  0
  1 19  1  0  0  0  0
  1  2  1  0  0  0  0
  2 11  1  0  0  0  0
  3  7  1  0  0  0  0
  3  2  2  0  0  0  0
  4  3  1  0  0  0  0
  5  6  1  0  0  0  0
  5  4  2  0  0  0  0
  6  1  2  0  0  0  0
  8  4  1  0  0  0  0
  9  5  1  0  0  0  0
 10 15  1  0  0  0  0
 11 12  1  0  0  0  0
 11 10  2  0  0  0  0
 12 13  2  0  0  0  0
 13 14  1  0  0  0  0
 14 18  1  0  0  0  0
 15 14  2  0  0  0  0
 16 10  1  0  0  0  0
 17 12  1  0  0  0  0
 20 19  1  0  0  0  0
 21  6  1  0  0  0  0
 22 21  1  0  0  0  0
 22 24  1  0  0  0  0
 23 22  1  0  0  0  0
 25 22  1  0  0  0  0
M  END
>  <minimizedAffinity>
-4.69605446

$$$$

 OpenBabel03272501193D

 25 26  0  0  0  0  0  0  0  0999 V2000
   38.6030   24.4430   35.1850 C   0  0  0  0  0  0  0  0  0  0  0  0
   38.1500   24.4030   33.8830 C   0  0  0  0  0  0  0  0  0  0  0  0
   37.7360   23.1430   33.4270 C   0  0  0  0  0  0  0  0  0  0  0  0
   37.7920   22.0200   34.2720 C   0  0  0  0  0  0  0  0  0  0  0  0
   38.2680   22.1610   35.5800 C   0  0  0  0  0  0  0  0  0  0  0  0
   38.6770   23.3880   36.0350 C   0  0  0  0  0  0  0  0  0  0  0  0
   37.3670   23.0130   32.4240 H   0  0  0  0  0  0  0  0  0  0  0  0
   37.4580   21.0780   33.8570 H   0  0  0  0  0  0  0  0  0  0  0  0
   38.2870   21.2610   36.1780 H   0  0  0  0  0  0  0  0  0  0  0  0
   39.1870   25.8840   32.2260 C   0  0  0  0  0  0  0  0  0  0  0  0
   38.0930   25.5530   33.0240 C   0  0  0  0  0  0  0  0  0  0  0  0
   36.9700   26.3720   32.9520 C   0  0  0  0  0  0  0  0  0  0  0  0
   36.9830   27.4490   32.1170 N   0  0  0  0  0  0  0  0  0  0  0  0
   38.0800   27.7320   31.3550 C   0  0  0  0  0  0  0  0  0  0  0  0
   39.1760   26.9500   31.4120 N   0  0  0  0  0  0  0  0  0  0  0  0
   40.0580   25.2440   32.2850 H   0  0  0  0  0  0  0  0  0  0  0  0
   36.0950   26.1610   33.5490 H   0  0  0  0  0  0  0  0  0  0  0  0
   38.1190   28.5770   30.6860 H   0  0  0  0  0  0  0  0  0  0  0  0
   39.0330   25.6670   35.7080 O   0  0  0  0  0  0  0  0  0  0  0  0
   40.0440   25.7940   35.7070 H   0  0  0  0  0  0  0  0  0  0  0  0
   39.1390   23.4740   37.3270 O   0  0  0  0  0  0  0  0  0  0  0  0
   38.3830   23.7450   38.4740 C   0  0  0  0  0  0  0  0  0  0  0  0
   39.2630   23.7540   39.5650 F   0  0  0  0  0  0  0  0  0  0  0  0
   37.4080   22.8230   38.7450 F   0  0  0  0  0  0  0  0  0  0  0  0
   37.8220   25.0080   38.4660 F   0  0  0  0  0  0  0  0  0  0  0  0
  1 19  1  0  0  0  0
  1  6  1  0  0  0  0
  2  1  2  0  0  0  0
  3  2  1  0  0  0  0
  3  4  2  0  0  0  0
  4  5  1  0  0  0  0
  5  6  2  0  0  0  0
  5  9  1  0  0  0  0
  6 21  1  0  0  0  0
  7  3  1  0  0  0  0
  8  4  1  0  0  0  0
 10 16  1  0  0  0  0
 10 11  1  0  0  0  0
 11  2  1  0  0  0  0
 12 11  2  0  0  0  0
 12 17  1  0  0  0  0
 13 12  1  0  0  0  0
 14 15  1  0  0  0  0
 14 13  2  0  0  0  0
 15 10  2  0  0  0  0
 18 14  1  0  0  0  0
 20 19  1  0  0  0  0
 21 22  1  0  0  0  0
 22 24  1  0  0  0  0
 22 23  1  0  0  0  0
 25 22  1  0  0  0  0
M  END
>  <minimizedAffinity>
-4.68407297

$$$$

 OpenBabel03272501193D

 25 26  0  0  0  0  0  0  0  0999 V2000
   37.0580   24.5320   32.5720 C   0  0  0  0  0  0  0  0  0  0  0  0
   36.2040   23.8250   31.7520 C   0  0  0  0  0  0  0  0  0  0  0  0
   35.3430   24.6030   30.9640 C   0  0  0  0  0  0  0  0  0  0  0  0
   35.3790   26.0080   31.0340 C   0  0  0  0  0  0  0  0  0  0  0  0
   36.2820   26.6350   31.8980 C   0  0  0  0  0  0  0  0  0  0  0  0
   37.1280   25.8840   32.6730 C   0  0  0  0  0  0  0  0  0  0  0  0
   34.6400   24.1400   30.2930 H   0  0  0  0  0  0  0  0  0  0  0  0
   34.6870   26.5470   30.3990 H   0  0  0  0  0  0  0  0  0  0  0  0
   36.2600   27.7150   31.9060 H   0  0  0  0  0  0  0  0  0  0  0  0
   35.1920   21.6810   32.3770 C   0  0  0  0  0  0  0  0  0  0  0  0
   36.1710   22.3910   31.6830 C   0  0  0  0  0  0  0  0  0  0  0  0
   37.0940   21.6600   30.9400 C   0  0  0  0  0  0  0  0  0  0  0  0
   37.0070   20.3000   30.9200 N   0  0  0  0  0  0  0  0  0  0  0  0
   36.0300   19.6500   31.6170 C   0  0  0  0  0  0  0  0  0  0  0  0
   35.1270   20.3410   32.3410 N   0  0  0  0  0  0  0  0  0  0  0  0
   34.4760   22.2530   32.9530 H   0  0  0  0  0  0  0  0  0  0  0  0
   37.8730   22.1610   30.3840 H   0  0  0  0  0  0  0  0  0  0  0  0
   35.9370   18.5760   31.6200 H   0  0  0  0  0  0  0  0  0  0  0  0
   37.9460   23.8220   33.3870 O   0  0  0  0  0  0  0  0  0  0  0  0
   37.6410   23.7210   34.3540 H   0  0  0  0  0  0  0  0  0  0  0  0
   37.9950   26.5470   33.5080 O   0  0  0  0  0  0  0  0  0  0  0  0
   37.6930   27.1230   34.7480 C   0  0  0  0  0  0  0  0  0  0  0  0
   36.9670   26.1770   35.4850 F   0  0  0  0  0  0  0  0  0  0  0  0
   36.9310   28.2580   34.6790 F   0  0  0  0  0  0  0  0  0  0  0  0
   38.8160   27.3770   35.5140 F   0  0  0  0  0  0  0  0  0  0  0  0
  1  6  1  0  0  0  0
  1 19  1  0  0  0  0
  2  1  2  0  0  0  0
  3  4  2  0  0  0  0
  3  2  1  0  0  0  0
  4  5  1  0  0  0  0
  5  9  1  0  0  0  0
  5  6  2  0  0  0  0
  6 21  1  0  0  0  0
  7  3  1  0  0  0  0
  8  4  1  0  0  0  0
 10 16  1  0  0  0  0
 11  2  1  0  0  0  0
 11 10  2  0  0  0  0
 12 11  1  0  0  0  0
 13 12  2  0  0  0  0
 13 14  1  0  0  0  0
 14 18  1  0  0  0  0
 14 15  2  0  0  0  0
 15 10  1  0  0  0  0
 17 12  1  0  0  0  0
 19 20  1  0  0  0  0
 21 22  1  0  0  0  0
 22 23  1  0  0  0  0
 22 25  1  0  0  0  0
 24 22  1  0  0  0  0
M  END
>  <minimizedAffinity>
-4.67991638

$$$$

 OpenBabel03272501193D

 25 26  0  0  0  0  0  0  0  0999 V2000
   39.5050   23.5510   35.7150 C   0  0  0  0  0  0  0  0  0  0  0  0
   38.7640   24.7110   35.6280 C   0  0  0  0  0  0  0  0  0  0  0  0
   38.0860   25.0820   36.7990 C   0  0  0  0  0  0  0  0  0  0  0  0
   38.1820   24.2990   37.9630 C   0  0  0  0  0  0  0  0  0  0  0  0
   38.9590   23.1370   37.9520 C   0  0  0  0  0  0  0  0  0  0  0  0
   39.6260   22.7640   36.8130 C   0  0  0  0  0  0  0  0  0  0  0  0
   37.4810   25.9730   36.8270 H   0  0  0  0  0  0  0  0  0  0  0  0
   37.6330   24.6420   38.8300 H   0  0  0  0  0  0  0  0  0  0  0  0
   38.9910   22.5780   38.8770 H   0  0  0  0  0  0  0  0  0  0  0  0
   39.6230   26.4920   34.1780 C   0  0  0  0  0  0  0  0  0  0  0  0
   38.6700   25.5100   34.4370 C   0  0  0  0  0  0  0  0  0  0  0  0
   37.6440   25.3440   33.5100 C   0  0  0  0  0  0  0  0  0  0  0  0
   37.6140   26.1370   32.4020 N   0  0  0  0  0  0  0  0  0  0  0  0
   38.5710   27.0870   32.1930 C   0  0  0  0  0  0  0  0  0  0  0  0
   39.5710   27.2600   33.0800 N   0  0  0  0  0  0  0  0  0  0  0  0
   40.4190   26.6180   34.9020 H   0  0  0  0  0  0  0  0  0  0  0  0
   36.8800   24.5960   33.6630 H   0  0  0  0  0  0  0  0  0  0  0  0
   38.5720   27.7280   31.3260 H   0  0  0  0  0  0  0  0  0  0  0  0
   40.2080   23.1190   34.5860 O   0  0  0  0  0  0  0  0  0  0  0  0
   39.7430   22.3850   34.0550 H   0  0  0  0  0  0  0  0  0  0  0  0
   40.3750   21.6120   36.8530 O   0  0  0  0  0  0  0  0  0  0  0  0
   41.7490   21.5110   37.1030 C   0  0  0  0  0  0  0  0  0  0  0  0
   42.3260   20.8440   36.0130 F   0  0  0  0  0  0  0  0  0  0  0  0
   42.0730   20.8050   38.2300 F   0  0  0  0  0  0  0  0  0  0  0  0
   42.3830   22.7380   37.1390 F   0  0  0  0  0  0  0  0  0  0  0  0
  1  6  1  0  0  0  0
  2  1  2  0  0  0  0
  2  3  1  0  0  0  0
  3  7  1  0  0  0  0
  3  4  2  0  0  0  0
  4  8  1  0  0  0  0
  5  4  1  0  0  0  0
  5  9  1  0  0  0  0
  6 21  1  0  0  0  0
  6  5  2  0  0  0  0
 10 11  1  0  0  0  0
 10 16  1  0  0  0  0
 11  2  1  0  0  0  0
 12 17  1  0  0  0  0
 12 11  2  0  0  0  0
 13 12  1  0  0  0  0
 14 13  2  0  0  0  0
 14 15  1  0  0  0  0
 15 10  2  0  0  0  0
 18 14  1  0  0  0  0
 19  1  1  0  0  0  0
 20 19  1  0  0  0  0
 21 22  1  0  0  0  0
 22 25  1  0  0  0  0
 22 24  1  0  0  0  0
 23 22  1  0  0  0  0
M  END
>  <minimizedAffinity>
-4.64590836

$$$$

 OpenBabel03272501193D

 25 26  0  0  0  0  0  0  0  0999 V2000
   37.7970   25.3510   34.2750 C   0  0  0  0  0  0  0  0  0  0  0  0
   38.5280   25.4770   35.4380 C   0  0  0  0  0  0  0  0  0  0  0  0
   38.5060   26.7480   36.0300 C   0  0  0  0  0  0  0  0  0  0  0  0
   37.7740   27.7980   35.4470 C   0  0  0  0  0  0  0  0  0  0  0  0
   37.0630   27.5730   34.2650 C   0  0  0  0  0  0  0  0  0  0  0  0
   37.0780   26.3340   33.6770 C   0  0  0  0  0  0  0  0  0  0  0  0
   39.0470   26.9420   36.9400 H   0  0  0  0  0  0  0  0  0  0  0  0
   37.8000   28.7530   35.9560 H   0  0  0  0  0  0  0  0  0  0  0  0
   36.5210   28.4200   33.8670 H   0  0  0  0  0  0  0  0  0  0  0  0
   40.5430   24.0830   35.5500 C   0  0  0  0  0  0  0  0  0  0  0  0
   39.2740   24.4010   36.0300 C   0  0  0  0  0  0  0  0  0  0  0  0
   38.7740   23.6430   37.0850 C   0  0  0  0  0  0  0  0  0  0  0  0
   39.5330   22.6340   37.5990 N   0  0  0  0  0  0  0  0  0  0  0  0
   40.7710   22.3610   37.0940 C   0  0  0  0  0  0  0  0  0  0  0  0
   41.2710   23.0860   36.0730 N   0  0  0  0  0  0  0  0  0  0  0  0
   40.9280   24.6760   34.7290 H   0  0  0  0  0  0  0  0  0  0  0  0
   37.7950   23.8470   37.4950 H   0  0  0  0  0  0  0  0  0  0  0  0
   41.3940   21.5700   37.4800 H   0  0  0  0  0  0  0  0  0  0  0  0
   37.7740   24.1110   33.6280 O   0  0  0  0  0  0  0  0  0  0  0  0
   38.4120   24.0360   32.8390 H   0  0  0  0  0  0  0  0  0  0  0  0
   36.3650   26.1640   32.5140 O   0  0  0  0  0  0  0  0  0  0  0  0
   36.8280   26.3620   31.2070 C   0  0  0  0  0  0  0  0  0  0  0  0
   36.9180   25.1030   30.5980 F   0  0  0  0  0  0  0  0  0  0  0  0
   38.0640   26.9450   31.1230 F   0  0  0  0  0  0  0  0  0  0  0  0
   35.9390   27.0700   30.4200 F   0  0  0  0  0  0  0  0  0  0  0  0
  1  2  1  0  0  0  0
  2 11  1  0  0  0  0
  2  3  2  0  0  0  0
  3  7  1  0  0  0  0
  4  8  1  0  0  0  0
  4  3  1  0  0  0  0
  5  4  2  0  0  0  0
  6  5  1  0  0  0  0
  6  1  2  0  0  0  0
  9  5  1  0  0  0  0
 10 11  2  0  0  0  0
 10 15  1  0  0  0  0
 11 12  1  0  0  0  0
 12 17  1  0  0  0  0
 12 13  2  0  0  0  0
 14 18  1  0  0  0  0
 14 13  1  0  0  0  0
 15 14  2  0  0  0  0
 16 10  1  0  0  0  0
 19  1  1  0  0  0  0
 20 19  1  0  0  0  0
 21  6  1  0  0  0  0
 22 21  1  0  0  0  0
 23 22  1  0  0  0  0
 24 22  1  0  0  0  0
 25 22  1  0  0  0  0
M  END
>  <minimizedAffinity>
-4.606915

$$$$

 OpenBabel03272501193D

 25 26  0  0  0  0  0  0  0  0999 V2000
   37.2950   23.0370   32.8810 C   0  0  0  0  0  0  0  0  0  0  0  0
   37.3530   24.4110   32.7760 C   0  0  0  0  0  0  0  0  0  0  0  0
   36.4700   24.9830   31.8490 C   0  0  0  0  0  0  0  0  0  0  0  0
   35.5970   24.1760   31.0970 C   0  0  0  0  0  0  0  0  0  0  0  0
   35.6120   22.7890   31.2740 C   0  0  0  0  0  0  0  0  0  0  0  0
   36.4720   22.2190   32.1770 C   0  0  0  0  0  0  0  0  0  0  0  0
   36.4440   26.0490   31.6970 H   0  0  0  0  0  0  0  0  0  0  0  0
   34.9430   24.6820   30.3990 H   0  0  0  0  0  0  0  0  0  0  0  0
   34.9190   22.2250   30.6660 H   0  0  0  0  0  0  0  0  0  0  0  0
   37.8390   25.7360   34.7820 C   0  0  0  0  0  0  0  0  0  0  0  0
   38.2450   25.2310   33.5470 C   0  0  0  0  0  0  0  0  0  0  0  0
   39.5260   25.5550   33.1060 C   0  0  0  0  0  0  0  0  0  0  0  0
   40.3200   26.3410   33.8870 N   0  0  0  0  0  0  0  0  0  0  0  0
   39.8770   26.8110   35.0900 C   0  0  0  0  0  0  0  0  0  0  0  0
   38.6400   26.5070   35.5320 N   0  0  0  0  0  0  0  0  0  0  0  0
   36.8430   25.4810   35.1200 H   0  0  0  0  0  0  0  0  0  0  0  0
   39.8900   25.1900   32.1570 H   0  0  0  0  0  0  0  0  0  0  0  0
   40.4830   27.4340   35.7280 H   0  0  0  0  0  0  0  0  0  0  0  0
   38.1470   22.3970   33.7860 O   0  0  0  0  0  0  0  0  0  0  0  0
   38.9830   21.9930   33.3660 H   0  0  0  0  0  0  0  0  0  0  0  0
   36.4500   20.8510   32.3130 O   0  0  0  0  0  0  0  0  0  0  0  0
   35.4640   20.0850   32.9470 C   0  0  0  0  0  0  0  0  0  0  0  0
   35.9320   18.7650   33.0070 F   0  0  0  0  0  0  0  0  0  0  0  0
   34.2580   20.0610   32.3000 F   0  0  0  0  0  0  0  0  0  0  0  0
   35.2630   20.4460   34.2660 F   0  0  0  0  0  0  0  0  0  0  0  0
  1 19  1  0  0  0  0
  2  1  1  0  0  0  0
  2 11  1  0  0  0  0
  3  2  2  0  0  0  0
  4  5  2  0  0  0  0
  4  3  1  0  0  0  0
  5  6  1  0  0  0  0
  6 21  1  0  0  0  0
  6  1  2  0  0  0  0
  7  3  1  0  0  0  0
  8  4  1  0  0  0  0
  9  5  1  0  0  0  0
 10 16  1  0  0  0  0
 10 15  1  0  0  0  0
 11 10  2  0  0  0  0
 12 11  1  0  0  0  0
 12 13  2  0  0  0  0
 13 14  1  0  0  0  0
 14 15  2  0  0  0  0
 14 18  1  0  0  0  0
 17 12  1  0  0  0  0
 20 19  1  0  0  0  0
 21 22  1  0  0  0  0
 22 23  1  0  0  0  0
 22 25  1  0  0  0  0
 24 22  1  0  0  0  0
M  END
>  <minimizedAffinity>
-4.53209448

$$$$
