
 OpenBabel03272510243D

 27 29  0  0  0  0  0  0  0  0999 V2000
   38.3280   31.3500   49.1100 C   0  0  0  0  0  0  0  0  0  0  0  0
   38.0920   31.1250   47.7690 C   0  0  0  0  0  0  0  0  0  0  0  0
   36.9510   30.4750   47.3570 C   0  0  0  0  0  0  0  0  0  0  0  0
   36.0590   30.0590   48.3430 C   0  0  0  0  0  0  0  0  0  0  0  0
   34.8700   29.4010   48.1830 N   0  0  0  0  0  0  0  0  0  0  0  0
   34.3800   29.2210   49.4070 C   0  0  0  0  0  0  0  0  0  0  0  0
   35.1800   29.7250   50.3330 N   0  0  0  0  0  0  0  0  0  0  0  0
   36.2560   30.2640   49.6940 C   0  0  0  0  0  0  0  0  0  0  0  0
   37.4210   30.9260   50.0800 C   0  0  0  0  0  0  0  0  0  0  0  0
   39.2160   31.8600   49.4830 H   0  0  0  0  0  0  0  0  0  0  0  0
   36.7650   30.2970   46.3090 H   0  0  0  0  0  0  0  0  0  0  0  0
   34.4670   29.1150   47.2500 H   0  0  0  0  0  0  0  0  0  0  0  0
   37.5830   31.0900   51.1330 H   0  0  0  0  0  0  0  0  0  0  0  0
   40.6700   31.3800   45.0440 C   0  0  0  0  0  0  0  0  0  0  0  0
   39.7360   30.7990   45.8950 C   0  0  0  0  0  0  0  0  0  0  0  0
   39.0880   31.5980   46.8220 C   0  0  0  0  0  0  0  0  0  0  0  0
   39.4050   32.9360   46.8540 N   0  0  0  0  0  0  0  0  0  0  0  0
   40.3220   33.4780   46.0130 C   0  0  0  0  0  0  0  0  0  0  0  0
   40.9410   32.7080   45.1240 N   0  0  0  0  0  0  0  0  0  0  0  0
   41.1920   30.7800   44.3100 H   0  0  0  0  0  0  0  0  0  0  0  0
   39.4930   29.7600   45.8650 H   0  0  0  0  0  0  0  0  0  0  0  0
   40.4600   34.5420   46.1630 H   0  0  0  0  0  0  0  0  0  0  0  0
   33.1620   28.5750   49.6200 O   0  0  0  0  0  0  0  0  0  0  0  0
   32.4990   27.8320   48.6450 C   0  0  0  0  0  0  0  0  0  0  0  0
   33.3150   26.7920   48.2360 F   0  0  0  0  0  0  0  0  0  0  0  0
   32.2420   28.5930   47.5080 F   0  0  0  0  0  0  0  0  0  0  0  0
   31.3120   27.3700   49.1820 F   0  0  0  0  0  0  0  0  0  0  0  0
  1 10  1  0  0  0  0
  1  9  1  0  0  0  0
  2  1  2  0  0  0  0
  3  2  1  0  0  0  0
  3  4  2  0  0  0  0
  4  8  1  0  0  0  0
  5  4  1  0  0  0  0
  5  6  1  0  0  0  0
  6 23  1  0  0  0  0
  6  7  2  0  0  0  0
  8  9  2  0  0  0  0
  8  7  1  0  0  0  0
  9 13  1  0  0  0  0
 11  3  1  0  0  0  0
 12  5  1  0  0  0  0
 14 19  2  0  0  0  0
 14 15  1  0  0  0  0
 15 16  2  0  0  0  0
 16 17  1  0  0  0  0
 16  2  1  0  0  0  0
 18 22  1  0  0  0  0
 18 17  2  0  0  0  0
 19 18  1  0  0  0  0
 20 14  1  0  0  0  0
 21 15  1  0  0  0  0
 24 27  1  0  0  0  0
 24 23  1  0  0  0  0
 25 24  1  0  0  0  0
 26 24  1  0  0  0  0
M  END
>  <minimizedAffinity>
-6.01355934

>  <minimizedRMSD>
7.92397261

$$$$
