
 OpenBabel03272504243D

 34 35  0  0  1  0  0  0  0  0999 V2000
   36.6110   27.5340   34.8520 O   0  0  0  0  0  0  0  0  0  0  0  0
   37.9680   26.8750   34.8410 P   0  0  2  0  0  0  0  0  0  0  0  0
   38.8990   27.5830   36.0990 O   0  0  0  0  0  0  0  0  0  0  0  0
   39.6100   26.9160   36.3250 H   0  0  0  0  0  0  0  0  0  0  0  0
   38.7480   27.1490   33.3550 O   0  0  0  0  0  0  0  0  0  0  0  0
   37.7700   27.1890   32.3830 C   0  0  0  0  0  0  0  0  0  0  0  0
   38.1900   27.8040   31.5370 H   0  0  0  0  0  0  0  0  0  0  0  0
   36.8740   27.7130   32.7450 H   0  0  0  0  0  0  0  0  0  0  0  0
   37.4570   25.8630   31.8070 C   0  0  0  0  0  0  0  0  0  0  0  0
   38.4350   25.2730   31.0410 C   0  0  0  0  0  0  0  0  0  0  0  0
   38.2000   24.0190   30.4690 C   0  0  0  0  0  0  0  0  0  0  0  0
   36.9870   23.4480   30.7150 N   0  0  0  0  0  0  0  0  0  0  0  0
   36.0460   24.0460   31.4690 C   0  0  0  0  0  0  0  0  0  0  0  0
   36.2740   25.2570   32.0220 N   0  0  0  0  0  0  0  0  0  0  0  0
   39.4120   25.6430   30.7930 H   0  0  0  0  0  0  0  0  0  0  0  0
   38.8900   23.4760   29.8590 H   0  0  0  0  0  0  0  0  0  0  0  0
   35.1210   23.5060   31.6010 H   0  0  0  0  0  0  0  0  0  0  0  0
   37.7920   25.2270   35.1100 O   0  0  0  0  0  0  0  0  0  0  0  0
   38.5920   23.3450   36.2170 C   0  0  2  0  0  0  0  0  0  0  0  0
   38.9790   24.6210   35.5060 C   0  0  1  0  0  0  0  0  0  0  0  0
   39.6450   23.9870   34.2680 C   0  0  0  0  0  0  0  0  0  0  0  0
   38.6770   23.0740   33.8850 O   0  0  0  0  0  0  0  0  0  0  0  0
   38.1430   22.4980   35.0170 C   0  0  0  0  0  0  0  0  0  0  0  0
   39.4260   22.8710   36.7440 H   0  0  0  0  0  0  0  0  0  0  0  0
   39.6610   25.2700   36.0550 H   0  0  0  0  0  0  0  0  0  0  0  0
   39.8400   24.7150   33.4830 H   0  0  0  0  0  0  0  0  0  0  0  0
   40.5860   23.5190   34.6160 H   0  0  0  0  0  0  0  0  0  0  0  0
   38.6020   21.4960   35.1580 H   0  0  0  0  0  0  0  0  0  0  0  0
   37.0490   22.4200   34.9820 H   0  0  0  0  0  0  0  0  0  0  0  0
   37.5510   23.6380   37.0810 O   0  0  0  0  0  0  0  0  0  0  0  0
   37.9320   23.6060   38.4140 C   0  0  0  0  0  0  0  0  0  0  0  0
   39.2580   23.1770   38.4770 F   0  0  0  0  0  0  0  0  0  0  0  0
   37.7750   24.8210   39.0450 F   0  0  0  0  0  0  0  0  0  0  0  0
   37.1770   22.6340   39.0450 F   0  0  0  0  0  0  0  0  0  0  0  0
  2  1  2  6  0  0  0
  2 18  1  0  0  0  0
  2  3  1  0  0  0  0
  3  4  1  0  0  0  0
  5  2  1  0  0  0  0
  6  8  1  0  0  0  0
  6  5  1  0  0  0  0
  7  6  1  0  0  0  0
  9 14  1  0  0  0  0
  9  6  1  0  0  0  0
 10  9  2  0  0  0  0
 11 12  2  0  0  0  0
 11 10  1  0  0  0  0
 12 13  1  0  0  0  0
 13 17  1  0  0  0  0
 13 14  2  0  0  0  0
 15 10  1  0  0  0  0
 16 11  1  0  0  0  0
 18 20  1  0  0  0  0
 19 24  1  1  0  0  0
 19 30  1  0  0  0  0
 20 25  1  1  0  0  0
 20 19  1  0  0  0  0
 21 27  1  0  0  0  0
 21 20  1  0  0  0  0
 22 21  1  0  0  0  0
 22 23  1  0  0  0  0
 23 28  1  0  0  0  0
 23 19  1  0  0  0  0
 26 21  1  0  0  0  0
 29 23  1  0  0  0  0
 30 31  1  0  0  0  0
 31 32  1  0  0  0  0
 31 33  1  0  0  0  0
 31 34  1  0  0  0  0
M  END
>  <minimizedAffinity>
-5.12435007

$$$$

 OpenBabel03272504243D

 34 35  0  0  1  0  0  0  0  0999 V2000
   39.0340   27.3030   35.9330 O   0  0  0  0  0  0  0  0  0  0  0  0
   39.6420   26.5370   34.7830 P   0  0  2  0  0  0  0  0  0  0  0  0
   41.3490   26.6410   34.9370 O   0  0  0  0  0  0  0  0  0  0  0  0
   41.7200   25.8600   34.4330 H   0  0  0  0  0  0  0  0  0  0  0  0
   39.1780   27.2280   33.3010 O   0  0  0  0  0  0  0  0  0  0  0  0
   37.8860   26.8170   33.0450 C   0  0  0  0  0  0  0  0  0  0  0  0
   37.5890   26.1540   33.9070 H   0  0  0  0  0  0  0  0  0  0  0  0
   37.8410   26.2010   32.1360 H   0  0  0  0  0  0  0  0  0  0  0  0
   36.9070   27.9260   33.0280 C   0  0  0  0  0  0  0  0  0  0  0  0
   36.7080   28.5580   31.8230 C   0  0  0  0  0  0  0  0  0  0  0  0
   35.7950   29.6140   31.7420 C   0  0  0  0  0  0  0  0  0  0  0  0
   35.1450   29.9560   32.8890 N   0  0  0  0  0  0  0  0  0  0  0  0
   35.3570   29.3210   34.0580 C   0  0  0  0  0  0  0  0  0  0  0  0
   36.2390   28.3000   34.1360 N   0  0  0  0  0  0  0  0  0  0  0  0
   37.1700   28.3620   30.8740 H   0  0  0  0  0  0  0  0  0  0  0  0
   35.5680   30.1710   30.8570 H   0  0  0  0  0  0  0  0  0  0  0  0
   34.7900   29.6710   34.9050 H   0  0  0  0  0  0  0  0  0  0  0  0
   39.1510   24.9340   34.8560 O   0  0  0  0  0  0  0  0  0  0  0  0
   39.2620   23.2510   36.4570 C   0  0  2  0  0  0  0  0  0  0  0  0
   40.0650   24.1260   35.5220 C   0  0  1  0  0  0  0  0  0  0  0  0
   40.5460   23.0260   34.5550 C   0  0  0  0  0  0  0  0  0  0  0  0
   39.3550   22.3750   34.2790 O   0  0  0  0  0  0  0  0  0  0  0  0
   38.6180   22.2960   35.4400 C   0  0  0  0  0  0  0  0  0  0  0  0
   39.8790   22.7030   37.1770 H   0  0  0  0  0  0  0  0  0  0  0  0
   40.8940   24.6600   35.9850 H   0  0  0  0  0  0  0  0  0  0  0  0
   40.9960   23.4340   33.6520 H   0  0  0  0  0  0  0  0  0  0  0  0
   41.2740   22.4050   35.1120 H   0  0  0  0  0  0  0  0  0  0  0  0
   38.7280   21.2760   35.8640 H   0  0  0  0  0  0  0  0  0  0  0  0
   37.5580   22.5410   35.2920 H   0  0  0  0  0  0  0  0  0  0  0  0
   38.3330   24.0530   37.0970 O   0  0  0  0  0  0  0  0  0  0  0  0
   38.2940   23.8440   38.4680 C   0  0  0  0  0  0  0  0  0  0  0  0
   37.2940   22.9090   38.7380 F   0  0  0  0  0  0  0  0  0  0  0  0
   39.5060   23.4340   38.9810 F   0  0  0  0  0  0  0  0  0  0  0  0
   37.8940   25.0260   39.0630 F   0  0  0  0  0  0  0  0  0  0  0  0
  2 18  1  0  0  0  0
  2  3  1  0  0  0  0
  2  1  2  1  0  0  0
  4  3  1  0  0  0  0
  5  2  1  0  0  0  0
  6  5  1  0  0  0  0
  6  7  1  0  0  0  0
  8  6  1  0  0  0  0
  9  6  1  0  0  0  0
  9 14  1  0  0  0  0
 10  9  2  0  0  0  0
 11 10  1  0  0  0  0
 11 12  2  0  0  0  0
 12 13  1  0  0  0  0
 13 14  2  0  0  0  0
 13 17  1  0  0  0  0
 15 10  1  0  0  0  0
 16 11  1  0  0  0  0
 18 20  1  0  0  0  0
 19 30  1  0  0  0  0
 19 24  1  1  0  0  0
 20 25  1  1  0  0  0
 20 19  1  0  0  0  0
 21 27  1  0  0  0  0
 21 20  1  0  0  0  0
 22 21  1  0  0  0  0
 22 23  1  0  0  0  0
 23 28  1  0  0  0  0
 23 19  1  0  0  0  0
 26 21  1  0  0  0  0
 29 23  1  0  0  0  0
 30 31  1  0  0  0  0
 31 32  1  0  0  0  0
 31 33  1  0  0  0  0
 31 34  1  0  0  0  0
M  END
>  <minimizedAffinity>
-5.11720848

$$$$

 OpenBabel03272504243D

 34 35  0  0  1  0  0  0  0  0999 V2000
   36.6340   27.3690   34.8800 O   0  0  0  0  0  0  0  0  0  0  0  0
   38.0620   26.8830   34.8500 P   0  0  2  0  0  0  0  0  0  0  0  0
   38.8830   27.6060   36.1750 O   0  0  0  0  0  0  0  0  0  0  0  0
   39.6680   27.0180   36.3680 H   0  0  0  0  0  0  0  0  0  0  0  0
   38.8200   27.3590   33.4050 O   0  0  0  0  0  0  0  0  0  0  0  0
   38.1150   26.7860   32.3670 C   0  0  0  0  0  0  0  0  0  0  0  0
   37.1270   26.4570   32.7990 H   0  0  0  0  0  0  0  0  0  0  0  0
   38.6200   25.8820   31.9970 H   0  0  0  0  0  0  0  0  0  0  0  0
   37.7880   27.7370   31.2810 C   0  0  0  0  0  0  0  0  0  0  0  0
   36.8560   28.7070   31.5660 C   0  0  0  0  0  0  0  0  0  0  0  0
   36.5040   29.6350   30.5820 C   0  0  0  0  0  0  0  0  0  0  0  0
   37.1240   29.5160   29.3740 N   0  0  0  0  0  0  0  0  0  0  0  0
   38.0350   28.5570   29.1190 C   0  0  0  0  0  0  0  0  0  0  0  0
   38.3750   27.6610   30.0710 N   0  0  0  0  0  0  0  0  0  0  0  0
   36.3190   28.8770   32.4800 H   0  0  0  0  0  0  0  0  0  0  0  0
   35.7930   30.4250   30.7000 H   0  0  0  0  0  0  0  0  0  0  0  0
   38.4650   28.5530   28.1310 H   0  0  0  0  0  0  0  0  0  0  0  0
   38.0880   25.2120   34.9980 O   0  0  0  0  0  0  0  0  0  0  0  0
   38.9620   23.4960   36.3020 C   0  0  2  0  0  0  0  0  0  0  0  0
   39.2910   24.7390   35.5090 C   0  0  1  0  0  0  0  0  0  0  0  0
   40.0800   24.0660   34.3680 C   0  0  0  0  0  0  0  0  0  0  0  0
   39.2110   23.0480   34.0090 O   0  0  0  0  0  0  0  0  0  0  0  0
   38.6550   22.5220   35.1550 C   0  0  0  0  0  0  0  0  0  0  0  0
   39.7960   23.1360   36.9130 H   0  0  0  0  0  0  0  0  0  0  0  0
   39.8860   25.4830   36.0390 H   0  0  0  0  0  0  0  0  0  0  0  0
   40.2660   24.7420   33.5360 H   0  0  0  0  0  0  0  0  0  0  0  0
   41.0310   23.7070   34.8050 H   0  0  0  0  0  0  0  0  0  0  0  0
   39.1810   21.5760   35.4050 H   0  0  0  0  0  0  0  0  0  0  0  0
   37.5750   22.3510   35.0660 H   0  0  0  0  0  0  0  0  0  0  0  0
   37.8500   23.7700   37.0800 O   0  0  0  0  0  0  0  0  0  0  0  0
   38.1170   23.7190   38.4400 C   0  0  0  0  0  0  0  0  0  0  0  0
   39.4270   23.2700   38.6090 F   0  0  0  0  0  0  0  0  0  0  0  0
   37.9240   24.9300   39.0690 F   0  0  0  0  0  0  0  0  0  0  0  0
   37.2990   22.7530   38.9950 F   0  0  0  0  0  0  0  0  0  0  0  0
  2  1  2  6  0  0  0
  2 18  1  0  0  0  0
  2  3  1  0  0  0  0
  3  4  1  0  0  0  0
  5  2  1  0  0  0  0
  6  7  1  0  0  0  0
  6  5  1  0  0  0  0
  8  6  1  0  0  0  0
  9 10  1  0  0  0  0
  9  6  1  0  0  0  0
 10 15  1  0  0  0  0
 11 16  1  0  0  0  0
 11 10  2  0  0  0  0
 12 11  1  0  0  0  0
 13 12  2  0  0  0  0
 13 14  1  0  0  0  0
 14  9  2  0  0  0  0
 17 13  1  0  0  0  0
 18 20  1  0  0  0  0
 19 24  1  1  0  0  0
 19 30  1  0  0  0  0
 20 25  1  1  0  0  0
 20 19  1  0  0  0  0
 21 27  1  0  0  0  0
 21 20  1  0  0  0  0
 22 21  1  0  0  0  0
 22 23  1  0  0  0  0
 23 28  1  0  0  0  0
 23 19  1  0  0  0  0
 26 21  1  0  0  0  0
 29 23  1  0  0  0  0
 30 31  1  0  0  0  0
 31 32  1  0  0  0  0
 31 34  1  0  0  0  0
 31 33  1  0  0  0  0
M  END
>  <minimizedAffinity>
-5.09833431

$$$$

 OpenBabel03272504243D

 34 35  0  0  1  0  0  0  0  0999 V2000
   38.7290   27.1150   36.2300 O   0  0  0  0  0  0  0  0  0  0  0  0
   38.1020   26.6900   34.9250 P   0  0  2  0  0  0  0  0  0  0  0  0
   39.1230   27.2380   33.6570 O   0  0  0  0  0  0  0  0  0  0  0  0
   38.9220   26.6550   32.8690 H   0  0  0  0  0  0  0  0  0  0  0  0
   36.5680   27.4000   34.7450 O   0  0  0  0  0  0  0  0  0  0  0  0
   36.5430   28.0080   33.5070 C   0  0  0  0  0  0  0  0  0  0  0  0
   36.1680   27.2320   32.7800 H   0  0  0  0  0  0  0  0  0  0  0  0
   37.5560   28.2880   33.1840 H   0  0  0  0  0  0  0  0  0  0  0  0
   35.5900   29.1370   33.4250 C   0  0  0  0  0  0  0  0  0  0  0  0
   35.5650   30.0060   34.4900 C   0  0  0  0  0  0  0  0  0  0  0  0
   34.6850   31.0930   34.4720 C   0  0  0  0  0  0  0  0  0  0  0  0
   33.8920   31.2240   33.3720 N   0  0  0  0  0  0  0  0  0  0  0  0
   33.9350   30.3600   32.3410 C   0  0  0  0  0  0  0  0  0  0  0  0
   34.7850   29.3100   32.3590 N   0  0  0  0  0  0  0  0  0  0  0  0
   36.1460   29.9830   35.3920 H   0  0  0  0  0  0  0  0  0  0  0  0
   34.5870   31.8240   35.2470 H   0  0  0  0  0  0  0  0  0  0  0  0
   33.2650   30.5570   31.5200 H   0  0  0  0  0  0  0  0  0  0  0  0
   37.9780   25.0160   34.8830 O   0  0  0  0  0  0  0  0  0  0  0  0
   38.7070   23.2750   36.2410 C   0  0  2  0  0  0  0  0  0  0  0  0
   39.1390   24.3840   35.3090 C   0  0  1  0  0  0  0  0  0  0  0  0
   39.6720   23.5060   34.1590 C   0  0  0  0  0  0  0  0  0  0  0  0
   38.6150   22.6270   33.9840 O   0  0  0  0  0  0  0  0  0  0  0  0
   38.1170   22.2870   35.2230 C   0  0  0  0  0  0  0  0  0  0  0  0
   39.5370   22.8230   36.7940 H   0  0  0  0  0  0  0  0  0  0  0  0
   39.9030   25.0520   35.7070 H   0  0  0  0  0  0  0  0  0  0  0  0
   39.8680   24.0790   33.2550 H   0  0  0  0  0  0  0  0  0  0  0  0
   40.5970   23.0220   34.5280 H   0  0  0  0  0  0  0  0  0  0  0  0
   38.5080   21.2860   35.5030 H   0  0  0  0  0  0  0  0  0  0  0  0
   37.0200   22.2980   35.2600 H   0  0  0  0  0  0  0  0  0  0  0  0
   37.7500   23.7900   37.0990 O   0  0  0  0  0  0  0  0  0  0  0  0
   38.1020   23.6660   38.4350 C   0  0  0  0  0  0  0  0  0  0  0  0
   37.2640   22.7160   39.0190 F   0  0  0  0  0  0  0  0  0  0  0  0
   39.4280   23.3310   38.6100 F   0  0  0  0  0  0  0  0  0  0  0  0
   37.8230   24.8680   39.0580 F   0  0  0  0  0  0  0  0  0  0  0  0
  2  1  2  1  0  0  0
  3  2  1  0  0  0  0
  4  3  1  0  0  0  0
  5  2  1  0  0  0  0
  6  5  1  0  0  0  0
  7  6  1  0  0  0  0
  8  6  1  0  0  0  0
  9  6  1  0  0  0  0
  9 10  1  0  0  0  0
 10 15  1  0  0  0  0
 11 10  2  0  0  0  0
 11 16  1  0  0  0  0
 12 11  1  0  0  0  0
 13 14  1  0  0  0  0
 13 12  2  0  0  0  0
 14  9  2  0  0  0  0
 17 13  1  0  0  0  0
 18  2  1  0  0  0  0
 18 20  1  0  0  0  0
 19 24  1  1  0  0  0
 19 30  1  0  0  0  0
 20 25  1  1  0  0  0
 20 19  1  0  0  0  0
 21 27  1  0  0  0  0
 21 20  1  0  0  0  0
 22 21  1  0  0  0  0
 22 23  1  0  0  0  0
 23 29  1  0  0  0  0
 23 28  1  0  0  0  0
 23 19  1  0  0  0  0
 26 21  1  0  0  0  0
 30 31  1  0  0  0  0
 31 33  1  0  0  0  0
 31 32  1  0  0  0  0
 31 34  1  0  0  0  0
M  END
>  <minimizedAffinity>
-4.85990763

$$$$

 OpenBabel03272504243D

 34 35  0  0  1  0  0  0  0  0999 V2000
   36.9260   26.5770   33.2370 O   0  0  0  0  0  0  0  0  0  0  0  0
   37.9180   25.4470   33.1070 P   0  0  2  0  0  0  0  0  0  0  0  0
   39.4850   26.1410   33.0080 O   0  0  0  0  0  0  0  0  0  0  0  0
   40.1230   25.4260   33.2970 H   0  0  0  0  0  0  0  0  0  0  0  0
   37.6180   24.5560   31.6910 O   0  0  0  0  0  0  0  0  0  0  0  0
   36.3530   24.0180   31.8070 C   0  0  0  0  0  0  0  0  0  0  0  0
   35.7370   24.4720   30.9800 H   0  0  0  0  0  0  0  0  0  0  0  0
   35.8830   24.3140   32.7560 H   0  0  0  0  0  0  0  0  0  0  0  0
   36.3130   22.5550   31.5890 C   0  0  0  0  0  0  0  0  0  0  0  0
   35.2450   21.8760   32.1290 C   0  0  0  0  0  0  0  0  0  0  0  0
   35.1510   20.4920   31.9570 C   0  0  0  0  0  0  0  0  0  0  0  0
   36.1450   19.8900   31.2460 N   0  0  0  0  0  0  0  0  0  0  0  0
   37.1800   20.5770   30.7260 C   0  0  0  0  0  0  0  0  0  0  0  0
   37.2710   21.9150   30.8920 N   0  0  0  0  0  0  0  0  0  0  0  0
   34.4220   22.2610   32.7000 H   0  0  0  0  0  0  0  0  0  0  0  0
   34.3650   19.8720   32.3350 H   0  0  0  0  0  0  0  0  0  0  0  0
   37.9120   20.0030   30.1810 H   0  0  0  0  0  0  0  0  0  0  0  0
   37.8110   24.4510   34.4540 O   0  0  0  0  0  0  0  0  0  0  0  0
   38.8250   23.2270   36.1520 C   0  0  2  0  0  0  0  0  0  0  0  0
   39.0420   23.9270   34.8300 C   0  0  1  0  0  0  0  0  0  0  0  0
   39.3300   22.6810   33.9690 C   0  0  0  0  0  0  0  0  0  0  0  0
   38.2690   21.8640   34.3210 O   0  0  0  0  0  0  0  0  0  0  0  0
   38.0440   21.9930   35.6740 C   0  0  0  0  0  0  0  0  0  0  0  0
   39.7570   22.9370   36.6480 H   0  0  0  0  0  0  0  0  0  0  0  0
   39.8660   24.6410   34.8130 H   0  0  0  0  0  0  0  0  0  0  0  0
   39.3270   22.9020   32.9030 H   0  0  0  0  0  0  0  0  0  0  0  0
   40.3170   22.2930   34.2880 H   0  0  0  0  0  0  0  0  0  0  0  0
   38.4950   21.1230   36.1960 H   0  0  0  0  0  0  0  0  0  0  0  0
   36.9800   22.0850   35.9240 H   0  0  0  0  0  0  0  0  0  0  0  0
   38.0650   24.0610   36.9540 O   0  0  0  0  0  0  0  0  0  0  0  0
   38.2390   23.8110   38.3080 C   0  0  0  0  0  0  0  0  0  0  0  0
   37.2480   22.9190   38.7170 F   0  0  0  0  0  0  0  0  0  0  0  0
   39.4950   23.3260   38.6050 F   0  0  0  0  0  0  0  0  0  0  0  0
   38.0060   24.9920   38.9880 F   0  0  0  0  0  0  0  0  0  0  0  0
  2  1  2  1  0  0  0
  2 18  1  0  0  0  0
  3  2  1  0  0  0  0
  3  4  1  0  0  0  0
  5  6  1  0  0  0  0
  5  2  1  0  0  0  0
  6  8  1  0  0  0  0
  7  6  1  0  0  0  0
  9  6  1  0  0  0  0
  9 10  1  0  0  0  0
 10 15  1  0  0  0  0
 11 10  2  0  0  0  0
 11 16  1  0  0  0  0
 12 11  1  0  0  0  0
 13 14  1  0  0  0  0
 13 12  2  0  0  0  0
 14  9  2  0  0  0  0
 17 13  1  0  0  0  0
 18 20  1  0  0  0  0
 19 24  1  1  0  0  0
 19 30  1  0  0  0  0
 20 25  1  1  0  0  0
 20 19  1  0  0  0  0
 21 27  1  0  0  0  0
 21 22  1  0  0  0  0
 21 20  1  0  0  0  0
 22 23  1  0  0  0  0
 23 29  1  0  0  0  0
 23 19  1  0  0  0  0
 23 28  1  0  0  0  0
 26 21  1  0  0  0  0
 30 31  1  0  0  0  0
 31 33  1  0  0  0  0
 31 32  1  0  0  0  0
 31 34  1  0  0  0  0
M  END
>  <minimizedAffinity>
-4.77319527

$$$$

 OpenBabel03272504243D

 34 35  0  0  1  0  0  0  0  0999 V2000
   36.3460   22.6450   32.3610 O   0  0  0  0  0  0  0  0  0  0  0  0
   37.8470   22.7920   32.4310 P   0  0  2  0  0  0  0  0  0  0  0  0
   38.4950   22.1860   30.9600 O   0  0  0  0  0  0  0  0  0  0  0  0
   39.3930   22.6160   30.8560 H   0  0  0  0  0  0  0  0  0  0  0  0
   38.4720   21.8860   33.7260 O   0  0  0  0  0  0  0  0  0  0  0  0
   37.5840   22.0070   34.7750 C   0  0  0  0  0  0  0  0  0  0  0  0
   37.1700   20.9760   34.9600 H   0  0  0  0  0  0  0  0  0  0  0  0
   36.7350   22.6490   34.5010 H   0  0  0  0  0  0  0  0  0  0  0  0
   38.2230   22.4240   36.0420 C   0  0  0  0  0  0  0  0  0  0  0  0
   37.4080   22.9980   36.9890 C   0  0  0  0  0  0  0  0  0  0  0  0
   37.9520   23.4130   38.2070 C   0  0  0  0  0  0  0  0  0  0  0  0
   39.2890   23.2150   38.3840 N   0  0  0  0  0  0  0  0  0  0  0  0
   40.0670   22.6490   37.4420 C   0  0  0  0  0  0  0  0  0  0  0  0
   39.5400   22.2480   36.2640 N   0  0  0  0  0  0  0  0  0  0  0  0
   36.3540   23.1940   36.9400 H   0  0  0  0  0  0  0  0  0  0  0  0
   37.4080   23.8700   39.0070 H   0  0  0  0  0  0  0  0  0  0  0  0
   41.1120   22.5390   37.6840 H   0  0  0  0  0  0  0  0  0  0  0  0
   38.2420   24.4130   32.6110 O   0  0  0  0  0  0  0  0  0  0  0  0
   37.5360   26.4000   33.5920 C   0  0  2  0  0  0  0  0  0  0  0  0
   37.1210   25.2250   32.7370 C   0  0  1  0  0  0  0  0  0  0  0  0
   36.9120   25.9850   31.4120 C   0  0  0  0  0  0  0  0  0  0  0  0
   38.0910   26.7060   31.3300 O   0  0  0  0  0  0  0  0  0  0  0  0
   38.4160   27.1610   32.5890 C   0  0  0  0  0  0  0  0  0  0  0  0
   36.6940   27.0150   33.9240 H   0  0  0  0  0  0  0  0  0  0  0  0
   36.2180   24.7100   33.0650 H   0  0  0  0  0  0  0  0  0  0  0  0
   36.7940   25.3140   30.5630 H   0  0  0  0  0  0  0  0  0  0  0  0
   36.0110   26.6160   31.5430 H   0  0  0  0  0  0  0  0  0  0  0  0
   38.1210   28.2290   32.6700 H   0  0  0  0  0  0  0  0  0  0  0  0
   39.4800   27.0350   32.8280 H   0  0  0  0  0  0  0  0  0  0  0  0
   38.2570   25.9100   34.6680 O   0  0  0  0  0  0  0  0  0  0  0  0
   38.4170   26.8440   35.6800 C   0  0  0  0  0  0  0  0  0  0  0  0
   37.5430   27.9040   35.4360 F   0  0  0  0  0  0  0  0  0  0  0  0
   38.2110   26.3140   36.9350 F   0  0  0  0  0  0  0  0  0  0  0  0
   39.6950   27.3610   35.5790 F   0  0  0  0  0  0  0  0  0  0  0  0
  2  1  2  6  0  0  0
  2 18  1  0  0  0  0
  2  5  1  0  0  0  0
  3  2  1  0  0  0  0
  4  3  1  0  0  0  0
  5  6  1  0  0  0  0
  6  7  1  0  0  0  0
  6  9  1  0  0  0  0
  8  6  1  0  0  0  0
  9 14  2  0  0  0  0
  9 10  1  0  0  0  0
 10 11  2  0  0  0  0
 11 12  1  0  0  0  0
 11 16  1  0  0  0  0
 13 17  1  0  0  0  0
 13 12  2  0  0  0  0
 14 13  1  0  0  0  0
 15 10  1  0  0  0  0
 18 20  1  0  0  0  0
 19 24  1  1  0  0  0
 19 30  1  0  0  0  0
 20 25  1  1  0  0  0
 20 19  1  0  0  0  0
 21 27  1  0  0  0  0
 21 20  1  0  0  0  0
 22 21  1  0  0  0  0
 22 23  1  0  0  0  0
 23 28  1  0  0  0  0
 23 29  1  0  0  0  0
 23 19  1  0  0  0  0
 26 21  1  0  0  0  0
 30 31  1  0  0  0  0
 31 33  1  0  0  0  0
 32 31  1  0  0  0  0
 34 31  1  0  0  0  0
M  END
>  <minimizedAffinity>
-4.72456217

$$$$

 OpenBabel03272504243D

 34 35  0  0  1  0  0  0  0  0999 V2000
   38.8080   27.4600   35.8960 O   0  0  0  0  0  0  0  0  0  0  0  0
   39.4050   26.6390   34.7790 P   0  0  2  0  0  0  0  0  0  0  0  0
   41.1130   26.7110   34.9400 O   0  0  0  0  0  0  0  0  0  0  0  0
   41.4690   25.9040   34.4670 H   0  0  0  0  0  0  0  0  0  0  0  0
   38.9640   27.2830   33.2690 O   0  0  0  0  0  0  0  0  0  0  0  0
   39.8510   26.7850   32.3380 C   0  0  0  0  0  0  0  0  0  0  0  0
   40.7510   26.4300   32.9170 H   0  0  0  0  0  0  0  0  0  0  0  0
   40.1990   27.5780   31.6600 H   0  0  0  0  0  0  0  0  0  0  0  0
   39.3410   25.6020   31.6120 C   0  0  0  0  0  0  0  0  0  0  0  0
   37.9780   25.5150   31.4480 C   0  0  0  0  0  0  0  0  0  0  0  0
   37.4340   24.4210   30.7700 C   0  0  0  0  0  0  0  0  0  0  0  0
   38.3110   23.4880   30.3020 N   0  0  0  0  0  0  0  0  0  0  0  0
   39.6420   23.5960   30.4750 C   0  0  0  0  0  0  0  0  0  0  0  0
   40.1670   24.6540   31.1300 N   0  0  0  0  0  0  0  0  0  0  0  0
   37.2150   26.1940   31.7790 H   0  0  0  0  0  0  0  0  0  0  0  0
   36.3920   24.2570   30.5890 H   0  0  0  0  0  0  0  0  0  0  0  0
   40.2460   22.8020   30.0650 H   0  0  0  0  0  0  0  0  0  0  0  0
   38.8790   25.0500   34.9100 O   0  0  0  0  0  0  0  0  0  0  0  0
   39.0610   23.2480   36.3690 C   0  0  2  0  0  0  0  0  0  0  0  0
   39.8250   24.2220   35.5010 C   0  0  1  0  0  0  0  0  0  0  0  0
   40.3310   23.2190   34.4450 C   0  0  0  0  0  0  0  0  0  0  0  0
   39.1590   22.5540   34.1260 O   0  0  0  0  0  0  0  0  0  0  0  0
   38.4370   22.3580   35.2830 C   0  0  0  0  0  0  0  0  0  0  0  0
   39.7020   22.6650   37.0370 H   0  0  0  0  0  0  0  0  0  0  0  0
   40.6420   24.7440   36.0000 H   0  0  0  0  0  0  0  0  0  0  0  0
   40.7580   23.7130   33.5750 H   0  0  0  0  0  0  0  0  0  0  0  0
   41.0840   22.5800   34.9450 H   0  0  0  0  0  0  0  0  0  0  0  0
   38.5830   21.3110   35.6230 H   0  0  0  0  0  0  0  0  0  0  0  0
   37.3680   22.5800   35.1630 H   0  0  0  0  0  0  0  0  0  0  0  0
   38.1130   23.9660   37.0790 O   0  0  0  0  0  0  0  0  0  0  0  0
   38.1870   23.7490   38.4470 C   0  0  0  0  0  0  0  0  0  0  0  0
   37.9740   24.9680   39.0920 F   0  0  0  0  0  0  0  0  0  0  0  0
   37.2960   22.7950   38.8870 F   0  0  0  0  0  0  0  0  0  0  0  0
   39.4830   23.3720   38.7440 F   0  0  0  0  0  0  0  0  0  0  0  0
  2 18  1  0  0  0  0
  2  3  1  0  0  0  0
  2  1  2  1  0  0  0
  4  3  1  0  0  0  0
  5  2  1  0  0  0  0
  6  7  1  0  0  0  0
  6  5  1  0  0  0  0
  8  6  1  0  0  0  0
  9  6  1  0  0  0  0
 10  9  1  0  0  0  0
 10 15  1  0  0  0  0
 11 10  2  0  0  0  0
 12 13  2  0  0  0  0
 12 11  1  0  0  0  0
 13 14  1  0  0  0  0
 14  9  2  0  0  0  0
 16 11  1  0  0  0  0
 17 13  1  0  0  0  0
 18 20  1  0  0  0  0
 19 24  1  1  0  0  0
 19 30  1  0  0  0  0
 20 25  1  1  0  0  0
 20 19  1  0  0  0  0
 21 27  1  0  0  0  0
 21 20  1  0  0  0  0
 22 21  1  0  0  0  0
 22 23  1  0  0  0  0
 23 28  1  0  0  0  0
 23 19  1  0  0  0  0
 26 21  1  0  0  0  0
 29 23  1  0  0  0  0
 30 31  1  0  0  0  0
 31 34  1  0  0  0  0
 31 33  1  0  0  0  0
 31 32  1  0  0  0  0
M  END
>  <minimizedAffinity>
-4.70949316

$$$$

 OpenBabel03272504243D

 34 35  0  0  1  0  0  0  0  0999 V2000
   37.6250   28.4680   31.4770 O   0  0  0  0  0  0  0  0  0  0  0  0
   36.4420   27.5680   31.7400 P   0  0  2  0  0  0  0  0  0  0  0  0
   35.9180   26.9450   30.2280 O   0  0  0  0  0  0  0  0  0  0  0  0
   35.4190   26.1030   30.4350 H   0  0  0  0  0  0  0  0  0  0  0  0
   35.1710   28.4520   32.4440 O   0  0  0  0  0  0  0  0  0  0  0  0
   35.2910   29.7550   32.0100 C   0  0  0  0  0  0  0  0  0  0  0  0
   34.2810   30.0490   31.6070 H   0  0  0  0  0  0  0  0  0  0  0  0
   36.0030   29.8300   31.1750 H   0  0  0  0  0  0  0  0  0  0  0  0
   35.5910   30.7130   33.0960 C   0  0  0  0  0  0  0  0  0  0  0  0
   35.4680   30.2480   34.3850 C   0  0  0  0  0  0  0  0  0  0  0  0
   35.7370   31.1060   35.4550 C   0  0  0  0  0  0  0  0  0  0  0  0
   36.1160   32.3780   35.1460 N   0  0  0  0  0  0  0  0  0  0  0  0
   36.2300   32.8100   33.8750 C   0  0  0  0  0  0  0  0  0  0  0  0
   35.9700   31.9810   32.8410 N   0  0  0  0  0  0  0  0  0  0  0  0
   35.1780   29.2720   34.7240 H   0  0  0  0  0  0  0  0  0  0  0  0
   35.6710   30.8450   36.4910 H   0  0  0  0  0  0  0  0  0  0  0  0
   36.5360   33.8350   33.7420 H   0  0  0  0  0  0  0  0  0  0  0  0
   36.9080   26.3130   32.7520 O   0  0  0  0  0  0  0  0  0  0  0  0
   38.5590   25.5060   34.1780 C   0  0  2  0  0  0  0  0  0  0  0  0
   38.2890   26.2010   32.8630 C   0  0  1  0  0  0  0  0  0  0  0  0
   38.7690   25.0790   31.9220 C   0  0  0  0  0  0  0  0  0  0  0  0
   38.0980   23.9870   32.4460 O   0  0  0  0  0  0  0  0  0  0  0  0
   38.1140   24.0800   33.8200 C   0  0  0  0  0  0  0  0  0  0  0  0
   39.6130   25.5280   34.4730 H   0  0  0  0  0  0  0  0  0  0  0  0
   38.8360   27.1310   32.7100 H   0  0  0  0  0  0  0  0  0  0  0  0
   38.4910   25.2590   30.8850 H   0  0  0  0  0  0  0  0  0  0  0  0
   39.8700   25.0200   32.0290 H   0  0  0  0  0  0  0  0  0  0  0  0
   38.9020   23.4040   34.2150 H   0  0  0  0  0  0  0  0  0  0  0  0
   37.1430   23.8480   34.2760 H   0  0  0  0  0  0  0  0  0  0  0  0
   37.7530   26.0890   35.1410 O   0  0  0  0  0  0  0  0  0  0  0  0
   38.4140   27.0590   35.8800 C   0  0  0  0  0  0  0  0  0  0  0  0
   38.2330   26.7720   37.2340 F   0  0  0  0  0  0  0  0  0  0  0  0
   39.7530   27.1510   35.5690 F   0  0  0  0  0  0  0  0  0  0  0  0
   37.7820   28.2670   35.6510 F   0  0  0  0  0  0  0  0  0  0  0  0
  2  1  2  6  0  0  0
  2  5  1  0  0  0  0
  2 18  1  0  0  0  0
  3  4  1  0  0  0  0
  3  2  1  0  0  0  0
  6  5  1  0  0  0  0
  6  9  1  0  0  0  0
  7  6  1  0  0  0  0
  8  6  1  0  0  0  0
  9 10  1  0  0  0  0
 10 15  1  0  0  0  0
 10 11  2  0  0  0  0
 11 16  1  0  0  0  0
 12 11  1  0  0  0  0
 13 12  2  0  0  0  0
 14  9  2  0  0  0  0
 14 13  1  0  0  0  0
 17 13  1  0  0  0  0
 18 20  1  0  0  0  0
 19 24  1  1  0  0  0
 19 30  1  0  0  0  0
 20 25  1  6  0  0  0
 20 19  1  0  0  0  0
 21 27  1  0  0  0  0
 21 22  1  0  0  0  0
 21 20  1  0  0  0  0
 22 23  1  0  0  0  0
 23 19  1  0  0  0  0
 23 28  1  0  0  0  0
 23 29  1  0  0  0  0
 26 21  1  0  0  0  0
 30 31  1  0  0  0  0
 31 32  1  0  0  0  0
 33 31  1  0  0  0  0
 34 31  1  0  0  0  0
M  END
>  <minimizedAffinity>
-4.66759014

$$$$

 OpenBabel03272504243D

 34 35  0  0  1  0  0  0  0  0999 V2000
   36.5200   25.7760   32.2940 O   0  0  0  0  0  0  0  0  0  0  0  0
   37.5020   24.6410   32.1420 P   0  0  2  0  0  0  0  0  0  0  0  0
   38.9740   25.3040   31.5570 O   0  0  0  0  0  0  0  0  0  0  0  0
   39.6910   24.6550   31.8130 H   0  0  0  0  0  0  0  0  0  0  0  0
   36.9230   23.5040   31.0180 O   0  0  0  0  0  0  0  0  0  0  0  0
   35.7110   23.0440   31.4900 C   0  0  0  0  0  0  0  0  0  0  0  0
   34.9790   23.1480   30.6400 H   0  0  0  0  0  0  0  0  0  0  0  0
   35.3420   23.6760   32.3110 H   0  0  0  0  0  0  0  0  0  0  0  0
   35.7230   21.6070   31.8430 C   0  0  0  0  0  0  0  0  0  0  0  0
   36.0160   20.7220   30.8320 C   0  0  0  0  0  0  0  0  0  0  0  0
   36.0430   19.3510   31.1020 C   0  0  0  0  0  0  0  0  0  0  0  0
   35.7710   18.9700   32.3820 N   0  0  0  0  0  0  0  0  0  0  0  0
   35.4870   19.8560   33.3550 C   0  0  0  0  0  0  0  0  0  0  0  0
   35.4620   21.1810   33.0940 N   0  0  0  0  0  0  0  0  0  0  0  0
   36.2410   20.9270   29.8020 H   0  0  0  0  0  0  0  0  0  0  0  0
   36.2580   18.5820   30.3900 H   0  0  0  0  0  0  0  0  0  0  0  0
   35.2880   19.4480   34.3330 H   0  0  0  0  0  0  0  0  0  0  0  0
   37.7490   23.9110   33.6330 O   0  0  0  0  0  0  0  0  0  0  0  0
   38.8790   24.7070   35.5030 C   0  0  2  0  0  0  0  0  0  0  0  0
   39.0350   24.1170   34.1210 C   0  0  1  0  0  0  0  0  0  0  0  0
   39.6290   22.7550   34.5320 C   0  0  0  0  0  0  0  0  0  0  0  0
   38.7370   22.3620   35.5160 O   0  0  0  0  0  0  0  0  0  0  0  0
   38.4010   23.4640   36.2710 C   0  0  0  0  0  0  0  0  0  0  0  0
   39.8150   25.0920   35.9200 H   0  0  0  0  0  0  0  0  0  0  0  0
   39.6930   24.6700   33.4520 H   0  0  0  0  0  0  0  0  0  0  0  0
   39.6510   22.0450   33.7070 H   0  0  0  0  0  0  0  0  0  0  0  0
   40.6500   22.9520   34.9100 H   0  0  0  0  0  0  0  0  0  0  0  0
   38.9860   23.4430   37.2150 H   0  0  0  0  0  0  0  0  0  0  0  0
   37.3260   23.5260   36.4830 H   0  0  0  0  0  0  0  0  0  0  0  0
   37.9120   25.6960   35.4370 O   0  0  0  0  0  0  0  0  0  0  0  0
   38.3590   26.9190   35.9150 C   0  0  0  0  0  0  0  0  0  0  0  0
   37.6450   27.9270   35.2650 F   0  0  0  0  0  0  0  0  0  0  0  0
   38.2440   27.0340   37.2830 F   0  0  0  0  0  0  0  0  0  0  0  0
   39.6790   27.0660   35.5280 F   0  0  0  0  0  0  0  0  0  0  0  0
  2  1  2  1  0  0  0
  2 18  1  0  0  0  0
  3  4  1  0  0  0  0
  3  2  1  0  0  0  0
  5  6  1  0  0  0  0
  5  2  1  0  0  0  0
  6  9  1  0  0  0  0
  6  8  1  0  0  0  0
  7  6  1  0  0  0  0
  9 14  1  0  0  0  0
 10 11  1  0  0  0  0
 10  9  2  0  0  0  0
 11 12  2  0  0  0  0
 12 13  1  0  0  0  0
 13 17  1  0  0  0  0
 14 13  2  0  0  0  0
 15 10  1  0  0  0  0
 16 11  1  0  0  0  0
 18 20  1  0  0  0  0
 19 24  1  1  0  0  0
 19 23  1  0  0  0  0
 20 25  1  6  0  0  0
 20 21  1  0  0  0  0
 20 19  1  0  0  0  0
 21 27  1  0  0  0  0
 21 22  1  0  0  0  0
 22 23  1  0  0  0  0
 23 29  1  0  0  0  0
 23 28  1  0  0  0  0
 26 21  1  0  0  0  0
 30 19  1  0  0  0  0
 30 31  1  0  0  0  0
 31 33  1  0  0  0  0
 32 31  1  0  0  0  0
 34 31  1  0  0  0  0
M  END
>  <minimizedAffinity>
-4.63705492

$$$$
