
 OpenBabel03272505283D

 26 27  0  0  0  0  0  0  0  0999 V2000
   38.0240   23.0870   34.6920 N   0  0  0  0  0  0  0  0  0  0  0  0
   38.0380   22.8770   36.0370 C   0  0  0  0  0  0  0  0  0  0  0  0
   38.1090   23.9290   36.9390 C   0  0  0  0  0  0  0  0  0  0  0  0
   38.1670   25.2310   36.4160 C   0  0  0  0  0  0  0  0  0  0  0  0
   38.2320   26.2170   37.1930 O   0  0  0  0  0  0  0  0  0  0  0  0
   38.1510   25.4340   35.0590 N   0  0  0  0  0  0  0  0  0  0  0  0
   38.0810   24.3430   34.2940 C   0  0  0  0  0  0  0  0  0  0  0  0
   38.0730   24.5700   33.0680 O   0  0  0  0  0  0  0  0  0  0  0  0
   37.9940   21.8630   36.4120 H   0  0  0  0  0  0  0  0  0  0  0  0
   36.7260   20.3790   32.5080 C   0  0  0  0  0  0  0  0  0  0  0  0
   36.7690   21.4380   33.4240 C   0  0  0  0  0  0  0  0  0  0  0  0
   37.9560   22.0230   33.7870 C   0  0  0  0  0  0  0  0  0  0  0  0
   39.1010   21.5340   33.2210 N   0  0  0  0  0  0  0  0  0  0  0  0
   39.0800   20.5040   32.3280 C   0  0  0  0  0  0  0  0  0  0  0  0
   37.8840   19.9370   31.9810 N   0  0  0  0  0  0  0  0  0  0  0  0
   35.8450   19.8800   32.1820 H   0  0  0  0  0  0  0  0  0  0  0  0
   35.7840   21.6790   33.7710 H   0  0  0  0  0  0  0  0  0  0  0  0
   40.0430   20.1950   31.9420 H   0  0  0  0  0  0  0  0  0  0  0  0
   38.2090   26.7790   34.5140 C   0  0  0  0  0  0  0  0  0  0  0  0
   38.8440   26.7670   33.3170 F   0  0  0  0  0  0  0  0  0  0  0  0
   38.9190   27.6510   35.3260 F   0  0  0  0  0  0  0  0  0  0  0  0
   36.9130   27.2410   34.3260 F   0  0  0  0  0  0  0  0  0  0  0  0
   38.1280   23.7590   38.3930 C   0  0  0  0  0  0  0  0  0  0  0  0
   37.6880   24.8950   39.0470 F   0  0  0  0  0  0  0  0  0  0  0  0
   37.2850   22.7250   38.7560 F   0  0  0  0  0  0  0  0  0  0  0  0
   39.4190   23.5210   38.8190 F   0  0  0  0  0  0  0  0  0  0  0  0
  1  2  1  0  0  0  0
  2  9  1  0  0  0  0
  2  3  2  0  0  0  0
  3 23  1  0  0  0  0
  4  3  1  0  0  0  0
  4  5  2  0  0  0  0
  6  4  1  0  0  0  0
  7  1  1  0  0  0  0
  7  6  1  0  0  0  0
  8  7  2  0  0  0  0
 10 11  1  0  0  0  0
 11 17  1  0  0  0  0
 11 12  2  0  0  0  0
 12  1  1  0  0  0  0
 13 12  1  0  0  0  0
 14 13  2  0  0  0  0
 15 14  1  0  0  0  0
 15 10  2  0  0  0  0
 16 10  1  0  0  0  0
 18 14  1  0  0  0  0
 19  6  1  0  0  0  0
 19 21  1  0  0  0  0
 20 19  1  0  0  0  0
 22 19  1  0  0  0  0
 23 25  1  0  0  0  0
 23 26  1  0  0  0  0
 23 24  1  0  0  0  0
M  END
>  <minimizedAffinity>
-5.70482254

$$$$

 OpenBabel03272505283D

 26 27  0  0  0  0  0  0  0  0999 V2000
   38.0400   23.2170   34.4600 N   0  0  0  0  0  0  0  0  0  0  0  0
   38.0910   24.4840   33.9640 C   0  0  0  0  0  0  0  0  0  0  0  0
   38.1780   25.5900   34.7970 C   0  0  0  0  0  0  0  0  0  0  0  0
   38.2120   25.3610   36.1820 C   0  0  0  0  0  0  0  0  0  0  0  0
   38.2920   26.3310   36.9770 O   0  0  0  0  0  0  0  0  0  0  0  0
   38.1610   24.0800   36.6730 N   0  0  0  0  0  0  0  0  0  0  0  0
   38.0770   23.0990   35.7730 C   0  0  0  0  0  0  0  0  0  0  0  0
   38.0290   21.9520   36.2600 O   0  0  0  0  0  0  0  0  0  0  0  0
   38.0620   24.6310   32.8920 H   0  0  0  0  0  0  0  0  0  0  0  0
   36.6800   20.4430   32.3980 C   0  0  0  0  0  0  0  0  0  0  0  0
   36.7460   21.5530   33.2530 C   0  0  0  0  0  0  0  0  0  0  0  0
   37.9480   22.1050   33.6170 C   0  0  0  0  0  0  0  0  0  0  0  0
   39.0850   21.5320   33.1170 N   0  0  0  0  0  0  0  0  0  0  0  0
   39.0420   20.4520   32.2850 C   0  0  0  0  0  0  0  0  0  0  0  0
   37.8310   19.9200   31.9340 N   0  0  0  0  0  0  0  0  0  0  0  0
   35.7870   19.9660   32.0750 H   0  0  0  0  0  0  0  0  0  0  0  0
   35.7640   21.8570   33.5530 H   0  0  0  0  0  0  0  0  0  0  0  0
   40.0010   20.0780   31.9480 H   0  0  0  0  0  0  0  0  0  0  0  0
   38.1970   23.8380   38.1050 C   0  0  0  0  0  0  0  0  0  0  0  0
   37.2560   22.9250   38.4450 F   0  0  0  0  0  0  0  0  0  0  0  0
   37.9210   24.9800   38.8440 F   0  0  0  0  0  0  0  0  0  0  0  0
   39.4470   23.3360   38.4420 F   0  0  0  0  0  0  0  0  0  0  0  0
   38.2360   26.9720   34.3160 C   0  0  0  0  0  0  0  0  0  0  0  0
   38.1500   27.0380   32.9380 F   0  0  0  0  0  0  0  0  0  0  0  0
   37.1750   27.6930   34.8290 F   0  0  0  0  0  0  0  0  0  0  0  0
   39.4420   27.5400   34.6740 F   0  0  0  0  0  0  0  0  0  0  0  0
  1  7  1  0  0  0  0
  2  1  1  0  0  0  0
  2  3  2  0  0  0  0
  3  4  1  0  0  0  0
  4  6  1  0  0  0  0
  4  5  2  0  0  0  0
  6 19  1  0  0  0  0
  7  8  2  0  0  0  0
  7  6  1  0  0  0  0
  9  2  1  0  0  0  0
 10 11  1  0  0  0  0
 11 17  1  0  0  0  0
 11 12  2  0  0  0  0
 12  1  1  0  0  0  0
 13 12  1  0  0  0  0
 14 13  2  0  0  0  0
 15 14  1  0  0  0  0
 15 10  2  0  0  0  0
 16 10  1  0  0  0  0
 18 14  1  0  0  0  0
 19 22  1  0  0  0  0
 19 20  1  0  0  0  0
 19 21  1  0  0  0  0
 23 26  1  0  0  0  0
 23  3  1  0  0  0  0
 23 25  1  0  0  0  0
 24 23  1  0  0  0  0
M  END
>  <minimizedAffinity>
-5.57602453

$$$$

 OpenBabel03272505283D

 26 27  0  0  0  0  0  0  0  0999 V2000
   37.5670   22.4270   34.2170 N   0  0  0  0  0  0  0  0  0  0  0  0
   36.8270   21.3110   33.9700 C   0  0  0  0  0  0  0  0  0  0  0  0
   36.1240   21.1500   32.7840 C   0  0  0  0  0  0  0  0  0  0  0  0
   36.2000   22.1840   31.8370 C   0  0  0  0  0  0  0  0  0  0  0  0
   35.5820   22.0850   30.7470 O   0  0  0  0  0  0  0  0  0  0  0  0
   36.9490   23.3060   32.0950 N   0  0  0  0  0  0  0  0  0  0  0  0
   37.5790   23.3450   33.2700 C   0  0  0  0  0  0  0  0  0  0  0  0
   38.2450   24.3800   33.4660 O   0  0  0  0  0  0  0  0  0  0  0  0
   36.7850   20.5300   34.7180 H   0  0  0  0  0  0  0  0  0  0  0  0
   40.2500   22.3350   36.7830 C   0  0  0  0  0  0  0  0  0  0  0  0
   39.5630   22.1550   35.5740 C   0  0  0  0  0  0  0  0  0  0  0  0
   38.2700   22.5870   35.4150 C   0  0  0  0  0  0  0  0  0  0  0  0
   37.6720   23.2000   36.4820 N   0  0  0  0  0  0  0  0  0  0  0  0
   38.3230   23.3830   37.6660 C   0  0  0  0  0  0  0  0  0  0  0  0
   39.6130   22.9460   37.8000 N   0  0  0  0  0  0  0  0  0  0  0  0
   41.2490   22.0280   36.9760 H   0  0  0  0  0  0  0  0  0  0  0  0
   40.1800   21.6490   34.8600 H   0  0  0  0  0  0  0  0  0  0  0  0
   37.7560   23.8800   38.4440 H   0  0  0  0  0  0  0  0  0  0  0  0
   37.0320   24.3770   31.1180 C   0  0  0  0  0  0  0  0  0  0  0  0
   37.5670   25.4840   31.6870 F   0  0  0  0  0  0  0  0  0  0  0  0
   35.7880   24.7490   30.6310 F   0  0  0  0  0  0  0  0  0  0  0  0
   37.8550   23.9690   30.0760 F   0  0  0  0  0  0  0  0  0  0  0  0
   35.3140   19.9720   32.4680 C   0  0  0  0  0  0  0  0  0  0  0  0
   35.7900   19.3090   31.3520 F   0  0  0  0  0  0  0  0  0  0  0  0
   35.3520   19.0790   33.5220 F   0  0  0  0  0  0  0  0  0  0  0  0
   34.0190   20.3580   32.1890 F   0  0  0  0  0  0  0  0  0  0  0  0
  1 12  1  0  0  0  0
  2  1  1  0  0  0  0
  2  9  1  0  0  0  0
  3  2  2  0  0  0  0
  4  6  1  0  0  0  0
  4  3  1  0  0  0  0
  5  4  2  0  0  0  0
  6  7  1  0  0  0  0
  7  8  2  0  0  0  0
  7  1  1  0  0  0  0
 10 16  1  0  0  0  0
 10 15  1  0  0  0  0
 11 10  2  0  0  0  0
 12 11  1  0  0  0  0
 12 13  2  0  0  0  0
 13 14  1  0  0  0  0
 14 15  2  0  0  0  0
 14 18  1  0  0  0  0
 17 11  1  0  0  0  0
 19 20  1  0  0  0  0
 19  6  1  0  0  0  0
 21 19  1  0  0  0  0
 22 19  1  0  0  0  0
 23  3  1  0  0  0  0
 23 25  1  0  0  0  0
 24 23  1  0  0  0  0
 26 23  1  0  0  0  0
M  END
>  <minimizedAffinity>
-5.57468319

$$$$

 OpenBabel03272505283D

 26 27  0  0  0  0  0  0  0  0999 V2000
   38.7030   24.5890   34.9230 N   0  0  0  0  0  0  0  0  0  0  0  0
   38.2180   24.6350   36.1950 C   0  0  0  0  0  0  0  0  0  0  0  0
   38.7510   23.8480   37.2060 C   0  0  0  0  0  0  0  0  0  0  0  0
   39.8150   22.9950   36.8760 C   0  0  0  0  0  0  0  0  0  0  0  0
   40.3310   22.2640   37.7580 O   0  0  0  0  0  0  0  0  0  0  0  0
   40.2980   22.9560   35.5910 N   0  0  0  0  0  0  0  0  0  0  0  0
   39.7040   23.7580   34.7070 C   0  0  0  0  0  0  0  0  0  0  0  0
   40.1700   23.6900   33.5520 O   0  0  0  0  0  0  0  0  0  0  0  0
   37.3960   25.3010   36.4210 H   0  0  0  0  0  0  0  0  0  0  0  0
   37.9900   27.4540   32.6690 C   0  0  0  0  0  0  0  0  0  0  0  0
   38.5420   26.6830   33.7020 C   0  0  0  0  0  0  0  0  0  0  0  0
   38.1610   25.3810   33.9050 C   0  0  0  0  0  0  0  0  0  0  0  0
   37.2190   24.8580   33.0620 N   0  0  0  0  0  0  0  0  0  0  0  0
   36.6700   25.5920   32.0520 C   0  0  0  0  0  0  0  0  0  0  0  0
   37.0670   26.8880   31.8680 N   0  0  0  0  0  0  0  0  0  0  0  0
   38.2390   28.4650   32.4540 H   0  0  0  0  0  0  0  0  0  0  0  0
   39.2500   27.2570   34.2650 H   0  0  0  0  0  0  0  0  0  0  0  0
   35.9340   25.0810   31.4450 H   0  0  0  0  0  0  0  0  0  0  0  0
   41.4000   22.0760   35.2450 C   0  0  0  0  0  0  0  0  0  0  0  0
   41.0850   21.3470   34.1470 F   0  0  0  0  0  0  0  0  0  0  0  0
   41.6890   21.1650   36.2510 F   0  0  0  0  0  0  0  0  0  0  0  0
   42.5180   22.8500   34.9600 F   0  0  0  0  0  0  0  0  0  0  0  0
   38.2670   23.8590   38.5890 C   0  0  0  0  0  0  0  0  0  0  0  0
   39.3070   23.7620   39.4950 F   0  0  0  0  0  0  0  0  0  0  0  0
   37.6070   25.0450   38.8470 F   0  0  0  0  0  0  0  0  0  0  0  0
   37.4420   22.7730   38.8030 F   0  0  0  0  0  0  0  0  0  0  0  0
  1  2  1  0  0  0  0
  2  9  1  0  0  0  0
  2  3  2  0  0  0  0
  3 23  1  0  0  0  0
  4  3  1  0  0  0  0
  4  5  2  0  0  0  0
  6  4  1  0  0  0  0
  7  1  1  0  0  0  0
  7  6  1  0  0  0  0
  8  7  2  0  0  0  0
 10 11  1  0  0  0  0
 11 12  2  0  0  0  0
 11 17  1  0  0  0  0
 12  1  1  0  0  0  0
 13 12  1  0  0  0  0
 14 13  2  0  0  0  0
 15 14  1  0  0  0  0
 15 10  2  0  0  0  0
 16 10  1  0  0  0  0
 18 14  1  0  0  0  0
 19  6  1  0  0  0  0
 19 21  1  0  0  0  0
 20 19  1  0  0  0  0
 22 19  1  0  0  0  0
 23 26  1  0  0  0  0
 23 25  1  0  0  0  0
 23 24  1  0  0  0  0
M  END
>  <minimizedAffinity>
-5.3310957

$$$$

 OpenBabel03272505283D

 26 27  0  0  0  0  0  0  0  0999 V2000
   36.3770   27.6090   32.5860 N   0  0  0  0  0  0  0  0  0  0  0  0
   37.1160   27.5830   33.7300 C   0  0  0  0  0  0  0  0  0  0  0  0
   37.6900   26.4100   34.2000 C   0  0  0  0  0  0  0  0  0  0  0  0
   37.4850   25.2400   33.4520 C   0  0  0  0  0  0  0  0  0  0  0  0
   37.9860   24.1530   33.8370 O   0  0  0  0  0  0  0  0  0  0  0  0
   36.7400   25.2760   32.3000 N   0  0  0  0  0  0  0  0  0  0  0  0
   36.2390   26.4620   31.9510 C   0  0  0  0  0  0  0  0  0  0  0  0
   35.5660   26.4510   30.9010 O   0  0  0  0  0  0  0  0  0  0  0  0
   37.2570   28.5000   34.2870 H   0  0  0  0  0  0  0  0  0  0  0  0
   35.8200   30.7960   30.7620 C   0  0  0  0  0  0  0  0  0  0  0  0
   36.4270   29.6190   31.2230 C   0  0  0  0  0  0  0  0  0  0  0  0
   35.7970   28.7920   32.1180 C   0  0  0  0  0  0  0  0  0  0  0  0
   34.5510   29.1580   32.5490 N   0  0  0  0  0  0  0  0  0  0  0  0
   33.9430   30.2990   32.1130 C   0  0  0  0  0  0  0  0  0  0  0  0
   34.5910   31.1070   31.2180 N   0  0  0  0  0  0  0  0  0  0  0  0
   36.2480   31.4800   30.0710 H   0  0  0  0  0  0  0  0  0  0  0  0
   37.4000   29.5010   30.7910 H   0  0  0  0  0  0  0  0  0  0  0  0
   32.9580   30.4930   32.5170 H   0  0  0  0  0  0  0  0  0  0  0  0
   36.5270   24.0680   31.5220 C   0  0  0  0  0  0  0  0  0  0  0  0
   35.2640   24.0500   31.0310 F   0  0  0  0  0  0  0  0  0  0  0  0
   36.6690   22.9160   32.2810 F   0  0  0  0  0  0  0  0  0  0  0  0
   37.4190   24.0580   30.4580 F   0  0  0  0  0  0  0  0  0  0  0  0
   38.4920   26.3270   35.4220 C   0  0  0  0  0  0  0  0  0  0  0  0
   38.6500   27.5650   36.0160 F   0  0  0  0  0  0  0  0  0  0  0  0
   37.8640   25.5080   36.3420 F   0  0  0  0  0  0  0  0  0  0  0  0
   39.7550   25.8580   35.1210 F   0  0  0  0  0  0  0  0  0  0  0  0
  1  2  1  0  0  0  0
  2  3  2  0  0  0  0
  2  9  1  0  0  0  0
  3 23  1  0  0  0  0
  4  5  2  0  0  0  0
  4  3  1  0  0  0  0
  6  4  1  0  0  0  0
  7  6  1  0  0  0  0
  7  1  1  0  0  0  0
  8  7  2  0  0  0  0
 10 15  2  0  0  0  0
 10 11  1  0  0  0  0
 11 12  2  0  0  0  0
 12 13  1  0  0  0  0
 12  1  1  0  0  0  0
 14 18  1  0  0  0  0
 14 13  2  0  0  0  0
 15 14  1  0  0  0  0
 16 10  1  0  0  0  0
 17 11  1  0  0  0  0
 19 21  1  0  0  0  0
 19  6  1  0  0  0  0
 20 19  1  0  0  0  0
 22 19  1  0  0  0  0
 23 24  1  0  0  0  0
 23 25  1  0  0  0  0
 26 23  1  0  0  0  0
M  END
>  <minimizedAffinity>
-5.22984791

$$$$

 OpenBabel03272505283D

 26 27  0  0  0  0  0  0  0  0999 V2000
   39.0700   24.5100   34.8070 N   0  0  0  0  0  0  0  0  0  0  0  0
   40.2100   23.7920   34.6080 C   0  0  0  0  0  0  0  0  0  0  0  0
   40.7940   23.0550   35.6280 C   0  0  0  0  0  0  0  0  0  0  0  0
   40.1680   23.0720   36.8850 C   0  0  0  0  0  0  0  0  0  0  0  0
   40.6600   22.4200   37.8400 O   0  0  0  0  0  0  0  0  0  0  0  0
   39.0190   23.7980   37.0760 N   0  0  0  0  0  0  0  0  0  0  0  0
   38.5540   24.4660   36.0200 C   0  0  0  0  0  0  0  0  0  0  0  0
   37.5110   25.1150   36.2370 O   0  0  0  0  0  0  0  0  0  0  0  0
   40.6710   23.7980   33.6300 H   0  0  0  0  0  0  0  0  0  0  0  0
   38.2920   27.2520   32.4270 C   0  0  0  0  0  0  0  0  0  0  0  0
   38.8880   26.5300   33.4700 C   0  0  0  0  0  0  0  0  0  0  0  0
   38.4860   25.2550   33.7780 C   0  0  0  0  0  0  0  0  0  0  0  0
   37.4790   24.7100   33.0290 N   0  0  0  0  0  0  0  0  0  0  0  0
   36.8860   25.3980   32.0100 C   0  0  0  0  0  0  0  0  0  0  0  0
   37.3060   26.6680   31.7210 N   0  0  0  0  0  0  0  0  0  0  0  0
   38.5540   28.2400   32.1340 H   0  0  0  0  0  0  0  0  0  0  0  0
   39.6450   27.1150   33.9520 H   0  0  0  0  0  0  0  0  0  0  0  0
   36.1000   24.8730   31.4820 H   0  0  0  0  0  0  0  0  0  0  0  0
   38.3680   23.8170   38.3740 C   0  0  0  0  0  0  0  0  0  0  0  0
   37.8460   25.0450   38.6130 F   0  0  0  0  0  0  0  0  0  0  0  0
   39.2480   23.5570   39.4140 F   0  0  0  0  0  0  0  0  0  0  0  0
   37.3360   22.8880   38.3710 F   0  0  0  0  0  0  0  0  0  0  0  0
   42.0180   22.2670   35.4680 C   0  0  0  0  0  0  0  0  0  0  0  0
   43.0270   22.7140   36.3010 F   0  0  0  0  0  0  0  0  0  0  0  0
   41.7730   20.9460   35.7930 F   0  0  0  0  0  0  0  0  0  0  0  0
   42.4810   22.3820   34.1730 F   0  0  0  0  0  0  0  0  0  0  0  0
  1  7  1  0  0  0  0
  2  1  1  0  0  0  0
  2  3  2  0  0  0  0
  3  4  1  0  0  0  0
  4  6  1  0  0  0  0
  4  5  2  0  0  0  0
  6 19  1  0  0  0  0
  7  8  2  0  0  0  0
  7  6  1  0  0  0  0
  9  2  1  0  0  0  0
 10 11  1  0  0  0  0
 11 12  2  0  0  0  0
 11 17  1  0  0  0  0
 12  1  1  0  0  0  0
 13 12  1  0  0  0  0
 14 13  2  0  0  0  0
 15 14  1  0  0  0  0
 15 10  2  0  0  0  0
 16 10  1  0  0  0  0
 18 14  1  0  0  0  0
 19 20  1  0  0  0  0
 19 21  1  0  0  0  0
 22 19  1  0  0  0  0
 23  3  1  0  0  0  0
 23 25  1  0  0  0  0
 23 24  1  0  0  0  0
 26 23  1  0  0  0  0
M  END
>  <minimizedAffinity>
-5.22912407

$$$$

 OpenBabel03272505283D

 26 27  0  0  0  0  0  0  0  0999 V2000
   38.0870   23.6220   34.3550 N   0  0  0  0  0  0  0  0  0  0  0  0
   38.1490   24.8760   33.8270 C   0  0  0  0  0  0  0  0  0  0  0  0
   37.5260   25.1940   32.6280 C   0  0  0  0  0  0  0  0  0  0  0  0
   36.8230   24.1730   31.9690 C   0  0  0  0  0  0  0  0  0  0  0  0
   36.2410   24.4120   30.8810 O   0  0  0  0  0  0  0  0  0  0  0  0
   36.7650   22.9120   32.5090 N   0  0  0  0  0  0  0  0  0  0  0  0
   37.4040   22.7290   33.6650 C   0  0  0  0  0  0  0  0  0  0  0  0
   37.3300   21.5700   34.1200 O   0  0  0  0  0  0  0  0  0  0  0  0
   38.6990   25.6430   34.3550 H   0  0  0  0  0  0  0  0  0  0  0  0
   38.8570   23.3340   37.9760 C   0  0  0  0  0  0  0  0  0  0  0  0
   38.2080   23.6720   36.7800 C   0  0  0  0  0  0  0  0  0  0  0  0
   38.7190   23.3050   35.5610 C   0  0  0  0  0  0  0  0  0  0  0  0
   39.8890   22.5960   35.5530 N   0  0  0  0  0  0  0  0  0  0  0  0
   40.5350   22.2590   36.7050 C   0  0  0  0  0  0  0  0  0  0  0  0
   40.0050   22.6350   37.9100 N   0  0  0  0  0  0  0  0  0  0  0  0
   38.5180   23.5840   38.9530 H   0  0  0  0  0  0  0  0  0  0  0  0
   37.3180   24.2340   36.9780 H   0  0  0  0  0  0  0  0  0  0  0  0
   41.4530   21.6970   36.5840 H   0  0  0  0  0  0  0  0  0  0  0  0
   36.0380   21.8530   31.8310 C   0  0  0  0  0  0  0  0  0  0  0  0
   35.3310   22.3670   30.7950 F   0  0  0  0  0  0  0  0  0  0  0  0
   35.1190   21.2250   32.6590 F   0  0  0  0  0  0  0  0  0  0  0  0
   36.9490   20.9310   31.3350 F   0  0  0  0  0  0  0  0  0  0  0  0
   37.5610   26.5240   32.0170 C   0  0  0  0  0  0  0  0  0  0  0  0
   38.0820   26.4860   30.7370 F   0  0  0  0  0  0  0  0  0  0  0  0
   36.2790   27.0330   31.9240 F   0  0  0  0  0  0  0  0  0  0  0  0
   38.3730   27.3570   32.7600 F   0  0  0  0  0  0  0  0  0  0  0  0
  1 12  1  0  0  0  0
  2  9  1  0  0  0  0
  2  1  1  0  0  0  0
  3  2  2  0  0  0  0
  4  6  1  0  0  0  0
  4  3  1  0  0  0  0
  5  4  2  0  0  0  0
  6  7  1  0  0  0  0
  7  8  2  0  0  0  0
  7  1  1  0  0  0  0
 10 16  1  0  0  0  0
 11 17  1  0  0  0  0
 11 10  2  0  0  0  0
 12 11  1  0  0  0  0
 13 12  2  0  0  0  0
 13 14  1  0  0  0  0
 14 15  2  0  0  0  0
 15 10  1  0  0  0  0
 18 14  1  0  0  0  0
 19  6  1  0  0  0  0
 19 21  1  0  0  0  0
 20 19  1  0  0  0  0
 22 19  1  0  0  0  0
 23  3  1  0  0  0  0
 23 26  1  0  0  0  0
 24 23  1  0  0  0  0
 25 23  1  0  0  0  0
M  END
>  <minimizedAffinity>
-5.18823242

$$$$

 OpenBabel03272505283D

 26 27  0  0  0  0  0  0  0  0999 V2000
   38.0070   23.5060   34.4740 N   0  0  0  0  0  0  0  0  0  0  0  0
   37.5980   22.4370   33.7350 C   0  0  0  0  0  0  0  0  0  0  0  0
   37.1790   22.5780   32.4200 C   0  0  0  0  0  0  0  0  0  0  0  0
   37.1910   23.8690   31.8680 C   0  0  0  0  0  0  0  0  0  0  0  0
   36.8220   24.0470   30.6790 O   0  0  0  0  0  0  0  0  0  0  0  0
   37.6060   24.9400   32.6200 N   0  0  0  0  0  0  0  0  0  0  0  0
   37.9840   24.6780   33.8720 C   0  0  0  0  0  0  0  0  0  0  0  0
   38.3500   25.6780   34.5210 O   0  0  0  0  0  0  0  0  0  0  0  0
   37.5980   21.4540   34.1860 H   0  0  0  0  0  0  0  0  0  0  0  0
   40.0660   22.7560   37.4730 C   0  0  0  0  0  0  0  0  0  0  0  0
   39.6680   22.8850   36.1350 C   0  0  0  0  0  0  0  0  0  0  0  0
   38.4240   23.3600   35.8010 C   0  0  0  0  0  0  0  0  0  0  0  0
   37.5830   23.7030   36.8230 N   0  0  0  0  0  0  0  0  0  0  0  0
   37.9510   23.5850   38.1310 C   0  0  0  0  0  0  0  0  0  0  0  0
   39.1970   23.1100   38.4390 N   0  0  0  0  0  0  0  0  0  0  0  0
   41.0110   22.3980   37.8030 H   0  0  0  0  0  0  0  0  0  0  0  0
   40.4460   22.5590   35.4750 H   0  0  0  0  0  0  0  0  0  0  0  0
   37.2080   23.8850   38.8590 H   0  0  0  0  0  0  0  0  0  0  0  0
   37.6210   26.2770   32.0520 C   0  0  0  0  0  0  0  0  0  0  0  0
   37.5800   26.2060   30.6990 F   0  0  0  0  0  0  0  0  0  0  0  0
   38.7740   26.9780   32.3730 F   0  0  0  0  0  0  0  0  0  0  0  0
   36.4990   26.9640   32.4950 F   0  0  0  0  0  0  0  0  0  0  0  0
   36.7300   21.4640   31.5820 C   0  0  0  0  0  0  0  0  0  0  0  0
   36.7810   20.2610   32.2610 F   0  0  0  0  0  0  0  0  0  0  0  0
   35.4170   21.6640   31.1990 F   0  0  0  0  0  0  0  0  0  0  0  0
   37.5550   21.3450   30.4830 F   0  0  0  0  0  0  0  0  0  0  0  0
  1 12  1  0  0  0  0
  2  9  1  0  0  0  0
  2  1  1  0  0  0  0
  3  2  2  0  0  0  0
  4  3  1  0  0  0  0
  4  6  1  0  0  0  0
  5  4  2  0  0  0  0
  6  7  1  0  0  0  0
  7  1  1  0  0  0  0
  7  8  2  0  0  0  0
 10 16  1  0  0  0  0
 10 15  1  0  0  0  0
 11 10  2  0  0  0  0
 12 11  1  0  0  0  0
 12 13  2  0  0  0  0
 13 14  1  0  0  0  0
 14 15  2  0  0  0  0
 14 18  1  0  0  0  0
 17 11  1  0  0  0  0
 19 21  1  0  0  0  0
 19 22  1  0  0  0  0
 19  6  1  0  0  0  0
 20 19  1  0  0  0  0
 23 24  1  0  0  0  0
 23  3  1  0  0  0  0
 25 23  1  0  0  0  0
 26 23  1  0  0  0  0
M  END
>  <minimizedAffinity>
-5.10606861

$$$$

 OpenBabel03272505283D

 26 27  0  0  0  0  0  0  0  0999 V2000
   38.2630   24.1480   34.5930 N   0  0  0  0  0  0  0  0  0  0  0  0
   37.7640   23.2240   33.7260 C   0  0  0  0  0  0  0  0  0  0  0  0
   37.5060   23.5350   32.3980 C   0  0  0  0  0  0  0  0  0  0  0  0
   37.7760   24.8450   31.9720 C   0  0  0  0  0  0  0  0  0  0  0  0
   37.5590   25.1750   30.7790 O   0  0  0  0  0  0  0  0  0  0  0  0
   38.2790   25.7700   32.8540 N   0  0  0  0  0  0  0  0  0  0  0  0
   38.4850   25.3520   34.1030 C   0  0  0  0  0  0  0  0  0  0  0  0
   38.9390   26.2220   34.8720 O   0  0  0  0  0  0  0  0  0  0  0  0
   37.5640   22.2220   34.0810 H   0  0  0  0  0  0  0  0  0  0  0  0
   37.9230   23.8110   38.2760 C   0  0  0  0  0  0  0  0  0  0  0  0
   37.6480   24.1480   36.9430 C   0  0  0  0  0  0  0  0  0  0  0  0
   38.5180   23.8310   35.9310 C   0  0  0  0  0  0  0  0  0  0  0  0
   39.6690   23.1730   36.2680 N   0  0  0  0  0  0  0  0  0  0  0  0
   39.9550   22.8370   37.5590 C   0  0  0  0  0  0  0  0  0  0  0  0
   39.0710   23.1630   38.5520 N   0  0  0  0  0  0  0  0  0  0  0  0
   37.2960   24.0250   39.1080 H   0  0  0  0  0  0  0  0  0  0  0  0
   36.7150   24.6680   36.8690 H   0  0  0  0  0  0  0  0  0  0  0  0
   40.8920   22.3180   37.7150 H   0  0  0  0  0  0  0  0  0  0  0  0
   38.5620   27.1260   32.4170 C   0  0  0  0  0  0  0  0  0  0  0  0
   37.6390   27.9780   32.9250 F   0  0  0  0  0  0  0  0  0  0  0  0
   38.5050   27.2630   31.0370 F   0  0  0  0  0  0  0  0  0  0  0  0
   39.8150   27.4950   32.8870 F   0  0  0  0  0  0  0  0  0  0  0  0
   36.9700   22.5810   31.4250 C   0  0  0  0  0  0  0  0  0  0  0  0
   35.7930   23.0340   30.8590 F   0  0  0  0  0  0  0  0  0  0  0  0
   37.8760   22.3990   30.3970 F   0  0  0  0  0  0  0  0  0  0  0  0
   36.6840   21.3850   32.0530 F   0  0  0  0  0  0  0  0  0  0  0  0
  1 12  1  0  0  0  0
  2  9  1  0  0  0  0
  2  1  1  0  0  0  0
  3  2  2  0  0  0  0
  4  3  1  0  0  0  0
  4  6  1  0  0  0  0
  5  4  2  0  0  0  0
  6  7  1  0  0  0  0
  7  1  1  0  0  0  0
  7  8  2  0  0  0  0
 10 15  1  0  0  0  0
 10 16  1  0  0  0  0
 11 10  2  0  0  0  0
 12 13  2  0  0  0  0
 12 11  1  0  0  0  0
 13 14  1  0  0  0  0
 14 18  1  0  0  0  0
 14 15  2  0  0  0  0
 17 11  1  0  0  0  0
 19  6  1  0  0  0  0
 19 22  1  0  0  0  0
 19 20  1  0  0  0  0
 21 19  1  0  0  0  0
 23 26  1  0  0  0  0
 23  3  1  0  0  0  0
 24 23  1  0  0  0  0
 25 23  1  0  0  0  0
M  END
>  <minimizedAffinity>
-5.10430288

$$$$
