
 OpenBabel03272506203D

 39 41  0  0  1  0  0  0  0  0999 V2000
   36.8470   31.9970   42.9730 C   0  0  2  0  0  0  0  0  0  0  0  0
   38.1140   32.8000   42.8160 C   0  0  0  0  0  0  0  0  0  0  0  0
   39.3190   31.9550   42.6150 C   0  0  0  0  0  0  0  0  0  0  0  0
   39.5040   30.9100   43.6590 C   0  0  0  0  0  0  0  0  0  0  0  0
   38.2650   30.1940   44.0120 C   0  0  0  0  0  0  0  0  0  0  0  0
   37.0450   30.5560   43.1640 C   0  0  1  0  0  0  0  0  0  0  0  0
   36.2230   32.4050   43.8220 H   0  0  0  0  0  0  0  0  0  0  0  0
   38.2670   33.3420   43.7950 H   0  0  0  0  0  0  0  0  0  0  0  0
   38.0780   33.5870   42.0610 H   0  0  0  0  0  0  0  0  0  0  0  0
   39.1950   31.4720   41.6000 H   0  0  0  0  0  0  0  0  0  0  0  0
   40.1960   32.6300   42.5860 H   0  0  0  0  0  0  0  0  0  0  0  0
   40.3150   30.2170   43.2920 H   0  0  0  0  0  0  0  0  0  0  0  0
   39.9530   31.4090   44.5650 H   0  0  0  0  0  0  0  0  0  0  0  0
   37.9910   30.3190   45.0960 H   0  0  0  0  0  0  0  0  0  0  0  0
   38.4080   29.0940   43.8530 H   0  0  0  0  0  0  0  0  0  0  0  0
   37.1520   30.0400   42.1970 H   0  0  0  0  0  0  0  0  0  0  0  0
   35.9790   32.1900   41.7550 C   0  0  0  0  0  0  0  0  0  0  0  0
   34.8670   33.0120   41.9360 C   0  0  0  0  0  0  0  0  0  0  0  0
   34.0230   33.2120   40.8380 C   0  0  0  0  0  0  0  0  0  0  0  0
   34.3380   32.5840   39.6440 N   0  0  0  0  0  0  0  0  0  0  0  0
   35.4380   31.7870   39.5190 C   0  0  0  0  0  0  0  0  0  0  0  0
   36.2300   31.6060   40.5600 N   0  0  0  0  0  0  0  0  0  0  0  0
   32.8790   34.0350   40.9190 N   0  0  0  0  0  0  0  0  0  0  0  0
   32.9640   35.3600   41.2530 C   0  0  0  0  0  0  0  0  0  0  0  0
   31.8320   36.1390   41.3230 C   0  0  0  0  0  0  0  0  0  0  0  0
   30.6240   35.5540   41.0500 C   0  0  0  0  0  0  0  0  0  0  0  0
   29.5860   36.2720   41.1150 O   0  0  0  0  0  0  0  0  0  0  0  0
   30.5400   34.2490   40.7210 N   0  0  0  0  0  0  0  0  0  0  0  0
   31.6780   33.5290   40.6650 C   0  0  0  0  0  0  0  0  0  0  0  0
   31.4880   32.3140   40.3460 O   0  0  0  0  0  0  0  0  0  0  0  0
   34.5550   33.5290   42.8280 H   0  0  0  0  0  0  0  0  0  0  0  0
   35.6230   31.3260   38.5500 H   0  0  0  0  0  0  0  0  0  0  0  0
   33.9700   35.7410   41.4550 H   0  0  0  0  0  0  0  0  0  0  0  0
   31.9710   37.1790   41.5940 H   0  0  0  0  0  0  0  0  0  0  0  0
   29.5900   33.8690   40.5250 H   0  0  0  0  0  0  0  0  0  0  0  0
   35.8610   29.9230   43.8870 C   0  0  0  0  0  0  0  0  0  0  0  0
   36.1770   28.6050   44.1730 F   0  0  0  0  0  0  0  0  0  0  0  0
   35.6930   30.5240   45.1400 F   0  0  0  0  0  0  0  0  0  0  0  0
   34.7010   29.9450   43.1760 F   0  0  0  0  0  0  0  0  0  0  0  0
  1  6  1  0  0  0  0
  1  7  1  1  0  0  0
  2  1  1  0  0  0  0
  2  8  1  0  0  0  0
  3  2  1  0  0  0  0
  3  4  1  0  0  0  0
  4  5  1  0  0  0  0
  4 13  1  0  0  0  0
  5 14  1  0  0  0  0
  6 16  1  6  0  0  0
  6 36  1  0  0  0  0
  6  5  1  0  0  0  0
  9  2  1  0  0  0  0
 10  3  1  0  0  0  0
 11  3  1  0  0  0  0
 12  4  1  0  0  0  0
 15  5  1  0  0  0  0
 17 18  1  0  0  0  0
 17  1  1  0  0  0  0
 18 31  1  0  0  0  0
 19 23  1  0  0  0  0
 19 18  2  0  0  0  0
 20 19  1  0  0  0  0
 21 20  2  0  0  0  0
 21 22  1  0  0  0  0
 22 17  2  0  0  0  0
 23 24  1  0  0  0  0
 24 25  2  0  0  0  0
 24 33  1  0  0  0  0
 25 34  1  0  0  0  0
 26 27  2  0  0  0  0
 26 25  1  0  0  0  0
 28 26  1  0  0  0  0
 29 28  1  0  0  0  0
 29 23  1  0  0  0  0
 30 29  2  0  0  0  0
 32 21  1  0  0  0  0
 35 28  1  0  0  0  0
 36 37  1  0  0  0  0
 36 38  1  0  0  0  0
 39 36  1  0  0  0  0
M  END
>  <minimizedAffinity>
-3.08299875

>  <minimizedRMSD>
7.31619692

$$$$
