
 OpenBabel03272506203D

 39 41  0  0  1  0  0  0  0  0999 V2000
   35.5190   30.3840   47.6420 C   0  0  2  0  0  0  0  0  0  0  0  0
   36.1400   30.6220   46.2890 C   0  0  0  0  0  0  0  0  0  0  0  0
   37.5640   30.2040   46.2180 C   0  0  0  0  0  0  0  0  0  0  0  0
   38.4200   30.7960   47.2820 C   0  0  0  0  0  0  0  0  0  0  0  0
   37.8060   30.7740   48.6220 C   0  0  0  0  0  0  0  0  0  0  0  0
   36.4670   30.0400   48.7090 C   0  0  1  0  0  0  0  0  0  0  0  0
   34.9070   31.2790   47.9600 H   0  0  0  0  0  0  0  0  0  0  0  0
   36.1290   31.7400   46.1290 H   0  0  0  0  0  0  0  0  0  0  0  0
   35.5870   30.2110   45.4430 H   0  0  0  0  0  0  0  0  0  0  0  0
   37.5620   29.0760   46.3040 H   0  0  0  0  0  0  0  0  0  0  0  0
   37.9430   30.4870   45.2170 H   0  0  0  0  0  0  0  0  0  0  0  0
   39.4090   30.2540   47.2490 H   0  0  0  0  0  0  0  0  0  0  0  0
   38.6690   31.8510   46.9710 H   0  0  0  0  0  0  0  0  0  0  0  0
   37.6710   31.8060   49.0490 H   0  0  0  0  0  0  0  0  0  0  0  0
   38.4780   30.2290   49.3340 H   0  0  0  0  0  0  0  0  0  0  0  0
   36.6840   28.9610   48.7120 H   0  0  0  0  0  0  0  0  0  0  0  0
   34.5100   29.2680   47.5410 C   0  0  0  0  0  0  0  0  0  0  0  0
   33.2730   29.6260   47.0050 C   0  0  0  0  0  0  0  0  0  0  0  0
   32.2980   28.6290   46.9020 C   0  0  0  0  0  0  0  0  0  0  0  0
   32.6160   27.3520   47.3360 N   0  0  0  0  0  0  0  0  0  0  0  0
   33.8410   27.0530   47.8540 C   0  0  0  0  0  0  0  0  0  0  0  0
   34.7560   28.0010   47.9470 N   0  0  0  0  0  0  0  0  0  0  0  0
   31.0190   28.8900   46.3640 N   0  0  0  0  0  0  0  0  0  0  0  0
   30.8540   29.3580   45.0880 C   0  0  0  0  0  0  0  0  0  0  0  0
   29.5950   29.6040   44.5890 C   0  0  0  0  0  0  0  0  0  0  0  0
   28.5180   29.3680   45.4020 C   0  0  0  0  0  0  0  0  0  0  0  0
   27.3630   29.5940   44.9400 O   0  0  0  0  0  0  0  0  0  0  0  0
   28.6810   28.9060   46.6580 N   0  0  0  0  0  0  0  0  0  0  0  0
   29.9340   28.6810   47.1000 C   0  0  0  0  0  0  0  0  0  0  0  0
   29.9760   28.2480   48.2930 O   0  0  0  0  0  0  0  0  0  0  0  0
   32.9510   30.5920   46.6510 H   0  0  0  0  0  0  0  0  0  0  0  0
   34.0200   26.0280   48.1760 H   0  0  0  0  0  0  0  0  0  0  0  0
   31.7710   29.5190   44.5120 H   0  0  0  0  0  0  0  0  0  0  0  0
   29.5370   29.9730   43.5720 H   0  0  0  0  0  0  0  0  0  0  0  0
   27.8190   28.7480   47.2210 H   0  0  0  0  0  0  0  0  0  0  0  0
   35.9110   30.3950   50.0840 C   0  0  0  0  0  0  0  0  0  0  0  0
   35.6840   29.2190   50.7810 F   0  0  0  0  0  0  0  0  0  0  0  0
   36.8890   31.0630   50.8320 F   0  0  0  0  0  0  0  0  0  0  0  0
   34.7540   31.1060   50.0460 F   0  0  0  0  0  0  0  0  0  0  0  0
  1  7  1  1  0  0  0
  1  6  1  0  0  0  0
  2  1  1  0  0  0  0
  3  2  1  0  0  0  0
  3 10  1  0  0  0  0
  3  4  1  0  0  0  0
  4  5  1  0  0  0  0
  5  6  1  0  0  0  0
  5 14  1  0  0  0  0
  5 15  1  0  0  0  0
  6 16  1  6  0  0  0
  6 36  1  0  0  0  0
  8  2  1  0  0  0  0
  9  2  1  0  0  0  0
 11  3  1  0  0  0  0
 12  4  1  0  0  0  0
 13  4  1  0  0  0  0
 17  1  1  0  0  0  0
 17 22  1  0  0  0  0
 18 17  2  0  0  0  0
 19 18  1  0  0  0  0
 19 20  2  0  0  0  0
 20 21  1  0  0  0  0
 21 22  2  0  0  0  0
 21 32  1  0  0  0  0
 23 19  1  0  0  0  0
 23 29  1  0  0  0  0
 24 23  1  0  0  0  0
 25 24  2  0  0  0  0
 25 26  1  0  0  0  0
 26 28  1  0  0  0  0
 27 26  2  0  0  0  0
 28 29  1  0  0  0  0
 28 35  1  0  0  0  0
 29 30  2  0  0  0  0
 31 18  1  0  0  0  0
 33 24  1  0  0  0  0
 34 25  1  0  0  0  0
 36 37  1  0  0  0  0
 36 38  1  0  0  0  0
 39 36  1  0  0  0  0
M  END
>  <minimizedAffinity>
-5.63355112

>  <minimizedRMSD>
2.6990304

$$$$
