
 OpenBabel03272506203D

 39 41  0  0  1  0  0  0  0  0999 V2000
   38.3870   30.8280   45.0950 C   0  0  2  0  0  0  0  0  0  0  0  0
   38.5990   31.8730   46.1630 C   0  0  0  0  0  0  0  0  0  0  0  0
   39.5440   32.9430   45.7530 C   0  0  0  0  0  0  0  0  0  0  0  0
   40.8570   32.4350   45.2710 C   0  0  0  0  0  0  0  0  0  0  0  0
   40.7520   31.2820   44.3580 C   0  0  0  0  0  0  0  0  0  0  0  0
   39.3250   30.8930   43.9690 C   0  0  1  0  0  0  0  0  0  0  0  0
   38.4140   29.7920   45.5450 H   0  0  0  0  0  0  0  0  0  0  0  0
   39.0810   31.3390   47.0340 H   0  0  0  0  0  0  0  0  0  0  0  0
   37.6880   32.3140   46.5710 H   0  0  0  0  0  0  0  0  0  0  0  0
   39.0250   33.5190   44.9300 H   0  0  0  0  0  0  0  0  0  0  0  0
   39.6860   33.6110   46.6240 H   0  0  0  0  0  0  0  0  0  0  0  0
   41.3980   33.3090   44.8040 H   0  0  0  0  0  0  0  0  0  0  0  0
   41.4760   32.1760   46.1760 H   0  0  0  0  0  0  0  0  0  0  0  0
   41.2690   30.3670   44.7600 H   0  0  0  0  0  0  0  0  0  0  0  0
   41.2580   31.5240   43.3880 H   0  0  0  0  0  0  0  0  0  0  0  0
   38.9840   31.6150   43.2110 H   0  0  0  0  0  0  0  0  0  0  0  0
   36.9900   30.9520   44.5440 C   0  0  0  0  0  0  0  0  0  0  0  0
   36.0380   30.1190   45.1320 C   0  0  0  0  0  0  0  0  0  0  0  0
   34.7280   30.1870   44.6460 C   0  0  0  0  0  0  0  0  0  0  0  0
   34.4540   31.0720   43.6150 N   0  0  0  0  0  0  0  0  0  0  0  0
   35.4220   31.8650   43.0730 C   0  0  0  0  0  0  0  0  0  0  0  0
   36.6560   31.7950   43.5390 N   0  0  0  0  0  0  0  0  0  0  0  0
   33.6920   29.3920   45.1830 N   0  0  0  0  0  0  0  0  0  0  0  0
   33.3390   29.4600   46.5030 C   0  0  0  0  0  0  0  0  0  0  0  0
   32.3240   28.6730   46.9990 C   0  0  0  0  0  0  0  0  0  0  0  0
   31.6820   27.8240   46.1380 C   0  0  0  0  0  0  0  0  0  0  0  0
   30.7500   27.1030   46.5960 O   0  0  0  0  0  0  0  0  0  0  0  0
   32.0290   27.7570   44.8370 N   0  0  0  0  0  0  0  0  0  0  0  0
   33.0290   28.5480   44.4000 C   0  0  0  0  0  0  0  0  0  0  0  0
   33.2770   28.4080   43.1620 O   0  0  0  0  0  0  0  0  0  0  0  0
   36.1730   29.4060   45.9290 H   0  0  0  0  0  0  0  0  0  0  0  0
   35.1350   32.5360   42.2650 H   0  0  0  0  0  0  0  0  0  0  0  0
   33.9070   30.1660   47.1170 H   0  0  0  0  0  0  0  0  0  0  0  0
   32.0970   28.7780   48.0540 H   0  0  0  0  0  0  0  0  0  0  0  0
   31.4990   27.0900   44.2370 H   0  0  0  0  0  0  0  0  0  0  0  0
   39.4600   29.5400   43.2780 C   0  0  0  0  0  0  0  0  0  0  0  0
   38.6320   29.5320   42.1660 F   0  0  0  0  0  0  0  0  0  0  0  0
   40.7520   29.4020   42.7540 F   0  0  0  0  0  0  0  0  0  0  0  0
   39.1360   28.4810   44.0650 F   0  0  0  0  0  0  0  0  0  0  0  0
  1  7  1  1  0  0  0
  1  2  1  0  0  0  0
  2  9  1  0  0  0  0
  2  8  1  0  0  0  0
  3  2  1  0  0  0  0
  3 11  1  0  0  0  0
  4  3  1  0  0  0  0
  4 13  1  0  0  0  0
  5 14  1  0  0  0  0
  5  4  1  0  0  0  0
  6 16  1  6  0  0  0
  6  5  1  0  0  0  0
  6  1  1  0  0  0  0
 10  3  1  0  0  0  0
 12  4  1  0  0  0  0
 15  5  1  0  0  0  0
 17  1  1  0  0  0  0
 17 18  1  0  0  0  0
 18 31  1  0  0  0  0
 19 18  2  0  0  0  0
 19 23  1  0  0  0  0
 20 19  1  0  0  0  0
 21 22  1  0  0  0  0
 21 20  2  0  0  0  0
 22 17  2  0  0  0  0
 23 24  1  0  0  0  0
 24 25  2  0  0  0  0
 24 33  1  0  0  0  0
 25 34  1  0  0  0  0
 26 27  2  0  0  0  0
 26 25  1  0  0  0  0
 28 26  1  0  0  0  0
 29 28  1  0  0  0  0
 29 23  1  0  0  0  0
 30 29  2  0  0  0  0
 32 21  1  0  0  0  0
 35 28  1  0  0  0  0
 36  6  1  0  0  0  0
 36 39  1  0  0  0  0
 37 36  1  0  0  0  0
 38 36  1  0  0  0  0
M  END
>  <minimizedAffinity>
-4.66135693

>  <minimizedRMSD>
6.27992821

$$$$
