
 OpenBabel03262521013D

 33 34  0  0  1  0  0  0  0  0999 V2000
   39.5230   32.8680   46.3050 N   0  0  0  0  0  0  0  0  0  0  0  0
   38.2060   32.3580   46.0790 C   0  0  1  0  0  0  0  0  0  0  0  0
   37.8920   32.3810   44.6090 C   0  0  0  0  0  0  0  0  0  0  0  0
   38.8920   31.5540   43.9380 N   0  0  0  0  0  0  0  0  0  0  0  0
   40.1420   32.3290   44.0540 C   0  0  0  0  0  0  0  0  0  0  0  0
   40.5400   32.2440   45.5250 C   0  0  2  0  0  0  0  0  0  0  0  0
   39.7700   33.0830   47.2730 H   0  0  0  0  0  0  0  0  0  0  0  0
   37.4750   32.9550   46.6320 H   0  0  0  0  0  0  0  0  0  0  0  0
   37.8840   33.3940   44.1790 H   0  0  0  0  0  0  0  0  0  0  0  0
   36.8890   31.8940   44.4910 H   0  0  0  0  0  0  0  0  0  0  0  0
   38.9780   30.6460   44.4250 H   0  0  0  0  0  0  0  0  0  0  0  0
   39.9010   33.3720   43.7860 H   0  0  0  0  0  0  0  0  0  0  0  0
   40.9370   31.9160   43.4290 H   0  0  0  0  0  0  0  0  0  0  0  0
   41.4660   32.8500   45.6350 H   0  0  0  0  0  0  0  0  0  0  0  0
   40.7710   30.8550   45.8600 N   0  0  0  0  0  0  0  0  0  0  0  0
   40.8140   30.7870   46.9180 H   0  0  0  0  0  0  0  0  0  0  0  0
   41.7630   30.6400   45.5460 H   0  0  0  0  0  0  0  0  0  0  0  0
   38.0480   30.6040   46.6070 S   0  0  0  0  0  0  0  0  0  0  0  0
   35.8470   31.1290   49.9630 C   0  0  0  0  0  0  0  0  0  0  0  0
   36.8130   31.3260   48.9960 C   0  0  0  0  0  0  0  0  0  0  0  0
   36.8660   30.4780   47.9270 C   0  0  0  0  0  0  0  0  0  0  0  0
   35.9430   29.4460   47.8520 N   0  0  0  0  0  0  0  0  0  0  0  0
   35.0360   29.3120   48.8210 C   0  0  0  0  0  0  0  0  0  0  0  0
   34.9630   30.1270   49.8750 N   0  0  0  0  0  0  0  0  0  0  0  0
   35.7790   31.7880   50.8260 H   0  0  0  0  0  0  0  0  0  0  0  0
   37.5240   32.1310   49.0630 H   0  0  0  0  0  0  0  0  0  0  0  0
   34.0690   28.2150   48.7260 C   0  0  0  0  0  0  0  0  0  0  0  0
   34.3280   27.1020   48.2030 O   0  0  0  0  0  0  0  0  0  0  0  0
   30.5790   28.1760   48.9770 H   0  0  0  0  0  0  0  0  0  0  0  0
   31.5800   28.0240   48.5640 C   0  0  0  0  0  0  0  0  0  0  0  0
   31.6710   27.4860   47.4320 O   0  0  0  0  0  0  0  0  0  0  0  0
   32.7500   28.4090   49.2550 N   0  0  0  0  0  0  0  0  0  0  0  0
   32.6780   28.8590   50.2050 H   0  0  0  0  0  0  0  0  0  0  0  0
  1  7  1  0  0  0  0
  2  1  1  0  0  0  0
  2 18  1  0  0  0  0
  2  8  1  1  0  0  0
  3  2  1  0  0  0  0
  4  5  1  0  0  0  0
  4 11  1  0  0  0  0
  4  3  1  0  0  0  0
  5  6  1  0  0  0  0
  6 14  1  1  0  0  0
  6 15  1  0  0  0  0
  6  1  1  0  0  0  0
  9  3  1  0  0  0  0
 10  3  1  0  0  0  0
 12  5  1  0  0  0  0
 13  5  1  0  0  0  0
 15 16  1  0  0  0  0
 17 15  1  0  0  0  0
 18 21  1  0  0  0  0
 19 25  1  0  0  0  0
 20 26  1  0  0  0  0
 20 19  2  0  0  0  0
 21 20  1  0  0  0  0
 22 21  2  0  0  0  0
 22 23  1  0  0  0  0
 23 24  2  0  0  0  0
 24 19  1  0  0  0  0
 27 23  1  0  0  0  0
 27 32  1  0  0  0  0
 28 27  2  0  0  0  0
 30 29  1  0  0  0  0
 30 32  1  0  0  0  0
 31 30  2  0  0  0  0
 32 33  1  0  0  0  0
M  END
>  <minimizedAffinity>
-5.16320705

>  <minimizedRMSD>
1.62123322

$$$$
