
 OpenBabel03272509443D

 15 15  0  0  0  0  0  0  0  0999 V2000
   37.4690   30.2930   51.3100 C   0  0  0  0  0  0  0  0  0  0  0  0
   38.2070   30.9350   50.3110 C   0  0  0  0  0  0  0  0  0  0  0  0
   37.9010   30.6670   48.9730 C   0  0  0  0  0  0  0  0  0  0  0  0
   36.8900   29.7860   48.7140 N   0  0  0  0  0  0  0  0  0  0  0  0
   36.1960   29.1820   49.7020 C   0  0  0  0  0  0  0  0  0  0  0  0
   36.4850   29.4360   51.0070 N   0  0  0  0  0  0  0  0  0  0  0  0
   37.7020   30.4970   52.3590 H   0  0  0  0  0  0  0  0  0  0  0  0
   38.9930   31.6180   50.5650 H   0  0  0  0  0  0  0  0  0  0  0  0
   38.4420   31.1380   48.1520 H   0  0  0  0  0  0  0  0  0  0  0  0
   35.2110   28.3240   49.2430 O   0  0  0  0  0  0  0  0  0  0  0  0
   33.8500   28.6080   49.4640 C   0  0  0  0  0  0  0  0  0  0  0  0
   32.8630   27.9720   48.9610 O   0  0  0  0  0  0  0  0  0  0  0  0
   33.4580   29.6820   50.3130 N   0  0  0  0  0  0  0  0  0  0  0  0
   33.8770   30.5410   49.8610 H   0  0  0  0  0  0  0  0  0  0  0  0
   32.9120   29.8360   51.1880 H   0  0  0  0  0  0  0  0  0  0  0  0
  1  7  1  0  0  0  0
  2  8  1  0  0  0  0
  2  1  2  0  0  0  0
  3  2  1  0  0  0  0
  4  3  2  0  0  0  0
  4  5  1  0  0  0  0
  5  6  2  0  0  0  0
  6  1  1  0  0  0  0
  9  3  1  0  0  0  0
 10 11  1  0  0  0  0
 10  5  1  0  0  0  0
 11 13  1  0  0  0  0
 12 11  2  0  0  0  0
 13 15  1  0  0  0  0
 14 13  1  0  0  0  0
M  END
>  <minimizedAffinity>
-3.89408326

>  <minimizedRMSD>
0.39518562

$$$$
