
 OpenBabel03272509453D

 15 15  0  0  0  0  0  0  0  0999 V2000
   38.2630   26.4490   36.1130 C   0  0  0  0  0  0  0  0  0  0  0  0
   39.2220   27.0610   35.2990 C   0  0  0  0  0  0  0  0  0  0  0  0
   40.2630   26.2810   34.7860 C   0  0  0  0  0  0  0  0  0  0  0  0
   40.2870   24.9550   35.1110 N   0  0  0  0  0  0  0  0  0  0  0  0
   39.3470   24.3940   35.9000 C   0  0  0  0  0  0  0  0  0  0  0  0
   38.3290   25.1430   36.4040 N   0  0  0  0  0  0  0  0  0  0  0  0
   37.4460   27.0510   36.5180 H   0  0  0  0  0  0  0  0  0  0  0  0
   39.1600   28.1070   35.0730 H   0  0  0  0  0  0  0  0  0  0  0  0
   41.0390   26.7040   34.1460 H   0  0  0  0  0  0  0  0  0  0  0  0
   39.5400   23.0400   36.1160 O   0  0  0  0  0  0  0  0  0  0  0  0
   39.9300   22.5620   37.3810 C   0  0  0  0  0  0  0  0  0  0  0  0
   40.9710   21.8640   37.6280 O   0  0  0  0  0  0  0  0  0  0  0  0
   39.1470   22.8390   38.5370 N   0  0  0  0  0  0  0  0  0  0  0  0
   38.2050   22.4090   38.3290 H   0  0  0  0  0  0  0  0  0  0  0  0
   39.2480   23.3140   39.4610 H   0  0  0  0  0  0  0  0  0  0  0  0
  1  6  1  0  0  0  0
  1  7  1  0  0  0  0
  2  1  2  0  0  0  0
  3  4  2  0  0  0  0
  3  2  1  0  0  0  0
  4  5  1  0  0  0  0
  5 10  1  0  0  0  0
  5  6  2  0  0  0  0
  8  2  1  0  0  0  0
  9  3  1  0  0  0  0
 10 11  1  0  0  0  0
 11 12  2  0  0  0  0
 11 13  1  0  0  0  0
 13 15  1  0  0  0  0
 14 13  1  0  0  0  0
M  END
>  <minimizedAffinity>
-3.53177476

$$$$

 OpenBabel03272509453D

 15 15  0  0  0  0  0  0  0  0999 V2000
   39.8470   23.0310   36.8590 C   0  0  0  0  0  0  0  0  0  0  0  0
   39.2150   23.0840   38.1050 C   0  0  0  0  0  0  0  0  0  0  0  0
   38.1540   23.9770   38.2820 C   0  0  0  0  0  0  0  0  0  0  0  0
   37.7920   24.7570   37.2200 N   0  0  0  0  0  0  0  0  0  0  0  0
   38.4240   24.6830   36.0300 C   0  0  0  0  0  0  0  0  0  0  0  0
   39.4560   23.8160   35.8460 N   0  0  0  0  0  0  0  0  0  0  0  0
   40.6780   22.3350   36.7120 H   0  0  0  0  0  0  0  0  0  0  0  0
   39.5350   22.4510   38.9080 H   0  0  0  0  0  0  0  0  0  0  0  0
   37.6220   24.0620   39.2300 H   0  0  0  0  0  0  0  0  0  0  0  0
   37.9150   25.5490   35.0770 O   0  0  0  0  0  0  0  0  0  0  0  0
   37.7850   26.9230   35.3520 C   0  0  0  0  0  0  0  0  0  0  0  0
   36.9000   27.7040   34.8600 O   0  0  0  0  0  0  0  0  0  0  0  0
   38.6800   27.5760   36.2470 N   0  0  0  0  0  0  0  0  0  0  0  0
   39.6330   27.4430   35.8110 H   0  0  0  0  0  0  0  0  0  0  0  0
   38.6470   28.1070   37.1440 H   0  0  0  0  0  0  0  0  0  0  0  0
  1  2  1  0  0  0  0
  2  3  2  0  0  0  0
  2  8  1  0  0  0  0
  3  9  1  0  0  0  0
  4  3  1  0  0  0  0
  5  4  2  0  0  0  0
  6  5  1  0  0  0  0
  6  1  2  0  0  0  0
  7  1  1  0  0  0  0
 10 11  1  0  0  0  0
 10  5  1  0  0  0  0
 11 13  1  0  0  0  0
 12 11  2  0  0  0  0
 13 15  1  0  0  0  0
 14 13  1  0  0  0  0
M  END
>  <minimizedAffinity>
-3.52215195

$$$$

 OpenBabel03272509453D

 15 15  0  0  0  0  0  0  0  0999 V2000
   38.4870   23.5900   38.2540 C   0  0  0  0  0  0  0  0  0  0  0  0
   39.6320   22.9700   37.7450 C   0  0  0  0  0  0  0  0  0  0  0  0
   40.0270   23.2610   36.4360 C   0  0  0  0  0  0  0  0  0  0  0  0
   39.2650   24.1410   35.7200 N   0  0  0  0  0  0  0  0  0  0  0  0
   38.1640   24.7220   36.2410 C   0  0  0  0  0  0  0  0  0  0  0  0
   37.7710   24.4470   37.5140 N   0  0  0  0  0  0  0  0  0  0  0  0
   38.1710   23.3680   39.2770 H   0  0  0  0  0  0  0  0  0  0  0  0
   40.1970   22.2860   38.3460 H   0  0  0  0  0  0  0  0  0  0  0  0
   40.9110   22.8090   35.9860 H   0  0  0  0  0  0  0  0  0  0  0  0
   37.5250   25.5830   35.3650 O   0  0  0  0  0  0  0  0  0  0  0  0
   37.7220   26.9740   35.4520 C   0  0  0  0  0  0  0  0  0  0  0  0
   37.0580   27.8640   34.8190 O   0  0  0  0  0  0  0  0  0  0  0  0
   38.7320   27.5150   36.2970 N   0  0  0  0  0  0  0  0  0  0  0  0
   39.6330   27.1040   35.9290 H   0  0  0  0  0  0  0  0  0  0  0  0
   38.8130   28.1580   37.1140 H   0  0  0  0  0  0  0  0  0  0  0  0
  1  7  1  0  0  0  0
  2  1  1  0  0  0  0
  2  8  1  0  0  0  0
  3  2  2  0  0  0  0
  4  5  2  0  0  0  0
  4  3  1  0  0  0  0
  5  6  1  0  0  0  0
  6  1  2  0  0  0  0
  9  3  1  0  0  0  0
 10 11  1  0  0  0  0
 10  5  1  0  0  0  0
 11 13  1  0  0  0  0
 12 11  2  0  0  0  0
 13 15  1  0  0  0  0
 14 13  1  0  0  0  0
M  END
>  <minimizedAffinity>
-3.51898909

$$$$

 OpenBabel03272509453D

 15 15  0  0  0  0  0  0  0  0999 V2000
   40.4600   25.4730   34.8020 C   0  0  0  0  0  0  0  0  0  0  0  0
   40.0630   26.8080   34.9220 C   0  0  0  0  0  0  0  0  0  0  0  0
   38.9070   27.1010   35.6530 C   0  0  0  0  0  0  0  0  0  0  0  0
   38.2240   26.0580   36.2120 N   0  0  0  0  0  0  0  0  0  0  0  0
   38.6340   24.7790   36.0760 C   0  0  0  0  0  0  0  0  0  0  0  0
   39.7570   24.4830   35.3680 N   0  0  0  0  0  0  0  0  0  0  0  0
   41.3630   25.2350   34.2320 H   0  0  0  0  0  0  0  0  0  0  0  0
   40.6330   27.5920   34.4650 H   0  0  0  0  0  0  0  0  0  0  0  0
   38.5490   28.1230   35.7810 H   0  0  0  0  0  0  0  0  0  0  0  0
   37.8130   23.8640   36.7120 O   0  0  0  0  0  0  0  0  0  0  0  0
   38.2260   23.2320   37.9000 C   0  0  0  0  0  0  0  0  0  0  0  0
   37.4950   23.0180   38.9260 O   0  0  0  0  0  0  0  0  0  0  0  0
   39.5620   22.7630   38.0490 N   0  0  0  0  0  0  0  0  0  0  0  0
   40.1600   23.6270   37.9420 H   0  0  0  0  0  0  0  0  0  0  0  0
   40.0660   21.8660   38.2230 H   0  0  0  0  0  0  0  0  0  0  0  0
  1  2  2  0  0  0  0
  1  6  1  0  0  0  0
  2  3  1  0  0  0  0
  3  9  1  0  0  0  0
  3  4  2  0  0  0  0
  5  4  1  0  0  0  0
  5 10  1  0  0  0  0
  6  5  2  0  0  0  0
  7  1  1  0  0  0  0
  8  2  1  0  0  0  0
 10 11  1  0  0  0  0
 11 13  1  0  0  0  0
 11 12  2  0  0  0  0
 13 15  1  0  0  0  0
 14 13  1  0  0  0  0
M  END
>  <minimizedAffinity>
-3.43032527

$$$$

 OpenBabel03272509453D

 15 15  0  0  0  0  0  0  0  0999 V2000
   42.6390   23.2280   36.0000 C   0  0  0  0  0  0  0  0  0  0  0  0
   43.0170   22.0190   36.5920 C   0  0  0  0  0  0  0  0  0  0  0  0
   42.0300   21.2210   37.1800 C   0  0  0  0  0  0  0  0  0  0  0  0
   40.7410   21.6720   37.1430 N   0  0  0  0  0  0  0  0  0  0  0  0
   40.4080   22.8450   36.5650 C   0  0  0  0  0  0  0  0  0  0  0  0
   41.3600   23.6280   35.9890 N   0  0  0  0  0  0  0  0  0  0  0  0
   43.4050   23.8570   35.5390 H   0  0  0  0  0  0  0  0  0  0  0  0
   44.0430   21.7080   36.5960 H   0  0  0  0  0  0  0  0  0  0  0  0
   42.2650   20.2690   37.6560 H   0  0  0  0  0  0  0  0  0  0  0  0
   39.0550   23.1300   36.6270 O   0  0  0  0  0  0  0  0  0  0  0  0
   38.4620   23.5410   37.8350 C   0  0  0  0  0  0  0  0  0  0  0  0
   38.0030   24.7080   38.0830 O   0  0  0  0  0  0  0  0  0  0  0  0
   38.3260   22.6370   38.9260 N   0  0  0  0  0  0  0  0  0  0  0  0
   39.3160   22.3500   39.1570 H   0  0  0  0  0  0  0  0  0  0  0  0
   37.5710   22.2170   39.5110 H   0  0  0  0  0  0  0  0  0  0  0  0
  1  2  1  0  0  0  0
  2  8  1  0  0  0  0
  2  3  2  0  0  0  0
  3  9  1  0  0  0  0
  4  3  1  0  0  0  0
  5 10  1  0  0  0  0
  5  4  2  0  0  0  0
  6  1  2  0  0  0  0
  6  5  1  0  0  0  0
  7  1  1  0  0  0  0
 10 11  1  0  0  0  0
 11 12  2  0  0  0  0
 11 13  1  0  0  0  0
 13 14  1  0  0  0  0
 13 15  1  0  0  0  0
M  END
>  <minimizedAffinity>
-3.20582366

$$$$

 OpenBabel03272509453D

 15 15  0  0  0  0  0  0  0  0999 V2000
   39.4030   26.9390   33.6540 C   0  0  0  0  0  0  0  0  0  0  0  0
   39.2210   27.1130   35.0290 C   0  0  0  0  0  0  0  0  0  0  0  0
   37.9520   27.4640   35.4990 C   0  0  0  0  0  0  0  0  0  0  0  0
   36.9520   27.6220   34.5820 N   0  0  0  0  0  0  0  0  0  0  0  0
   37.1610   27.4490   33.2600 C   0  0  0  0  0  0  0  0  0  0  0  0
   38.3910   27.1050   32.7910 N   0  0  0  0  0  0  0  0  0  0  0  0
   40.3920   26.6640   33.2780 H   0  0  0  0  0  0  0  0  0  0  0  0
   40.0370   26.9780   35.7110 H   0  0  0  0  0  0  0  0  0  0  0  0
   37.7500   27.6120   36.5610 H   0  0  0  0  0  0  0  0  0  0  0  0
   36.0290   27.6520   32.4890 O   0  0  0  0  0  0  0  0  0  0  0  0
   35.8780   27.0030   31.2490 C   0  0  0  0  0  0  0  0  0  0  0  0
   35.2400   25.9130   31.0480 O   0  0  0  0  0  0  0  0  0  0  0  0
   36.4570   27.5450   30.0670 N   0  0  0  0  0  0  0  0  0  0  0  0
   37.4940   27.5730   30.2690 H   0  0  0  0  0  0  0  0  0  0  0  0
   36.1550   27.8920   29.1310 H   0  0  0  0  0  0  0  0  0  0  0  0
  1  2  1  0  0  0  0
  2  3  2  0  0  0  0
  2  8  1  0  0  0  0
  3  9  1  0  0  0  0
  4  3  1  0  0  0  0
  5  4  2  0  0  0  0
  6  5  1  0  0  0  0
  6  1  2  0  0  0  0
  7  1  1  0  0  0  0
 10  5  1  0  0  0  0
 11 10  1  0  0  0  0
 12 11  2  0  0  0  0
 13 14  1  0  0  0  0
 13 11  1  0  0  0  0
 15 13  1  0  0  0  0
M  END
>  <minimizedAffinity>
-3.17350769

$$$$

 OpenBabel03272509453D

 15 15  0  0  0  0  0  0  0  0999 V2000
   37.8650   27.4950   35.4580 C   0  0  0  0  0  0  0  0  0  0  0  0
   37.3710   27.1760   34.1900 C   0  0  0  0  0  0  0  0  0  0  0  0
   37.4230   25.8450   33.7640 C   0  0  0  0  0  0  0  0  0  0  0  0
   37.9590   24.9230   34.6170 N   0  0  0  0  0  0  0  0  0  0  0  0
   38.4290   25.2640   35.8360 C   0  0  0  0  0  0  0  0  0  0  0  0
   38.3810   26.5550   36.2610 N   0  0  0  0  0  0  0  0  0  0  0  0
   37.8280   28.5340   35.7990 H   0  0  0  0  0  0  0  0  0  0  0  0
   36.9600   27.9360   33.5560 H   0  0  0  0  0  0  0  0  0  0  0  0
   37.0530   25.5380   32.7850 H   0  0  0  0  0  0  0  0  0  0  0  0
   38.9320   24.1930   36.5550 O   0  0  0  0  0  0  0  0  0  0  0  0
   38.0660   23.2760   37.1800 C   0  0  0  0  0  0  0  0  0  0  0  0
   37.7630   23.2620   38.4220 O   0  0  0  0  0  0  0  0  0  0  0  0
   37.4330   22.2440   36.4310 N   0  0  0  0  0  0  0  0  0  0  0  0
   38.2320   21.6800   36.0300 H   0  0  0  0  0  0  0  0  0  0  0  0
   36.4700   21.9210   36.1940 H   0  0  0  0  0  0  0  0  0  0  0  0
  1  7  1  0  0  0  0
  1  6  1  0  0  0  0
  2  1  2  0  0  0  0
  3  2  1  0  0  0  0
  3  4  2  0  0  0  0
  4  5  1  0  0  0  0
  5  6  2  0  0  0  0
  5 10  1  0  0  0  0
  8  2  1  0  0  0  0
  9  3  1  0  0  0  0
 10 11  1  0  0  0  0
 11 12  2  0  0  0  0
 13 11  1  0  0  0  0
 14 13  1  0  0  0  0
 15 13  1  0  0  0  0
M  END
>  <minimizedAffinity>
-3.14185715

$$$$

 OpenBabel03272509453D

 15 15  0  0  0  0  0  0  0  0999 V2000
   34.7010   32.1990   36.8730 C   0  0  0  0  0  0  0  0  0  0  0  0
   35.3620   31.7470   35.7270 C   0  0  0  0  0  0  0  0  0  0  0  0
   34.7550   30.7580   34.9470 C   0  0  0  0  0  0  0  0  0  0  0  0
   33.5400   30.2830   35.3520 N   0  0  0  0  0  0  0  0  0  0  0  0
   32.9270   30.7400   36.4640 C   0  0  0  0  0  0  0  0  0  0  0  0
   33.5080   31.7030   37.2300 N   0  0  0  0  0  0  0  0  0  0  0  0
   35.1690   32.9720   37.4880 H   0  0  0  0  0  0  0  0  0  0  0  0
   36.3160   32.1500   35.4500 H   0  0  0  0  0  0  0  0  0  0  0  0
   35.2230   30.3670   34.0430 H   0  0  0  0  0  0  0  0  0  0  0  0
   31.7040   30.1390   36.7100 O   0  0  0  0  0  0  0  0  0  0  0  0
   31.6360   28.8380   37.2420 C   0  0  0  0  0  0  0  0  0  0  0  0
   31.5390   27.7580   36.5650 O   0  0  0  0  0  0  0  0  0  0  0  0
   31.6730   28.6230   38.6480 N   0  0  0  0  0  0  0  0  0  0  0  0
   30.8330   29.1450   39.0180 H   0  0  0  0  0  0  0  0  0  0  0  0
   32.2600   28.1260   39.3530 H   0  0  0  0  0  0  0  0  0  0  0  0
  1  6  1  0  0  0  0
  1  7  1  0  0  0  0
  2  1  2  0  0  0  0
  3  4  2  0  0  0  0
  3  2  1  0  0  0  0
  4  5  1  0  0  0  0
  5 10  1  0  0  0  0
  5  6  2  0  0  0  0
  8  2  1  0  0  0  0
  9  3  1  0  0  0  0
 10 11  1  0  0  0  0
 11 13  1  0  0  0  0
 12 11  2  0  0  0  0
 13 14  1  0  0  0  0
 13 15  1  0  0  0  0
M  END
>  <minimizedAffinity>
-3.10805511

$$$$

 OpenBabel03272509453D

 15 15  0  0  0  0  0  0  0  0999 V2000
   38.6100   24.1570   35.9590 C   0  0  0  0  0  0  0  0  0  0  0  0
   37.8280   24.6280   37.0190 C   0  0  0  0  0  0  0  0  0  0  0  0
   38.0700   24.1320   38.3030 C   0  0  0  0  0  0  0  0  0  0  0  0
   39.0630   23.2060   38.4530 N   0  0  0  0  0  0  0  0  0  0  0  0
   39.7990   22.7710   37.4100 C   0  0  0  0  0  0  0  0  0  0  0  0
   39.5740   23.2480   36.1560 N   0  0  0  0  0  0  0  0  0  0  0  0
   38.4270   24.5390   34.9510 H   0  0  0  0  0  0  0  0  0  0  0  0
   37.0590   25.3550   36.8500 H   0  0  0  0  0  0  0  0  0  0  0  0
   37.4930   24.4620   39.1680 H   0  0  0  0  0  0  0  0  0  0  0  0
   40.7580   21.8340   37.7590 O   0  0  0  0  0  0  0  0  0  0  0  0
   41.9430   21.7050   37.0120 C   0  0  0  0  0  0  0  0  0  0  0  0
   42.5020   20.6040   36.6810 O   0  0  0  0  0  0  0  0  0  0  0  0
   42.6400   22.8560   36.5460 N   0  0  0  0  0  0  0  0  0  0  0  0
   42.8930   23.3860   37.4250 H   0  0  0  0  0  0  0  0  0  0  0  0
   42.9450   23.2800   35.6430 H   0  0  0  0  0  0  0  0  0  0  0  0
  1  6  2  0  0  0  0
  1  2  1  0  0  0  0
  2  3  2  0  0  0  0
  3  4  1  0  0  0  0
  3  9  1  0  0  0  0
  5 10  1  0  0  0  0
  5  4  2  0  0  0  0
  6  5  1  0  0  0  0
  7  1  1  0  0  0  0
  8  2  1  0  0  0  0
 11 10  1  0  0  0  0
 12 11  2  0  0  0  0
 13 11  1  0  0  0  0
 13 14  1  0  0  0  0
 15 13  1  0  0  0  0
M  END
>  <minimizedAffinity>
-3.10639215

$$$$
