
 OpenBabel03272509443D

 15 15  0  0  0  0  0  0  0  0999 V2000
   37.3960   30.3110   51.4010 C   0  0  0  0  0  0  0  0  0  0  0  0
   38.1250   30.8540   50.3390 C   0  0  0  0  0  0  0  0  0  0  0  0
   37.7850   30.4840   49.0330 C   0  0  0  0  0  0  0  0  0  0  0  0
   36.7540   29.6050   48.8680 N   0  0  0  0  0  0  0  0  0  0  0  0
   36.0700   29.0970   49.9150 C   0  0  0  0  0  0  0  0  0  0  0  0
   36.3910   29.4510   51.1890 N   0  0  0  0  0  0  0  0  0  0  0  0
   37.6560   30.5950   52.4250 H   0  0  0  0  0  0  0  0  0  0  0  0
   38.9270   31.5410   50.5200 H   0  0  0  0  0  0  0  0  0  0  0  0
   38.3170   30.8760   48.1660 H   0  0  0  0  0  0  0  0  0  0  0  0
   35.0610   28.2240   49.5470 O   0  0  0  0  0  0  0  0  0  0  0  0
   33.8380   28.7090   49.0460 C   0  0  0  0  0  0  0  0  0  0  0  0
   32.7170   28.0980   49.0930 O   0  0  0  0  0  0  0  0  0  0  0  0
   33.7620   29.9840   48.4190 N   0  0  0  0  0  0  0  0  0  0  0  0
   34.4190   29.9140   47.5950 H   0  0  0  0  0  0  0  0  0  0  0  0
   33.2690   30.8950   48.5450 H   0  0  0  0  0  0  0  0  0  0  0  0
  1  7  1  0  0  0  0
  2  8  1  0  0  0  0
  2  1  2  0  0  0  0
  3  2  1  0  0  0  0
  4  3  2  0  0  0  0
  4  5  1  0  0  0  0
  5  6  2  0  0  0  0
  6  1  1  0  0  0  0
  9  3  1  0  0  0  0
 10  5  1  0  0  0  0
 11 12  2  0  0  0  0
 11 10  1  0  0  0  0
 13 15  1  0  0  0  0
 13 11  1  0  0  0  0
 14 13  1  0  0  0  0
M  END
>  <minimizedAffinity>
-3.83145213

>  <minimizedRMSD>
0.411839932

$$$$
