
 OpenBabel03272509443D

 15 15  0  0  0  0  0  0  0  0999 V2000
   37.4700   30.2930   51.3250 C   0  0  0  0  0  0  0  0  0  0  0  0
   38.2050   30.9290   50.3200 C   0  0  0  0  0  0  0  0  0  0  0  0
   37.8960   30.6520   48.9840 C   0  0  0  0  0  0  0  0  0  0  0  0
   36.8850   29.7680   48.7330 N   0  0  0  0  0  0  0  0  0  0  0  0
   36.1950   29.1690   49.7270 C   0  0  0  0  0  0  0  0  0  0  0  0
   36.4870   29.4320   51.0290 N   0  0  0  0  0  0  0  0  0  0  0  0
   37.7060   30.5030   52.3710 H   0  0  0  0  0  0  0  0  0  0  0  0
   38.9900   31.6160   50.5670 H   0  0  0  0  0  0  0  0  0  0  0  0
   38.4340   31.1190   48.1590 H   0  0  0  0  0  0  0  0  0  0  0  0
   35.2100   28.3070   49.2760 O   0  0  0  0  0  0  0  0  0  0  0  0
   33.8490   28.6020   49.4770 C   0  0  0  0  0  0  0  0  0  0  0  0
   32.8630   27.9740   48.9600 O   0  0  0  0  0  0  0  0  0  0  0  0
   33.4540   29.6810   50.3170 N   0  0  0  0  0  0  0  0  0  0  0  0
   33.8860   30.5360   49.8710 H   0  0  0  0  0  0  0  0  0  0  0  0
   32.8960   29.8400   51.1840 H   0  0  0  0  0  0  0  0  0  0  0  0
  1  7  1  0  0  0  0
  2  8  1  0  0  0  0
  2  1  2  0  0  0  0
  3  2  1  0  0  0  0
  4  3  2  0  0  0  0
  4  5  1  0  0  0  0
  5  6  2  0  0  0  0
  6  1  1  0  0  0  0
  9  3  1  0  0  0  0
 10 11  1  0  0  0  0
 10  5  1  0  0  0  0
 11 13  1  0  0  0  0
 12 11  2  0  0  0  0
 13 15  1  0  0  0  0
 14 13  1  0  0  0  0
M  END
>  <minimizedAffinity>
-3.89788628

>  <minimizedRMSD>
0.479061961

$$$$
