
 OpenBabel03272505033D

 25 26  0  0  0  0  0  0  0  0999 V2000
   37.7990   23.8020   33.4190 Cl  0  0  0  0  0  0  0  0  0  0  0  0
   37.7940   25.3590   34.2060 C   0  0  0  0  0  0  0  0  0  0  0  0
   38.4340   25.4930   35.4040 C   0  0  0  0  0  0  0  0  0  0  0  0
   38.3910   26.7590   35.9740 C   0  0  0  0  0  0  0  0  0  0  0  0
   37.7220   27.7930   35.3240 C   0  0  0  0  0  0  0  0  0  0  0  0
   37.1020   27.6030   34.1320 C   0  0  0  0  0  0  0  0  0  0  0  0
   37.1370   26.3450   33.5510 C   0  0  0  0  0  0  0  0  0  0  0  0
   38.8790   26.9420   36.9280 H   0  0  0  0  0  0  0  0  0  0  0  0
   37.7230   28.7560   35.8180 H   0  0  0  0  0  0  0  0  0  0  0  0
   36.5840   28.4190   33.6350 H   0  0  0  0  0  0  0  0  0  0  0  0
   40.3710   23.9270   35.6220 C   0  0  0  0  0  0  0  0  0  0  0  0
   39.1430   24.4030   36.0960 C   0  0  0  0  0  0  0  0  0  0  0  0
   38.5960   23.8280   37.2400 C   0  0  0  0  0  0  0  0  0  0  0  0
   39.3030   22.8270   37.8280 N   0  0  0  0  0  0  0  0  0  0  0  0
   40.4680   22.3810   37.3720 C   0  0  0  0  0  0  0  0  0  0  0  0
   41.0020   22.9290   36.2730 N   0  0  0  0  0  0  0  0  0  0  0  0
   40.7570   24.4080   34.7260 H   0  0  0  0  0  0  0  0  0  0  0  0
   37.6480   24.1860   37.6160 H   0  0  0  0  0  0  0  0  0  0  0  0
   41.0000   21.5910   37.8600 H   0  0  0  0  0  0  0  0  0  0  0  0
   36.4900   26.2050   32.3380 O   0  0  0  0  0  0  0  0  0  0  0  0
   37.0810   26.5100   31.1230 C   0  0  0  0  0  0  0  0  0  0  0  0
   38.2750   26.2760   30.7290 O   0  0  0  0  0  0  0  0  0  0  0  0
   36.2040   27.1760   30.2200 N   0  0  0  0  0  0  0  0  0  0  0  0
   35.5910   27.6750   29.5610 H   0  0  0  0  0  0  0  0  0  0  0  0
   36.6070   27.9920   29.6950 H   0  0  0  0  0  0  0  0  0  0  0  0
  1  2  1  0  0  0  0
  2  3  1  0  0  0  0
  3  4  2  0  0  0  0
  3 12  1  0  0  0  0
  4  8  1  0  0  0  0
  5  9  1  0  0  0  0
  5  4  1  0  0  0  0
  6  5  2  0  0  0  0
  7  6  1  0  0  0  0
  7  2  2  0  0  0  0
 10  6  1  0  0  0  0
 11 12  2  0  0  0  0
 11 16  1  0  0  0  0
 12 13  1  0  0  0  0
 13 18  1  0  0  0  0
 13 14  2  0  0  0  0
 15 14  1  0  0  0  0
 15 19  1  0  0  0  0
 16 15  2  0  0  0  0
 17 11  1  0  0  0  0
 20  7  1  0  0  0  0
 21 20  1  0  0  0  0
 22 21  2  0  0  0  0
 23 21  1  0  0  0  0
 24 23  1  0  0  0  0
 25 23  1  0  0  0  0
M  END
>  <minimizedAffinity>
-4.82006121

$$$$

 OpenBabel03272505033D

 25 26  0  0  0  0  0  0  0  0999 V2000
   40.7990   23.8920   34.1980 Cl  0  0  0  0  0  0  0  0  0  0  0  0
   39.7940   25.0750   34.9920 C   0  0  0  0  0  0  0  0  0  0  0  0
   39.8520   26.3730   34.5770 C   0  0  0  0  0  0  0  0  0  0  0  0
   39.0260   27.2620   35.2530 C   0  0  0  0  0  0  0  0  0  0  0  0
   38.2060   26.8050   36.2830 C   0  0  0  0  0  0  0  0  0  0  0  0
   38.1880   25.5000   36.6540 C   0  0  0  0  0  0  0  0  0  0  0  0
   39.0080   24.6030   35.9890 C   0  0  0  0  0  0  0  0  0  0  0  0
   39.0180   28.3130   34.9780 H   0  0  0  0  0  0  0  0  0  0  0  0
   37.5850   27.5450   36.7720 H   0  0  0  0  0  0  0  0  0  0  0  0
   37.5440   25.1570   37.4590 H   0  0  0  0  0  0  0  0  0  0  0  0
   40.2180   27.0250   32.1920 C   0  0  0  0  0  0  0  0  0  0  0  0
   40.7160   26.8620   33.4890 C   0  0  0  0  0  0  0  0  0  0  0  0
   42.0510   27.1710   33.7400 C   0  0  0  0  0  0  0  0  0  0  0  0
   42.7900   27.6160   32.6900 N   0  0  0  0  0  0  0  0  0  0  0  0
   42.3100   27.7680   31.4610 C   0  0  0  0  0  0  0  0  0  0  0  0
   41.0270   27.4740   31.2110 N   0  0  0  0  0  0  0  0  0  0  0  0
   39.1700   26.7710   32.0460 H   0  0  0  0  0  0  0  0  0  0  0  0
   42.4480   27.0490   34.7370 H   0  0  0  0  0  0  0  0  0  0  0  0
   42.9190   28.1210   30.6560 H   0  0  0  0  0  0  0  0  0  0  0  0
   38.9520   23.2860   36.4060 O   0  0  0  0  0  0  0  0  0  0  0  0
   39.6580   22.8050   37.4960 C   0  0  0  0  0  0  0  0  0  0  0  0
   40.8730   22.4120   37.5560 O   0  0  0  0  0  0  0  0  0  0  0  0
   38.8870   22.7590   38.6920 N   0  0  0  0  0  0  0  0  0  0  0  0
   38.3410   22.7010   39.5620 H   0  0  0  0  0  0  0  0  0  0  0  0
   38.9870   21.8920   39.2780 H   0  0  0  0  0  0  0  0  0  0  0  0
  1  2  1  0  0  0  0
  2  7  1  0  0  0  0
  3  2  2  0  0  0  0
  3  4  1  0  0  0  0
  4  5  2  0  0  0  0
  5  6  1  0  0  0  0
  5  9  1  0  0  0  0
  6 10  1  0  0  0  0
  7 20  1  0  0  0  0
  7  6  2  0  0  0  0
  8  4  1  0  0  0  0
 11 12  1  0  0  0  0
 12 13  2  0  0  0  0
 12  3  1  0  0  0  0
 13 18  1  0  0  0  0
 14 13  1  0  0  0  0
 15 14  2  0  0  0  0
 16 15  1  0  0  0  0
 16 11  2  0  0  0  0
 17 11  1  0  0  0  0
 19 15  1  0  0  0  0
 20 21  1  0  0  0  0
 21 22  2  0  0  0  0
 21 23  1  0  0  0  0
 23 25  1  0  0  0  0
 23 24  1  0  0  0  0
M  END
>  <minimizedAffinity>
-4.73426104

$$$$

 OpenBabel03272505033D

 25 26  0  0  0  0  0  0  0  0999 V2000
   37.2780   24.6960   32.5460 Cl  0  0  0  0  0  0  0  0  0  0  0  0
   37.6900   25.5980   33.9800 C   0  0  0  0  0  0  0  0  0  0  0  0
   37.5950   26.9590   33.9520 C   0  0  0  0  0  0  0  0  0  0  0  0
   37.9390   27.6130   35.1280 C   0  0  0  0  0  0  0  0  0  0  0  0
   38.3480   26.8800   36.2390 C   0  0  0  0  0  0  0  0  0  0  0  0
   38.4240   25.5260   36.2110 C   0  0  0  0  0  0  0  0  0  0  0  0
   38.0850   24.8590   35.0450 C   0  0  0  0  0  0  0  0  0  0  0  0
   37.8870   28.6980   35.1820 H   0  0  0  0  0  0  0  0  0  0  0  0
   38.6030   27.4460   37.1260 H   0  0  0  0  0  0  0  0  0  0  0  0
   38.7460   24.9650   37.0850 H   0  0  0  0  0  0  0  0  0  0  0  0
   35.8920   28.3260   32.7350 C   0  0  0  0  0  0  0  0  0  0  0  0
   37.1620   27.7400   32.7810 C   0  0  0  0  0  0  0  0  0  0  0  0
   38.0180   27.9060   31.6950 C   0  0  0  0  0  0  0  0  0  0  0  0
   37.5540   28.6370   30.6480 N   0  0  0  0  0  0  0  0  0  0  0  0
   36.3470   29.1910   30.6120 C   0  0  0  0  0  0  0  0  0  0  0  0
   35.5180   29.0370   31.6520 N   0  0  0  0  0  0  0  0  0  0  0  0
   35.2600   28.1680   33.6070 H   0  0  0  0  0  0  0  0  0  0  0  0
   39.0010   27.4580   31.7180 H   0  0  0  0  0  0  0  0  0  0  0  0
   36.0120   29.7620   29.7710 H   0  0  0  0  0  0  0  0  0  0  0  0
   38.1800   23.4800   35.0690 O   0  0  0  0  0  0  0  0  0  0  0  0
   37.9960   22.7270   36.2170 C   0  0  0  0  0  0  0  0  0  0  0  0
   36.9450   22.5970   36.9320 O   0  0  0  0  0  0  0  0  0  0  0  0
   39.1650   22.0200   36.6200 N   0  0  0  0  0  0  0  0  0  0  0  0
   40.0030   21.5160   36.9380 H   0  0  0  0  0  0  0  0  0  0  0  0
   39.3880   22.0360   37.6470 H   0  0  0  0  0  0  0  0  0  0  0  0
  1  2  1  0  0  0  0
  2  7  1  0  0  0  0
  3  2  2  0  0  0  0
  3  4  1  0  0  0  0
  4  8  1  0  0  0  0
  4  5  2  0  0  0  0
  5  9  1  0  0  0  0
  6  5  1  0  0  0  0
  6 10  1  0  0  0  0
  7 20  1  0  0  0  0
  7  6  2  0  0  0  0
 11 12  1  0  0  0  0
 11 17  1  0  0  0  0
 12  3  1  0  0  0  0
 13 18  1  0  0  0  0
 13 12  2  0  0  0  0
 14 13  1  0  0  0  0
 15 14  2  0  0  0  0
 15 16  1  0  0  0  0
 16 11  2  0  0  0  0
 19 15  1  0  0  0  0
 20 21  1  0  0  0  0
 21 23  1  0  0  0  0
 21 22  2  0  0  0  0
 23 24  1  0  0  0  0
 23 25  1  0  0  0  0
M  END
>  <minimizedAffinity>
-4.72664785

$$$$

 OpenBabel03272505033D

 25 26  0  0  0  0  0  0  0  0999 V2000
   34.8880   30.8690   31.9920 Cl  0  0  0  0  0  0  0  0  0  0  0  0
   35.7190   29.4950   32.6720 C   0  0  0  0  0  0  0  0  0  0  0  0
   35.7790   29.3670   34.0300 C   0  0  0  0  0  0  0  0  0  0  0  0
   36.4560   28.2510   34.5030 C   0  0  0  0  0  0  0  0  0  0  0  0
   37.0200   27.3460   33.6060 C   0  0  0  0  0  0  0  0  0  0  0  0
   36.9300   27.5230   32.2640 C   0  0  0  0  0  0  0  0  0  0  0  0
   36.2570   28.6330   31.7780 C   0  0  0  0  0  0  0  0  0  0  0  0
   36.5440   28.0820   35.5730 H   0  0  0  0  0  0  0  0  0  0  0  0
   37.5350   26.4960   34.0350 H   0  0  0  0  0  0  0  0  0  0  0  0
   37.3740   26.8100   31.5750 H   0  0  0  0  0  0  0  0  0  0  0  0
   33.8040   30.3420   35.2120 C   0  0  0  0  0  0  0  0  0  0  0  0
   35.1830   30.3200   34.9830 C   0  0  0  0  0  0  0  0  0  0  0  0
   35.9940   31.2170   35.6740 C   0  0  0  0  0  0  0  0  0  0  0  0
   35.3780   32.0670   36.5370 N   0  0  0  0  0  0  0  0  0  0  0  0
   34.0680   32.0820   36.7490 C   0  0  0  0  0  0  0  0  0  0  0  0
   33.2810   31.2220   36.0900 N   0  0  0  0  0  0  0  0  0  0  0  0
   33.2130   29.6220   34.6490 H   0  0  0  0  0  0  0  0  0  0  0  0
   37.0610   31.2100   35.5060 H   0  0  0  0  0  0  0  0  0  0  0  0
   33.6140   32.7650   37.4370 H   0  0  0  0  0  0  0  0  0  0  0  0
   36.1950   28.7660   30.4030 O   0  0  0  0  0  0  0  0  0  0  0  0
   37.2500   29.2350   29.6370 C   0  0  0  0  0  0  0  0  0  0  0  0
   37.9650   30.2800   29.8100 O   0  0  0  0  0  0  0  0  0  0  0  0
   37.5420   28.4100   28.5150 N   0  0  0  0  0  0  0  0  0  0  0  0
   37.7570   27.8370   27.6880 H   0  0  0  0  0  0  0  0  0  0  0  0
   37.7310   28.9060   27.6070 H   0  0  0  0  0  0  0  0  0  0  0  0
  1  2  1  0  0  0  0
  2  3  1  0  0  0  0
  3  4  2  0  0  0  0
  3 12  1  0  0  0  0
  4  8  1  0  0  0  0
  5  9  1  0  0  0  0
  5  4  1  0  0  0  0
  6  5  2  0  0  0  0
  7  6  1  0  0  0  0
  7  2  2  0  0  0  0
 10  6  1  0  0  0  0
 11 16  1  0  0  0  0
 12 11  2  0  0  0  0
 12 13  1  0  0  0  0
 13 14  2  0  0  0  0
 14 15  1  0  0  0  0
 15 19  1  0  0  0  0
 16 15  2  0  0  0  0
 17 11  1  0  0  0  0
 18 13  1  0  0  0  0
 20  7  1  0  0  0  0
 21 22  2  0  0  0  0
 21 20  1  0  0  0  0
 23 21  1  0  0  0  0
 24 23  1  0  0  0  0
 25 23  1  0  0  0  0
M  END
>  <minimizedAffinity>
-4.48481989

$$$$

 OpenBabel03272505033D

 25 26  0  0  0  0  0  0  0  0999 V2000
   39.7100   26.3230   31.6630 Cl  0  0  0  0  0  0  0  0  0  0  0  0
   38.9920   26.7950   33.1810 C   0  0  0  0  0  0  0  0  0  0  0  0
   39.7680   26.8010   34.3030 C   0  0  0  0  0  0  0  0  0  0  0  0
   39.1310   27.1870   35.4760 C   0  0  0  0  0  0  0  0  0  0  0  0
   37.7840   27.5370   35.4550 C   0  0  0  0  0  0  0  0  0  0  0  0
   37.0590   27.5140   34.3080 C   0  0  0  0  0  0  0  0  0  0  0  0
   37.6810   27.1310   33.1300 C   0  0  0  0  0  0  0  0  0  0  0  0
   39.6860   27.2160   36.4110 H   0  0  0  0  0  0  0  0  0  0  0  0
   37.3440   27.8290   36.4000 H   0  0  0  0  0  0  0  0  0  0  0  0
   36.0080   27.7900   34.3040 H   0  0  0  0  0  0  0  0  0  0  0  0
   41.6160   25.2310   34.9110 C   0  0  0  0  0  0  0  0  0  0  0  0
   41.1940   26.4320   34.3320 C   0  0  0  0  0  0  0  0  0  0  0  0
   42.1470   27.2830   33.7770 C   0  0  0  0  0  0  0  0  0  0  0  0
   43.4440   26.8810   33.8380 N   0  0  0  0  0  0  0  0  0  0  0  0
   43.8370   25.7380   34.3890 C   0  0  0  0  0  0  0  0  0  0  0  0
   42.9270   24.9150   34.9250 N   0  0  0  0  0  0  0  0  0  0  0  0
   40.8350   24.6010   35.3310 H   0  0  0  0  0  0  0  0  0  0  0  0
   41.8340   28.2140   33.3270 H   0  0  0  0  0  0  0  0  0  0  0  0
   44.8670   25.4510   34.4210 H   0  0  0  0  0  0  0  0  0  0  0  0
   36.8980   27.1240   31.9900 O   0  0  0  0  0  0  0  0  0  0  0  0
   36.2310   25.9980   31.5350 C   0  0  0  0  0  0  0  0  0  0  0  0
   36.1640   24.8360   32.0640 O   0  0  0  0  0  0  0  0  0  0  0  0
   35.5410   26.2090   30.3080 N   0  0  0  0  0  0  0  0  0  0  0  0
   35.0510   26.3360   29.4130 H   0  0  0  0  0  0  0  0  0  0  0  0
   35.6270   25.4480   29.5880 H   0  0  0  0  0  0  0  0  0  0  0  0
  1  2  1  0  0  0  0
  2  3  1  0  0  0  0
  3 12  1  0  0  0  0
  3  4  2  0  0  0  0
  4  8  1  0  0  0  0
  5  4  1  0  0  0  0
  5  9  1  0  0  0  0
  6  5  2  0  0  0  0
  7  2  2  0  0  0  0
  7  6  1  0  0  0  0
 10  6  1  0  0  0  0
 11 16  1  0  0  0  0
 11 17  1  0  0  0  0
 12 11  2  0  0  0  0
 13 14  2  0  0  0  0
 13 12  1  0  0  0  0
 14 15  1  0  0  0  0
 15 19  1  0  0  0  0
 15 16  2  0  0  0  0
 18 13  1  0  0  0  0
 20  7  1  0  0  0  0
 21 20  1  0  0  0  0
 21 22  2  0  0  0  0
 23 21  1  0  0  0  0
 24 23  1  0  0  0  0
 25 23  1  0  0  0  0
M  END
>  <minimizedAffinity>
-4.47273397

$$$$

 OpenBabel03272505033D

 25 26  0  0  0  0  0  0  0  0999 V2000
   41.0120   24.0730   34.6870 Cl  0  0  0  0  0  0  0  0  0  0  0  0
   39.8590   23.8360   35.9740 C   0  0  0  0  0  0  0  0  0  0  0  0
   38.5970   24.3330   35.8260 C   0  0  0  0  0  0  0  0  0  0  0  0
   37.7310   24.1080   36.8890 C   0  0  0  0  0  0  0  0  0  0  0  0
   38.1720   23.4130   38.0120 C   0  0  0  0  0  0  0  0  0  0  0  0
   39.4400   22.9400   38.1050 C   0  0  0  0  0  0  0  0  0  0  0  0
   40.3160   23.1570   37.0530 C   0  0  0  0  0  0  0  0  0  0  0  0
   36.7080   24.4750   36.8440 H   0  0  0  0  0  0  0  0  0  0  0  0
   37.4510   23.2700   38.8070 H   0  0  0  0  0  0  0  0  0  0  0  0
   39.7730   22.4000   38.9870 H   0  0  0  0  0  0  0  0  0  0  0  0
   38.0510   26.4650   34.6400 C   0  0  0  0  0  0  0  0  0  0  0  0
   38.1240   25.0680   34.6400 C   0  0  0  0  0  0  0  0  0  0  0  0
   37.7420   24.3740   33.4950 C   0  0  0  0  0  0  0  0  0  0  0  0
   37.3160   25.1150   32.4380 N   0  0  0  0  0  0  0  0  0  0  0  0
   37.2500   26.4410   32.4450 C   0  0  0  0  0  0  0  0  0  0  0  0
   37.6160   27.1160   33.5420 N   0  0  0  0  0  0  0  0  0  0  0  0
   38.3600   26.9610   35.5580 H   0  0  0  0  0  0  0  0  0  0  0  0
   37.7930   23.2950   33.4820 H   0  0  0  0  0  0  0  0  0  0  0  0
   36.9100   26.9950   31.5940 H   0  0  0  0  0  0  0  0  0  0  0  0
   41.5960   22.6560   37.1980 O   0  0  0  0  0  0  0  0  0  0  0  0
   41.9480   21.3620   36.8470 C   0  0  0  0  0  0  0  0  0  0  0  0
   42.1330   20.8680   35.6840 O   0  0  0  0  0  0  0  0  0  0  0  0
   42.1130   20.5000   37.9690 N   0  0  0  0  0  0  0  0  0  0  0  0
   42.2190   19.8570   38.7640 H   0  0  0  0  0  0  0  0  0  0  0  0
   41.6960   19.5390   37.8830 H   0  0  0  0  0  0  0  0  0  0  0  0
  1  2  1  0  0  0  0
  2  7  1  0  0  0  0
  3  2  2  0  0  0  0
  3  4  1  0  0  0  0
  4  5  2  0  0  0  0
  5  6  1  0  0  0  0
  5  9  1  0  0  0  0
  6 10  1  0  0  0  0
  7 20  1  0  0  0  0
  7  6  2  0  0  0  0
  8  4  1  0  0  0  0
 11 12  1  0  0  0  0
 11 17  1  0  0  0  0
 12  3  1  0  0  0  0
 13 12  2  0  0  0  0
 14 15  2  0  0  0  0
 14 13  1  0  0  0  0
 15 16  1  0  0  0  0
 16 11  2  0  0  0  0
 18 13  1  0  0  0  0
 19 15  1  0  0  0  0
 21 20  1  0  0  0  0
 21 23  1  0  0  0  0
 22 21  2  0  0  0  0
 23 24  1  0  0  0  0
 25 23  1  0  0  0  0
M  END
>  <minimizedAffinity>
-4.41093016

$$$$

 OpenBabel03272505033D

 25 26  0  0  0  0  0  0  0  0999 V2000
   38.9650   26.7540   35.3530 Cl  0  0  0  0  0  0  0  0  0  0  0  0
   38.4590   25.3000   34.5330 C   0  0  0  0  0  0  0  0  0  0  0  0
   37.8390   25.4100   33.3220 C   0  0  0  0  0  0  0  0  0  0  0  0
   37.4630   24.2130   32.7260 C   0  0  0  0  0  0  0  0  0  0  0  0
   37.7270   23.0030   33.3630 C   0  0  0  0  0  0  0  0  0  0  0  0
   38.3480   22.9540   34.5680 C   0  0  0  0  0  0  0  0  0  0  0  0
   38.7290   24.1400   35.1760 C   0  0  0  0  0  0  0  0  0  0  0  0
   36.9640   24.2210   31.7600 H   0  0  0  0  0  0  0  0  0  0  0  0
   37.4100   22.1050   32.8490 H   0  0  0  0  0  0  0  0  0  0  0  0
   38.5480   22.0030   35.0560 H   0  0  0  0  0  0  0  0  0  0  0  0
   38.3670   27.1360   31.5930 C   0  0  0  0  0  0  0  0  0  0  0  0
   37.5580   26.6860   32.6420 C   0  0  0  0  0  0  0  0  0  0  0  0
   36.4750   27.4660   33.0390 C   0  0  0  0  0  0  0  0  0  0  0  0
   36.2750   28.6310   32.3680 N   0  0  0  0  0  0  0  0  0  0  0  0
   37.0470   29.0520   31.3730 C   0  0  0  0  0  0  0  0  0  0  0  0
   38.0900   28.3080   30.9850 N   0  0  0  0  0  0  0  0  0  0  0  0
   39.2000   26.4920   31.3200 H   0  0  0  0  0  0  0  0  0  0  0  0
   35.8430   27.1300   33.8480 H   0  0  0  0  0  0  0  0  0  0  0  0
   36.8610   29.9750   30.8650 H   0  0  0  0  0  0  0  0  0  0  0  0
   39.3570   24.0340   36.4030 O   0  0  0  0  0  0  0  0  0  0  0  0
   38.7470   23.4950   37.5240 C   0  0  0  0  0  0  0  0  0  0  0  0
   37.5630   23.6880   37.9640 O   0  0  0  0  0  0  0  0  0  0  0  0
   39.5910   22.6120   38.2550 N   0  0  0  0  0  0  0  0  0  0  0  0
   40.1910   21.9860   38.8080 H   0  0  0  0  0  0  0  0  0  0  0  0
   39.5770   22.7140   39.3020 H   0  0  0  0  0  0  0  0  0  0  0  0
  2  7  1  0  0  0  0
  2  1  1  0  0  0  0
  3  2  2  0  0  0  0
  4  3  1  0  0  0  0
  4  5  2  0  0  0  0
  5  6  1  0  0  0  0
  6 10  1  0  0  0  0
  6  7  2  0  0  0  0
  7 20  1  0  0  0  0
  8  4  1  0  0  0  0
  9  5  1  0  0  0  0
 11 12  1  0  0  0  0
 12 13  2  0  0  0  0
 12  3  1  0  0  0  0
 13 18  1  0  0  0  0
 14 13  1  0  0  0  0
 15 14  2  0  0  0  0
 16 15  1  0  0  0  0
 16 11  2  0  0  0  0
 17 11  1  0  0  0  0
 19 15  1  0  0  0  0
 20 21  1  0  0  0  0
 21 22  2  0  0  0  0
 21 23  1  0  0  0  0
 23 24  1  0  0  0  0
 23 25  1  0  0  0  0
M  END
>  <minimizedAffinity>
-4.34189272

$$$$

 OpenBabel03272505033D

 25 26  0  0  0  0  0  0  0  0999 V2000
   40.8730   23.2440   34.9600 Cl  0  0  0  0  0  0  0  0  0  0  0  0
   40.0630   24.7780   35.1370 C   0  0  0  0  0  0  0  0  0  0  0  0
   40.5920   25.8770   34.5250 C   0  0  0  0  0  0  0  0  0  0  0  0
   39.8960   27.0650   34.7080 C   0  0  0  0  0  0  0  0  0  0  0  0
   38.7350   27.0810   35.4780 C   0  0  0  0  0  0  0  0  0  0  0  0
   38.2530   25.9560   36.0640 C   0  0  0  0  0  0  0  0  0  0  0  0
   38.9370   24.7640   35.8900 C   0  0  0  0  0  0  0  0  0  0  0  0
   40.2570   27.9820   34.2500 H   0  0  0  0  0  0  0  0  0  0  0  0
   38.2380   28.0360   35.5840 H   0  0  0  0  0  0  0  0  0  0  0  0
   37.3470   25.9820   36.6620 H   0  0  0  0  0  0  0  0  0  0  0  0
   41.7640   25.6420   32.3290 C   0  0  0  0  0  0  0  0  0  0  0  0
   41.8180   25.8660   33.7090 C   0  0  0  0  0  0  0  0  0  0  0  0
   43.0580   26.0810   34.3070 C   0  0  0  0  0  0  0  0  0  0  0  0
   44.1470   26.0570   33.4950 N   0  0  0  0  0  0  0  0  0  0  0  0
   44.0870   25.8440   32.1850 C   0  0  0  0  0  0  0  0  0  0  0  0
   42.9000   25.6380   31.6020 N   0  0  0  0  0  0  0  0  0  0  0  0
   40.7730   25.4800   31.9090 H   0  0  0  0  0  0  0  0  0  0  0  0
   43.1140   26.2540   35.3710 H   0  0  0  0  0  0  0  0  0  0  0  0
   44.9660   25.8320   31.5740 H   0  0  0  0  0  0  0  0  0  0  0  0
   38.4050   23.6480   36.5090 O   0  0  0  0  0  0  0  0  0  0  0  0
   38.4820   23.4300   37.8750 C   0  0  0  0  0  0  0  0  0  0  0  0
   37.7560   23.9160   38.8080 O   0  0  0  0  0  0  0  0  0  0  0  0
   39.5270   22.5370   38.2450 N   0  0  0  0  0  0  0  0  0  0  0  0
   40.2890   21.9090   38.5340 H   0  0  0  0  0  0  0  0  0  0  0  0
   40.1020   22.8120   39.0820 H   0  0  0  0  0  0  0  0  0  0  0  0
  1  2  1  0  0  0  0
  2  7  1  0  0  0  0
  3  4  1  0  0  0  0
  3  2  2  0  0  0  0
  4  5  2  0  0  0  0
  5  9  1  0  0  0  0
  5  6  1  0  0  0  0
  6 10  1  0  0  0  0
  7  6  2  0  0  0  0
  7 20  1  0  0  0  0
  8  4  1  0  0  0  0
 11 12  1  0  0  0  0
 12 13  2  0  0  0  0
 12  3  1  0  0  0  0
 13 18  1  0  0  0  0
 14 13  1  0  0  0  0
 15 14  2  0  0  0  0
 16 15  1  0  0  0  0
 16 11  2  0  0  0  0
 17 11  1  0  0  0  0
 19 15  1  0  0  0  0
 20 21  1  0  0  0  0
 21 23  1  0  0  0  0
 21 22  2  0  0  0  0
 23 24  1  0  0  0  0
 23 25  1  0  0  0  0
M  END
>  <minimizedAffinity>
-4.33650589

$$$$

 OpenBabel03272505033D

 25 26  0  0  0  0  0  0  0  0999 V2000
   34.9000   24.8910   30.7150 Cl  0  0  0  0  0  0  0  0  0  0  0  0
   36.2290   25.0560   31.8310 C   0  0  0  0  0  0  0  0  0  0  0  0
   36.8820   23.9320   32.2490 C   0  0  0  0  0  0  0  0  0  0  0  0
   37.9300   24.1370   33.1370 C   0  0  0  0  0  0  0  0  0  0  0  0
   38.2550   25.4280   33.5450 C   0  0  0  0  0  0  0  0  0  0  0  0
   37.5710   26.5110   33.0970 C   0  0  0  0  0  0  0  0  0  0  0  0
   36.5230   26.3220   32.2100 C   0  0  0  0  0  0  0  0  0  0  0  0
   38.4970   23.2890   33.5130 H   0  0  0  0  0  0  0  0  0  0  0  0
   39.0810   25.5230   34.2390 H   0  0  0  0  0  0  0  0  0  0  0  0
   37.8350   27.5130   33.4240 H   0  0  0  0  0  0  0  0  0  0  0  0
   35.3820   21.9330   32.2770 C   0  0  0  0  0  0  0  0  0  0  0  0
   36.5430   22.5640   31.8200 C   0  0  0  0  0  0  0  0  0  0  0  0
   37.3820   21.8780   30.9450 C   0  0  0  0  0  0  0  0  0  0  0  0
   37.0090   20.6200   30.5910 N   0  0  0  0  0  0  0  0  0  0  0  0
   35.9040   20.0270   31.0290 C   0  0  0  0  0  0  0  0  0  0  0  0
   35.0920   20.6800   31.8690 N   0  0  0  0  0  0  0  0  0  0  0  0
   34.7590   22.5100   32.9570 H   0  0  0  0  0  0  0  0  0  0  0  0
   38.2830   22.3540   30.5860 H   0  0  0  0  0  0  0  0  0  0  0  0
   35.6390   19.0340   30.7300 H   0  0  0  0  0  0  0  0  0  0  0  0
   35.8590   27.4580   31.7850 O   0  0  0  0  0  0  0  0  0  0  0  0
   36.4290   28.3980   30.9430 C   0  0  0  0  0  0  0  0  0  0  0  0
   36.7890   29.5970   31.2040 O   0  0  0  0  0  0  0  0  0  0  0  0
   36.6210   27.9230   29.6150 N   0  0  0  0  0  0  0  0  0  0  0  0
   36.7500   27.6040   28.6450 H   0  0  0  0  0  0  0  0  0  0  0  0
   36.3600   28.5850   28.8400 H   0  0  0  0  0  0  0  0  0  0  0  0
  1  2  1  0  0  0  0
  2  7  2  0  0  0  0
  2  3  1  0  0  0  0
  3  4  2  0  0  0  0
  4  8  1  0  0  0  0
  4  5  1  0  0  0  0
  5  9  1  0  0  0  0
  6 10  1  0  0  0  0
  6  5  2  0  0  0  0
  7  6  1  0  0  0  0
 11 17  1  0  0  0  0
 12  3  1  0  0  0  0
 12 11  2  0  0  0  0
 13 12  1  0  0  0  0
 14 13  2  0  0  0  0
 14 15  1  0  0  0  0
 15 16  2  0  0  0  0
 16 11  1  0  0  0  0
 18 13  1  0  0  0  0
 19 15  1  0  0  0  0
 20  7  1  0  0  0  0
 21 22  2  0  0  0  0
 21 20  1  0  0  0  0
 23 21  1  0  0  0  0
 24 23  1  0  0  0  0
 25 23  1  0  0  0  0
M  END
>  <minimizedAffinity>
-4.33396244

$$$$
