
 OpenBabel03272503003D

 30 31  0  0  1  0  0  0  0  0999 V2000
   38.1930   22.8100   35.9710 N   0  0  0  0  0  0  0  0  0  0  0  0
   39.5890   22.6060   36.2930 C   0  0  0  0  0  0  0  0  0  0  0  0
   39.9830   22.6600   37.6960 C   0  0  0  0  0  0  0  0  0  0  0  0
   39.1590   23.4690   38.6220 C   0  0  0  0  0  0  0  0  0  0  0  0
   37.7510   23.7110   38.1520 C   0  0  0  0  0  0  0  0  0  0  0  0
   37.7550   23.9920   36.6640 C   0  0  1  0  0  0  0  0  0  0  0  0
   39.8580   21.6170   35.8410 H   0  0  0  0  0  0  0  0  0  0  0  0
   40.1680   23.3530   35.7130 H   0  0  0  0  0  0  0  0  0  0  0  0
   41.0370   23.0450   37.7770 H   0  0  0  0  0  0  0  0  0  0  0  0
   40.0800   21.6080   38.0900 H   0  0  0  0  0  0  0  0  0  0  0  0
   39.6190   24.4590   38.8940 H   0  0  0  0  0  0  0  0  0  0  0  0
   39.0680   22.9470   39.6090 H   0  0  0  0  0  0  0  0  0  0  0  0
   37.3820   24.6360   38.6660 H   0  0  0  0  0  0  0  0  0  0  0  0
   37.0900   22.8480   38.3340 H   0  0  0  0  0  0  0  0  0  0  0  0
   36.7320   24.3330   36.3710 H   0  0  0  0  0  0  0  0  0  0  0  0
   37.4060   21.9760   35.1150 C   0  0  0  0  0  0  0  0  0  0  0  0
   36.2980   21.2500   35.5460 C   0  0  0  0  0  0  0  0  0  0  0  0
   35.6230   20.4780   34.5990 C   0  0  0  0  0  0  0  0  0  0  0  0
   36.0830   20.4790   33.3150 N   0  0  0  0  0  0  0  0  0  0  0  0
   37.1530   21.1970   32.9590 C   0  0  0  0  0  0  0  0  0  0  0  0
   37.8190   21.9470   33.8540 N   0  0  0  0  0  0  0  0  0  0  0  0
   36.0170   21.3150   36.5700 H   0  0  0  0  0  0  0  0  0  0  0  0
   34.7690   19.9310   34.9770 H   0  0  0  0  0  0  0  0  0  0  0  0
   37.4410   21.1300   31.9120 H   0  0  0  0  0  0  0  0  0  0  0  0
   38.6620   25.0620   36.4820 O   0  0  0  0  0  0  0  0  0  0  0  0
   38.2040   26.2730   35.9570 C   0  0  0  0  0  0  0  0  0  0  0  0
   37.3300   26.3040   35.0490 O   0  0  0  0  0  0  0  0  0  0  0  0
   38.6160   27.5880   36.3250 N   0  0  0  0  0  0  0  0  0  0  0  0
   37.8650   28.2490   36.6570 H   0  0  0  0  0  0  0  0  0  0  0  0
   39.6460   27.5860   36.1670 H   0  0  0  0  0  0  0  0  0  0  0  0
  1  2  1  0  0  0  0
  1  6  1  0  0  0  0
  2  3  1  0  0  0  0
  3  9  1  0  0  0  0
  3 10  1  0  0  0  0
  3  4  1  0  0  0  0
  4 11  1  0  0  0  0
  4 12  1  0  0  0  0
  5 14  1  0  0  0  0
  5  4  1  0  0  0  0
  5 13  1  0  0  0  0
  6 15  1  6  0  0  0
  6  5  1  0  0  0  0
  7  2  1  0  0  0  0
  8  2  1  0  0  0  0
 16 17  1  0  0  0  0
 16  1  1  0  0  0  0
 17 22  1  0  0  0  0
 18 23  1  0  0  0  0
 18 17  2  0  0  0  0
 19 18  1  0  0  0  0
 20 19  2  0  0  0  0
 20 21  1  0  0  0  0
 21 16  2  0  0  0  0
 24 20  1  0  0  0  0
 25  6  1  0  0  0  0
 26 28  1  0  0  0  0
 26 25  1  0  0  0  0
 27 26  2  0  0  0  0
 28 29  1  0  0  0  0
 30 28  1  0  0  0  0
M  END
>  <minimizedAffinity>
-4.93395853

$$$$

 OpenBabel03272503003D

 30 31  0  0  1  0  0  0  0  0999 V2000
   38.1870   24.1980   36.1380 N   0  0  0  0  0  0  0  0  0  0  0  0
   37.9940   23.9650   37.5540 C   0  0  0  0  0  0  0  0  0  0  0  0
   39.0820   23.3440   38.3010 C   0  0  0  0  0  0  0  0  0  0  0  0
   40.0210   22.4680   37.5660 C   0  0  0  0  0  0  0  0  0  0  0  0
   40.0780   22.7200   36.0840 C   0  0  0  0  0  0  0  0  0  0  0  0
   38.6810   22.9770   35.5600 C   0  0  1  0  0  0  0  0  0  0  0  0
   37.7300   24.9640   37.9870 H   0  0  0  0  0  0  0  0  0  0  0  0
   37.0730   23.3560   37.6590 H   0  0  0  0  0  0  0  0  0  0  0  0
   38.6580   22.7330   39.1450 H   0  0  0  0  0  0  0  0  0  0  0  0
   39.6540   24.1460   38.8480 H   0  0  0  0  0  0  0  0  0  0  0  0
   39.8460   21.3700   37.7330 H   0  0  0  0  0  0  0  0  0  0  0  0
   41.0640   22.6240   37.9440 H   0  0  0  0  0  0  0  0  0  0  0  0
   40.4500   21.7800   35.5990 H   0  0  0  0  0  0  0  0  0  0  0  0
   40.7040   23.5900   35.8260 H   0  0  0  0  0  0  0  0  0  0  0  0
   38.7250   22.9920   34.4430 H   0  0  0  0  0  0  0  0  0  0  0  0
   37.9270   25.4280   35.4550 C   0  0  0  0  0  0  0  0  0  0  0  0
   38.0850   26.6850   36.0340 C   0  0  0  0  0  0  0  0  0  0  0  0
   37.7960   27.8000   35.2470 C   0  0  0  0  0  0  0  0  0  0  0  0
   37.3780   27.5980   33.9650 N   0  0  0  0  0  0  0  0  0  0  0  0
   37.2450   26.3660   33.4610 C   0  0  0  0  0  0  0  0  0  0  0  0
   37.5170   25.2770   34.2010 N   0  0  0  0  0  0  0  0  0  0  0  0
   38.4170   26.7390   37.0440 H   0  0  0  0  0  0  0  0  0  0  0  0
   37.9320   28.7560   35.7370 H   0  0  0  0  0  0  0  0  0  0  0  0
   36.9060   26.3110   32.4300 H   0  0  0  0  0  0  0  0  0  0  0  0
   37.9110   21.8640   35.9710 O   0  0  0  0  0  0  0  0  0  0  0  0
   36.8550   21.4210   35.1690 C   0  0  0  0  0  0  0  0  0  0  0  0
   36.8480   21.6260   33.9250 O   0  0  0  0  0  0  0  0  0  0  0  0
   35.6880   20.7150   35.5870 N   0  0  0  0  0  0  0  0  0  0  0  0
   35.5060   19.7820   35.1310 H   0  0  0  0  0  0  0  0  0  0  0  0
   35.2550   21.3390   36.3000 H   0  0  0  0  0  0  0  0  0  0  0  0
  1  2  1  0  0  0  0
  2  8  1  0  0  0  0
  2  7  1  0  0  0  0
  2  3  1  0  0  0  0
  3 10  1  0  0  0  0
  3  9  1  0  0  0  0
  4 11  1  0  0  0  0
  4 12  1  0  0  0  0
  4  3  1  0  0  0  0
  5  4  1  0  0  0  0
  6 15  1  6  0  0  0
  6 25  1  0  0  0  0
  6  5  1  0  0  0  0
  6  1  1  0  0  0  0
 13  5  1  0  0  0  0
 14  5  1  0  0  0  0
 16 17  1  0  0  0  0
 16  1  1  0  0  0  0
 17 22  1  0  0  0  0
 18 23  1  0  0  0  0
 18 17  2  0  0  0  0
 19 18  1  0  0  0  0
 20 19  2  0  0  0  0
 20 21  1  0  0  0  0
 21 16  2  0  0  0  0
 24 20  1  0  0  0  0
 26 28  1  0  0  0  0
 26 25  1  0  0  0  0
 27 26  2  0  0  0  0
 28 30  1  0  0  0  0
 29 28  1  0  0  0  0
M  END
>  <minimizedAffinity>
-4.45499086

$$$$

 OpenBabel03272503003D

 30 31  0  0  1  0  0  0  0  0999 V2000
   38.0950   24.8770   34.1560 N   0  0  0  0  0  0  0  0  0  0  0  0
   37.7000   26.0160   34.9580 C   0  0  0  0  0  0  0  0  0  0  0  0
   38.6830   27.0690   35.1820 C   0  0  0  0  0  0  0  0  0  0  0  0
   40.1170   26.7070   35.1330 C   0  0  0  0  0  0  0  0  0  0  0  0
   40.4170   25.4530   34.3600 C   0  0  0  0  0  0  0  0  0  0  0  0
   39.3600   24.4100   34.6570 C   0  0  1  0  0  0  0  0  0  0  0  0
   36.7820   26.4250   34.4630 H   0  0  0  0  0  0  0  0  0  0  0  0
   37.3480   25.6190   35.9320 H   0  0  0  0  0  0  0  0  0  0  0  0
   38.5010   27.5470   36.1840 H   0  0  0  0  0  0  0  0  0  0  0  0
   38.4780   27.9190   34.4700 H   0  0  0  0  0  0  0  0  0  0  0  0
   40.6010   26.6250   36.1450 H   0  0  0  0  0  0  0  0  0  0  0  0
   40.7010   27.5220   34.6330 H   0  0  0  0  0  0  0  0  0  0  0  0
   41.3950   25.0540   34.7350 H   0  0  0  0  0  0  0  0  0  0  0  0
   40.4330   25.6210   33.2700 H   0  0  0  0  0  0  0  0  0  0  0  0
   39.6910   23.4400   34.2110 H   0  0  0  0  0  0  0  0  0  0  0  0
   37.3490   24.3280   33.0660 C   0  0  0  0  0  0  0  0  0  0  0  0
   36.6260   25.0980   32.1560 C   0  0  0  0  0  0  0  0  0  0  0  0
   35.9460   24.4270   31.1390 C   0  0  0  0  0  0  0  0  0  0  0  0
   36.0250   23.0660   31.0950 N   0  0  0  0  0  0  0  0  0  0  0  0
   36.7340   22.3790   31.9970 C   0  0  0  0  0  0  0  0  0  0  0  0
   37.3970   23.0040   32.9840 N   0  0  0  0  0  0  0  0  0  0  0  0
   36.6270   26.1560   32.2750 H   0  0  0  0  0  0  0  0  0  0  0  0
   35.3980   25.0630   30.4560 H   0  0  0  0  0  0  0  0  0  0  0  0
   36.7330   21.2990   31.8750 H   0  0  0  0  0  0  0  0  0  0  0  0
   39.3400   24.2800   36.0660 O   0  0  0  0  0  0  0  0  0  0  0  0
   39.2700   23.0090   36.6410 C   0  0  0  0  0  0  0  0  0  0  0  0
   38.9080   22.0060   35.9680 O   0  0  0  0  0  0  0  0  0  0  0  0
   39.5690   22.6500   37.9890 N   0  0  0  0  0  0  0  0  0  0  0  0
   40.3080   21.9120   38.1330 H   0  0  0  0  0  0  0  0  0  0  0  0
   38.9370   23.2500   38.5580 H   0  0  0  0  0  0  0  0  0  0  0  0
  1  6  1  0  0  0  0
  1  2  1  0  0  0  0
  2  3  1  0  0  0  0
  2  8  1  0  0  0  0
  3  9  1  0  0  0  0
  4  3  1  0  0  0  0
  4 11  1  0  0  0  0
  5  6  1  0  0  0  0
  5 13  1  0  0  0  0
  5  4  1  0  0  0  0
  6 15  1  6  0  0  0
  6 25  1  0  0  0  0
  7  2  1  0  0  0  0
 10  3  1  0  0  0  0
 12  4  1  0  0  0  0
 14  5  1  0  0  0  0
 16  1  1  0  0  0  0
 17 22  1  0  0  0  0
 17 16  2  0  0  0  0
 18 17  1  0  0  0  0
 19 18  2  0  0  0  0
 19 20  1  0  0  0  0
 20 21  2  0  0  0  0
 21 16  1  0  0  0  0
 23 18  1  0  0  0  0
 24 20  1  0  0  0  0
 25 26  1  0  0  0  0
 26 28  1  0  0  0  0
 27 26  2  0  0  0  0
 28 29  1  0  0  0  0
 28 30  1  0  0  0  0
M  END
>  <minimizedAffinity>
-4.37909031

$$$$

 OpenBabel03272503003D

 30 31  0  0  1  0  0  0  0  0999 V2000
   37.9250   25.7630   33.8880 N   0  0  0  0  0  0  0  0  0  0  0  0
   38.2250   24.7830   34.9100 C   0  0  0  0  0  0  0  0  0  0  0  0
   38.1360   25.1970   36.3050 C   0  0  0  0  0  0  0  0  0  0  0  0
   38.3430   26.6280   36.6220 C   0  0  0  0  0  0  0  0  0  0  0  0
   38.1030   27.5620   35.4680 C   0  0  0  0  0  0  0  0  0  0  0  0
   38.6660   26.9560   34.2000 C   0  0  1  0  0  0  0  0  0  0  0  0
   37.5400   23.9200   34.7050 H   0  0  0  0  0  0  0  0  0  0  0  0
   39.2430   24.3960   34.6980 H   0  0  0  0  0  0  0  0  0  0  0  0
   38.8790   24.6170   36.9190 H   0  0  0  0  0  0  0  0  0  0  0  0
   37.1510   24.8500   36.7280 H   0  0  0  0  0  0  0  0  0  0  0  0
   39.3540   26.8560   37.0600 H   0  0  0  0  0  0  0  0  0  0  0  0
   37.6340   26.9480   37.4280 H   0  0  0  0  0  0  0  0  0  0  0  0
   38.6780   28.5020   35.6740 H   0  0  0  0  0  0  0  0  0  0  0  0
   37.0320   27.7650   35.3030 H   0  0  0  0  0  0  0  0  0  0  0  0
   38.6300   27.7320   33.3960 H   0  0  0  0  0  0  0  0  0  0  0  0
   37.0470   25.5640   32.7760 C   0  0  0  0  0  0  0  0  0  0  0  0
   36.7820   24.3190   32.2110 C   0  0  0  0  0  0  0  0  0  0  0  0
   35.9020   24.2740   31.1290 C   0  0  0  0  0  0  0  0  0  0  0  0
   35.3570   25.4440   30.6880 N   0  0  0  0  0  0  0  0  0  0  0  0
   35.6490   26.6120   31.2700 C   0  0  0  0  0  0  0  0  0  0  0  0
   36.4940   26.6790   32.3140 N   0  0  0  0  0  0  0  0  0  0  0  0
   37.2570   23.4620   32.6280 H   0  0  0  0  0  0  0  0  0  0  0  0
   35.7250   23.2870   30.7220 H   0  0  0  0  0  0  0  0  0  0  0  0
   35.1640   27.4870   30.8450 H   0  0  0  0  0  0  0  0  0  0  0  0
   40.0190   26.6620   34.4880 O   0  0  0  0  0  0  0  0  0  0  0  0
   41.0260   27.1500   33.6510 C   0  0  0  0  0  0  0  0  0  0  0  0
   40.8020   27.3980   32.4350 O   0  0  0  0  0  0  0  0  0  0  0  0
   42.3810   27.4310   33.9980 N   0  0  0  0  0  0  0  0  0  0  0  0
   42.7240   28.4130   33.8250 H   0  0  0  0  0  0  0  0  0  0  0  0
   42.7400   26.5270   34.3700 H   0  0  0  0  0  0  0  0  0  0  0  0
  1  6  1  0  0  0  0
  1  2  1  0  0  0  0
  2  3  1  0  0  0  0
  3  4  1  0  0  0  0
  3 10  1  0  0  0  0
  3  9  1  0  0  0  0
  4 11  1  0  0  0  0
  4 12  1  0  0  0  0
  5 13  1  0  0  0  0
  5  4  1  0  0  0  0
  6 15  1  6  0  0  0
  6 25  1  0  0  0  0
  6  5  1  0  0  0  0
  7  2  1  0  0  0  0
  8  2  1  0  0  0  0
 14  5  1  0  0  0  0
 16  1  1  0  0  0  0
 17 22  1  0  0  0  0
 17 16  2  0  0  0  0
 18 17  1  0  0  0  0
 19 18  2  0  0  0  0
 19 20  1  0  0  0  0
 20 21  2  0  0  0  0
 21 16  1  0  0  0  0
 23 18  1  0  0  0  0
 24 20  1  0  0  0  0
 26 28  1  0  0  0  0
 26 25  1  0  0  0  0
 27 26  2  0  0  0  0
 28 30  1  0  0  0  0
 29 28  1  0  0  0  0
M  END
>  <minimizedAffinity>
-4.33313036

$$$$

 OpenBabel03272503003D

 30 31  0  0  1  0  0  0  0  0999 V2000
   38.7880   24.9070   35.0690 N   0  0  0  0  0  0  0  0  0  0  0  0
   40.2170   24.7150   34.9480 C   0  0  0  0  0  0  0  0  0  0  0  0
   40.7020   23.3870   34.5900 C   0  0  0  0  0  0  0  0  0  0  0  0
   39.8630   22.2200   34.9430 C   0  0  0  0  0  0  0  0  0  0  0  0
   38.4080   22.5380   35.1460 C   0  0  0  0  0  0  0  0  0  0  0  0
   38.2750   23.8470   35.8950 C   0  0  1  0  0  0  0  0  0  0  0  0
   40.5590   25.4790   34.2030 H   0  0  0  0  0  0  0  0  0  0  0  0
   40.6690   25.0320   35.9110 H   0  0  0  0  0  0  0  0  0  0  0  0
   41.7120   23.2160   35.0570 H   0  0  0  0  0  0  0  0  0  0  0  0
   40.9400   23.3690   33.4890 H   0  0  0  0  0  0  0  0  0  0  0  0
   40.2310   21.6490   35.8400 H   0  0  0  0  0  0  0  0  0  0  0  0
   39.9000   21.4610   34.1200 H   0  0  0  0  0  0  0  0  0  0  0  0
   37.9780   21.7340   35.7980 H   0  0  0  0  0  0  0  0  0  0  0  0
   37.8580   22.6320   34.1950 H   0  0  0  0  0  0  0  0  0  0  0  0
   37.2020   23.9780   36.1820 H   0  0  0  0  0  0  0  0  0  0  0  0
   38.0370   25.9670   34.4690 C   0  0  0  0  0  0  0  0  0  0  0  0
   37.3720   26.9530   35.1940 C   0  0  0  0  0  0  0  0  0  0  0  0
   36.6790   27.9280   34.4750 C   0  0  0  0  0  0  0  0  0  0  0  0
   36.6910   27.8590   33.1130 N   0  0  0  0  0  0  0  0  0  0  0  0
   37.3470   26.8870   32.4690 C   0  0  0  0  0  0  0  0  0  0  0  0
   38.0210   25.9380   33.1410 N   0  0  0  0  0  0  0  0  0  0  0  0
   37.4230   26.9220   36.2570 H   0  0  0  0  0  0  0  0  0  0  0  0
   36.1780   28.6740   35.0770 H   0  0  0  0  0  0  0  0  0  0  0  0
   37.2950   26.9200   31.3840 H   0  0  0  0  0  0  0  0  0  0  0  0
   39.0450   23.6910   37.0710 O   0  0  0  0  0  0  0  0  0  0  0  0
   38.4120   23.6960   38.3170 C   0  0  0  0  0  0  0  0  0  0  0  0
   37.9740   24.7630   38.8240 O   0  0  0  0  0  0  0  0  0  0  0  0
   38.1710   22.5780   39.1700 N   0  0  0  0  0  0  0  0  0  0  0  0
   37.1690   22.3910   39.4400 H   0  0  0  0  0  0  0  0  0  0  0  0
   39.1170   22.1780   39.3390 H   0  0  0  0  0  0  0  0  0  0  0  0
  1  6  1  0  0  0  0
  2  1  1  0  0  0  0
  2  8  1  0  0  0  0
  3  4  1  0  0  0  0
  3  2  1  0  0  0  0
  3  9  1  0  0  0  0
  4  5  1  0  0  0  0
  4 11  1  0  0  0  0
  5 13  1  0  0  0  0
  5  6  1  0  0  0  0
  6 15  1  1  0  0  0
  6 25  1  0  0  0  0
  7  2  1  0  0  0  0
 10  3  1  0  0  0  0
 12  4  1  0  0  0  0
 14  5  1  0  0  0  0
 16  1  1  0  0  0  0
 16 17  1  0  0  0  0
 17 22  1  0  0  0  0
 18 23  1  0  0  0  0
 18 17  2  0  0  0  0
 19 18  1  0  0  0  0
 20 19  2  0  0  0  0
 20 21  1  0  0  0  0
 21 16  2  0  0  0  0
 24 20  1  0  0  0  0
 25 26  1  0  0  0  0
 26 27  2  0  0  0  0
 26 28  1  0  0  0  0
 28 30  1  0  0  0  0
 28 29  1  0  0  0  0
M  END
>  <minimizedAffinity>
-4.33216953

$$$$

 OpenBabel03272503003D

 30 31  0  0  1  0  0  0  0  0999 V2000
   38.3910   24.3980   35.9170 N   0  0  0  0  0  0  0  0  0  0  0  0
   37.6190   24.8620   37.0510 C   0  0  0  0  0  0  0  0  0  0  0  0
   38.0740   24.4940   38.3870 C   0  0  0  0  0  0  0  0  0  0  0  0
   38.8670   23.2530   38.5360 C   0  0  0  0  0  0  0  0  0  0  0  0
   39.5510   22.7960   37.2780 C   0  0  0  0  0  0  0  0  0  0  0  0
   38.6240   22.9900   36.0970 C   0  0  1  0  0  0  0  0  0  0  0  0
   37.5660   25.9760   36.9390 H   0  0  0  0  0  0  0  0  0  0  0  0
   36.5780   24.5090   36.9000 H   0  0  0  0  0  0  0  0  0  0  0  0
   37.1890   24.4010   39.0740 H   0  0  0  0  0  0  0  0  0  0  0  0
   38.6360   25.3630   38.8340 H   0  0  0  0  0  0  0  0  0  0  0  0
   38.2830   22.3880   38.9580 H   0  0  0  0  0  0  0  0  0  0  0  0
   39.6810   23.4070   39.2900 H   0  0  0  0  0  0  0  0  0  0  0  0
   39.7370   21.6950   37.3800 H   0  0  0  0  0  0  0  0  0  0  0  0
   40.4810   23.3520   37.0760 H   0  0  0  0  0  0  0  0  0  0  0  0
   39.0820   22.4910   35.2080 H   0  0  0  0  0  0  0  0  0  0  0  0
   38.8340   25.2080   34.8250 C   0  0  0  0  0  0  0  0  0  0  0  0
   39.6080   26.3570   34.9760 C   0  0  0  0  0  0  0  0  0  0  0  0
   39.9690   27.0490   33.8190 C   0  0  0  0  0  0  0  0  0  0  0  0
   39.5470   26.5660   32.6160 N   0  0  0  0  0  0  0  0  0  0  0  0
   38.8040   25.4570   32.5320 C   0  0  0  0  0  0  0  0  0  0  0  0
   38.4440   24.7740   33.6320 N   0  0  0  0  0  0  0  0  0  0  0  0
   39.8880   26.6530   35.9590 H   0  0  0  0  0  0  0  0  0  0  0  0
   40.5700   27.9340   33.9820 H   0  0  0  0  0  0  0  0  0  0  0  0
   38.5180   25.1540   31.5280 H   0  0  0  0  0  0  0  0  0  0  0  0
   37.4300   22.3100   36.4360 O   0  0  0  0  0  0  0  0  0  0  0  0
   36.7680   21.5530   35.4660 C   0  0  0  0  0  0  0  0  0  0  0  0
   37.1300   21.5760   34.2590 O   0  0  0  0  0  0  0  0  0  0  0  0
   35.6480   20.6890   35.6570 N   0  0  0  0  0  0  0  0  0  0  0  0
   35.7650   19.6840   35.3610 H   0  0  0  0  0  0  0  0  0  0  0  0
   34.9210   21.3050   36.0770 H   0  0  0  0  0  0  0  0  0  0  0  0
  1  6  1  0  0  0  0
  1  2  1  0  0  0  0
  2  3  1  0  0  0  0
  3  4  1  0  0  0  0
  3 10  1  0  0  0  0
  3  9  1  0  0  0  0
  4 11  1  0  0  0  0
  4 12  1  0  0  0  0
  5 13  1  0  0  0  0
  5  4  1  0  0  0  0
  6 15  1  6  0  0  0
  6 25  1  0  0  0  0
  6  5  1  0  0  0  0
  7  2  1  0  0  0  0
  8  2  1  0  0  0  0
 14  5  1  0  0  0  0
 16 17  1  0  0  0  0
 16  1  1  0  0  0  0
 17 22  1  0  0  0  0
 18 23  1  0  0  0  0
 18 17  2  0  0  0  0
 19 18  1  0  0  0  0
 20 19  2  0  0  0  0
 20 21  1  0  0  0  0
 21 16  2  0  0  0  0
 24 20  1  0  0  0  0
 26 28  1  0  0  0  0
 26 25  1  0  0  0  0
 27 26  2  0  0  0  0
 28 30  1  0  0  0  0
 29 28  1  0  0  0  0
M  END
>  <minimizedAffinity>
-4.32495689

$$$$

 OpenBabel03272503003D

 30 31  0  0  1  0  0  0  0  0999 V2000
   37.9220   25.1020   34.0420 N   0  0  0  0  0  0  0  0  0  0  0  0
   37.5560   26.2410   34.8570 C   0  0  0  0  0  0  0  0  0  0  0  0
   38.5770   27.2450   35.1300 C   0  0  0  0  0  0  0  0  0  0  0  0
   39.9950   26.8200   35.1140 C   0  0  0  0  0  0  0  0  0  0  0  0
   40.2600   25.5690   34.3230 C   0  0  0  0  0  0  0  0  0  0  0  0
   39.1500   24.5690   34.5680 C   0  0  1  0  0  0  0  0  0  0  0  0
   36.6710   26.7000   34.3450 H   0  0  0  0  0  0  0  0  0  0  0  0
   37.1580   25.8410   35.8120 H   0  0  0  0  0  0  0  0  0  0  0  0
   38.3880   27.7100   36.1370 H   0  0  0  0  0  0  0  0  0  0  0  0
   38.4310   28.1160   34.4310 H   0  0  0  0  0  0  0  0  0  0  0  0
   40.4450   26.6960   36.1370 H   0  0  0  0  0  0  0  0  0  0  0  0
   40.6280   27.6170   34.6470 H   0  0  0  0  0  0  0  0  0  0  0  0
   41.2090   25.1190   34.7170 H   0  0  0  0  0  0  0  0  0  0  0  0
   40.3150   25.7570   33.2380 H   0  0  0  0  0  0  0  0  0  0  0  0
   39.4510   23.5940   34.1110 H   0  0  0  0  0  0  0  0  0  0  0  0
   37.1840   24.6090   32.9200 C   0  0  0  0  0  0  0  0  0  0  0  0
   37.2050   23.2800   32.5020 C   0  0  0  0  0  0  0  0  0  0  0  0
   36.4330   22.9400   31.3910 C   0  0  0  0  0  0  0  0  0  0  0  0
   35.7080   23.9210   30.7810 N   0  0  0  0  0  0  0  0  0  0  0  0
   35.7270   25.1820   31.2270 C   0  0  0  0  0  0  0  0  0  0  0  0
   36.4630   25.5320   32.2950 N   0  0  0  0  0  0  0  0  0  0  0  0
   37.8030   22.5870   33.0450 H   0  0  0  0  0  0  0  0  0  0  0  0
   36.4780   21.8990   31.1010 H   0  0  0  0  0  0  0  0  0  0  0  0
   35.1160   25.8890   30.6710 H   0  0  0  0  0  0  0  0  0  0  0  0
   39.0850   24.4120   35.9730 O   0  0  0  0  0  0  0  0  0  0  0  0
   38.5970   23.2190   36.5120 C   0  0  0  0  0  0  0  0  0  0  0  0
   37.4500   23.1570   37.0330 O   0  0  0  0  0  0  0  0  0  0  0  0
   39.2610   21.9570   36.5660 N   0  0  0  0  0  0  0  0  0  0  0  0
   38.7710   21.1410   36.1150 H   0  0  0  0  0  0  0  0  0  0  0  0
   40.1440   22.1570   37.0810 H   0  0  0  0  0  0  0  0  0  0  0  0
  1  6  1  0  0  0  0
  1  2  1  0  0  0  0
  2  3  1  0  0  0  0
  2  8  1  0  0  0  0
  3  9  1  0  0  0  0
  4  3  1  0  0  0  0
  4 11  1  0  0  0  0
  5  6  1  0  0  0  0
  5 13  1  0  0  0  0
  5  4  1  0  0  0  0
  6 15  1  6  0  0  0
  6 25  1  0  0  0  0
  7  2  1  0  0  0  0
 10  3  1  0  0  0  0
 12  4  1  0  0  0  0
 14  5  1  0  0  0  0
 16  1  1  0  0  0  0
 17 16  1  0  0  0  0
 17 22  1  0  0  0  0
 18 17  2  0  0  0  0
 19 20  2  0  0  0  0
 19 18  1  0  0  0  0
 20 21  1  0  0  0  0
 21 16  2  0  0  0  0
 23 18  1  0  0  0  0
 24 20  1  0  0  0  0
 25 26  1  0  0  0  0
 26 28  1  0  0  0  0
 26 27  2  0  0  0  0
 28 30  1  0  0  0  0
 29 28  1  0  0  0  0
M  END
>  <minimizedAffinity>
-4.29392195

$$$$

 OpenBabel03272503003D

 30 31  0  0  1  0  0  0  0  0999 V2000
   38.0040   25.5020   33.9410 N   0  0  0  0  0  0  0  0  0  0  0  0
   38.5460   26.6940   34.5580 C   0  0  0  0  0  0  0  0  0  0  0  0
   39.9870   26.7620   34.7680 C   0  0  0  0  0  0  0  0  0  0  0  0
   40.7310   25.4920   34.9210 C   0  0  0  0  0  0  0  0  0  0  0  0
   40.0400   24.2920   34.3340 C   0  0  0  0  0  0  0  0  0  0  0  0
   38.5570   24.3660   34.6290 C   0  0  1  0  0  0  0  0  0  0  0  0
   38.1940   27.5460   33.9210 H   0  0  0  0  0  0  0  0  0  0  0  0
   38.0200   26.8240   35.5260 H   0  0  0  0  0  0  0  0  0  0  0  0
   40.2060   27.3800   35.6830 H   0  0  0  0  0  0  0  0  0  0  0  0
   40.4480   27.3790   33.9450 H   0  0  0  0  0  0  0  0  0  0  0  0
   41.0140   25.2550   35.9830 H   0  0  0  0  0  0  0  0  0  0  0  0
   41.7190   25.5620   34.3990 H   0  0  0  0  0  0  0  0  0  0  0  0
   40.4400   23.3860   34.8590 H   0  0  0  0  0  0  0  0  0  0  0  0
   40.1670   24.2220   33.2410 H   0  0  0  0  0  0  0  0  0  0  0  0
   38.0930   23.3920   34.3360 H   0  0  0  0  0  0  0  0  0  0  0  0
   37.0850   25.4770   32.8440 C   0  0  0  0  0  0  0  0  0  0  0  0
   36.6470   24.3070   32.2280 C   0  0  0  0  0  0  0  0  0  0  0  0
   35.7470   24.4330   31.1680 C   0  0  0  0  0  0  0  0  0  0  0  0
   35.3530   25.6850   30.7990 N   0  0  0  0  0  0  0  0  0  0  0  0
   35.8080   26.7740   31.4280 C   0  0  0  0  0  0  0  0  0  0  0  0
   36.6750   26.6760   32.4510 N   0  0  0  0  0  0  0  0  0  0  0  0
   37.0130   23.3750   32.5890 H   0  0  0  0  0  0  0  0  0  0  0  0
   35.4330   23.5000   30.7190 H   0  0  0  0  0  0  0  0  0  0  0  0
   35.4340   27.7250   31.0580 H   0  0  0  0  0  0  0  0  0  0  0  0
   38.4560   24.5150   36.0320 O   0  0  0  0  0  0  0  0  0  0  0  0
   38.2860   23.3850   36.8360 C   0  0  0  0  0  0  0  0  0  0  0  0
   38.6400   23.3830   38.0460 O   0  0  0  0  0  0  0  0  0  0  0  0
   37.7280   22.1280   36.4560 N   0  0  0  0  0  0  0  0  0  0  0  0
   36.8970   21.7890   37.0100 H   0  0  0  0  0  0  0  0  0  0  0  0
   38.3200   21.8170   35.6580 H   0  0  0  0  0  0  0  0  0  0  0  0
  1  2  1  0  0  0  0
  1  6  1  0  0  0  0
  2  3  1  0  0  0  0
  2  8  1  0  0  0  0
  3  4  1  0  0  0  0
  3  9  1  0  0  0  0
  4 11  1  0  0  0  0
  5  6  1  0  0  0  0
  5 13  1  0  0  0  0
  5  4  1  0  0  0  0
  6 15  1  6  0  0  0
  6 25  1  0  0  0  0
  7  2  1  0  0  0  0
 10  3  1  0  0  0  0
 12  4  1  0  0  0  0
 14  5  1  0  0  0  0
 16  1  1  0  0  0  0
 17 22  1  0  0  0  0
 17 16  2  0  0  0  0
 18 17  1  0  0  0  0
 19 18  2  0  0  0  0
 19 20  1  0  0  0  0
 20 21  2  0  0  0  0
 21 16  1  0  0  0  0
 23 18  1  0  0  0  0
 24 20  1  0  0  0  0
 25 26  1  0  0  0  0
 26 27  2  0  0  0  0
 28 26  1  0  0  0  0
 28 29  1  0  0  0  0
 30 28  1  0  0  0  0
M  END
>  <minimizedAffinity>
-4.27858925

$$$$

 OpenBabel03272503003D

 30 31  0  0  1  0  0  0  0  0999 V2000
   37.9510   25.1270   33.9130 N   0  0  0  0  0  0  0  0  0  0  0  0
   38.2600   23.7700   34.3130 C   0  0  0  0  0  0  0  0  0  0  0  0
   38.1820   23.4390   35.7300 C   0  0  0  0  0  0  0  0  0  0  0  0
   38.3900   24.5250   36.7130 C   0  0  0  0  0  0  0  0  0  0  0  0
   38.1400   25.9070   36.1760 C   0  0  0  0  0  0  0  0  0  0  0  0
   38.6930   26.0120   34.7700 C   0  0  1  0  0  0  0  0  0  0  0  0
   37.5750   23.1190   33.7110 H   0  0  0  0  0  0  0  0  0  0  0  0
   39.2770   23.5440   33.9310 H   0  0  0  0  0  0  0  0  0  0  0  0
   38.9300   22.6340   35.9710 H   0  0  0  0  0  0  0  0  0  0  0  0
   37.2000   22.9230   35.9320 H   0  0  0  0  0  0  0  0  0  0  0  0
   39.4040   24.5110   37.2010 H   0  0  0  0  0  0  0  0  0  0  0  0
   37.6870   24.4000   37.5760 H   0  0  0  0  0  0  0  0  0  0  0  0
   38.7160   26.6250   36.8170 H   0  0  0  0  0  0  0  0  0  0  0  0
   37.0680   26.1600   36.1390 H   0  0  0  0  0  0  0  0  0  0  0  0
   38.6500   27.0840   34.4570 H   0  0  0  0  0  0  0  0  0  0  0  0
   37.0650   25.5010   32.8540 C   0  0  0  0  0  0  0  0  0  0  0  0
   36.7280   26.8200   32.5560 C   0  0  0  0  0  0  0  0  0  0  0  0
   35.8510   27.0380   31.4920 C   0  0  0  0  0  0  0  0  0  0  0  0
   35.3770   25.9550   30.8110 N   0  0  0  0  0  0  0  0  0  0  0  0
   35.7350   24.7100   31.1440 C   0  0  0  0  0  0  0  0  0  0  0  0
   36.5780   24.4770   32.1640 N   0  0  0  0  0  0  0  0  0  0  0  0
   37.1520   27.5970   33.1460 H   0  0  0  0  0  0  0  0  0  0  0  0
   35.6170   28.0750   31.2950 H   0  0  0  0  0  0  0  0  0  0  0  0
   35.3020   23.9160   30.5400 H   0  0  0  0  0  0  0  0  0  0  0  0
   40.0490   25.6200   34.8660 O   0  0  0  0  0  0  0  0  0  0  0  0
   41.0540   26.5010   34.4560 C   0  0  0  0  0  0  0  0  0  0  0  0
   40.8120   27.4390   33.6500 O   0  0  0  0  0  0  0  0  0  0  0  0
   42.4260   26.4930   34.8470 N   0  0  0  0  0  0  0  0  0  0  0  0
   42.8010   27.3720   35.2910 H   0  0  0  0  0  0  0  0  0  0  0  0
   42.7600   25.5430   34.5800 H   0  0  0  0  0  0  0  0  0  0  0  0
  1  2  1  0  0  0  0
  1  6  1  0  0  0  0
  2  3  1  0  0  0  0
  3 10  1  0  0  0  0
  3  9  1  0  0  0  0
  3  4  1  0  0  0  0
  4 11  1  0  0  0  0
  4 12  1  0  0  0  0
  5  4  1  0  0  0  0
  5 13  1  0  0  0  0
  6 15  1  6  0  0  0
  6 25  1  0  0  0  0
  6  5  1  0  0  0  0
  7  2  1  0  0  0  0
  8  2  1  0  0  0  0
 14  5  1  0  0  0  0
 16  1  1  0  0  0  0
 17 16  1  0  0  0  0
 17 22  1  0  0  0  0
 18 17  2  0  0  0  0
 19 20  2  0  0  0  0
 19 18  1  0  0  0  0
 20 21  1  0  0  0  0
 21 16  2  0  0  0  0
 23 18  1  0  0  0  0
 24 20  1  0  0  0  0
 26 28  1  0  0  0  0
 26 25  1  0  0  0  0
 27 26  2  0  0  0  0
 28 29  1  0  0  0  0
 30 28  1  0  0  0  0
M  END
>  <minimizedAffinity>
-4.18546581

$$$$
