
 OpenBabel03272503143D

 42 45  0  0  0  0  0  0  0  0999 V2000
   39.2640   26.0520   34.3320 C   0  0  0  0  0  0  0  0  0  0  0  0
   39.6140   27.2860   34.4040 O   0  0  0  0  0  0  0  0  0  0  0  0
   38.0660   25.7930   33.6050 N   0  0  0  0  0  0  0  0  0  0  0  0
   37.7740   24.8120   33.5520 H   0  0  0  0  0  0  0  0  0  0  0  0
   41.4510   25.2050   34.8410 C   0  0  0  0  0  0  0  0  0  0  0  0
   40.0900   25.0420   34.9760 C   0  0  0  0  0  0  0  0  0  0  0  0
   39.5210   24.0070   35.6650 C   0  0  0  0  0  0  0  0  0  0  0  0
   40.3340   23.0680   36.2630 C   0  0  0  0  0  0  0  0  0  0  0  0
   40.0840   21.9660   36.9900 N   0  0  0  0  0  0  0  0  0  0  0  0
   41.2590   21.4220   37.3200 C   0  0  0  0  0  0  0  0  0  0  0  0
   42.2580   22.1760   36.8050 N   0  0  0  0  0  0  0  0  0  0  0  0
   41.6900   23.2100   36.1410 C   0  0  0  0  0  0  0  0  0  0  0  0
   42.2900   24.2520   35.4460 C   0  0  0  0  0  0  0  0  0  0  0  0
   41.9200   26.0300   34.2900 H   0  0  0  0  0  0  0  0  0  0  0  0
   38.4480   23.9100   35.7510 H   0  0  0  0  0  0  0  0  0  0  0  0
   39.1790   21.5620   37.2730 H   0  0  0  0  0  0  0  0  0  0  0  0
   41.5500   20.5500   37.8850 H   0  0  0  0  0  0  0  0  0  0  0  0
   43.6580   24.4130   35.3120 O   0  0  0  0  0  0  0  0  0  0  0  0
   44.3330   25.1400   36.3090 C   0  0  0  0  0  0  0  0  0  0  0  0
   44.6870   24.8890   37.5070 O   0  0  0  0  0  0  0  0  0  0  0  0
   44.7110   26.4540   35.9060 N   0  0  0  0  0  0  0  0  0  0  0  0
   45.0660   26.6510   34.9250 H   0  0  0  0  0  0  0  0  0  0  0  0
   44.9920   27.4090   35.5970 H   0  0  0  0  0  0  0  0  0  0  0  0
   36.4520   27.3860   35.1220 F   0  0  0  0  0  0  0  0  0  0  0  0
   36.6520   27.7710   33.8400 C   0  0  0  0  0  0  0  0  0  0  0  0
   36.0630   28.9080   33.3540 C   0  0  0  0  0  0  0  0  0  0  0  0
   36.3110   29.2350   32.0510 C   0  0  0  0  0  0  0  0  0  0  0  0
   37.1110   28.4790   31.2330 C   0  0  0  0  0  0  0  0  0  0  0  0
   37.7010   27.3280   31.7440 C   0  0  0  0  0  0  0  0  0  0  0  0
   37.4650   26.9770   33.0620 C   0  0  0  0  0  0  0  0  0  0  0  0
   35.8490   30.1310   31.6600 H   0  0  0  0  0  0  0  0  0  0  0  0
   37.2590   28.7990   30.2210 H   0  0  0  0  0  0  0  0  0  0  0  0
   38.3340   26.7400   31.0830 H   0  0  0  0  0  0  0  0  0  0  0  0
   34.8910   31.4230   35.9360 C   0  0  0  0  0  0  0  0  0  0  0  0
   35.7240   30.6930   35.0630 C   0  0  0  0  0  0  0  0  0  0  0  0
   35.2180   29.6780   34.2660 C   0  0  0  0  0  0  0  0  0  0  0  0
   33.8830   29.4250   34.3690 N   0  0  0  0  0  0  0  0  0  0  0  0
   33.0860   30.1170   35.1990 C   0  0  0  0  0  0  0  0  0  0  0  0
   33.5830   31.0930   35.9620 N   0  0  0  0  0  0  0  0  0  0  0  0
   35.3440   32.2090   36.5390 H   0  0  0  0  0  0  0  0  0  0  0  0
   36.7930   30.9070   34.9900 H   0  0  0  0  0  0  0  0  0  0  0  0
   32.0220   29.8620   35.2340 H   0  0  0  0  0  0  0  0  0  0  0  0
  1  2  2  0  0  0  0
  1  6  1  0  0  0  0
  3  1  1  0  0  0  0
  4  3  1  0  0  0  0
  5  6  2  0  0  0  0
  5 13  1  0  0  0  0
  6  7  1  0  0  0  0
  7 15  1  0  0  0  0
  7  8  2  0  0  0  0
  8  9  1  0  0  0  0
  9 16  1  0  0  0  0
  9 10  1  0  0  0  0
 10 17  1  0  0  0  0
 11 10  2  0  0  0  0
 12  8  1  0  0  0  0
 12 11  1  0  0  0  0
 13 12  2  0  0  0  0
 14  5  1  0  0  0  0
 18 13  1  0  0  0  0
 18 19  1  0  0  0  0
 19 20  2  0  0  0  0
 21 19  1  0  0  0  0
 22 21  1  0  0  0  0
 23 21  1  0  0  0  0
 25 24  1  0  0  0  0
 26 25  1  0  0  0  0
 26 36  1  0  0  0  0
 27 26  2  0  0  0  0
 28 29  2  0  0  0  0
 28 27  1  0  0  0  0
 29 30  1  0  0  0  0
 30  3  1  0  0  0  0
 30 25  2  0  0  0  0
 31 27  1  0  0  0  0
 32 28  1  0  0  0  0
 33 29  1  0  0  0  0
 34 39  1  0  0  0  0
 34 40  1  0  0  0  0
 35 34  2  0  0  0  0
 36 37  2  0  0  0  0
 36 35  1  0  0  0  0
 37 38  1  0  0  0  0
 38 42  1  0  0  0  0
 38 39  2  0  0  0  0
 41 35  1  0  0  0  0
M  END
>  <minimizedAffinity>
-6.42808008

$$$$

 OpenBabel03272503143D

 42 45  0  0  0  0  0  0  0  0999 V2000
   37.8290   26.2620   35.1230 C   0  0  0  0  0  0  0  0  0  0  0  0
   38.5670   26.7390   36.0590 O   0  0  0  0  0  0  0  0  0  0  0  0
   37.7100   24.8420   35.0960 N   0  0  0  0  0  0  0  0  0  0  0  0
   37.1320   24.4520   34.3460 H   0  0  0  0  0  0  0  0  0  0  0  0
   37.3280   26.8640   32.8550 C   0  0  0  0  0  0  0  0  0  0  0  0
   37.1880   27.1750   34.1900 C   0  0  0  0  0  0  0  0  0  0  0  0
   36.4960   28.2660   34.6400 C   0  0  0  0  0  0  0  0  0  0  0  0
   35.9000   29.1090   33.7260 C   0  0  0  0  0  0  0  0  0  0  0  0
   35.1720   30.2310   33.8520 N   0  0  0  0  0  0  0  0  0  0  0  0
   34.8450   30.6430   32.6240 C   0  0  0  0  0  0  0  0  0  0  0  0
   35.3630   29.7840   31.7150 N   0  0  0  0  0  0  0  0  0  0  0  0
   36.0270   28.8200   32.3950 C   0  0  0  0  0  0  0  0  0  0  0  0
   36.7240   27.7190   31.9150 C   0  0  0  0  0  0  0  0  0  0  0  0
   37.8800   25.9930   32.4810 H   0  0  0  0  0  0  0  0  0  0  0  0
   36.4060   28.4800   35.6950 H   0  0  0  0  0  0  0  0  0  0  0  0
   34.8850   30.7320   34.7060 H   0  0  0  0  0  0  0  0  0  0  0  0
   34.2810   31.4770   32.2360 H   0  0  0  0  0  0  0  0  0  0  0  0
   36.8640   27.4090   30.5730 O   0  0  0  0  0  0  0  0  0  0  0  0
   37.8950   28.0430   29.8580 C   0  0  0  0  0  0  0  0  0  0  0  0
   39.0930   28.3770   30.1330 O   0  0  0  0  0  0  0  0  0  0  0  0
   37.5350   28.4000   28.5260 N   0  0  0  0  0  0  0  0  0  0  0  0
   36.9330   27.7630   27.9250 H   0  0  0  0  0  0  0  0  0  0  0  0
   37.2640   28.6470   27.5490 H   0  0  0  0  0  0  0  0  0  0  0  0
   40.2120   23.8370   34.6770 F   0  0  0  0  0  0  0  0  0  0  0  0
   39.7000   23.6900   35.9210 C   0  0  0  0  0  0  0  0  0  0  0  0
   40.4220   23.0640   36.9030 C   0  0  0  0  0  0  0  0  0  0  0  0
   39.8420   22.9520   38.1340 C   0  0  0  0  0  0  0  0  0  0  0  0
   38.5890   23.4340   38.4130 C   0  0  0  0  0  0  0  0  0  0  0  0
   37.8700   24.0670   37.4040 C   0  0  0  0  0  0  0  0  0  0  0  0
   38.4380   24.1920   36.1480 C   0  0  0  0  0  0  0  0  0  0  0  0
   40.4060   22.4600   38.9140 H   0  0  0  0  0  0  0  0  0  0  0  0
   38.1990   23.3100   39.4040 H   0  0  0  0  0  0  0  0  0  0  0  0
   36.8780   24.4440   37.6410 H   0  0  0  0  0  0  0  0  0  0  0  0
   44.1340   22.8990   36.1530 C   0  0  0  0  0  0  0  0  0  0  0  0
   42.8590   23.3990   36.4910 C   0  0  0  0  0  0  0  0  0  0  0  0
   41.7520   22.5670   36.5550 C   0  0  0  0  0  0  0  0  0  0  0  0
   41.9600   21.2490   36.2750 N   0  0  0  0  0  0  0  0  0  0  0  0
   43.1710   20.7680   35.9520 C   0  0  0  0  0  0  0  0  0  0  0  0
   44.2300   21.5780   35.8940 N   0  0  0  0  0  0  0  0  0  0  0  0
   44.9680   23.5990   36.1180 H   0  0  0  0  0  0  0  0  0  0  0  0
   42.7080   24.4590   36.7130 H   0  0  0  0  0  0  0  0  0  0  0  0
   43.2670   19.6990   35.7380 H   0  0  0  0  0  0  0  0  0  0  0  0
  1  2  2  0  0  0  0
  3  1  1  0  0  0  0
  3 30  1  0  0  0  0
  4  3  1  0  0  0  0
  5  6  1  0  0  0  0
  6  7  2  0  0  0  0
  6  1  1  0  0  0  0
  7 15  1  0  0  0  0
  8  9  1  0  0  0  0
  8  7  1  0  0  0  0
  9 16  1  0  0  0  0
 10  9  1  0  0  0  0
 11 12  1  0  0  0  0
 11 10  2  0  0  0  0
 12  8  2  0  0  0  0
 13 12  1  0  0  0  0
 13  5  2  0  0  0  0
 14  5  1  0  0  0  0
 17 10  1  0  0  0  0
 18 13  1  0  0  0  0
 19 20  2  0  0  0  0
 19 18  1  0  0  0  0
 21 19  1  0  0  0  0
 22 21  1  0  0  0  0
 23 21  1  0  0  0  0
 24 25  1  0  0  0  0
 25 30  2  0  0  0  0
 25 26  1  0  0  0  0
 26 27  2  0  0  0  0
 27 28  1  0  0  0  0
 27 31  1  0  0  0  0
 28 32  1  0  0  0  0
 29 33  1  0  0  0  0
 29 28  2  0  0  0  0
 30 29  1  0  0  0  0
 34 35  1  0  0  0  0
 35 36  2  0  0  0  0
 35 41  1  0  0  0  0
 36 26  1  0  0  0  0
 37 36  1  0  0  0  0
 38 37  2  0  0  0  0
 39 38  1  0  0  0  0
 39 34  2  0  0  0  0
 40 34  1  0  0  0  0
 42 38  1  0  0  0  0
M  END
>  <minimizedAffinity>
-6.39340353

$$$$

 OpenBabel03272503143D

 42 45  0  0  0  0  0  0  0  0999 V2000
   36.4990   25.6210   32.1390 C   0  0  0  0  0  0  0  0  0  0  0  0
   35.4220   26.0560   31.5920 O   0  0  0  0  0  0  0  0  0  0  0  0
   37.3720   26.6200   32.6600 N   0  0  0  0  0  0  0  0  0  0  0  0
   38.2400   26.2820   33.0890 H   0  0  0  0  0  0  0  0  0  0  0  0
   37.6870   23.7690   33.0980 C   0  0  0  0  0  0  0  0  0  0  0  0
   36.7420   24.1870   32.1860 C   0  0  0  0  0  0  0  0  0  0  0  0
   36.0600   23.3330   31.3640 C   0  0  0  0  0  0  0  0  0  0  0  0
   36.3160   21.9800   31.4370 C   0  0  0  0  0  0  0  0  0  0  0  0
   35.8230   20.9170   30.7810 N   0  0  0  0  0  0  0  0  0  0  0  0
   36.4340   19.8280   31.2550 C   0  0  0  0  0  0  0  0  0  0  0  0
   37.3160   20.1970   32.2140 N   0  0  0  0  0  0  0  0  0  0  0  0
   37.2500   21.5430   32.3360 C   0  0  0  0  0  0  0  0  0  0  0  0
   37.9560   22.3910   33.1790 C   0  0  0  0  0  0  0  0  0  0  0  0
   38.2410   24.4440   33.7620 H   0  0  0  0  0  0  0  0  0  0  0  0
   35.3250   23.6970   30.6600 H   0  0  0  0  0  0  0  0  0  0  0  0
   35.1070   20.8800   30.0400 H   0  0  0  0  0  0  0  0  0  0  0  0
   36.3670   18.7730   31.0370 H   0  0  0  0  0  0  0  0  0  0  0  0
   38.9040   21.9680   34.0950 O   0  0  0  0  0  0  0  0  0  0  0  0
   38.7620   22.3920   35.4280 C   0  0  0  0  0  0  0  0  0  0  0  0
   39.3990   23.2010   36.1780 O   0  0  0  0  0  0  0  0  0  0  0  0
   37.6630   21.7900   36.1070 N   0  0  0  0  0  0  0  0  0  0  0  0
   36.7370   21.6160   35.6170 H   0  0  0  0  0  0  0  0  0  0  0  0
   36.8490   21.3510   36.5910 H   0  0  0  0  0  0  0  0  0  0  0  0
   36.1240   27.9360   34.6980 F   0  0  0  0  0  0  0  0  0  0  0  0
   36.2450   28.6060   33.5290 C   0  0  0  0  0  0  0  0  0  0  0  0
   35.7570   29.8790   33.4000 C   0  0  0  0  0  0  0  0  0  0  0  0
   35.9170   30.4940   32.1920 C   0  0  0  0  0  0  0  0  0  0  0  0
   36.5340   29.8900   31.1260 C   0  0  0  0  0  0  0  0  0  0  0  0
   37.0230   28.5970   31.2730 C   0  0  0  0  0  0  0  0  0  0  0  0
   36.8730   27.9540   32.4900 C   0  0  0  0  0  0  0  0  0  0  0  0
   35.5340   31.4990   32.0830 H   0  0  0  0  0  0  0  0  0  0  0  0
   36.6220   30.4360   30.2070 H   0  0  0  0  0  0  0  0  0  0  0  0
   37.5100   28.1330   30.4190 H   0  0  0  0  0  0  0  0  0  0  0  0
   35.1490   31.8340   36.5910 C   0  0  0  0  0  0  0  0  0  0  0  0
   35.7960   31.2670   35.4730 C   0  0  0  0  0  0  0  0  0  0  0  0
   35.1070   30.4770   34.5660 C   0  0  0  0  0  0  0  0  0  0  0  0
   33.7800   30.2800   34.8090 N   0  0  0  0  0  0  0  0  0  0  0  0
   33.1600   30.8170   35.8720 C   0  0  0  0  0  0  0  0  0  0  0  0
   33.8330   31.5760   36.7390 N   0  0  0  0  0  0  0  0  0  0  0  0
   35.7410   32.4450   37.2710 H   0  0  0  0  0  0  0  0  0  0  0  0
   36.8610   31.4340   35.2910 H   0  0  0  0  0  0  0  0  0  0  0  0
   32.0920   30.6180   36.0080 H   0  0  0  0  0  0  0  0  0  0  0  0
  1  6  1  0  0  0  0
  1  3  1  0  0  0  0
  2  1  2  0  0  0  0
  3  4  1  0  0  0  0
  5 13  1  0  0  0  0
  5 14  1  0  0  0  0
  6  5  2  0  0  0  0
  7  8  2  0  0  0  0
  7  6  1  0  0  0  0
  8 12  1  0  0  0  0
  9 10  1  0  0  0  0
  9  8  1  0  0  0  0
 10 11  2  0  0  0  0
 11 12  1  0  0  0  0
 12 13  2  0  0  0  0
 13 18  1  0  0  0  0
 15  7  1  0  0  0  0
 16  9  1  0  0  0  0
 17 10  1  0  0  0  0
 18 19  1  0  0  0  0
 19 21  1  0  0  0  0
 19 20  2  0  0  0  0
 21 23  1  0  0  0  0
 22 21  1  0  0  0  0
 25 24  1  0  0  0  0
 26 25  1  0  0  0  0
 26 36  1  0  0  0  0
 27 26  2  0  0  0  0
 28 29  2  0  0  0  0
 28 27  1  0  0  0  0
 29 30  1  0  0  0  0
 30  3  1  0  0  0  0
 30 25  2  0  0  0  0
 31 27  1  0  0  0  0
 32 28  1  0  0  0  0
 33 29  1  0  0  0  0
 34 39  1  0  0  0  0
 34 40  1  0  0  0  0
 35 34  2  0  0  0  0
 36 37  2  0  0  0  0
 36 35  1  0  0  0  0
 37 38  1  0  0  0  0
 38 42  1  0  0  0  0
 38 39  2  0  0  0  0
 41 35  1  0  0  0  0
M  END
>  <minimizedAffinity>
-6.38928366

$$$$

 OpenBabel03272503143D

 42 45  0  0  0  0  0  0  0  0999 V2000
   38.0140   26.3390   35.0750 C   0  0  0  0  0  0  0  0  0  0  0  0
   38.7660   26.7700   36.0230 O   0  0  0  0  0  0  0  0  0  0  0  0
   37.8340   24.9270   35.0250 N   0  0  0  0  0  0  0  0  0  0  0  0
   37.2440   24.5740   34.2650 H   0  0  0  0  0  0  0  0  0  0  0  0
   36.5070   28.1690   34.7020 C   0  0  0  0  0  0  0  0  0  0  0  0
   37.4180   27.2940   34.1530 C   0  0  0  0  0  0  0  0  0  0  0  0
   37.7610   27.2980   32.8290 C   0  0  0  0  0  0  0  0  0  0  0  0
   37.1770   28.2170   31.9850 C   0  0  0  0  0  0  0  0  0  0  0  0
   37.3030   28.4670   30.6700 N   0  0  0  0  0  0  0  0  0  0  0  0
   36.4900   29.4830   30.3690 C   0  0  0  0  0  0  0  0  0  0  0  0
   35.8450   29.8820   31.4910 N   0  0  0  0  0  0  0  0  0  0  0  0
   36.2680   29.0960   32.5090 C   0  0  0  0  0  0  0  0  0  0  0  0
   35.9040   29.1110   33.8490 C   0  0  0  0  0  0  0  0  0  0  0  0
   36.2220   28.1760   35.7620 H   0  0  0  0  0  0  0  0  0  0  0  0
   38.4810   26.5960   32.4320 H   0  0  0  0  0  0  0  0  0  0  0  0
   37.8970   27.9980   29.9710 H   0  0  0  0  0  0  0  0  0  0  0  0
   36.2590   30.0170   29.4610 H   0  0  0  0  0  0  0  0  0  0  0  0
   34.9880   29.9910   34.3980 O   0  0  0  0  0  0  0  0  0  0  0  0
   35.4800   31.1860   34.9520 C   0  0  0  0  0  0  0  0  0  0  0  0
   35.8090   31.5530   36.1270 O   0  0  0  0  0  0  0  0  0  0  0  0
   35.6530   32.2320   34.0000 N   0  0  0  0  0  0  0  0  0  0  0  0
   36.0200   32.0370   33.0220 H   0  0  0  0  0  0  0  0  0  0  0  0
   35.7860   32.9870   33.2920 H   0  0  0  0  0  0  0  0  0  0  0  0
   40.3510   23.9440   34.6470 F   0  0  0  0  0  0  0  0  0  0  0  0
   39.7970   23.7390   35.8640 C   0  0  0  0  0  0  0  0  0  0  0  0
   40.4850   23.0690   36.8400 C   0  0  0  0  0  0  0  0  0  0  0  0
   39.8640   22.9000   38.0440 C   0  0  0  0  0  0  0  0  0  0  0  0
   38.6000   23.3670   38.3010 C   0  0  0  0  0  0  0  0  0  0  0  0
   37.9150   24.0450   37.2990 C   0  0  0  0  0  0  0  0  0  0  0  0
   38.5260   24.2290   36.0700 C   0  0  0  0  0  0  0  0  0  0  0  0
   40.4010   22.3720   38.8200 H   0  0  0  0  0  0  0  0  0  0  0  0
   38.1770   23.1970   39.2710 H   0  0  0  0  0  0  0  0  0  0  0  0
   36.9150   24.4110   37.5190 H   0  0  0  0  0  0  0  0  0  0  0  0
   44.2070   22.9560   36.1320 C   0  0  0  0  0  0  0  0  0  0  0  0
   42.9210   23.4390   36.4480 C   0  0  0  0  0  0  0  0  0  0  0  0
   41.8280   22.5890   36.5160 C   0  0  0  0  0  0  0  0  0  0  0  0
   42.0620   21.2700   36.2630 N   0  0  0  0  0  0  0  0  0  0  0  0
   43.2850   20.8050   35.9620 C   0  0  0  0  0  0  0  0  0  0  0  0
   44.3300   21.6330   35.9000 N   0  0  0  0  0  0  0  0  0  0  0  0
   45.0290   23.6710   36.0920 H   0  0  0  0  0  0  0  0  0  0  0  0
   42.7490   24.5000   36.6470 H   0  0  0  0  0  0  0  0  0  0  0  0
   43.4030   19.7340   35.7700 H   0  0  0  0  0  0  0  0  0  0  0  0
  1  2  2  0  0  0  0
  3  1  1  0  0  0  0
  3 30  1  0  0  0  0
  4  3  1  0  0  0  0
  5 14  1  0  0  0  0
  6  5  1  0  0  0  0
  6  1  1  0  0  0  0
  7  6  2  0  0  0  0
  8 12  2  0  0  0  0
  8  7  1  0  0  0  0
  9  8  1  0  0  0  0
 10  9  1  0  0  0  0
 10 11  2  0  0  0  0
 11 12  1  0  0  0  0
 12 13  1  0  0  0  0
 13 18  1  0  0  0  0
 13  5  2  0  0  0  0
 15  7  1  0  0  0  0
 16  9  1  0  0  0  0
 17 10  1  0  0  0  0
 18 19  1  0  0  0  0
 19 20  2  0  0  0  0
 21 19  1  0  0  0  0
 22 21  1  0  0  0  0
 23 21  1  0  0  0  0
 24 25  1  0  0  0  0
 25 30  2  0  0  0  0
 25 26  1  0  0  0  0
 26 27  2  0  0  0  0
 27 28  1  0  0  0  0
 27 31  1  0  0  0  0
 28 32  1  0  0  0  0
 29 33  1  0  0  0  0
 29 28  2  0  0  0  0
 30 29  1  0  0  0  0
 34 35  1  0  0  0  0
 35 36  2  0  0  0  0
 35 41  1  0  0  0  0
 36 26  1  0  0  0  0
 37 36  1  0  0  0  0
 38 37  2  0  0  0  0
 39 38  1  0  0  0  0
 39 34  2  0  0  0  0
 40 34  1  0  0  0  0
 42 38  1  0  0  0  0
M  END
>  <minimizedAffinity>
-6.3825326

$$$$

 OpenBabel03272503143D

 42 45  0  0  0  0  0  0  0  0999 V2000
   36.4390   25.7630   31.3490 C   0  0  0  0  0  0  0  0  0  0  0  0
   35.3430   26.2290   30.8700 O   0  0  0  0  0  0  0  0  0  0  0  0
   37.3200   26.7250   31.9230 N   0  0  0  0  0  0  0  0  0  0  0  0
   38.2020   26.3630   32.2980 H   0  0  0  0  0  0  0  0  0  0  0  0
   35.7450   23.5230   31.8570 C   0  0  0  0  0  0  0  0  0  0  0  0
   36.6950   24.3320   31.2750 C   0  0  0  0  0  0  0  0  0  0  0  0
   37.8170   23.8520   30.6580 C   0  0  0  0  0  0  0  0  0  0  0  0
   38.0270   22.4900   30.6060 C   0  0  0  0  0  0  0  0  0  0  0  0
   39.0050   21.7310   30.0850 N   0  0  0  0  0  0  0  0  0  0  0  0
   38.6990   20.4530   30.3240 C   0  0  0  0  0  0  0  0  0  0  0  0
   37.5260   20.3960   30.9970 N   0  0  0  0  0  0  0  0  0  0  0  0
   37.0960   21.6670   31.1790 C   0  0  0  0  0  0  0  0  0  0  0  0
   35.9490   22.1310   31.8100 C   0  0  0  0  0  0  0  0  0  0  0  0
   34.8410   23.8950   32.3550 H   0  0  0  0  0  0  0  0  0  0  0  0
   38.5430   24.5170   30.2110 H   0  0  0  0  0  0  0  0  0  0  0  0
   39.8590   22.0190   29.5840 H   0  0  0  0  0  0  0  0  0  0  0  0
   39.1750   19.5110   30.0990 H   0  0  0  0  0  0  0  0  0  0  0  0
   34.9960   21.3160   32.3950 O   0  0  0  0  0  0  0  0  0  0  0  0
   35.3850   20.5480   33.5070 C   0  0  0  0  0  0  0  0  0  0  0  0
   35.7160   20.8230   34.7070 O   0  0  0  0  0  0  0  0  0  0  0  0
   35.4230   19.1460   33.2530 N   0  0  0  0  0  0  0  0  0  0  0  0
   34.6900   18.6730   32.6470 H   0  0  0  0  0  0  0  0  0  0  0  0
   35.4370   18.1220   33.0580 H   0  0  0  0  0  0  0  0  0  0  0  0
   36.1510   27.8740   34.1050 F   0  0  0  0  0  0  0  0  0  0  0  0
   36.2180   28.6300   32.9850 C   0  0  0  0  0  0  0  0  0  0  0  0
   35.7180   29.9050   32.9730 C   0  0  0  0  0  0  0  0  0  0  0  0
   35.8210   30.6090   31.8080 C   0  0  0  0  0  0  0  0  0  0  0  0
   36.3950   30.0930   30.6750 C   0  0  0  0  0  0  0  0  0  0  0  0
   36.8990   28.7970   30.7050 C   0  0  0  0  0  0  0  0  0  0  0  0
   36.8050   28.0640   31.8750 C   0  0  0  0  0  0  0  0  0  0  0  0
   35.4280   31.6160   31.7920 H   0  0  0  0  0  0  0  0  0  0  0  0
   36.4410   30.7060   29.7970 H   0  0  0  0  0  0  0  0  0  0  0  0
   37.3520   28.4030   29.7980 H   0  0  0  0  0  0  0  0  0  0  0  0
   35.2270   31.6340   36.3110 C   0  0  0  0  0  0  0  0  0  0  0  0
   35.8280   31.1590   35.1270 C   0  0  0  0  0  0  0  0  0  0  0  0
   35.1140   30.4080   34.2070 C   0  0  0  0  0  0  0  0  0  0  0  0
   33.8080   30.1560   34.5040 N   0  0  0  0  0  0  0  0  0  0  0  0
   33.2310   30.6050   35.6300 C   0  0  0  0  0  0  0  0  0  0  0  0
   33.9280   31.3280   36.5090 N   0  0  0  0  0  0  0  0  0  0  0  0
   35.8380   32.2180   36.9980 H   0  0  0  0  0  0  0  0  0  0  0  0
   36.8770   31.3690   34.9020 H   0  0  0  0  0  0  0  0  0  0  0  0
   32.1770   30.3660   35.8080 H   0  0  0  0  0  0  0  0  0  0  0  0
  1  3  1  0  0  0  0
  2  1  2  0  0  0  0
  3  4  1  0  0  0  0
  5 14  1  0  0  0  0
  6  1  1  0  0  0  0
  6  5  2  0  0  0  0
  7  6  1  0  0  0  0
  8  7  2  0  0  0  0
  8 12  1  0  0  0  0
  9 10  1  0  0  0  0
  9  8  1  0  0  0  0
 10 11  2  0  0  0  0
 11 12  1  0  0  0  0
 12 13  2  0  0  0  0
 13  5  1  0  0  0  0
 13 18  1  0  0  0  0
 15  7  1  0  0  0  0
 16  9  1  0  0  0  0
 17 10  1  0  0  0  0
 18 19  1  0  0  0  0
 19 20  2  0  0  0  0
 21 19  1  0  0  0  0
 22 21  1  0  0  0  0
 23 21  1  0  0  0  0
 25 24  1  0  0  0  0
 26 25  1  0  0  0  0
 26 36  1  0  0  0  0
 27 26  2  0  0  0  0
 28 29  2  0  0  0  0
 28 27  1  0  0  0  0
 29 30  1  0  0  0  0
 30  3  1  0  0  0  0
 30 25  2  0  0  0  0
 31 27  1  0  0  0  0
 32 28  1  0  0  0  0
 33 29  1  0  0  0  0
 34 39  1  0  0  0  0
 34 40  1  0  0  0  0
 35 34  2  0  0  0  0
 36 37  2  0  0  0  0
 36 35  1  0  0  0  0
 37 38  1  0  0  0  0
 38 42  1  0  0  0  0
 38 39  2  0  0  0  0
 41 35  1  0  0  0  0
M  END
>  <minimizedAffinity>
-6.18973589

$$$$

 OpenBabel03272503143D

 42 45  0  0  0  0  0  0  0  0999 V2000
   36.7630   27.2450   33.0870 C   0  0  0  0  0  0  0  0  0  0  0  0
   36.9020   26.6790   34.2320 O   0  0  0  0  0  0  0  0  0  0  0  0
   37.3170   26.5390   31.9800 N   0  0  0  0  0  0  0  0  0  0  0  0
   37.2200   26.9880   31.0640 H   0  0  0  0  0  0  0  0  0  0  0  0
   35.6510   29.0540   34.2050 C   0  0  0  0  0  0  0  0  0  0  0  0
   36.0710   28.5220   33.0060 C   0  0  0  0  0  0  0  0  0  0  0  0
   35.8660   29.1330   31.7990 C   0  0  0  0  0  0  0  0  0  0  0  0
   35.2070   30.3430   31.7610 C   0  0  0  0  0  0  0  0  0  0  0  0
   34.8630   31.1690   30.7580 N   0  0  0  0  0  0  0  0  0  0  0  0
   34.2300   32.2170   31.2940 C   0  0  0  0  0  0  0  0  0  0  0  0
   34.1720   32.0600   32.6370 N   0  0  0  0  0  0  0  0  0  0  0  0
   34.7810   30.8900   32.9400 C   0  0  0  0  0  0  0  0  0  0  0  0
   34.9770   30.2880   34.1770 C   0  0  0  0  0  0  0  0  0  0  0  0
   35.8090   28.5740   35.1800 H   0  0  0  0  0  0  0  0  0  0  0  0
   36.2100   28.6860   30.8770 H   0  0  0  0  0  0  0  0  0  0  0  0
   35.0260   31.0700   29.7450 H   0  0  0  0  0  0  0  0  0  0  0  0
   33.7840   33.1110   30.8900 H   0  0  0  0  0  0  0  0  0  0  0  0
   34.5540   30.8250   35.3810 O   0  0  0  0  0  0  0  0  0  0  0  0
   35.4290   31.6980   36.0520 C   0  0  0  0  0  0  0  0  0  0  0  0
   36.5550   32.2220   35.7670 O   0  0  0  0  0  0  0  0  0  0  0  0
   34.9680   32.0930   37.3410 N   0  0  0  0  0  0  0  0  0  0  0  0
   33.9420   32.2990   37.5240 H   0  0  0  0  0  0  0  0  0  0  0  0
   34.6160   32.3840   38.2790 H   0  0  0  0  0  0  0  0  0  0  0  0
   35.9100   24.2020   31.9340 F   0  0  0  0  0  0  0  0  0  0  0  0
   37.2040   24.1220   32.3210 C   0  0  0  0  0  0  0  0  0  0  0  0
   37.7560   22.9170   32.6660 C   0  0  0  0  0  0  0  0  0  0  0  0
   39.0670   22.9130   33.0460 C   0  0  0  0  0  0  0  0  0  0  0  0
   39.8320   24.0510   33.0920 C   0  0  0  0  0  0  0  0  0  0  0  0
   39.2560   25.2660   32.7370 C   0  0  0  0  0  0  0  0  0  0  0  0
   37.9270   25.2940   32.3490 C   0  0  0  0  0  0  0  0  0  0  0  0
   39.5100   21.9660   33.3200 H   0  0  0  0  0  0  0  0  0  0  0  0
   40.8560   23.9690   33.4000 H   0  0  0  0  0  0  0  0  0  0  0  0
   39.8760   26.1580   32.7780 H   0  0  0  0  0  0  0  0  0  0  0  0
   35.8140   19.9300   31.3730 C   0  0  0  0  0  0  0  0  0  0  0  0
   36.6450   21.0690   31.4130 C   0  0  0  0  0  0  0  0  0  0  0  0
   36.8980   21.7340   32.6020 C   0  0  0  0  0  0  0  0  0  0  0  0
   36.3060   21.2330   33.7230 N   0  0  0  0  0  0  0  0  0  0  0  0
   35.5140   20.1500   33.6900 C   0  0  0  0  0  0  0  0  0  0  0  0
   35.2770   19.5160   32.5390 N   0  0  0  0  0  0  0  0  0  0  0  0
   35.6500   19.4480   30.4100 H   0  0  0  0  0  0  0  0  0  0  0  0
   37.1130   21.4590   30.5050 H   0  0  0  0  0  0  0  0  0  0  0  0
   35.0690   19.8000   34.6270 H   0  0  0  0  0  0  0  0  0  0  0  0
  1  2  2  0  0  0  0
  3 30  1  0  0  0  0
  3  1  1  0  0  0  0
  4  3  1  0  0  0  0
  5 14  1  0  0  0  0
  6  1  1  0  0  0  0
  6  5  2  0  0  0  0
  7  6  1  0  0  0  0
  8  7  2  0  0  0  0
  8 12  1  0  0  0  0
  9 10  1  0  0  0  0
  9  8  1  0  0  0  0
 10 11  2  0  0  0  0
 11 12  1  0  0  0  0
 12 13  2  0  0  0  0
 13  5  1  0  0  0  0
 13 18  1  0  0  0  0
 15  7  1  0  0  0  0
 16  9  1  0  0  0  0
 17 10  1  0  0  0  0
 18 19  1  0  0  0  0
 19 21  1  0  0  0  0
 20 19  2  0  0  0  0
 21 22  1  0  0  0  0
 21 23  1  0  0  0  0
 24 25  1  0  0  0  0
 25 30  2  0  0  0  0
 25 26  1  0  0  0  0
 26 27  2  0  0  0  0
 27 28  1  0  0  0  0
 27 31  1  0  0  0  0
 28 32  1  0  0  0  0
 29 33  1  0  0  0  0
 29 28  2  0  0  0  0
 30 29  1  0  0  0  0
 34 35  2  0  0  0  0
 34 39  1  0  0  0  0
 35 36  1  0  0  0  0
 36 26  1  0  0  0  0
 36 37  2  0  0  0  0
 38 37  1  0  0  0  0
 38 42  1  0  0  0  0
 39 38  2  0  0  0  0
 40 34  1  0  0  0  0
 41 35  1  0  0  0  0
M  END
>  <minimizedAffinity>
-6.06717396

$$$$

 OpenBabel03272503143D

 42 45  0  0  0  0  0  0  0  0999 V2000
   38.5400   26.3340   33.5620 C   0  0  0  0  0  0  0  0  0  0  0  0
   39.1120   27.4490   33.8420 O   0  0  0  0  0  0  0  0  0  0  0  0
   37.2550   26.4360   32.9530 N   0  0  0  0  0  0  0  0  0  0  0  0
   36.7860   25.5510   32.7360 H   0  0  0  0  0  0  0  0  0  0  0  0
   38.7130   24.3780   34.9410 C   0  0  0  0  0  0  0  0  0  0  0  0
   39.2220   25.0880   33.8760 C   0  0  0  0  0  0  0  0  0  0  0  0
   40.2990   24.6740   33.1410 C   0  0  0  0  0  0  0  0  0  0  0  0
   40.9200   23.4870   33.4670 C   0  0  0  0  0  0  0  0  0  0  0  0
   41.9720   22.8290   32.9500 N   0  0  0  0  0  0  0  0  0  0  0  0
   42.1440   21.7140   33.6640 C   0  0  0  0  0  0  0  0  0  0  0  0
   41.2030   21.6590   34.6360 N   0  0  0  0  0  0  0  0  0  0  0  0
   40.4310   22.7650   34.5220 C   0  0  0  0  0  0  0  0  0  0  0  0
   39.3400   23.1650   35.2820 C   0  0  0  0  0  0  0  0  0  0  0  0
   37.8500   24.6980   35.5380 H   0  0  0  0  0  0  0  0  0  0  0  0
   40.6720   25.2570   32.3110 H   0  0  0  0  0  0  0  0  0  0  0  0
   42.5740   23.0850   32.1540 H   0  0  0  0  0  0  0  0  0  0  0  0
   42.8450   20.8950   33.6210 H   0  0  0  0  0  0  0  0  0  0  0  0
   38.8310   22.4500   36.3520 O   0  0  0  0  0  0  0  0  0  0  0  0
   39.4250   22.6430   37.6120 C   0  0  0  0  0  0  0  0  0  0  0  0
   39.1490   23.3650   38.6250 O   0  0  0  0  0  0  0  0  0  0  0  0
   40.6020   21.8660   37.8160 N   0  0  0  0  0  0  0  0  0  0  0  0
   40.6740   20.8670   37.4630 H   0  0  0  0  0  0  0  0  0  0  0  0
   41.4560   21.2840   37.9590 H   0  0  0  0  0  0  0  0  0  0  0  0
   35.9890   27.8440   34.9170 F   0  0  0  0  0  0  0  0  0  0  0  0
   36.1950   28.4900   33.7460 C   0  0  0  0  0  0  0  0  0  0  0  0
   35.7800   29.7840   33.5800 C   0  0  0  0  0  0  0  0  0  0  0  0
   36.0220   30.3720   32.3720 C   0  0  0  0  0  0  0  0  0  0  0  0
   36.6530   29.7220   31.3420 C   0  0  0  0  0  0  0  0  0  0  0  0
   37.0680   28.4080   31.5270 C   0  0  0  0  0  0  0  0  0  0  0  0
   36.8330   27.7920   32.7440 C   0  0  0  0  0  0  0  0  0  0  0  0
   35.6970   31.3940   32.2330 H   0  0  0  0  0  0  0  0  0  0  0  0
   36.8090   30.2480   30.4210 H   0  0  0  0  0  0  0  0  0  0  0  0
   37.5680   27.9070   30.7010 H   0  0  0  0  0  0  0  0  0  0  0  0
   35.1170   31.8910   36.6610 C   0  0  0  0  0  0  0  0  0  0  0  0
   35.7810   31.2770   35.5790 C   0  0  0  0  0  0  0  0  0  0  0  0
   35.1110   30.4320   34.7080 C   0  0  0  0  0  0  0  0  0  0  0  0
   33.7860   30.2280   34.9510 N   0  0  0  0  0  0  0  0  0  0  0  0
   33.1490   30.8100   35.9800 C   0  0  0  0  0  0  0  0  0  0  0  0
   33.8040   31.6220   36.8120 N   0  0  0  0  0  0  0  0  0  0  0  0
   35.6950   32.5450   37.3130 H   0  0  0  0  0  0  0  0  0  0  0  0
   36.8450   31.4500   35.3960 H   0  0  0  0  0  0  0  0  0  0  0  0
   32.0830   30.6020   36.1180 H   0  0  0  0  0  0  0  0  0  0  0  0
  1  2  2  0  0  0  0
  1  6  1  0  0  0  0
  3  1  1  0  0  0  0
  4  3  1  0  0  0  0
  5 13  1  0  0  0  0
  5 14  1  0  0  0  0
  6  5  2  0  0  0  0
  7  8  2  0  0  0  0
  7  6  1  0  0  0  0
  8 12  1  0  0  0  0
  9  8  1  0  0  0  0
  9 10  1  0  0  0  0
 10 11  2  0  0  0  0
 12 11  1  0  0  0  0
 12 13  2  0  0  0  0
 13 18  1  0  0  0  0
 15  7  1  0  0  0  0
 16  9  1  0  0  0  0
 17 10  1  0  0  0  0
 18 19  1  0  0  0  0
 19 21  1  0  0  0  0
 19 20  2  0  0  0  0
 21 23  1  0  0  0  0
 22 21  1  0  0  0  0
 25 24  1  0  0  0  0
 26 25  1  0  0  0  0
 26 36  1  0  0  0  0
 27 26  2  0  0  0  0
 28 29  2  0  0  0  0
 28 27  1  0  0  0  0
 29 30  1  0  0  0  0
 30  3  1  0  0  0  0
 30 25  2  0  0  0  0
 31 27  1  0  0  0  0
 32 28  1  0  0  0  0
 33 29  1  0  0  0  0
 34 39  1  0  0  0  0
 34 40  1  0  0  0  0
 35 34  2  0  0  0  0
 36 37  2  0  0  0  0
 36 35  1  0  0  0  0
 37 38  1  0  0  0  0
 38 42  1  0  0  0  0
 38 39  2  0  0  0  0
 41 35  1  0  0  0  0
M  END
>  <minimizedAffinity>
-6.00717974

$$$$

 OpenBabel03272503143D

 42 45  0  0  0  0  0  0  0  0999 V2000
   37.0050   27.4820   32.8570 C   0  0  0  0  0  0  0  0  0  0  0  0
   36.4620   26.3190   32.8340 O   0  0  0  0  0  0  0  0  0  0  0  0
   38.4300   27.4970   32.8820 N   0  0  0  0  0  0  0  0  0  0  0  0
   38.8710   28.4220   32.9110 H   0  0  0  0  0  0  0  0  0  0  0  0
   35.7830   29.1360   34.0950 C   0  0  0  0  0  0  0  0  0  0  0  0
   36.1540   28.6620   32.8550 C   0  0  0  0  0  0  0  0  0  0  0  0
   35.7630   29.2420   31.6800 C   0  0  0  0  0  0  0  0  0  0  0  0
   34.9560   30.3600   31.7170 C   0  0  0  0  0  0  0  0  0  0  0  0
   34.4200   31.1360   30.7600 N   0  0  0  0  0  0  0  0  0  0  0  0
   33.7130   32.0950   31.3640 C   0  0  0  0  0  0  0  0  0  0  0  0
   33.7990   31.9320   32.7050 N   0  0  0  0  0  0  0  0  0  0  0  0
   34.5760   30.8480   32.9370 C   0  0  0  0  0  0  0  0  0  0  0  0
   34.9590   30.2750   34.1430 C   0  0  0  0  0  0  0  0  0  0  0  0
   36.0890   28.6790   35.0440 H   0  0  0  0  0  0  0  0  0  0  0  0
   36.0730   28.8440   30.7250 H   0  0  0  0  0  0  0  0  0  0  0  0
   34.4990   31.0590   29.7350 H   0  0  0  0  0  0  0  0  0  0  0  0
   33.1210   32.9270   31.0140 H   0  0  0  0  0  0  0  0  0  0  0  0
   34.5850   30.7530   35.3870 O   0  0  0  0  0  0  0  0  0  0  0  0
   35.4300   31.6890   36.0090 C   0  0  0  0  0  0  0  0  0  0  0  0
   36.5140   32.2700   35.6760 O   0  0  0  0  0  0  0  0  0  0  0  0
   34.9890   32.0870   37.3050 N   0  0  0  0  0  0  0  0  0  0  0  0
   33.9600   32.2390   37.5180 H   0  0  0  0  0  0  0  0  0  0  0  0
   34.6520   32.3790   38.2480 H   0  0  0  0  0  0  0  0  0  0  0  0
   38.9930   26.1590   35.1910 F   0  0  0  0  0  0  0  0  0  0  0  0
   39.2900   25.5230   34.0350 C   0  0  0  0  0  0  0  0  0  0  0  0
   39.8440   24.2700   34.0500 C   0  0  0  0  0  0  0  0  0  0  0  0
   40.1160   23.6890   32.8450 C   0  0  0  0  0  0  0  0  0  0  0  0
   39.8590   24.3050   31.6470 C   0  0  0  0  0  0  0  0  0  0  0  0
   39.2960   25.5770   31.6500 C   0  0  0  0  0  0  0  0  0  0  0  0
   39.0110   26.1860   32.8600 C   0  0  0  0  0  0  0  0  0  0  0  0
   40.5530   22.7000   32.8490 H   0  0  0  0  0  0  0  0  0  0  0  0
   40.0990   23.7870   30.7400 H   0  0  0  0  0  0  0  0  0  0  0  0
   39.0970   26.0520   30.6920 H   0  0  0  0  0  0  0  0  0  0  0  0
   41.5780   22.6040   36.9800 C   0  0  0  0  0  0  0  0  0  0  0  0
   41.3530   23.1930   35.7190 C   0  0  0  0  0  0  0  0  0  0  0  0
   40.1000   23.6570   35.3530 C   0  0  0  0  0  0  0  0  0  0  0  0
   39.1020   23.5150   36.2710 N   0  0  0  0  0  0  0  0  0  0  0  0
   39.3110   22.9550   37.4730 C   0  0  0  0  0  0  0  0  0  0  0  0
   40.5220   22.5120   37.8150 N   0  0  0  0  0  0  0  0  0  0  0  0
   42.5840   22.2570   37.2130 H   0  0  0  0  0  0  0  0  0  0  0  0
   42.1630   23.3000   34.9920 H   0  0  0  0  0  0  0  0  0  0  0  0
   38.4650   22.8720   38.1640 H   0  0  0  0  0  0  0  0  0  0  0  0
  1  3  1  0  0  0  0
  2  1  2  0  0  0  0
  3  4  1  0  0  0  0
  5 13  1  0  0  0  0
  5 14  1  0  0  0  0
  6  1  1  0  0  0  0
  6  5  2  0  0  0  0
  7  8  2  0  0  0  0
  7  6  1  0  0  0  0
  8 12  1  0  0  0  0
  9 10  1  0  0  0  0
  9  8  1  0  0  0  0
 10 11  2  0  0  0  0
 11 12  1  0  0  0  0
 12 13  2  0  0  0  0
 13 18  1  0  0  0  0
 15  7  1  0  0  0  0
 16  9  1  0  0  0  0
 17 10  1  0  0  0  0
 18 19  1  0  0  0  0
 19 21  1  0  0  0  0
 20 19  2  0  0  0  0
 21 22  1  0  0  0  0
 21 23  1  0  0  0  0
 25 26  1  0  0  0  0
 25 24  1  0  0  0  0
 26 36  1  0  0  0  0
 27 31  1  0  0  0  0
 27 26  2  0  0  0  0
 28 29  2  0  0  0  0
 28 27  1  0  0  0  0
 29 30  1  0  0  0  0
 30  3  1  0  0  0  0
 30 25  2  0  0  0  0
 32 28  1  0  0  0  0
 33 29  1  0  0  0  0
 34 40  1  0  0  0  0
 34 39  1  0  0  0  0
 35 34  2  0  0  0  0
 36 35  1  0  0  0  0
 36 37  2  0  0  0  0
 37 38  1  0  0  0  0
 38 39  2  0  0  0  0
 38 42  1  0  0  0  0
 41 35  1  0  0  0  0
M  END
>  <minimizedAffinity>
-5.9804287

$$$$

 OpenBabel03272503143D

 42 45  0  0  0  0  0  0  0  0999 V2000
   36.8470   27.8500   33.9980 C   0  0  0  0  0  0  0  0  0  0  0  0
   36.8240   26.7870   33.2790 O   0  0  0  0  0  0  0  0  0  0  0  0
   37.6740   27.7930   35.1570 N   0  0  0  0  0  0  0  0  0  0  0  0
   37.6900   28.6340   35.7430 H   0  0  0  0  0  0  0  0  0  0  0  0
   35.5210   29.7530   34.6130 C   0  0  0  0  0  0  0  0  0  0  0  0
   36.0530   29.0000   33.5910 C   0  0  0  0  0  0  0  0  0  0  0  0
   35.8650   29.2880   32.2670 C   0  0  0  0  0  0  0  0  0  0  0  0
   35.1080   30.3850   31.9170 C   0  0  0  0  0  0  0  0  0  0  0  0
   34.7510   30.9160   30.7360 N   0  0  0  0  0  0  0  0  0  0  0  0
   34.0010   31.9930   30.9840 C   0  0  0  0  0  0  0  0  0  0  0  0
   33.8800   32.1500   32.3230 N   0  0  0  0  0  0  0  0  0  0  0  0
   34.5690   31.1490   32.9170 C   0  0  0  0  0  0  0  0  0  0  0  0
   34.7450   30.8750   34.2670 C   0  0  0  0  0  0  0  0  0  0  0  0
   35.6630   29.5330   35.6790 H   0  0  0  0  0  0  0  0  0  0  0  0
   36.2980   28.6740   31.4900 H   0  0  0  0  0  0  0  0  0  0  0  0
   34.9800   30.5990   29.7820 H   0  0  0  0  0  0  0  0  0  0  0  0
   33.5020   32.7210   30.3630 H   0  0  0  0  0  0  0  0  0  0  0  0
   34.2090   31.6340   35.2930 O   0  0  0  0  0  0  0  0  0  0  0  0
   35.0990   32.3580   36.1060 C   0  0  0  0  0  0  0  0  0  0  0  0
   36.0920   33.1240   35.8780 O   0  0  0  0  0  0  0  0  0  0  0  0
   34.8500   32.2120   37.5020 N   0  0  0  0  0  0  0  0  0  0  0  0
   33.8610   32.1740   37.8870 H   0  0  0  0  0  0  0  0  0  0  0  0
   34.6520   32.1070   38.5200 H   0  0  0  0  0  0  0  0  0  0  0  0
   40.2120   27.4420   34.2210 F   0  0  0  0  0  0  0  0  0  0  0  0
   39.6380   26.3780   34.8270 C   0  0  0  0  0  0  0  0  0  0  0  0
   40.3180   25.1960   34.9520 C   0  0  0  0  0  0  0  0  0  0  0  0
   39.6760   24.1650   35.5770 C   0  0  0  0  0  0  0  0  0  0  0  0
   38.4010   24.2720   36.0700 C   0  0  0  0  0  0  0  0  0  0  0  0
   37.7250   25.4800   35.9350 C   0  0  0  0  0  0  0  0  0  0  0  0
   38.3570   26.5390   35.3050 C   0  0  0  0  0  0  0  0  0  0  0  0
   40.2060   23.2280   35.6790 H   0  0  0  0  0  0  0  0  0  0  0  0
   37.9610   23.4200   36.5480 H   0  0  0  0  0  0  0  0  0  0  0  0
   36.7150   25.5500   36.3320 H   0  0  0  0  0  0  0  0  0  0  0  0
   43.2480   24.6620   32.6080 C   0  0  0  0  0  0  0  0  0  0  0  0
   41.9320   24.7170   33.1120 C   0  0  0  0  0  0  0  0  0  0  0  0
   41.6740   25.1320   34.4090 C   0  0  0  0  0  0  0  0  0  0  0  0
   42.7520   25.4820   35.1660 N   0  0  0  0  0  0  0  0  0  0  0  0
   44.0070   25.4310   34.6910 C   0  0  0  0  0  0  0  0  0  0  0  0
   44.2440   25.0310   33.4400 N   0  0  0  0  0  0  0  0  0  0  0  0
   43.3910   24.3280   31.5810 H   0  0  0  0  0  0  0  0  0  0  0  0
   41.0770   24.4330   32.4930 H   0  0  0  0  0  0  0  0  0  0  0  0
   44.8280   25.7260   35.3530 H   0  0  0  0  0  0  0  0  0  0  0  0
  1  3  1  0  0  0  0
  2  1  2  0  0  0  0
  3 30  1  0  0  0  0
  3  4  1  0  0  0  0
  5 14  1  0  0  0  0
  6  1  1  0  0  0  0
  6  5  2  0  0  0  0
  7  6  1  0  0  0  0
  8  7  2  0  0  0  0
  8 12  1  0  0  0  0
  9 10  1  0  0  0  0
  9  8  1  0  0  0  0
 10 11  2  0  0  0  0
 11 12  1  0  0  0  0
 12 13  2  0  0  0  0
 13  5  1  0  0  0  0
 13 18  1  0  0  0  0
 15  7  1  0  0  0  0
 16  9  1  0  0  0  0
 17 10  1  0  0  0  0
 18 19  1  0  0  0  0
 19 21  1  0  0  0  0
 20 19  2  0  0  0  0
 21 22  1  0  0  0  0
 21 23  1  0  0  0  0
 24 25  1  0  0  0  0
 25 26  2  0  0  0  0
 25 30  1  0  0  0  0
 26 27  1  0  0  0  0
 27 31  1  0  0  0  0
 27 28  2  0  0  0  0
 28 32  1  0  0  0  0
 29 28  1  0  0  0  0
 29 33  1  0  0  0  0
 30 29  2  0  0  0  0
 34 35  2  0  0  0  0
 34 39  1  0  0  0  0
 35 36  1  0  0  0  0
 36 26  1  0  0  0  0
 36 37  2  0  0  0  0
 38 37  1  0  0  0  0
 38 42  1  0  0  0  0
 39 38  2  0  0  0  0
 40 34  1  0  0  0  0
 41 35  1  0  0  0  0
M  END
>  <minimizedAffinity>
-5.94834471

$$$$
