
 OpenBabel03272510243D

 28 30  0  0  0  0  0  0  0  0999 V2000
   36.3090   30.2110   46.3640 C   0  0  0  0  0  0  0  0  0  0  0  0
   37.1620   30.8900   47.2090 C   0  0  0  0  0  0  0  0  0  0  0  0
   38.0100   31.8470   46.7010 C   0  0  0  0  0  0  0  0  0  0  0  0
   37.9650   32.0870   45.3320 C   0  0  0  0  0  0  0  0  0  0  0  0
   38.7150   32.9890   44.6090 N   0  0  0  0  0  0  0  0  0  0  0  0
   38.3230   32.8580   43.3460 C   0  0  0  0  0  0  0  0  0  0  0  0
   37.3720   31.9320   43.2220 N   0  0  0  0  0  0  0  0  0  0  0  0
   37.1310   31.4320   44.4580 C   0  0  0  0  0  0  0  0  0  0  0  0
   36.2840   30.4720   44.9940 C   0  0  0  0  0  0  0  0  0  0  0  0
   35.6230   29.4570   46.6760 H   0  0  0  0  0  0  0  0  0  0  0  0
   38.6750   32.3790   47.3490 H   0  0  0  0  0  0  0  0  0  0  0  0
   39.4450   33.6320   45.0380 H   0  0  0  0  0  0  0  0  0  0  0  0
   35.6310   29.9590   44.3100 H   0  0  0  0  0  0  0  0  0  0  0  0
   37.8730   30.6630   50.8910 C   0  0  0  0  0  0  0  0  0  0  0  0
   38.0160   31.0610   49.5640 C   0  0  0  0  0  0  0  0  0  0  0  0
   37.1240   30.5580   48.6210 C   0  0  0  0  0  0  0  0  0  0  0  0
   36.1480   29.6950   49.0420 N   0  0  0  0  0  0  0  0  0  0  0  0
   36.0350   29.3270   50.3450 C   0  0  0  0  0  0  0  0  0  0  0  0
   36.8830   29.8040   51.2450 N   0  0  0  0  0  0  0  0  0  0  0  0
   38.5640   31.0540   51.6130 H   0  0  0  0  0  0  0  0  0  0  0  0
   38.7830   31.7380   49.2330 H   0  0  0  0  0  0  0  0  0  0  0  0
   35.2490   28.6460   50.6160 H   0  0  0  0  0  0  0  0  0  0  0  0
   38.9060   33.6510   42.3600 O   0  0  0  0  0  0  0  0  0  0  0  0
   38.4330   33.8290   41.0920 C   0  0  0  0  0  0  0  0  0  0  0  0
   38.8160   33.8810   39.8810 O   0  0  0  0  0  0  0  0  0  0  0  0
   37.0060   34.0290   41.1280 N   0  0  0  0  0  0  0  0  0  0  0  0
   36.0620   34.4280   41.1080 H   0  0  0  0  0  0  0  0  0  0  0  0
   36.4940   33.1340   41.3030 H   0  0  0  0  0  0  0  0  0  0  0  0
  1 10  1  0  0  0  0
  1  2  1  0  0  0  0
  2 16  1  0  0  0  0
  3  2  2  0  0  0  0
  3 11  1  0  0  0  0
  4  3  1  0  0  0  0
  5 12  1  0  0  0  0
  5  4  1  0  0  0  0
  6  5  1  0  0  0  0
  7  6  2  0  0  0  0
  7  8  1  0  0  0  0
  8  9  1  0  0  0  0
  8  4  2  0  0  0  0
  9  1  2  0  0  0  0
 13  9  1  0  0  0  0
 14 19  1  0  0  0  0
 14 20  1  0  0  0  0
 15 14  2  0  0  0  0
 16 17  2  0  0  0  0
 16 15  1  0  0  0  0
 17 18  1  0  0  0  0
 18 22  1  0  0  0  0
 18 19  2  0  0  0  0
 21 15  1  0  0  0  0
 23  6  1  0  0  0  0
 24 26  1  0  0  0  0
 24 23  1  0  0  0  0
 25 24  2  0  0  0  0
 26 28  1  0  0  0  0
 27 26  1  0  0  0  0
M  END
>  <minimizedAffinity>
-5.03044128

>  <minimizedRMSD>
2.27627826

$$$$
