
 OpenBabel03262521013D

 33 34  0  0  1  0  0  0  0  0999 V2000
   39.6600   33.0990   46.0970 N   0  0  0  0  0  0  0  0  0  0  0  0
   38.3980   32.4290   46.0270 C   0  0  1  0  0  0  0  0  0  0  0  0
   37.8760   32.4640   44.6170 C   0  0  0  0  0  0  0  0  0  0  0  0
   38.8650   31.8000   43.7710 N   0  0  0  0  0  0  0  0  0  0  0  0
   40.0130   32.7270   43.7560 C   0  0  0  0  0  0  0  0  0  0  0  0
   40.6240   32.6420   45.1520 C   0  0  2  0  0  0  0  0  0  0  0  0
   40.0140   33.3090   47.0320 H   0  0  0  0  0  0  0  0  0  0  0  0
   37.6840   32.9050   46.7070 H   0  0  0  0  0  0  0  0  0  0  0  0
   37.6810   33.4820   44.2480 H   0  0  0  0  0  0  0  0  0  0  0  0
   36.9360   31.8540   44.6110 H   0  0  0  0  0  0  0  0  0  0  0  0
   39.1320   30.8940   44.1910 H   0  0  0  0  0  0  0  0  0  0  0  0
   39.6080   33.7390   43.5820 H   0  0  0  0  0  0  0  0  0  0  0  0
   40.7550   32.4450   43.0070 H   0  0  0  0  0  0  0  0  0  0  0  0
   41.4740   33.3600   45.1670 H   0  0  0  0  0  0  0  0  0  0  0  0
   41.0720   31.2840   45.3760 N   0  0  0  0  0  0  0  0  0  0  0  0
   41.2740   31.1830   46.4130 H   0  0  0  0  0  0  0  0  0  0  0  0
   42.0280   31.2120   44.9180 H   0  0  0  0  0  0  0  0  0  0  0  0
   38.5370   30.6520   46.4750 S   0  0  0  0  0  0  0  0  0  0  0  0
   37.8460   30.6870   50.4630 C   0  0  0  0  0  0  0  0  0  0  0  0
   38.4260   30.9610   49.2400 C   0  0  0  0  0  0  0  0  0  0  0  0
   37.9020   30.3940   48.1140 C   0  0  0  0  0  0  0  0  0  0  0  0
   36.8020   29.5590   48.2410 N   0  0  0  0  0  0  0  0  0  0  0  0
   36.2910   29.3360   49.4530 C   0  0  0  0  0  0  0  0  0  0  0  0
   36.7830   29.8790   50.5680 N   0  0  0  0  0  0  0  0  0  0  0  0
   38.2400   31.1240   51.3780 H   0  0  0  0  0  0  0  0  0  0  0  0
   39.2800   31.6110   49.1520 H   0  0  0  0  0  0  0  0  0  0  0  0
   35.1280   28.4520   49.5690 C   0  0  0  0  0  0  0  0  0  0  0  0
   35.0040   27.3780   48.9280 O   0  0  0  0  0  0  0  0  0  0  0  0
   32.7240   30.3960   51.2110 H   0  0  0  0  0  0  0  0  0  0  0  0
   33.5350   30.1270   50.5270 C   0  0  0  0  0  0  0  0  0  0  0  0
   33.9980   31.0270   49.7830 O   0  0  0  0  0  0  0  0  0  0  0  0
   34.0660   28.8190   50.4600 N   0  0  0  0  0  0  0  0  0  0  0  0
   33.6820   28.0600   51.0830 H   0  0  0  0  0  0  0  0  0  0  0  0
  1  7  1  0  0  0  0
  2  1  1  0  0  0  0
  2 18  1  0  0  0  0
  2  8  1  1  0  0  0
  3  2  1  0  0  0  0
  4 11  1  0  0  0  0
  4  3  1  0  0  0  0
  5  4  1  0  0  0  0
  5  6  1  0  0  0  0
  6 14  1  1  0  0  0
  6 15  1  0  0  0  0
  6  1  1  0  0  0  0
  9  3  1  0  0  0  0
 10  3  1  0  0  0  0
 12  5  1  0  0  0  0
 13  5  1  0  0  0  0
 15 16  1  0  0  0  0
 17 15  1  0  0  0  0
 18 21  1  0  0  0  0
 19 24  1  0  0  0  0
 19 25  1  0  0  0  0
 20 19  2  0  0  0  0
 21 22  2  0  0  0  0
 21 20  1  0  0  0  0
 22 23  1  0  0  0  0
 23 27  1  0  0  0  0
 23 24  2  0  0  0  0
 26 20  1  0  0  0  0
 27 32  1  0  0  0  0
 28 27  2  0  0  0  0
 30 29  1  0  0  0  0
 31 30  2  0  0  0  0
 32 30  1  0  0  0  0
 32 33  1  0  0  0  0
M  END
>  <minimizedAffinity>
-4.08516693

>  <minimizedRMSD>
0.647544444

$$$$
