
 OpenBabel03272505023D

 25 26  0  0  0  0  0  0  0  0999 V2000
   37.9860   30.4600   46.7270 Cl  0  0  0  0  0  0  0  0  0  0  0  0
   38.5710   31.8560   47.5930 C   0  0  0  0  0  0  0  0  0  0  0  0
   38.1910   32.0330   48.8910 C   0  0  0  0  0  0  0  0  0  0  0  0
   38.6930   33.1640   49.5200 C   0  0  0  0  0  0  0  0  0  0  0  0
   39.5300   34.0340   48.8250 C   0  0  0  0  0  0  0  0  0  0  0  0
   39.8770   33.8090   47.5320 C   0  0  0  0  0  0  0  0  0  0  0  0
   39.3830   32.6830   46.8920 C   0  0  0  0  0  0  0  0  0  0  0  0
   38.4340   33.3710   50.5550 H   0  0  0  0  0  0  0  0  0  0  0  0
   39.8900   34.8980   49.3680 H   0  0  0  0  0  0  0  0  0  0  0  0
   40.5300   34.4950   47.0010 H   0  0  0  0  0  0  0  0  0  0  0  0
   37.7840   30.3770   50.7200 C   0  0  0  0  0  0  0  0  0  0  0  0
   37.3070   31.1160   49.6320 C   0  0  0  0  0  0  0  0  0  0  0  0
   35.9740   30.9730   49.2550 C   0  0  0  0  0  0  0  0  0  0  0  0
   35.2160   30.1100   49.9830 N   0  0  0  0  0  0  0  0  0  0  0  0
   35.6760   29.4130   51.0150 C   0  0  0  0  0  0  0  0  0  0  0  0
   36.9560   29.5450   51.3840 N   0  0  0  0  0  0  0  0  0  0  0  0
   38.8320   30.5240   50.9760 H   0  0  0  0  0  0  0  0  0  0  0  0
   35.5930   31.5370   48.4160 H   0  0  0  0  0  0  0  0  0  0  0  0
   35.0510   28.7420   51.5670 H   0  0  0  0  0  0  0  0  0  0  0  0
   39.7650   32.5010   45.5760 O   0  0  0  0  0  0  0  0  0  0  0  0
   40.4170   31.3640   45.1270 C   0  0  0  0  0  0  0  0  0  0  0  0
   40.1820   30.6620   44.0850 O   0  0  0  0  0  0  0  0  0  0  0  0
   41.4890   30.9590   45.9720 N   0  0  0  0  0  0  0  0  0  0  0  0
   42.2550   30.6380   46.5790 H   0  0  0  0  0  0  0  0  0  0  0  0
   41.5600   29.9290   46.1730 H   0  0  0  0  0  0  0  0  0  0  0  0
  1  2  1  0  0  0  0
  2  3  1  0  0  0  0
  3  4  2  0  0  0  0
  3 12  1  0  0  0  0
  4  8  1  0  0  0  0
  5  9  1  0  0  0  0
  5  4  1  0  0  0  0
  6  5  2  0  0  0  0
  7  6  1  0  0  0  0
  7  2  2  0  0  0  0
 10  6  1  0  0  0  0
 11 17  1  0  0  0  0
 11 16  1  0  0  0  0
 12 11  2  0  0  0  0
 13 12  1  0  0  0  0
 13 14  2  0  0  0  0
 14 15  1  0  0  0  0
 15 16  2  0  0  0  0
 15 19  1  0  0  0  0
 18 13  1  0  0  0  0
 20  7  1  0  0  0  0
 21 20  1  0  0  0  0
 21 23  1  0  0  0  0
 22 21  2  0  0  0  0
 23 25  1  0  0  0  0
 23 24  1  0  0  0  0
M  END
>  <minimizedAffinity>
-5.87490034

>  <minimizedRMSD>
0.791179717

$$$$
