
 OpenBabel03262521013D

 33 34  0  0  1  0  0  0  0  0999 V2000
   39.8250   33.0250   45.9410 N   0  0  0  0  0  0  0  0  0  0  0  0
   38.5080   32.4740   46.0440 C   0  0  1  0  0  0  0  0  0  0  0  0
   37.9690   32.1730   44.6730 C   0  0  0  0  0  0  0  0  0  0  0  0
   38.8830   31.2210   44.0460 N   0  0  0  0  0  0  0  0  0  0  0  0
   40.1060   32.0060   43.7900 C   0  0  0  0  0  0  0  0  0  0  0  0
   40.7300   32.2480   45.1620 C   0  0  2  0  0  0  0  0  0  0  0  0
   40.2100   33.4480   46.7870 H   0  0  0  0  0  0  0  0  0  0  0  0
   37.8500   33.1770   46.5640 H   0  0  0  0  0  0  0  0  0  0  0  0
   37.8560   33.0670   44.0410 H   0  0  0  0  0  0  0  0  0  0  0  0
   36.9790   31.6690   44.8250 H   0  0  0  0  0  0  0  0  0  0  0  0
   39.0780   30.4420   44.6980 H   0  0  0  0  0  0  0  0  0  0  0  0
   39.7870   32.9640   43.3450 H   0  0  0  0  0  0  0  0  0  0  0  0
   40.8090   31.4680   43.1510 H   0  0  0  0  0  0  0  0  0  0  0  0
   41.6390   32.8650   44.9890 H   0  0  0  0  0  0  0  0  0  0  0  0
   41.0630   30.9670   45.7480 N   0  0  0  0  0  0  0  0  0  0  0  0
   41.2720   31.1320   46.7750 H   0  0  0  0  0  0  0  0  0  0  0  0
   42.0010   30.6900   45.3340 H   0  0  0  0  0  0  0  0  0  0  0  0
   38.5000   30.8790   46.9570 S   0  0  0  0  0  0  0  0  0  0  0  0
   35.7590   30.8790   49.9350 C   0  0  0  0  0  0  0  0  0  0  0  0
   36.9660   31.0090   49.2770 C   0  0  0  0  0  0  0  0  0  0  0  0
   37.0240   30.7540   47.9370 C   0  0  0  0  0  0  0  0  0  0  0  0
   35.8630   30.3710   47.2830 N   0  0  0  0  0  0  0  0  0  0  0  0
   34.7290   30.2640   47.9790 C   0  0  0  0  0  0  0  0  0  0  0  0
   34.6460   30.5080   49.2870 N   0  0  0  0  0  0  0  0  0  0  0  0
   35.6810   31.0750   51.0010 H   0  0  0  0  0  0  0  0  0  0  0  0
   37.8620   31.3070   49.7940 H   0  0  0  0  0  0  0  0  0  0  0  0
   33.5110   29.8580   47.2720 C   0  0  0  0  0  0  0  0  0  0  0  0
   33.1920   30.2850   46.1340 O   0  0  0  0  0  0  0  0  0  0  0  0
   32.3380   26.9130   48.7550 H   0  0  0  0  0  0  0  0  0  0  0  0
   33.0220   27.6190   48.2750 C   0  0  0  0  0  0  0  0  0  0  0  0
   34.1980   27.2370   48.0560 O   0  0  0  0  0  0  0  0  0  0  0  0
   32.6260   28.9230   47.9020 N   0  0  0  0  0  0  0  0  0  0  0  0
   31.6390   29.2480   48.0830 H   0  0  0  0  0  0  0  0  0  0  0  0
  1  2  1  0  0  0  0
  1  7  1  0  0  0  0
  2  8  1  1  0  0  0
  2 18  1  0  0  0  0
  3 10  1  0  0  0  0
  3  2  1  0  0  0  0
  4  3  1  0  0  0  0
  4 11  1  0  0  0  0
  5  4  1  0  0  0  0
  5  6  1  0  0  0  0
  6 14  1  6  0  0  0
  6 15  1  0  0  0  0
  6  1  1  0  0  0  0
  9  3  1  0  0  0  0
 12  5  1  0  0  0  0
 13  5  1  0  0  0  0
 15 16  1  0  0  0  0
 17 15  1  0  0  0  0
 18 21  1  0  0  0  0
 19 25  1  0  0  0  0
 20 26  1  0  0  0  0
 20 19  2  0  0  0  0
 21 20  1  0  0  0  0
 22 21  2  0  0  0  0
 22 23  1  0  0  0  0
 23 24  2  0  0  0  0
 24 19  1  0  0  0  0
 27 32  1  0  0  0  0
 27 23  1  0  0  0  0
 28 27  2  0  0  0  0
 30 29  1  0  0  0  0
 31 30  2  0  0  0  0
 32 33  1  0  0  0  0
 32 30  1  0  0  0  0
M  END
>  <minimizedAffinity>
-5.58015728

>  <minimizedRMSD>
2.51175332

$$$$
