
 OpenBabel03272503113D

 42 45  0  0  0  0  0  0  0  0999 V2000
   39.1380   31.7550   44.9160 C   0  0  0  0  0  0  0  0  0  0  0  0
   38.0180   32.3650   45.0660 O   0  0  0  0  0  0  0  0  0  0  0  0
   39.9020   31.5680   46.1050 N   0  0  0  0  0  0  0  0  0  0  0  0
   40.8030   31.0920   45.9920 H   0  0  0  0  0  0  0  0  0  0  0  0
   38.7700   31.7900   42.5450 C   0  0  0  0  0  0  0  0  0  0  0  0
   39.5330   31.3120   43.5870 C   0  0  0  0  0  0  0  0  0  0  0  0
   40.6000   30.4740   43.4160 C   0  0  0  0  0  0  0  0  0  0  0  0
   40.9460   30.0750   42.1420 C   0  0  0  0  0  0  0  0  0  0  0  0
   41.9160   29.2800   41.6610 N   0  0  0  0  0  0  0  0  0  0  0  0
   41.7860   29.2390   40.3320 C   0  0  0  0  0  0  0  0  0  0  0  0
   40.7350   30.0090   39.9660 N   0  0  0  0  0  0  0  0  0  0  0  0
   40.2010   30.5380   41.0920 C   0  0  0  0  0  0  0  0  0  0  0  0
   39.1140   31.3880   41.2410 C   0  0  0  0  0  0  0  0  0  0  0  0
   37.9110   32.4620   42.6690 H   0  0  0  0  0  0  0  0  0  0  0  0
   41.1780   30.1180   44.2580 H   0  0  0  0  0  0  0  0  0  0  0  0
   42.6520   28.7670   42.1690 H   0  0  0  0  0  0  0  0  0  0  0  0
   42.3240   28.7430   39.5390 H   0  0  0  0  0  0  0  0  0  0  0  0
   38.3480   31.8670   40.1920 O   0  0  0  0  0  0  0  0  0  0  0  0
   38.4040   33.2450   39.9160 C   0  0  0  0  0  0  0  0  0  0  0  0
   37.8890   34.2810   40.4490 O   0  0  0  0  0  0  0  0  0  0  0  0
   39.2130   33.5720   38.7890 N   0  0  0  0  0  0  0  0  0  0  0  0
   40.1260   33.0640   38.5970 H   0  0  0  0  0  0  0  0  0  0  0  0
   39.8170   33.8010   37.9700 H   0  0  0  0  0  0  0  0  0  0  0  0
   38.0640   30.1030   47.4890 F   0  0  0  0  0  0  0  0  0  0  0  0
   38.3360   31.3390   47.9660 C   0  0  0  0  0  0  0  0  0  0  0  0
   37.7080   31.8070   49.0890 C   0  0  0  0  0  0  0  0  0  0  0  0
   38.0340   33.0640   49.5130 C   0  0  0  0  0  0  0  0  0  0  0  0
   38.9480   33.8540   48.8650 C   0  0  0  0  0  0  0  0  0  0  0  0
   39.5770   33.3630   47.7260 C   0  0  0  0  0  0  0  0  0  0  0  0
   39.2630   32.0910   47.2780 C   0  0  0  0  0  0  0  0  0  0  0  0
   37.5420   33.4410   50.3990 H   0  0  0  0  0  0  0  0  0  0  0  0
   39.1530   34.8310   49.2570 H   0  0  0  0  0  0  0  0  0  0  0  0
   40.3000   34.0010   47.2240 H   0  0  0  0  0  0  0  0  0  0  0  0
   36.1020   29.3620   51.4990 C   0  0  0  0  0  0  0  0  0  0  0  0
   37.0500   30.2070   50.8850 C   0  0  0  0  0  0  0  0  0  0  0  0
   36.7410   30.9270   49.7430 C   0  0  0  0  0  0  0  0  0  0  0  0
   35.4800   30.7770   49.2470 N   0  0  0  0  0  0  0  0  0  0  0  0
   34.5730   29.9740   49.8280 C   0  0  0  0  0  0  0  0  0  0  0  0
   34.8830   29.2850   50.9280 N   0  0  0  0  0  0  0  0  0  0  0  0
   36.4020   28.8200   52.3960 H   0  0  0  0  0  0  0  0  0  0  0  0
   38.0580   30.3170   51.2940 H   0  0  0  0  0  0  0  0  0  0  0  0
   33.5780   29.8990   49.3780 H   0  0  0  0  0  0  0  0  0  0  0  0
  1  2  2  0  0  0  0
  1  3  1  0  0  0  0
  3 30  1  0  0  0  0
  4  3  1  0  0  0  0
  5 14  1  0  0  0  0
  5  6  1  0  0  0  0
  6  1  1  0  0  0  0
  7  6  2  0  0  0  0
  7 15  1  0  0  0  0
  8  7  1  0  0  0  0
  9  8  1  0  0  0  0
  9 16  1  0  0  0  0
 10  9  1  0  0  0  0
 11 10  2  0  0  0  0
 11 12  1  0  0  0  0
 12 13  1  0  0  0  0
 12  8  2  0  0  0  0
 13  5  2  0  0  0  0
 17 10  1  0  0  0  0
 18 13  1  0  0  0  0
 19 18  1  0  0  0  0
 19 20  2  0  0  0  0
 21 19  1  0  0  0  0
 22 21  1  0  0  0  0
 23 21  1  0  0  0  0
 24 25  1  0  0  0  0
 25 26  1  0  0  0  0
 26 27  2  0  0  0  0
 26 36  1  0  0  0  0
 27 31  1  0  0  0  0
 28 32  1  0  0  0  0
 28 27  1  0  0  0  0
 29 28  2  0  0  0  0
 30 29  1  0  0  0  0
 30 25  2  0  0  0  0
 33 29  1  0  0  0  0
 34 40  1  0  0  0  0
 35 41  1  0  0  0  0
 35 34  2  0  0  0  0
 36 35  1  0  0  0  0
 37 36  2  0  0  0  0
 37 38  1  0  0  0  0
 38 39  2  0  0  0  0
 39 34  1  0  0  0  0
 42 38  1  0  0  0  0
M  END
>  <minimizedAffinity>
-6.98934746

>  <minimizedRMSD>
0.600741327

$$$$
