
 OpenBabel03262521013D

 33 34  0  0  1  0  0  0  0  0999 V2000
   39.2780   33.2660   44.9740 N   0  0  0  0  0  0  0  0  0  0  0  0
   38.0760   32.4930   45.0510 C   0  0  1  0  0  0  0  0  0  0  0  0
   37.5370   32.2440   43.6700 C   0  0  0  0  0  0  0  0  0  0  0  0
   38.5690   31.5280   42.9240 N   0  0  0  0  0  0  0  0  0  0  0  0
   39.6340   32.5300   42.7220 C   0  0  0  0  0  0  0  0  0  0  0  0
   40.2660   32.7350   44.0960 C   0  0  2  0  0  0  0  0  0  0  0  0
   39.6240   33.6610   45.8510 H   0  0  0  0  0  0  0  0  0  0  0  0
   37.3330   33.0190   45.6590 H   0  0  0  0  0  0  0  0  0  0  0  0
   37.2520   33.1640   43.1390 H   0  0  0  0  0  0  0  0  0  0  0  0
   36.6520   31.5670   43.7920 H   0  0  0  0  0  0  0  0  0  0  0  0
   38.9170   30.7320   43.4840 H   0  0  0  0  0  0  0  0  0  0  0  0
   39.1420   33.4600   42.3890 H   0  0  0  0  0  0  0  0  0  0  0  0
   40.3880   32.1850   42.0120 H   0  0  0  0  0  0  0  0  0  0  0  0
   41.0520   33.5110   43.9660 H   0  0  0  0  0  0  0  0  0  0  0  0
   40.8300   31.4760   44.5350 N   0  0  0  0  0  0  0  0  0  0  0  0
   41.0520   31.5710   45.5680 H   0  0  0  0  0  0  0  0  0  0  0  0
   41.7830   31.4060   44.0710 H   0  0  0  0  0  0  0  0  0  0  0  0
   38.3710   30.8360   45.7910 S   0  0  0  0  0  0  0  0  0  0  0  0
   38.2830   31.7220   49.7390 C   0  0  0  0  0  0  0  0  0  0  0  0
   38.6170   31.7750   48.4000 C   0  0  0  0  0  0  0  0  0  0  0  0
   38.0410   30.8890   47.5350 C   0  0  0  0  0  0  0  0  0  0  0  0
   37.1380   29.9650   48.0360 N   0  0  0  0  0  0  0  0  0  0  0  0
   36.8590   29.9670   49.3400 C   0  0  0  0  0  0  0  0  0  0  0  0
   37.4070   30.8220   50.2060 N   0  0  0  0  0  0  0  0  0  0  0  0
   38.7250   32.4130   50.4530 H   0  0  0  0  0  0  0  0  0  0  0  0
   39.3200   32.4970   48.0220 H   0  0  0  0  0  0  0  0  0  0  0  0
   35.9010   28.9830   49.8520 C   0  0  0  0  0  0  0  0  0  0  0  0
   35.4640   28.0200   49.1750 O   0  0  0  0  0  0  0  0  0  0  0  0
   33.7870   29.6810   52.5520 H   0  0  0  0  0  0  0  0  0  0  0  0
   34.1370   29.5850   51.5210 C   0  0  0  0  0  0  0  0  0  0  0  0
   33.3450   29.9120   50.6010 O   0  0  0  0  0  0  0  0  0  0  0  0
   35.4300   29.1140   51.2000 N   0  0  0  0  0  0  0  0  0  0  0  0
   36.0970   28.8380   51.9680 H   0  0  0  0  0  0  0  0  0  0  0  0
  1  2  1  0  0  0  0
  1  7  1  0  0  0  0
  2  8  1  1  0  0  0
  2 18  1  0  0  0  0
  3 10  1  0  0  0  0
  3  2  1  0  0  0  0
  4 11  1  0  0  0  0
  4  3  1  0  0  0  0
  5  4  1  0  0  0  0
  5  6  1  0  0  0  0
  6 14  1  6  0  0  0
  6 15  1  0  0  0  0
  6  1  1  0  0  0  0
  9  3  1  0  0  0  0
 12  5  1  0  0  0  0
 13  5  1  0  0  0  0
 15 16  1  0  0  0  0
 17 15  1  0  0  0  0
 18 21  1  0  0  0  0
 19 24  1  0  0  0  0
 19 25  1  0  0  0  0
 20 19  2  0  0  0  0
 21 22  2  0  0  0  0
 21 20  1  0  0  0  0
 22 23  1  0  0  0  0
 23 27  1  0  0  0  0
 23 24  2  0  0  0  0
 26 20  1  0  0  0  0
 27 32  1  0  0  0  0
 28 27  2  0  0  0  0
 30 29  1  0  0  0  0
 31 30  2  0  0  0  0
 32 30  1  0  0  0  0
 32 33  1  0  0  0  0
M  END
>  <minimizedAffinity>
-4.33958006

>  <minimizedRMSD>
1.15598083

$$$$
