
 OpenBabel03272510243D

 28 30  0  0  0  0  0  0  0  0999 V2000
   35.2430   29.7930   47.1060 C   0  0  0  0  0  0  0  0  0  0  0  0
   36.4110   30.2920   47.6450 C   0  0  0  0  0  0  0  0  0  0  0  0
   37.3280   30.9180   46.8320 C   0  0  0  0  0  0  0  0  0  0  0  0
   37.0250   31.0190   45.4780 C   0  0  0  0  0  0  0  0  0  0  0  0
   37.7850   31.5970   44.4850 N   0  0  0  0  0  0  0  0  0  0  0  0
   37.0880   31.4510   43.3630 C   0  0  0  0  0  0  0  0  0  0  0  0
   35.9360   30.8180   43.5810 N   0  0  0  0  0  0  0  0  0  0  0  0
   35.8740   30.5340   44.9040 C   0  0  0  0  0  0  0  0  0  0  0  0
   34.9640   29.9080   45.7450 C   0  0  0  0  0  0  0  0  0  0  0  0
   34.4840   29.2970   47.6660 H   0  0  0  0  0  0  0  0  0  0  0  0
   38.2360   31.3080   47.2410 H   0  0  0  0  0  0  0  0  0  0  0  0
   38.7310   32.0520   44.6510 H   0  0  0  0  0  0  0  0  0  0  0  0
   34.0630   29.5300   45.2950 H   0  0  0  0  0  0  0  0  0  0  0  0
   37.8330   30.3720   51.1220 C   0  0  0  0  0  0  0  0  0  0  0  0
   37.7490   30.5900   49.7490 C   0  0  0  0  0  0  0  0  0  0  0  0
   36.6230   30.1310   49.0710 C   0  0  0  0  0  0  0  0  0  0  0  0
   35.6500   29.4860   49.7870 N   0  0  0  0  0  0  0  0  0  0  0  0
   35.7620   29.2890   51.1260 C   0  0  0  0  0  0  0  0  0  0  0  0
   36.8330   29.7240   51.7740 N   0  0  0  0  0  0  0  0  0  0  0  0
   38.7030   30.7280   51.6390 H   0  0  0  0  0  0  0  0  0  0  0  0
   38.5130   31.0970   49.1870 H   0  0  0  0  0  0  0  0  0  0  0  0
   34.9660   28.7760   51.6340 H   0  0  0  0  0  0  0  0  0  0  0  0
   37.6040   31.9440   42.1660 O   0  0  0  0  0  0  0  0  0  0  0  0
   38.4790   32.9840   42.0390 C   0  0  0  0  0  0  0  0  0  0  0  0
   39.4890   33.5120   42.6030 O   0  0  0  0  0  0  0  0  0  0  0  0
   38.1580   33.7530   40.8640 N   0  0  0  0  0  0  0  0  0  0  0  0
   37.8320   34.4720   40.2110 H   0  0  0  0  0  0  0  0  0  0  0  0
   38.4530   33.2630   39.9880 H   0  0  0  0  0  0  0  0  0  0  0  0
  1  2  1  0  0  0  0
  1 10  1  0  0  0  0
  2 16  1  0  0  0  0
  3 11  1  0  0  0  0
  3  2  2  0  0  0  0
  4  3  1  0  0  0  0
  5 12  1  0  0  0  0
  5  4  1  0  0  0  0
  6  7  2  0  0  0  0
  6  5  1  0  0  0  0
  7  8  1  0  0  0  0
  8  4  2  0  0  0  0
  8  9  1  0  0  0  0
  9  1  2  0  0  0  0
 13  9  1  0  0  0  0
 14 20  1  0  0  0  0
 14 19  1  0  0  0  0
 15 14  2  0  0  0  0
 16 15  1  0  0  0  0
 16 17  2  0  0  0  0
 17 18  1  0  0  0  0
 18 22  1  0  0  0  0
 18 19  2  0  0  0  0
 21 15  1  0  0  0  0
 23  6  1  0  0  0  0
 24 23  1  0  0  0  0
 24 25  2  0  0  0  0
 26 24  1  0  0  0  0
 27 26  1  0  0  0  0
 28 26  1  0  0  0  0
M  END
>  <minimizedAffinity>
-4.67757893

>  <minimizedRMSD>
2.59575725

$$$$
