
 OpenBabel03272502263D

 26 27  0  0  0  0  0  0  0  0999 V2000
   36.6290   28.0760   33.7610 C   0  0  0  0  0  0  0  0  0  0  0  0
   37.2680   27.2210   34.6730 C   0  0  0  0  0  0  0  0  0  0  0  0
   37.5070   25.9020   34.2690 C   0  0  0  0  0  0  0  0  0  0  0  0
   37.1070   25.5460   33.0360 N   0  0  0  0  0  0  0  0  0  0  0  0
   36.4930   26.3890   32.1770 C   0  0  0  0  0  0  0  0  0  0  0  0
   36.2550   27.6670   32.5530 N   0  0  0  0  0  0  0  0  0  0  0  0
   36.4590   29.0870   34.1040 H   0  0  0  0  0  0  0  0  0  0  0  0
   37.5790   27.5260   35.6540 H   0  0  0  0  0  0  0  0  0  0  0  0
   38.1590   24.9230   35.1100 C   0  0  0  0  0  0  0  0  0  0  0  0
   39.0750   24.0220   34.5720 C   0  0  0  0  0  0  0  0  0  0  0  0
   39.7210   23.0730   35.3440 C   0  0  0  0  0  0  0  0  0  0  0  0
   39.4530   23.0130   36.6760 N   0  0  0  0  0  0  0  0  0  0  0  0
   38.5790   23.8800   37.1620 C   0  0  0  0  0  0  0  0  0  0  0  0
   37.9360   24.8160   36.4330 N   0  0  0  0  0  0  0  0  0  0  0  0
   39.3240   24.0280   33.5130 H   0  0  0  0  0  0  0  0  0  0  0  0
   40.4370   22.3640   34.9440 H   0  0  0  0  0  0  0  0  0  0  0  0
   38.2710   23.8350   38.6100 C   0  0  0  0  0  0  0  0  0  0  0  0
   37.3240   22.8190   38.8230 F   0  0  0  0  0  0  0  0  0  0  0  0
   39.3920   23.5910   39.3650 F   0  0  0  0  0  0  0  0  0  0  0  0
   37.6680   24.9900   39.0530 F   0  0  0  0  0  0  0  0  0  0  0  0
   36.1480   25.8560   30.9430 O   0  0  0  0  0  0  0  0  0  0  0  0
   35.4330   24.6630   30.9340 C   0  0  0  0  0  0  0  0  0  0  0  0
   34.4190   25.3020   30.5950 O   0  0  0  0  0  0  0  0  0  0  0  0
   35.8700   23.3280   31.2300 N   0  0  0  0  0  0  0  0  0  0  0  0
   35.0340   22.7100   31.3780 H   0  0  0  0  0  0  0  0  0  0  0  0
   36.9260   23.3250   31.2210 H   0  0  0  0  0  0  0  0  0  0  0  0
  1  7  1  0  0  0  0
  1  2  1  0  0  0  0
  2  8  1  0  0  0  0
  3  2  2  0  0  0  0
  3  9  1  0  0  0  0
  4  3  1  0  0  0  0
  5  6  1  0  0  0  0
  5  4  2  0  0  0  0
  6  1  2  0  0  0  0
  9 14  1  0  0  0  0
 10  9  2  0  0  0  0
 10 11  1  0  0  0  0
 11 12  2  0  0  0  0
 12 13  1  0  0  0  0
 13 17  1  0  0  0  0
 14 13  2  0  0  0  0
 15 10  1  0  0  0  0
 16 11  1  0  0  0  0
 17 18  1  0  0  0  0
 17 20  1  0  0  0  0
 17 19  1  0  0  0  0
 21  5  1  0  0  0  0
 22 21  1  0  0  0  0
 22 24  1  0  0  0  0
 23 22  2  0  0  0  0
 24 25  1  0  0  0  0
 26 24  1  0  0  0  0
M  END
>  <minimizedAffinity>
-5.57214355

$$$$

 OpenBabel03272502263D

 26 27  0  0  0  0  0  0  0  0999 V2000
   37.2030   27.4410   34.1830 C   0  0  0  0  0  0  0  0  0  0  0  0
   37.6840   26.7450   35.3040 C   0  0  0  0  0  0  0  0  0  0  0  0
   37.9540   25.3810   35.1540 C   0  0  0  0  0  0  0  0  0  0  0  0
   37.7350   24.8310   33.9470 N   0  0  0  0  0  0  0  0  0  0  0  0
   37.2710   25.5220   32.8840 C   0  0  0  0  0  0  0  0  0  0  0  0
   37.0050   26.8430   33.0130 N   0  0  0  0  0  0  0  0  0  0  0  0
   37.0040   28.4930   34.3320 H   0  0  0  0  0  0  0  0  0  0  0  0
   37.8520   27.2040   36.2590 H   0  0  0  0  0  0  0  0  0  0  0  0
   38.4560   24.5500   36.2270 C   0  0  0  0  0  0  0  0  0  0  0  0
   37.7990   24.4990   37.4530 C   0  0  0  0  0  0  0  0  0  0  0  0
   38.2470   23.7160   38.5020 C   0  0  0  0  0  0  0  0  0  0  0  0
   39.3690   22.9680   38.3330 N   0  0  0  0  0  0  0  0  0  0  0  0
   39.9760   23.0340   37.1580 C   0  0  0  0  0  0  0  0  0  0  0  0
   39.5600   23.7880   36.1200 N   0  0  0  0  0  0  0  0  0  0  0  0
   36.8970   25.0790   37.6400 H   0  0  0  0  0  0  0  0  0  0  0  0
   37.7480   23.6630   39.4640 H   0  0  0  0  0  0  0  0  0  0  0  0
   41.2010   22.2280   36.9500 C   0  0  0  0  0  0  0  0  0  0  0  0
   42.2940   23.1080   36.8750 F   0  0  0  0  0  0  0  0  0  0  0  0
   41.3990   21.3250   37.9650 F   0  0  0  0  0  0  0  0  0  0  0  0
   41.1900   21.5620   35.7460 F   0  0  0  0  0  0  0  0  0  0  0  0
   37.1020   24.7980   31.7120 O   0  0  0  0  0  0  0  0  0  0  0  0
   35.8690   24.8850   31.0750 C   0  0  0  0  0  0  0  0  0  0  0  0
   35.6250   23.7200   31.4420 O   0  0  0  0  0  0  0  0  0  0  0  0
   35.2900   25.9730   30.3380 N   0  0  0  0  0  0  0  0  0  0  0  0
   34.4720   25.6230   29.7790 H   0  0  0  0  0  0  0  0  0  0  0  0
   35.8470   26.8420   30.5570 H   0  0  0  0  0  0  0  0  0  0  0  0
  1  7  1  0  0  0  0
  1  2  1  0  0  0  0
  2  8  1  0  0  0  0
  3  2  2  0  0  0  0
  3  9  1  0  0  0  0
  4  3  1  0  0  0  0
  5  6  1  0  0  0  0
  5  4  2  0  0  0  0
  6  1  2  0  0  0  0
  9 10  1  0  0  0  0
 10 15  1  0  0  0  0
 10 11  2  0  0  0  0
 11 16  1  0  0  0  0
 12 11  1  0  0  0  0
 13 12  2  0  0  0  0
 14  9  2  0  0  0  0
 14 13  1  0  0  0  0
 17 13  1  0  0  0  0
 17 19  1  0  0  0  0
 18 17  1  0  0  0  0
 20 17  1  0  0  0  0
 21  5  1  0  0  0  0
 22 23  2  0  0  0  0
 22 21  1  0  0  0  0
 24 26  1  0  0  0  0
 24 22  1  0  0  0  0
 25 24  1  0  0  0  0
M  END
>  <minimizedAffinity>
-5.41452169

$$$$

 OpenBabel03272502263D

 26 27  0  0  0  0  0  0  0  0999 V2000
   36.5880   28.0690   33.8450 C   0  0  0  0  0  0  0  0  0  0  0  0
   36.9090   27.0090   34.7080 C   0  0  0  0  0  0  0  0  0  0  0  0
   37.8370   26.0640   34.2580 C   0  0  0  0  0  0  0  0  0  0  0  0
   38.3570   26.2360   33.0300 N   0  0  0  0  0  0  0  0  0  0  0  0
   38.0310   27.2640   32.2180 C   0  0  0  0  0  0  0  0  0  0  0  0
   37.1350   28.1880   32.6390 N   0  0  0  0  0  0  0  0  0  0  0  0
   35.8680   28.7820   34.2220 H   0  0  0  0  0  0  0  0  0  0  0  0
   36.4830   26.8920   35.6860 H   0  0  0  0  0  0  0  0  0  0  0  0
   38.2570   24.9280   35.0490 C   0  0  0  0  0  0  0  0  0  0  0  0
   38.8730   23.8330   34.4500 C   0  0  0  0  0  0  0  0  0  0  0  0
   39.2900   22.7300   35.1730 C   0  0  0  0  0  0  0  0  0  0  0  0
   39.0930   22.7100   36.5170 N   0  0  0  0  0  0  0  0  0  0  0  0
   38.5050   23.7630   37.0640 C   0  0  0  0  0  0  0  0  0  0  0  0
   38.0900   24.8510   36.3830 N   0  0  0  0  0  0  0  0  0  0  0  0
   39.0540   23.7990   33.3770 H   0  0  0  0  0  0  0  0  0  0  0  0
   39.7720   21.8680   34.7230 H   0  0  0  0  0  0  0  0  0  0  0  0
   38.2790   23.7650   38.5270 C   0  0  0  0  0  0  0  0  0  0  0  0
   37.8540   25.0500   38.9010 F   0  0  0  0  0  0  0  0  0  0  0  0
   37.3400   22.8370   38.9020 F   0  0  0  0  0  0  0  0  0  0  0  0
   39.4390   23.5480   39.2350 F   0  0  0  0  0  0  0  0  0  0  0  0
   38.6620   27.2890   30.9830 O   0  0  0  0  0  0  0  0  0  0  0  0
   38.0550   28.0180   29.9650 C   0  0  0  0  0  0  0  0  0  0  0  0
   39.1580   28.5390   29.7140 O   0  0  0  0  0  0  0  0  0  0  0  0
   36.6870   28.0260   29.5310 N   0  0  0  0  0  0  0  0  0  0  0  0
   36.5160   28.8640   28.9210 H   0  0  0  0  0  0  0  0  0  0  0  0
   36.2120   27.1790   29.9450 H   0  0  0  0  0  0  0  0  0  0  0  0
  1  7  1  0  0  0  0
  1  2  1  0  0  0  0
  2  8  1  0  0  0  0
  3  2  2  0  0  0  0
  3  9  1  0  0  0  0
  4  3  1  0  0  0  0
  5  6  1  0  0  0  0
  5  4  2  0  0  0  0
  6  1  2  0  0  0  0
  9 14  1  0  0  0  0
 10  9  2  0  0  0  0
 10 11  1  0  0  0  0
 11 12  2  0  0  0  0
 12 13  1  0  0  0  0
 13 17  1  0  0  0  0
 14 13  2  0  0  0  0
 15 10  1  0  0  0  0
 16 11  1  0  0  0  0
 17 18  1  0  0  0  0
 17 19  1  0  0  0  0
 17 20  1  0  0  0  0
 21  5  1  0  0  0  0
 22 21  1  0  0  0  0
 23 22  2  0  0  0  0
 24 26  1  0  0  0  0
 24 22  1  0  0  0  0
 25 24  1  0  0  0  0
M  END
>  <minimizedAffinity>
-5.36991739

$$$$

 OpenBabel03272502263D

 26 27  0  0  0  0  0  0  0  0999 V2000
   39.6000   24.5760   34.4430 C   0  0  0  0  0  0  0  0  0  0  0  0
   38.9290   25.6270   33.7970 C   0  0  0  0  0  0  0  0  0  0  0  0
   37.7750   26.1320   34.4060 C   0  0  0  0  0  0  0  0  0  0  0  0
   37.3890   25.5770   35.5670 N   0  0  0  0  0  0  0  0  0  0  0  0
   38.0520   24.5650   36.1690 C   0  0  0  0  0  0  0  0  0  0  0  0
   39.1710   24.0650   35.5930 N   0  0  0  0  0  0  0  0  0  0  0  0
   40.4870   24.2080   33.9460 H   0  0  0  0  0  0  0  0  0  0  0  0
   39.2550   26.0560   32.8690 H   0  0  0  0  0  0  0  0  0  0  0  0
   36.9950   27.2140   33.8470 C   0  0  0  0  0  0  0  0  0  0  0  0
   36.5810   27.1800   32.5190 C   0  0  0  0  0  0  0  0  0  0  0  0
   35.8320   28.1950   31.9500 C   0  0  0  0  0  0  0  0  0  0  0  0
   35.4850   29.2650   32.7120 N   0  0  0  0  0  0  0  0  0  0  0  0
   35.8910   29.2740   33.9730 C   0  0  0  0  0  0  0  0  0  0  0  0
   36.6210   28.2990   34.5520 N   0  0  0  0  0  0  0  0  0  0  0  0
   36.8320   26.3460   31.8650 H   0  0  0  0  0  0  0  0  0  0  0  0
   35.5000   28.1850   30.9170 H   0  0  0  0  0  0  0  0  0  0  0  0
   35.5260   30.4300   34.8230 C   0  0  0  0  0  0  0  0  0  0  0  0
   35.6320   31.5940   34.0450 F   0  0  0  0  0  0  0  0  0  0  0  0
   34.2510   30.3180   35.3210 F   0  0  0  0  0  0  0  0  0  0  0  0
   36.4060   30.6100   35.8650 F   0  0  0  0  0  0  0  0  0  0  0  0
   37.5150   24.1110   37.3650 O   0  0  0  0  0  0  0  0  0  0  0  0
   38.4020   23.7870   38.3870 C   0  0  0  0  0  0  0  0  0  0  0  0
   38.0060   24.7880   39.0130 O   0  0  0  0  0  0  0  0  0  0  0  0
   39.3240   22.6920   38.4900 N   0  0  0  0  0  0  0  0  0  0  0  0
   40.0130   22.8840   39.2590 H   0  0  0  0  0  0  0  0  0  0  0  0
   39.0610   21.9790   37.7570 H   0  0  0  0  0  0  0  0  0  0  0  0
  1  6  1  0  0  0  0
  2  3  1  0  0  0  0
  2  1  2  0  0  0  0
  3  4  2  0  0  0  0
  4  5  1  0  0  0  0
  5 21  1  0  0  0  0
  6  5  2  0  0  0  0
  7  1  1  0  0  0  0
  8  2  1  0  0  0  0
  9  3  1  0  0  0  0
  9 14  1  0  0  0  0
 10  9  2  0  0  0  0
 11 10  1  0  0  0  0
 11 12  2  0  0  0  0
 12 13  1  0  0  0  0
 13 14  2  0  0  0  0
 13 17  1  0  0  0  0
 15 10  1  0  0  0  0
 16 11  1  0  0  0  0
 17 19  1  0  0  0  0
 17 20  1  0  0  0  0
 18 17  1  0  0  0  0
 21 22  1  0  0  0  0
 22 24  1  0  0  0  0
 22 23  2  0  0  0  0
 24 25  1  0  0  0  0
 26 24  1  0  0  0  0
M  END
>  <minimizedAffinity>
-5.3618927

$$$$

 OpenBabel03272502263D

 26 27  0  0  0  0  0  0  0  0999 V2000
   36.6460   23.7310   31.5030 C   0  0  0  0  0  0  0  0  0  0  0  0
   37.3540   23.1750   32.5810 C   0  0  0  0  0  0  0  0  0  0  0  0
   37.8000   24.0450   33.5820 C   0  0  0  0  0  0  0  0  0  0  0  0
   37.5190   25.3520   33.4430 N   0  0  0  0  0  0  0  0  0  0  0  0
   36.8350   25.8630   32.3950 C   0  0  0  0  0  0  0  0  0  0  0  0
   36.3970   25.0340   31.4180 N   0  0  0  0  0  0  0  0  0  0  0  0
   36.3160   23.0320   30.7470 H   0  0  0  0  0  0  0  0  0  0  0  0
   37.5670   22.1280   32.6730 H   0  0  0  0  0  0  0  0  0  0  0  0
   38.5360   23.6020   34.7460 C   0  0  0  0  0  0  0  0  0  0  0  0
   39.7240   22.8900   34.6070 C   0  0  0  0  0  0  0  0  0  0  0  0
   40.4570   22.4510   35.6950 C   0  0  0  0  0  0  0  0  0  0  0  0
   40.0040   22.7240   36.9470 N   0  0  0  0  0  0  0  0  0  0  0  0
   38.8720   23.4030   37.0530 C   0  0  0  0  0  0  0  0  0  0  0  0
   38.1390   23.8420   36.0100 N   0  0  0  0  0  0  0  0  0  0  0  0
   40.1300   22.6450   33.6260 H   0  0  0  0  0  0  0  0  0  0  0  0
   41.3840   21.8950   35.6060 H   0  0  0  0  0  0  0  0  0  0  0  0
   38.3580   23.7110   38.4070 C   0  0  0  0  0  0  0  0  0  0  0  0
   37.9500   25.0550   38.4230 F   0  0  0  0  0  0  0  0  0  0  0  0
   37.3050   22.9010   38.7540 F   0  0  0  0  0  0  0  0  0  0  0  0
   39.3370   23.6200   39.3710 F   0  0  0  0  0  0  0  0  0  0  0  0
   36.6330   27.2350   32.4090 O   0  0  0  0  0  0  0  0  0  0  0  0
   36.1010   27.8190   31.2650 C   0  0  0  0  0  0  0  0  0  0  0  0
   35.2970   28.4400   31.9850 O   0  0  0  0  0  0  0  0  0  0  0  0
   36.4700   27.6450   29.8880 N   0  0  0  0  0  0  0  0  0  0  0  0
   35.7120   28.0270   29.2700 H   0  0  0  0  0  0  0  0  0  0  0  0
   37.4140   27.1730   29.8650 H   0  0  0  0  0  0  0  0  0  0  0  0
  1  2  1  0  0  0  0
  2  8  1  0  0  0  0
  2  3  2  0  0  0  0
  3  9  1  0  0  0  0
  4  3  1  0  0  0  0
  5 21  1  0  0  0  0
  5  4  2  0  0  0  0
  6  1  2  0  0  0  0
  6  5  1  0  0  0  0
  7  1  1  0  0  0  0
  9 14  1  0  0  0  0
 10  9  2  0  0  0  0
 10 11  1  0  0  0  0
 11 12  2  0  0  0  0
 12 13  1  0  0  0  0
 13 17  1  0  0  0  0
 14 13  2  0  0  0  0
 15 10  1  0  0  0  0
 16 11  1  0  0  0  0
 17 18  1  0  0  0  0
 17 19  1  0  0  0  0
 17 20  1  0  0  0  0
 22 23  2  0  0  0  0
 22 21  1  0  0  0  0
 24 22  1  0  0  0  0
 25 24  1  0  0  0  0
 26 24  1  0  0  0  0
M  END
>  <minimizedAffinity>
-5.33585453

$$$$

 OpenBabel03272502263D

 26 27  0  0  0  0  0  0  0  0999 V2000
   36.5890   23.1650   31.6910 C   0  0  0  0  0  0  0  0  0  0  0  0
   37.4920   23.3850   32.7440 C   0  0  0  0  0  0  0  0  0  0  0  0
   37.5310   22.4400   33.7750 C   0  0  0  0  0  0  0  0  0  0  0  0
   36.7000   21.3870   33.6860 N   0  0  0  0  0  0  0  0  0  0  0  0
   35.8390   21.1980   32.6620 C   0  0  0  0  0  0  0  0  0  0  0  0
   35.7900   22.1040   31.6570 N   0  0  0  0  0  0  0  0  0  0  0  0
   36.5840   23.9140   30.9110 H   0  0  0  0  0  0  0  0  0  0  0  0
   38.1470   24.2340   32.7950 H   0  0  0  0  0  0  0  0  0  0  0  0
   38.4160   22.5460   34.9130 C   0  0  0  0  0  0  0  0  0  0  0  0
   39.7410   22.1280   34.8240 C   0  0  0  0  0  0  0  0  0  0  0  0
   40.6190   22.2150   35.8910 C   0  0  0  0  0  0  0  0  0  0  0  0
   40.1750   22.7250   37.0690 N   0  0  0  0  0  0  0  0  0  0  0  0
   38.9110   23.1150   37.1290 C   0  0  0  0  0  0  0  0  0  0  0  0
   38.0350   23.0420   36.1050 N   0  0  0  0  0  0  0  0  0  0  0  0
   40.1460   21.7120   33.9030 H   0  0  0  0  0  0  0  0  0  0  0  0
   41.6540   21.8950   35.8400 H   0  0  0  0  0  0  0  0  0  0  0  0
   38.4040   23.6750   38.4020 C   0  0  0  0  0  0  0  0  0  0  0  0
   37.3240   22.8830   38.8270 F   0  0  0  0  0  0  0  0  0  0  0  0
   39.3740   23.6990   39.3740 F   0  0  0  0  0  0  0  0  0  0  0  0
   37.8850   24.9400   38.2480 F   0  0  0  0  0  0  0  0  0  0  0  0
   35.0530   20.0560   32.7290 O   0  0  0  0  0  0  0  0  0  0  0  0
   35.4520   18.9560   31.9780 C   0  0  0  0  0  0  0  0  0  0  0  0
   35.1730   18.2250   32.9470 O   0  0  0  0  0  0  0  0  0  0  0  0
   35.9580   18.8940   30.6360 N   0  0  0  0  0  0  0  0  0  0  0  0
   36.3980   17.9550   30.4690 H   0  0  0  0  0  0  0  0  0  0  0  0
   35.7510   19.8190   30.1700 H   0  0  0  0  0  0  0  0  0  0  0  0
  1  2  1  0  0  0  0
  2  8  1  0  0  0  0
  2  3  2  0  0  0  0
  3  9  1  0  0  0  0
  4  3  1  0  0  0  0
  5 21  1  0  0  0  0
  5  4  2  0  0  0  0
  6  1  2  0  0  0  0
  6  5  1  0  0  0  0
  7  1  1  0  0  0  0
  9 14  1  0  0  0  0
 10  9  2  0  0  0  0
 10 11  1  0  0  0  0
 11 12  2  0  0  0  0
 12 13  1  0  0  0  0
 13 17  1  0  0  0  0
 14 13  2  0  0  0  0
 15 10  1  0  0  0  0
 16 11  1  0  0  0  0
 17 18  1  0  0  0  0
 17 19  1  0  0  0  0
 20 17  1  0  0  0  0
 22 21  1  0  0  0  0
 22 23  2  0  0  0  0
 24 22  1  0  0  0  0
 25 24  1  0  0  0  0
 26 24  1  0  0  0  0
M  END
>  <minimizedAffinity>
-5.32643223

$$$$

 OpenBabel03272502263D

 26 27  0  0  0  0  0  0  0  0999 V2000
   35.4550   20.8330   32.7290 C   0  0  0  0  0  0  0  0  0  0  0  0
   36.3770   20.9620   33.7800 C   0  0  0  0  0  0  0  0  0  0  0  0
   37.1880   22.1030   33.7960 C   0  0  0  0  0  0  0  0  0  0  0  0
   37.0280   22.9950   32.8040 N   0  0  0  0  0  0  0  0  0  0  0  0
   36.1330   22.8470   31.8020 C   0  0  0  0  0  0  0  0  0  0  0  0
   35.3420   21.7500   31.7730 N   0  0  0  0  0  0  0  0  0  0  0  0
   34.8450   19.9410   32.7450 H   0  0  0  0  0  0  0  0  0  0  0  0
   36.4890   20.2370   34.5630 H   0  0  0  0  0  0  0  0  0  0  0  0
   38.1740   22.3590   34.8230 C   0  0  0  0  0  0  0  0  0  0  0  0
   39.5210   22.0910   34.5970 C   0  0  0  0  0  0  0  0  0  0  0  0
   40.4930   22.3250   35.5540 C   0  0  0  0  0  0  0  0  0  0  0  0
   40.1240   22.8340   36.7580 N   0  0  0  0  0  0  0  0  0  0  0  0
   38.8370   23.0800   36.9480 C   0  0  0  0  0  0  0  0  0  0  0  0
   37.8690   22.8620   36.0340 N   0  0  0  0  0  0  0  0  0  0  0  0
   39.8700   21.6830   33.6500 H   0  0  0  0  0  0  0  0  0  0  0  0
   41.5480   22.1220   35.3960 H   0  0  0  0  0  0  0  0  0  0  0  0
   38.4090   23.6340   38.2530 C   0  0  0  0  0  0  0  0  0  0  0  0
   37.3040   22.8920   38.7010 F   0  0  0  0  0  0  0  0  0  0  0  0
   39.4150   23.5810   39.1870 F   0  0  0  0  0  0  0  0  0  0  0  0
   37.9560   24.9290   38.1470 F   0  0  0  0  0  0  0  0  0  0  0  0
   36.1000   23.8650   30.8600 O   0  0  0  0  0  0  0  0  0  0  0  0
   35.7990   25.1470   31.3070 C   0  0  0  0  0  0  0  0  0  0  0  0
   34.7550   25.1110   30.6280 O   0  0  0  0  0  0  0  0  0  0  0  0
   36.5290   26.0050   32.1960 N   0  0  0  0  0  0  0  0  0  0  0  0
   36.1610   26.9850   32.1200 H   0  0  0  0  0  0  0  0  0  0  0  0
   37.2500   25.4150   32.6930 H   0  0  0  0  0  0  0  0  0  0  0  0
  1  7  1  0  0  0  0
  1  2  1  0  0  0  0
  2  3  2  0  0  0  0
  2  8  1  0  0  0  0
  3  9  1  0  0  0  0
  4  3  1  0  0  0  0
  5  4  2  0  0  0  0
  6  5  1  0  0  0  0
  6  1  2  0  0  0  0
  9 14  1  0  0  0  0
 10  9  2  0  0  0  0
 10 11  1  0  0  0  0
 11 12  2  0  0  0  0
 12 13  1  0  0  0  0
 13 17  1  0  0  0  0
 14 13  2  0  0  0  0
 15 10  1  0  0  0  0
 16 11  1  0  0  0  0
 17 18  1  0  0  0  0
 17 19  1  0  0  0  0
 20 17  1  0  0  0  0
 21 22  1  0  0  0  0
 21  5  1  0  0  0  0
 22 24  1  0  0  0  0
 23 22  2  0  0  0  0
 24 26  1  0  0  0  0
 25 24  1  0  0  0  0
M  END
>  <minimizedAffinity>
-5.31551933

$$$$

 OpenBabel03272502263D

 26 27  0  0  0  0  0  0  0  0999 V2000
   38.0090   23.4120   30.8360 C   0  0  0  0  0  0  0  0  0  0  0  0
   38.2170   24.2480   31.9450 C   0  0  0  0  0  0  0  0  0  0  0  0
   37.8280   23.7690   33.2010 C   0  0  0  0  0  0  0  0  0  0  0  0
   37.2820   22.5420   33.2570 N   0  0  0  0  0  0  0  0  0  0  0  0
   37.0910   21.7570   32.1750 C   0  0  0  0  0  0  0  0  0  0  0  0
   37.4630   22.2070   30.9520 N   0  0  0  0  0  0  0  0  0  0  0  0
   38.3200   23.8130   29.8800 H   0  0  0  0  0  0  0  0  0  0  0  0
   38.6560   25.2250   31.8770 H   0  0  0  0  0  0  0  0  0  0  0  0
   37.9910   24.5260   34.4220 C   0  0  0  0  0  0  0  0  0  0  0  0
   38.1280   25.9110   34.3870 C   0  0  0  0  0  0  0  0  0  0  0  0
   38.2830   26.6690   35.5340 C   0  0  0  0  0  0  0  0  0  0  0  0
   38.3030   26.0430   36.7400 N   0  0  0  0  0  0  0  0  0  0  0  0
   38.1710   24.7260   36.7470 C   0  0  0  0  0  0  0  0  0  0  0  0
   38.0180   23.9630   35.6450 N   0  0  0  0  0  0  0  0  0  0  0  0
   38.1190   26.4600   33.4470 H   0  0  0  0  0  0  0  0  0  0  0  0
   38.3920   27.7480   35.5260 H   0  0  0  0  0  0  0  0  0  0  0  0
   38.1900   24.0210   38.0490 C   0  0  0  0  0  0  0  0  0  0  0  0
   39.4360   23.3870   38.1840 F   0  0  0  0  0  0  0  0  0  0  0  0
   37.9890   24.8810   39.1010 F   0  0  0  0  0  0  0  0  0  0  0  0
   37.2610   23.0070   38.1090 F   0  0  0  0  0  0  0  0  0  0  0  0
   36.5140   20.5180   32.4130 O   0  0  0  0  0  0  0  0  0  0  0  0
   35.4680   20.4610   33.3270 C   0  0  0  0  0  0  0  0  0  0  0  0
   34.6670   20.4610   32.3740 O   0  0  0  0  0  0  0  0  0  0  0  0
   35.5030   20.4250   34.7620 N   0  0  0  0  0  0  0  0  0  0  0  0
   34.5480   20.6430   35.1430 H   0  0  0  0  0  0  0  0  0  0  0  0
   36.4890   20.1890   35.0550 H   0  0  0  0  0  0  0  0  0  0  0  0
  1  6  2  0  0  0  0
  1  2  1  0  0  0  0
  2  3  2  0  0  0  0
  3  4  1  0  0  0  0
  3  9  1  0  0  0  0
  5 21  1  0  0  0  0
  5  4  2  0  0  0  0
  6  5  1  0  0  0  0
  7  1  1  0  0  0  0
  8  2  1  0  0  0  0
  9 14  1  0  0  0  0
 10  9  2  0  0  0  0
 10 11  1  0  0  0  0
 11 12  2  0  0  0  0
 12 13  1  0  0  0  0
 13 17  1  0  0  0  0
 14 13  2  0  0  0  0
 15 10  1  0  0  0  0
 16 11  1  0  0  0  0
 17 20  1  0  0  0  0
 17 18  1  0  0  0  0
 17 19  1  0  0  0  0
 21 22  1  0  0  0  0
 22 24  1  0  0  0  0
 23 22  2  0  0  0  0
 24 26  1  0  0  0  0
 24 25  1  0  0  0  0
M  END
>  <minimizedAffinity>
-5.15351105

$$$$

 OpenBabel03272502263D

 26 27  0  0  0  0  0  0  0  0999 V2000
   37.8300   27.1100   32.0220 C   0  0  0  0  0  0  0  0  0  0  0  0
   38.2220   25.9570   32.7210 C   0  0  0  0  0  0  0  0  0  0  0  0
   37.8040   25.8300   34.0500 C   0  0  0  0  0  0  0  0  0  0  0  0
   37.0560   26.8220   34.5660 N   0  0  0  0  0  0  0  0  0  0  0  0
   36.6930   27.9220   33.8720 C   0  0  0  0  0  0  0  0  0  0  0  0
   37.0890   28.0590   32.5850 N   0  0  0  0  0  0  0  0  0  0  0  0
   38.1700   27.1770   30.9980 H   0  0  0  0  0  0  0  0  0  0  0  0
   38.8190   25.1770   32.2900 H   0  0  0  0  0  0  0  0  0  0  0  0
   38.1340   24.6920   34.8800 C   0  0  0  0  0  0  0  0  0  0  0  0
   38.5380   23.4890   34.3070 C   0  0  0  0  0  0  0  0  0  0  0  0
   38.8640   22.3800   35.0670 C   0  0  0  0  0  0  0  0  0  0  0  0
   38.7890   22.4630   36.4210 N   0  0  0  0  0  0  0  0  0  0  0  0
   38.4030   23.6180   36.9410 C   0  0  0  0  0  0  0  0  0  0  0  0
   38.0800   24.7140   36.2240 N   0  0  0  0  0  0  0  0  0  0  0  0
   38.6140   23.3700   33.2280 H   0  0  0  0  0  0  0  0  0  0  0  0
   39.1810   21.4350   34.6380 H   0  0  0  0  0  0  0  0  0  0  0  0
   38.3130   23.7330   38.4150 C   0  0  0  0  0  0  0  0  0  0  0  0
   37.3330   22.8320   38.8640 F   0  0  0  0  0  0  0  0  0  0  0  0
   39.5120   23.4590   39.0250 F   0  0  0  0  0  0  0  0  0  0  0  0
   37.8730   24.9740   38.8160 F   0  0  0  0  0  0  0  0  0  0  0  0
   35.9200   28.8480   34.5580 O   0  0  0  0  0  0  0  0  0  0  0  0
   35.0370   29.6250   33.8160 C   0  0  0  0  0  0  0  0  0  0  0  0
   35.3030   30.5900   34.5570 O   0  0  0  0  0  0  0  0  0  0  0  0
   34.2320   29.2700   32.6820 N   0  0  0  0  0  0  0  0  0  0  0  0
   33.4990   30.0070   32.5270 H   0  0  0  0  0  0  0  0  0  0  0  0
   34.5940   28.3540   32.3030 H   0  0  0  0  0  0  0  0  0  0  0  0
  1  6  2  0  0  0  0
  1  2  1  0  0  0  0
  2  3  2  0  0  0  0
  3  4  1  0  0  0  0
  3  9  1  0  0  0  0
  5 21  1  0  0  0  0
  5  4  2  0  0  0  0
  6  5  1  0  0  0  0
  7  1  1  0  0  0  0
  8  2  1  0  0  0  0
  9 14  1  0  0  0  0
 10  9  2  0  0  0  0
 10 11  1  0  0  0  0
 11 12  2  0  0  0  0
 12 13  1  0  0  0  0
 13 17  1  0  0  0  0
 14 13  2  0  0  0  0
 15 10  1  0  0  0  0
 16 11  1  0  0  0  0
 17 20  1  0  0  0  0
 17 18  1  0  0  0  0
 17 19  1  0  0  0  0
 22 23  2  0  0  0  0
 22 21  1  0  0  0  0
 24 22  1  0  0  0  0
 25 24  1  0  0  0  0
 26 24  1  0  0  0  0
M  END
>  <minimizedAffinity>
-5.14265013

$$$$
