
 OpenBabel03262521343D

 33 35  0  0  1  0  0  0  0  0999 V2000
   38.1920   31.4120   45.4560 C   0  0  1  0  0  0  0  0  0  0  0  0
   38.7790   32.3040   46.4800 C   0  0  2  0  0  0  0  0  0  0  0  0
   40.2490   32.3930   46.0540 C   0  0  0  0  0  0  0  0  0  0  0  0
   40.4950   31.1050   45.6640 O   0  0  0  0  0  0  0  0  0  0  0  0
   39.3790   30.5710   45.0430 C   0  0  0  0  0  0  0  0  0  0  0  0
   37.8200   32.0380   44.6040 H   0  0  0  0  0  0  0  0  0  0  0  0
   38.3940   33.3400   46.3520 H   0  0  0  0  0  0  0  0  0  0  0  0
   40.9120   32.6080   46.9190 H   0  0  0  0  0  0  0  0  0  0  0  0
   40.3810   33.0830   45.2040 H   0  0  0  0  0  0  0  0  0  0  0  0
   39.5270   30.7050   43.9510 H   0  0  0  0  0  0  0  0  0  0  0  0
   39.2340   29.4950   45.2420 H   0  0  0  0  0  0  0  0  0  0  0  0
   37.5050   32.2840   48.7570 C   0  0  1  0  0  0  0  0  0  0  0  0
   38.7410   33.0070   48.9080 C   0  0  0  0  0  0  0  0  0  0  0  0
   38.6990   31.8320   47.9180 C   0  0  2  0  0  0  0  0  0  0  0  0
   36.6860   32.6890   48.1060 H   0  0  0  0  0  0  0  0  0  0  0  0
   39.4080   32.8590   49.7840 H   0  0  0  0  0  0  0  0  0  0  0  0
   38.7880   34.0350   48.5270 H   0  0  0  0  0  0  0  0  0  0  0  0
   39.2240   30.9080   48.1540 H   0  0  0  0  0  0  0  0  0  0  0  0
   35.4370   29.6500   50.4270 C   0  0  0  0  0  0  0  0  0  0  0  0
   35.8360   30.6010   49.4960 C   0  0  0  0  0  0  0  0  0  0  0  0
   37.0400   31.2510   49.7050 C   0  0  0  0  0  0  0  0  0  0  0  0
   37.7750   30.9210   50.8200 N   0  0  0  0  0  0  0  0  0  0  0  0
   37.3690   29.9910   51.7140 C   0  0  0  0  0  0  0  0  0  0  0  0
   36.1780   29.3450   51.5130 N   0  0  0  0  0  0  0  0  0  0  0  0
   34.4850   29.1810   50.1980 H   0  0  0  0  0  0  0  0  0  0  0  0
   35.2660   30.8680   48.6170 H   0  0  0  0  0  0  0  0  0  0  0  0
   38.0010   29.7860   52.5680 H   0  0  0  0  0  0  0  0  0  0  0  0
   37.1670   30.6070   45.9210 O   0  0  0  0  0  0  0  0  0  0  0  0
   36.0100   30.4910   45.1360 C   0  0  0  0  0  0  0  0  0  0  0  0
   35.1570   29.6210   45.4100 O   0  0  0  0  0  0  0  0  0  0  0  0
   35.7830   31.3370   44.0360 N   0  0  0  0  0  0  0  0  0  0  0  0
   36.2750   32.2790   44.0000 H   0  0  0  0  0  0  0  0  0  0  0  0
   35.1400   31.0530   43.2630 H   0  0  0  0  0  0  0  0  0  0  0  0
  1  6  1  6  0  0  0
  1 28  1  0  0  0  0
  1  2  1  0  0  0  0
  2  7  1  6  0  0  0
  2 14  1  0  0  0  0
  3  2  1  0  0  0  0
  3  8  1  0  0  0  0
  4  3  1  0  0  0  0
  5 11  1  0  0  0  0
  5  1  1  0  0  0  0
  5  4  1  0  0  0  0
  9  3  1  0  0  0  0
 10  5  1  0  0  0  0
 12 15  1  6  0  0  0
 12 13  1  0  0  0  0
 12 21  1  0  0  0  0
 13 16  1  0  0  0  0
 14 18  1  1  0  0  0
 14 12  1  0  0  0  0
 14 13  1  0  0  0  0
 17 13  1  0  0  0  0
 19 24  1  0  0  0  0
 20 21  1  0  0  0  0
 20 19  2  0  0  0  0
 21 22  2  0  0  0  0
 22 23  1  0  0  0  0
 23 27  1  0  0  0  0
 24 23  2  0  0  0  0
 25 19  1  0  0  0  0
 26 20  1  0  0  0  0
 29 30  2  0  0  0  0
 29 28  1  0  0  0  0
 31 29  1  0  0  0  0
 32 31  1  0  0  0  0
 33 31  1  0  0  0  0
M  END
>  <minimizedAffinity>
-5.27572346

>  <minimizedRMSD>
0.684329152

$$$$
