
 OpenBabel03272501063D

 26 27  0  0  1  0  0  0  0  0999 V2000
   37.7160   25.2810   34.1020 C   0  0  2  0  0  0  0  0  0  0  0  0
   38.5960   24.0510   34.4410 C   0  0  2  0  0  0  0  0  0  0  0  0
   37.8840   23.0340   33.6490 C   0  0  0  0  0  0  0  0  0  0  0  0
   37.5090   23.6470   32.4550 O   0  0  0  0  0  0  0  0  0  0  0  0
   37.5620   24.9970   32.6100 C   0  0  0  0  0  0  0  0  0  0  0  0
   36.7900   25.1970   34.6680 H   0  0  0  0  0  0  0  0  0  0  0  0
   39.6200   24.2670   34.0180 H   0  0  0  0  0  0  0  0  0  0  0  0
   38.4590   22.0990   33.4880 H   0  0  0  0  0  0  0  0  0  0  0  0
   36.9150   22.8140   34.1860 H   0  0  0  0  0  0  0  0  0  0  0  0
   38.5250   25.3450   32.1350 H   0  0  0  0  0  0  0  0  0  0  0  0
   36.7370   25.5450   32.1580 H   0  0  0  0  0  0  0  0  0  0  0  0
   39.8450   22.8460   37.7870 C   0  0  0  0  0  0  0  0  0  0  0  0
   39.7700   23.0550   36.3870 C   0  0  0  0  0  0  0  0  0  0  0  0
   38.7170   23.8250   35.8560 C   0  0  0  0  0  0  0  0  0  0  0  0
   37.8030   24.3380   36.7440 N   0  0  0  0  0  0  0  0  0  0  0  0
   37.8950   24.1260   38.0610 C   0  0  0  0  0  0  0  0  0  0  0  0
   38.9060   23.3840   38.6000 N   0  0  0  0  0  0  0  0  0  0  0  0
   40.6940   22.2420   38.0760 H   0  0  0  0  0  0  0  0  0  0  0  0
   40.5230   22.6250   35.7120 H   0  0  0  0  0  0  0  0  0  0  0  0
   37.1670   24.5360   38.7510 H   0  0  0  0  0  0  0  0  0  0  0  0
   38.4300   26.4650   34.3060 O   0  0  0  0  0  0  0  0  0  0  0  0
   37.9060   27.4510   35.1210 C   0  0  0  0  0  0  0  0  0  0  0  0
   36.9430   28.2160   34.9090 O   0  0  0  0  0  0  0  0  0  0  0  0
   38.5890   27.5930   36.3830 N   0  0  0  0  0  0  0  0  0  0  0  0
   38.2360   27.8700   37.3270 H   0  0  0  0  0  0  0  0  0  0  0  0
   39.5920   27.4510   36.6370 H   0  0  0  0  0  0  0  0  0  0  0  0
  1 21  1  0  0  0  0
  1  2  1  0  0  0  0
  1  6  1  1  0  0  0
  2  7  1  6  0  0  0
  2 14  1  0  0  0  0
  3  9  1  0  0  0  0
  3  2  1  0  0  0  0
  4  5  1  0  0  0  0
  4  3  1  0  0  0  0
  5  1  1  0  0  0  0
  8  3  1  0  0  0  0
 10  5  1  0  0  0  0
 11  5  1  0  0  0  0
 12 18  1  0  0  0  0
 12 17  1  0  0  0  0
 13 12  2  0  0  0  0
 14 13  1  0  0  0  0
 14 15  2  0  0  0  0
 15 16  1  0  0  0  0
 16 17  2  0  0  0  0
 16 20  1  0  0  0  0
 19 13  1  0  0  0  0
 21 22  1  0  0  0  0
 22 24  1  0  0  0  0
 23 22  2  0  0  0  0
 24 26  1  0  0  0  0
 24 25  1  0  0  0  0
M  END
>  <minimizedAffinity>
-4.25266123

$$$$

 OpenBabel03272501063D

 26 27  0  0  1  0  0  0  0  0999 V2000
   38.1520   22.8990   36.0140 C   0  0  2  0  0  0  0  0  0  0  0  0
   38.2150   23.6920   34.6830 C   0  0  2  0  0  0  0  0  0  0  0  0
   38.3630   22.5620   33.7510 C   0  0  0  0  0  0  0  0  0  0  0  0
   37.5390   21.5420   34.2230 O   0  0  0  0  0  0  0  0  0  0  0  0
   37.2320   21.7840   35.5260 C   0  0  0  0  0  0  0  0  0  0  0  0
   39.1610   22.5700   36.2560 H   0  0  0  0  0  0  0  0  0  0  0  0
   37.2140   24.1990   34.5670 H   0  0  0  0  0  0  0  0  0  0  0  0
   38.1610   22.8180   32.6900 H   0  0  0  0  0  0  0  0  0  0  0  0
   39.4160   22.1700   33.8680 H   0  0  0  0  0  0  0  0  0  0  0  0
   36.1910   22.2220   35.5420 H   0  0  0  0  0  0  0  0  0  0  0  0
   37.2470   20.9090   36.1730 H   0  0  0  0  0  0  0  0  0  0  0  0
   39.9920   27.0090   34.4730 C   0  0  0  0  0  0  0  0  0  0  0  0
   38.9440   26.0560   34.4830 C   0  0  0  0  0  0  0  0  0  0  0  0
   39.2460   24.6940   34.6790 C   0  0  0  0  0  0  0  0  0  0  0  0
   40.5690   24.3620   34.8510 N   0  0  0  0  0  0  0  0  0  0  0  0
   41.5400   25.2800   34.8370 C   0  0  0  0  0  0  0  0  0  0  0  0
   41.2720   26.6050   34.6500 N   0  0  0  0  0  0  0  0  0  0  0  0
   39.6390   28.0190   34.3160 H   0  0  0  0  0  0  0  0  0  0  0  0
   37.8990   26.3650   34.3410 H   0  0  0  0  0  0  0  0  0  0  0  0
   42.5790   25.0050   34.9740 H   0  0  0  0  0  0  0  0  0  0  0  0
   37.5230   23.6580   37.0050 O   0  0  0  0  0  0  0  0  0  0  0  0
   38.1570   23.8700   38.2140 C   0  0  0  0  0  0  0  0  0  0  0  0
   38.0540   24.8370   38.9960 O   0  0  0  0  0  0  0  0  0  0  0  0
   39.0580   22.8130   38.5970 N   0  0  0  0  0  0  0  0  0  0  0  0
   39.3220   22.4420   39.5390 H   0  0  0  0  0  0  0  0  0  0  0  0
   39.6520   22.1770   38.0180 H   0  0  0  0  0  0  0  0  0  0  0  0
  1  6  1  1  0  0  0
  1 21  1  0  0  0  0
  2  7  1  6  0  0  0
  2  1  1  0  0  0  0
  3  9  1  0  0  0  0
  3  4  1  0  0  0  0
  3  2  1  0  0  0  0
  4  5  1  0  0  0  0
  5 10  1  0  0  0  0
  5  1  1  0  0  0  0
  5 11  1  0  0  0  0
  8  3  1  0  0  0  0
 12 13  2  0  0  0  0
 12 17  1  0  0  0  0
 13 14  1  0  0  0  0
 14  2  1  0  0  0  0
 14 15  2  0  0  0  0
 16 15  1  0  0  0  0
 16 20  1  0  0  0  0
 17 16  2  0  0  0  0
 18 12  1  0  0  0  0
 19 13  1  0  0  0  0
 21 22  1  0  0  0  0
 22 24  1  0  0  0  0
 22 23  2  0  0  0  0
 24 25  1  0  0  0  0
 26 24  1  0  0  0  0
M  END
>  <minimizedAffinity>
-4.15242815

$$$$

 OpenBabel03272501063D

 26 27  0  0  1  0  0  0  0  0999 V2000
   39.1070   23.8290   36.2260 C   0  0  2  0  0  0  0  0  0  0  0  0
   38.7020   24.0000   34.7400 C   0  0  2  0  0  0  0  0  0  0  0  0
   40.0060   23.7230   34.1140 C   0  0  0  0  0  0  0  0  0  0  0  0
   40.5840   22.6820   34.8380 O   0  0  0  0  0  0  0  0  0  0  0  0
   39.9650   22.5800   36.0450 C   0  0  0  0  0  0  0  0  0  0  0  0
   39.6660   24.7130   36.5260 H   0  0  0  0  0  0  0  0  0  0  0  0
   37.9520   23.1870   34.5190 H   0  0  0  0  0  0  0  0  0  0  0  0
   39.9510   23.5090   33.0270 H   0  0  0  0  0  0  0  0  0  0  0  0
   40.6650   24.6190   34.3080 H   0  0  0  0  0  0  0  0  0  0  0  0
   39.2370   21.7200   35.9700 H   0  0  0  0  0  0  0  0  0  0  0  0
   40.6290   22.3960   36.8880 H   0  0  0  0  0  0  0  0  0  0  0  0
   36.8550   26.8040   33.0270 C   0  0  0  0  0  0  0  0  0  0  0  0
   37.4280   25.5280   33.2570 C   0  0  0  0  0  0  0  0  0  0  0  0
   38.0950   25.2760   34.4710 C   0  0  0  0  0  0  0  0  0  0  0  0
   38.1560   26.3040   35.3810 N   0  0  0  0  0  0  0  0  0  0  0  0
   37.6080   27.5000   35.1400 C   0  0  0  0  0  0  0  0  0  0  0  0
   36.9550   27.7680   33.9730 N   0  0  0  0  0  0  0  0  0  0  0  0
   36.3700   26.8780   32.0640 H   0  0  0  0  0  0  0  0  0  0  0  0
   37.3560   24.7340   32.5010 H   0  0  0  0  0  0  0  0  0  0  0  0
   37.6630   28.3020   35.8660 H   0  0  0  0  0  0  0  0  0  0  0  0
   37.9840   23.5440   37.0090 O   0  0  0  0  0  0  0  0  0  0  0  0
   38.0200   23.7760   38.3720 C   0  0  0  0  0  0  0  0  0  0  0  0
   37.9510   24.8600   38.9850 O   0  0  0  0  0  0  0  0  0  0  0  0
   38.1600   22.5820   39.1660 N   0  0  0  0  0  0  0  0  0  0  0  0
   37.7980   22.3440   40.1170 H   0  0  0  0  0  0  0  0  0  0  0  0
   38.6570   21.6840   38.9690 H   0  0  0  0  0  0  0  0  0  0  0  0
  1  6  1  1  0  0  0
  1 21  1  0  0  0  0
  2  7  1  6  0  0  0
  2  1  1  0  0  0  0
  3  9  1  0  0  0  0
  3  2  1  0  0  0  0
  3  4  1  0  0  0  0
  4  5  1  0  0  0  0
  5  1  1  0  0  0  0
  5 11  1  0  0  0  0
  8  3  1  0  0  0  0
 10  5  1  0  0  0  0
 12 13  2  0  0  0  0
 12 17  1  0  0  0  0
 13 14  1  0  0  0  0
 14  2  1  0  0  0  0
 14 15  2  0  0  0  0
 16 15  1  0  0  0  0
 16 20  1  0  0  0  0
 17 16  2  0  0  0  0
 18 12  1  0  0  0  0
 19 13  1  0  0  0  0
 21 22  1  0  0  0  0
 22 23  2  0  0  0  0
 22 24  1  0  0  0  0
 24 25  1  0  0  0  0
 26 24  1  0  0  0  0
M  END
>  <minimizedAffinity>
-4.07789755

$$$$

 OpenBabel03272501063D

 26 27  0  0  1  0  0  0  0  0999 V2000
   38.4820   23.6370   35.3620 C   0  0  2  0  0  0  0  0  0  0  0  0
   38.6980   22.6280   34.2060 C   0  0  2  0  0  0  0  0  0  0  0  0
   39.6580   23.4020   33.4020 C   0  0  0  0  0  0  0  0  0  0  0  0
   40.5180   24.0300   34.3020 O   0  0  0  0  0  0  0  0  0  0  0  0
   39.9430   24.0410   35.5340 C   0  0  0  0  0  0  0  0  0  0  0  0
   37.8400   24.4350   34.9950 H   0  0  0  0  0  0  0  0  0  0  0  0
   39.1780   21.7160   34.6640 H   0  0  0  0  0  0  0  0  0  0  0  0
   40.2000   22.8050   32.6390 H   0  0  0  0  0  0  0  0  0  0  0  0
   39.0820   24.2390   32.9100 H   0  0  0  0  0  0  0  0  0  0  0  0
   40.4210   23.2070   36.1270 H   0  0  0  0  0  0  0  0  0  0  0  0
   40.0630   24.9700   36.0890 H   0  0  0  0  0  0  0  0  0  0  0  0
   35.7620   22.4940   31.8450 C   0  0  0  0  0  0  0  0  0  0  0  0
   36.9850   22.9060   32.4310 C   0  0  0  0  0  0  0  0  0  0  0  0
   37.4680   22.2350   33.5710 C   0  0  0  0  0  0  0  0  0  0  0  0
   36.7090   21.1980   34.0600 N   0  0  0  0  0  0  0  0  0  0  0  0
   35.5580   20.8300   33.4890 C   0  0  0  0  0  0  0  0  0  0  0  0
   35.0700   21.4630   32.3840 N   0  0  0  0  0  0  0  0  0  0  0  0
   35.4950   23.0810   30.9770 H   0  0  0  0  0  0  0  0  0  0  0  0
   37.5600   23.7400   32.0070 H   0  0  0  0  0  0  0  0  0  0  0  0
   34.9690   20.0110   33.8850 H   0  0  0  0  0  0  0  0  0  0  0  0
   38.0160   22.9790   36.5040 O   0  0  0  0  0  0  0  0  0  0  0  0
   38.2290   23.5350   37.7520 C   0  0  0  0  0  0  0  0  0  0  0  0
   37.8760   24.6510   38.1840 O   0  0  0  0  0  0  0  0  0  0  0  0
   38.9620   22.6850   38.6550 N   0  0  0  0  0  0  0  0  0  0  0  0
   38.9110   22.5810   39.6940 H   0  0  0  0  0  0  0  0  0  0  0  0
   39.7120   21.9810   38.4740 H   0  0  0  0  0  0  0  0  0  0  0  0
  1  6  1  6  0  0  0
  1  5  1  0  0  0  0
  1 21  1  0  0  0  0
  2  7  1  1  0  0  0
  2  1  1  0  0  0  0
  3  2  1  0  0  0  0
  3  4  1  0  0  0  0
  4  5  1  0  0  0  0
  5 11  1  0  0  0  0
  5 10  1  0  0  0  0
  8  3  1  0  0  0  0
  9  3  1  0  0  0  0
 12 17  2  0  0  0  0
 12 13  1  0  0  0  0
 13 14  2  0  0  0  0
 14 15  1  0  0  0  0
 14  2  1  0  0  0  0
 16 20  1  0  0  0  0
 16 15  2  0  0  0  0
 17 16  1  0  0  0  0
 18 12  1  0  0  0  0
 19 13  1  0  0  0  0
 21 22  1  0  0  0  0
 22 23  2  0  0  0  0
 22 24  1  0  0  0  0
 24 25  1  0  0  0  0
 26 24  1  0  0  0  0
M  END
>  <minimizedAffinity>
-4.03247023

$$$$

 OpenBabel03272501063D

 26 27  0  0  1  0  0  0  0  0999 V2000
   39.4200   26.5150   34.7410 C   0  0  2  0  0  0  0  0  0  0  0  0
   39.1560   24.9890   34.6680 C   0  0  2  0  0  0  0  0  0  0  0  0
   37.9670   25.0040   33.8000 C   0  0  0  0  0  0  0  0  0  0  0  0
   38.1870   25.9880   32.8370 O   0  0  0  0  0  0  0  0  0  0  0  0
   39.1730   26.8190   33.2660 C   0  0  0  0  0  0  0  0  0  0  0  0
   38.6840   26.9510   35.4140 H   0  0  0  0  0  0  0  0  0  0  0  0
   40.0480   24.5360   34.1460 H   0  0  0  0  0  0  0  0  0  0  0  0
   37.7160   24.0190   33.3550 H   0  0  0  0  0  0  0  0  0  0  0  0
   37.1050   25.3860   34.4220 H   0  0  0  0  0  0  0  0  0  0  0  0
   40.1180   26.5110   32.7310 H   0  0  0  0  0  0  0  0  0  0  0  0
   38.9990   27.8770   33.0760 H   0  0  0  0  0  0  0  0  0  0  0  0
   37.9190   24.1680   38.1330 C   0  0  0  0  0  0  0  0  0  0  0  0
   38.0080   24.7830   36.8590 C   0  0  0  0  0  0  0  0  0  0  0  0
   39.0210   24.3840   35.9660 C   0  0  0  0  0  0  0  0  0  0  0  0
   39.8840   23.4020   36.3910 N   0  0  0  0  0  0  0  0  0  0  0  0
   39.7800   22.8390   37.5980 C   0  0  0  0  0  0  0  0  0  0  0  0
   38.8060   23.2070   38.4810 N   0  0  0  0  0  0  0  0  0  0  0  0
   37.1030   24.5550   38.7280 H   0  0  0  0  0  0  0  0  0  0  0  0
   37.2960   25.5640   36.5590 H   0  0  0  0  0  0  0  0  0  0  0  0
   40.4670   22.0660   37.9220 H   0  0  0  0  0  0  0  0  0  0  0  0
   40.7530   26.7640   35.0780 O   0  0  0  0  0  0  0  0  0  0  0  0
   41.7590   26.4390   34.1880 C   0  0  0  0  0  0  0  0  0  0  0  0
   42.0340   25.3300   33.6850 O   0  0  0  0  0  0  0  0  0  0  0  0
   42.5900   27.5530   33.8090 N   0  0  0  0  0  0  0  0  0  0  0  0
   43.0880   27.7660   32.9140 H   0  0  0  0  0  0  0  0  0  0  0  0
   42.8830   28.4010   34.3450 H   0  0  0  0  0  0  0  0  0  0  0  0
  1 21  1  0  0  0  0
  1  6  1  1  0  0  0
  2  7  1  6  0  0  0
  2  1  1  0  0  0  0
  2 14  1  0  0  0  0
  3  9  1  0  0  0  0
  3  2  1  0  0  0  0
  4  5  1  0  0  0  0
  4  3  1  0  0  0  0
  5  1  1  0  0  0  0
  8  3  1  0  0  0  0
 10  5  1  0  0  0  0
 11  5  1  0  0  0  0
 12 17  1  0  0  0  0
 12 18  1  0  0  0  0
 13 12  2  0  0  0  0
 14 15  2  0  0  0  0
 14 13  1  0  0  0  0
 15 16  1  0  0  0  0
 16 20  1  0  0  0  0
 16 17  2  0  0  0  0
 19 13  1  0  0  0  0
 22 21  1  0  0  0  0
 23 22  2  0  0  0  0
 24 22  1  0  0  0  0
 24 26  1  0  0  0  0
 25 24  1  0  0  0  0
M  END
>  <minimizedAffinity>
-3.97477674

$$$$

 OpenBabel03272501063D

 26 27  0  0  1  0  0  0  0  0999 V2000
   36.8610   26.8650   33.4040 C   0  0  2  0  0  0  0  0  0  0  0  0
   36.9100   26.1490   32.0310 C   0  0  2  0  0  0  0  0  0  0  0  0
   35.8060   26.8590   31.3640 C   0  0  0  0  0  0  0  0  0  0  0  0
   35.8940   28.1940   31.7550 O   0  0  0  0  0  0  0  0  0  0  0  0
   36.6640   28.2810   32.8720 C   0  0  0  0  0  0  0  0  0  0  0  0
   36.0080   26.4740   33.9570 H   0  0  0  0  0  0  0  0  0  0  0  0
   37.9090   26.4070   31.5730 H   0  0  0  0  0  0  0  0  0  0  0  0
   35.7870   26.7370   30.2610 H   0  0  0  0  0  0  0  0  0  0  0  0
   34.8440   26.4800   31.8180 H   0  0  0  0  0  0  0  0  0  0  0  0
   37.6860   28.6260   32.5400 H   0  0  0  0  0  0  0  0  0  0  0  0
   36.2970   28.9710   33.6300 H   0  0  0  0  0  0  0  0  0  0  0  0
   35.6880   22.6020   31.6720 C   0  0  0  0  0  0  0  0  0  0  0  0
   35.7590   24.0100   31.5260 C   0  0  0  0  0  0  0  0  0  0  0  0
   36.8080   24.7190   32.1430 C   0  0  0  0  0  0  0  0  0  0  0  0
   37.7200   23.9900   32.8680 N   0  0  0  0  0  0  0  0  0  0  0  0
   37.6300   22.6620   32.9920 C   0  0  0  0  0  0  0  0  0  0  0  0
   36.6250   21.9520   32.4030 N   0  0  0  0  0  0  0  0  0  0  0  0
   34.8430   22.1680   31.1540 H   0  0  0  0  0  0  0  0  0  0  0  0
   35.0080   24.5530   30.9360 H   0  0  0  0  0  0  0  0  0  0  0  0
   38.3560   22.0990   33.5670 H   0  0  0  0  0  0  0  0  0  0  0  0
   38.0920   26.7530   34.0580 O   0  0  0  0  0  0  0  0  0  0  0  0
   38.1270   26.5260   35.4220 C   0  0  0  0  0  0  0  0  0  0  0  0
   37.7740   25.5120   36.0580 O   0  0  0  0  0  0  0  0  0  0  0  0
   38.6450   27.6320   36.1870 N   0  0  0  0  0  0  0  0  0  0  0  0
   39.1940   27.6540   37.0770 H   0  0  0  0  0  0  0  0  0  0  0  0
   38.5890   28.6620   36.0230 H   0  0  0  0  0  0  0  0  0  0  0  0
  1  6  1  1  0  0  0
  1 21  1  0  0  0  0
  2  7  1  6  0  0  0
  2 14  1  0  0  0  0
  2  1  1  0  0  0  0
  3  4  1  0  0  0  0
  3  9  1  0  0  0  0
  3  2  1  0  0  0  0
  4  5  1  0  0  0  0
  5  1  1  0  0  0  0
  5 11  1  0  0  0  0
  8  3  1  0  0  0  0
 10  5  1  0  0  0  0
 12 17  1  0  0  0  0
 13 12  2  0  0  0  0
 13 14  1  0  0  0  0
 14 15  2  0  0  0  0
 15 16  1  0  0  0  0
 16 20  1  0  0  0  0
 17 16  2  0  0  0  0
 18 12  1  0  0  0  0
 19 13  1  0  0  0  0
 21 22  1  0  0  0  0
 22 23  2  0  0  0  0
 22 24  1  0  0  0  0
 24 25  1  0  0  0  0
 26 24  1  0  0  0  0
M  END
>  <minimizedAffinity>
-3.93307781

$$$$

 OpenBabel03272501063D

 26 27  0  0  1  0  0  0  0  0999 V2000
   38.7100   22.6310   35.8610 C   0  0  2  0  0  0  0  0  0  0  0  0
   39.5930   23.2130   34.7290 C   0  0  2  0  0  0  0  0  0  0  0  0
   39.5550   22.0710   33.7990 C   0  0  0  0  0  0  0  0  0  0  0  0
   38.2570   21.5650   33.8410 O   0  0  0  0  0  0  0  0  0  0  0  0
   37.6400   22.0130   34.9670 C   0  0  0  0  0  0  0  0  0  0  0  0
   39.3050   21.9040   36.4110 H   0  0  0  0  0  0  0  0  0  0  0  0
   39.0380   24.1040   34.3180 H   0  0  0  0  0  0  0  0  0  0  0  0
   39.8870   22.3130   32.7680 H   0  0  0  0  0  0  0  0  0  0  0  0
   40.2040   21.2600   34.2420 H   0  0  0  0  0  0  0  0  0  0  0  0
   36.9720   22.8690   34.6570 H   0  0  0  0  0  0  0  0  0  0  0  0
   37.0320   21.2720   35.4840 H   0  0  0  0  0  0  0  0  0  0  0  0
   42.7640   25.2030   35.1750 C   0  0  0  0  0  0  0  0  0  0  0  0
   41.4850   24.8190   34.6990 C   0  0  0  0  0  0  0  0  0  0  0  0
   40.8840   23.6460   35.1940 C   0  0  0  0  0  0  0  0  0  0  0  0
   41.5870   22.9240   36.1280 N   0  0  0  0  0  0  0  0  0  0  0  0
   42.7930   23.3060   36.5610 C   0  0  0  0  0  0  0  0  0  0  0  0
   43.3960   24.4390   36.0980 N   0  0  0  0  0  0  0  0  0  0  0  0
   43.1210   26.1180   34.7250 H   0  0  0  0  0  0  0  0  0  0  0  0
   40.9570   25.4260   33.9500 H   0  0  0  0  0  0  0  0  0  0  0  0
   43.3380   22.7280   37.2980 H   0  0  0  0  0  0  0  0  0  0  0  0
   38.1690   23.6600   36.6370 O   0  0  0  0  0  0  0  0  0  0  0  0
   38.4460   23.7200   37.9900 C   0  0  0  0  0  0  0  0  0  0  0  0
   38.0180   24.5230   38.8440 O   0  0  0  0  0  0  0  0  0  0  0  0
   39.3610   22.7050   38.4470 N   0  0  0  0  0  0  0  0  0  0  0  0
   39.4300   22.2040   39.3620 H   0  0  0  0  0  0  0  0  0  0  0  0
   40.1620   22.2390   37.9640 H   0  0  0  0  0  0  0  0  0  0  0  0
  1  6  1  1  0  0  0
  1 21  1  0  0  0  0
  2  7  1  6  0  0  0
  2 14  1  0  0  0  0
  2  1  1  0  0  0  0
  3  4  1  0  0  0  0
  3  9  1  0  0  0  0
  3  2  1  0  0  0  0
  4  5  1  0  0  0  0
  5 11  1  0  0  0  0
  5  1  1  0  0  0  0
  8  3  1  0  0  0  0
 10  5  1  0  0  0  0
 12 17  1  0  0  0  0
 13 12  2  0  0  0  0
 13 14  1  0  0  0  0
 14 15  2  0  0  0  0
 15 16  1  0  0  0  0
 16 20  1  0  0  0  0
 17 16  2  0  0  0  0
 18 12  1  0  0  0  0
 19 13  1  0  0  0  0
 21 22  1  0  0  0  0
 22 24  1  0  0  0  0
 22 23  2  0  0  0  0
 24 25  1  0  0  0  0
 26 24  1  0  0  0  0
M  END
>  <minimizedAffinity>
-3.929986

$$$$

 OpenBabel03272501063D

 26 27  0  0  1  0  0  0  0  0999 V2000
   40.2000   23.7300   35.8980 C   0  0  2  0  0  0  0  0  0  0  0  0
   39.8680   24.3100   34.5000 C   0  0  2  0  0  0  0  0  0  0  0  0
   41.2380   24.5760   34.0320 C   0  0  0  0  0  0  0  0  0  0  0  0
   42.0230   23.5100   34.4670 O   0  0  0  0  0  0  0  0  0  0  0  0
   41.3720   22.8550   35.4660 C   0  0  0  0  0  0  0  0  0  0  0  0
   40.4780   24.5580   36.5480 H   0  0  0  0  0  0  0  0  0  0  0  0
   39.3810   23.4760   33.9170 H   0  0  0  0  0  0  0  0  0  0  0  0
   41.3190   24.7480   32.9380 H   0  0  0  0  0  0  0  0  0  0  0  0
   41.6160   25.4740   34.6010 H   0  0  0  0  0  0  0  0  0  0  0  0
   40.9100   21.9330   35.0070 H   0  0  0  0  0  0  0  0  0  0  0  0
   42.0010   22.5470   36.2990 H   0  0  0  0  0  0  0  0  0  0  0  0
   38.2000   27.5270   35.5400 C   0  0  0  0  0  0  0  0  0  0  0  0
   39.1250   26.4540   35.5080 C   0  0  0  0  0  0  0  0  0  0  0  0
   38.9600   25.4250   34.5600 C   0  0  0  0  0  0  0  0  0  0  0  0
   37.8890   25.5220   33.7040 N   0  0  0  0  0  0  0  0  0  0  0  0
   37.0300   26.5450   33.7560 C   0  0  0  0  0  0  0  0  0  0  0  0
   37.1680   27.5540   34.6640 N   0  0  0  0  0  0  0  0  0  0  0  0
   38.4290   28.2550   36.3060 H   0  0  0  0  0  0  0  0  0  0  0  0
   39.9680   26.4150   36.2110 H   0  0  0  0  0  0  0  0  0  0  0  0
   36.1890   26.6100   33.0760 H   0  0  0  0  0  0  0  0  0  0  0  0
   39.1430   22.9410   36.3630 O   0  0  0  0  0  0  0  0  0  0  0  0
   38.4450   23.3250   37.4940 C   0  0  0  0  0  0  0  0  0  0  0  0
   37.4480   24.0700   37.5850 O   0  0  0  0  0  0  0  0  0  0  0  0
   38.9660   22.7750   38.7190 N   0  0  0  0  0  0  0  0  0  0  0  0
   38.4860   22.4940   39.6050 H   0  0  0  0  0  0  0  0  0  0  0  0
   39.9430   22.5330   38.9990 H   0  0  0  0  0  0  0  0  0  0  0  0
  1 21  1  0  0  0  0
  1  6  1  1  0  0  0
  2  7  1  6  0  0  0
  2 14  1  0  0  0  0
  2  1  1  0  0  0  0
  3  4  1  0  0  0  0
  3  2  1  0  0  0  0
  3  9  1  0  0  0  0
  4  5  1  0  0  0  0
  5  1  1  0  0  0  0
  5 11  1  0  0  0  0
  8  3  1  0  0  0  0
 10  5  1  0  0  0  0
 12 18  1  0  0  0  0
 13 12  1  0  0  0  0
 13 19  1  0  0  0  0
 14 13  2  0  0  0  0
 15 16  2  0  0  0  0
 15 14  1  0  0  0  0
 16 17  1  0  0  0  0
 17 12  2  0  0  0  0
 20 16  1  0  0  0  0
 21 22  1  0  0  0  0
 22 23  2  0  0  0  0
 22 24  1  0  0  0  0
 24 26  1  0  0  0  0
 24 25  1  0  0  0  0
M  END
>  <minimizedAffinity>
-3.90240979

$$$$

 OpenBabel03272501063D

 26 27  0  0  1  0  0  0  0  0999 V2000
   37.8380   25.4420   35.6870 C   0  0  2  0  0  0  0  0  0  0  0  0
   38.1930   25.7730   34.2150 C   0  0  2  0  0  0  0  0  0  0  0  0
   37.7690   27.1830   34.1890 C   0  0  0  0  0  0  0  0  0  0  0  0
   38.1390   27.7350   35.4140 O   0  0  0  0  0  0  0  0  0  0  0  0
   38.3680   26.7320   36.3040 C   0  0  0  0  0  0  0  0  0  0  0  0
   36.7570   25.3280   35.7540 H   0  0  0  0  0  0  0  0  0  0  0  0
   39.3140   25.6730   34.1280 H   0  0  0  0  0  0  0  0  0  0  0  0
   38.1590   27.7590   33.3250 H   0  0  0  0  0  0  0  0  0  0  0  0
   36.6400   27.1900   34.1900 H   0  0  0  0  0  0  0  0  0  0  0  0
   39.4880   26.6000   36.3690 H   0  0  0  0  0  0  0  0  0  0  0  0
   37.9850   26.9110   37.3070 H   0  0  0  0  0  0  0  0  0  0  0  0
   36.0550   24.4230   31.4200 C   0  0  0  0  0  0  0  0  0  0  0  0
   36.6510   25.3420   32.3190 C   0  0  0  0  0  0  0  0  0  0  0  0
   37.5740   24.8770   33.2760 C   0  0  0  0  0  0  0  0  0  0  0  0
   37.8460   23.5300   33.2860 N   0  0  0  0  0  0  0  0  0  0  0  0
   37.2680   22.6830   32.4280 C   0  0  0  0  0  0  0  0  0  0  0  0
   36.3730   23.1090   31.4900 N   0  0  0  0  0  0  0  0  0  0  0  0
   35.3670   24.8950   30.7330 H   0  0  0  0  0  0  0  0  0  0  0  0
   36.4050   26.4120   32.2770 H   0  0  0  0  0  0  0  0  0  0  0  0
   37.4910   21.6220   32.4460 H   0  0  0  0  0  0  0  0  0  0  0  0
   38.5780   24.3430   36.1330 O   0  0  0  0  0  0  0  0  0  0  0  0
   37.9690   23.3760   36.9110 C   0  0  0  0  0  0  0  0  0  0  0  0
   37.6350   23.4300   38.1120 O   0  0  0  0  0  0  0  0  0  0  0  0
   37.7000   22.1450   36.2120 N   0  0  0  0  0  0  0  0  0  0  0  0
   36.9270   21.4480   36.3210 H   0  0  0  0  0  0  0  0  0  0  0  0
   38.2170   21.6710   35.4380 H   0  0  0  0  0  0  0  0  0  0  0  0
  1  6  1  1  0  0  0
  1 21  1  0  0  0  0
  1  5  1  0  0  0  0
  2  7  1  6  0  0  0
  2  1  1  0  0  0  0
  3  9  1  0  0  0  0
  3  2  1  0  0  0  0
  3  4  1  0  0  0  0
  4  5  1  0  0  0  0
  5 10  1  0  0  0  0
  5 11  1  0  0  0  0
  8  3  1  0  0  0  0
 12 17  2  0  0  0  0
 12 13  1  0  0  0  0
 13 14  2  0  0  0  0
 14 15  1  0  0  0  0
 14  2  1  0  0  0  0
 16 20  1  0  0  0  0
 16 15  2  0  0  0  0
 17 16  1  0  0  0  0
 18 12  1  0  0  0  0
 19 13  1  0  0  0  0
 21 22  1  0  0  0  0
 22 23  2  0  0  0  0
 24 25  1  0  0  0  0
 24 22  1  0  0  0  0
 26 24  1  0  0  0  0
M  END
>  <minimizedAffinity>
-3.89937687

$$$$
