
 OpenBabel03262521013D

 33 34  0  0  1  0  0  0  0  0999 V2000
   39.4860   32.8420   46.3760 N   0  0  0  0  0  0  0  0  0  0  0  0
   38.2330   32.4200   45.8300 C   0  0  1  0  0  0  0  0  0  0  0  0
   38.1930   32.7060   44.3550 C   0  0  0  0  0  0  0  0  0  0  0  0
   39.2990   31.9760   43.7410 N   0  0  0  0  0  0  0  0  0  0  0  0
   40.5070   32.6800   44.2140 C   0  0  0  0  0  0  0  0  0  0  0  0
   40.6290   32.3300   45.6950 C   0  0  2  0  0  0  0  0  0  0  0  0
   39.5520   32.8780   47.3950 H   0  0  0  0  0  0  0  0  0  0  0  0
   37.4120   32.9360   46.3390 H   0  0  0  0  0  0  0  0  0  0  0  0
   38.2630   33.7780   44.1150 H   0  0  0  0  0  0  0  0  0  0  0  0
   37.2290   32.2790   43.9750 H   0  0  0  0  0  0  0  0  0  0  0  0
   39.2950   30.9960   44.0680 H   0  0  0  0  0  0  0  0  0  0  0  0
   40.3180   33.7610   44.0950 H   0  0  0  0  0  0  0  0  0  0  0  0
   41.4020   32.3560   43.6810 H   0  0  0  0  0  0  0  0  0  0  0  0
   41.5190   32.8780   46.0750 H   0  0  0  0  0  0  0  0  0  0  0  0
   40.7950   30.8970   45.8170 N   0  0  0  0  0  0  0  0  0  0  0  0
   40.6440   30.6460   46.8360 H   0  0  0  0  0  0  0  0  0  0  0  0
   41.8280   30.7080   45.6540 H   0  0  0  0  0  0  0  0  0  0  0  0
   37.9820   30.6080   46.0060 S   0  0  0  0  0  0  0  0  0  0  0  0
   37.8760   30.2310   50.0340 C   0  0  0  0  0  0  0  0  0  0  0  0
   38.3030   30.5910   48.7710 C   0  0  0  0  0  0  0  0  0  0  0  0
   37.5610   30.2190   47.6870 C   0  0  0  0  0  0  0  0  0  0  0  0
   36.4010   29.4890   47.8960 N   0  0  0  0  0  0  0  0  0  0  0  0
   36.0460   29.1740   49.1420 C   0  0  0  0  0  0  0  0  0  0  0  0
   36.7520   29.5260   50.2180 N   0  0  0  0  0  0  0  0  0  0  0  0
   38.4450   30.5130   50.9170 H   0  0  0  0  0  0  0  0  0  0  0  0
   39.2060   31.1580   48.6200 H   0  0  0  0  0  0  0  0  0  0  0  0
   34.8160   28.4020   49.3440 C   0  0  0  0  0  0  0  0  0  0  0  0
   34.7390   27.1590   49.1770 O   0  0  0  0  0  0  0  0  0  0  0  0
   32.6710   31.0000   50.2910 H   0  0  0  0  0  0  0  0  0  0  0  0
   33.5830   30.4850   49.9770 C   0  0  0  0  0  0  0  0  0  0  0  0
   34.6200   31.1760   49.8130 O   0  0  0  0  0  0  0  0  0  0  0  0
   33.6280   29.0910   49.7550 N   0  0  0  0  0  0  0  0  0  0  0  0
   32.7610   28.5060   49.8920 H   0  0  0  0  0  0  0  0  0  0  0  0
  1  7  1  0  0  0  0
  2 18  1  0  0  0  0
  2  8  1  1  0  0  0
  2  1  1  0  0  0  0
  3  2  1  0  0  0  0
  4 11  1  0  0  0  0
  4  5  1  0  0  0  0
  4  3  1  0  0  0  0
  5  6  1  0  0  0  0
  6 15  1  0  0  0  0
  6 14  1  1  0  0  0
  6  1  1  0  0  0  0
  9  3  1  0  0  0  0
 10  3  1  0  0  0  0
 12  5  1  0  0  0  0
 13  5  1  0  0  0  0
 15 16  1  0  0  0  0
 17 15  1  0  0  0  0
 18 21  1  0  0  0  0
 19 24  1  0  0  0  0
 19 25  1  0  0  0  0
 20 19  2  0  0  0  0
 21 22  2  0  0  0  0
 21 20  1  0  0  0  0
 22 23  1  0  0  0  0
 23 27  1  0  0  0  0
 23 24  2  0  0  0  0
 26 20  1  0  0  0  0
 27 32  1  0  0  0  0
 28 27  2  0  0  0  0
 30 29  1  0  0  0  0
 31 30  2  0  0  0  0
 32 33  1  0  0  0  0
 32 30  1  0  0  0  0
M  END
>  <minimizedAffinity>
-3.82879663

>  <minimizedRMSD>
1.05732024

$$$$
