
 OpenBabel03272505443D

 20 20  0  0  0  0  0  0  0  0999 V2000
   38.0310   22.8880   34.2040 O   0  0  0  0  0  0  0  0  0  0  0  0
   35.5470   20.5880   32.8410 C   0  0  0  0  0  0  0  0  0  0  0  0
   35.3010   21.2110   31.5950 C   0  0  0  0  0  0  0  0  0  0  0  0
   36.0090   22.3900   31.2990 C   0  0  0  0  0  0  0  0  0  0  0  0
   36.8800   22.8510   32.2270 N   0  0  0  0  0  0  0  0  0  0  0  0
   37.0970   22.2430   33.4050 C   0  0  0  0  0  0  0  0  0  0  0  0
   36.4260   21.1030   33.7140 N   0  0  0  0  0  0  0  0  0  0  0  0
   35.0430   19.6790   33.1440 H   0  0  0  0  0  0  0  0  0  0  0  0
   34.5870   20.7670   30.9190 H   0  0  0  0  0  0  0  0  0  0  0  0
   35.8360   22.8820   30.3510 H   0  0  0  0  0  0  0  0  0  0  0  0
   39.5590   21.9080   36.0810 O   0  0  0  0  0  0  0  0  0  0  0  0
   38.2400   22.6120   35.8560 P   0  0  2  0  0  0  0  0  0  0  0  0
   37.0370   21.6010   36.4940 O   0  0  0  0  0  0  0  0  0  0  0  0
   36.4960   22.0280   37.2000 H   0  0  0  0  0  0  0  0  0  0  0  0
   38.2660   24.0290   36.7710 O   0  0  0  0  0  0  0  0  0  0  0  0
   38.2640   23.9650   38.1570 C   0  0  0  0  0  0  0  0  0  0  0  0
   37.9130   24.8990   38.9250 O   0  0  0  0  0  0  0  0  0  0  0  0
   38.7000   22.7340   38.7260 N   0  0  0  0  0  0  0  0  0  0  0  0
   39.2000   21.9980   38.2110 H   0  0  0  0  0  0  0  0  0  0  0  0
   38.5690   22.4440   39.7010 H   0  0  0  0  0  0  0  0  0  0  0  0
  1 12  1  0  0  0  0
  2  8  1  0  0  0  0
  2  7  1  0  0  0  0
  3  2  2  0  0  0  0
  4  3  1  0  0  0  0
  4  5  2  0  0  0  0
  5  6  1  0  0  0  0
  6  7  2  0  0  0  0
  6  1  1  0  0  0  0
  9  3  1  0  0  0  0
 10  4  1  0  0  0  0
 12 11  2  1  0  0  0
 12 13  1  0  0  0  0
 12 15  1  0  0  0  0
 13 14  1  0  0  0  0
 15 16  1  0  0  0  0
 16 18  1  0  0  0  0
 16 17  2  0  0  0  0
 18 20  1  0  0  0  0
 19 18  1  0  0  0  0
M  END
>  <minimizedAffinity>
-4.24053383

$$$$

 OpenBabel03272505443D

 20 20  0  0  0  0  0  0  0  0999 V2000
   38.1580   25.0250   37.0720 O   0  0  0  0  0  0  0  0  0  0  0  0
   39.6220   26.7510   34.2100 C   0  0  0  0  0  0  0  0  0  0  0  0
   38.4420   27.1320   33.5290 C   0  0  0  0  0  0  0  0  0  0  0  0
   37.2090   26.7700   34.1000 C   0  0  0  0  0  0  0  0  0  0  0  0
   37.2320   26.0800   35.2650 N   0  0  0  0  0  0  0  0  0  0  0  0
   38.3660   25.7280   35.8940 C   0  0  0  0  0  0  0  0  0  0  0  0
   39.5700   26.0670   35.3620 N   0  0  0  0  0  0  0  0  0  0  0  0
   40.6100   26.9910   33.8360 H   0  0  0  0  0  0  0  0  0  0  0  0
   38.5240   27.6820   32.6050 H   0  0  0  0  0  0  0  0  0  0  0  0
   36.2940   27.0520   33.5960 H   0  0  0  0  0  0  0  0  0  0  0  0
   37.0940   22.6540   36.8150 O   0  0  0  0  0  0  0  0  0  0  0  0
   38.3600   23.3590   37.2470 P   0  0  2  0  0  0  0  0  0  0  0  0
   38.6350   22.9130   38.8600 O   0  0  0  0  0  0  0  0  0  0  0  0
   39.5060   22.4730   39.0050 H   0  0  0  0  0  0  0  0  0  0  0  0
   39.6220   22.7380   36.3150 O   0  0  0  0  0  0  0  0  0  0  0  0
   40.8630   22.5040   36.8880 C   0  0  0  0  0  0  0  0  0  0  0  0
   41.9080   23.1650   36.6480 O   0  0  0  0  0  0  0  0  0  0  0  0
   40.9300   21.4240   37.8130 N   0  0  0  0  0  0  0  0  0  0  0  0
   40.2080   20.7010   37.9200 H   0  0  0  0  0  0  0  0  0  0  0  0
   41.6960   21.2450   38.4720 H   0  0  0  0  0  0  0  0  0  0  0  0
  1 12  1  0  0  0  0
  2  7  1  0  0  0  0
  3  4  1  0  0  0  0
  3  2  2  0  0  0  0
  4  5  2  0  0  0  0
  5  6  1  0  0  0  0
  6  1  1  0  0  0  0
  7  6  2  0  0  0  0
  8  2  1  0  0  0  0
  9  3  1  0  0  0  0
 10  4  1  0  0  0  0
 12 11  2  6  0  0  0
 12 13  1  0  0  0  0
 13 14  1  0  0  0  0
 15 16  1  0  0  0  0
 15 12  1  0  0  0  0
 16 18  1  0  0  0  0
 17 16  2  0  0  0  0
 18 19  1  0  0  0  0
 18 20  1  0  0  0  0
M  END
>  <minimizedAffinity>
-4.23082447

$$$$

 OpenBabel03272505443D

 20 20  0  0  0  0  0  0  0  0999 V2000
   39.0970   24.5490   36.4230 O   0  0  0  0  0  0  0  0  0  0  0  0
   37.7150   27.7600   35.3780 C   0  0  0  0  0  0  0  0  0  0  0  0
   37.1500   27.3870   34.1370 C   0  0  0  0  0  0  0  0  0  0  0  0
   37.2790   26.0450   33.7340 C   0  0  0  0  0  0  0  0  0  0  0  0
   37.9370   25.2000   34.5610 N   0  0  0  0  0  0  0  0  0  0  0  0
   38.4660   25.5780   35.7370 C   0  0  0  0  0  0  0  0  0  0  0  0
   38.3540   26.8680   36.1480 N   0  0  0  0  0  0  0  0  0  0  0  0
   37.6590   28.7730   35.7590 H   0  0  0  0  0  0  0  0  0  0  0  0
   36.6430   28.1330   33.5450 H   0  0  0  0  0  0  0  0  0  0  0  0
   36.8540   25.7380   32.7870 H   0  0  0  0  0  0  0  0  0  0  0  0
   37.9100   24.4910   38.7480 O   0  0  0  0  0  0  0  0  0  0  0  0
   38.3710   23.6010   37.6160 P   0  0  2  0  0  0  0  0  0  0  0  0
   39.4520   22.4810   38.2900 O   0  0  0  0  0  0  0  0  0  0  0  0
   39.1780   21.5420   38.1610 H   0  0  0  0  0  0  0  0  0  0  0  0
   37.0210   22.7530   37.0640 O   0  0  0  0  0  0  0  0  0  0  0  0
   37.1270   21.9100   35.9680 C   0  0  0  0  0  0  0  0  0  0  0  0
   36.2350   21.1110   35.5800 O   0  0  0  0  0  0  0  0  0  0  0  0
   38.3520   21.9750   35.2460 N   0  0  0  0  0  0  0  0  0  0  0  0
   39.2100   22.4240   35.5910 H   0  0  0  0  0  0  0  0  0  0  0  0
   38.5200   21.5860   34.3110 H   0  0  0  0  0  0  0  0  0  0  0  0
  1 12  1  0  0  0  0
  2  8  1  0  0  0  0
  2  7  1  0  0  0  0
  3  2  2  0  0  0  0
  4  3  1  0  0  0  0
  4  5  2  0  0  0  0
  5  6  1  0  0  0  0
  6  7  2  0  0  0  0
  6  1  1  0  0  0  0
  9  3  1  0  0  0  0
 10  4  1  0  0  0  0
 12 13  1  0  0  0  0
 12 11  2  1  0  0  0
 14 13  1  0  0  0  0
 15 12  1  0  0  0  0
 16 15  1  0  0  0  0
 17 16  2  0  0  0  0
 18 19  1  0  0  0  0
 18 16  1  0  0  0  0
 20 18  1  0  0  0  0
M  END
>  <minimizedAffinity>
-4.08282757

$$$$

 OpenBabel03272505443D

 20 20  0  0  0  0  0  0  0  0999 V2000
   38.2210   24.2880   34.3900 O   0  0  0  0  0  0  0  0  0  0  0  0
   36.9720   27.7030   34.6940 C   0  0  0  0  0  0  0  0  0  0  0  0
   36.5480   27.9230   33.3620 C   0  0  0  0  0  0  0  0  0  0  0  0
   36.7170   26.8770   32.4370 C   0  0  0  0  0  0  0  0  0  0  0  0
   37.2770   25.7280   32.8830 N   0  0  0  0  0  0  0  0  0  0  0  0
   37.6740   25.5410   34.1530 C   0  0  0  0  0  0  0  0  0  0  0  0
   37.5190   26.5370   35.0650 N   0  0  0  0  0  0  0  0  0  0  0  0
   36.8760   28.4580   35.4650 H   0  0  0  0  0  0  0  0  0  0  0  0
   36.1110   28.8740   33.1010 H   0  0  0  0  0  0  0  0  0  0  0  0
   36.3990   27.0240   31.4140 H   0  0  0  0  0  0  0  0  0  0  0  0
   37.6700   22.2010   35.8580 O   0  0  0  0  0  0  0  0  0  0  0  0
   38.3350   23.5580   35.9070 P   0  0  2  0  0  0  0  0  0  0  0  0
   37.5320   24.4460   37.1070 O   0  0  0  0  0  0  0  0  0  0  0  0
   38.1260   24.7590   37.8300 H   0  0  0  0  0  0  0  0  0  0  0  0
   39.9260   23.3180   36.4140 O   0  0  0  0  0  0  0  0  0  0  0  0
   40.1930   22.5290   37.5240 C   0  0  0  0  0  0  0  0  0  0  0  0
   41.1670   21.7390   37.6340 O   0  0  0  0  0  0  0  0  0  0  0  0
   39.2750   22.6440   38.6070 N   0  0  0  0  0  0  0  0  0  0  0  0
   38.3490   23.0860   38.5430 H   0  0  0  0  0  0  0  0  0  0  0  0
   39.4270   22.3020   39.5630 H   0  0  0  0  0  0  0  0  0  0  0  0
  1 12  1  0  0  0  0
  2  7  1  0  0  0  0
  2  8  1  0  0  0  0
  3  2  2  0  0  0  0
  4  5  2  0  0  0  0
  4  3  1  0  0  0  0
  5  6  1  0  0  0  0
  6  1  1  0  0  0  0
  6  7  2  0  0  0  0
  9  3  1  0  0  0  0
 10  4  1  0  0  0  0
 12 11  2  6  0  0  0
 12 15  1  0  0  0  0
 12 13  1  0  0  0  0
 13 14  1  0  0  0  0
 15 16  1  0  0  0  0
 16 17  2  0  0  0  0
 16 18  1  0  0  0  0
 18 20  1  0  0  0  0
 19 18  1  0  0  0  0
M  END
>  <minimizedAffinity>
-4.03855896

$$$$

 OpenBabel03272505443D

 20 20  0  0  0  0  0  0  0  0999 V2000
   37.7850   25.3990   35.1710 O   0  0  0  0  0  0  0  0  0  0  0  0
   39.7240   22.8760   36.9560 C   0  0  0  0  0  0  0  0  0  0  0  0
   39.2060   23.0530   38.2610 C   0  0  0  0  0  0  0  0  0  0  0  0
   38.2160   24.0350   38.4470 C   0  0  0  0  0  0  0  0  0  0  0  0
   37.8240   24.7460   37.3630 N   0  0  0  0  0  0  0  0  0  0  0  0
   38.3300   24.5600   36.1330 C   0  0  0  0  0  0  0  0  0  0  0  0
   39.2870   23.6180   35.9290 N   0  0  0  0  0  0  0  0  0  0  0  0
   40.4880   22.1420   36.7310 H   0  0  0  0  0  0  0  0  0  0  0  0
   39.5820   22.4380   39.0620 H   0  0  0  0  0  0  0  0  0  0  0  0
   37.8070   24.1870   39.4360 H   0  0  0  0  0  0  0  0  0  0  0  0
   39.3200   27.1660   34.0160 O   0  0  0  0  0  0  0  0  0  0  0  0
   38.1690   27.0320   34.9860 P   0  0  2  0  0  0  0  0  0  0  0  0
   38.6780   27.7380   36.4420 O   0  0  0  0  0  0  0  0  0  0  0  0
   38.1010   28.4810   36.7420 H   0  0  0  0  0  0  0  0  0  0  0  0
   36.8930   27.9530   34.3790 O   0  0  0  0  0  0  0  0  0  0  0  0
   36.4660   27.7770   33.0710 C   0  0  0  0  0  0  0  0  0  0  0  0
   35.8840   28.6500   32.3750 O   0  0  0  0  0  0  0  0  0  0  0  0
   36.7180   26.4980   32.4980 N   0  0  0  0  0  0  0  0  0  0  0  0
   36.9870   25.6620   33.0330 H   0  0  0  0  0  0  0  0  0  0  0  0
   36.6610   26.2650   31.5010 H   0  0  0  0  0  0  0  0  0  0  0  0
  1  6  1  0  0  0  0
  2  3  1  0  0  0  0
  3  4  2  0  0  0  0
  3  9  1  0  0  0  0
  4 10  1  0  0  0  0
  5  4  1  0  0  0  0
  6  5  2  0  0  0  0
  7  6  1  0  0  0  0
  7  2  2  0  0  0  0
  8  2  1  0  0  0  0
 12 11  2  6  0  0  0
 12  1  1  0  0  0  0
 12 13  1  0  0  0  0
 13 14  1  0  0  0  0
 15 12  1  0  0  0  0
 16 15  1  0  0  0  0
 17 16  2  0  0  0  0
 18 19  1  0  0  0  0
 18 16  1  0  0  0  0
 20 18  1  0  0  0  0
M  END
>  <minimizedAffinity>
-4.01076794

$$$$

 OpenBabel03272505443D

 20 20  0  0  0  0  0  0  0  0999 V2000
   40.2900   24.0290   35.6730 O   0  0  0  0  0  0  0  0  0  0  0  0
   38.3370   27.0590   35.1110 C   0  0  0  0  0  0  0  0  0  0  0  0
   37.4810   26.6060   34.0800 C   0  0  0  0  0  0  0  0  0  0  0  0
   37.6290   25.2790   33.6390 C   0  0  0  0  0  0  0  0  0  0  0  0
   38.5830   24.5210   34.2320 N   0  0  0  0  0  0  0  0  0  0  0  0
   39.3850   24.9740   35.2110 C   0  0  0  0  0  0  0  0  0  0  0  0
   39.2600   26.2530   35.6530 N   0  0  0  0  0  0  0  0  0  0  0  0
   38.2850   28.0670   35.5050 H   0  0  0  0  0  0  0  0  0  0  0  0
   36.7500   27.2840   33.6690 H   0  0  0  0  0  0  0  0  0  0  0  0
   36.9850   24.9120   32.8510 H   0  0  0  0  0  0  0  0  0  0  0  0
   41.0350   21.6990   36.5840 O   0  0  0  0  0  0  0  0  0  0  0  0
   39.8840   22.6780   36.5990 P   0  0  2  0  0  0  0  0  0  0  0  0
   38.5400   21.8540   35.9740 O   0  0  0  0  0  0  0  0  0  0  0  0
   37.7750   21.8190   36.5960 H   0  0  0  0  0  0  0  0  0  0  0  0
   39.5630   23.0480   38.2130 O   0  0  0  0  0  0  0  0  0  0  0  0
   38.3140   23.5250   38.5850 C   0  0  0  0  0  0  0  0  0  0  0  0
   38.0520   24.7230   38.8710 O   0  0  0  0  0  0  0  0  0  0  0  0
   37.2680   22.5600   38.6390 N   0  0  0  0  0  0  0  0  0  0  0  0
   37.4110   21.5420   38.6330 H   0  0  0  0  0  0  0  0  0  0  0  0
   36.2630   22.7660   38.6890 H   0  0  0  0  0  0  0  0  0  0  0  0
  1 12  1  0  0  0  0
  2  8  1  0  0  0  0
  2  7  1  0  0  0  0
  3  2  2  0  0  0  0
  4  3  1  0  0  0  0
  4  5  2  0  0  0  0
  5  6  1  0  0  0  0
  6  7  2  0  0  0  0
  6  1  1  0  0  0  0
  9  3  1  0  0  0  0
 10  4  1  0  0  0  0
 12 11  2  6  0  0  0
 12 15  1  0  0  0  0
 13 14  1  0  0  0  0
 13 12  1  0  0  0  0
 15 16  1  0  0  0  0
 16 18  1  0  0  0  0
 16 17  2  0  0  0  0
 18 20  1  0  0  0  0
 19 18  1  0  0  0  0
M  END
>  <minimizedAffinity>
-3.91876101

$$$$

 OpenBabel03272505443D

 20 20  0  0  0  0  0  0  0  0999 V2000
   37.4080   22.1900   35.8730 O   0  0  0  0  0  0  0  0  0  0  0  0
   35.5210   20.2250   33.4450 C   0  0  0  0  0  0  0  0  0  0  0  0
   36.4240   20.2570   32.3560 C   0  0  0  0  0  0  0  0  0  0  0  0
   37.6320   20.9570   32.5260 C   0  0  0  0  0  0  0  0  0  0  0  0
   37.8520   21.5530   33.7210 N   0  0  0  0  0  0  0  0  0  0  0  0
   36.9790   21.5090   34.7420 C   0  0  0  0  0  0  0  0  0  0  0  0
   35.8060   20.8400   34.6020 N   0  0  0  0  0  0  0  0  0  0  0  0
   34.5710   19.7080   33.3950 H   0  0  0  0  0  0  0  0  0  0  0  0
   36.1600   19.7500   31.4420 H   0  0  0  0  0  0  0  0  0  0  0  0
   38.3370   20.9940   31.7050 H   0  0  0  0  0  0  0  0  0  0  0  0
   37.6510   24.6430   36.7340 O   0  0  0  0  0  0  0  0  0  0  0  0
   38.3200   23.6090   35.8560 P   0  0  2  0  0  0  0  0  0  0  0  0
   38.4220   24.2860   34.3040 O   0  0  0  0  0  0  0  0  0  0  0  0
   39.3450   24.3470   33.9610 H   0  0  0  0  0  0  0  0  0  0  0  0
   39.8900   23.4000   36.4360 O   0  0  0  0  0  0  0  0  0  0  0  0
   40.1230   22.6010   37.5460 C   0  0  0  0  0  0  0  0  0  0  0  0
   41.0980   21.8160   37.6820 O   0  0  0  0  0  0  0  0  0  0  0  0
   39.1660   22.6970   38.5970 N   0  0  0  0  0  0  0  0  0  0  0  0
   38.2410   23.1350   38.5050 H   0  0  0  0  0  0  0  0  0  0  0  0
   39.2880   22.3460   39.5530 H   0  0  0  0  0  0  0  0  0  0  0  0
  2  7  1  0  0  0  0
  3  4  1  0  0  0  0
  3  2  2  0  0  0  0
  4  5  2  0  0  0  0
  5  6  1  0  0  0  0
  6  1  1  0  0  0  0
  7  6  2  0  0  0  0
  8  2  1  0  0  0  0
  9  3  1  0  0  0  0
 10  4  1  0  0  0  0
 12  1  1  0  0  0  0
 12 15  1  0  0  0  0
 12 11  2  1  0  0  0
 13 12  1  0  0  0  0
 14 13  1  0  0  0  0
 15 16  1  0  0  0  0
 16 17  2  0  0  0  0
 16 18  1  0  0  0  0
 18 20  1  0  0  0  0
 19 18  1  0  0  0  0
M  END
>  <minimizedAffinity>
-3.88337541

$$$$

 OpenBabel03272505443D

 20 20  0  0  0  0  0  0  0  0999 V2000
   37.7100   23.9960   34.7340 O   0  0  0  0  0  0  0  0  0  0  0  0
   39.9030   22.8170   37.4010 C   0  0  0  0  0  0  0  0  0  0  0  0
   39.1270   23.1790   38.5280 C   0  0  0  0  0  0  0  0  0  0  0  0
   37.8910   23.8090   38.2990 C   0  0  0  0  0  0  0  0  0  0  0  0
   37.5240   24.0280   37.0140 N   0  0  0  0  0  0  0  0  0  0  0  0
   38.2780   23.6760   35.9590 C   0  0  0  0  0  0  0  0  0  0  0  0
   39.4760   23.0650   36.1550 N   0  0  0  0  0  0  0  0  0  0  0  0
   40.8650   22.3280   37.4930 H   0  0  0  0  0  0  0  0  0  0  0  0
   39.5040   22.9620   39.5150 H   0  0  0  0  0  0  0  0  0  0  0  0
   37.2820   24.0950   39.1460 H   0  0  0  0  0  0  0  0  0  0  0  0
   37.6330   24.8810   32.2790 O   0  0  0  0  0  0  0  0  0  0  0  0
   38.4430   24.9530   33.5530 P   0  0  2  0  0  0  0  0  0  0  0  0
   40.0020   24.4110   33.1660 O   0  0  0  0  0  0  0  0  0  0  0  0
   40.7080   25.0760   33.3510 H   0  0  0  0  0  0  0  0  0  0  0  0
   38.5510   26.5800   33.9860 O   0  0  0  0  0  0  0  0  0  0  0  0
   39.4070   26.9770   35.0030 C   0  0  0  0  0  0  0  0  0  0  0  0
   40.6560   26.8190   35.0000 O   0  0  0  0  0  0  0  0  0  0  0  0
   38.7960   27.6060   36.1240 N   0  0  0  0  0  0  0  0  0  0  0  0
   37.7870   27.5930   36.3230 H   0  0  0  0  0  0  0  0  0  0  0  0
   39.2830   28.1370   36.8550 H   0  0  0  0  0  0  0  0  0  0  0  0
  1  6  1  0  0  0  0
  2  8  1  0  0  0  0
  2  3  1  0  0  0  0
  3  9  1  0  0  0  0
  4  3  2  0  0  0  0
  4 10  1  0  0  0  0
  5  4  1  0  0  0  0
  6  7  1  0  0  0  0
  6  5  2  0  0  0  0
  7  2  2  0  0  0  0
 12 11  2  6  0  0  0
 12 15  1  0  0  0  0
 12  1  1  0  0  0  0
 13 14  1  0  0  0  0
 13 12  1  0  0  0  0
 15 16  1  0  0  0  0
 16 18  1  0  0  0  0
 17 16  2  0  0  0  0
 18 19  1  0  0  0  0
 18 20  1  0  0  0  0
M  END
>  <minimizedAffinity>
-3.82505226

$$$$

 OpenBabel03272505443D

 20 20  0  0  0  0  0  0  0  0999 V2000
   38.1870   24.0780   34.6610 O   0  0  0  0  0  0  0  0  0  0  0  0
   39.7900   22.8060   37.6820 C   0  0  0  0  0  0  0  0  0  0  0  0
   38.9100   23.3270   38.6590 C   0  0  0  0  0  0  0  0  0  0  0  0
   37.8130   24.0880   38.2160 C   0  0  0  0  0  0  0  0  0  0  0  0
   37.6720   24.2710   36.8810 N   0  0  0  0  0  0  0  0  0  0  0  0
   38.5220   23.7660   35.9710 C   0  0  0  0  0  0  0  0  0  0  0  0
   39.5880   23.0280   36.3750 N   0  0  0  0  0  0  0  0  0  0  0  0
   40.6570   22.2110   37.9420 H   0  0  0  0  0  0  0  0  0  0  0  0
   39.1050   23.1270   39.7010 H   0  0  0  0  0  0  0  0  0  0  0  0
   37.1270   24.4960   38.9460 H   0  0  0  0  0  0  0  0  0  0  0  0
   39.2270   22.7280   32.6820 O   0  0  0  0  0  0  0  0  0  0  0  0
   37.9340   22.9440   33.4360 P   0  0  2  0  0  0  0  0  0  0  0  0
   36.7940   23.4740   32.2990 O   0  0  0  0  0  0  0  0  0  0  0  0
   35.9990   22.8930   32.2370 H   0  0  0  0  0  0  0  0  0  0  0  0
   37.4340   21.4400   34.0130 O   0  0  0  0  0  0  0  0  0  0  0  0
   36.0960   21.0770   33.9460 C   0  0  0  0  0  0  0  0  0  0  0  0
   35.3720   21.1650   32.9190 O   0  0  0  0  0  0  0  0  0  0  0  0
   35.5260   20.5710   35.1480 N   0  0  0  0  0  0  0  0  0  0  0  0
   35.9550   20.6540   36.0790 H   0  0  0  0  0  0  0  0  0  0  0  0
   34.6320   20.0710   35.2250 H   0  0  0  0  0  0  0  0  0  0  0  0
  1  6  1  0  0  0  0
  2  8  1  0  0  0  0
  2  3  1  0  0  0  0
  3  9  1  0  0  0  0
  4  3  2  0  0  0  0
  4 10  1  0  0  0  0
  5  4  1  0  0  0  0
  6  7  1  0  0  0  0
  6  5  2  0  0  0  0
  7  2  2  0  0  0  0
 12 11  2  6  0  0  0
 12 15  1  0  0  0  0
 12  1  1  0  0  0  0
 13 12  1  0  0  0  0
 14 13  1  0  0  0  0
 16 15  1  0  0  0  0
 16 18  1  0  0  0  0
 17 16  2  0  0  0  0
 18 20  1  0  0  0  0
 18 19  1  0  0  0  0
M  END
>  <minimizedAffinity>
-3.74402118

$$$$
