
 OpenBabel03262521013D

 33 34  0  0  1  0  0  0  0  0999 V2000
   39.4820   32.8970   44.8420 N   0  0  0  0  0  0  0  0  0  0  0  0
   38.1860   32.2900   44.8520 C   0  0  1  0  0  0  0  0  0  0  0  0
   37.8070   31.8670   43.4610 C   0  0  0  0  0  0  0  0  0  0  0  0
   38.8210   30.9200   43.0030 N   0  0  0  0  0  0  0  0  0  0  0  0
   40.0300   31.7450   42.8140 C   0  0  0  0  0  0  0  0  0  0  0  0
   40.4960   32.1130   44.2200 C   0  0  2  0  0  0  0  0  0  0  0  0
   39.7590   33.3970   45.6890 H   0  0  0  0  0  0  0  0  0  0  0  0
   37.4480   32.9940   45.2490 H   0  0  0  0  0  0  0  0  0  0  0  0
   37.7230   32.7080   42.7550 H   0  0  0  0  0  0  0  0  0  0  0  0
   36.8290   31.3270   43.5490 H   0  0  0  0  0  0  0  0  0  0  0  0
   38.9790   30.2000   43.7270 H   0  0  0  0  0  0  0  0  0  0  0  0
   39.7190   32.6530   42.2680 H   0  0  0  0  0  0  0  0  0  0  0  0
   40.8180   31.1990   42.2910 H   0  0  0  0  0  0  0  0  0  0  0  0
   41.3910   32.7610   44.0940 H   0  0  0  0  0  0  0  0  0  0  0  0
   40.8190   30.8940   44.9310 N   0  0  0  0  0  0  0  0  0  0  0  0
   40.9120   31.1420   45.9580 H   0  0  0  0  0  0  0  0  0  0  0  0
   41.8060   30.6370   44.6360 H   0  0  0  0  0  0  0  0  0  0  0  0
   38.1500   30.7650   45.8770 S   0  0  0  0  0  0  0  0  0  0  0  0
   37.9900   32.6500   49.4560 C   0  0  0  0  0  0  0  0  0  0  0  0
   38.1910   32.4320   48.1070 C   0  0  0  0  0  0  0  0  0  0  0  0
   37.9390   31.1940   47.5880 C   0  0  0  0  0  0  0  0  0  0  0  0
   37.4890   30.1970   48.4390 N   0  0  0  0  0  0  0  0  0  0  0  0
   37.3150   30.4750   49.7320 C   0  0  0  0  0  0  0  0  0  0  0  0
   37.5540   31.6750   50.2640 N   0  0  0  0  0  0  0  0  0  0  0  0
   38.1820   33.6240   49.8980 H   0  0  0  0  0  0  0  0  0  0  0  0
   38.5420   33.2140   47.4540 H   0  0  0  0  0  0  0  0  0  0  0  0
   36.8380   29.4080   50.6180 C   0  0  0  0  0  0  0  0  0  0  0  0
   37.5250   28.9150   51.5460 O   0  0  0  0  0  0  0  0  0  0  0  0
   33.4460   29.2590   49.7680 H   0  0  0  0  0  0  0  0  0  0  0  0
   34.4510   29.6660   49.9120 C   0  0  0  0  0  0  0  0  0  0  0  0
   34.6480   30.8680   49.6030 O   0  0  0  0  0  0  0  0  0  0  0  0
   35.5150   28.8900   50.4240 N   0  0  0  0  0  0  0  0  0  0  0  0
   35.3560   27.8810   50.6840 H   0  0  0  0  0  0  0  0  0  0  0  0
  1  2  1  0  0  0  0
  1  7  1  0  0  0  0
  2  8  1  1  0  0  0
  2 18  1  0  0  0  0
  3 10  1  0  0  0  0
  3  2  1  0  0  0  0
  4  3  1  0  0  0  0
  4 11  1  0  0  0  0
  5  4  1  0  0  0  0
  5  6  1  0  0  0  0
  6 14  1  6  0  0  0
  6  1  1  0  0  0  0
  6 15  1  0  0  0  0
  9  3  1  0  0  0  0
 12  5  1  0  0  0  0
 13  5  1  0  0  0  0
 15 16  1  0  0  0  0
 17 15  1  0  0  0  0
 18 21  1  0  0  0  0
 19 25  1  0  0  0  0
 19 24  1  0  0  0  0
 20 19  2  0  0  0  0
 21 20  1  0  0  0  0
 21 22  2  0  0  0  0
 22 23  1  0  0  0  0
 23 24  2  0  0  0  0
 23 27  1  0  0  0  0
 26 20  1  0  0  0  0
 27 28  2  0  0  0  0
 29 30  1  0  0  0  0
 30 32  1  0  0  0  0
 31 30  2  0  0  0  0
 32 27  1  0  0  0  0
 32 33  1  0  0  0  0
M  END
>  <minimizedAffinity>
-5.56284332

>  <minimizedRMSD>
1.85750902

$$$$
