
 OpenBabel03262521013D

 33 34  0  0  1  0  0  0  0  0999 V2000
   39.5860   32.8840   46.2760 N   0  0  0  0  0  0  0  0  0  0  0  0
   38.2600   32.4490   45.9600 C   0  0  1  0  0  0  0  0  0  0  0  0
   38.0380   32.5150   44.4750 C   0  0  0  0  0  0  0  0  0  0  0  0
   39.0330   31.6490   43.8470 N   0  0  0  0  0  0  0  0  0  0  0  0
   40.3130   32.3550   44.0540 C   0  0  0  0  0  0  0  0  0  0  0  0
   40.6150   32.2220   45.5450 C   0  0  2  0  0  0  0  0  0  0  0  0
   39.7850   33.0680   47.2610 H   0  0  0  0  0  0  0  0  0  0  0  0
   37.5290   33.0740   46.4820 H   0  0  0  0  0  0  0  0  0  0  0  0
   38.1090   33.5350   44.0670 H   0  0  0  0  0  0  0  0  0  0  0  0
   37.0210   32.0840   44.2870 H   0  0  0  0  0  0  0  0  0  0  0  0
   39.0420   30.7290   44.3180 H   0  0  0  0  0  0  0  0  0  0  0  0
   40.1420   33.4140   43.7960 H   0  0  0  0  0  0  0  0  0  0  0  0
   41.1210   31.9120   43.4700 H   0  0  0  0  0  0  0  0  0  0  0  0
   41.5630   32.7760   45.7230 H   0  0  0  0  0  0  0  0  0  0  0  0
   40.7530   30.8170   45.8630 N   0  0  0  0  0  0  0  0  0  0  0  0
   40.7280   30.7270   46.9190 H   0  0  0  0  0  0  0  0  0  0  0  0
   41.7500   30.5560   45.6040 H   0  0  0  0  0  0  0  0  0  0  0  0
   37.9810   30.6960   46.4400 S   0  0  0  0  0  0  0  0  0  0  0  0
   37.3620   31.0100   50.4270 C   0  0  0  0  0  0  0  0  0  0  0  0
   37.9650   31.1270   49.1910 C   0  0  0  0  0  0  0  0  0  0  0  0
   37.3310   30.6210   48.0920 C   0  0  0  0  0  0  0  0  0  0  0  0
   36.1000   30.0070   48.2590 N   0  0  0  0  0  0  0  0  0  0  0  0
   35.5740   29.9270   49.4820 C   0  0  0  0  0  0  0  0  0  0  0  0
   36.1710   30.4130   50.5710 N   0  0  0  0  0  0  0  0  0  0  0  0
   37.8410   31.4030   51.3210 H   0  0  0  0  0  0  0  0  0  0  0  0
   38.9210   31.6070   49.0710 H   0  0  0  0  0  0  0  0  0  0  0  0
   34.2710   29.2740   49.6410 C   0  0  0  0  0  0  0  0  0  0  0  0
   33.8490   28.3700   48.8780 O   0  0  0  0  0  0  0  0  0  0  0  0
   31.5110   29.4250   51.7860 H   0  0  0  0  0  0  0  0  0  0  0  0
   32.1500   29.1080   50.9580 C   0  0  0  0  0  0  0  0  0  0  0  0
   31.7220   28.2040   50.1980 O   0  0  0  0  0  0  0  0  0  0  0  0
   33.4220   29.6790   50.7230 N   0  0  0  0  0  0  0  0  0  0  0  0
   33.7850   30.4380   51.3580 H   0  0  0  0  0  0  0  0  0  0  0  0
  1  7  1  0  0  0  0
  2  1  1  0  0  0  0
  2 18  1  0  0  0  0
  2  8  1  1  0  0  0
  3  2  1  0  0  0  0
  4  5  1  0  0  0  0
  4 11  1  0  0  0  0
  4  3  1  0  0  0  0
  5  6  1  0  0  0  0
  6 14  1  1  0  0  0
  6 15  1  0  0  0  0
  6  1  1  0  0  0  0
  9  3  1  0  0  0  0
 10  3  1  0  0  0  0
 12  5  1  0  0  0  0
 13  5  1  0  0  0  0
 15 16  1  0  0  0  0
 17 15  1  0  0  0  0
 18 21  1  0  0  0  0
 19 24  1  0  0  0  0
 19 25  1  0  0  0  0
 20 19  2  0  0  0  0
 21 22  2  0  0  0  0
 21 20  1  0  0  0  0
 22 23  1  0  0  0  0
 23 27  1  0  0  0  0
 23 24  2  0  0  0  0
 26 20  1  0  0  0  0
 27 32  1  0  0  0  0
 28 27  2  0  0  0  0
 30 29  1  0  0  0  0
 31 30  2  0  0  0  0
 32 30  1  0  0  0  0
 32 33  1  0  0  0  0
M  END
>  <minimizedAffinity>
-2.73353267

>  <minimizedRMSD>
0.651351511

$$$$
