
 OpenBabel03272509443D

 15 15  0  0  0  0  0  0  0  0999 V2000
   37.3940   30.3090   51.4040 C   0  0  0  0  0  0  0  0  0  0  0  0
   38.1240   30.8530   50.3420 C   0  0  0  0  0  0  0  0  0  0  0  0
   37.7860   30.4830   49.0370 C   0  0  0  0  0  0  0  0  0  0  0  0
   36.7540   29.6040   48.8690 N   0  0  0  0  0  0  0  0  0  0  0  0
   36.0690   29.0960   49.9160 C   0  0  0  0  0  0  0  0  0  0  0  0
   36.3890   29.4500   51.1900 N   0  0  0  0  0  0  0  0  0  0  0  0
   37.6520   30.5930   52.4280 H   0  0  0  0  0  0  0  0  0  0  0  0
   38.9260   31.5390   50.5240 H   0  0  0  0  0  0  0  0  0  0  0  0
   38.3190   30.8740   48.1690 H   0  0  0  0  0  0  0  0  0  0  0  0
   35.0600   28.2230   49.5470 O   0  0  0  0  0  0  0  0  0  0  0  0
   33.8380   28.7090   49.0450 C   0  0  0  0  0  0  0  0  0  0  0  0
   32.7160   28.0980   49.0920 O   0  0  0  0  0  0  0  0  0  0  0  0
   33.7600   29.9840   48.4180 N   0  0  0  0  0  0  0  0  0  0  0  0
   34.4180   29.9130   47.5940 H   0  0  0  0  0  0  0  0  0  0  0  0
   33.2680   30.8950   48.5430 H   0  0  0  0  0  0  0  0  0  0  0  0
  1  7  1  0  0  0  0
  2  8  1  0  0  0  0
  2  1  2  0  0  0  0
  3  2  1  0  0  0  0
  4  3  2  0  0  0  0
  4  5  1  0  0  0  0
  5  6  2  0  0  0  0
  6  1  1  0  0  0  0
  9  3  1  0  0  0  0
 10  5  1  0  0  0  0
 11 12  2  0  0  0  0
 11 10  1  0  0  0  0
 13 15  1  0  0  0  0
 13 11  1  0  0  0  0
 14 13  1  0  0  0  0
M  END
>  <minimizedAffinity>
-3.82822299

>  <minimizedRMSD>
0.584207833

$$$$
