
 OpenBabel03262520333D

 25 25  0  0  0  0  0  0  0  0999 V2000
   32.6710   27.9910   48.0630 C   0  0  0  0  0  0  0  0  0  0  0  0
   32.2580   28.5510   47.2170 H   0  0  0  0  0  0  0  0  0  0  0  0
   32.9770   26.9950   47.6350 H   0  0  0  0  0  0  0  0  0  0  0  0
   34.6790   28.2730   49.5000 C   0  0  0  0  0  0  0  0  0  0  0  0
   33.8920   28.6880   48.5440 C   0  0  0  0  0  0  0  0  0  0  0  0
   37.1960   30.1600   51.3600 C   0  0  0  0  0  0  0  0  0  0  0  0
   38.0150   30.6790   50.3370 C   0  0  0  0  0  0  0  0  0  0  0  0
   37.6620   30.3540   49.0170 C   0  0  0  0  0  0  0  0  0  0  0  0
   36.5610   29.5630   48.8150 N   0  0  0  0  0  0  0  0  0  0  0  0
   35.8260   29.1020   49.8230 C   0  0  0  0  0  0  0  0  0  0  0  0
   36.1470   29.4030   51.0930 N   0  0  0  0  0  0  0  0  0  0  0  0
   37.4850   30.4220   52.3740 H   0  0  0  0  0  0  0  0  0  0  0  0
   38.8740   31.3000   50.5690 H   0  0  0  0  0  0  0  0  0  0  0  0
   38.2400   30.7140   48.2010 H   0  0  0  0  0  0  0  0  0  0  0  0
   31.7740   27.7550   49.0960 O   0  0  0  0  0  0  0  0  0  0  0  0
   29.9000   26.5250   47.8720 O   0  0  0  0  0  0  0  0  0  0  0  0
   30.1980   27.8880   48.4860 P   0  0  2  0  0  0  0  0  0  0  0  0
   30.1750   29.1020   47.3220 O   0  0  0  0  0  0  0  0  0  0  0  0
   29.5720   29.8400   47.6220 H   0  0  0  0  0  0  0  0  0  0  0  0
   29.0930   28.2380   49.7340 O   0  0  0  0  0  0  0  0  0  0  0  0
   28.2800   27.2130   50.2010 C   0  0  0  0  0  0  0  0  0  0  0  0
   28.6370   26.9550   51.3870 O   0  0  0  0  0  0  0  0  0  0  0  0
   27.2380   26.5540   49.5150 N   0  0  0  0  0  0  0  0  0  0  0  0
   27.0200   25.8460   48.7880 H   0  0  0  0  0  0  0  0  0  0  0  0
   26.3830   26.9840   49.9440 H   0  0  0  0  0  0  0  0  0  0  0  0
  1  5  1  0  0  0  0
  1 15  1  0  0  0  0
  2  1  1  0  0  0  0
  3  1  1  0  0  0  0
  4 10  1  0  0  0  0
  5  4  2  0  0  0  0
  6 12  1  0  0  0  0
  7 13  1  0  0  0  0
  7  6  2  0  0  0  0
  8  7  1  0  0  0  0
  9  8  2  0  0  0  0
  9 10  1  0  0  0  0
 10 11  2  0  0  0  0
 11  6  1  0  0  0  0
 14  8  1  0  0  0  0
 17 16  2  6  0  0  0
 17 15  1  0  0  0  0
 17 20  1  0  0  0  0
 18 19  1  0  0  0  0
 18 17  1  0  0  0  0
 20 21  1  0  0  0  0
 21 22  2  0  0  0  0
 23 25  1  0  0  0  0
 23 21  1  0  0  0  0
 24 23  1  0  0  0  0
M  END
>  <minimizedAffinity>
-5.04142666

>  <minimizedRMSD>
1.24035645

$$$$
