
 OpenBabel03272510233D

 28 30  0  0  0  0  0  0  0  0999 V2000
   36.8630   30.6200   46.4330 C   0  0  0  0  0  0  0  0  0  0  0  0
   37.9470   31.4730   46.4450 C   0  0  0  0  0  0  0  0  0  0  0  0
   38.7450   31.5820   45.3300 C   0  0  0  0  0  0  0  0  0  0  0  0
   38.4130   30.8100   44.2220 C   0  0  0  0  0  0  0  0  0  0  0  0
   39.0610   30.7560   43.0070 N   0  0  0  0  0  0  0  0  0  0  0  0
   38.3810   29.8830   42.2710 C   0  0  0  0  0  0  0  0  0  0  0  0
   37.3430   29.3820   42.9410 N   0  0  0  0  0  0  0  0  0  0  0  0
   37.3430   29.9490   44.1710 C   0  0  0  0  0  0  0  0  0  0  0  0
   36.5520   29.8570   45.3080 C   0  0  0  0  0  0  0  0  0  0  0  0
   36.1980   30.4780   47.2540 H   0  0  0  0  0  0  0  0  0  0  0  0
   39.5880   32.2420   45.3300 H   0  0  0  0  0  0  0  0  0  0  0  0
   39.9270   31.3240   42.7710 H   0  0  0  0  0  0  0  0  0  0  0  0
   35.7150   29.1830   45.2680 H   0  0  0  0  0  0  0  0  0  0  0  0
   39.3200   33.8710   48.9900 C   0  0  0  0  0  0  0  0  0  0  0  0
   39.1760   33.2160   47.7700 C   0  0  0  0  0  0  0  0  0  0  0  0
   38.2000   32.2300   47.6570 C   0  0  0  0  0  0  0  0  0  0  0  0
   37.4260   31.9520   48.7510 N   0  0  0  0  0  0  0  0  0  0  0  0
   37.5910   32.6100   49.9280 C   0  0  0  0  0  0  0  0  0  0  0  0
   38.5190   33.5480   50.0390 N   0  0  0  0  0  0  0  0  0  0  0  0
   40.0750   34.6300   49.0720 H   0  0  0  0  0  0  0  0  0  0  0  0
   39.7850   33.4350   46.9110 H   0  0  0  0  0  0  0  0  0  0  0  0
   36.9530   32.3470   50.7530 H   0  0  0  0  0  0  0  0  0  0  0  0
   38.7980   29.6100   40.9710 O   0  0  0  0  0  0  0  0  0  0  0  0
   38.2770   30.1530   39.8320 C   0  0  0  0  0  0  0  0  0  0  0  0
   37.1920   30.2490   39.1760 O   0  0  0  0  0  0  0  0  0  0  0  0
   39.3040   30.8710   39.1190 N   0  0  0  0  0  0  0  0  0  0  0  0
   40.0240   31.1650   38.4510 H   0  0  0  0  0  0  0  0  0  0  0  0
   39.5260   31.7850   39.5760 H   0  0  0  0  0  0  0  0  0  0  0  0
  1  2  1  0  0  0  0
  1 10  1  0  0  0  0
  2 16  1  0  0  0  0
  3  2  2  0  0  0  0
  4  3  1  0  0  0  0
  5  4  1  0  0  0  0
  6  7  2  0  0  0  0
  6  5  1  0  0  0  0
  7  8  1  0  0  0  0
  8  4  2  0  0  0  0
  8  9  1  0  0  0  0
  9  1  2  0  0  0  0
 11  3  1  0  0  0  0
 12  5  1  0  0  0  0
 13  9  1  0  0  0  0
 14 20  1  0  0  0  0
 14 19  1  0  0  0  0
 15 14  2  0  0  0  0
 16 15  1  0  0  0  0
 16 17  2  0  0  0  0
 17 18  1  0  0  0  0
 18 19  2  0  0  0  0
 18 22  1  0  0  0  0
 21 15  1  0  0  0  0
 23  6  1  0  0  0  0
 24 23  1  0  0  0  0
 25 24  2  0  0  0  0
 26 28  1  0  0  0  0
 26 24  1  0  0  0  0
 27 26  1  0  0  0  0
M  END
>  <minimizedAffinity>
-3.10242462

>  <minimizedRMSD>
4.49958754

$$$$
