
 OpenBabel03272504583D

 29 30  0  0  1  0  0  0  0  0999 V2000
   38.4270   27.0160   34.4050 C   0  0  1  0  0  0  0  0  0  0  0  0
   38.3750   27.1520   35.8380 C   0  0  0  0  0  0  0  0  0  0  0  0
   38.0890   25.8310   35.1990 C   0  0  2  0  0  0  0  0  0  0  0  0
   39.4150   26.9230   33.8320 H   0  0  0  0  0  0  0  0  0  0  0  0
   37.4990   27.6900   36.2590 H   0  0  0  0  0  0  0  0  0  0  0  0
   39.2990   27.5930   36.1620 H   0  0  0  0  0  0  0  0  0  0  0  0
   37.1480   25.4470   35.5610 H   0  0  0  0  0  0  0  0  0  0  0  0
   37.3420   27.5800   33.5330 C   0  0  0  0  0  0  0  0  0  0  0  0
   36.3700   28.3740   34.1910 C   0  0  0  0  0  0  0  0  0  0  0  0
   35.3870   28.8780   33.3740 C   0  0  0  0  0  0  0  0  0  0  0  0
   35.4020   28.5940   32.0300 N   0  0  0  0  0  0  0  0  0  0  0  0
   36.3530   27.8300   31.4510 C   0  0  0  0  0  0  0  0  0  0  0  0
   37.3440   27.3150   32.2360 N   0  0  0  0  0  0  0  0  0  0  0  0
   36.3500   27.5420   30.0800 N   0  0  0  0  0  0  0  0  0  0  0  0
   36.3600   28.5950   35.2390 H   0  0  0  0  0  0  0  0  0  0  0  0
   34.5930   29.5010   33.7840 H   0  0  0  0  0  0  0  0  0  0  0  0
   37.2450   27.3130   29.6060 H   0  0  0  0  0  0  0  0  0  0  0  0
   35.4340   27.5720   29.5820 H   0  0  0  0  0  0  0  0  0  0  0  0
   39.1250   24.8860   35.2990 O   0  0  0  0  0  0  0  0  0  0  0  0
   37.7420   22.8580   34.5150 O   0  0  0  0  0  0  0  0  0  0  0  0
   38.5150   23.3850   35.6790 P   0  0  1  0  0  0  0  0  0  0  0  0
   39.8260   22.2740   35.8970 O   0  0  0  0  0  0  0  0  0  0  0  0
   40.2010   22.0770   35.0100 H   0  0  0  0  0  0  0  0  0  0  0  0
   37.6200   23.5050   37.0970 O   0  0  0  0  0  0  0  0  0  0  0  0
   38.1240   23.7910   38.3430 C   0  0  0  0  0  0  0  0  0  0  0  0
   37.8880   24.8970   38.8950 O   0  0  0  0  0  0  0  0  0  0  0  0
   38.9060   22.6910   38.8560 N   0  0  0  0  0  0  0  0  0  0  0  0
   38.5510   21.8080   39.3220 H   0  0  0  0  0  0  0  0  0  0  0  0
   39.8950   23.0150   38.6380 H   0  0  0  0  0  0  0  0  0  0  0  0
  1  4  1  6  0  0  0
  1  3  1  0  0  0  0
  1  2  1  0  0  0  0
  2  6  1  0  0  0  0
  2  5  1  0  0  0  0
  3 19  1  0  0  0  0
  3  7  1  6  0  0  0
  3  2  1  0  0  0  0
  8  9  1  0  0  0  0
  8  1  1  0  0  0  0
  9 15  1  0  0  0  0
 10 16  1  0  0  0  0
 10  9  2  0  0  0  0
 11 10  1  0  0  0  0
 12 11  2  0  0  0  0
 12 13  1  0  0  0  0
 13  8  2  0  0  0  0
 14 12  1  0  0  0  0
 17 14  1  0  0  0  0
 18 14  1  0  0  0  0
 19 21  1  0  0  0  0
 21 20  2  6  0  0  0
 21 22  1  0  0  0  0
 21 24  1  0  0  0  0
 23 22  1  0  0  0  0
 24 25  1  0  0  0  0
 25 27  1  0  0  0  0
 25 26  2  0  0  0  0
 27 28  1  0  0  0  0
 29 27  1  0  0  0  0
M  END
>  <minimizedAffinity>
-5.2030592

$$$$

 OpenBabel03272504583D

 29 30  0  0  1  0  0  0  0  0999 V2000
   38.3440   26.4830   34.6280 C   0  0  1  0  0  0  0  0  0  0  0  0
   38.2020   27.1220   35.9110 C   0  0  0  0  0  0  0  0  0  0  0  0
   37.8780   25.6710   35.7560 C   0  0  2  0  0  0  0  0  0  0  0  0
   39.3610   26.1580   34.2130 H   0  0  0  0  0  0  0  0  0  0  0  0
   37.3340   27.8050   36.0370 H   0  0  0  0  0  0  0  0  0  0  0  0
   39.1280   27.6180   36.1380 H   0  0  0  0  0  0  0  0  0  0  0  0
   36.8920   25.4740   36.1460 H   0  0  0  0  0  0  0  0  0  0  0  0
   37.3610   26.7360   33.5220 C   0  0  0  0  0  0  0  0  0  0  0  0
   36.7450   28.0130   33.5220 C   0  0  0  0  0  0  0  0  0  0  0  0
   35.8480   28.2220   32.5030 C   0  0  0  0  0  0  0  0  0  0  0  0
   35.6100   27.2260   31.5870 N   0  0  0  0  0  0  0  0  0  0  0  0
   36.2240   26.0230   31.6310 C   0  0  0  0  0  0  0  0  0  0  0  0
   37.1210   25.7870   32.6320 N   0  0  0  0  0  0  0  0  0  0  0  0
   35.9650   25.0160   30.6940 N   0  0  0  0  0  0  0  0  0  0  0  0
   36.9320   28.7880   34.2370 H   0  0  0  0  0  0  0  0  0  0  0  0
   35.3220   29.1710   32.4150 H   0  0  0  0  0  0  0  0  0  0  0  0
   36.6900   24.2970   30.5060 H   0  0  0  0  0  0  0  0  0  0  0  0
   35.0380   25.0290   30.2140 H   0  0  0  0  0  0  0  0  0  0  0  0
   38.8430   24.7890   36.2730 O   0  0  0  0  0  0  0  0  0  0  0  0
   37.2640   22.7830   36.6270 O   0  0  0  0  0  0  0  0  0  0  0  0
   38.4760   23.2160   35.8690 P   0  0  1  0  0  0  0  0  0  0  0  0
   38.0200   23.1480   34.1990 O   0  0  0  0  0  0  0  0  0  0  0  0
   37.1260   23.5500   34.1170 H   0  0  0  0  0  0  0  0  0  0  0  0
   39.8300   22.2560   36.1360 O   0  0  0  0  0  0  0  0  0  0  0  0
   40.4550   22.0680   37.3460 C   0  0  0  0  0  0  0  0  0  0  0  0
   41.5370   21.4300   37.4190 O   0  0  0  0  0  0  0  0  0  0  0  0
   39.7100   22.6800   38.4200 N   0  0  0  0  0  0  0  0  0  0  0  0
   39.7060   23.7010   38.7040 H   0  0  0  0  0  0  0  0  0  0  0  0
   39.1930   21.8430   38.8230 H   0  0  0  0  0  0  0  0  0  0  0  0
  1  4  1  6  0  0  0
  1  3  1  0  0  0  0
  1  2  1  0  0  0  0
  2  5  1  0  0  0  0
  2  6  1  0  0  0  0
  3  2  1  0  0  0  0
  3  7  1  1  0  0  0
  3 19  1  0  0  0  0
  8  9  1  0  0  0  0
  8  1  1  0  0  0  0
  9 15  1  0  0  0  0
 10  9  2  0  0  0  0
 11 12  2  0  0  0  0
 11 10  1  0  0  0  0
 12 13  1  0  0  0  0
 13  8  2  0  0  0  0
 14 12  1  0  0  0  0
 16 10  1  0  0  0  0
 17 14  1  0  0  0  0
 18 14  1  0  0  0  0
 21 24  1  0  0  0  0
 21 19  1  0  0  0  0
 21 20  2  1  0  0  0
 22 21  1  0  0  0  0
 23 22  1  0  0  0  0
 24 25  1  0  0  0  0
 25 26  2  0  0  0  0
 25 27  1  0  0  0  0
 27 28  1  0  0  0  0
 27 29  1  0  0  0  0
M  END
>  <minimizedAffinity>
-5.00110722

$$$$

 OpenBabel03272504583D

 29 30  0  0  1  0  0  0  0  0999 V2000
   37.6540   26.2350   35.5410 C   0  0  1  0  0  0  0  0  0  0  0  0
   38.5220   27.3810   35.6410 C   0  0  0  0  0  0  0  0  0  0  0  0
   38.1160   26.8620   34.2990 C   0  0  2  0  0  0  0  0  0  0  0  0
   36.5220   26.3070   35.7030 H   0  0  0  0  0  0  0  0  0  0  0  0
   39.5740   27.1870   35.9400 H   0  0  0  0  0  0  0  0  0  0  0  0
   38.0540   28.0950   36.2920 H   0  0  0  0  0  0  0  0  0  0  0  0
   38.9910   26.7020   33.6900 H   0  0  0  0  0  0  0  0  0  0  0  0
   38.1600   24.8520   35.8310 C   0  0  0  0  0  0  0  0  0  0  0  0
   38.4490   24.0490   34.6990 C   0  0  0  0  0  0  0  0  0  0  0  0
   38.9080   22.7870   34.9880 C   0  0  0  0  0  0  0  0  0  0  0  0
   39.0540   22.3960   36.2960 N   0  0  0  0  0  0  0  0  0  0  0  0
   38.7640   23.2000   37.3420 C   0  0  0  0  0  0  0  0  0  0  0  0
   38.3050   24.4600   37.0870 N   0  0  0  0  0  0  0  0  0  0  0  0
   38.9100   22.7830   38.6710 N   0  0  0  0  0  0  0  0  0  0  0  0
   38.3340   24.3570   33.6790 H   0  0  0  0  0  0  0  0  0  0  0  0
   39.1580   22.0930   34.1870 H   0  0  0  0  0  0  0  0  0  0  0  0
   39.0670   23.4920   39.4130 H   0  0  0  0  0  0  0  0  0  0  0  0
   38.8550   21.7590   38.8640 H   0  0  0  0  0  0  0  0  0  0  0  0
   37.1380   27.6270   33.6380 O   0  0  0  0  0  0  0  0  0  0  0  0
   35.8830   27.9090   31.4050 O   0  0  0  0  0  0  0  0  0  0  0  0
   36.8520   27.0220   32.1140 P   0  0  1  0  0  0  0  0  0  0  0  0
   38.3120   27.1040   31.1840 O   0  0  0  0  0  0  0  0  0  0  0  0
   38.4680   28.0480   30.9580 H   0  0  0  0  0  0  0  0  0  0  0  0
   36.3460   25.4240   32.2500 O   0  0  0  0  0  0  0  0  0  0  0  0
   35.8830   24.6380   31.2220 C   0  0  0  0  0  0  0  0  0  0  0  0
   36.3130   23.4670   31.0630 O   0  0  0  0  0  0  0  0  0  0  0  0
   34.9030   25.3400   30.4270 N   0  0  0  0  0  0  0  0  0  0  0  0
   33.8740   25.4750   30.6420 H   0  0  0  0  0  0  0  0  0  0  0  0
   35.4910   25.6640   29.6030 H   0  0  0  0  0  0  0  0  0  0  0  0
  1  2  1  0  0  0  0
  1  4  1  1  0  0  0
  1  8  1  0  0  0  0
  2  5  1  0  0  0  0
  2  6  1  0  0  0  0
  3  7  1  6  0  0  0
  3  1  1  0  0  0  0
  3  2  1  0  0  0  0
  8 13  1  0  0  0  0
  9 10  1  0  0  0  0
  9  8  2  0  0  0  0
 10 11  2  0  0  0  0
 11 12  1  0  0  0  0
 12 14  1  0  0  0  0
 13 12  2  0  0  0  0
 14 18  1  0  0  0  0
 14 17  1  0  0  0  0
 15  9  1  0  0  0  0
 16 10  1  0  0  0  0
 19  3  1  0  0  0  0
 21 20  2  6  0  0  0
 21 24  1  0  0  0  0
 21 19  1  0  0  0  0
 22 21  1  0  0  0  0
 23 22  1  0  0  0  0
 25 24  1  0  0  0  0
 26 25  2  0  0  0  0
 27 28  1  0  0  0  0
 27 25  1  0  0  0  0
 29 27  1  0  0  0  0
M  END
>  <minimizedAffinity>
-4.94223976

$$$$

 OpenBabel03272504583D

 29 30  0  0  1  0  0  0  0  0999 V2000
   37.6140   26.2720   35.6220 C   0  0  1  0  0  0  0  0  0  0  0  0
   38.4710   27.4300   35.6180 C   0  0  0  0  0  0  0  0  0  0  0  0
   37.9610   26.8690   34.3290 C   0  0  2  0  0  0  0  0  0  0  0  0
   36.4990   26.3340   35.8760 H   0  0  0  0  0  0  0  0  0  0  0  0
   39.5470   27.2570   35.8330 H   0  0  0  0  0  0  0  0  0  0  0  0
   38.0490   28.1560   36.2870 H   0  0  0  0  0  0  0  0  0  0  0  0
   38.7850   26.7030   33.6530 H   0  0  0  0  0  0  0  0  0  0  0  0
   38.1620   24.9030   35.9040 C   0  0  0  0  0  0  0  0  0  0  0  0
   38.5530   24.1470   34.7700 C   0  0  0  0  0  0  0  0  0  0  0  0
   39.0500   22.8980   35.0520 C   0  0  0  0  0  0  0  0  0  0  0  0
   39.1330   22.4730   36.3560 N   0  0  0  0  0  0  0  0  0  0  0  0
   38.7460   23.2340   37.4040 C   0  0  0  0  0  0  0  0  0  0  0  0
   38.2490   24.4800   37.1550 N   0  0  0  0  0  0  0  0  0  0  0  0
   38.8300   22.7830   38.7270 N   0  0  0  0  0  0  0  0  0  0  0  0
   38.4870   24.4800   33.7540 H   0  0  0  0  0  0  0  0  0  0  0  0
   39.3770   22.2390   34.2500 H   0  0  0  0  0  0  0  0  0  0  0  0
   38.9100   23.4760   39.4960 H   0  0  0  0  0  0  0  0  0  0  0  0
   38.8090   21.7520   38.8880 H   0  0  0  0  0  0  0  0  0  0  0  0
   36.9210   27.6040   33.7320 O   0  0  0  0  0  0  0  0  0  0  0  0
   38.1030   26.5540   31.6970 O   0  0  0  0  0  0  0  0  0  0  0  0
   36.9750   27.4560   32.0750 P   0  0  1  0  0  0  0  0  0  0  0  0
   35.5420   26.6500   31.5290 O   0  0  0  0  0  0  0  0  0  0  0  0
   35.6190   25.7020   31.7790 H   0  0  0  0  0  0  0  0  0  0  0  0
   37.0670   28.9910   31.3950 O   0  0  0  0  0  0  0  0  0  0  0  0
   36.8840   29.2920   30.0660 C   0  0  0  0  0  0  0  0  0  0  0  0
   36.7370   30.4840   29.6910 O   0  0  0  0  0  0  0  0  0  0  0  0
   36.8880   28.0990   29.2530 N   0  0  0  0  0  0  0  0  0  0  0  0
   37.7300   27.5590   28.9020 H   0  0  0  0  0  0  0  0  0  0  0  0
   35.8470   27.9320   29.1180 H   0  0  0  0  0  0  0  0  0  0  0  0
  1  4  1  1  0  0  0
  1  8  1  0  0  0  0
  2  1  1  0  0  0  0
  2  5  1  0  0  0  0
  2  6  1  0  0  0  0
  3  7  1  6  0  0  0
  3  2  1  0  0  0  0
  3  1  1  0  0  0  0
  8 13  1  0  0  0  0
  9 10  1  0  0  0  0
  9  8  2  0  0  0  0
 10 11  2  0  0  0  0
 11 12  1  0  0  0  0
 12 14  1  0  0  0  0
 13 12  2  0  0  0  0
 14 18  1  0  0  0  0
 14 17  1  0  0  0  0
 15  9  1  0  0  0  0
 16 10  1  0  0  0  0
 19  3  1  0  0  0  0
 21 20  2  6  0  0  0
 21 19  1  0  0  0  0
 22 23  1  0  0  0  0
 22 21  1  0  0  0  0
 24 21  1  0  0  0  0
 25 24  1  0  0  0  0
 26 25  2  0  0  0  0
 27 25  1  0  0  0  0
 28 27  1  0  0  0  0
 29 27  1  0  0  0  0
M  END
>  <minimizedAffinity>
-4.882967

$$$$

 OpenBabel03272504583D

 29 30  0  0  1  0  0  0  0  0999 V2000
   37.5630   26.0400   35.3730 C   0  0  1  0  0  0  0  0  0  0  0  0
   37.9390   27.4250   35.5010 C   0  0  0  0  0  0  0  0  0  0  0  0
   38.0710   26.7310   34.1830 C   0  0  2  0  0  0  0  0  0  0  0  0
   36.4700   25.7070   35.2830 H   0  0  0  0  0  0  0  0  0  0  0  0
   38.8890   27.6380   36.0370 H   0  0  0  0  0  0  0  0  0  0  0  0
   37.1130   27.9530   35.9410 H   0  0  0  0  0  0  0  0  0  0  0  0
   39.0680   26.8680   33.7980 H   0  0  0  0  0  0  0  0  0  0  0  0
   38.4210   24.9480   35.9400 C   0  0  0  0  0  0  0  0  0  0  0  0
   39.5800   24.6200   35.1920 C   0  0  0  0  0  0  0  0  0  0  0  0
   40.3500   23.6170   35.7290 C   0  0  0  0  0  0  0  0  0  0  0  0
   39.9680   23.0170   36.9040 N   0  0  0  0  0  0  0  0  0  0  0  0
   38.8520   23.3660   37.5800 C   0  0  0  0  0  0  0  0  0  0  0  0
   38.0660   24.3600   37.0710 N   0  0  0  0  0  0  0  0  0  0  0  0
   38.4710   22.7380   38.7720 N   0  0  0  0  0  0  0  0  0  0  0  0
   39.8770   25.0900   34.2760 H   0  0  0  0  0  0  0  0  0  0  0  0
   41.2620   23.2930   35.2300 H   0  0  0  0  0  0  0  0  0  0  0  0
   37.8770   23.2520   39.4510 H   0  0  0  0  0  0  0  0  0  0  0  0
   38.8070   21.7630   38.9330 H   0  0  0  0  0  0  0  0  0  0  0  0
   37.0830   27.0600   33.2380 O   0  0  0  0  0  0  0  0  0  0  0  0
   36.4920   24.7450   32.2740 O   0  0  0  0  0  0  0  0  0  0  0  0
   37.1600   26.0350   31.9290 P   0  0  1  0  0  0  0  0  0  0  0  0
   36.2270   26.6990   30.6290 O   0  0  0  0  0  0  0  0  0  0  0  0
   35.2770   26.5960   30.8600 H   0  0  0  0  0  0  0  0  0  0  0  0
   38.7660   25.8710   31.4610 O   0  0  0  0  0  0  0  0  0  0  0  0
   39.2100   25.2510   30.3170 C   0  0  0  0  0  0  0  0  0  0  0  0
   40.3560   25.4920   29.8580 O   0  0  0  0  0  0  0  0  0  0  0  0
   38.2100   24.3560   29.7860 N   0  0  0  0  0  0  0  0  0  0  0  0
   37.9910   23.3690   30.1050 H   0  0  0  0  0  0  0  0  0  0  0  0
   37.7800   24.9510   29.0160 H   0  0  0  0  0  0  0  0  0  0  0  0
  1  4  1  1  0  0  0
  1  2  1  0  0  0  0
  1  8  1  0  0  0  0
  2  6  1  0  0  0  0
  2  5  1  0  0  0  0
  3  7  1  6  0  0  0
  3  1  1  0  0  0  0
  3  2  1  0  0  0  0
  8 13  1  0  0  0  0
  9 10  1  0  0  0  0
  9  8  2  0  0  0  0
 10 11  2  0  0  0  0
 11 12  1  0  0  0  0
 12 14  1  0  0  0  0
 13 12  2  0  0  0  0
 14 18  1  0  0  0  0
 14 17  1  0  0  0  0
 15  9  1  0  0  0  0
 16 10  1  0  0  0  0
 19  3  1  0  0  0  0
 21 20  2  1  0  0  0
 21 19  1  0  0  0  0
 22 23  1  0  0  0  0
 22 21  1  0  0  0  0
 24 21  1  0  0  0  0
 25 24  1  0  0  0  0
 26 25  2  0  0  0  0
 27 28  1  0  0  0  0
 27 25  1  0  0  0  0
 29 27  1  0  0  0  0
M  END
>  <minimizedAffinity>
-4.61498308

$$$$

 OpenBabel03272504583D

 29 30  0  0  1  0  0  0  0  0999 V2000
   36.4120   23.2750   31.2250 C   0  0  1  0  0  0  0  0  0  0  0  0
   35.4300   24.3260   31.1350 C   0  0  0  0  0  0  0  0  0  0  0  0
   36.5300   24.4110   32.1440 C   0  0  2  0  0  0  0  0  0  0  0  0
   37.2830   23.1840   30.4870 H   0  0  0  0  0  0  0  0  0  0  0  0
   34.4180   24.1010   31.5350 H   0  0  0  0  0  0  0  0  0  0  0  0
   35.3850   24.6490   30.1120 H   0  0  0  0  0  0  0  0  0  0  0  0
   36.1140   24.5980   33.1210 H   0  0  0  0  0  0  0  0  0  0  0  0
   36.0710   21.9450   31.8330 C   0  0  0  0  0  0  0  0  0  0  0  0
   35.8900   20.8760   30.9190 C   0  0  0  0  0  0  0  0  0  0  0  0
   35.5770   19.6700   31.4970 C   0  0  0  0  0  0  0  0  0  0  0  0
   35.4630   19.5750   32.8630 N   0  0  0  0  0  0  0  0  0  0  0  0
   35.6440   20.6260   33.6910 C   0  0  0  0  0  0  0  0  0  0  0  0
   35.9560   21.8380   33.1470 N   0  0  0  0  0  0  0  0  0  0  0  0
   35.5150   20.5150   35.0810 N   0  0  0  0  0  0  0  0  0  0  0  0
   35.9800   20.9520   29.8550 H   0  0  0  0  0  0  0  0  0  0  0  0
   35.4190   18.7860   30.8810 H   0  0  0  0  0  0  0  0  0  0  0  0
   36.0230   21.1810   35.6940 H   0  0  0  0  0  0  0  0  0  0  0  0
   34.9050   19.7530   35.4500 H   0  0  0  0  0  0  0  0  0  0  0  0
   37.5610   25.3120   31.8220 O   0  0  0  0  0  0  0  0  0  0  0  0
   39.2390   26.9590   32.8760 O   0  0  0  0  0  0  0  0  0  0  0  0
   37.9530   26.2500   33.1400 P   0  0  1  0  0  0  0  0  0  0  0  0
   36.7690   27.5010   33.3210 O   0  0  0  0  0  0  0  0  0  0  0  0
   36.9180   28.1580   32.6040 H   0  0  0  0  0  0  0  0  0  0  0  0
   37.9760   25.2770   34.5120 O   0  0  0  0  0  0  0  0  0  0  0  0
   38.1190   25.7170   35.8060 C   0  0  0  0  0  0  0  0  0  0  0  0
   37.9150   24.9420   36.7760 O   0  0  0  0  0  0  0  0  0  0  0  0
   38.5080   27.1060   35.8460 N   0  0  0  0  0  0  0  0  0  0  0  0
   39.4800   27.5090   35.7170 H   0  0  0  0  0  0  0  0  0  0  0  0
   37.5750   27.5820   36.0340 H   0  0  0  0  0  0  0  0  0  0  0  0
  1  4  1  6  0  0  0
  1  8  1  0  0  0  0
  1  3  1  0  0  0  0
  2  1  1  0  0  0  0
  2  5  1  0  0  0  0
  2  3  1  0  0  0  0
  3  7  1  1  0  0  0
  6  2  1  0  0  0  0
  8 13  1  0  0  0  0
  9 10  1  0  0  0  0
  9  8  2  0  0  0  0
 10 11  2  0  0  0  0
 11 12  1  0  0  0  0
 12 14  1  0  0  0  0
 13 12  2  0  0  0  0
 14 18  1  0  0  0  0
 14 17  1  0  0  0  0
 15  9  1  0  0  0  0
 16 10  1  0  0  0  0
 19  3  1  0  0  0  0
 19 21  1  0  0  0  0
 21 20  2  6  0  0  0
 21 22  1  0  0  0  0
 21 24  1  0  0  0  0
 23 22  1  0  0  0  0
 24 25  1  0  0  0  0
 25 27  1  0  0  0  0
 25 26  2  0  0  0  0
 27 29  1  0  0  0  0
 28 27  1  0  0  0  0
M  END
>  <minimizedAffinity>
-4.35887098

$$$$

 OpenBabel03272504583D

 29 30  0  0  1  0  0  0  0  0999 V2000
   36.9260   27.1500   32.5190 C   0  0  1  0  0  0  0  0  0  0  0  0
   38.1690   27.1470   31.7890 C   0  0  0  0  0  0  0  0  0  0  0  0
   38.1710   26.9770   33.2750 C   0  0  2  0  0  0  0  0  0  0  0  0
   36.2330   26.2390   32.5550 H   0  0  0  0  0  0  0  0  0  0  0  0
   38.5280   28.1280   31.4100 H   0  0  0  0  0  0  0  0  0  0  0  0
   38.0840   26.4270   30.9970 H   0  0  0  0  0  0  0  0  0  0  0  0
   38.8500   27.6860   33.7210 H   0  0  0  0  0  0  0  0  0  0  0  0
   36.1650   28.4230   32.7490 C   0  0  0  0  0  0  0  0  0  0  0  0
   35.9870   28.8010   34.1040 C   0  0  0  0  0  0  0  0  0  0  0  0
   35.2870   29.9680   34.2910 C   0  0  0  0  0  0  0  0  0  0  0  0
   34.8210   30.6680   33.2040 N   0  0  0  0  0  0  0  0  0  0  0  0
   35.0180   30.2640   31.9300 C   0  0  0  0  0  0  0  0  0  0  0  0
   35.7100   29.1090   31.7130 N   0  0  0  0  0  0  0  0  0  0  0  0
   34.5290   30.9840   30.8330 N   0  0  0  0  0  0  0  0  0  0  0  0
   36.3510   28.2540   34.9500 H   0  0  0  0  0  0  0  0  0  0  0  0
   35.0970   30.3440   35.2950 H   0  0  0  0  0  0  0  0  0  0  0  0
   35.0020   30.8940   29.9140 H   0  0  0  0  0  0  0  0  0  0  0  0
   33.6950   31.5930   30.9880 H   0  0  0  0  0  0  0  0  0  0  0  0
   38.4000   25.6640   33.7210 O   0  0  0  0  0  0  0  0  0  0  0  0
   40.1770   24.9570   35.4490 O   0  0  0  0  0  0  0  0  0  0  0  0
   38.8660   25.6610   35.3190 P   0  0  1  0  0  0  0  0  0  0  0  0
   39.1700   27.2890   35.8270 O   0  0  0  0  0  0  0  0  0  0  0  0
   40.0130   27.5790   35.4120 H   0  0  0  0  0  0  0  0  0  0  0  0
   37.6330   24.9890   36.2440 O   0  0  0  0  0  0  0  0  0  0  0  0
   37.8020   24.1460   37.3160 C   0  0  0  0  0  0  0  0  0  0  0  0
   38.0120   24.6040   38.4690 O   0  0  0  0  0  0  0  0  0  0  0  0
   37.7060   22.7630   36.9140 N   0  0  0  0  0  0  0  0  0  0  0  0
   36.8240   22.1980   36.7480 H   0  0  0  0  0  0  0  0  0  0  0  0
   38.7310   22.4920   36.8390 H   0  0  0  0  0  0  0  0  0  0  0  0
  1  4  1  6  0  0  0
  1  8  1  0  0  0  0
  1  3  1  0  0  0  0
  2  1  1  0  0  0  0
  2  3  1  0  0  0  0
  3  7  1  1  0  0  0
  3 19  1  0  0  0  0
  5  2  1  0  0  0  0
  6  2  1  0  0  0  0
  8  9  1  0  0  0  0
  9 10  2  0  0  0  0
  9 15  1  0  0  0  0
 10 16  1  0  0  0  0
 11 10  1  0  0  0  0
 12 11  2  0  0  0  0
 13 12  1  0  0  0  0
 13  8  2  0  0  0  0
 14 18  1  0  0  0  0
 14 12  1  0  0  0  0
 17 14  1  0  0  0  0
 19 21  1  0  0  0  0
 21 20  2  1  0  0  0
 21 22  1  0  0  0  0
 21 24  1  0  0  0  0
 23 22  1  0  0  0  0
 24 25  1  0  0  0  0
 25 26  2  0  0  0  0
 27 25  1  0  0  0  0
 28 27  1  0  0  0  0
 29 27  1  0  0  0  0
M  END
>  <minimizedAffinity>
-4.35208511

$$$$

 OpenBabel03272504583D

 29 30  0  0  1  0  0  0  0  0999 V2000
   35.3980   28.7250   32.9500 C   0  0  1  0  0  0  0  0  0  0  0  0
   36.1220   28.5850   34.1880 C   0  0  0  0  0  0  0  0  0  0  0  0
   35.0820   29.6490   34.0430 C   0  0  2  0  0  0  0  0  0  0  0  0
   34.5310   28.0330   32.6640 H   0  0  0  0  0  0  0  0  0  0  0  0
   37.1770   28.9320   34.1930 H   0  0  0  0  0  0  0  0  0  0  0  0
   36.0440   27.5600   34.5020 H   0  0  0  0  0  0  0  0  0  0  0  0
   35.4960   30.6040   34.3260 H   0  0  0  0  0  0  0  0  0  0  0  0
   36.0500   29.3140   31.7330 C   0  0  0  0  0  0  0  0  0  0  0  0
   36.1940   30.7240   31.7290 C   0  0  0  0  0  0  0  0  0  0  0  0
   36.7920   31.2410   30.6060 C   0  0  0  0  0  0  0  0  0  0  0  0
   37.1960   30.3990   29.5980 N   0  0  0  0  0  0  0  0  0  0  0  0
   37.0360   29.0590   29.6500 C   0  0  0  0  0  0  0  0  0  0  0  0
   36.4460   28.5160   30.7540 N   0  0  0  0  0  0  0  0  0  0  0  0
   37.4470   28.2150   28.6100 N   0  0  0  0  0  0  0  0  0  0  0  0
   35.8780   31.3790   32.5160 H   0  0  0  0  0  0  0  0  0  0  0  0
   36.9480   32.3140   30.5060 H   0  0  0  0  0  0  0  0  0  0  0  0
   37.6780   27.2250   28.8200 H   0  0  0  0  0  0  0  0  0  0  0  0
   37.5050   28.6230   27.6520 H   0  0  0  0  0  0  0  0  0  0  0  0
   33.8640   29.3810   34.6940 O   0  0  0  0  0  0  0  0  0  0  0  0
   31.9660   31.1090   34.4670 O   0  0  0  0  0  0  0  0  0  0  0  0
   33.1850   30.7890   35.2680 P   0  0  1  0  0  0  0  0  0  0  0  0
   32.6160   30.5300   36.8840 O   0  0  0  0  0  0  0  0  0  0  0  0
   31.8090   29.9700   36.8300 H   0  0  0  0  0  0  0  0  0  0  0  0
   34.3510   32.0000   35.2550 O   0  0  0  0  0  0  0  0  0  0  0  0
   35.3400   32.1720   36.1930 C   0  0  0  0  0  0  0  0  0  0  0  0
   36.5460   32.2670   35.8480 O   0  0  0  0  0  0  0  0  0  0  0  0
   34.7920   32.2180   37.5280 N   0  0  0  0  0  0  0  0  0  0  0  0
   34.3390   33.0450   38.0130 H   0  0  0  0  0  0  0  0  0  0  0  0
   34.9700   31.2250   37.8640 H   0  0  0  0  0  0  0  0  0  0  0  0
  1  4  1  6  0  0  0
  1  3  1  0  0  0  0
  1  2  1  0  0  0  0
  2  5  1  0  0  0  0
  2  6  1  0  0  0  0
  3  2  1  0  0  0  0
  3  7  1  6  0  0  0
  3 19  1  0  0  0  0
  8  1  1  0  0  0  0
  9  8  1  0  0  0  0
  9 15  1  0  0  0  0
 10  9  2  0  0  0  0
 11 12  2  0  0  0  0
 11 10  1  0  0  0  0
 12 13  1  0  0  0  0
 13  8  2  0  0  0  0
 14 17  1  0  0  0  0
 14 12  1  0  0  0  0
 16 10  1  0  0  0  0
 18 14  1  0  0  0  0
 19 21  1  0  0  0  0
 21 20  2  6  0  0  0
 21 22  1  0  0  0  0
 23 22  1  0  0  0  0
 24 21  1  0  0  0  0
 24 25  1  0  0  0  0
 25 27  1  0  0  0  0
 26 25  2  0  0  0  0
 27 29  1  0  0  0  0
 27 28  1  0  0  0  0
M  END
>  <minimizedAffinity>
-4.34683323

$$$$

 OpenBabel03272504583D

 29 30  0  0  1  0  0  0  0  0999 V2000
   39.0960   22.7580   33.8800 C   0  0  1  0  0  0  0  0  0  0  0  0
   37.8900   22.0160   33.6100 C   0  0  0  0  0  0  0  0  0  0  0  0
   37.8300   23.4950   33.8210 C   0  0  2  0  0  0  0  0  0  0  0  0
   39.8380   23.0450   33.0560 H   0  0  0  0  0  0  0  0  0  0  0  0
   37.4930   21.3890   34.4360 H   0  0  0  0  0  0  0  0  0  0  0  0
   38.0520   21.4360   32.7200 H   0  0  0  0  0  0  0  0  0  0  0  0
   37.0910   23.7260   34.5710 H   0  0  0  0  0  0  0  0  0  0  0  0
   39.7710   22.6790   35.2180 C   0  0  0  0  0  0  0  0  0  0  0  0
   41.1710   22.4550   35.1930 C   0  0  0  0  0  0  0  0  0  0  0  0
   41.7670   22.3850   36.4280 C   0  0  0  0  0  0  0  0  0  0  0  0
   41.0070   22.5280   37.5640 N   0  0  0  0  0  0  0  0  0  0  0  0
   39.6730   22.7390   37.5340 C   0  0  0  0  0  0  0  0  0  0  0  0
   39.0520   22.8140   36.3220 N   0  0  0  0  0  0  0  0  0  0  0  0
   38.9110   22.8740   38.7010 N   0  0  0  0  0  0  0  0  0  0  0  0
   41.7620   22.3450   34.3070 H   0  0  0  0  0  0  0  0  0  0  0  0
   42.8390   22.2160   36.5160 H   0  0  0  0  0  0  0  0  0  0  0  0
   38.0210   23.4070   38.6690 H   0  0  0  0  0  0  0  0  0  0  0  0
   39.2760   22.4270   39.5710 H   0  0  0  0  0  0  0  0  0  0  0  0
   37.6560   24.2540   32.6490 O   0  0  0  0  0  0  0  0  0  0  0  0
   39.3080   26.2020   32.3120 O   0  0  0  0  0  0  0  0  0  0  0  0
   37.9960   25.8580   32.9360 P   0  0  1  0  0  0  0  0  0  0  0  0
   36.8290   26.8430   32.1180 O   0  0  0  0  0  0  0  0  0  0  0  0
   37.0270   26.8040   31.1560 H   0  0  0  0  0  0  0  0  0  0  0  0
   37.9300   26.1400   34.5920 O   0  0  0  0  0  0  0  0  0  0  0  0
   37.7070   27.3580   35.1900 C   0  0  0  0  0  0  0  0  0  0  0  0
   36.7650   28.0990   34.8100 O   0  0  0  0  0  0  0  0  0  0  0  0
   38.6660   27.6080   36.2400 N   0  0  0  0  0  0  0  0  0  0  0  0
   38.6490   27.2390   37.2330 H   0  0  0  0  0  0  0  0  0  0  0  0
   39.3610   28.2420   35.7440 H   0  0  0  0  0  0  0  0  0  0  0  0
  1  4  1  6  0  0  0
  1  8  1  0  0  0  0
  2  3  1  0  0  0  0
  2  1  1  0  0  0  0
  2  5  1  0  0  0  0
  3  1  1  0  0  0  0
  3  7  1  1  0  0  0
  6  2  1  0  0  0  0
  8 13  1  0  0  0  0
  9  8  2  0  0  0  0
  9 10  1  0  0  0  0
 10 16  1  0  0  0  0
 10 11  2  0  0  0  0
 12 11  1  0  0  0  0
 12 14  1  0  0  0  0
 13 12  2  0  0  0  0
 14 18  1  0  0  0  0
 15  9  1  0  0  0  0
 17 14  1  0  0  0  0
 19 21  1  0  0  0  0
 19  3  1  0  0  0  0
 21 20  2  6  0  0  0
 21 24  1  0  0  0  0
 22 21  1  0  0  0  0
 23 22  1  0  0  0  0
 24 25  1  0  0  0  0
 25 27  1  0  0  0  0
 26 25  2  0  0  0  0
 27 28  1  0  0  0  0
 29 27  1  0  0  0  0
M  END
>  <minimizedAffinity>
-4.34163857

$$$$
