
 OpenBabel03262521013D

 33 34  0  0  1  0  0  0  0  0999 V2000
   39.8010   33.0040   45.9580 N   0  0  0  0  0  0  0  0  0  0  0  0
   38.4820   32.4570   46.0490 C   0  0  1  0  0  0  0  0  0  0  0  0
   37.9520   32.1650   44.6730 C   0  0  0  0  0  0  0  0  0  0  0  0
   38.8680   31.2140   44.0460 N   0  0  0  0  0  0  0  0  0  0  0  0
   40.0950   31.9970   43.8040 C   0  0  0  0  0  0  0  0  0  0  0  0
   40.7100   32.2290   45.1820 C   0  0  2  0  0  0  0  0  0  0  0  0
   40.1820   33.4210   46.8100 H   0  0  0  0  0  0  0  0  0  0  0  0
   37.8220   33.1580   46.5690 H   0  0  0  0  0  0  0  0  0  0  0  0
   37.8460   33.0630   44.0450 H   0  0  0  0  0  0  0  0  0  0  0  0
   36.9600   31.6630   44.8140 H   0  0  0  0  0  0  0  0  0  0  0  0
   39.0560   30.4310   44.6950 H   0  0  0  0  0  0  0  0  0  0  0  0
   39.7820   32.9590   43.3630 H   0  0  0  0  0  0  0  0  0  0  0  0
   40.8010   31.4610   43.1670 H   0  0  0  0  0  0  0  0  0  0  0  0
   41.6220   32.8450   45.0180 H   0  0  0  0  0  0  0  0  0  0  0  0
   41.0340   30.9440   45.7630 N   0  0  0  0  0  0  0  0  0  0  0  0
   41.2370   31.1030   46.7920 H   0  0  0  0  0  0  0  0  0  0  0  0
   41.9750   30.6670   45.3530 H   0  0  0  0  0  0  0  0  0  0  0  0
   38.4630   30.8560   46.9530 S   0  0  0  0  0  0  0  0  0  0  0  0
   35.7140   30.8260   49.9230 C   0  0  0  0  0  0  0  0  0  0  0  0
   36.9250   30.9520   49.2720 C   0  0  0  0  0  0  0  0  0  0  0  0
   36.9820   30.7320   47.9250 C   0  0  0  0  0  0  0  0  0  0  0  0
   35.8160   30.3880   47.2590 N   0  0  0  0  0  0  0  0  0  0  0  0
   34.6790   30.2830   47.9490 C   0  0  0  0  0  0  0  0  0  0  0  0
   34.5960   30.4940   49.2630 N   0  0  0  0  0  0  0  0  0  0  0  0
   35.6370   30.9950   50.9940 H   0  0  0  0  0  0  0  0  0  0  0  0
   37.8250   31.2200   49.7980 H   0  0  0  0  0  0  0  0  0  0  0  0
   33.4560   29.9190   47.2280 C   0  0  0  0  0  0  0  0  0  0  0  0
   33.0790   30.4780   46.1690 O   0  0  0  0  0  0  0  0  0  0  0  0
   32.5200   26.8460   48.6160 H   0  0  0  0  0  0  0  0  0  0  0  0
   33.1570   27.6410   48.2210 C   0  0  0  0  0  0  0  0  0  0  0  0
   34.3970   27.4390   48.1900 O   0  0  0  0  0  0  0  0  0  0  0  0
   32.6330   28.8670   47.7520 N   0  0  0  0  0  0  0  0  0  0  0  0
   31.5930   29.0410   47.7760 H   0  0  0  0  0  0  0  0  0  0  0  0
  1  2  1  0  0  0  0
  1  7  1  0  0  0  0
  2  8  1  1  0  0  0
  2 18  1  0  0  0  0
  3 10  1  0  0  0  0
  3  2  1  0  0  0  0
  4  3  1  0  0  0  0
  4 11  1  0  0  0  0
  5  4  1  0  0  0  0
  5  6  1  0  0  0  0
  6 14  1  6  0  0  0
  6 15  1  0  0  0  0
  6  1  1  0  0  0  0
  9  3  1  0  0  0  0
 12  5  1  0  0  0  0
 13  5  1  0  0  0  0
 15 16  1  0  0  0  0
 17 15  1  0  0  0  0
 18 21  1  0  0  0  0
 19 25  1  0  0  0  0
 20 26  1  0  0  0  0
 20 19  1  0  0  0  0
 21 20  2  0  0  0  0
 22 21  1  0  0  0  0
 22 23  2  0  0  0  0
 23 24  1  0  0  0  0
 24 19  2  0  0  0  0
 27 32  1  0  0  0  0
 27 23  1  0  0  0  0
 28 27  2  0  0  0  0
 30 29  1  0  0  0  0
 31 30  2  0  0  0  0
 32 33  1  0  0  0  0
 32 30  1  0  0  0  0
M  END
>  <minimizedAffinity>
-5.58138561

>  <minimizedRMSD>
2.54632139

$$$$
