
 OpenBabel03272509453D

 15 15  0  0  0  0  0  0  0  0999 V2000
   37.4710   30.2900   51.3300 C   0  0  0  0  0  0  0  0  0  0  0  0
   38.2050   30.9260   50.3240 C   0  0  0  0  0  0  0  0  0  0  0  0
   37.8940   30.6480   48.9890 C   0  0  0  0  0  0  0  0  0  0  0  0
   36.8830   29.7640   48.7400 N   0  0  0  0  0  0  0  0  0  0  0  0
   36.1950   29.1650   49.7340 C   0  0  0  0  0  0  0  0  0  0  0  0
   36.4880   29.4290   51.0370 N   0  0  0  0  0  0  0  0  0  0  0  0
   37.7080   30.5010   52.3770 H   0  0  0  0  0  0  0  0  0  0  0  0
   38.9890   31.6130   50.5700 H   0  0  0  0  0  0  0  0  0  0  0  0
   38.4310   31.1150   48.1630 H   0  0  0  0  0  0  0  0  0  0  0  0
   35.2100   28.3020   49.2850 O   0  0  0  0  0  0  0  0  0  0  0  0
   33.8480   28.6010   49.4810 C   0  0  0  0  0  0  0  0  0  0  0  0
   32.8630   27.9750   48.9600 O   0  0  0  0  0  0  0  0  0  0  0  0
   33.4520   29.6810   50.3190 N   0  0  0  0  0  0  0  0  0  0  0  0
   33.8880   30.5350   49.8750 H   0  0  0  0  0  0  0  0  0  0  0  0
   32.8910   29.8410   51.1840 H   0  0  0  0  0  0  0  0  0  0  0  0
  1  7  1  0  0  0  0
  2  8  1  0  0  0  0
  2  1  2  0  0  0  0
  3  2  1  0  0  0  0
  4  3  2  0  0  0  0
  4  5  1  0  0  0  0
  5  6  2  0  0  0  0
  6  1  1  0  0  0  0
  9  3  1  0  0  0  0
 10 11  1  0  0  0  0
 10  5  1  0  0  0  0
 11 13  1  0  0  0  0
 12 11  2  0  0  0  0
 13 15  1  0  0  0  0
 14 13  1  0  0  0  0
M  END
>  <minimizedAffinity>
-3.89389944

>  <minimizedRMSD>
0.411532849

$$$$
