
 OpenBabel03272510313D

 28 29  0  0  0  0  0  0  0  0999 V2000
   37.3540   31.3560   49.3860 C   0  0  0  0  0  0  0  0  0  0  0  0
   38.3040   32.3530   49.4990 C   0  0  0  0  0  0  0  0  0  0  0  0
   38.8230   32.8080   48.2950 C   0  0  0  0  0  0  0  0  0  0  0  0
   38.4050   32.2900   47.1170 N   0  0  0  0  0  0  0  0  0  0  0  0
   37.4670   31.3070   47.0460 C   0  0  0  0  0  0  0  0  0  0  0  0
   36.9530   30.8540   48.2200 N   0  0  0  0  0  0  0  0  0  0  0  0
   38.5780   32.7060   50.4820 H   0  0  0  0  0  0  0  0  0  0  0  0
   39.5710   33.5870   48.3550 H   0  0  0  0  0  0  0  0  0  0  0  0
   36.7370   30.8460   50.6590 C   0  0  0  0  0  0  0  0  0  0  0  0
   36.0390   29.6050   50.7410 C   0  0  0  0  0  0  0  0  0  0  0  0
   37.4870   29.6110   51.2110 C   0  0  0  0  0  0  0  0  0  0  0  0
   36.6060   31.6500   51.4070 H   0  0  0  0  0  0  0  0  0  0  0  0
   35.8410   28.9120   49.9260 H   0  0  0  0  0  0  0  0  0  0  0  0
   35.3040   29.4910   51.5820 H   0  0  0  0  0  0  0  0  0  0  0  0
   38.2580   29.1430   50.5790 H   0  0  0  0  0  0  0  0  0  0  0  0
   37.7200   29.6170   52.2860 H   0  0  0  0  0  0  0  0  0  0  0  0
   36.9810   30.7260   45.7920 C   0  0  0  0  0  0  0  0  0  0  0  0
   36.4030   29.8230   45.9720 H   0  0  0  0  0  0  0  0  0  0  0  0
   36.4080   31.4680   45.1960 H   0  0  0  0  0  0  0  0  0  0  0  0
   38.4210   30.9320   43.7310 C   0  0  0  0  0  0  0  0  0  0  0  0
   37.6920   31.7640   43.1540 O   0  0  0  0  0  0  0  0  0  0  0  0
   38.1890   30.3610   45.0320 N   0  0  0  0  0  0  0  0  0  0  0  0
   38.7470   29.6730   45.6180 H   0  0  0  0  0  0  0  0  0  0  0  0
   41.7140   31.4830   44.3140 H   0  0  0  0  0  0  0  0  0  0  0  0
   40.7570   31.0470   44.0080 C   0  0  0  0  0  0  0  0  0  0  0  0
   40.6370   32.1890   44.5530 O   0  0  0  0  0  0  0  0  0  0  0  0
   39.6110   30.2370   43.5020 N   0  0  0  0  0  0  0  0  0  0  0  0
   40.4760   29.7330   43.3350 H   0  0  0  0  0  0  0  0  0  0  0  0
  1  2  1  0  0  0  0
  1  9  1  0  0  0  0
  2  7  1  0  0  0  0
  3  8  1  0  0  0  0
  3  2  2  0  0  0  0
  4  3  1  0  0  0  0
  5  4  2  0  0  0  0
  5  6  1  0  0  0  0
  6  1  2  0  0  0  0
  9 10  1  0  0  0  0
  9 11  1  0  0  0  0
  9 12  1  0  0  0  0
 10 11  1  0  0  0  0
 10 14  1  0  0  0  0
 11 16  1  0  0  0  0
 13 10  1  0  0  0  0
 15 11  1  0  0  0  0
 17 18  1  0  0  0  0
 17  5  1  0  0  0  0
 19 17  1  0  0  0  0
 20 22  1  0  0  0  0
 21 20  2  0  0  0  0
 22 23  1  0  0  0  0
 22 17  1  0  0  0  0
 25 24  1  0  0  0  0
 25 26  2  0  0  0  0
 27 20  1  0  0  0  0
 27 25  1  0  0  0  0
 28 27  1  0  0  0  0
M  END
>  <minimizedAffinity>
-5.00731421

>  <minimizedRMSD>
2.00766754

$$$$
