
 OpenBabel03272503253D

 28 29  0  0  1  0  0  0  0  0999 V2000
   36.4850   29.8770   49.2700 N   0  0  0  0  0  0  0  0  0  0  0  0
   37.0700   31.1910   49.0910 C   0  0  1  0  0  0  0  0  0  0  0  0
   37.7900   31.3720   50.4250 C   0  0  0  0  0  0  0  0  0  0  0  0
   37.3400   30.2190   51.3130 C   0  0  0  0  0  0  0  0  0  0  0  0
   37.2370   29.1250   50.2540 C   0  0  0  0  0  0  0  0  0  0  0  0
   36.2990   31.9670   49.0420 H   0  0  0  0  0  0  0  0  0  0  0  0
   38.8760   31.2050   50.2370 H   0  0  0  0  0  0  0  0  0  0  0  0
   37.5970   32.3520   50.8750 H   0  0  0  0  0  0  0  0  0  0  0  0
   38.0660   29.9820   52.0870 H   0  0  0  0  0  0  0  0  0  0  0  0
   36.3010   30.4000   51.6850 H   0  0  0  0  0  0  0  0  0  0  0  0
   36.6630   28.3110   50.6930 H   0  0  0  0  0  0  0  0  0  0  0  0
   38.2470   28.8780   49.9040 H   0  0  0  0  0  0  0  0  0  0  0  0
   35.3330   29.4110   48.5750 C   0  0  0  0  0  0  0  0  0  0  0  0
   34.6840   30.2940   47.6980 C   0  0  0  0  0  0  0  0  0  0  0  0
   33.5460   29.8470   47.0130 C   0  0  0  0  0  0  0  0  0  0  0  0
   33.1370   28.5610   47.2450 N   0  0  0  0  0  0  0  0  0  0  0  0
   33.7840   27.7460   48.0890 C   0  0  0  0  0  0  0  0  0  0  0  0
   34.8880   28.1610   48.7640 N   0  0  0  0  0  0  0  0  0  0  0  0
   35.0040   31.3090   47.5130 H   0  0  0  0  0  0  0  0  0  0  0  0
   33.0380   30.5200   46.3350 H   0  0  0  0  0  0  0  0  0  0  0  0
   33.3740   26.7520   48.1970 H   0  0  0  0  0  0  0  0  0  0  0  0
   37.9990   31.2770   47.9640 C   0  0  0  0  0  0  0  0  0  0  0  0
   38.9840   31.9700   48.0310 O   0  0  0  0  0  0  0  0  0  0  0  0
   38.7710   29.9680   44.8260 H   0  0  0  0  0  0  0  0  0  0  0  0
   38.9510   30.4900   45.7560 C   0  0  0  0  0  0  0  0  0  0  0  0
   40.0660   31.0210   46.0820 O   0  0  0  0  0  0  0  0  0  0  0  0
   37.9020   30.6190   46.7080 N   0  0  0  0  0  0  0  0  0  0  0  0
   36.9940   30.2030   46.4730 H   0  0  0  0  0  0  0  0  0  0  0  0
  1  5  1  0  0  0  0
  2  6  1  6  0  0  0
  2  1  1  0  0  0  0
  2  3  1  0  0  0  0
  3  8  1  0  0  0  0
  3  4  1  0  0  0  0
  4 10  1  0  0  0  0
  4  9  1  0  0  0  0
  5 11  1  0  0  0  0
  5  4  1  0  0  0  0
  7  3  1  0  0  0  0
 12  5  1  0  0  0  0
 13 18  1  0  0  0  0
 13  1  1  0  0  0  0
 14 13  2  0  0  0  0
 15 16  2  0  0  0  0
 15 14  1  0  0  0  0
 16 17  1  0  0  0  0
 17 21  1  0  0  0  0
 17 18  2  0  0  0  0
 19 14  1  0  0  0  0
 20 15  1  0  0  0  0
 22 23  2  0  0  0  0
 22  2  1  0  0  0  0
 24 25  1  0  0  0  0
 25 26  2  0  0  0  0
 25 27  1  0  0  0  0
 27 22  1  0  0  0  0
 28 27  1  0  0  0  0
M  END
>  <minimizedAffinity>
-5.04688692

>  <minimizedRMSD>
0.565711737

$$$$
