
 OpenBabel03272510313D

 28 29  0  0  0  0  0  0  0  0999 V2000
   37.3360   31.4140   49.2460 C   0  0  0  0  0  0  0  0  0  0  0  0
   38.1880   32.4500   49.5760 C   0  0  0  0  0  0  0  0  0  0  0  0
   38.8770   33.0060   48.5070 C   0  0  0  0  0  0  0  0  0  0  0  0
   38.7010   32.5410   47.2480 N   0  0  0  0  0  0  0  0  0  0  0  0
   37.8520   31.5170   46.9630 C   0  0  0  0  0  0  0  0  0  0  0  0
   37.1730   30.9650   48.0040 N   0  0  0  0  0  0  0  0  0  0  0  0
   38.2680   32.7550   50.6090 H   0  0  0  0  0  0  0  0  0  0  0  0
   39.5540   33.8180   48.7370 H   0  0  0  0  0  0  0  0  0  0  0  0
   36.5420   30.7940   50.3640 C   0  0  0  0  0  0  0  0  0  0  0  0
   36.0870   29.4430   50.3350 C   0  0  0  0  0  0  0  0  0  0  0  0
   37.3570   29.7240   51.1260 C   0  0  0  0  0  0  0  0  0  0  0  0
   36.0930   31.5580   51.0250 H   0  0  0  0  0  0  0  0  0  0  0  0
   36.2180   28.7260   49.5270 H   0  0  0  0  0  0  0  0  0  0  0  0
   35.2090   29.1900   50.9880 H   0  0  0  0  0  0  0  0  0  0  0  0
   38.3280   29.4110   50.7110 H   0  0  0  0  0  0  0  0  0  0  0  0
   37.3260   29.7720   52.2250 H   0  0  0  0  0  0  0  0  0  0  0  0
   37.6260   30.9900   45.6150 C   0  0  0  0  0  0  0  0  0  0  0  0
   37.2370   29.9760   45.6460 H   0  0  0  0  0  0  0  0  0  0  0  0
   36.9700   31.6620   45.0220 H   0  0  0  0  0  0  0  0  0  0  0  0
   39.2730   31.9100   43.9410 C   0  0  0  0  0  0  0  0  0  0  0  0
   38.5280   32.8170   43.5200 O   0  0  0  0  0  0  0  0  0  0  0  0
   38.9520   30.9610   44.9750 N   0  0  0  0  0  0  0  0  0  0  0  0
   39.5100   30.1740   45.4180 H   0  0  0  0  0  0  0  0  0  0  0  0
   40.5760   29.1850   42.4030 H   0  0  0  0  0  0  0  0  0  0  0  0
   40.4490   30.1250   42.9490 C   0  0  0  0  0  0  0  0  0  0  0  0
   39.3480   29.5990   42.5940 O   0  0  0  0  0  0  0  0  0  0  0  0
   40.5560   31.4070   43.7060 N   0  0  0  0  0  0  0  0  0  0  0  0
   41.4870   31.0410   43.5340 H   0  0  0  0  0  0  0  0  0  0  0  0
  1  2  1  0  0  0  0
  1  9  1  0  0  0  0
  2  7  1  0  0  0  0
  3  8  1  0  0  0  0
  3  2  2  0  0  0  0
  4  3  1  0  0  0  0
  5  4  2  0  0  0  0
  5  6  1  0  0  0  0
  6  1  2  0  0  0  0
  9 12  1  0  0  0  0
  9 11  1  0  0  0  0
 10  9  1  0  0  0  0
 10 14  1  0  0  0  0
 10 11  1  0  0  0  0
 11 16  1  0  0  0  0
 13 10  1  0  0  0  0
 15 11  1  0  0  0  0
 17 18  1  0  0  0  0
 17  5  1  0  0  0  0
 19 17  1  0  0  0  0
 20 22  1  0  0  0  0
 21 20  2  0  0  0  0
 22 23  1  0  0  0  0
 22 17  1  0  0  0  0
 24 25  1  0  0  0  0
 25 27  1  0  0  0  0
 26 25  2  0  0  0  0
 27 20  1  0  0  0  0
 28 27  1  0  0  0  0
M  END
>  <minimizedAffinity>
-5.00853968

>  <minimizedRMSD>
1.59165537

$$$$
