
 OpenBabel03272510313D

 28 29  0  0  0  0  0  0  0  0999 V2000
   36.1140   30.8680   49.2720 C   0  0  0  0  0  0  0  0  0  0  0  0
   36.6980   31.8640   50.0330 C   0  0  0  0  0  0  0  0  0  0  0  0
   37.7430   32.5370   49.4150 C   0  0  0  0  0  0  0  0  0  0  0  0
   38.1330   32.2150   48.1600 N   0  0  0  0  0  0  0  0  0  0  0  0
   37.5330   31.2260   47.4420 C   0  0  0  0  0  0  0  0  0  0  0  0
   36.5090   30.5600   48.0390 N   0  0  0  0  0  0  0  0  0  0  0  0
   36.3220   32.0510   51.0270 H   0  0  0  0  0  0  0  0  0  0  0  0
   38.2200   33.3200   49.9890 H   0  0  0  0  0  0  0  0  0  0  0  0
   34.9570   30.1260   49.8820 C   0  0  0  0  0  0  0  0  0  0  0  0
   34.7440   28.7290   49.6910 C   0  0  0  0  0  0  0  0  0  0  0  0
   35.4170   29.1500   50.9900 C   0  0  0  0  0  0  0  0  0  0  0  0
   34.1510   30.8100   50.2070 H   0  0  0  0  0  0  0  0  0  0  0  0
   35.3410   28.0540   49.0810 H   0  0  0  0  0  0  0  0  0  0  0  0
   33.6970   28.3510   49.8400 H   0  0  0  0  0  0  0  0  0  0  0  0
   36.4970   28.9740   51.1170 H   0  0  0  0  0  0  0  0  0  0  0  0
   34.8440   29.1670   51.9300 H   0  0  0  0  0  0  0  0  0  0  0  0
   37.9190   30.8530   46.0800 C   0  0  0  0  0  0  0  0  0  0  0  0
   38.3840   29.8700   46.0550 H   0  0  0  0  0  0  0  0  0  0  0  0
   37.0570   30.9160   45.3820 H   0  0  0  0  0  0  0  0  0  0  0  0
   38.6750   32.6790   44.5130 C   0  0  0  0  0  0  0  0  0  0  0  0
   37.6490   32.6660   43.8040 O   0  0  0  0  0  0  0  0  0  0  0  0
   38.9190   31.8500   45.6650 N   0  0  0  0  0  0  0  0  0  0  0  0
   39.7350   31.7960   46.3420 H   0  0  0  0  0  0  0  0  0  0  0  0
   41.8000   31.9440   45.5990 H   0  0  0  0  0  0  0  0  0  0  0  0
   40.9210   32.4480   45.1840 C   0  0  0  0  0  0  0  0  0  0  0  0
   40.6840   31.2590   45.5660 O   0  0  0  0  0  0  0  0  0  0  0  0
   39.8980   33.3530   44.5830 N   0  0  0  0  0  0  0  0  0  0  0  0
   40.7870   33.8400   44.6350 H   0  0  0  0  0  0  0  0  0  0  0  0
  1  9  1  0  0  0  0
  1  2  1  0  0  0  0
  2  7  1  0  0  0  0
  3  8  1  0  0  0  0
  3  2  2  0  0  0  0
  4  3  1  0  0  0  0
  5  6  1  0  0  0  0
  5  4  2  0  0  0  0
  6  1  2  0  0  0  0
  9 12  1  0  0  0  0
  9 11  1  0  0  0  0
 10 14  1  0  0  0  0
 10  9  1  0  0  0  0
 10 11  1  0  0  0  0
 11 15  1  0  0  0  0
 11 16  1  0  0  0  0
 13 10  1  0  0  0  0
 17  5  1  0  0  0  0
 18 17  1  0  0  0  0
 19 17  1  0  0  0  0
 20 27  1  0  0  0  0
 20 22  1  0  0  0  0
 21 20  2  0  0  0  0
 22 17  1  0  0  0  0
 22 23  1  0  0  0  0
 25 26  2  0  0  0  0
 25 24  1  0  0  0  0
 27 28  1  0  0  0  0
 27 25  1  0  0  0  0
M  END
>  <minimizedAffinity>
-5.46417999

>  <minimizedRMSD>
2.05607319

$$$$
