
 OpenBabel03262523303D

 29 31  0  0  0  0  0  0  0  0999 V2000
   36.1690   29.6250   50.7680 C   0  0  0  0  0  0  0  0  0  0  0  0
   36.9000   30.3270   49.8240 C   0  0  0  0  0  0  0  0  0  0  0  0
   36.5260   30.2370   48.4780 C   0  0  0  0  0  0  0  0  0  0  0  0
   35.4480   29.4550   48.1420 N   0  0  0  0  0  0  0  0  0  0  0  0
   34.7610   28.7850   49.1000 C   0  0  0  0  0  0  0  0  0  0  0  0
   35.1190   28.8710   50.3930 N   0  0  0  0  0  0  0  0  0  0  0  0
   36.4610   29.7000   51.7930 H   0  0  0  0  0  0  0  0  0  0  0  0
   37.7480   30.9420   50.0870 H   0  0  0  0  0  0  0  0  0  0  0  0
   36.7950   30.6370   46.1040 C   0  0  0  0  0  0  0  0  0  0  0  0
   37.2170   30.9270   47.4060 C   0  0  0  0  0  0  0  0  0  0  0  0
   38.2440   31.8310   47.6220 C   0  0  0  0  0  0  0  0  0  0  0  0
   38.8310   32.4300   46.5270 C   0  0  0  0  0  0  0  0  0  0  0  0
   39.8330   33.3300   46.4780 N   0  0  0  0  0  0  0  0  0  0  0  0
   40.0490   33.6110   45.1770 C   0  0  0  0  0  0  0  0  0  0  0  0
   39.2120   32.9160   44.4060 N   0  0  0  0  0  0  0  0  0  0  0  0
   38.4350   32.1650   45.2190 C   0  0  0  0  0  0  0  0  0  0  0  0
   37.4030   31.2550   45.0170 C   0  0  0  0  0  0  0  0  0  0  0  0
   35.9990   29.9420   45.8630 H   0  0  0  0  0  0  0  0  0  0  0  0
   38.5660   32.0510   48.6190 H   0  0  0  0  0  0  0  0  0  0  0  0
   40.3910   33.7790   47.2340 H   0  0  0  0  0  0  0  0  0  0  0  0
   40.7690   34.2880   44.7180 H   0  0  0  0  0  0  0  0  0  0  0  0
   37.0820   31.0380   43.9920 H   0  0  0  0  0  0  0  0  0  0  0  0
   33.6290   27.9760   48.6700 C   0  0  0  0  0  0  0  0  0  0  0  0
   33.7940   26.8990   48.0550 O   0  0  0  0  0  0  0  0  0  0  0  0
   30.1850   27.7480   49.0680 H   0  0  0  0  0  0  0  0  0  0  0  0
   31.2230   27.5820   48.8820 C   0  0  0  0  0  0  0  0  0  0  0  0
   31.3680   26.3670   48.5160 O   0  0  0  0  0  0  0  0  0  0  0  0
   32.3300   28.4720   48.9850 N   0  0  0  0  0  0  0  0  0  0  0  0
   32.0760   29.4360   49.2930 H   0  0  0  0  0  0  0  0  0  0  0  0
  1  7  1  0  0  0  0
  2  8  1  0  0  0  0
  2  1  2  0  0  0  0
  3  2  1  0  0  0  0
  4  3  2  0  0  0  0
  4  5  1  0  0  0  0
  5  6  2  0  0  0  0
  6  1  1  0  0  0  0
  9 10  1  0  0  0  0
 10 11  2  0  0  0  0
 10  3  1  0  0  0  0
 11 19  1  0  0  0  0
 12 11  1  0  0  0  0
 13 12  1  0  0  0  0
 13 20  1  0  0  0  0
 14 13  1  0  0  0  0
 15 14  2  0  0  0  0
 15 16  1  0  0  0  0
 16 12  2  0  0  0  0
 17 16  1  0  0  0  0
 17  9  2  0  0  0  0
 18  9  1  0  0  0  0
 21 14  1  0  0  0  0
 22 17  1  0  0  0  0
 23 28  1  0  0  0  0
 23  5  1  0  0  0  0
 24 23  2  0  0  0  0
 26 28  1  0  0  0  0
 26 25  1  0  0  0  0
 27 26  2  0  0  0  0
 28 29  1  0  0  0  0
M  END
>  <minimizedAffinity>
-6.44750786

>  <minimizedRMSD>
1.25087321

$$$$
