
 OpenBabel03272503253D

 28 29  0  0  1  0  0  0  0  0999 V2000
   36.5880   30.4410   48.9220 N   0  0  0  0  0  0  0  0  0  0  0  0
   36.3390   31.2900   50.0700 C   0  0  1  0  0  0  0  0  0  0  0  0
   37.1390   30.5620   51.1470 C   0  0  0  0  0  0  0  0  0  0  0  0
   37.5750   29.2370   50.5340 C   0  0  0  0  0  0  0  0  0  0  0  0
   37.8230   29.7050   49.1030 C   0  0  0  0  0  3  0  0  0  0  0  0
   35.2880   31.2490   50.3760 H   0  0  0  0  0  0  0  0  0  0  0  0
   38.0750   31.1450   51.3110 H   0  0  0  0  0  0  0  0  0  0  0  0
   36.5690   30.4310   52.0740 H   0  0  0  0  0  0  0  0  0  0  0  0
   38.4710   28.8370   51.0030 H   0  0  0  0  0  0  0  0  0  0  0  0
   36.7120   28.5280   50.4920 H   0  0  0  0  0  0  0  0  0  0  0  0
   37.8780   28.8120   48.4820 H   0  0  0  0  0  0  0  0  0  0  0  0
   38.7020   30.3620   49.0940 H   0  0  0  0  0  0  0  0  0  0  0  0
   35.7290   30.3500   47.7900 C   0  0  0  0  0  0  0  0  0  0  0  0
   34.3450   30.2740   48.0120 C   0  0  0  0  0  0  0  0  0  0  0  0
   33.4900   30.1790   46.9050 C   0  0  0  0  0  0  0  0  0  0  0  0
   34.0680   30.1680   45.6640 N   0  0  0  0  0  0  0  0  0  0  0  0
   35.3950   30.2440   45.4910 C   0  0  0  0  0  0  0  0  0  0  0  0
   36.2400   30.3350   46.5520 N   0  0  0  0  0  0  0  0  0  0  0  0
   33.8860   30.2820   48.9900 H   0  0  0  0  0  0  0  0  0  0  0  0
   32.4210   30.1190   47.0650 H   0  0  0  0  0  0  0  0  0  0  0  0
   35.7420   30.2270   44.4680 H   0  0  0  0  0  0  0  0  0  0  0  0
   36.8000   32.6670   49.8980 C   0  0  0  0  0  0  0  0  0  0  0  0
   36.1990   33.5850   50.4010 O   0  0  0  0  0  0  0  0  0  0  0  0
   39.6830   32.7400   47.9370 H   0  0  0  0  0  0  0  0  0  0  0  0
   38.8490   32.2930   48.4630 C   0  0  0  0  0  3  0  0  0  0  0  0
   38.6110   31.0380   48.5030 O   0  0  0  0  0  0  0  0  0  0  0  0
   37.9330   33.1190   49.1680 N   0  0  0  0  0  0  0  0  0  0  0  0
   38.0990   34.1320   49.1540 H   0  0  0  0  0  0  0  0  0  0  0  0
  1  5  1  0  0  0  0
  1  2  1  0  0  0  0
  2  6  1  1  0  0  0
  2  3  1  0  0  0  0
  3  7  1  0  0  0  0
  3  8  1  0  0  0  0
  4  9  1  0  0  0  0
  4  3  1  0  0  0  0
  5  4  1  0  0  0  0
 10  4  1  0  0  0  0
 11  5  1  0  0  0  0
 13 14  1  0  0  0  0
 13  1  1  0  0  0  0
 14 19  1  0  0  0  0
 15 20  1  0  0  0  0
 15 14  2  0  0  0  0
 16 15  1  0  0  0  0
 17 16  2  0  0  0  0
 17 18  1  0  0  0  0
 18 13  2  0  0  0  0
 21 17  1  0  0  0  0
 22  2  1  0  0  0  0
 22 23  2  0  0  0  0
 24 25  1  0  0  0  0
 25 26  1  0  0  0  0
 25 27  1  0  0  0  0
 26 12  1  0  0  0  0
 27 22  1  0  0  0  0
 28 27  1  0  0  0  0
M  END
>  <minimizedAffinity>
-3.8263936

>  <minimizedRMSD>
2.87870169

$$$$
