
 OpenBabel03272503253D

 28 29  0  0  1  0  0  0  0  0999 V2000
   37.5230   31.0020   48.3720 N   0  0  0  0  0  0  0  0  0  0  0  0
   37.9950   31.7660   47.2340 C   0  0  1  0  0  0  0  0  0  0  0  0
   38.7590   32.8860   47.9340 C   0  0  0  0  0  0  0  0  0  0  0  0
   38.4410   32.7580   49.4190 C   0  0  0  0  0  0  0  0  0  0  0  0
   38.3750   31.2360   49.5190 C   0  0  0  0  0  0  0  0  0  0  0  0
   37.1640   32.2380   46.6980 H   0  0  0  0  0  0  0  0  0  0  0  0
   39.8450   32.6550   47.8340 H   0  0  0  0  0  0  0  0  0  0  0  0
   38.5110   33.8760   47.5330 H   0  0  0  0  0  0  0  0  0  0  0  0
   39.2180   33.1840   50.0490 H   0  0  0  0  0  0  0  0  0  0  0  0
   37.4100   33.1350   49.6270 H   0  0  0  0  0  0  0  0  0  0  0  0
   37.8870   31.0020   50.4640 H   0  0  0  0  0  0  0  0  0  0  0  0
   39.3840   30.8300   49.3760 H   0  0  0  0  0  0  0  0  0  0  0  0
   36.3800   30.1530   48.3490 C   0  0  0  0  0  0  0  0  0  0  0  0
   35.4090   30.3730   47.3600 C   0  0  0  0  0  0  0  0  0  0  0  0
   34.2770   29.5470   47.3320 C   0  0  0  0  0  0  0  0  0  0  0  0
   34.1920   28.5640   48.2830 N   0  0  0  0  0  0  0  0  0  0  0  0
   35.1410   28.3840   49.2120 C   0  0  0  0  0  0  0  0  0  0  0  0
   36.2440   29.1760   49.2560 N   0  0  0  0  0  0  0  0  0  0  0  0
   35.4730   31.1470   46.6090 H   0  0  0  0  0  0  0  0  0  0  0  0
   33.5220   29.7080   46.5730 H   0  0  0  0  0  0  0  0  0  0  0  0
   34.9710   27.5800   49.9130 H   0  0  0  0  0  0  0  0  0  0  0  0
   38.8610   31.0080   46.3310 C   0  0  0  0  0  0  0  0  0  0  0  0
   40.0610   31.0570   46.4450 O   0  0  0  0  0  0  0  0  0  0  0  0
   37.2530   29.7470   43.5050 H   0  0  0  0  0  0  0  0  0  0  0  0
   37.4760   30.4640   44.2850 C   0  0  0  0  0  0  0  0  0  0  0  0
   36.9020   31.5970   44.4090 O   0  0  0  0  0  0  0  0  0  0  0  0
   38.4690   30.1630   45.2570 N   0  0  0  0  0  0  0  0  0  0  0  0
   38.9480   29.2580   45.1820 H   0  0  0  0  0  0  0  0  0  0  0  0
  1  5  1  0  0  0  0
  2  6  1  6  0  0  0
  2  3  1  0  0  0  0
  2  1  1  0  0  0  0
  3  4  1  0  0  0  0
  4  5  1  0  0  0  0
  4 10  1  0  0  0  0
  4  9  1  0  0  0  0
  5 11  1  0  0  0  0
  7  3  1  0  0  0  0
  8  3  1  0  0  0  0
 12  5  1  0  0  0  0
 13  1  1  0  0  0  0
 13 18  1  0  0  0  0
 14 13  2  0  0  0  0
 15 14  1  0  0  0  0
 15 16  2  0  0  0  0
 16 17  1  0  0  0  0
 17 18  2  0  0  0  0
 17 21  1  0  0  0  0
 19 14  1  0  0  0  0
 20 15  1  0  0  0  0
 22 23  2  0  0  0  0
 22  2  1  0  0  0  0
 24 25  1  0  0  0  0
 25 26  2  0  0  0  0
 25 27  1  0  0  0  0
 27 22  1  0  0  0  0
 28 27  1  0  0  0  0
M  END
>  <minimizedAffinity>
-4.72286654

>  <minimizedRMSD>
1.9329083

$$$$
