
 OpenBabel03272510313D

 28 29  0  0  0  0  0  0  0  0999 V2000
   35.8190   30.7040   48.9890 C   0  0  0  0  0  0  0  0  0  0  0  0
   36.9040   31.4190   49.4590 C   0  0  0  0  0  0  0  0  0  0  0  0
   37.8250   31.7920   48.4910 C   0  0  0  0  0  0  0  0  0  0  0  0
   37.6410   31.4630   47.1910 N   0  0  0  0  0  0  0  0  0  0  0  0
   36.5580   30.7560   46.7660 C   0  0  0  0  0  0  0  0  0  0  0  0
   35.6500   30.3850   47.7070 N   0  0  0  0  0  0  0  0  0  0  0  0
   36.9700   31.6350   50.5150 H   0  0  0  0  0  0  0  0  0  0  0  0
   38.6860   32.3500   48.8330 H   0  0  0  0  0  0  0  0  0  0  0  0
   34.7740   30.2990   49.9920 C   0  0  0  0  0  0  0  0  0  0  0  0
   34.0480   29.0750   49.9050 C   0  0  0  0  0  0  0  0  0  0  0  0
   35.2360   29.1020   50.8560 C   0  0  0  0  0  0  0  0  0  0  0  0
   34.4180   31.1590   50.5890 H   0  0  0  0  0  0  0  0  0  0  0  0
   34.1240   28.3240   49.1210 H   0  0  0  0  0  0  0  0  0  0  0  0
   33.0600   29.0330   50.4370 H   0  0  0  0  0  0  0  0  0  0  0  0
   36.1630   28.5790   50.5720 H   0  0  0  0  0  0  0  0  0  0  0  0
   35.0750   29.1880   51.9410 H   0  0  0  0  0  0  0  0  0  0  0  0
   36.3170   30.3880   45.3690 C   0  0  0  0  0  0  0  0  0  0  0  0
   35.8090   29.4300   45.2950 H   0  0  0  0  0  0  0  0  0  0  0  0
   35.7670   31.1870   44.8280 H   0  0  0  0  0  0  0  0  0  0  0  0
   38.2350   31.3670   44.0550 C   0  0  0  0  0  0  0  0  0  0  0  0
   37.7260   32.4970   43.9170 O   0  0  0  0  0  0  0  0  0  0  0  0
   37.6510   30.2550   44.7590 N   0  0  0  0  0  0  0  0  0  0  0  0
   38.0020   29.2720   44.9540 H   0  0  0  0  0  0  0  0  0  0  0  0
   41.5540   32.0540   44.0450 H   0  0  0  0  0  0  0  0  0  0  0  0
   40.5790   31.5670   43.9360 C   0  0  0  0  0  0  0  0  0  0  0  0
   40.5010   32.7480   44.3980 O   0  0  0  0  0  0  0  0  0  0  0  0
   39.4000   30.6860   43.6930 N   0  0  0  0  0  0  0  0  0  0  0  0
   40.2480   30.1920   43.4290 H   0  0  0  0  0  0  0  0  0  0  0  0
  1  2  1  0  0  0  0
  1  9  1  0  0  0  0
  2  7  1  0  0  0  0
  3  8  1  0  0  0  0
  3  2  2  0  0  0  0
  4  3  1  0  0  0  0
  5  4  2  0  0  0  0
  5  6  1  0  0  0  0
  6  1  2  0  0  0  0
  9 12  1  0  0  0  0
  9 11  1  0  0  0  0
 10  9  1  0  0  0  0
 10 14  1  0  0  0  0
 10 11  1  0  0  0  0
 11 16  1  0  0  0  0
 13 10  1  0  0  0  0
 15 11  1  0  0  0  0
 17  5  1  0  0  0  0
 18 17  1  0  0  0  0
 19 17  1  0  0  0  0
 20 22  1  0  0  0  0
 21 20  2  0  0  0  0
 22 23  1  0  0  0  0
 22 17  1  0  0  0  0
 25 24  1  0  0  0  0
 25 26  2  0  0  0  0
 27 25  1  0  0  0  0
 27 20  1  0  0  0  0
 28 27  1  0  0  0  0
M  END
>  <minimizedAffinity>
-4.48624563

>  <minimizedRMSD>
2.4976027

$$$$
