
 OpenBabel03272508513D

 25 26  0  0  1  0  0  0  0  0999 V2000
   38.1050   30.6330   46.5910 C   0  0  2  0  0  0  0  0  0  0  0  0
   36.6810   30.6110   46.9060 C   0  0  0  0  0  0  0  0  0  0  0  0
   37.7080   31.3250   47.8070 C   0  0  1  0  0  0  0  0  0  0  0  0
   38.7170   29.6760   46.7340 H   0  0  0  0  0  0  0  0  0  0  0  0
   35.9870   31.2790   46.3650 H   0  0  0  0  0  0  0  0  0  0  0  0
   36.2160   29.7480   47.3710 H   0  0  0  0  0  0  0  0  0  0  0  0
   37.5160   32.3830   47.8990 H   0  0  0  0  0  0  0  0  0  0  0  0
   40.5210   32.2730   44.3060 C   0  0  0  0  0  0  0  0  0  0  0  0
   39.6510   32.8700   43.3570 C   0  0  0  0  0  0  0  0  0  0  0  0
   38.2580   32.6930   43.5240 C   0  0  0  0  0  0  0  0  0  0  0  0
   37.8240   31.9570   44.5900 N   0  0  0  0  0  0  0  0  0  0  0  0
   38.6840   31.4120   45.4600 C   0  0  0  0  0  0  0  0  0  0  0  0
   40.0260   31.5500   45.3490 N   0  0  0  0  0  0  0  0  0  0  0  0
   41.5930   32.4350   44.1480 H   0  0  0  0  0  0  0  0  0  0  0  0
   39.9560   33.4480   42.5220 H   0  0  0  0  0  0  0  0  0  0  0  0
   37.5070   33.0990   42.8680 H   0  0  0  0  0  0  0  0  0  0  0  0
   37.4880   31.3120   50.2650 C   0  0  0  0  0  0  0  0  0  0  0  0
   36.8180   32.3500   50.2130 O   0  0  0  0  0  0  0  0  0  0  0  0
   37.9650   30.6220   49.0720 N   0  0  0  0  0  0  0  0  0  0  0  0
   38.4730   29.6970   48.9250 H   0  0  0  0  0  0  0  0  0  0  0  0
   37.1290   27.9990   50.7390 H   0  0  0  0  0  0  0  0  0  0  0  0
   37.4720   29.0430   50.8380 C   0  0  0  0  0  0  0  0  0  0  0  0
   36.5880   28.8580   49.9270 O   0  0  0  0  0  0  0  0  0  0  0  0
   38.0840   30.3570   51.1570 N   0  0  0  0  0  0  0  0  0  0  0  0
   38.4810   29.7210   51.7510 H   0  0  0  0  0  0  0  0  0  0  0  0
  1  4  1  1  0  0  0
  1  2  1  0  0  0  0
  1  3  1  0  0  0  0
  2  6  1  0  0  0  0
  2  3  1  0  0  0  0
  3  7  1  1  0  0  0
  3 19  1  0  0  0  0
  5  2  1  0  0  0  0
  8 13  1  0  0  0  0
  9 10  1  0  0  0  0
  9  8  2  0  0  0  0
 10 11  2  0  0  0  0
 11 12  1  0  0  0  0
 12  1  1  0  0  0  0
 13 12  2  0  0  0  0
 14  8  1  0  0  0  0
 15  9  1  0  0  0  0
 16 10  1  0  0  0  0
 17 24  1  0  0  0  0
 18 17  2  0  0  0  0
 19 17  1  0  0  0  0
 20 19  1  0  0  0  0
 21 22  1  0  0  0  0
 22 24  1  0  0  0  0
 23 22  2  0  0  0  0
 24 25  1  0  0  0  0
M  END
>  <minimizedAffinity>
-4.84130478

>  <minimizedRMSD>
0.843096137

$$$$
