
 OpenBabel03272500553D

 28 29  0  0  0  0  0  0  0  0999 V2000
   38.4270   25.4790   35.3370 C   0  0  0  0  0  0  0  0  0  0  0  0
   38.3910   26.6970   35.9920 C   0  0  0  0  0  0  0  0  0  0  0  0
   37.7330   27.8050   35.4660 C   0  0  0  0  0  0  0  0  0  0  0  0
   37.0800   27.6690   34.2080 C   0  0  0  0  0  0  0  0  0  0  0  0
   37.1440   26.4510   33.5990 C   0  0  0  0  0  0  0  0  0  0  0  0
   37.7880   25.3760   34.1290 C   0  0  0  0  0  0  0  0  0  0  0  0
   38.8890   26.8020   36.9440 H   0  0  0  0  0  0  0  0  0  0  0  0
   37.7600   28.7070   36.0570 H   0  0  0  0  0  0  0  0  0  0  0  0
   36.6230   28.5990   33.9380 H   0  0  0  0  0  0  0  0  0  0  0  0
   36.6370   26.6030   32.6710 H   0  0  0  0  0  0  0  0  0  0  0  0
   38.5840   23.8560   37.1440 C   0  0  0  0  0  0  0  0  0  0  0  0
   39.1960   24.4360   36.0050 C   0  0  0  0  0  0  0  0  0  0  0  0
   40.4680   23.9600   35.6520 C   0  0  0  0  0  0  0  0  0  0  0  0
   41.0340   22.9970   36.3960 N   0  0  0  0  0  0  0  0  0  0  0  0
   40.4390   22.4570   37.4740 C   0  0  0  0  0  0  0  0  0  0  0  0
   39.2140   22.8900   37.8440 N   0  0  0  0  0  0  0  0  0  0  0  0
   37.6110   24.1050   37.5500 H   0  0  0  0  0  0  0  0  0  0  0  0
   40.8810   24.4360   34.7820 H   0  0  0  0  0  0  0  0  0  0  0  0
   41.0650   21.7040   37.9220 H   0  0  0  0  0  0  0  0  0  0  0  0
   38.7830   24.1250   32.4030 C   0  0  0  0  0  0  0  0  0  0  0  0
   39.4220   25.1560   32.1390 O   0  0  0  0  0  0  0  0  0  0  0  0
   37.8190   24.1170   33.4990 N   0  0  0  0  0  0  0  0  0  0  0  0
   37.1960   23.3510   33.8540 H   0  0  0  0  0  0  0  0  0  0  0  0
   36.7720   22.5610   30.1840 H   0  0  0  0  0  0  0  0  0  0  0  0
   37.5260   22.7530   30.9630 C   0  0  0  0  0  0  0  0  0  0  0  0
   36.9780   23.8490   30.5620 O   0  0  0  0  0  0  0  0  0  0  0  0
   38.5800   22.7650   32.0210 N   0  0  0  0  0  0  0  0  0  0  0  0
   38.4490   21.8970   31.7740 H   0  0  0  0  0  0  0  0  0  0  0  0
  1  2  1  0  0  0  0
  1 12  1  0  0  0  0
  2  7  1  0  0  0  0
  3  2  2  0  0  0  0
  3  8  1  0  0  0  0
  4  3  1  0  0  0  0
  5  6  1  0  0  0  0
  5  4  2  0  0  0  0
  6  1  2  0  0  0  0
  9  4  1  0  0  0  0
 10  5  1  0  0  0  0
 11 17  1  0  0  0  0
 11 16  1  0  0  0  0
 12 11  2  0  0  0  0
 13 12  1  0  0  0  0
 13 14  2  0  0  0  0
 14 15  1  0  0  0  0
 15 16  2  0  0  0  0
 15 19  1  0  0  0  0
 18 13  1  0  0  0  0
 20 22  1  0  0  0  0
 21 20  2  0  0  0  0
 22 23  1  0  0  0  0
 22  6  1  0  0  0  0
 24 25  1  0  0  0  0
 25 27  1  0  0  0  0
 26 25  2  0  0  0  0
 27 20  1  0  0  0  0
 28 27  1  0  0  0  0
M  END
>  <minimizedAffinity>
-4.74125814

$$$$

 OpenBabel03272500553D

 28 29  0  0  0  0  0  0  0  0999 V2000
   34.9460   30.5540   34.9630 C   0  0  0  0  0  0  0  0  0  0  0  0
   35.8410   31.5390   35.3390 C   0  0  0  0  0  0  0  0  0  0  0  0
   35.5540   32.4650   36.3370 C   0  0  0  0  0  0  0  0  0  0  0  0
   34.2890   32.3870   36.9860 C   0  0  0  0  0  0  0  0  0  0  0  0
   33.4380   31.4010   36.5820 C   0  0  0  0  0  0  0  0  0  0  0  0
   33.7360   30.5010   35.6070 C   0  0  0  0  0  0  0  0  0  0  0  0
   36.7990   31.6000   34.8450 H   0  0  0  0  0  0  0  0  0  0  0  0
   36.3210   33.1900   36.5580 H   0  0  0  0  0  0  0  0  0  0  0  0
   34.2160   33.1590   37.7240 H   0  0  0  0  0  0  0  0  0  0  0  0
   32.5570   31.5700   37.1630 H   0  0  0  0  0  0  0  0  0  0  0  0
   36.1580   28.5670   34.2500 C   0  0  0  0  0  0  0  0  0  0  0  0
   35.3870   29.6940   33.8720 C   0  0  0  0  0  0  0  0  0  0  0  0
   35.1450   29.8690   32.5010 C   0  0  0  0  0  0  0  0  0  0  0  0
   35.6450   28.9780   31.6300 N   0  0  0  0  0  0  0  0  0  0  0  0
   36.3740   27.9140   32.0080 C   0  0  0  0  0  0  0  0  0  0  0  0
   36.6280   27.7120   33.3190 N   0  0  0  0  0  0  0  0  0  0  0  0
   36.4350   28.2850   35.2600 H   0  0  0  0  0  0  0  0  0  0  0  0
   34.5560   30.7400   32.2740 H   0  0  0  0  0  0  0  0  0  0  0  0
   36.6740   27.3310   31.1530 H   0  0  0  0  0  0  0  0  0  0  0  0
   31.8250   29.9950   34.3320 C   0  0  0  0  0  0  0  0  0  0  0  0
   31.8100   31.2000   34.0320 O   0  0  0  0  0  0  0  0  0  0  0  0
   32.8570   29.4710   35.2220 N   0  0  0  0  0  0  0  0  0  0  0  0
   33.0180   28.4990   35.5810 H   0  0  0  0  0  0  0  0  0  0  0  0
   29.2490   28.4210   35.8480 H   0  0  0  0  0  0  0  0  0  0  0  0
   30.0800   28.6550   35.1650 C   0  0  0  0  0  0  0  0  0  0  0  0
   29.8990   29.6010   36.0210 O   0  0  0  0  0  0  0  0  0  0  0  0
   31.1570   28.7510   34.1340 N   0  0  0  0  0  0  0  0  0  0  0  0
   30.7270   27.9560   34.0090 H   0  0  0  0  0  0  0  0  0  0  0  0
  1  2  2  0  0  0  0
  1  6  1  0  0  0  0
  2  3  1  0  0  0  0
  3  8  1  0  0  0  0
  3  4  2  0  0  0  0
  4  9  1  0  0  0  0
  5  4  1  0  0  0  0
  5 10  1  0  0  0  0
  6  5  2  0  0  0  0
  7  2  1  0  0  0  0
 11 17  1  0  0  0  0
 12 11  1  0  0  0  0
 12  1  1  0  0  0  0
 13 12  2  0  0  0  0
 14 15  2  0  0  0  0
 14 13  1  0  0  0  0
 15 16  1  0  0  0  0
 16 11  2  0  0  0  0
 18 13  1  0  0  0  0
 19 15  1  0  0  0  0
 20 22  1  0  0  0  0
 21 20  2  0  0  0  0
 22 23  1  0  0  0  0
 22  6  1  0  0  0  0
 25 24  1  0  0  0  0
 25 26  2  0  0  0  0
 27 20  1  0  0  0  0
 27 25  1  0  0  0  0
 28 27  1  0  0  0  0
M  END
>  <minimizedAffinity>
-4.57654095

$$$$

 OpenBabel03272500553D

 28 29  0  0  0  0  0  0  0  0999 V2000
   38.0210   25.1710   33.8620 C   0  0  0  0  0  0  0  0  0  0  0  0
   37.3610   26.3520   33.5760 C   0  0  0  0  0  0  0  0  0  0  0  0
   37.3070   27.4120   34.4760 C   0  0  0  0  0  0  0  0  0  0  0  0
   37.9580   27.2630   35.7330 C   0  0  0  0  0  0  0  0  0  0  0  0
   38.5950   26.0810   35.9730 C   0  0  0  0  0  0  0  0  0  0  0  0
   38.6410   25.0560   35.0800 C   0  0  0  0  0  0  0  0  0  0  0  0
   36.8650   26.4640   32.6230 H   0  0  0  0  0  0  0  0  0  0  0  0
   36.7710   28.2910   34.1550 H   0  0  0  0  0  0  0  0  0  0  0  0
   37.8300   28.1550   36.3120 H   0  0  0  0  0  0  0  0  0  0  0  0
   38.9560   26.1840   36.9730 H   0  0  0  0  0  0  0  0  0  0  0  0
   38.8670   24.2790   31.7600 C   0  0  0  0  0  0  0  0  0  0  0  0
   37.9430   24.1470   32.8280 C   0  0  0  0  0  0  0  0  0  0  0  0
   37.0520   23.0640   32.7690 C   0  0  0  0  0  0  0  0  0  0  0  0
   37.1160   22.2220   31.7260 N   0  0  0  0  0  0  0  0  0  0  0  0
   37.9980   22.3630   30.7220 C   0  0  0  0  0  0  0  0  0  0  0  0
   38.8720   23.3930   30.7440 N   0  0  0  0  0  0  0  0  0  0  0  0
   39.6190   25.0520   31.6510 H   0  0  0  0  0  0  0  0  0  0  0  0
   36.3770   23.0150   33.6040 H   0  0  0  0  0  0  0  0  0  0  0  0
   37.8770   21.5810   29.9910 H   0  0  0  0  0  0  0  0  0  0  0  0
   38.5420   22.9990   36.2170 C   0  0  0  0  0  0  0  0  0  0  0  0
   37.4400   23.3830   36.6410 O   0  0  0  0  0  0  0  0  0  0  0  0
   39.3280   23.8540   35.3320 N   0  0  0  0  0  0  0  0  0  0  0  0
   40.2670   23.6970   34.8890 H   0  0  0  0  0  0  0  0  0  0  0  0
   41.1190   22.1470   38.2280 H   0  0  0  0  0  0  0  0  0  0  0  0
   40.3740   22.1410   37.4180 C   0  0  0  0  0  0  0  0  0  0  0  0
   40.2230   23.1660   38.1840 O   0  0  0  0  0  0  0  0  0  0  0  0
   39.4750   21.9200   36.2450 N   0  0  0  0  0  0  0  0  0  0  0  0
   40.0720   21.2310   36.2660 H   0  0  0  0  0  0  0  0  0  0  0  0
  1  6  1  0  0  0  0
  2  1  2  0  0  0  0
  2  3  1  0  0  0  0
  3  4  2  0  0  0  0
  4  5  1  0  0  0  0
  4  9  1  0  0  0  0
  5 10  1  0  0  0  0
  6 22  1  0  0  0  0
  6  5  2  0  0  0  0
  7  2  1  0  0  0  0
  8  3  1  0  0  0  0
 11 12  1  0  0  0  0
 12  1  1  0  0  0  0
 13 12  2  0  0  0  0
 13 18  1  0  0  0  0
 14 13  1  0  0  0  0
 15 16  1  0  0  0  0
 15 14  2  0  0  0  0
 16 11  2  0  0  0  0
 17 11  1  0  0  0  0
 19 15  1  0  0  0  0
 20 27  1  0  0  0  0
 20 21  2  0  0  0  0
 22 20  1  0  0  0  0
 23 22  1  0  0  0  0
 25 26  2  0  0  0  0
 25 24  1  0  0  0  0
 27 28  1  0  0  0  0
 27 25  1  0  0  0  0
M  END
>  <minimizedAffinity>
-4.53471422

$$$$

 OpenBabel03272500553D

 28 29  0  0  0  0  0  0  0  0999 V2000
   36.6580   22.3730   32.4770 C   0  0  0  0  0  0  0  0  0  0  0  0
   35.5940   22.0660   31.6480 C   0  0  0  0  0  0  0  0  0  0  0  0
   34.8370   20.9090   31.8060 C   0  0  0  0  0  0  0  0  0  0  0  0
   35.1810   20.0160   32.8600 C   0  0  0  0  0  0  0  0  0  0  0  0
   36.2380   20.3580   33.6500 C   0  0  0  0  0  0  0  0  0  0  0  0
   36.9650   21.4960   33.4850 C   0  0  0  0  0  0  0  0  0  0  0  0
   35.3340   22.7420   30.8480 H   0  0  0  0  0  0  0  0  0  0  0  0
   34.0260   20.7650   31.1100 H   0  0  0  0  0  0  0  0  0  0  0  0
   34.5140   19.1790   32.8530 H   0  0  0  0  0  0  0  0  0  0  0  0
   36.3330   19.5320   34.3210 H   0  0  0  0  0  0  0  0  0  0  0  0
   38.4030   23.4730   31.1840 C   0  0  0  0  0  0  0  0  0  0  0  0
   37.3710   23.6010   32.1470 C   0  0  0  0  0  0  0  0  0  0  0  0
   37.1550   24.8790   32.6840 C   0  0  0  0  0  0  0  0  0  0  0  0
   37.9220   25.9000   32.2700 N   0  0  0  0  0  0  0  0  0  0  0  0
   38.8970   25.7600   31.3550 C   0  0  0  0  0  0  0  0  0  0  0  0
   39.1340   24.5440   30.8150 N   0  0  0  0  0  0  0  0  0  0  0  0
   38.6980   22.5640   30.6730 H   0  0  0  0  0  0  0  0  0  0  0  0
   36.3610   24.9150   33.4080 H   0  0  0  0  0  0  0  0  0  0  0  0
   39.3860   26.7010   31.1680 H   0  0  0  0  0  0  0  0  0  0  0  0
   37.5940   21.8720   35.7210 C   0  0  0  0  0  0  0  0  0  0  0  0
   36.4130   21.6150   36.0070 O   0  0  0  0  0  0  0  0  0  0  0  0
   38.0350   21.8480   34.3290 N   0  0  0  0  0  0  0  0  0  0  0  0
   38.9770   22.0410   33.9100 H   0  0  0  0  0  0  0  0  0  0  0  0
   39.1060   24.7910   36.4980 H   0  0  0  0  0  0  0  0  0  0  0  0
   38.9050   23.7170   36.3610 C   0  0  0  0  0  0  0  0  0  0  0  0
   37.9050   24.4330   35.9740 O   0  0  0  0  0  0  0  0  0  0  0  0
   38.8610   22.2270   36.2710 N   0  0  0  0  0  0  0  0  0  0  0  0
   39.6700   22.4570   36.6230 H   0  0  0  0  0  0  0  0  0  0  0  0
  1  6  1  0  0  0  0
  2  3  1  0  0  0  0
  2  1  2  0  0  0  0
  3  4  2  0  0  0  0
  4  5  1  0  0  0  0
  5 10  1  0  0  0  0
  6  5  2  0  0  0  0
  6 22  1  0  0  0  0
  7  2  1  0  0  0  0
  8  3  1  0  0  0  0
  9  4  1  0  0  0  0
 11 12  1  0  0  0  0
 12  1  1  0  0  0  0
 12 13  2  0  0  0  0
 13 18  1  0  0  0  0
 14 13  1  0  0  0  0
 15 14  2  0  0  0  0
 16 11  2  0  0  0  0
 16 15  1  0  0  0  0
 17 11  1  0  0  0  0
 19 15  1  0  0  0  0
 20 21  2  0  0  0  0
 20 27  1  0  0  0  0
 22 20  1  0  0  0  0
 23 22  1  0  0  0  0
 25 24  1  0  0  0  0
 26 25  2  0  0  0  0
 27 25  1  0  0  0  0
 27 28  1  0  0  0  0
M  END
>  <minimizedAffinity>
-4.47179127

$$$$

 OpenBabel03272500553D

 28 29  0  0  0  0  0  0  0  0999 V2000
   39.5150   25.6400   34.6240 C   0  0  0  0  0  0  0  0  0  0  0  0
   40.5940   26.4900   34.7900 C   0  0  0  0  0  0  0  0  0  0  0  0
   41.0990   27.2630   33.7480 C   0  0  0  0  0  0  0  0  0  0  0  0
   40.4770   27.1640   32.4710 C   0  0  0  0  0  0  0  0  0  0  0  0
   39.4190   26.3110   32.3550 C   0  0  0  0  0  0  0  0  0  0  0  0
   38.9350   25.5670   33.3840 C   0  0  0  0  0  0  0  0  0  0  0  0
   41.0670   26.5630   35.7570 H   0  0  0  0  0  0  0  0  0  0  0  0
   41.9400   27.8960   33.9820 H   0  0  0  0  0  0  0  0  0  0  0  0
   40.9730   27.8120   31.7790 H   0  0  0  0  0  0  0  0  0  0  0  0
   39.1570   26.3700   31.3200 H   0  0  0  0  0  0  0  0  0  0  0  0
   39.8910   23.6900   36.0330 C   0  0  0  0  0  0  0  0  0  0  0  0
   39.1410   24.8710   35.8050 C   0  0  0  0  0  0  0  0  0  0  0  0
   38.1210   25.1660   36.7230 C   0  0  0  0  0  0  0  0  0  0  0  0
   37.9080   24.3310   37.7520 N   0  0  0  0  0  0  0  0  0  0  0  0
   38.6280   23.2150   37.9530 C   0  0  0  0  0  0  0  0  0  0  0  0
   39.6190   22.8990   37.0900 N   0  0  0  0  0  0  0  0  0  0  0  0
   40.7080   23.3180   35.4260 H   0  0  0  0  0  0  0  0  0  0  0  0
   37.5870   26.0720   36.4990 H   0  0  0  0  0  0  0  0  0  0  0  0
   38.2920   22.6930   38.8330 H   0  0  0  0  0  0  0  0  0  0  0  0
   38.2240   23.4500   32.6440 C   0  0  0  0  0  0  0  0  0  0  0  0
   39.4060   23.2630   32.3120 O   0  0  0  0  0  0  0  0  0  0  0  0
   37.8220   24.7140   33.2530 N   0  0  0  0  0  0  0  0  0  0  0  0
   36.8820   25.0420   33.5850 H   0  0  0  0  0  0  0  0  0  0  0  0
   35.6350   23.2860   30.4810 H   0  0  0  0  0  0  0  0  0  0  0  0
   36.2660   23.1570   31.3730 C   0  0  0  0  0  0  0  0  0  0  0  0
   36.8710   23.8490   30.4690 O   0  0  0  0  0  0  0  0  0  0  0  0
   36.9290   22.8530   32.6760 N   0  0  0  0  0  0  0  0  0  0  0  0
   36.1010   22.4710   32.6940 H   0  0  0  0  0  0  0  0  0  0  0  0
  1  2  1  0  0  0  0
  1 12  1  0  0  0  0
  2  7  1  0  0  0  0
  3  8  1  0  0  0  0
  3  2  2  0  0  0  0
  4  3  1  0  0  0  0
  5  4  2  0  0  0  0
  5  6  1  0  0  0  0
  6  1  2  0  0  0  0
  9  4  1  0  0  0  0
 10  5  1  0  0  0  0
 11 16  1  0  0  0  0
 12 11  2  0  0  0  0
 12 13  1  0  0  0  0
 13 14  2  0  0  0  0
 14 15  1  0  0  0  0
 15 19  1  0  0  0  0
 16 15  2  0  0  0  0
 17 11  1  0  0  0  0
 18 13  1  0  0  0  0
 20 27  1  0  0  0  0
 20 22  1  0  0  0  0
 21 20  2  0  0  0  0
 22  6  1  0  0  0  0
 22 23  1  0  0  0  0
 24 25  1  0  0  0  0
 25 27  1  0  0  0  0
 26 25  2  0  0  0  0
 27 28  1  0  0  0  0
M  END
>  <minimizedAffinity>
-4.45764208

$$$$

 OpenBabel03272500553D

 28 29  0  0  0  0  0  0  0  0999 V2000
   37.9280   25.5440   34.4280 C   0  0  0  0  0  0  0  0  0  0  0  0
   37.6180   26.5770   35.2950 C   0  0  0  0  0  0  0  0  0  0  0  0
   37.0240   27.7580   34.8620 C   0  0  0  0  0  0  0  0  0  0  0  0
   36.7310   27.8980   33.4760 C   0  0  0  0  0  0  0  0  0  0  0  0
   37.0560   26.8550   32.6590 C   0  0  0  0  0  0  0  0  0  0  0  0
   37.6330   25.7050   33.1000 C   0  0  0  0  0  0  0  0  0  0  0  0
   37.8420   26.4720   36.3460 H   0  0  0  0  0  0  0  0  0  0  0  0
   36.8180   28.5000   35.6170 H   0  0  0  0  0  0  0  0  0  0  0  0
   36.2800   28.8520   33.2980 H   0  0  0  0  0  0  0  0  0  0  0  0
   36.7940   27.2040   31.6830 H   0  0  0  0  0  0  0  0  0  0  0  0
   39.9990   24.4760   35.1360 C   0  0  0  0  0  0  0  0  0  0  0  0
   38.5870   24.3960   35.0390 C   0  0  0  0  0  0  0  0  0  0  0  0
   37.9810   23.2270   35.5240 C   0  0  0  0  0  0  0  0  0  0  0  0
   38.7510   22.2590   36.0450 N   0  0  0  0  0  0  0  0  0  0  0  0
   40.0890   22.3530   36.1290 C   0  0  0  0  0  0  0  0  0  0  0  0
   40.7090   23.4630   35.6730 N   0  0  0  0  0  0  0  0  0  0  0  0
   40.6210   25.3030   34.8130 H   0  0  0  0  0  0  0  0  0  0  0  0
   36.9100   23.2220   35.4230 H   0  0  0  0  0  0  0  0  0  0  0  0
   40.5090   21.4680   36.5790 H   0  0  0  0  0  0  0  0  0  0  0  0
   36.7340   24.1880   31.5430 C   0  0  0  0  0  0  0  0  0  0  0  0
   35.6460   24.7490   31.7530 O   0  0  0  0  0  0  0  0  0  0  0  0
   37.9350   24.6260   32.2470 N   0  0  0  0  0  0  0  0  0  0  0  0
   38.9210   24.2710   32.1990 H   0  0  0  0  0  0  0  0  0  0  0  0
   37.2510   20.8860   32.0300 H   0  0  0  0  0  0  0  0  0  0  0  0
   37.2490   21.8930   31.5860 C   0  0  0  0  0  0  0  0  0  0  0  0
   36.6500   21.8840   32.7280 O   0  0  0  0  0  0  0  0  0  0  0  0
   37.3710   23.1540   30.7950 N   0  0  0  0  0  0  0  0  0  0  0  0
   37.7770   22.4900   30.3190 H   0  0  0  0  0  0  0  0  0  0  0  0
  1 12  1  0  0  0  0
  1  2  1  0  0  0  0
  2  7  1  0  0  0  0
  3  2  2  0  0  0  0
  3  8  1  0  0  0  0
  4  3  1  0  0  0  0
  5  6  1  0  0  0  0
  5  4  2  0  0  0  0
  6  1  2  0  0  0  0
  9  4  1  0  0  0  0
 10  5  1  0  0  0  0
 11 16  1  0  0  0  0
 12 11  2  0  0  0  0
 12 13  1  0  0  0  0
 13 14  2  0  0  0  0
 14 15  1  0  0  0  0
 15 19  1  0  0  0  0
 16 15  2  0  0  0  0
 17 11  1  0  0  0  0
 18 13  1  0  0  0  0
 20 21  2  0  0  0  0
 20 22  1  0  0  0  0
 22  6  1  0  0  0  0
 23 22  1  0  0  0  0
 25 24  1  0  0  0  0
 25 26  2  0  0  0  0
 27 20  1  0  0  0  0
 27 25  1  0  0  0  0
 28 27  1  0  0  0  0
M  END
>  <minimizedAffinity>
-4.44505215

$$$$

 OpenBabel03272500553D

 28 29  0  0  0  0  0  0  0  0999 V2000
   39.5410   23.6350   36.0690 C   0  0  0  0  0  0  0  0  0  0  0  0
   39.7730   23.0010   37.2760 C   0  0  0  0  0  0  0  0  0  0  0  0
   39.0140   23.2630   38.4130 C   0  0  0  0  0  0  0  0  0  0  0  0
   37.9660   24.2210   38.3180 C   0  0  0  0  0  0  0  0  0  0  0  0
   37.7740   24.8230   37.1090 C   0  0  0  0  0  0  0  0  0  0  0  0
   38.5230   24.5510   36.0060 C   0  0  0  0  0  0  0  0  0  0  0  0
   40.5700   22.2760   37.3490 H   0  0  0  0  0  0  0  0  0  0  0  0
   39.2730   22.7120   39.3030 H   0  0  0  0  0  0  0  0  0  0  0  0
   37.4770   24.3130   39.2660 H   0  0  0  0  0  0  0  0  0  0  0  0
   36.9860   25.5190   37.2920 H   0  0  0  0  0  0  0  0  0  0  0  0
   40.1200   22.1060   34.2650 C   0  0  0  0  0  0  0  0  0  0  0  0
   40.4550   23.2770   34.9910 C   0  0  0  0  0  0  0  0  0  0  0  0
   41.6240   23.9520   34.6080 C   0  0  0  0  0  0  0  0  0  0  0  0
   42.3560   23.4660   33.5940 N   0  0  0  0  0  0  0  0  0  0  0  0
   42.0230   22.3540   32.9160 C   0  0  0  0  0  0  0  0  0  0  0  0
   40.9040   21.6780   33.2550 N   0  0  0  0  0  0  0  0  0  0  0  0
   39.2570   21.4710   34.4280 H   0  0  0  0  0  0  0  0  0  0  0  0
   41.8260   24.8300   35.1940 H   0  0  0  0  0  0  0  0  0  0  0  0
   42.7450   22.1440   32.1440 H   0  0  0  0  0  0  0  0  0  0  0  0
   38.8610   26.5040   34.7390 C   0  0  0  0  0  0  0  0  0  0  0  0
   39.4350   26.9550   35.7440 O   0  0  0  0  0  0  0  0  0  0  0  0
   38.2920   25.1600   34.7580 N   0  0  0  0  0  0  0  0  0  0  0  0
   37.7770   24.6270   34.0150 H   0  0  0  0  0  0  0  0  0  0  0  0
   36.1800   27.9780   33.3070 H   0  0  0  0  0  0  0  0  0  0  0  0
   37.1490   27.4760   33.4510 C   0  0  0  0  0  0  0  0  0  0  0  0
   36.5580   27.6830   34.5770 O   0  0  0  0  0  0  0  0  0  0  0  0
   38.4830   26.8050   33.3970 N   0  0  0  0  0  0  0  0  0  0  0  0
   38.2380   26.9990   32.5400 H   0  0  0  0  0  0  0  0  0  0  0  0
  1  2  1  0  0  0  0
  2  7  1  0  0  0  0
  2  3  2  0  0  0  0
  3  8  1  0  0  0  0
  4  3  1  0  0  0  0
  4  9  1  0  0  0  0
  5 10  1  0  0  0  0
  5  4  2  0  0  0  0
  6  1  2  0  0  0  0
  6  5  1  0  0  0  0
 11 17  1  0  0  0  0
 11 12  1  0  0  0  0
 12  1  1  0  0  0  0
 13 12  2  0  0  0  0
 13 18  1  0  0  0  0
 14 13  1  0  0  0  0
 15 16  1  0  0  0  0
 15 14  2  0  0  0  0
 16 11  2  0  0  0  0
 19 15  1  0  0  0  0
 20 22  1  0  0  0  0
 20 21  2  0  0  0  0
 22  6  1  0  0  0  0
 23 22  1  0  0  0  0
 24 25  1  0  0  0  0
 25 26  2  0  0  0  0
 27 25  1  0  0  0  0
 27 20  1  0  0  0  0
 28 27  1  0  0  0  0
M  END
>  <minimizedAffinity>
-4.4199543

$$$$

 OpenBabel03272500553D

 28 29  0  0  0  0  0  0  0  0999 V2000
   36.5410   25.6430   31.9050 C   0  0  0  0  0  0  0  0  0  0  0  0
   35.5200   24.9700   31.2580 C   0  0  0  0  0  0  0  0  0  0  0  0
   35.4660   23.5810   31.1970 C   0  0  0  0  0  0  0  0  0  0  0  0
   36.5050   22.8360   31.8240 C   0  0  0  0  0  0  0  0  0  0  0  0
   37.4920   23.5420   32.4480 C   0  0  0  0  0  0  0  0  0  0  0  0
   37.5270   24.9000   32.5020 C   0  0  0  0  0  0  0  0  0  0  0  0
   34.7330   25.5340   30.7810 H   0  0  0  0  0  0  0  0  0  0  0  0
   34.6260   23.1530   30.6730 H   0  0  0  0  0  0  0  0  0  0  0  0
   36.3260   21.7890   31.6930 H   0  0  0  0  0  0  0  0  0  0  0  0
   38.1660   22.7880   32.7920 H   0  0  0  0  0  0  0  0  0  0  0  0
   36.8640   27.6760   30.6050 C   0  0  0  0  0  0  0  0  0  0  0  0
   36.4690   27.0970   31.8370 C   0  0  0  0  0  0  0  0  0  0  0  0
   36.0680   27.9760   32.8540 C   0  0  0  0  0  0  0  0  0  0  0  0
   36.0770   29.2970   32.6170 N   0  0  0  0  0  0  0  0  0  0  0  0
   36.4550   29.8290   31.4420 C   0  0  0  0  0  0  0  0  0  0  0  0
   36.8470   29.0130   30.4380 N   0  0  0  0  0  0  0  0  0  0  0  0
   37.1980   27.1440   29.7210 H   0  0  0  0  0  0  0  0  0  0  0  0
   35.7810   27.4820   33.7650 H   0  0  0  0  0  0  0  0  0  0  0  0
   36.3870   30.9040   31.4660 H   0  0  0  0  0  0  0  0  0  0  0  0
   38.6660   25.1300   34.5470 C   0  0  0  0  0  0  0  0  0  0  0  0
   37.9270   24.2230   34.9630 O   0  0  0  0  0  0  0  0  0  0  0  0
   38.5380   25.6120   33.1750 N   0  0  0  0  0  0  0  0  0  0  0  0
   39.0650   26.3620   32.6640 H   0  0  0  0  0  0  0  0  0  0  0  0
   38.8350   28.1930   35.9610 H   0  0  0  0  0  0  0  0  0  0  0  0
   39.1150   27.2310   35.5040 C   0  0  0  0  0  0  0  0  0  0  0  0
   37.8350   27.3450   35.6060 O   0  0  0  0  0  0  0  0  0  0  0  0
   39.7310   26.0060   34.9120 N   0  0  0  0  0  0  0  0  0  0  0  0
   40.4100   26.5690   35.1470 H   0  0  0  0  0  0  0  0  0  0  0  0
  1  6  1  0  0  0  0
  2  1  2  0  0  0  0
  3  2  1  0  0  0  0
  3  4  2  0  0  0  0
  4  5  1  0  0  0  0
  5  6  2  0  0  0  0
  5 10  1  0  0  0  0
  6 22  1  0  0  0  0
  7  2  1  0  0  0  0
  8  3  1  0  0  0  0
  9  4  1  0  0  0  0
 11 12  1  0  0  0  0
 12  1  1  0  0  0  0
 12 13  2  0  0  0  0
 13 18  1  0  0  0  0
 14 13  1  0  0  0  0
 15 19  1  0  0  0  0
 15 14  2  0  0  0  0
 16 11  2  0  0  0  0
 16 15  1  0  0  0  0
 17 11  1  0  0  0  0
 20 27  1  0  0  0  0
 20 21  2  0  0  0  0
 22 20  1  0  0  0  0
 23 22  1  0  0  0  0
 25 26  2  0  0  0  0
 25 24  1  0  0  0  0
 27 28  1  0  0  0  0
 27 25  1  0  0  0  0
M  END
>  <minimizedAffinity>
-4.41280842

$$$$

 OpenBabel03272500553D

 28 29  0  0  0  0  0  0  0  0999 V2000
   35.7330   29.0630   33.9190 C   0  0  0  0  0  0  0  0  0  0  0  0
   36.5950   28.1890   34.5570 C   0  0  0  0  0  0  0  0  0  0  0  0
   37.2560   27.1690   33.8790 C   0  0  0  0  0  0  0  0  0  0  0  0
   37.0260   27.0280   32.4810 C   0  0  0  0  0  0  0  0  0  0  0  0
   36.1670   27.9110   31.8960 C   0  0  0  0  0  0  0  0  0  0  0  0
   35.5330   28.9060   32.5730 C   0  0  0  0  0  0  0  0  0  0  0  0
   36.7680   28.2940   35.6170 H   0  0  0  0  0  0  0  0  0  0  0  0
   37.9100   26.5440   34.4660 H   0  0  0  0  0  0  0  0  0  0  0  0
   37.6000   26.2070   32.1030 H   0  0  0  0  0  0  0  0  0  0  0  0
   36.1180   27.5840   30.8800 H   0  0  0  0  0  0  0  0  0  0  0  0
   35.9650   30.9230   35.4740 C   0  0  0  0  0  0  0  0  0  0  0  0
   35.0910   30.0460   34.7850 C   0  0  0  0  0  0  0  0  0  0  0  0
   33.7160   30.2050   35.0150 C   0  0  0  0  0  0  0  0  0  0  0  0
   33.3020   31.1610   35.8610 N   0  0  0  0  0  0  0  0  0  0  0  0
   34.1460   31.9850   36.5070 C   0  0  0  0  0  0  0  0  0  0  0  0
   35.4770   31.8610   36.3090 N   0  0  0  0  0  0  0  0  0  0  0  0
   37.0470   30.9360   35.4100 H   0  0  0  0  0  0  0  0  0  0  0  0
   33.1030   29.5130   34.4660 H   0  0  0  0  0  0  0  0  0  0  0  0
   33.6060   32.6750   37.1330 H   0  0  0  0  0  0  0  0  0  0  0  0
   35.4460   30.8230   31.2130 C   0  0  0  0  0  0  0  0  0  0  0  0
   36.6870   30.7800   31.2180 O   0  0  0  0  0  0  0  0  0  0  0  0
   34.6710   29.8270   31.9470 N   0  0  0  0  0  0  0  0  0  0  0  0
   33.6340   29.7150   32.0560 H   0  0  0  0  0  0  0  0  0  0  0  0
   33.6710   33.4860   32.2960 H   0  0  0  0  0  0  0  0  0  0  0  0
   34.0260   32.6370   31.6920 C   0  0  0  0  0  0  0  0  0  0  0  0
   34.7400   32.7850   32.7540 O   0  0  0  0  0  0  0  0  0  0  0  0
   34.3210   31.5460   30.7150 N   0  0  0  0  0  0  0  0  0  0  0  0
   33.6020   32.0100   30.3990 H   0  0  0  0  0  0  0  0  0  0  0  0
  1  2  1  0  0  0  0
  1 12  1  0  0  0  0
  2  7  1  0  0  0  0
  3  8  1  0  0  0  0
  3  2  2  0  0  0  0
  4  3  1  0  0  0  0
  5  4  2  0  0  0  0
  5  6  1  0  0  0  0
  6  1  2  0  0  0  0
  9  4  1  0  0  0  0
 10  5  1  0  0  0  0
 11 16  1  0  0  0  0
 12 13  1  0  0  0  0
 12 11  2  0  0  0  0
 13 14  2  0  0  0  0
 14 15  1  0  0  0  0
 15 19  1  0  0  0  0
 16 15  2  0  0  0  0
 17 11  1  0  0  0  0
 18 13  1  0  0  0  0
 20 21  2  0  0  0  0
 20 22  1  0  0  0  0
 22 23  1  0  0  0  0
 22  6  1  0  0  0  0
 25 24  1  0  0  0  0
 25 26  2  0  0  0  0
 27 20  1  0  0  0  0
 27 25  1  0  0  0  0
 28 27  1  0  0  0  0
M  END
>  <minimizedAffinity>
-4.40709877

$$$$
