
 OpenBabel03272510313D

 28 29  0  0  0  0  0  0  0  0999 V2000
   37.3770   31.1330   49.4660 C   0  0  0  0  0  0  0  0  0  0  0  0
   38.3480   32.1160   49.4970 C   0  0  0  0  0  0  0  0  0  0  0  0
   38.7440   32.5890   48.2540 C   0  0  0  0  0  0  0  0  0  0  0  0
   38.1970   32.1010   47.1160 N   0  0  0  0  0  0  0  0  0  0  0  0
   37.2420   31.1310   47.1260 C   0  0  0  0  0  0  0  0  0  0  0  0
   36.8480   30.6610   48.3400 N   0  0  0  0  0  0  0  0  0  0  0  0
   38.7310   32.4450   50.4520 H   0  0  0  0  0  0  0  0  0  0  0  0
   39.5060   33.3570   48.2490 H   0  0  0  0  0  0  0  0  0  0  0  0
   36.8900   30.6060   50.7870 C   0  0  0  0  0  0  0  0  0  0  0  0
   36.0100   29.4900   50.9000 C   0  0  0  0  0  0  0  0  0  0  0  0
   37.4930   29.2190   51.1130 C   0  0  0  0  0  0  0  0  0  0  0  0
   37.0210   31.3430   51.6010 H   0  0  0  0  0  0  0  0  0  0  0  0
   35.5680   28.9200   50.0850 H   0  0  0  0  0  0  0  0  0  0  0  0
   35.4080   29.4120   51.8450 H   0  0  0  0  0  0  0  0  0  0  0  0
   38.0610   28.6980   50.3260 H   0  0  0  0  0  0  0  0  0  0  0  0
   37.8900   29.0820   52.1300 H   0  0  0  0  0  0  0  0  0  0  0  0
   36.6180   30.5830   45.9200 C   0  0  0  0  0  0  0  0  0  0  0  0
   36.1650   29.6140   46.1150 H   0  0  0  0  0  0  0  0  0  0  0  0
   35.8880   31.2960   45.4800 H   0  0  0  0  0  0  0  0  0  0  0  0
   37.9120   31.3500   43.8960 C   0  0  0  0  0  0  0  0  0  0  0  0
   37.2390   32.3830   43.7030 O   0  0  0  0  0  0  0  0  0  0  0  0
   37.7160   30.3970   44.9570 N   0  0  0  0  0  0  0  0  0  0  0  0
   38.2360   29.5100   45.2220 H   0  0  0  0  0  0  0  0  0  0  0  0
   41.1590   32.0750   43.2520 H   0  0  0  0  0  0  0  0  0  0  0  0
   40.1890   31.5760   43.3340 C   0  0  0  0  0  0  0  0  0  0  0  0
   40.1840   32.7610   43.7920 O   0  0  0  0  0  0  0  0  0  0  0  0
   38.9970   30.6790   43.3250 N   0  0  0  0  0  0  0  0  0  0  0  0
   39.7850   30.1920   42.9110 H   0  0  0  0  0  0  0  0  0  0  0  0
  1  2  1  0  0  0  0
  1  9  1  0  0  0  0
  2  7  1  0  0  0  0
  3  2  2  0  0  0  0
  4  5  2  0  0  0  0
  4  3  1  0  0  0  0
  5  6  1  0  0  0  0
  6  1  2  0  0  0  0
  8  3  1  0  0  0  0
  9 10  1  0  0  0  0
  9 11  1  0  0  0  0
  9 12  1  0  0  0  0
 10 11  1  0  0  0  0
 10 14  1  0  0  0  0
 11 16  1  0  0  0  0
 13 10  1  0  0  0  0
 15 11  1  0  0  0  0
 17 18  1  0  0  0  0
 17  5  1  0  0  0  0
 19 17  1  0  0  0  0
 20 22  1  0  0  0  0
 21 20  2  0  0  0  0
 22 23  1  0  0  0  0
 22 17  1  0  0  0  0
 24 25  1  0  0  0  0
 25 26  2  0  0  0  0
 27 25  1  0  0  0  0
 27 20  1  0  0  0  0
 28 27  1  0  0  0  0
M  END
>  <minimizedAffinity>
-4.87103319

>  <minimizedRMSD>
2.29094839

$$$$
