
 OpenBabel03272503253D

 28 29  0  0  1  0  0  0  0  0999 V2000
   39.2080   25.3110   34.6270 N   0  0  0  0  0  0  0  0  0  0  0  0
   38.0970   25.9330   33.9340 C   0  0  1  0  0  0  0  0  0  0  0  0
   38.8150   27.0400   33.1680 C   0  0  0  0  0  0  0  0  0  0  0  0
   40.2450   27.0660   33.6950 C   0  0  0  0  0  0  0  0  0  0  0  0
   40.4460   25.5700   33.9180 C   0  0  0  0  0  0  0  0  0  0  0  0
   37.4160   26.4260   34.6360 H   0  0  0  0  0  0  0  0  0  0  0  0
   38.8880   26.7110   32.1060 H   0  0  0  0  0  0  0  0  0  0  0  0
   38.3120   28.0090   33.2650 H   0  0  0  0  0  0  0  0  0  0  0  0
   40.9460   27.4780   32.9730 H   0  0  0  0  0  0  0  0  0  0  0  0
   40.2760   27.5460   34.7040 H   0  0  0  0  0  0  0  0  0  0  0  0
   41.3260   25.4590   34.5500 H   0  0  0  0  0  0  0  0  0  0  0  0
   40.4770   25.0700   32.9430 H   0  0  0  0  0  0  0  0  0  0  0  0
   39.0860   24.5630   35.8320 C   0  0  0  0  0  0  0  0  0  0  0  0
   38.0820   24.9300   36.7420 C   0  0  0  0  0  0  0  0  0  0  0  0
   37.9560   24.2040   37.9340 C   0  0  0  0  0  0  0  0  0  0  0  0
   38.8300   23.1690   38.1350 N   0  0  0  0  0  0  0  0  0  0  0  0
   39.7750   22.8470   37.2410 C   0  0  0  0  0  0  0  0  0  0  0  0
   39.9140   23.5400   36.0810 N   0  0  0  0  0  0  0  0  0  0  0  0
   37.3920   25.7460   36.5860 H   0  0  0  0  0  0  0  0  0  0  0  0
   37.1860   24.4790   38.6420 H   0  0  0  0  0  0  0  0  0  0  0  0
   40.4100   22.0120   37.5030 H   0  0  0  0  0  0  0  0  0  0  0  0
   37.3840   25.0300   33.0310 C   0  0  0  0  0  0  0  0  0  0  0  0
   37.5680   23.8390   33.0800 O   0  0  0  0  0  0  0  0  0  0  0  0
   34.8760   24.8410   30.6150 H   0  0  0  0  0  0  0  0  0  0  0  0
   35.5580   24.4730   31.3710 C   0  0  0  0  0  0  0  0  0  0  0  0
   35.6400   23.2520   31.7360 O   0  0  0  0  0  0  0  0  0  0  0  0
   36.4400   25.3750   32.0250 N   0  0  0  0  0  0  0  0  0  0  0  0
   36.3970   26.3640   31.7520 H   0  0  0  0  0  0  0  0  0  0  0  0
  1 13  1  0  0  0  0
  2  1  1  0  0  0  0
  2  6  1  1  0  0  0
  3  8  1  0  0  0  0
  3  4  1  0  0  0  0
  3  2  1  0  0  0  0
  4  5  1  0  0  0  0
  4 10  1  0  0  0  0
  5 11  1  0  0  0  0
  5  1  1  0  0  0  0
  7  3  1  0  0  0  0
  9  4  1  0  0  0  0
 12  5  1  0  0  0  0
 13 18  2  0  0  0  0
 13 14  1  0  0  0  0
 14 15  2  0  0  0  0
 15 16  1  0  0  0  0
 15 20  1  0  0  0  0
 17 21  1  0  0  0  0
 17 16  2  0  0  0  0
 18 17  1  0  0  0  0
 19 14  1  0  0  0  0
 22 23  2  0  0  0  0
 22  2  1  0  0  0  0
 24 25  1  0  0  0  0
 25 26  2  0  0  0  0
 25 27  1  0  0  0  0
 27 22  1  0  0  0  0
 28 27  1  0  0  0  0
M  END
>  <minimizedAffinity>
-4.41313791

$$$$

 OpenBabel03272503253D

 28 29  0  0  1  0  0  0  0  0999 V2000
   38.2250   25.7120   33.7490 N   0  0  0  0  0  0  0  0  0  0  0  0
   39.0410   24.8010   34.5270 C   0  0  1  0  0  0  0  0  0  0  0  0
   40.2300   25.6940   34.8670 C   0  0  0  0  0  0  0  0  0  0  0  0
   40.0610   26.9640   34.0420 C   0  0  0  0  0  0  0  0  0  0  0  0
   38.5400   27.0830   34.0950 C   0  0  0  0  0  0  0  0  0  0  0  0
   39.4270   23.9840   33.9080 H   0  0  0  0  0  0  0  0  0  0  0  0
   40.1140   26.0050   35.9320 H   0  0  0  0  0  0  0  0  0  0  0  0
   41.1910   25.1990   34.6860 H   0  0  0  0  0  0  0  0  0  0  0  0
   40.5620   27.8200   34.4890 H   0  0  0  0  0  0  0  0  0  0  0  0
   40.3270   26.7700   32.9740 H   0  0  0  0  0  0  0  0  0  0  0  0
   38.2510   27.7920   33.3210 H   0  0  0  0  0  0  0  0  0  0  0  0
   38.2420   27.3310   35.1210 H   0  0  0  0  0  0  0  0  0  0  0  0
   37.2620   25.3030   32.7840 C   0  0  0  0  0  0  0  0  0  0  0  0
   36.4860   26.2920   32.1590 C   0  0  0  0  0  0  0  0  0  0  0  0
   35.5310   25.9000   31.2120 C   0  0  0  0  0  0  0  0  0  0  0  0
   35.4160   24.5600   30.9520 N   0  0  0  0  0  0  0  0  0  0  0  0
   36.1760   23.6440   31.5680 C   0  0  0  0  0  0  0  0  0  0  0  0
   37.1060   24.0050   32.4910 N   0  0  0  0  0  0  0  0  0  0  0  0
   36.5750   27.3490   32.3630 H   0  0  0  0  0  0  0  0  0  0  0  0
   34.9280   26.6550   30.7240 H   0  0  0  0  0  0  0  0  0  0  0  0
   36.0000   22.6160   31.2870 H   0  0  0  0  0  0  0  0  0  0  0  0
   38.3820   24.3010   35.7340 C   0  0  0  0  0  0  0  0  0  0  0  0
   37.8680   23.2100   35.7470 O   0  0  0  0  0  0  0  0  0  0  0  0
   37.7890   24.9460   39.1090 H   0  0  0  0  0  0  0  0  0  0  0  0
   37.8650   24.3490   38.2100 C   0  0  0  0  0  0  0  0  0  0  0  0
   37.6330   23.0940   38.1550 O   0  0  0  0  0  0  0  0  0  0  0  0
   38.2450   24.9620   36.9850 N   0  0  0  0  0  0  0  0  0  0  0  0
   38.4370   25.9710   36.9980 H   0  0  0  0  0  0  0  0  0  0  0  0
  1  5  1  0  0  0  0
  1  2  1  0  0  0  0
  2  6  1  6  0  0  0
  2  3  1  0  0  0  0
  2 22  1  0  0  0  0
  3  7  1  0  0  0  0
  4  5  1  0  0  0  0
  4  9  1  0  0  0  0
  4  3  1  0  0  0  0
  5 12  1  0  0  0  0
  8  3  1  0  0  0  0
 10  4  1  0  0  0  0
 11  5  1  0  0  0  0
 13  1  1  0  0  0  0
 14 19  1  0  0  0  0
 14 13  2  0  0  0  0
 15 14  1  0  0  0  0
 16 15  2  0  0  0  0
 16 17  1  0  0  0  0
 17 18  2  0  0  0  0
 18 13  1  0  0  0  0
 20 15  1  0  0  0  0
 21 17  1  0  0  0  0
 22 23  2  0  0  0  0
 22 27  1  0  0  0  0
 25 24  1  0  0  0  0
 26 25  2  0  0  0  0
 27 28  1  0  0  0  0
 27 25  1  0  0  0  0
M  END
>  <minimizedAffinity>
-4.30918407

$$$$

 OpenBabel03272503253D

 28 29  0  0  1  0  0  0  0  0999 V2000
   38.5250   25.7400   35.3520 N   0  0  0  0  0  0  0  0  0  0  0  0
   37.4190   25.6760   34.4170 C   0  0  1  0  0  0  0  0  0  0  0  0
   37.0280   27.1490   34.3310 C   0  0  0  0  0  0  0  0  0  0  0  0
   37.8220   27.8670   35.4150 C   0  0  0  0  0  0  0  0  0  0  0  0
   39.1170   27.0620   35.3360 C   0  0  0  0  0  0  0  0  0  0  0  0
   36.5620   25.1470   34.8490 H   0  0  0  0  0  0  0  0  0  0  0  0
   37.4180   27.5360   33.3600 H   0  0  0  0  0  0  0  0  0  0  0  0
   35.9470   27.3010   34.4290 H   0  0  0  0  0  0  0  0  0  0  0  0
   37.9720   28.9200   35.1910 H   0  0  0  0  0  0  0  0  0  0  0  0
   37.3790   27.6590   36.4200 H   0  0  0  0  0  0  0  0  0  0  0  0
   39.6830   27.2830   36.2400 H   0  0  0  0  0  0  0  0  0  0  0  0
   39.6110   27.2840   34.3830 H   0  0  0  0  0  0  0  0  0  0  0  0
   38.9530   24.6520   36.1640 C   0  0  0  0  0  0  0  0  0  0  0  0
   38.2460   24.3910   37.3490 C   0  0  0  0  0  0  0  0  0  0  0  0
   38.6610   23.3260   38.1600 C   0  0  0  0  0  0  0  0  0  0  0  0
   39.7420   22.5980   37.7370 N   0  0  0  0  0  0  0  0  0  0  0  0
   40.3910   22.8770   36.5990 C   0  0  0  0  0  0  0  0  0  0  0  0
   40.0040   23.9060   35.8000 N   0  0  0  0  0  0  0  0  0  0  0  0
   37.3940   24.9630   37.6850 H   0  0  0  0  0  0  0  0  0  0  0  0
   38.1240   23.1170   39.0760 H   0  0  0  0  0  0  0  0  0  0  0  0
   41.2300   22.2380   36.3630 H   0  0  0  0  0  0  0  0  0  0  0  0
   37.7820   25.1390   33.1060 C   0  0  0  0  0  0  0  0  0  0  0  0
   37.6640   23.9620   32.8700 O   0  0  0  0  0  0  0  0  0  0  0  0
   38.7740   25.9910   29.8730 H   0  0  0  0  0  0  0  0  0  0  0  0
   38.3630   25.3640   30.6540 C   0  0  0  0  0  0  0  0  0  0  0  0
   37.9160   24.1820   30.4700 O   0  0  0  0  0  0  0  0  0  0  0  0
   38.2960   25.8510   31.9880 N   0  0  0  0  0  0  0  0  0  0  0  0
   38.6480   26.7990   32.1660 H   0  0  0  0  0  0  0  0  0  0  0  0
  1 13  1  0  0  0  0
  2  6  1  1  0  0  0
  2  1  1  0  0  0  0
  3  2  1  0  0  0  0
  3  8  1  0  0  0  0
  3  4  1  0  0  0  0
  4 10  1  0  0  0  0
  5  1  1  0  0  0  0
  5  4  1  0  0  0  0
  5 11  1  0  0  0  0
  7  3  1  0  0  0  0
  9  4  1  0  0  0  0
 12  5  1  0  0  0  0
 13 14  1  0  0  0  0
 14 19  1  0  0  0  0
 14 15  2  0  0  0  0
 15 20  1  0  0  0  0
 16 15  1  0  0  0  0
 17 16  2  0  0  0  0
 18 13  2  0  0  0  0
 18 17  1  0  0  0  0
 21 17  1  0  0  0  0
 22  2  1  0  0  0  0
 23 22  2  0  0  0  0
 24 25  1  0  0  0  0
 25 27  1  0  0  0  0
 26 25  2  0  0  0  0
 27 28  1  0  0  0  0
 27 22  1  0  0  0  0
M  END
>  <minimizedAffinity>
-4.26612043

$$$$

 OpenBabel03272503253D

 28 29  0  0  1  0  0  0  0  0999 V2000
   38.7600   22.4030   35.7390 N   0  0  0  0  0  0  0  0  0  0  0  0
   38.5150   23.2510   36.8890 C   0  0  1  0  0  0  0  0  0  0  0  0
   39.7830   23.0100   37.7020 C   0  0  0  0  0  0  0  0  0  0  0  0
   40.5170   21.8610   37.0210 C   0  0  0  0  0  0  0  0  0  0  0  0
   40.1840   22.1920   35.5690 C   0  0  0  0  0  0  0  0  0  0  0  0
   37.6790   22.8760   37.4890 H   0  0  0  0  0  0  0  0  0  0  0  0
   40.4330   23.9060   37.5720 H   0  0  0  0  0  0  0  0  0  0  0  0
   39.5700   22.8070   38.7580 H   0  0  0  0  0  0  0  0  0  0  0  0
   41.5860   21.8760   37.2170 H   0  0  0  0  0  0  0  0  0  0  0  0
   40.0120   20.8900   37.2500 H   0  0  0  0  0  0  0  0  0  0  0  0
   40.4120   21.3040   34.9810 H   0  0  0  0  0  0  0  0  0  0  0  0
   40.7090   23.1130   35.2880 H   0  0  0  0  0  0  0  0  0  0  0  0
   37.7380   21.8600   34.9100 C   0  0  0  0  0  0  0  0  0  0  0  0
   36.6330   21.2560   35.5290 C   0  0  0  0  0  0  0  0  0  0  0  0
   35.6230   20.7130   34.7230 C   0  0  0  0  0  0  0  0  0  0  0  0
   35.7820   20.8090   33.3660 N   0  0  0  0  0  0  0  0  0  0  0  0
   36.8520   21.3940   32.8110 C   0  0  0  0  0  0  0  0  0  0  0  0
   37.8420   21.9250   33.5760 N   0  0  0  0  0  0  0  0  0  0  0  0
   36.5050   21.1780   36.5990 H   0  0  0  0  0  0  0  0  0  0  0  0
   34.7660   20.2450   35.1910 H   0  0  0  0  0  0  0  0  0  0  0  0
   36.8740   21.4140   31.7310 H   0  0  0  0  0  0  0  0  0  0  0  0
   38.3520   24.6660   36.5560 C   0  0  0  0  0  0  0  0  0  0  0  0
   38.0940   25.4740   37.4140 O   0  0  0  0  0  0  0  0  0  0  0  0
   38.6520   27.0290   34.0090 H   0  0  0  0  0  0  0  0  0  0  0  0
   38.5810   26.6690   35.0270 C   0  0  0  0  0  0  0  0  0  0  0  0
   38.5990   27.4180   36.0610 O   0  0  0  0  0  0  0  0  0  0  0  0
   38.4550   25.2740   35.2750 N   0  0  0  0  0  0  0  0  0  0  0  0
   38.4360   24.6470   34.4630 H   0  0  0  0  0  0  0  0  0  0  0  0
  1  2  1  0  0  0  0
  2  6  1  1  0  0  0
  2  3  1  0  0  0  0
  3  8  1  0  0  0  0
  4  9  1  0  0  0  0
  4 10  1  0  0  0  0
  4  3  1  0  0  0  0
  5  1  1  0  0  0  0
  5  4  1  0  0  0  0
  7  3  1  0  0  0  0
 11  5  1  0  0  0  0
 12  5  1  0  0  0  0
 13 14  1  0  0  0  0
 13  1  1  0  0  0  0
 14 19  1  0  0  0  0
 15 20  1  0  0  0  0
 15 14  2  0  0  0  0
 16 15  1  0  0  0  0
 17 16  2  0  0  0  0
 17 18  1  0  0  0  0
 18 13  2  0  0  0  0
 21 17  1  0  0  0  0
 22  2  1  0  0  0  0
 22 23  2  0  0  0  0
 24 25  1  0  0  0  0
 25 27  1  0  0  0  0
 25 26  2  0  0  0  0
 27 22  1  0  0  0  0
 28 27  1  0  0  0  0
M  END
>  <minimizedAffinity>
-4.25034189

$$$$

 OpenBabel03272503253D

 28 29  0  0  1  0  0  0  0  0999 V2000
   37.7820   26.2620   33.6280 N   0  0  0  0  0  0  0  0  0  0  0  0
   37.0240   27.1030   34.5330 C   0  0  1  0  0  0  0  0  0  0  0  0
   38.1130   27.5290   35.5140 C   0  0  0  0  0  0  0  0  0  0  0  0
   39.3400   26.6900   35.1820 C   0  0  0  0  0  0  0  0  0  0  0  0
   39.1840   26.6260   33.6650 C   0  0  0  0  0  0  0  0  0  0  0  0
   36.2960   26.5170   35.1050 H   0  0  0  0  0  0  0  0  0  0  0  0
   38.3860   28.5810   35.2640 H   0  0  0  0  0  0  0  0  0  0  0  0
   37.7990   27.4230   36.5590 H   0  0  0  0  0  0  0  0  0  0  0  0
   40.2670   27.1700   35.4860 H   0  0  0  0  0  0  0  0  0  0  0  0
   39.2080   25.6460   35.5590 H   0  0  0  0  0  0  0  0  0  0  0  0
   39.8380   25.8300   33.3120 H   0  0  0  0  0  0  0  0  0  0  0  0
   39.3640   27.6260   33.2510 H   0  0  0  0  0  0  0  0  0  0  0  0
   37.2170   25.2280   32.8300 C   0  0  0  0  0  0  0  0  0  0  0  0
   37.6760   23.9150   33.0220 C   0  0  0  0  0  0  0  0  0  0  0  0
   37.1310   22.8890   32.2380 C   0  0  0  0  0  0  0  0  0  0  0  0
   36.1720   23.2390   31.3240 N   0  0  0  0  0  0  0  0  0  0  0  0
   35.7580   24.5040   31.1700 C   0  0  0  0  0  0  0  0  0  0  0  0
   36.2760   25.5120   31.9200 N   0  0  0  0  0  0  0  0  0  0  0  0
   38.4330   23.6370   33.7410 H   0  0  0  0  0  0  0  0  0  0  0  0
   37.4780   21.8740   32.3770 H   0  0  0  0  0  0  0  0  0  0  0  0
   34.9970   24.6660   30.4200 H   0  0  0  0  0  0  0  0  0  0  0  0
   36.4020   28.2570   33.8860 C   0  0  0  0  0  0  0  0  0  0  0  0
   35.8990   29.1350   34.5450 O   0  0  0  0  0  0  0  0  0  0  0  0
   35.8900   29.8560   30.8290 H   0  0  0  0  0  0  0  0  0  0  0  0
   35.9480   29.7660   31.9060 C   0  0  0  0  0  0  0  0  0  0  0  0
   35.7270   30.7220   32.7230 O   0  0  0  0  0  0  0  0  0  0  0  0
   36.2900   28.5160   32.4930 N   0  0  0  0  0  0  0  0  0  0  0  0
   36.4730   27.7290   31.8610 H   0  0  0  0  0  0  0  0  0  0  0  0
  1  5  1  0  0  0  0
  1  2  1  0  0  0  0
  2  6  1  1  0  0  0
  2  3  1  0  0  0  0
  3  8  1  0  0  0  0
  4  9  1  0  0  0  0
  4  3  1  0  0  0  0
  4 10  1  0  0  0  0
  5  4  1  0  0  0  0
  7  3  1  0  0  0  0
 11  5  1  0  0  0  0
 12  5  1  0  0  0  0
 13 14  1  0  0  0  0
 13  1  1  0  0  0  0
 14 19  1  0  0  0  0
 15 20  1  0  0  0  0
 15 14  2  0  0  0  0
 16 15  1  0  0  0  0
 17 16  2  0  0  0  0
 17 18  1  0  0  0  0
 18 13  2  0  0  0  0
 21 17  1  0  0  0  0
 22  2  1  0  0  0  0
 22 23  2  0  0  0  0
 24 25  1  0  0  0  0
 25 27  1  0  0  0  0
 25 26  2  0  0  0  0
 27 22  1  0  0  0  0
 28 27  1  0  0  0  0
M  END
>  <minimizedAffinity>
-4.24035549

$$$$

 OpenBabel03272503253D

 28 29  0  0  1  0  0  0  0  0999 V2000
   37.9320   25.9420   34.1280 N   0  0  0  0  0  0  0  0  0  0  0  0
   39.0770   25.8990   35.0150 C   0  0  1  0  0  0  0  0  0  0  0  0
   38.8440   27.1560   35.8490 C   0  0  0  0  0  0  0  0  0  0  0  0
   37.6960   27.9050   35.1830 C   0  0  0  0  0  0  0  0  0  0  0  0
   36.8610   26.7110   34.7300 C   0  0  0  0  0  0  0  0  0  0  0  0
   40.0120   26.0540   34.4660 H   0  0  0  0  0  0  0  0  0  0  0  0
   38.4570   26.8250   36.8410 H   0  0  0  0  0  0  0  0  0  0  0  0
   39.7490   27.7680   35.9450 H   0  0  0  0  0  0  0  0  0  0  0  0
   37.1620   28.5490   35.8780 H   0  0  0  0  0  0  0  0  0  0  0  0
   38.0540   28.4130   34.2540 H   0  0  0  0  0  0  0  0  0  0  0  0
   36.1450   27.0840   34.0000 H   0  0  0  0  0  0  0  0  0  0  0  0
   36.4440   26.2170   35.6170 H   0  0  0  0  0  0  0  0  0  0  0  0
   37.8830   25.3180   32.8490 C   0  0  0  0  0  0  0  0  0  0  0  0
   39.0810   25.1870   32.1290 C   0  0  0  0  0  0  0  0  0  0  0  0
   39.0450   24.5790   30.8670 C   0  0  0  0  0  0  0  0  0  0  0  0
   37.8280   24.1450   30.4130 N   0  0  0  0  0  0  0  0  0  0  0  0
   36.7050   24.2870   31.1300 C   0  0  0  0  0  0  0  0  0  0  0  0
   36.7200   24.8750   32.3550 N   0  0  0  0  0  0  0  0  0  0  0  0
   40.0420   25.5290   32.4840 H   0  0  0  0  0  0  0  0  0  0  0  0
   39.9630   24.4740   30.3030 H   0  0  0  0  0  0  0  0  0  0  0  0
   35.8010   23.9080   30.6750 H   0  0  0  0  0  0  0  0  0  0  0  0
   39.1320   24.7020   35.8530 C   0  0  0  0  0  0  0  0  0  0  0  0
   39.9080   23.8120   35.6030 O   0  0  0  0  0  0  0  0  0  0  0  0
   37.9500   23.2450   38.7920 H   0  0  0  0  0  0  0  0  0  0  0  0
   38.6160   23.3870   37.9510 C   0  0  0  0  0  0  0  0  0  0  0  0
   39.6630   22.6870   37.7350 O   0  0  0  0  0  0  0  0  0  0  0  0
   38.3460   24.4080   36.9990 N   0  0  0  0  0  0  0  0  0  0  0  0
   37.5100   24.9850   37.1470 H   0  0  0  0  0  0  0  0  0  0  0  0
  1  5  1  0  0  0  0
  1  2  1  0  0  0  0
  2  6  1  6  0  0  0
  2  3  1  0  0  0  0
  2 22  1  0  0  0  0
  3  8  1  0  0  0  0
  3  7  1  0  0  0  0
  4  3  1  0  0  0  0
  4  9  1  0  0  0  0
  5  4  1  0  0  0  0
  5 12  1  0  0  0  0
 10  4  1  0  0  0  0
 11  5  1  0  0  0  0
 13  1  1  0  0  0  0
 14 19  1  0  0  0  0
 14 13  2  0  0  0  0
 15 14  1  0  0  0  0
 16 15  2  0  0  0  0
 16 17  1  0  0  0  0
 17 18  2  0  0  0  0
 18 13  1  0  0  0  0
 20 15  1  0  0  0  0
 21 17  1  0  0  0  0
 22 27  1  0  0  0  0
 23 22  2  0  0  0  0
 25 24  1  0  0  0  0
 26 25  2  0  0  0  0
 27 28  1  0  0  0  0
 27 25  1  0  0  0  0
M  END
>  <minimizedAffinity>
-4.21025991

$$$$

 OpenBabel03272503253D

 28 29  0  0  1  0  0  0  0  0999 V2000
   36.5160   27.1730   32.5640 N   0  0  0  0  0  0  0  0  0  0  0  0
   35.8060   28.2060   31.8370 C   0  0  1  0  0  0  0  0  0  0  0  0
   35.5520   29.2210   32.9490 C   0  0  0  0  0  0  0  0  0  0  0  0
   35.9550   28.5380   34.2510 C   0  0  0  0  0  0  0  0  0  0  0  0
   37.1480   27.7340   33.7410 C   0  0  0  0  0  0  0  0  0  0  0  0
   34.8240   27.8550   31.5020 H   0  0  0  0  0  0  0  0  0  0  0  0
   36.2790   30.0540   32.8050 H   0  0  0  0  0  0  0  0  0  0  0  0
   34.5160   29.5770   32.9620 H   0  0  0  0  0  0  0  0  0  0  0  0
   36.2320   29.2500   35.0250 H   0  0  0  0  0  0  0  0  0  0  0  0
   35.1770   27.7950   34.5540 H   0  0  0  0  0  0  0  0  0  0  0  0
   37.3720   26.9850   34.4990 H   0  0  0  0  0  0  0  0  0  0  0  0
   37.9570   28.4290   33.4860 H   0  0  0  0  0  0  0  0  0  0  0  0
   36.5700   25.8060   32.1680 C   0  0  0  0  0  0  0  0  0  0  0  0
   35.5290   25.3040   31.3720 C   0  0  0  0  0  0  0  0  0  0  0  0
   35.5680   23.9590   30.9800 C   0  0  0  0  0  0  0  0  0  0  0  0
   36.6360   23.2120   31.4050 N   0  0  0  0  0  0  0  0  0  0  0  0
   37.6120   23.7270   32.1640 C   0  0  0  0  0  0  0  0  0  0  0  0
   37.5900   25.0290   32.5550 N   0  0  0  0  0  0  0  0  0  0  0  0
   34.6860   25.8910   31.0360 H   0  0  0  0  0  0  0  0  0  0  0  0
   34.7700   23.5620   30.3670 H   0  0  0  0  0  0  0  0  0  0  0  0
   38.4050   23.0480   32.4420 H   0  0  0  0  0  0  0  0  0  0  0  0
   36.5750   28.7930   30.7410 C   0  0  0  0  0  0  0  0  0  0  0  0
   37.0640   29.8910   30.8510 O   0  0  0  0  0  0  0  0  0  0  0  0
   37.9570   28.1700   27.6000 H   0  0  0  0  0  0  0  0  0  0  0  0
   37.8290   28.6800   28.5460 C   0  0  0  0  0  0  0  0  0  0  0  0
   38.5090   29.6960   28.9160 O   0  0  0  0  0  0  0  0  0  0  0  0
   36.8490   28.2210   29.4690 N   0  0  0  0  0  0  0  0  0  0  0  0
   36.2870   27.4060   29.1980 H   0  0  0  0  0  0  0  0  0  0  0  0
  1  5  1  0  0  0  0
  2  6  1  6  0  0  0
  2  1  1  0  0  0  0
  2  3  1  0  0  0  0
  3  8  1  0  0  0  0
  3  4  1  0  0  0  0
  4 10  1  0  0  0  0
  4  9  1  0  0  0  0
  5  4  1  0  0  0  0
  5 11  1  0  0  0  0
  7  3  1  0  0  0  0
 12  5  1  0  0  0  0
 13 18  1  0  0  0  0
 13  1  1  0  0  0  0
 14 13  2  0  0  0  0
 15 14  1  0  0  0  0
 15 16  2  0  0  0  0
 16 17  1  0  0  0  0
 17 21  1  0  0  0  0
 17 18  2  0  0  0  0
 19 14  1  0  0  0  0
 20 15  1  0  0  0  0
 22 23  2  0  0  0  0
 22  2  1  0  0  0  0
 24 25  1  0  0  0  0
 25 26  2  0  0  0  0
 25 27  1  0  0  0  0
 27 22  1  0  0  0  0
 28 27  1  0  0  0  0
M  END
>  <minimizedAffinity>
-4.18122339

$$$$

 OpenBabel03272503253D

 28 29  0  0  1  0  0  0  0  0999 V2000
   36.3220   28.7280   32.0190 N   0  0  0  0  0  0  0  0  0  0  0  0
   37.0080   27.6700   32.7350 C   0  0  1  0  0  0  0  0  0  0  0  0
   36.5380   27.9330   34.1630 C   0  0  0  0  0  0  0  0  0  0  0  0
   35.8050   29.2690   34.1320 C   0  0  0  0  0  0  0  0  0  0  0  0
   35.1500   29.1520   32.7580 C   0  0  0  0  0  0  0  0  0  0  0  0
   38.0920   27.8220   32.7270 H   0  0  0  0  0  0  0  0  0  0  0  0
   35.7640   27.1670   34.4000 H   0  0  0  0  0  0  0  0  0  0  0  0
   37.3630   27.9220   34.8840 H   0  0  0  0  0  0  0  0  0  0  0  0
   35.0760   29.3620   34.9340 H   0  0  0  0  0  0  0  0  0  0  0  0
   36.5370   30.1110   34.0640 H   0  0  0  0  0  0  0  0  0  0  0  0
   34.8130   30.1500   32.4810 H   0  0  0  0  0  0  0  0  0  0  0  0
   34.3810   28.3700   32.8000 H   0  0  0  0  0  0  0  0  0  0  0  0
   36.7540   29.2650   30.7740 C   0  0  0  0  0  0  0  0  0  0  0  0
   36.6460   30.6510   30.5760 C   0  0  0  0  0  0  0  0  0  0  0  0
   37.0640   31.1910   29.3520 C   0  0  0  0  0  0  0  0  0  0  0  0
   37.5580   30.3200   28.4160 N   0  0  0  0  0  0  0  0  0  0  0  0
   37.6460   29.0020   28.6420 C   0  0  0  0  0  0  0  0  0  0  0  0
   37.2450   28.4600   29.8220 N   0  0  0  0  0  0  0  0  0  0  0  0
   36.2570   31.3390   31.3110 H   0  0  0  0  0  0  0  0  0  0  0  0
   36.9840   32.2570   29.1890 H   0  0  0  0  0  0  0  0  0  0  0  0
   38.0510   28.4090   27.8350 H   0  0  0  0  0  0  0  0  0  0  0  0
   36.6460   26.3240   32.2900 C   0  0  0  0  0  0  0  0  0  0  0  0
   37.0530   25.3520   32.8780 O   0  0  0  0  0  0  0  0  0  0  0  0
   34.6530   24.5140   30.0740 H   0  0  0  0  0  0  0  0  0  0  0  0
   35.2630   24.6820   30.9520 C   0  0  0  0  0  0  0  0  0  0  0  0
   35.5260   23.7920   31.8290 O   0  0  0  0  0  0  0  0  0  0  0  0
   35.8290   25.9660   31.1840 N   0  0  0  0  0  0  0  0  0  0  0  0
   35.6350   26.7020   30.4950 H   0  0  0  0  0  0  0  0  0  0  0  0
  1  2  1  0  0  0  0
  1  5  1  0  0  0  0
  2  6  1  6  0  0  0
  2  3  1  0  0  0  0
  3  7  1  0  0  0  0
  3  8  1  0  0  0  0
  4  3  1  0  0  0  0
  4  9  1  0  0  0  0
  5 12  1  0  0  0  0
  5  4  1  0  0  0  0
 10  4  1  0  0  0  0
 11  5  1  0  0  0  0
 13  1  1  0  0  0  0
 14 13  1  0  0  0  0
 14 19  1  0  0  0  0
 15 14  2  0  0  0  0
 16 17  2  0  0  0  0
 16 15  1  0  0  0  0
 17 18  1  0  0  0  0
 18 13  2  0  0  0  0
 20 15  1  0  0  0  0
 21 17  1  0  0  0  0
 22  2  1  0  0  0  0
 22 23  2  0  0  0  0
 24 25  1  0  0  0  0
 25 27  1  0  0  0  0
 25 26  2  0  0  0  0
 27 22  1  0  0  0  0
 28 27  1  0  0  0  0
M  END
>  <minimizedAffinity>
-4.17230034

$$$$

 OpenBabel03272503253D

 28 29  0  0  1  0  0  0  0  0999 V2000
   36.8250   27.8490   33.8980 N   0  0  0  0  0  0  0  0  0  0  0  0
   37.5610   27.2770   32.7870 C   0  0  1  0  0  0  0  0  0  0  0  0
   38.8160   26.7780   33.4980 C   0  0  0  0  0  0  0  0  0  0  0  0
   38.7530   27.3310   34.9170 C   0  0  0  0  0  0  0  0  0  0  0  0
   37.2470   27.2390   35.1430 C   0  0  0  0  0  0  0  0  0  0  0  0
   37.8840   28.0510   32.0830 H   0  0  0  0  0  0  0  0  0  0  0  0
   38.7200   25.6720   33.5970 H   0  0  0  0  0  0  0  0  0  0  0  0
   39.7350   27.0650   32.9740 H   0  0  0  0  0  0  0  0  0  0  0  0
   39.3190   26.7280   35.6230 H   0  0  0  0  0  0  0  0  0  0  0  0
   39.0090   28.4190   34.9190 H   0  0  0  0  0  0  0  0  0  0  0  0
   37.0190   27.8530   36.0130 H   0  0  0  0  0  0  0  0  0  0  0  0
   36.9640   26.1810   35.2030 H   0  0  0  0  0  0  0  0  0  0  0  0
   35.8380   28.8660   33.7680 C   0  0  0  0  0  0  0  0  0  0  0  0
   35.8020   29.8840   34.7340 C   0  0  0  0  0  0  0  0  0  0  0  0
   34.8300   30.8880   34.6190 C   0  0  0  0  0  0  0  0  0  0  0  0
   33.9690   30.8100   33.5560 N   0  0  0  0  0  0  0  0  0  0  0  0
   34.0350   29.8230   32.6530 C   0  0  0  0  0  0  0  0  0  0  0  0
   34.9690   28.8400   32.7480 N   0  0  0  0  0  0  0  0  0  0  0  0
   36.4790   29.9470   35.5730 H   0  0  0  0  0  0  0  0  0  0  0  0
   34.7940   31.6760   35.3590 H   0  0  0  0  0  0  0  0  0  0  0  0
   33.3060   29.8600   31.8560 H   0  0  0  0  0  0  0  0  0  0  0  0
   36.8590   26.1880   32.1110 C   0  0  0  0  0  0  0  0  0  0  0  0
   37.1990   25.0420   32.2730 O   0  0  0  0  0  0  0  0  0  0  0  0
   34.1010   25.3970   30.1280 H   0  0  0  0  0  0  0  0  0  0  0  0
   34.9180   25.2120   30.8130 C   0  0  0  0  0  0  0  0  0  0  0  0
   35.2040   24.0680   31.3040 O   0  0  0  0  0  0  0  0  0  0  0  0
   35.7550   26.2870   31.2210 N   0  0  0  0  0  0  0  0  0  0  0  0
   35.5490   27.2190   30.8410 H   0  0  0  0  0  0  0  0  0  0  0  0
  1  5  1  0  0  0  0
  2  6  1  6  0  0  0
  2  3  1  0  0  0  0
  2  1  1  0  0  0  0
  3  7  1  0  0  0  0
  3  4  1  0  0  0  0
  4 10  1  0  0  0  0
  4  5  1  0  0  0  0
  4  9  1  0  0  0  0
  5 12  1  0  0  0  0
  5 11  1  0  0  0  0
  8  3  1  0  0  0  0
 13  1  1  0  0  0  0
 13 14  1  0  0  0  0
 14 19  1  0  0  0  0
 15 14  2  0  0  0  0
 15 20  1  0  0  0  0
 16 15  1  0  0  0  0
 17 18  1  0  0  0  0
 17 16  2  0  0  0  0
 18 13  2  0  0  0  0
 21 17  1  0  0  0  0
 22 23  2  0  0  0  0
 22  2  1  0  0  0  0
 24 25  1  0  0  0  0
 25 27  1  0  0  0  0
 25 26  2  0  0  0  0
 27 22  1  0  0  0  0
 28 27  1  0  0  0  0
M  END
>  <minimizedAffinity>
-4.14378357

$$$$
