
 OpenBabel03272508513D

 25 26  0  0  1  0  0  0  0  0999 V2000
   38.0610   30.5390   46.7970 C   0  0  2  0  0  0  0  0  0  0  0  0
   36.6150   30.5390   46.9920 C   0  0  0  0  0  0  0  0  0  0  0  0
   37.5740   31.2500   47.9680 C   0  0  1  0  0  0  0  0  0  0  0  0
   38.6450   29.5750   47.0010 H   0  0  0  0  0  0  0  0  0  0  0  0
   35.9780   31.2100   46.3870 H   0  0  0  0  0  0  0  0  0  0  0  0
   36.1000   29.6880   47.4260 H   0  0  0  0  0  0  0  0  0  0  0  0
   37.3890   32.3120   48.0320 H   0  0  0  0  0  0  0  0  0  0  0  0
   40.6810   31.9460   44.5820 C   0  0  0  0  0  0  0  0  0  0  0  0
   39.9040   32.7310   43.6910 C   0  0  0  0  0  0  0  0  0  0  0  0
   38.5020   32.7570   43.8710 C   0  0  0  0  0  0  0  0  0  0  0  0
   37.9690   32.0240   44.8940 N   0  0  0  0  0  0  0  0  0  0  0  0
   38.7430   31.2970   45.7090 C   0  0  0  0  0  0  0  0  0  0  0  0
   40.0890   31.2370   45.5840 N   0  0  0  0  0  0  0  0  0  0  0  0
   41.7630   31.9540   44.4150 H   0  0  0  0  0  0  0  0  0  0  0  0
   40.2880   33.3120   42.8910 H   0  0  0  0  0  0  0  0  0  0  0  0
   37.8170   33.3160   43.2570 H   0  0  0  0  0  0  0  0  0  0  0  0
   37.3070   31.3400   50.4200 C   0  0  0  0  0  0  0  0  0  0  0  0
   36.7770   32.4530   50.3240 O   0  0  0  0  0  0  0  0  0  0  0  0
   37.7140   30.5590   49.2580 N   0  0  0  0  0  0  0  0  0  0  0  0
   38.1020   29.5730   49.1480 H   0  0  0  0  0  0  0  0  0  0  0  0
   37.0110   27.9920   50.6060 H   0  0  0  0  0  0  0  0  0  0  0  0
   37.2800   29.0380   50.8360 C   0  0  0  0  0  0  0  0  0  0  0  0
   36.6010   28.8890   49.7590 O   0  0  0  0  0  0  0  0  0  0  0  0
   37.7590   30.3450   51.3510 N   0  0  0  0  0  0  0  0  0  0  0  0
   38.0600   29.6810   51.9720 H   0  0  0  0  0  0  0  0  0  0  0  0
  1  2  1  0  0  0  0
  1  4  1  1  0  0  0
  1  3  1  0  0  0  0
  2  6  1  0  0  0  0
  2  3  1  0  0  0  0
  3  7  1  6  0  0  0
  3 19  1  0  0  0  0
  5  2  1  0  0  0  0
  8 13  1  0  0  0  0
  9 10  1  0  0  0  0
  9  8  2  0  0  0  0
 10 11  2  0  0  0  0
 11 12  1  0  0  0  0
 12  1  1  0  0  0  0
 13 12  2  0  0  0  0
 14  8  1  0  0  0  0
 15  9  1  0  0  0  0
 16 10  1  0  0  0  0
 17 24  1  0  0  0  0
 18 17  2  0  0  0  0
 19 17  1  0  0  0  0
 20 19  1  0  0  0  0
 21 22  1  0  0  0  0
 22 24  1  0  0  0  0
 23 22  2  0  0  0  0
 24 25  1  0  0  0  0
M  END
>  <minimizedAffinity>
-4.79467964

>  <minimizedRMSD>
0.891559958

$$$$
