
 OpenBabel03272503253D

 28 29  0  0  1  0  0  0  0  0999 V2000
   36.5550   29.9290   49.2020 N   0  0  0  0  0  0  0  0  0  0  0  0
   37.1990   31.2010   48.9380 C   0  0  1  0  0  0  0  0  0  0  0  0
   37.8960   31.4550   50.2720 C   0  0  0  0  0  0  0  0  0  0  0  0
   37.3780   30.3920   51.2340 C   0  0  0  0  0  0  0  0  0  0  0  0
   37.2530   29.2260   50.2580 C   0  0  0  0  0  0  0  0  0  0  0  0
   36.4620   32.0010   48.8100 H   0  0  0  0  0  0  0  0  0  0  0  0
   38.9780   31.2300   50.1250 H   0  0  0  0  0  0  0  0  0  0  0  0
   37.7340   32.4740   50.6410 H   0  0  0  0  0  0  0  0  0  0  0  0
   38.0760   30.1870   52.0420 H   0  0  0  0  0  0  0  0  0  0  0  0
   36.3400   30.6440   51.5640 H   0  0  0  0  0  0  0  0  0  0  0  0
   36.6350   28.4710   50.7440 H   0  0  0  0  0  0  0  0  0  0  0  0
   38.2590   28.9120   49.9540 H   0  0  0  0  0  0  0  0  0  0  0  0
   35.4000   29.4570   48.5150 C   0  0  0  0  0  0  0  0  0  0  0  0
   34.7680   30.3210   47.6070 C   0  0  0  0  0  0  0  0  0  0  0  0
   33.6280   29.8690   46.9300 C   0  0  0  0  0  0  0  0  0  0  0  0
   33.1990   28.5970   47.2010 N   0  0  0  0  0  0  0  0  0  0  0  0
   33.8290   27.8000   48.0750 C   0  0  0  0  0  0  0  0  0  0  0  0
   34.9360   28.2210   48.7420 N   0  0  0  0  0  0  0  0  0  0  0  0
   35.1040   31.3250   47.3920 H   0  0  0  0  0  0  0  0  0  0  0  0
   33.1330   30.5270   46.2270 H   0  0  0  0  0  0  0  0  0  0  0  0
   33.4040   26.8160   48.2110 H   0  0  0  0  0  0  0  0  0  0  0  0
   38.1540   31.1620   47.8320 C   0  0  0  0  0  0  0  0  0  0  0  0
   39.1480   31.8470   47.8530 O   0  0  0  0  0  0  0  0  0  0  0  0
   37.7040   30.1870   44.5130 H   0  0  0  0  0  0  0  0  0  0  0  0
   37.7330   30.8680   45.3550 C   0  0  0  0  0  0  0  0  0  0  0  0
   37.4730   32.1160   45.2810 O   0  0  0  0  0  0  0  0  0  0  0  0
   38.0780   30.3830   46.6460 N   0  0  0  0  0  0  0  0  0  0  0  0
   38.2930   29.3830   46.7350 H   0  0  0  0  0  0  0  0  0  0  0  0
  1  5  1  0  0  0  0
  2  6  1  6  0  0  0
  2  1  1  0  0  0  0
  2  3  1  0  0  0  0
  3  8  1  0  0  0  0
  3  4  1  0  0  0  0
  4 10  1  0  0  0  0
  4  9  1  0  0  0  0
  5 11  1  0  0  0  0
  5  4  1  0  0  0  0
  7  3  1  0  0  0  0
 12  5  1  0  0  0  0
 13 18  1  0  0  0  0
 13  1  1  0  0  0  0
 14 13  2  0  0  0  0
 15 16  2  0  0  0  0
 15 14  1  0  0  0  0
 16 17  1  0  0  0  0
 17 21  1  0  0  0  0
 17 18  2  0  0  0  0
 19 14  1  0  0  0  0
 20 15  1  0  0  0  0
 22 23  2  0  0  0  0
 22  2  1  0  0  0  0
 24 25  1  0  0  0  0
 25 27  1  0  0  0  0
 26 25  2  0  0  0  0
 27 28  1  0  0  0  0
 27 22  1  0  0  0  0
M  END
>  <minimizedAffinity>
-4.80042839

>  <minimizedRMSD>
0.505375087

$$$$
