
 OpenBabel03272509153D

 43 45  0  0  1  0  0  0  0  0999 V2000
   34.9070   29.9440   46.6610 C   0  0  0  0  0  0  0  0  0  0  0  0
   36.1850   30.5430   46.7490 C   0  0  0  0  0  0  0  0  0  0  0  0
   36.8710   30.7910   45.5540 C   0  0  0  0  0  0  0  0  0  0  0  0
   36.2770   30.4460   44.3860 N   0  0  0  0  0  0  0  0  0  0  0  0
   35.0690   29.8800   44.3300 C   0  0  0  0  0  0  0  0  0  0  0  0
   34.3850   29.6290   45.4550 N   0  0  0  0  0  0  0  0  0  0  0  0
   34.2950   29.7190   47.5030 H   0  0  0  0  0  0  0  0  0  0  0  0
   34.6550   29.6320   43.3530 H   0  0  0  0  0  0  0  0  0  0  0  0
   36.6550   30.8240   48.0870 N   0  0  0  0  0  0  0  0  0  0  0  0
   37.0860   31.9240   48.8840 C   0  0  0  0  0  0  0  0  0  0  0  0
   38.3850   31.4430   49.4610 C   0  0  0  0  0  0  0  0  0  0  0  0
   38.1440   29.9420   49.6590 C   0  0  0  0  0  0  0  0  0  0  0  0
   36.7980   29.7130   49.0770 C   0  0  1  0  0  0  0  0  0  0  0  0
   36.3790   31.9390   49.7720 H   0  0  0  0  0  0  0  0  0  0  0  0
   37.0270   32.9300   48.5180 H   0  0  0  0  0  0  0  0  0  0  0  0
   38.5440   31.9360   50.4390 H   0  0  0  0  0  0  0  0  0  0  0  0
   39.2620   31.6040   48.8100 H   0  0  0  0  0  0  0  0  0  0  0  0
   38.9560   29.3860   49.1550 H   0  0  0  0  0  0  0  0  0  0  0  0
   38.1380   29.7450   50.7650 H   0  0  0  0  0  0  0  0  0  0  0  0
   36.6510   28.7500   48.5930 H   0  0  0  0  0  0  0  0  0  0  0  0
   34.7490   28.9860   50.2880 C   0  0  0  0  0  0  0  0  0  0  0  0
   34.4840   28.0060   49.5260 O   0  0  0  0  0  0  0  0  0  0  0  0
   35.8050   29.9410   50.1220 N   0  0  0  0  0  0  0  0  0  0  0  0
   33.9870   28.8880   51.0500 H   0  0  0  0  0  0  0  0  0  0  0  0
   35.5900   30.6320   50.8650 H   0  0  0  0  0  0  0  0  0  0  0  0
   38.1750   31.3940   45.5330 C   0  0  0  0  0  0  0  0  0  0  0  0
   38.4560   32.3480   46.4660 C   0  0  0  0  0  0  0  0  0  0  0  0
   39.6790   32.9850   46.5500 C   0  0  0  0  0  0  0  0  0  0  0  0
   40.6490   32.6190   45.6220 C   0  0  0  0  0  0  0  0  0  0  0  0
   40.4320   31.6730   44.6590 C   0  0  0  0  0  0  0  0  0  0  0  0
   39.1720   31.0710   44.6400 C   0  0  0  0  0  0  0  0  0  0  0  0
   37.8120   32.7760   47.2110 H   0  0  0  0  0  0  0  0  0  0  0  0
   39.9940   33.7430   47.2480 H   0  0  0  0  0  0  0  0  0  0  0  0
   41.6530   33.0630   45.6010 H   0  0  0  0  0  0  0  0  0  0  0  0
   41.2090   31.3970   43.9360 H   0  0  0  0  0  0  0  0  0  0  0  0
   38.8980   30.0490   43.6100 C   0  0  0  0  0  0  0  0  0  0  0  0
   39.4510   30.3400   42.6900 H   0  0  0  0  0  0  0  0  0  0  0  0
   37.8520   29.9720   43.3050 H   0  0  0  0  0  0  0  0  0  0  0  0
   39.4300   26.5600   43.3680 H   0  0  0  0  0  0  0  0  0  0  0  0
   39.1900   27.5910   43.1600 C   0  0  0  0  0  0  0  0  0  0  0  0
   38.8260   27.6550   41.9580 O   0  0  0  0  0  0  0  0  0  0  0  0
   39.2630   28.6980   44.0600 N   0  0  0  0  0  0  0  0  0  0  0  0
   39.5960   28.4030   45.0160 H   0  0  0  0  0  0  0  0  0  0  0  0
  1  2  1  0  0  0  0
  1  7  1  0  0  0  0
  2  9  1  0  0  0  0
  3  2  2  0  0  0  0
  4  3  1  0  0  0  0
  5  4  2  0  0  0  0
  5  6  1  0  0  0  0
  6  1  2  0  0  0  0
  8  5  1  0  0  0  0
  9 10  1  0  0  0  0
  9 13  1  0  0  0  0
 10 11  1  0  0  0  0
 10 14  1  0  0  0  0
 11 12  1  0  0  0  0
 11 16  1  0  0  0  0
 12 19  1  0  0  0  0
 13 20  1  6  0  0  0
 13 12  1  0  0  0  0
 13 23  1  0  0  0  0
 15 10  1  0  0  0  0
 17 11  1  0  0  0  0
 18 12  1  0  0  0  0
 21 24  1  0  0  0  0
 22 21  2  0  0  0  0
 23 21  1  0  0  0  0
 23 25  1  0  0  0  0
 26  3  1  0  0  0  0
 26 27  1  0  0  0  0
 27 28  2  0  0  0  0
 27 32  1  0  0  0  0
 28 33  1  0  0  0  0
 29 28  1  0  0  0  0
 30 29  2  0  0  0  0
 31 30  1  0  0  0  0
 31 26  2  0  0  0  0
 34 29  1  0  0  0  0
 35 30  1  0  0  0  0
 36 42  1  0  0  0  0
 36 31  1  0  0  0  0
 37 36  1  0  0  0  0
 38 36  1  0  0  0  0
 40 39  1  0  0  0  0
 40 42  1  0  0  0  0
 41 40  2  0  0  0  0
 42 43  1  0  0  0  0
M  END
>  <minimizedAffinity>
-5.60030365

>  <minimizedRMSD>
0.876619995

$$$$
