
 OpenBabel03272509153D

 43 45  0  0  1  0  0  0  0  0999 V2000
   35.0310   29.7300   46.6630 C   0  0  0  0  0  0  0  0  0  0  0  0
   36.2800   30.3920   46.6260 C   0  0  0  0  0  0  0  0  0  0  0  0
   36.9460   30.4590   45.3960 C   0  0  0  0  0  0  0  0  0  0  0  0
   36.3610   29.8880   44.3150 N   0  0  0  0  0  0  0  0  0  0  0  0
   35.1800   29.2670   44.3770 C   0  0  0  0  0  0  0  0  0  0  0  0
   34.5170   29.1860   45.5390 N   0  0  0  0  0  0  0  0  0  0  0  0
   34.4360   29.6280   47.5400 H   0  0  0  0  0  0  0  0  0  0  0  0
   34.7720   28.8330   43.4640 H   0  0  0  0  0  0  0  0  0  0  0  0
   36.7450   30.9250   47.8870 N   0  0  0  0  0  0  0  0  0  0  0  0
   37.1490   32.1620   48.4680 C   0  0  0  0  0  0  0  0  0  0  0  0
   38.4610   31.8270   49.1140 C   0  0  0  0  0  0  0  0  0  0  0  0
   38.2590   30.3820   49.5840 C   0  0  0  0  0  0  0  0  0  0  0  0
   36.9180   30.0170   49.0630 C   0  0  1  0  0  0  0  0  0  0  0  0
   36.4430   32.3210   49.3430 H   0  0  0  0  0  0  0  0  0  0  0  0
   37.0640   33.0830   47.9240 H   0  0  0  0  0  0  0  0  0  0  0  0
   38.6090   32.4940   49.9850 H   0  0  0  0  0  0  0  0  0  0  0  0
   39.3320   31.8880   48.4390 H   0  0  0  0  0  0  0  0  0  0  0  0
   39.0840   29.7630   49.1840 H   0  0  0  0  0  0  0  0  0  0  0  0
   38.2600   30.3900   50.7080 H   0  0  0  0  0  0  0  0  0  0  0  0
   36.7950   28.9780   48.7630 H   0  0  0  0  0  0  0  0  0  0  0  0
   34.9020   29.4650   50.4140 C   0  0  0  0  0  0  0  0  0  0  0  0
   34.6710   28.3470   49.8590 O   0  0  0  0  0  0  0  0  0  0  0  0
   35.9210   30.4070   50.0540 N   0  0  0  0  0  0  0  0  0  0  0  0
   34.1480   29.4890   51.1900 H   0  0  0  0  0  0  0  0  0  0  0  0
   35.6840   31.2210   50.6520 H   0  0  0  0  0  0  0  0  0  0  0  0
   38.2190   31.1080   45.2510 C   0  0  0  0  0  0  0  0  0  0  0  0
   39.2720   30.6240   45.9690 C   0  0  0  0  0  0  0  0  0  0  0  0
   40.5440   31.1600   45.9000 C   0  0  0  0  0  0  0  0  0  0  0  0
   40.7280   32.2470   45.0510 C   0  0  0  0  0  0  0  0  0  0  0  0
   39.7150   32.7830   44.3050 C   0  0  0  0  0  0  0  0  0  0  0  0
   38.4590   32.1850   44.4270 C   0  0  0  0  0  0  0  0  0  0  0  0
   39.2880   29.8350   46.6980 H   0  0  0  0  0  0  0  0  0  0  0  0
   41.4320   30.8470   46.4220 H   0  0  0  0  0  0  0  0  0  0  0  0
   41.6970   32.7460   44.9220 H   0  0  0  0  0  0  0  0  0  0  0  0
   39.8780   33.6400   43.6410 H   0  0  0  0  0  0  0  0  0  0  0  0
   37.3380   32.7410   43.6420 C   0  0  0  0  0  0  0  0  0  0  0  0
   36.9410   33.6200   44.1950 H   0  0  0  0  0  0  0  0  0  0  0  0
   36.4850   32.0690   43.5170 H   0  0  0  0  0  0  0  0  0  0  0  0
   37.9770   32.2590   40.1950 H   0  0  0  0  0  0  0  0  0  0  0  0
   37.7060   32.1210   41.2310 C   0  0  0  0  0  0  0  0  0  0  0  0
   37.3420   30.9260   41.3660 O   0  0  0  0  0  0  0  0  0  0  0  0
   37.7430   33.0960   42.2730 N   0  0  0  0  0  0  0  0  0  0  0  0
   38.0820   34.0320   41.9230 H   0  0  0  0  0  0  0  0  0  0  0  0
  1  7  1  0  0  0  0
  2  1  1  0  0  0  0
  2  9  1  0  0  0  0
  3  2  2  0  0  0  0
  4  5  2  0  0  0  0
  4  3  1  0  0  0  0
  5  6  1  0  0  0  0
  6  1  2  0  0  0  0
  8  5  1  0  0  0  0
  9 10  1  0  0  0  0
  9 13  1  0  0  0  0
 10 11  1  0  0  0  0
 10 14  1  0  0  0  0
 11 12  1  0  0  0  0
 11 16  1  0  0  0  0
 12 19  1  0  0  0  0
 13 20  1  6  0  0  0
 13 12  1  0  0  0  0
 13 23  1  0  0  0  0
 15 10  1  0  0  0  0
 17 11  1  0  0  0  0
 18 12  1  0  0  0  0
 21 24  1  0  0  0  0
 22 21  2  0  0  0  0
 23 21  1  0  0  0  0
 23 25  1  0  0  0  0
 26  3  1  0  0  0  0
 26 27  1  0  0  0  0
 27 32  1  0  0  0  0
 28 27  2  0  0  0  0
 28 33  1  0  0  0  0
 29 28  1  0  0  0  0
 30 31  1  0  0  0  0
 30 29  2  0  0  0  0
 31 26  2  0  0  0  0
 34 29  1  0  0  0  0
 35 30  1  0  0  0  0
 36 37  1  0  0  0  0
 36 31  1  0  0  0  0
 38 36  1  0  0  0  0
 39 40  1  0  0  0  0
 40 41  2  0  0  0  0
 40 42  1  0  0  0  0
 42 36  1  0  0  0  0
 43 42  1  0  0  0  0
M  END
>  <minimizedAffinity>
-5.09048319

>  <minimizedRMSD>
2.53613496

$$$$
