
 OpenBabel03272509153D

 43 45  0  0  1  0  0  0  0  0999 V2000
   35.0270   29.7150   46.6370 C   0  0  0  0  0  0  0  0  0  0  0  0
   36.2750   30.3790   46.6060 C   0  0  0  0  0  0  0  0  0  0  0  0
   36.9440   30.4530   45.3780 C   0  0  0  0  0  0  0  0  0  0  0  0
   36.3620   29.8870   44.2930 N   0  0  0  0  0  0  0  0  0  0  0  0
   35.1820   29.2650   44.3490 C   0  0  0  0  0  0  0  0  0  0  0  0
   34.5160   29.1770   45.5090 N   0  0  0  0  0  0  0  0  0  0  0  0
   34.4310   29.6080   47.5130 H   0  0  0  0  0  0  0  0  0  0  0  0
   34.7760   28.8360   43.4330 H   0  0  0  0  0  0  0  0  0  0  0  0
   36.7380   30.9040   47.8710 N   0  0  0  0  0  0  0  0  0  0  0  0
   37.1510   32.1360   48.4570 C   0  0  0  0  0  0  0  0  0  0  0  0
   38.4550   31.7860   49.1120 C   0  0  0  0  0  0  0  0  0  0  0  0
   38.2340   30.3420   49.5780 C   0  0  0  0  0  0  0  0  0  0  0  0
   36.8920   29.9930   49.0470 C   0  0  1  0  0  0  0  0  0  0  0  0
   36.4410   32.3020   49.3270 H   0  0  0  0  0  0  0  0  0  0  0  0
   37.0800   33.0590   47.9140 H   0  0  0  0  0  0  0  0  0  0  0  0
   38.6050   32.4500   49.9850 H   0  0  0  0  0  0  0  0  0  0  0  0
   39.3320   31.8390   48.4430 H   0  0  0  0  0  0  0  0  0  0  0  0
   39.0550   29.7150   49.1840 H   0  0  0  0  0  0  0  0  0  0  0  0
   38.2270   30.3490   50.7020 H   0  0  0  0  0  0  0  0  0  0  0  0
   36.7600   28.9560   48.7450 H   0  0  0  0  0  0  0  0  0  0  0  0
   34.8710   29.4560   50.3960 C   0  0  0  0  0  0  0  0  0  0  0  0
   34.6390   28.3350   49.8470 O   0  0  0  0  0  0  0  0  0  0  0  0
   35.8930   30.3930   50.0320 N   0  0  0  0  0  0  0  0  0  0  0  0
   34.1140   29.4880   51.1680 H   0  0  0  0  0  0  0  0  0  0  0  0
   35.6560   31.2120   50.6230 H   0  0  0  0  0  0  0  0  0  0  0  0
   38.2170   31.1030   45.2400 C   0  0  0  0  0  0  0  0  0  0  0  0
   39.2880   30.5660   45.8910 C   0  0  0  0  0  0  0  0  0  0  0  0
   40.5600   31.0990   45.8200 C   0  0  0  0  0  0  0  0  0  0  0  0
   40.7270   32.2400   45.0420 C   0  0  0  0  0  0  0  0  0  0  0  0
   39.6960   32.8310   44.3650 C   0  0  0  0  0  0  0  0  0  0  0  0
   38.4400   32.2330   44.4840 C   0  0  0  0  0  0  0  0  0  0  0  0
   39.3200   29.7300   46.5640 H   0  0  0  0  0  0  0  0  0  0  0  0
   41.4620   30.7470   46.2940 H   0  0  0  0  0  0  0  0  0  0  0  0
   41.6950   32.7420   44.9190 H   0  0  0  0  0  0  0  0  0  0  0  0
   39.8460   33.7310   43.7560 H   0  0  0  0  0  0  0  0  0  0  0  0
   37.3010   32.8470   43.7720 C   0  0  0  0  0  0  0  0  0  0  0  0
   37.4040   33.9510   43.8580 H   0  0  0  0  0  0  0  0  0  0  0  0
   36.3180   32.6150   44.1900 H   0  0  0  0  0  0  0  0  0  0  0  0
   35.7770   31.9380   40.7120 H   0  0  0  0  0  0  0  0  0  0  0  0
   35.9610   32.2490   41.7280 C   0  0  0  0  0  0  0  0  0  0  0  0
   34.8420   32.4460   42.2670 O   0  0  0  0  0  0  0  0  0  0  0  0
   37.2260   32.4140   42.3690 N   0  0  0  0  0  0  0  0  0  0  0  0
   38.0270   32.1920   41.7190 H   0  0  0  0  0  0  0  0  0  0  0  0
  1  7  1  0  0  0  0
  2  1  1  0  0  0  0
  2  9  1  0  0  0  0
  3  2  2  0  0  0  0
  4  5  2  0  0  0  0
  4  3  1  0  0  0  0
  5  6  1  0  0  0  0
  6  1  2  0  0  0  0
  8  5  1  0  0  0  0
  9 10  1  0  0  0  0
  9 13  1  0  0  0  0
 10 11  1  0  0  0  0
 10 14  1  0  0  0  0
 11 12  1  0  0  0  0
 11 16  1  0  0  0  0
 12 19  1  0  0  0  0
 13 20  1  6  0  0  0
 13 12  1  0  0  0  0
 13 23  1  0  0  0  0
 15 10  1  0  0  0  0
 17 11  1  0  0  0  0
 18 12  1  0  0  0  0
 21 24  1  0  0  0  0
 22 21  2  0  0  0  0
 23 21  1  0  0  0  0
 23 25  1  0  0  0  0
 26  3  1  0  0  0  0
 26 27  1  0  0  0  0
 27 32  1  0  0  0  0
 28 27  2  0  0  0  0
 28 33  1  0  0  0  0
 29 28  1  0  0  0  0
 30 31  1  0  0  0  0
 30 29  2  0  0  0  0
 31 26  2  0  0  0  0
 34 29  1  0  0  0  0
 35 30  1  0  0  0  0
 36 37  1  0  0  0  0
 36 38  1  0  0  0  0
 36 31  1  0  0  0  0
 39 40  1  0  0  0  0
 40 41  2  0  0  0  0
 40 42  1  0  0  0  0
 42 36  1  0  0  0  0
 43 42  1  0  0  0  0
M  END
>  <minimizedAffinity>
-4.96668386

>  <minimizedRMSD>
2.61600161

$$$$
