
 OpenBabel03272509163D

 43 45  0  0  1  0  0  0  0  0999 V2000
   37.7340   23.9210   32.3780 C   0  0  0  0  0  0  0  0  0  0  0  0
   38.1160   24.1440   33.7210 C   0  0  0  0  0  0  0  0  0  0  0  0
   38.0740   23.0540   34.6000 C   0  0  0  0  0  0  0  0  0  0  0  0
   37.6720   21.8530   34.1180 N   0  0  0  0  0  0  0  0  0  0  0  0
   37.3160   21.6690   32.8450 C   0  0  0  0  0  0  0  0  0  0  0  0
   37.3450   22.6910   31.9780 N   0  0  0  0  0  0  0  0  0  0  0  0
   37.7360   24.6740   31.6250 H   0  0  0  0  0  0  0  0  0  0  0  0
   37.0060   20.6730   32.5300 H   0  0  0  0  0  0  0  0  0  0  0  0
   38.5000   25.4990   34.0470 N   0  0  0  0  0  0  0  0  0  0  0  0
   39.6590   26.2530   34.3920 C   0  0  0  0  0  0  0  0  0  0  0  0
   39.2310   26.9990   35.6220 C   0  0  0  0  0  0  0  0  0  0  0  0
   37.7470   27.2820   35.3600 C   0  0  0  0  0  0  0  0  0  0  0  0
   37.4660   26.5800   34.0820 C   0  0  1  0  0  0  0  0  0  0  0  0
   39.7360   27.0570   33.5950 H   0  0  0  0  0  0  0  0  0  0  0  0
   40.6340   25.8080   34.3750 H   0  0  0  0  0  0  0  0  0  0  0  0
   39.7970   27.9490   35.6770 H   0  0  0  0  0  0  0  0  0  0  0  0
   39.3490   26.4340   36.5640 H   0  0  0  0  0  0  0  0  0  0  0  0
   37.1600   26.9110   36.2190 H   0  0  0  0  0  0  0  0  0  0  0  0
   37.6340   28.3940   35.2350 H   0  0  0  0  0  0  0  0  0  0  0  0
   36.4690   26.1570   33.9860 H   0  0  0  0  0  0  0  0  0  0  0  0
   36.8150   27.6250   31.9190 C   0  0  0  0  0  0  0  0  0  0  0  0
   35.7750   26.9210   31.7390 O   0  0  0  0  0  0  0  0  0  0  0  0
   37.7660   27.4930   32.9840 N   0  0  0  0  0  0  0  0  0  0  0  0
   36.7700   28.3090   31.0820 H   0  0  0  0  0  0  0  0  0  0  0  0
   38.5120   28.1520   32.6900 H   0  0  0  0  0  0  0  0  0  0  0  0
   38.4400   23.1760   35.9840 C   0  0  0  0  0  0  0  0  0  0  0  0
   37.5470   23.7510   36.8370 C   0  0  0  0  0  0  0  0  0  0  0  0
   37.7860   23.9090   38.1890 C   0  0  0  0  0  0  0  0  0  0  0  0
   39.0070   23.4510   38.6740 C   0  0  0  0  0  0  0  0  0  0  0  0
   39.9490   22.8670   37.8720 C   0  0  0  0  0  0  0  0  0  0  0  0
   39.6330   22.7410   36.5180 C   0  0  0  0  0  0  0  0  0  0  0  0
   36.5940   24.1970   36.6200 H   0  0  0  0  0  0  0  0  0  0  0  0
   37.1450   24.3450   38.9370 H   0  0  0  0  0  0  0  0  0  0  0  0
   39.2970   23.5270   39.7300 H   0  0  0  0  0  0  0  0  0  0  0  0
   40.9070   22.5120   38.2720 H   0  0  0  0  0  0  0  0  0  0  0  0
   40.6290   22.1210   35.6200 C   0  0  0  0  0  0  0  0  0  0  0  0
   40.0740   21.6080   34.8040 H   0  0  0  0  0  0  0  0  0  0  0  0
   41.2460   21.3470   36.0830 H   0  0  0  0  0  0  0  0  0  0  0  0
   42.4200   23.9490   33.1780 H   0  0  0  0  0  0  0  0  0  0  0  0
   41.7530   23.2670   33.6840 C   0  0  0  0  0  0  0  0  0  0  0  0
   41.1340   22.6250   32.7990 O   0  0  0  0  0  0  0  0  0  0  0  0
   41.5870   23.1040   35.0930 N   0  0  0  0  0  0  0  0  0  0  0  0
   42.2130   23.7530   35.6390 H   0  0  0  0  0  0  0  0  0  0  0  0
  1  2  1  0  0  0  0
  2  9  1  0  0  0  0
  2  3  2  0  0  0  0
  3 26  1  0  0  0  0
  4  3  1  0  0  0  0
  5  4  2  0  0  0  0
  6  1  2  0  0  0  0
  6  5  1  0  0  0  0
  7  1  1  0  0  0  0
  8  5  1  0  0  0  0
  9 13  1  0  0  0  0
  9 10  1  0  0  0  0
 10 11  1  0  0  0  0
 11 16  1  0  0  0  0
 11 17  1  0  0  0  0
 12 11  1  0  0  0  0
 12 18  1  0  0  0  0
 13 20  1  6  0  0  0
 13 12  1  0  0  0  0
 14 10  1  0  0  0  0
 15 10  1  0  0  0  0
 19 12  1  0  0  0  0
 21 23  1  0  0  0  0
 22 21  2  0  0  0  0
 23 13  1  0  0  0  0
 24 21  1  0  0  0  0
 25 23  1  0  0  0  0
 26 31  2  0  0  0  0
 26 27  1  0  0  0  0
 27 28  2  0  0  0  0
 28 29  1  0  0  0  0
 28 33  1  0  0  0  0
 29 34  1  0  0  0  0
 30 35  1  0  0  0  0
 30 29  2  0  0  0  0
 31 30  1  0  0  0  0
 32 27  1  0  0  0  0
 36 38  1  0  0  0  0
 36 31  1  0  0  0  0
 37 36  1  0  0  0  0
 39 40  1  0  0  0  0
 40 42  1  0  0  0  0
 41 40  2  0  0  0  0
 42 36  1  0  0  0  0
 42 43  1  0  0  0  0
M  END
>  <minimizedAffinity>
-5.2944808

$$$$

 OpenBabel03272509163D

 43 45  0  0  1  0  0  0  0  0999 V2000
   37.2450   26.6220   33.4860 C   0  0  0  0  0  0  0  0  0  0  0  0
   38.2280   25.6250   33.6830 C   0  0  0  0  0  0  0  0  0  0  0  0
   38.9840   25.6790   34.8620 C   0  0  0  0  0  0  0  0  0  0  0  0
   38.7320   26.6780   35.7420 N   0  0  0  0  0  0  0  0  0  0  0  0
   37.7980   27.6080   35.5320 C   0  0  0  0  0  0  0  0  0  0  0  0
   37.0570   27.5850   34.4150 N   0  0  0  0  0  0  0  0  0  0  0  0
   36.6100   26.6720   32.6330 H   0  0  0  0  0  0  0  0  0  0  0  0
   37.6520   28.3790   36.2880 H   0  0  0  0  0  0  0  0  0  0  0  0
   38.3570   24.6520   32.6220 N   0  0  0  0  0  0  0  0  0  0  0  0
   39.2240   24.3250   31.5390 C   0  0  0  0  0  0  0  0  0  0  0  0
   38.2860   24.1890   30.3760 C   0  0  0  0  0  0  0  0  0  0  0  0
   37.0220   23.6030   31.0150 C   0  0  0  0  0  0  0  0  0  0  0  0
   37.3300   23.5760   32.4670 C   0  0  1  0  0  0  0  0  0  0  0  0
   39.5650   23.2620   31.7450 H   0  0  0  0  0  0  0  0  0  0  0  0
   40.1500   24.8470   31.3940 H   0  0  0  0  0  0  0  0  0  0  0  0
   38.7170   23.4690   29.6540 H   0  0  0  0  0  0  0  0  0  0  0  0
   38.0490   25.1390   29.8660 H   0  0  0  0  0  0  0  0  0  0  0  0
   36.1620   24.2440   30.7460 H   0  0  0  0  0  0  0  0  0  0  0  0
   36.8950   22.5590   30.6160 H   0  0  0  0  0  0  0  0  0  0  0  0
   36.4870   23.7550   33.1310 H   0  0  0  0  0  0  0  0  0  0  0  0
   37.1810   21.1900   33.1560 C   0  0  0  0  0  0  0  0  0  0  0  0
   35.9370   21.2010   33.4080 O   0  0  0  0  0  0  0  0  0  0  0  0
   37.9880   22.3100   32.7700 N   0  0  0  0  0  0  0  0  0  0  0  0
   37.4310   20.1490   33.3110 H   0  0  0  0  0  0  0  0  0  0  0  0
   38.9440   21.9070   32.7950 H   0  0  0  0  0  0  0  0  0  0  0  0
   40.0070   24.7160   35.1570 C   0  0  0  0  0  0  0  0  0  0  0  0
   41.2890   25.0080   34.7950 C   0  0  0  0  0  0  0  0  0  0  0  0
   42.3550   24.1640   35.0390 C   0  0  0  0  0  0  0  0  0  0  0  0
   42.0760   22.9620   35.6840 C   0  0  0  0  0  0  0  0  0  0  0  0
   40.8140   22.6060   36.0720 C   0  0  0  0  0  0  0  0  0  0  0  0
   39.7900   23.5130   35.7920 C   0  0  0  0  0  0  0  0  0  0  0  0
   41.6610   25.8570   34.2520 H   0  0  0  0  0  0  0  0  0  0  0  0
   43.3940   24.3080   34.7950 H   0  0  0  0  0  0  0  0  0  0  0  0
   42.8490   22.2220   35.9250 H   0  0  0  0  0  0  0  0  0  0  0  0
   40.6130   21.6550   36.5790 H   0  0  0  0  0  0  0  0  0  0  0  0
   38.4120   23.1600   36.1890 C   0  0  0  0  0  0  0  0  0  0  0  0
   38.0180   22.4410   35.4380 H   0  0  0  0  0  0  0  0  0  0  0  0
   37.7050   23.9930   36.1910 H   0  0  0  0  0  0  0  0  0  0  0  0
   38.1040   23.1960   39.7130 H   0  0  0  0  0  0  0  0  0  0  0  0
   38.1640   23.4760   38.6720 C   0  0  0  0  0  0  0  0  0  0  0  0
   38.0370   24.7250   38.6150 O   0  0  0  0  0  0  0  0  0  0  0  0
   38.3520   22.6110   37.5520 N   0  0  0  0  0  0  0  0  0  0  0  0
   38.4320   21.6010   37.8460 H   0  0  0  0  0  0  0  0  0  0  0  0
  1  2  2  0  0  0  0
  1  6  1  0  0  0  0
  2  3  1  0  0  0  0
  3 26  1  0  0  0  0
  3  4  2  0  0  0  0
  5  4  1  0  0  0  0
  5  8  1  0  0  0  0
  6  5  2  0  0  0  0
  7  1  1  0  0  0  0
  9  2  1  0  0  0  0
 10 14  1  0  0  0  0
 10  9  1  0  0  0  0
 11 12  1  0  0  0  0
 11 10  1  0  0  0  0
 12 13  1  0  0  0  0
 13  9  1  0  0  0  0
 13 23  1  0  0  0  0
 13 20  1  1  0  0  0
 15 10  1  0  0  0  0
 16 11  1  0  0  0  0
 17 11  1  0  0  0  0
 18 12  1  0  0  0  0
 19 12  1  0  0  0  0
 21 24  1  0  0  0  0
 21 22  2  0  0  0  0
 23 25  1  0  0  0  0
 23 21  1  0  0  0  0
 26 31  1  0  0  0  0
 27 28  1  0  0  0  0
 27 26  2  0  0  0  0
 28 29  2  0  0  0  0
 29 34  1  0  0  0  0
 29 30  1  0  0  0  0
 30 35  1  0  0  0  0
 31 30  2  0  0  0  0
 31 36  1  0  0  0  0
 32 27  1  0  0  0  0
 33 28  1  0  0  0  0
 36 38  1  0  0  0  0
 36 42  1  0  0  0  0
 37 36  1  0  0  0  0
 40 39  1  0  0  0  0
 41 40  2  0  0  0  0
 42 43  1  0  0  0  0
 42 40  1  0  0  0  0
M  END
>  <minimizedAffinity>
-5.16602707

$$$$

 OpenBabel03272509163D

 43 45  0  0  1  0  0  0  0  0999 V2000
   33.4090   31.2720   36.3670 C   0  0  0  0  0  0  0  0  0  0  0  0
   33.7210   30.6470   35.1380 C   0  0  0  0  0  0  0  0  0  0  0  0
   35.0130   30.8240   34.6260 C   0  0  0  0  0  0  0  0  0  0  0  0
   35.8870   31.5810   35.3330 N   0  0  0  0  0  0  0  0  0  0  0  0
   35.5670   32.1610   36.4910 C   0  0  0  0  0  0  0  0  0  0  0  0
   34.3390   32.0120   37.0090 N   0  0  0  0  0  0  0  0  0  0  0  0
   32.4630   31.1980   36.8500 H   0  0  0  0  0  0  0  0  0  0  0  0
   36.3250   32.7540   37.0030 H   0  0  0  0  0  0  0  0  0  0  0  0
   32.6490   29.8930   34.5280 N   0  0  0  0  0  0  0  0  0  0  0  0
   32.3330   29.2400   33.3010 C   0  0  0  0  0  0  0  0  0  0  0  0
   30.9790   29.7880   32.9580 C   0  0  0  0  0  0  0  0  0  0  0  0
   30.3210   29.9740   34.3300 C   0  0  0  0  0  0  0  0  0  0  0  0
   31.3930   29.6260   35.2950 C   0  0  1  0  0  0  0  0  0  0  0  0
   32.1290   28.1600   33.5850 H   0  0  0  0  0  0  0  0  0  0  0  0
   33.0620   29.1460   32.5200 H   0  0  0  0  0  0  0  0  0  0  0  0
   30.4270   29.0310   32.3690 H   0  0  0  0  0  0  0  0  0  0  0  0
   30.9990   30.7480   32.4130 H   0  0  0  0  0  0  0  0  0  0  0  0
   29.9610   31.0170   34.4090 H   0  0  0  0  0  0  0  0  0  0  0  0
   29.4710   29.2410   34.3980 H   0  0  0  0  0  0  0  0  0  0  0  0
   31.3890   30.1870   36.2270 H   0  0  0  0  0  0  0  0  0  0  0  0
   31.3030   27.7200   36.8930 C   0  0  0  0  0  0  0  0  0  0  0  0
   31.4560   28.4190   37.9420 O   0  0  0  0  0  0  0  0  0  0  0  0
   31.3380   28.1880   35.5380 N   0  0  0  0  0  0  0  0  0  0  0  0
   31.1480   26.7310   37.3040 H   0  0  0  0  0  0  0  0  0  0  0  0
   31.3070   27.3010   35.0020 H   0  0  0  0  0  0  0  0  0  0  0  0
   35.4300   30.2320   33.3850 C   0  0  0  0  0  0  0  0  0  0  0  0
   35.2100   30.9300   32.2350 C   0  0  0  0  0  0  0  0  0  0  0  0
   35.5810   30.4660   30.9870 C   0  0  0  0  0  0  0  0  0  0  0  0
   36.2020   29.2220   30.9330 C   0  0  0  0  0  0  0  0  0  0  0  0
   36.4500   28.4700   32.0480 C   0  0  0  0  0  0  0  0  0  0  0  0
   36.0490   29.0070   33.2720 C   0  0  0  0  0  0  0  0  0  0  0  0
   34.7040   31.8670   32.0980 H   0  0  0  0  0  0  0  0  0  0  0  0
   35.4530   30.9430   30.0300 H   0  0  0  0  0  0  0  0  0  0  0  0
   36.5360   28.7620   29.9940 H   0  0  0  0  0  0  0  0  0  0  0  0
   36.9410   27.4910   31.9860 H   0  0  0  0  0  0  0  0  0  0  0  0
   36.2940   28.2200   34.4980 C   0  0  0  0  0  0  0  0  0  0  0  0
   35.3060   27.9910   34.9550 H   0  0  0  0  0  0  0  0  0  0  0  0
   36.8580   28.7410   35.2740 H   0  0  0  0  0  0  0  0  0  0  0  0
   38.8240   25.7890   34.9430 H   0  0  0  0  0  0  0  0  0  0  0  0
   38.1840   26.6530   35.0410 C   0  0  0  0  0  0  0  0  0  0  0  0
   38.6050   27.3200   36.0190 O   0  0  0  0  0  0  0  0  0  0  0  0
   37.0640   26.9970   34.2260 N   0  0  0  0  0  0  0  0  0  0  0  0
   36.8990   26.2860   33.4660 H   0  0  0  0  0  0  0  0  0  0  0  0
  1  7  1  0  0  0  0
  1  6  1  0  0  0  0
  2  1  2  0  0  0  0
  3  2  1  0  0  0  0
  3  4  2  0  0  0  0
  4  5  1  0  0  0  0
  5  8  1  0  0  0  0
  5  6  2  0  0  0  0
  9  2  1  0  0  0  0
  9 13  1  0  0  0  0
 10 14  1  0  0  0  0
 10  9  1  0  0  0  0
 11 10  1  0  0  0  0
 11 12  1  0  0  0  0
 12 19  1  0  0  0  0
 12 18  1  0  0  0  0
 12 13  1  0  0  0  0
 13 23  1  0  0  0  0
 13 20  1  1  0  0  0
 15 10  1  0  0  0  0
 16 11  1  0  0  0  0
 17 11  1  0  0  0  0
 21 24  1  0  0  0  0
 21 22  2  0  0  0  0
 23 21  1  0  0  0  0
 25 23  1  0  0  0  0
 26  3  1  0  0  0  0
 27 26  2  0  0  0  0
 28 27  1  0  0  0  0
 29 28  2  0  0  0  0
 29 30  1  0  0  0  0
 30 31  2  0  0  0  0
 31 26  1  0  0  0  0
 31 36  1  0  0  0  0
 32 27  1  0  0  0  0
 33 28  1  0  0  0  0
 34 29  1  0  0  0  0
 35 30  1  0  0  0  0
 36 37  1  0  0  0  0
 36 38  1  0  0  0  0
 39 40  1  0  0  0  0
 40 41  2  0  0  0  0
 42 36  1  0  0  0  0
 42 40  1  0  0  0  0
 43 42  1  0  0  0  0
M  END
>  <minimizedAffinity>
-5.13383484

$$$$

 OpenBabel03272509163D

 43 45  0  0  1  0  0  0  0  0999 V2000
   40.6130   23.4080   35.8270 C   0  0  0  0  0  0  0  0  0  0  0  0
   40.0370   24.5450   35.2150 C   0  0  0  0  0  0  0  0  0  0  0  0
   38.6400   24.5950   35.1180 C   0  0  0  0  0  0  0  0  0  0  0  0
   37.9230   23.5580   35.6130 N   0  0  0  0  0  0  0  0  0  0  0  0
   38.4910   22.4950   36.1860 C   0  0  0  0  0  0  0  0  0  0  0  0
   39.8250   22.4150   36.2950 N   0  0  0  0  0  0  0  0  0  0  0  0
   41.6600   23.2690   35.9600 H   0  0  0  0  0  0  0  0  0  0  0  0
   37.8480   21.6990   36.5620 H   0  0  0  0  0  0  0  0  0  0  0  0
   40.9700   25.5400   34.7360 N   0  0  0  0  0  0  0  0  0  0  0  0
   41.0150   26.9260   34.4080 C   0  0  0  0  0  0  0  0  0  0  0  0
   41.6410   26.9360   33.0440 C   0  0  0  0  0  0  0  0  0  0  0  0
   42.6300   25.7660   33.1060 C   0  0  0  0  0  0  0  0  0  0  0  0
   42.3830   25.1550   34.4360 C   0  0  1  0  0  0  0  0  0  0  0  0
   41.8170   27.3630   35.0820 H   0  0  0  0  0  0  0  0  0  0  0  0
   40.1750   27.5670   34.5920 H   0  0  0  0  0  0  0  0  0  0  0  0
   42.1870   27.8900   32.9100 H   0  0  0  0  0  0  0  0  0  0  0  0
   40.9290   26.7880   32.2130 H   0  0  0  0  0  0  0  0  0  0  0  0
   42.4310   25.0920   32.2530 H   0  0  0  0  0  0  0  0  0  0  0  0
   43.6670   26.1990   33.0530 H   0  0  0  0  0  0  0  0  0  0  0  0
   42.5030   24.0750   34.4880 H   0  0  0  0  0  0  0  0  0  0  0  0
   44.0530   25.0400   36.2780 C   0  0  0  0  0  0  0  0  0  0  0  0
   44.0360   23.7760   36.3940 O   0  0  0  0  0  0  0  0  0  0  0  0
   43.2280   25.8330   35.4130 N   0  0  0  0  0  0  0  0  0  0  0  0
   44.8260   25.3190   36.9810 H   0  0  0  0  0  0  0  0  0  0  0  0
   43.4590   26.7970   35.7180 H   0  0  0  0  0  0  0  0  0  0  0  0
   37.9570   25.7050   34.5140 C   0  0  0  0  0  0  0  0  0  0  0  0
   37.6010   26.7520   35.3110 C   0  0  0  0  0  0  0  0  0  0  0  0
   36.9520   27.8760   34.8370 C   0  0  0  0  0  0  0  0  0  0  0  0
   36.6580   27.9110   33.4770 C   0  0  0  0  0  0  0  0  0  0  0  0
   36.9840   26.8950   32.6230 C   0  0  0  0  0  0  0  0  0  0  0  0
   37.6400   25.7940   33.1770 C   0  0  0  0  0  0  0  0  0  0  0  0
   37.7070   26.8590   36.3740 H   0  0  0  0  0  0  0  0  0  0  0  0
   36.6360   28.7480   35.3850 H   0  0  0  0  0  0  0  0  0  0  0  0
   36.1460   28.7570   33.0000 H   0  0  0  0  0  0  0  0  0  0  0  0
   36.7440   26.9400   31.5540 H   0  0  0  0  0  0  0  0  0  0  0  0
   38.0030   24.6730   32.2860 C   0  0  0  0  0  0  0  0  0  0  0  0
   39.0550   24.3920   32.5070 H   0  0  0  0  0  0  0  0  0  0  0  0
   37.9850   24.9090   31.2190 H   0  0  0  0  0  0  0  0  0  0  0  0
   35.1630   22.6570   31.6610 H   0  0  0  0  0  0  0  0  0  0  0  0
   35.9060   23.4410   31.6440 C   0  0  0  0  0  0  0  0  0  0  0  0
   35.5390   24.2820   30.7860 O   0  0  0  0  0  0  0  0  0  0  0  0
   37.0910   23.5290   32.4350 N   0  0  0  0  0  0  0  0  0  0  0  0
   37.1900   22.7050   33.0860 H   0  0  0  0  0  0  0  0  0  0  0  0
  1  7  1  0  0  0  0
  1  6  1  0  0  0  0
  2  1  2  0  0  0  0
  3  2  1  0  0  0  0
  3  4  2  0  0  0  0
  4  5  1  0  0  0  0
  5  6  2  0  0  0  0
  5  8  1  0  0  0  0
  9  2  1  0  0  0  0
 10 15  1  0  0  0  0
 10  9  1  0  0  0  0
 10 14  1  0  0  0  0
 11 12  1  0  0  0  0
 11 10  1  0  0  0  0
 12 13  1  0  0  0  0
 13 20  1  6  0  0  0
 13  9  1  0  0  0  0
 13 23  1  0  0  0  0
 16 11  1  0  0  0  0
 17 11  1  0  0  0  0
 18 12  1  0  0  0  0
 19 12  1  0  0  0  0
 21 22  2  0  0  0  0
 21 24  1  0  0  0  0
 23 25  1  0  0  0  0
 23 21  1  0  0  0  0
 26  3  1  0  0  0  0
 26 27  1  0  0  0  0
 27 32  1  0  0  0  0
 28 27  2  0  0  0  0
 28 33  1  0  0  0  0
 29 28  1  0  0  0  0
 30 31  1  0  0  0  0
 30 29  2  0  0  0  0
 31 26  2  0  0  0  0
 34 29  1  0  0  0  0
 35 30  1  0  0  0  0
 36 42  1  0  0  0  0
 36 37  1  0  0  0  0
 36 31  1  0  0  0  0
 38 36  1  0  0  0  0
 40 39  1  0  0  0  0
 40 42  1  0  0  0  0
 41 40  2  0  0  0  0
 42 43  1  0  0  0  0
M  END
>  <minimizedAffinity>
-5.06663036

$$$$

 OpenBabel03272509163D

 43 45  0  0  1  0  0  0  0  0999 V2000
   37.0630   23.8230   32.3210 C   0  0  0  0  0  0  0  0  0  0  0  0
   38.0970   23.7960   33.2840 C   0  0  0  0  0  0  0  0  0  0  0  0
   38.3860   22.5690   33.8960 C   0  0  0  0  0  0  0  0  0  0  0  0
   37.6620   21.4820   33.5330 N   0  0  0  0  0  0  0  0  0  0  0  0
   36.6900   21.5350   32.6200 C   0  0  0  0  0  0  0  0  0  0  0  0
   36.3880   22.6930   32.0160 N   0  0  0  0  0  0  0  0  0  0  0  0
   36.7660   24.6970   31.7900 H   0  0  0  0  0  0  0  0  0  0  0  0
   36.1520   20.6180   32.3790 H   0  0  0  0  0  0  0  0  0  0  0  0
   38.7440   25.0620   33.5470 N   0  0  0  0  0  0  0  0  0  0  0  0
   40.0020   25.7050   33.3610 C   0  0  0  0  0  0  0  0  0  0  0  0
   40.3160   26.2470   34.7250 C   0  0  0  0  0  0  0  0  0  0  0  0
   38.9360   26.6240   35.2760 C   0  0  0  0  0  0  0  0  0  0  0  0
   37.9900   26.1580   34.2310 C   0  0  1  0  0  0  0  0  0  0  0  0
   39.7730   26.6290   32.7430 H   0  0  0  0  0  0  0  0  0  0  0  0
   40.7870   25.2340   32.8020 H   0  0  0  0  0  0  0  0  0  0  0  0
   40.9410   27.1530   34.6120 H   0  0  0  0  0  0  0  0  0  0  0  0
   40.8110   25.5280   35.4000 H   0  0  0  0  0  0  0  0  0  0  0  0
   38.8030   26.1330   36.2580 H   0  0  0  0  0  0  0  0  0  0  0  0
   38.9040   27.7440   35.3690 H   0  0  0  0  0  0  0  0  0  0  0  0
   37.0310   25.7930   34.5920 H   0  0  0  0  0  0  0  0  0  0  0  0
   36.8350   28.2420   33.5130 C   0  0  0  0  0  0  0  0  0  0  0  0
   35.9710   28.2420   34.4430 O   0  0  0  0  0  0  0  0  0  0  0  0
   37.8200   27.2310   33.2580 N   0  0  0  0  0  0  0  0  0  0  0  0
   36.6180   29.1720   33.0060 H   0  0  0  0  0  0  0  0  0  0  0  0
   38.2200   27.5430   32.3530 H   0  0  0  0  0  0  0  0  0  0  0  0
   39.4170   22.4340   34.8870 C   0  0  0  0  0  0  0  0  0  0  0  0
   40.6750   22.1190   34.4680 C   0  0  0  0  0  0  0  0  0  0  0  0
   41.7450   21.9760   35.3300 C   0  0  0  0  0  0  0  0  0  0  0  0
   41.4960   22.1670   36.6860 C   0  0  0  0  0  0  0  0  0  0  0  0
   40.2580   22.4830   37.1730 C   0  0  0  0  0  0  0  0  0  0  0  0
   39.2280   22.6110   36.2400 C   0  0  0  0  0  0  0  0  0  0  0  0
   41.0200   21.8920   33.4770 H   0  0  0  0  0  0  0  0  0  0  0  0
   42.7680   21.7330   35.0940 H   0  0  0  0  0  0  0  0  0  0  0  0
   42.2750   22.0780   37.4540 H   0  0  0  0  0  0  0  0  0  0  0  0
   40.0810   22.6290   38.2460 H   0  0  0  0  0  0  0  0  0  0  0  0
   37.8750   22.9450   36.7300 C   0  0  0  0  0  0  0  0  0  0  0  0
   37.1620   22.2270   36.2700 H   0  0  0  0  0  0  0  0  0  0  0  0
   37.5130   23.9350   36.4440 H   0  0  0  0  0  0  0  0  0  0  0  0
   37.8290   24.2520   40.0170 H   0  0  0  0  0  0  0  0  0  0  0  0
   37.8740   24.1380   38.9450 C   0  0  0  0  0  0  0  0  0  0  0  0
   38.0080   25.2870   38.4530 O   0  0  0  0  0  0  0  0  0  0  0  0
   37.7970   22.9230   38.1990 N   0  0  0  0  0  0  0  0  0  0  0  0
   37.6830   22.0840   38.8270 H   0  0  0  0  0  0  0  0  0  0  0  0
  1  2  1  0  0  0  0
  2  9  1  0  0  0  0
  2  3  2  0  0  0  0
  3 26  1  0  0  0  0
  4  3  1  0  0  0  0
  5  4  2  0  0  0  0
  6  1  2  0  0  0  0
  6  5  1  0  0  0  0
  7  1  1  0  0  0  0
  8  5  1  0  0  0  0
  9 13  1  0  0  0  0
 10  9  1  0  0  0  0
 10 11  1  0  0  0  0
 11 12  1  0  0  0  0
 11 17  1  0  0  0  0
 12 19  1  0  0  0  0
 12 18  1  0  0  0  0
 13 20  1  1  0  0  0
 13 12  1  0  0  0  0
 14 10  1  0  0  0  0
 15 10  1  0  0  0  0
 16 11  1  0  0  0  0
 21 22  2  0  0  0  0
 23 21  1  0  0  0  0
 23 13  1  0  0  0  0
 24 21  1  0  0  0  0
 25 23  1  0  0  0  0
 26 31  1  0  0  0  0
 27 26  2  0  0  0  0
 27 28  1  0  0  0  0
 28 29  2  0  0  0  0
 29 30  1  0  0  0  0
 29 34  1  0  0  0  0
 30 35  1  0  0  0  0
 31 36  1  0  0  0  0
 31 30  2  0  0  0  0
 32 27  1  0  0  0  0
 33 28  1  0  0  0  0
 36 42  1  0  0  0  0
 37 36  1  0  0  0  0
 38 36  1  0  0  0  0
 40 39  1  0  0  0  0
 41 40  2  0  0  0  0
 42 43  1  0  0  0  0
 42 40  1  0  0  0  0
M  END
>  <minimizedAffinity>
-5.01848459

$$$$

 OpenBabel03272509163D

 43 45  0  0  1  0  0  0  0  0999 V2000
   37.1250   26.6770   33.5300 C   0  0  0  0  0  0  0  0  0  0  0  0
   37.2610   25.3050   33.2160 C   0  0  0  0  0  0  0  0  0  0  0  0
   36.6840   24.8490   32.0240 C   0  0  0  0  0  0  0  0  0  0  0  0
   36.0310   25.7420   31.2420 N   0  0  0  0  0  0  0  0  0  0  0  0
   35.9160   27.0330   31.5620 C   0  0  0  0  0  0  0  0  0  0  0  0
   36.4570   27.5020   32.6950 N   0  0  0  0  0  0  0  0  0  0  0  0
   37.5300   27.1320   34.4030 H   0  0  0  0  0  0  0  0  0  0  0  0
   35.3770   27.6920   30.8810 H   0  0  0  0  0  0  0  0  0  0  0  0
   37.9810   24.5090   34.1850 N   0  0  0  0  0  0  0  0  0  0  0  0
   38.2660   23.1440   34.4810 C   0  0  0  0  0  0  0  0  0  0  0  0
   37.9140   23.0270   35.9350 C   0  0  0  0  0  0  0  0  0  0  0  0
   38.2970   24.4000   36.4990 C   0  0  0  0  0  0  0  0  0  0  0  0
   38.7140   25.1770   35.3040 C   0  0  1  0  0  0  0  0  0  0  0  0
   39.3990   23.0700   34.4650 H   0  0  0  0  0  0  0  0  0  0  0  0
   37.9680   22.3590   33.8150 H   0  0  0  0  0  0  0  0  0  0  0  0
   38.5420   22.2380   36.3910 H   0  0  0  0  0  0  0  0  0  0  0  0
   36.8470   22.8210   36.1320 H   0  0  0  0  0  0  0  0  0  0  0  0
   37.4230   24.8190   37.0300 H   0  0  0  0  0  0  0  0  0  0  0  0
   39.1660   24.2470   37.1960 H   0  0  0  0  0  0  0  0  0  0  0  0
   38.4830   26.2400   35.3290 H   0  0  0  0  0  0  0  0  0  0  0  0
   40.9550   26.0420   34.6540 C   0  0  0  0  0  0  0  0  0  0  0  0
   40.5560   27.1940   34.3010 O   0  0  0  0  0  0  0  0  0  0  0  0
   40.1370   24.9450   35.0820 N   0  0  0  0  0  0  0  0  0  0  0  0
   42.0270   26.1330   34.5410 H   0  0  0  0  0  0  0  0  0  0  0  0
   40.8270   24.1720   35.1440 H   0  0  0  0  0  0  0  0  0  0  0  0
   36.7640   23.4740   31.6150 C   0  0  0  0  0  0  0  0  0  0  0  0
   35.6900   22.6690   31.8520 C   0  0  0  0  0  0  0  0  0  0  0  0
   35.6500   21.3360   31.4900 C   0  0  0  0  0  0  0  0  0  0  0  0
   36.7760   20.8170   30.8590 C   0  0  0  0  0  0  0  0  0  0  0  0
   37.8870   21.5680   30.5940 C   0  0  0  0  0  0  0  0  0  0  0  0
   37.8510   22.9070   30.9880 C   0  0  0  0  0  0  0  0  0  0  0  0
   34.7750   22.8960   32.3670 H   0  0  0  0  0  0  0  0  0  0  0  0
   34.8510   20.6270   31.6320 H   0  0  0  0  0  0  0  0  0  0  0  0
   36.8470   19.7720   30.5310 H   0  0  0  0  0  0  0  0  0  0  0  0
   38.7670   21.1420   30.0960 H   0  0  0  0  0  0  0  0  0  0  0  0
   39.0370   23.7480   30.7240 C   0  0  0  0  0  0  0  0  0  0  0  0
   39.8960   23.0690   30.5300 H   0  0  0  0  0  0  0  0  0  0  0  0
   39.3490   24.3780   31.5600 H   0  0  0  0  0  0  0  0  0  0  0  0
   39.0930   26.8270   28.9830 H   0  0  0  0  0  0  0  0  0  0  0  0
   39.2010   26.0510   29.7260 C   0  0  0  0  0  0  0  0  0  0  0  0
   39.7340   26.5740   30.7360 O   0  0  0  0  0  0  0  0  0  0  0  0
   38.8170   24.6800   29.6080 N   0  0  0  0  0  0  0  0  0  0  0  0
   38.3910   24.4720   28.6670 H   0  0  0  0  0  0  0  0  0  0  0  0
  1  7  1  0  0  0  0
  2  1  1  0  0  0  0
  2  9  1  0  0  0  0
  3  2  2  0  0  0  0
  4  5  2  0  0  0  0
  4  3  1  0  0  0  0
  5  6  1  0  0  0  0
  6  1  2  0  0  0  0
  8  5  1  0  0  0  0
  9 10  1  0  0  0  0
  9 13  1  0  0  0  0
 10 11  1  0  0  0  0
 11 17  1  0  0  0  0
 11 16  1  0  0  0  0
 11 12  1  0  0  0  0
 12 18  1  0  0  0  0
 12 19  1  0  0  0  0
 13 20  1  1  0  0  0
 13 12  1  0  0  0  0
 14 10  1  0  0  0  0
 15 10  1  0  0  0  0
 21 23  1  0  0  0  0
 22 21  2  0  0  0  0
 23 25  1  0  0  0  0
 23 13  1  0  0  0  0
 24 21  1  0  0  0  0
 26 27  1  0  0  0  0
 26  3  1  0  0  0  0
 27 32  1  0  0  0  0
 28 33  1  0  0  0  0
 28 27  2  0  0  0  0
 29 28  1  0  0  0  0
 30 29  2  0  0  0  0
 30 31  1  0  0  0  0
 31 26  2  0  0  0  0
 34 29  1  0  0  0  0
 35 30  1  0  0  0  0
 36 31  1  0  0  0  0
 36 38  1  0  0  0  0
 37 36  1  0  0  0  0
 39 40  1  0  0  0  0
 40 41  2  0  0  0  0
 42 40  1  0  0  0  0
 42 36  1  0  0  0  0
 43 42  1  0  0  0  0
M  END
>  <minimizedAffinity>
-5.01433945

$$$$

 OpenBabel03272509163D

 43 45  0  0  1  0  0  0  0  0999 V2000
   38.1580   23.6990   31.8090 C   0  0  0  0  0  0  0  0  0  0  0  0
   38.7860   23.7930   33.0720 C   0  0  0  0  0  0  0  0  0  0  0  0
   38.8970   22.6220   33.8330 C   0  0  0  0  0  0  0  0  0  0  0  0
   38.3980   21.4710   33.3200 N   0  0  0  0  0  0  0  0  0  0  0  0
   37.8090   21.4100   32.1240 C   0  0  0  0  0  0  0  0  0  0  0  0
   37.6870   22.5120   31.3700 N   0  0  0  0  0  0  0  0  0  0  0  0
   38.0280   24.5220   31.1460 H   0  0  0  0  0  0  0  0  0  0  0  0
   37.4330   20.4470   31.7770 H   0  0  0  0  0  0  0  0  0  0  0  0
   39.2400   25.1120   33.4510 N   0  0  0  0  0  0  0  0  0  0  0  0
   40.4450   25.8670   33.5450 C   0  0  0  0  0  0  0  0  0  0  0  0
   40.3890   26.4330   34.9340 C   0  0  0  0  0  0  0  0  0  0  0  0
   38.8920   26.6810   35.1490 C   0  0  0  0  0  0  0  0  0  0  0  0
   38.2560   26.1330   33.9250 C   0  0  1  0  0  0  0  0  0  0  0  0
   40.2820   26.7680   32.8740 H   0  0  0  0  0  0  0  0  0  0  0  0
   41.3760   25.4720   33.1880 H   0  0  0  0  0  0  0  0  0  0  0  0
   40.9410   27.3920   34.9500 H   0  0  0  0  0  0  0  0  0  0  0  0
   40.7800   25.7600   35.7180 H   0  0  0  0  0  0  0  0  0  0  0  0
   38.5830   26.1780   36.0850 H   0  0  0  0  0  0  0  0  0  0  0  0
   38.7400   27.7930   35.2120 H   0  0  0  0  0  0  0  0  0  0  0  0
   37.2760   25.6810   34.0650 H   0  0  0  0  0  0  0  0  0  0  0  0
   37.0580   27.3010   32.0820 C   0  0  0  0  0  0  0  0  0  0  0  0
   36.0900   26.4830   32.0140 O   0  0  0  0  0  0  0  0  0  0  0  0
   38.2170   27.1890   32.9190 N   0  0  0  0  0  0  0  0  0  0  0  0
   36.7640   28.0560   31.3660 H   0  0  0  0  0  0  0  0  0  0  0  0
   38.8070   27.9710   32.5770 H   0  0  0  0  0  0  0  0  0  0  0  0
   39.5170   22.6090   35.1290 C   0  0  0  0  0  0  0  0  0  0  0  0
   40.8650   22.4170   35.1940 C   0  0  0  0  0  0  0  0  0  0  0  0
   41.5690   22.3990   36.3830 C   0  0  0  0  0  0  0  0  0  0  0  0
   40.8400   22.5850   37.5540 C   0  0  0  0  0  0  0  0  0  0  0  0
   39.4860   22.7800   37.5590 C   0  0  0  0  0  0  0  0  0  0  0  0
   38.8460   22.7880   36.3180 C   0  0  0  0  0  0  0  0  0  0  0  0
   41.5580   22.2110   34.4010 H   0  0  0  0  0  0  0  0  0  0  0  0
   42.6260   22.2580   36.5340 H   0  0  0  0  0  0  0  0  0  0  0  0
   41.3010   22.5880   38.5500 H   0  0  0  0  0  0  0  0  0  0  0  0
   38.9280   22.9250   38.4920 H   0  0  0  0  0  0  0  0  0  0  0  0
   37.3830   22.9890   36.2850 C   0  0  0  0  0  0  0  0  0  0  0  0
   37.0670   22.9920   35.2180 H   0  0  0  0  0  0  0  0  0  0  0  0
   37.0410   23.9440   36.6900 H   0  0  0  0  0  0  0  0  0  0  0  0
   35.2830   20.2010   36.8600 H   0  0  0  0  0  0  0  0  0  0  0  0
   35.8550   20.9950   36.4030 C   0  0  0  0  0  0  0  0  0  0  0  0
   35.6790   20.9140   35.1620 O   0  0  0  0  0  0  0  0  0  0  0  0
   36.6660   21.9680   37.0620 N   0  0  0  0  0  0  0  0  0  0  0  0
   36.6620   21.8370   38.1090 H   0  0  0  0  0  0  0  0  0  0  0  0
  1  2  1  0  0  0  0
  2  9  1  0  0  0  0
  2  3  2  0  0  0  0
  3 26  1  0  0  0  0
  4  3  1  0  0  0  0
  5  4  2  0  0  0  0
  6  1  2  0  0  0  0
  6  5  1  0  0  0  0
  7  1  1  0  0  0  0
  8  5  1  0  0  0  0
  9 10  1  0  0  0  0
  9 13  1  0  0  0  0
 10 11  1  0  0  0  0
 11 16  1  0  0  0  0
 11 12  1  0  0  0  0
 11 17  1  0  0  0  0
 12 19  1  0  0  0  0
 12 18  1  0  0  0  0
 13 20  1  1  0  0  0
 13 12  1  0  0  0  0
 14 10  1  0  0  0  0
 15 10  1  0  0  0  0
 21 23  1  0  0  0  0
 22 21  2  0  0  0  0
 23 13  1  0  0  0  0
 24 21  1  0  0  0  0
 25 23  1  0  0  0  0
 26 27  2  0  0  0  0
 26 31  1  0  0  0  0
 27 28  1  0  0  0  0
 28 33  1  0  0  0  0
 28 29  2  0  0  0  0
 29 30  1  0  0  0  0
 29 34  1  0  0  0  0
 30 35  1  0  0  0  0
 31 30  2  0  0  0  0
 32 27  1  0  0  0  0
 36 31  1  0  0  0  0
 36 38  1  0  0  0  0
 36 42  1  0  0  0  0
 37 36  1  0  0  0  0
 40 39  1  0  0  0  0
 40 42  1  0  0  0  0
 41 40  2  0  0  0  0
 42 43  1  0  0  0  0
M  END
>  <minimizedAffinity>
-4.97891998

$$$$

 OpenBabel03272509163D

 43 45  0  0  1  0  0  0  0  0999 V2000
   37.0830   27.1810   34.0880 C   0  0  0  0  0  0  0  0  0  0  0  0
   37.7620   26.0150   33.6650 C   0  0  0  0  0  0  0  0  0  0  0  0
   38.8290   25.5600   34.4500 C   0  0  0  0  0  0  0  0  0  0  0  0
   39.1500   26.2590   35.5660 N   0  0  0  0  0  0  0  0  0  0  0  0
   38.4930   27.3580   35.9440 C   0  0  0  0  0  0  0  0  0  0  0  0
   37.4670   27.8190   35.2150 N   0  0  0  0  0  0  0  0  0  0  0  0
   36.2550   27.6080   33.5730 H   0  0  0  0  0  0  0  0  0  0  0  0
   38.8090   27.8660   36.8550 H   0  0  0  0  0  0  0  0  0  0  0  0
   37.2800   25.4190   32.4390 N   0  0  0  0  0  0  0  0  0  0  0  0
   36.3710   24.4150   31.9960 C   0  0  0  0  0  0  0  0  0  0  0  0
   37.1990   23.5920   31.0540 C   0  0  0  0  0  0  0  0  0  0  0  0
   38.1250   24.6280   30.4070 C   0  0  0  0  0  0  0  0  0  0  0  0
   37.8080   25.8900   31.1210 C   0  0  1  0  0  0  0  0  0  0  0  0
   35.6390   24.9570   31.3190 H   0  0  0  0  0  0  0  0  0  0  0  0
   35.7240   23.9100   32.6870 H   0  0  0  0  0  0  0  0  0  0  0  0
   36.5320   23.1460   30.2900 H   0  0  0  0  0  0  0  0  0  0  0  0
   37.7960   22.8010   31.5410 H   0  0  0  0  0  0  0  0  0  0  0  0
   39.1700   24.2890   30.5270 H   0  0  0  0  0  0  0  0  0  0  0  0
   37.8400   24.7040   29.3220 H   0  0  0  0  0  0  0  0  0  0  0  0
   38.6440   26.5710   31.2680 H   0  0  0  0  0  0  0  0  0  0  0  0
   36.6900   27.9740   30.3470 C   0  0  0  0  0  0  0  0  0  0  0  0
   37.4740   28.7750   30.9420 O   0  0  0  0  0  0  0  0  0  0  0  0
   36.7030   26.5430   30.4270 N   0  0  0  0  0  0  0  0  0  0  0  0
   36.0520   28.6530   29.7970 H   0  0  0  0  0  0  0  0  0  0  0  0
   35.8380   26.2900   29.9130 H   0  0  0  0  0  0  0  0  0  0  0  0
   39.5840   24.3880   34.1070 C   0  0  0  0  0  0  0  0  0  0  0  0
   40.6050   24.5190   33.2130 C   0  0  0  0  0  0  0  0  0  0  0  0
   41.4050   23.4640   32.8190 C   0  0  0  0  0  0  0  0  0  0  0  0
   41.1310   22.2190   33.3760 C   0  0  0  0  0  0  0  0  0  0  0  0
   40.1210   22.0170   34.2760 C   0  0  0  0  0  0  0  0  0  0  0  0
   39.3570   23.1320   34.6260 C   0  0  0  0  0  0  0  0  0  0  0  0
   40.9120   25.3870   32.6600 H   0  0  0  0  0  0  0  0  0  0  0  0
   42.2300   23.4710   32.1260 H   0  0  0  0  0  0  0  0  0  0  0  0
   41.7050   21.3160   33.1310 H   0  0  0  0  0  0  0  0  0  0  0  0
   39.9190   21.0270   34.7040 H   0  0  0  0  0  0  0  0  0  0  0  0
   38.2530   22.9510   35.5900 C   0  0  0  0  0  0  0  0  0  0  0  0
   37.5370   22.2230   35.1510 H   0  0  0  0  0  0  0  0  0  0  0  0
   37.6650   23.8500   35.7900 H   0  0  0  0  0  0  0  0  0  0  0  0
   38.7810   23.0890   39.0850 H   0  0  0  0  0  0  0  0  0  0  0  0
   38.4810   23.3020   38.0700 C   0  0  0  0  0  0  0  0  0  0  0  0
   37.8560   24.3920   38.0880 O   0  0  0  0  0  0  0  0  0  0  0  0
   38.7350   22.5120   36.9080 N   0  0  0  0  0  0  0  0  0  0  0  0
   39.2780   21.6380   37.1390 H   0  0  0  0  0  0  0  0  0  0  0  0
  1  6  1  0  0  0  0
  2  1  2  0  0  0  0
  2  3  1  0  0  0  0
  3  4  2  0  0  0  0
  4  5  1  0  0  0  0
  5  8  1  0  0  0  0
  6  5  2  0  0  0  0
  7  1  1  0  0  0  0
  9  2  1  0  0  0  0
 10  9  1  0  0  0  0
 10 15  1  0  0  0  0
 11 17  1  0  0  0  0
 11 10  1  0  0  0  0
 12 18  1  0  0  0  0
 12 11  1  0  0  0  0
 12 13  1  0  0  0  0
 13 20  1  1  0  0  0
 13  9  1  0  0  0  0
 14 10  1  0  0  0  0
 16 11  1  0  0  0  0
 19 12  1  0  0  0  0
 21 23  1  0  0  0  0
 21 22  2  0  0  0  0
 23 13  1  0  0  0  0
 24 21  1  0  0  0  0
 25 23  1  0  0  0  0
 26  3  1  0  0  0  0
 26 31  1  0  0  0  0
 27 26  2  0  0  0  0
 28 27  1  0  0  0  0
 28 29  2  0  0  0  0
 29 30  1  0  0  0  0
 30 31  2  0  0  0  0
 30 35  1  0  0  0  0
 31 36  1  0  0  0  0
 32 27  1  0  0  0  0
 33 28  1  0  0  0  0
 34 29  1  0  0  0  0
 36 38  1  0  0  0  0
 36 42  1  0  0  0  0
 37 36  1  0  0  0  0
 40 41  2  0  0  0  0
 40 39  1  0  0  0  0
 42 43  1  0  0  0  0
 42 40  1  0  0  0  0
M  END
>  <minimizedAffinity>
-4.91410208

$$$$

 OpenBabel03272509163D

 43 45  0  0  1  0  0  0  0  0999 V2000
   35.2980   25.8480   31.2400 C   0  0  0  0  0  0  0  0  0  0  0  0
   36.4050   26.4530   31.8790 C   0  0  0  0  0  0  0  0  0  0  0  0
   37.5110   25.6450   32.1720 C   0  0  0  0  0  0  0  0  0  0  0  0
   37.4590   24.3350   31.8310 N   0  0  0  0  0  0  0  0  0  0  0  0
   36.4010   23.7870   31.2290 C   0  0  0  0  0  0  0  0  0  0  0  0
   35.3270   24.5320   30.9340 N   0  0  0  0  0  0  0  0  0  0  0  0
   34.4110   26.3680   30.9650 H   0  0  0  0  0  0  0  0  0  0  0  0
   36.4330   22.7250   30.9840 H   0  0  0  0  0  0  0  0  0  0  0  0
   36.2650   27.8620   32.1750 N   0  0  0  0  0  0  0  0  0  0  0  0
   36.2800   28.7500   33.2900 C   0  0  0  0  0  0  0  0  0  0  0  0
   35.0220   29.5480   33.1110 C   0  0  0  0  0  0  0  0  0  0  0  0
   34.8960   29.6640   31.5870 C   0  0  0  0  0  0  0  0  0  0  0  0
   36.0140   28.8360   31.0690 C   0  0  1  0  0  0  0  0  0  0  0  0
   37.1100   29.4900   33.0650 H   0  0  0  0  0  0  0  0  0  0  0  0
   36.5320   28.4020   34.2720 H   0  0  0  0  0  0  0  0  0  0  0  0
   35.1690   30.5500   33.5580 H   0  0  0  0  0  0  0  0  0  0  0  0
   34.1170   29.0760   33.5320 H   0  0  0  0  0  0  0  0  0  0  0  0
   33.8930   29.3080   31.2890 H   0  0  0  0  0  0  0  0  0  0  0  0
   35.0440   30.7450   31.3180 H   0  0  0  0  0  0  0  0  0  0  0  0
   35.8200   28.3120   30.1360 H   0  0  0  0  0  0  0  0  0  0  0  0
   37.8160   29.8530   29.6850 C   0  0  0  0  0  0  0  0  0  0  0  0
   37.5310   29.2290   28.6170 O   0  0  0  0  0  0  0  0  0  0  0  0
   37.1990   29.6820   30.9680 N   0  0  0  0  0  0  0  0  0  0  0  0
   38.6120   30.5070   29.3560 H   0  0  0  0  0  0  0  0  0  0  0  0
   37.8020   30.2670   31.5770 H   0  0  0  0  0  0  0  0  0  0  0  0
   38.6840   26.1630   32.8200 C   0  0  0  0  0  0  0  0  0  0  0  0
   39.7160   26.5870   32.0360 C   0  0  0  0  0  0  0  0  0  0  0  0
   40.8860   27.1130   32.5480 C   0  0  0  0  0  0  0  0  0  0  0  0
   40.9890   27.2000   33.9330 C   0  0  0  0  0  0  0  0  0  0  0  0
   39.9930   26.7910   34.7760 C   0  0  0  0  0  0  0  0  0  0  0  0
   38.8410   26.2720   34.1830 C   0  0  0  0  0  0  0  0  0  0  0  0
   39.8170   26.5430   30.9680 H   0  0  0  0  0  0  0  0  0  0  0  0
   41.7490   27.4750   32.0130 H   0  0  0  0  0  0  0  0  0  0  0  0
   41.8750   27.6030   34.4410 H   0  0  0  0  0  0  0  0  0  0  0  0
   40.0930   26.8660   35.8660 H   0  0  0  0  0  0  0  0  0  0  0  0
   37.7460   25.8130   35.0630 C   0  0  0  0  0  0  0  0  0  0  0  0
   36.9860   25.3140   34.4230 H   0  0  0  0  0  0  0  0  0  0  0  0
   37.2080   26.6100   35.5820 H   0  0  0  0  0  0  0  0  0  0  0  0
   38.6680   22.7660   36.6050 H   0  0  0  0  0  0  0  0  0  0  0  0
   38.3310   23.5170   35.9060 C   0  0  0  0  0  0  0  0  0  0  0  0
   38.0370   22.9260   34.8370 O   0  0  0  0  0  0  0  0  0  0  0  0
   38.2280   24.9230   36.1300 N   0  0  0  0  0  0  0  0  0  0  0  0
   38.5320   25.1890   37.1040 H   0  0  0  0  0  0  0  0  0  0  0  0
  1  2  1  0  0  0  0
  2  3  2  0  0  0  0
  2  9  1  0  0  0  0
  3 26  1  0  0  0  0
  4  3  1  0  0  0  0
  5  4  2  0  0  0  0
  6  5  1  0  0  0  0
  6  1  2  0  0  0  0
  7  1  1  0  0  0  0
  8  5  1  0  0  0  0
  9 10  1  0  0  0  0
 10 15  1  0  0  0  0
 11 10  1  0  0  0  0
 11 17  1  0  0  0  0
 11 16  1  0  0  0  0
 12 11  1  0  0  0  0
 13 20  1  6  0  0  0
 13 12  1  0  0  0  0
 13  9  1  0  0  0  0
 14 10  1  0  0  0  0
 18 12  1  0  0  0  0
 19 12  1  0  0  0  0
 21 23  1  0  0  0  0
 22 21  2  0  0  0  0
 23 13  1  0  0  0  0
 23 25  1  0  0  0  0
 24 21  1  0  0  0  0
 26 31  1  0  0  0  0
 27 28  1  0  0  0  0
 27 26  2  0  0  0  0
 28 29  2  0  0  0  0
 29 34  1  0  0  0  0
 29 30  1  0  0  0  0
 30 35  1  0  0  0  0
 31 30  2  0  0  0  0
 31 36  1  0  0  0  0
 32 27  1  0  0  0  0
 33 28  1  0  0  0  0
 36 38  1  0  0  0  0
 36 42  1  0  0  0  0
 37 36  1  0  0  0  0
 40 42  1  0  0  0  0
 40 39  1  0  0  0  0
 41 40  2  0  0  0  0
 42 43  1  0  0  0  0
M  END
>  <minimizedAffinity>
-4.88687944

$$$$
