
 OpenBabel03272508433D

 23 24  0  0  0  0  0  0  0  0999 V2000
   35.8890   29.9120   49.8670 C   0  0  0  0  0  0  0  0  0  0  0  0
   36.6580   29.7760   50.9970 C   0  0  0  0  0  0  0  0  0  0  0  0
   37.8630   30.3760   50.6450 C   0  0  0  0  0  0  0  0  0  0  0  0
   37.7660   30.8300   49.3560 C   0  0  0  0  0  0  0  0  0  0  0  0
   36.5780   30.5360   48.9280 O   0  0  0  0  0  0  0  0  0  0  0  0
   36.3770   29.3100   51.9330 H   0  0  0  0  0  0  0  0  0  0  0  0
   38.7000   30.4390   51.3230 H   0  0  0  0  0  0  0  0  0  0  0  0
   39.6300   33.4090   47.8930 H   0  0  0  0  0  0  0  0  0  0  0  0
   38.8750   32.9090   48.4900 C   0  0  0  0  0  0  0  0  0  0  0  0
   38.0940   33.6590   49.1140 O   0  0  0  0  0  0  0  0  0  0  0  0
   38.7480   31.5050   48.5820 N   0  0  0  0  0  0  0  0  0  0  0  0
   39.4550   30.9950   48.0180 H   0  0  0  0  0  0  0  0  0  0  0  0
   34.5070   29.4290   49.7350 C   0  0  0  0  0  0  0  0  0  0  0  0
   33.7220   29.6490   50.6860 O   0  0  0  0  0  0  0  0  0  0  0  0
   33.7570   26.6810   47.4700 C   0  0  0  0  0  0  0  0  0  0  0  0
   33.3280   27.3480   46.3090 C   0  0  0  0  0  0  0  0  0  0  0  0
   33.2930   28.7300   46.2920 C   0  0  0  0  0  0  0  0  0  0  0  0
   33.6820   29.3700   47.4190 N   0  0  0  0  0  0  0  0  0  0  0  0
   34.0930   28.7250   48.5310 C   0  0  0  0  0  0  0  0  0  0  0  0
   34.1270   27.3810   48.5490 N   0  0  0  0  0  0  0  0  0  0  0  0
   33.8030   25.5960   47.5370 H   0  0  0  0  0  0  0  0  0  0  0  0
   33.0470   26.7050   45.4850 H   0  0  0  0  0  0  0  0  0  0  0  0
   32.9660   29.2190   45.4030 H   0  0  0  0  0  0  0  0  0  0  0  0
  1  2  2  0  0  0  0
  2  6  1  0  0  0  0
  3  2  1  0  0  0  0
  3  7  1  0  0  0  0
  4  3  2  0  0  0  0
  5  4  1  0  0  0  0
  5  1  1  0  0  0  0
  8  9  1  0  0  0  0
  9 11  1  0  0  0  0
  9 10  2  0  0  0  0
 11  4  1  0  0  0  0
 12 11  1  0  0  0  0
 13  1  1  0  0  0  0
 13 14  2  0  0  0  0
 15 21  1  0  0  0  0
 15 20  1  0  0  0  0
 16 15  2  0  0  0  0
 17 16  1  0  0  0  0
 17 18  2  0  0  0  0
 18 19  1  0  0  0  0
 19 20  2  0  0  0  0
 19 13  1  0  0  0  0
 22 16  1  0  0  0  0
 23 17  1  0  0  0  0
M  END
>  <minimizedAffinity>
-4.83024168

>  <minimizedRMSD>
2.12136817

$$$$
