
 OpenBabel03272508463D

 23 24  0  0  0  0  0  0  0  0999 V2000
   38.3960   24.9120   34.8430 C   0  0  0  0  0  0  0  0  0  0  0  0
   37.8780   25.4120   36.0120 C   0  0  0  0  0  0  0  0  0  0  0  0
   38.1690   24.4240   36.9460 C   0  0  0  0  0  0  0  0  0  0  0  0
   38.8290   23.4030   36.3140 C   0  0  0  0  0  0  0  0  0  0  0  0
   38.9450   23.7310   35.0650 O   0  0  0  0  0  0  0  0  0  0  0  0
   37.3660   26.3560   36.1560 H   0  0  0  0  0  0  0  0  0  0  0  0
   37.8920   24.5070   37.9860 H   0  0  0  0  0  0  0  0  0  0  0  0
   41.0220   21.0280   37.6610 H   0  0  0  0  0  0  0  0  0  0  0  0
   40.6640   21.9600   37.2380 C   0  0  0  0  0  0  0  0  0  0  0  0
   41.5260   22.8540   37.0880 O   0  0  0  0  0  0  0  0  0  0  0  0
   39.3200   22.1910   36.8680 N   0  0  0  0  0  0  0  0  0  0  0  0
   38.7030   21.3740   37.0430 H   0  0  0  0  0  0  0  0  0  0  0  0
   38.3410   25.5990   33.5450 C   0  0  0  0  0  0  0  0  0  0  0  0
   39.2760   26.3840   33.2630 O   0  0  0  0  0  0  0  0  0  0  0  0
   35.5670   26.2640   31.2840 C   0  0  0  0  0  0  0  0  0  0  0  0
   35.1380   24.9710   30.9360 C   0  0  0  0  0  0  0  0  0  0  0  0
   35.7880   23.8730   31.4660 C   0  0  0  0  0  0  0  0  0  0  0  0
   36.8210   24.1140   32.3080 N   0  0  0  0  0  0  0  0  0  0  0  0
   37.2280   25.3580   32.6390 C   0  0  0  0  0  0  0  0  0  0  0  0
   36.5970   26.4270   32.1230 N   0  0  0  0  0  0  0  0  0  0  0  0
   35.0910   27.1620   30.8960 H   0  0  0  0  0  0  0  0  0  0  0  0
   34.3000   24.9320   30.2530 H   0  0  0  0  0  0  0  0  0  0  0  0
   35.4500   22.9000   31.1920 H   0  0  0  0  0  0  0  0  0  0  0  0
  1  5  1  0  0  0  0
  1  2  2  0  0  0  0
  2  6  1  0  0  0  0
  2  3  1  0  0  0  0
  3  7  1  0  0  0  0
  4 11  1  0  0  0  0
  4  3  2  0  0  0  0
  5  4  1  0  0  0  0
  9  8  1  0  0  0  0
 10  9  2  0  0  0  0
 11 12  1  0  0  0  0
 11  9  1  0  0  0  0
 13  1  1  0  0  0  0
 14 13  2  0  0  0  0
 15 20  1  0  0  0  0
 16 15  2  0  0  0  0
 16 17  1  0  0  0  0
 17 18  2  0  0  0  0
 18 19  1  0  0  0  0
 19 13  1  0  0  0  0
 20 19  2  0  0  0  0
 21 15  1  0  0  0  0
 22 16  1  0  0  0  0
 23 17  1  0  0  0  0
M  END
>  <minimizedAffinity>
-4.45993948

$$$$

 OpenBabel03272508463D

 23 24  0  0  0  0  0  0  0  0999 V2000
   38.0160   25.5200   35.8560 C   0  0  0  0  0  0  0  0  0  0  0  0
   38.3480   26.7340   36.4040 C   0  0  0  0  0  0  0  0  0  0  0  0
   37.9690   27.6480   35.4250 C   0  0  0  0  0  0  0  0  0  0  0  0
   37.4430   26.9600   34.3640 C   0  0  0  0  0  0  0  0  0  0  0  0
   37.4870   25.6980   34.6580 O   0  0  0  0  0  0  0  0  0  0  0  0
   38.7990   26.9200   37.3720 H   0  0  0  0  0  0  0  0  0  0  0  0
   38.0980   28.7130   35.5440 H   0  0  0  0  0  0  0  0  0  0  0  0
   37.2890   28.1150   31.0610 H   0  0  0  0  0  0  0  0  0  0  0  0
   37.6970   27.7200   31.9850 C   0  0  0  0  0  0  0  0  0  0  0  0
   38.9250   27.4810   31.9760 O   0  0  0  0  0  0  0  0  0  0  0  0
   36.9280   27.4760   33.1450 N   0  0  0  0  0  0  0  0  0  0  0  0
   35.9240   27.7140   33.0260 H   0  0  0  0  0  0  0  0  0  0  0  0
   38.2230   24.2220   36.5150 C   0  0  0  0  0  0  0  0  0  0  0  0
   37.2390   23.6980   37.0870 O   0  0  0  0  0  0  0  0  0  0  0  0
   40.9830   22.0360   37.4340 C   0  0  0  0  0  0  0  0  0  0  0  0
   41.9710   22.3760   36.4930 C   0  0  0  0  0  0  0  0  0  0  0  0
   41.7020   23.3460   35.5460 C   0  0  0  0  0  0  0  0  0  0  0  0
   40.4780   23.9230   35.5840 N   0  0  0  0  0  0  0  0  0  0  0  0
   39.5340   23.5930   36.4890 C   0  0  0  0  0  0  0  0  0  0  0  0
   39.7940   22.6490   37.4110 N   0  0  0  0  0  0  0  0  0  0  0  0
   41.1420   21.2790   38.2000 H   0  0  0  0  0  0  0  0  0  0  0  0
   42.9010   21.8310   36.5840 H   0  0  0  0  0  0  0  0  0  0  0  0
   42.4630   23.5920   34.8400 H   0  0  0  0  0  0  0  0  0  0  0  0
  1  2  2  0  0  0  0
  1 13  1  0  0  0  0
  2  6  1  0  0  0  0
  3  7  1  0  0  0  0
  3  2  1  0  0  0  0
  4  5  1  0  0  0  0
  4  3  2  0  0  0  0
  5  1  1  0  0  0  0
  8  9  1  0  0  0  0
  9 11  1  0  0  0  0
 10  9  2  0  0  0  0
 11  4  1  0  0  0  0
 12 11  1  0  0  0  0
 13 14  2  0  0  0  0
 15 21  1  0  0  0  0
 16 22  1  0  0  0  0
 16 15  2  0  0  0  0
 17 18  2  0  0  0  0
 17 16  1  0  0  0  0
 18 19  1  0  0  0  0
 19 13  1  0  0  0  0
 19 20  2  0  0  0  0
 20 15  1  0  0  0  0
 23 17  1  0  0  0  0
M  END
>  <minimizedAffinity>
-4.36790848

$$$$

 OpenBabel03272508463D

 23 24  0  0  0  0  0  0  0  0999 V2000
   38.7840   24.9180   34.4970 C   0  0  0  0  0  0  0  0  0  0  0  0
   40.0690   24.4420   34.5760 C   0  0  0  0  0  0  0  0  0  0  0  0
   40.0230   23.5540   35.6460 C   0  0  0  0  0  0  0  0  0  0  0  0
   38.7480   23.5380   36.1470 C   0  0  0  0  0  0  0  0  0  0  0  0
   38.0410   24.3620   35.4380 O   0  0  0  0  0  0  0  0  0  0  0  0
   40.9100   24.7060   33.9460 H   0  0  0  0  0  0  0  0  0  0  0  0
   40.8870   22.9990   35.9780 H   0  0  0  0  0  0  0  0  0  0  0  0
   37.4850   22.7300   39.3120 H   0  0  0  0  0  0  0  0  0  0  0  0
   37.8750   23.3210   38.4910 C   0  0  0  0  0  0  0  0  0  0  0  0
   37.9910   24.5470   38.7130 O   0  0  0  0  0  0  0  0  0  0  0  0
   38.2370   22.7820   37.2360 N   0  0  0  0  0  0  0  0  0  0  0  0
   38.0920   21.7550   37.1760 H   0  0  0  0  0  0  0  0  0  0  0  0
   38.3170   25.9010   33.5090 C   0  0  0  0  0  0  0  0  0  0  0  0
   38.9000   27.0090   33.4710 O   0  0  0  0  0  0  0  0  0  0  0  0
   35.4980   26.3460   31.2510 C   0  0  0  0  0  0  0  0  0  0  0  0
   35.1370   25.0210   30.9460 C   0  0  0  0  0  0  0  0  0  0  0  0
   35.8480   23.9770   31.5040 C   0  0  0  0  0  0  0  0  0  0  0  0
   36.8710   24.2990   32.3300 N   0  0  0  0  0  0  0  0  0  0  0  0
   37.2130   25.5720   32.6200 C   0  0  0  0  0  0  0  0  0  0  0  0
   36.5220   26.5890   32.0770 N   0  0  0  0  0  0  0  0  0  0  0  0
   34.9710   27.2040   30.8380 H   0  0  0  0  0  0  0  0  0  0  0  0
   34.2980   24.9160   30.2700 H   0  0  0  0  0  0  0  0  0  0  0  0
   35.5610   22.9790   31.2620 H   0  0  0  0  0  0  0  0  0  0  0  0
  1  2  2  0  0  0  0
  1  5  1  0  0  0  0
  2  3  1  0  0  0  0
  3  7  1  0  0  0  0
  3  4  2  0  0  0  0
  4 11  1  0  0  0  0
  5  4  1  0  0  0  0
  6  2  1  0  0  0  0
  9 10  2  0  0  0  0
  9  8  1  0  0  0  0
 11  9  1  0  0  0  0
 12 11  1  0  0  0  0
 13  1  1  0  0  0  0
 14 13  2  0  0  0  0
 15 20  1  0  0  0  0
 16 15  2  0  0  0  0
 16 17  1  0  0  0  0
 17 18  2  0  0  0  0
 18 19  1  0  0  0  0
 19 13  1  0  0  0  0
 20 19  2  0  0  0  0
 21 15  1  0  0  0  0
 22 16  1  0  0  0  0
 23 17  1  0  0  0  0
M  END
>  <minimizedAffinity>
-4.35892391

$$$$

 OpenBabel03272508463D

 23 24  0  0  0  0  0  0  0  0999 V2000
   38.5420   24.6790   36.2870 C   0  0  0  0  0  0  0  0  0  0  0  0
   38.0540   24.5930   37.5680 C   0  0  0  0  0  0  0  0  0  0  0  0
   38.6230   23.4210   38.0560 C   0  0  0  0  0  0  0  0  0  0  0  0
   39.4040   22.8710   37.0740 C   0  0  0  0  0  0  0  0  0  0  0  0
   39.3300   23.6480   36.0380 O   0  0  0  0  0  0  0  0  0  0  0  0
   37.3850   25.2840   38.0660 H   0  0  0  0  0  0  0  0  0  0  0  0
   38.4390   23.0580   39.0550 H   0  0  0  0  0  0  0  0  0  0  0  0
   42.1570   20.7060   37.0860 H   0  0  0  0  0  0  0  0  0  0  0  0
   41.5840   21.6260   37.0470 C   0  0  0  0  0  0  0  0  0  0  0  0
   42.2530   22.6770   36.9310 O   0  0  0  0  0  0  0  0  0  0  0  0
   40.1740   21.6780   37.1220 N   0  0  0  0  0  0  0  0  0  0  0  0
   39.7360   20.7420   37.2180 H   0  0  0  0  0  0  0  0  0  0  0  0
   38.2260   25.7610   35.3450 C   0  0  0  0  0  0  0  0  0  0  0  0
   37.0580   26.2130   35.3500 O   0  0  0  0  0  0  0  0  0  0  0  0
   39.8420   26.8700   32.2780 C   0  0  0  0  0  0  0  0  0  0  0  0
   41.1320   27.2160   32.7190 C   0  0  0  0  0  0  0  0  0  0  0  0
   41.4550   27.0740   34.0550 C   0  0  0  0  0  0  0  0  0  0  0  0
   40.4900   26.6000   34.8760 N   0  0  0  0  0  0  0  0  0  0  0  0
   39.2530   26.2690   34.4480 C   0  0  0  0  0  0  0  0  0  0  0  0
   38.9370   26.4070   33.1480 N   0  0  0  0  0  0  0  0  0  0  0  0
   39.5360   26.9630   31.2380 H   0  0  0  0  0  0  0  0  0  0  0  0
   41.7990   27.5820   31.9490 H   0  0  0  0  0  0  0  0  0  0  0  0
   42.4380   27.3420   34.3720 H   0  0  0  0  0  0  0  0  0  0  0  0
  1  2  2  0  0  0  0
  2  3  1  0  0  0  0
  2  6  1  0  0  0  0
  3  7  1  0  0  0  0
  4 11  1  0  0  0  0
  4  3  2  0  0  0  0
  5  1  1  0  0  0  0
  5  4  1  0  0  0  0
  9  8  1  0  0  0  0
  9 11  1  0  0  0  0
 10  9  2  0  0  0  0
 11 12  1  0  0  0  0
 13 14  2  0  0  0  0
 13  1  1  0  0  0  0
 15 16  2  0  0  0  0
 15 20  1  0  0  0  0
 16 17  1  0  0  0  0
 17 23  1  0  0  0  0
 17 18  2  0  0  0  0
 19 18  1  0  0  0  0
 19 13  1  0  0  0  0
 20 19  2  0  0  0  0
 21 15  1  0  0  0  0
 22 16  1  0  0  0  0
M  END
>  <minimizedAffinity>
-4.3535428

$$$$

 OpenBabel03272508463D

 23 24  0  0  0  0  0  0  0  0999 V2000
   38.5080   25.0480   36.1320 C   0  0  0  0  0  0  0  0  0  0  0  0
   37.7400   24.8020   37.2440 C   0  0  0  0  0  0  0  0  0  0  0  0
   38.1340   23.5270   37.6370 C   0  0  0  0  0  0  0  0  0  0  0  0
   39.0930   23.0780   36.7680 C   0  0  0  0  0  0  0  0  0  0  0  0
   39.2880   24.0100   35.8880 O   0  0  0  0  0  0  0  0  0  0  0  0
   37.0050   25.4570   37.6950 H   0  0  0  0  0  0  0  0  0  0  0  0
   37.7130   23.0280   38.4960 H   0  0  0  0  0  0  0  0  0  0  0  0
   41.6850   20.7300   36.9670 H   0  0  0  0  0  0  0  0  0  0  0  0
   41.1750   21.6870   36.9610 C   0  0  0  0  0  0  0  0  0  0  0  0
   41.9030   22.6900   37.1310 O   0  0  0  0  0  0  0  0  0  0  0  0
   39.7810   21.8350   36.7790 N   0  0  0  0  0  0  0  0  0  0  0  0
   39.2890   20.9290   36.6500 H   0  0  0  0  0  0  0  0  0  0  0  0
   38.4590   26.2850   35.3410 C   0  0  0  0  0  0  0  0  0  0  0  0
   39.1050   27.2710   35.7650 O   0  0  0  0  0  0  0  0  0  0  0  0
   36.8080   25.1760   32.2940 C   0  0  0  0  0  0  0  0  0  0  0  0
   36.2320   26.3640   31.8070 C   0  0  0  0  0  0  0  0  0  0  0  0
   36.4030   27.5400   32.5110 C   0  0  0  0  0  0  0  0  0  0  0  0
   37.1300   27.4770   33.6510 N   0  0  0  0  0  0  0  0  0  0  0  0
   37.6810   26.3350   34.1130 C   0  0  0  0  0  0  0  0  0  0  0  0
   37.5150   25.1890   33.4290 N   0  0  0  0  0  0  0  0  0  0  0  0
   36.7040   24.2230   31.7780 H   0  0  0  0  0  0  0  0  0  0  0  0
   35.6770   26.2620   30.8830 H   0  0  0  0  0  0  0  0  0  0  0  0
   35.9590   28.4310   32.1280 H   0  0  0  0  0  0  0  0  0  0  0  0
  1  2  2  0  0  0  0
  2  3  1  0  0  0  0
  2  6  1  0  0  0  0
  3  7  1  0  0  0  0
  4 11  1  0  0  0  0
  4  3  2  0  0  0  0
  5  1  1  0  0  0  0
  5  4  1  0  0  0  0
  9  8  1  0  0  0  0
  9 10  2  0  0  0  0
 11  9  1  0  0  0  0
 12 11  1  0  0  0  0
 13 14  2  0  0  0  0
 13  1  1  0  0  0  0
 15 20  1  0  0  0  0
 16 15  2  0  0  0  0
 16 17  1  0  0  0  0
 17 18  2  0  0  0  0
 18 19  1  0  0  0  0
 19 13  1  0  0  0  0
 20 19  2  0  0  0  0
 21 15  1  0  0  0  0
 22 16  1  0  0  0  0
 23 17  1  0  0  0  0
M  END
>  <minimizedAffinity>
-4.33943796

$$$$

 OpenBabel03272508463D

 23 24  0  0  0  0  0  0  0  0999 V2000
   38.5240   24.3330   34.3030 C   0  0  0  0  0  0  0  0  0  0  0  0
   39.8880   24.4780   34.3720 C   0  0  0  0  0  0  0  0  0  0  0  0
   40.2170   23.8890   35.5880 C   0  0  0  0  0  0  0  0  0  0  0  0
   39.0690   23.4300   36.1780 C   0  0  0  0  0  0  0  0  0  0  0  0
   38.0840   23.7120   35.3840 O   0  0  0  0  0  0  0  0  0  0  0  0
   40.5390   24.9450   33.6420 H   0  0  0  0  0  0  0  0  0  0  0  0
   41.2320   23.8350   35.9520 H   0  0  0  0  0  0  0  0  0  0  0  0
   38.2890   22.8250   39.5390 H   0  0  0  0  0  0  0  0  0  0  0  0
   38.3950   23.3500   38.5950 C   0  0  0  0  0  0  0  0  0  0  0  0
   38.0130   24.5410   38.5910 O   0  0  0  0  0  0  0  0  0  0  0  0
   38.9230   22.7620   37.4230 N   0  0  0  0  0  0  0  0  0  0  0  0
   39.2020   21.7700   37.5550 H   0  0  0  0  0  0  0  0  0  0  0  0
   37.6900   24.8030   33.1880 C   0  0  0  0  0  0  0  0  0  0  0  0
   37.5150   24.0210   32.2250 O   0  0  0  0  0  0  0  0  0  0  0  0
   36.0150   27.8340   32.0700 C   0  0  0  0  0  0  0  0  0  0  0  0
   35.9840   28.6160   33.2380 C   0  0  0  0  0  0  0  0  0  0  0  0
   36.5290   28.1170   34.4050 C   0  0  0  0  0  0  0  0  0  0  0  0
   37.0730   26.8790   34.3520 N   0  0  0  0  0  0  0  0  0  0  0  0
   37.1010   26.1320   33.2280 C   0  0  0  0  0  0  0  0  0  0  0  0
   36.5710   26.6170   32.0910 N   0  0  0  0  0  0  0  0  0  0  0  0
   35.6010   28.1790   31.1250 H   0  0  0  0  0  0  0  0  0  0  0  0
   35.5160   29.5860   33.1310 H   0  0  0  0  0  0  0  0  0  0  0  0
   36.4960   28.7240   35.2820 H   0  0  0  0  0  0  0  0  0  0  0  0
  1  2  2  0  0  0  0
  1  5  1  0  0  0  0
  2  3  1  0  0  0  0
  3  7  1  0  0  0  0
  3  4  2  0  0  0  0
  4 11  1  0  0  0  0
  5  4  1  0  0  0  0
  6  2  1  0  0  0  0
  9  8  1  0  0  0  0
 10  9  2  0  0  0  0
 11 12  1  0  0  0  0
 11  9  1  0  0  0  0
 13 19  1  0  0  0  0
 13  1  1  0  0  0  0
 14 13  2  0  0  0  0
 15 20  2  0  0  0  0
 15 16  1  0  0  0  0
 16 17  2  0  0  0  0
 17 23  1  0  0  0  0
 18 17  1  0  0  0  0
 19 18  2  0  0  0  0
 20 19  1  0  0  0  0
 21 15  1  0  0  0  0
 22 16  1  0  0  0  0
M  END
>  <minimizedAffinity>
-4.21666098

$$$$

 OpenBabel03272508463D

 23 24  0  0  0  0  0  0  0  0999 V2000
   38.0510   26.7140   33.7630 C   0  0  0  0  0  0  0  0  0  0  0  0
   38.8740   27.0570   32.7200 C   0  0  0  0  0  0  0  0  0  0  0  0
   38.0300   27.0220   31.6140 C   0  0  0  0  0  0  0  0  0  0  0  0
   36.7750   26.6680   32.0320 C   0  0  0  0  0  0  0  0  0  0  0  0
   36.8270   26.4940   33.3150 O   0  0  0  0  0  0  0  0  0  0  0  0
   39.9300   27.2970   32.7630 H   0  0  0  0  0  0  0  0  0  0  0  0
   38.3720   27.2460   30.6150 H   0  0  0  0  0  0  0  0  0  0  0  0
   34.1100   25.1580   30.3330 H   0  0  0  0  0  0  0  0  0  0  0  0
   35.0100   25.2640   30.9290 C   0  0  0  0  0  0  0  0  0  0  0  0
   35.5210   24.1960   31.3320 O   0  0  0  0  0  0  0  0  0  0  0  0
   35.5970   26.5080   31.2530 N   0  0  0  0  0  0  0  0  0  0  0  0
   35.0790   27.3180   30.8610 H   0  0  0  0  0  0  0  0  0  0  0  0
   38.4790   26.6100   35.1650 C   0  0  0  0  0  0  0  0  0  0  0  0
   38.5800   27.6720   35.8220 O   0  0  0  0  0  0  0  0  0  0  0  0
   38.1540   23.6490   37.2560 C   0  0  0  0  0  0  0  0  0  0  0  0
   39.2610   22.8740   36.8650 C   0  0  0  0  0  0  0  0  0  0  0  0
   40.1180   23.3550   35.8930 C   0  0  0  0  0  0  0  0  0  0  0  0
   39.8340   24.5680   35.3650 N   0  0  0  0  0  0  0  0  0  0  0  0
   38.7700   25.3080   35.7440 C   0  0  0  0  0  0  0  0  0  0  0  0
   37.9360   24.8410   36.6890 N   0  0  0  0  0  0  0  0  0  0  0  0
   37.4490   23.3180   38.0160 H   0  0  0  0  0  0  0  0  0  0  0  0
   39.3610   21.9250   37.3740 H   0  0  0  0  0  0  0  0  0  0  0  0
   40.9520   22.7540   35.6090 H   0  0  0  0  0  0  0  0  0  0  0  0
  1 13  1  0  0  0  0
  2  6  1  0  0  0  0
  2  1  2  0  0  0  0
  3  4  2  0  0  0  0
  3  2  1  0  0  0  0
  4  5  1  0  0  0  0
  5  1  1  0  0  0  0
  7  3  1  0  0  0  0
  8  9  1  0  0  0  0
  9 11  1  0  0  0  0
  9 10  2  0  0  0  0
 11  4  1  0  0  0  0
 12 11  1  0  0  0  0
 13 19  1  0  0  0  0
 13 14  2  0  0  0  0
 15 21  1  0  0  0  0
 16 15  1  0  0  0  0
 16 22  1  0  0  0  0
 17 16  2  0  0  0  0
 18 19  2  0  0  0  0
 18 17  1  0  0  0  0
 19 20  1  0  0  0  0
 20 15  2  0  0  0  0
 23 17  1  0  0  0  0
M  END
>  <minimizedAffinity>
-4.18869829

$$$$

 OpenBabel03272508463D

 23 24  0  0  0  0  0  0  0  0999 V2000
   36.5140   24.0740   31.3830 C   0  0  0  0  0  0  0  0  0  0  0  0
   35.1420   24.1340   31.3630 C   0  0  0  0  0  0  0  0  0  0  0  0
   34.8790   25.4230   30.9100 C   0  0  0  0  0  0  0  0  0  0  0  0
   36.0710   26.0610   30.6870 C   0  0  0  0  0  0  0  0  0  0  0  0
   37.0190   25.2260   30.9800 O   0  0  0  0  0  0  0  0  0  0  0  0
   34.4430   23.3530   31.6370 H   0  0  0  0  0  0  0  0  0  0  0  0
   33.8760   25.8000   30.7790 H   0  0  0  0  0  0  0  0  0  0  0  0
   36.7340   29.5000   30.6830 H   0  0  0  0  0  0  0  0  0  0  0  0
   36.5690   28.4940   31.0540 C   0  0  0  0  0  0  0  0  0  0  0  0
   36.6400   28.3560   32.2950 O   0  0  0  0  0  0  0  0  0  0  0  0
   36.2910   27.3850   30.2230 N   0  0  0  0  0  0  0  0  0  0  0  0
   36.2600   27.6290   29.2140 H   0  0  0  0  0  0  0  0  0  0  0  0
   37.2910   22.8970   31.7960 C   0  0  0  0  0  0  0  0  0  0  0  0
   38.5350   23.0240   31.8810 O   0  0  0  0  0  0  0  0  0  0  0  0
   35.7980   19.6190   31.2770 C   0  0  0  0  0  0  0  0  0  0  0  0
   35.3560   19.2750   32.5680 C   0  0  0  0  0  0  0  0  0  0  0  0
   35.5640   20.1540   33.6140 C   0  0  0  0  0  0  0  0  0  0  0  0
   36.1940   21.3170   33.3270 N   0  0  0  0  0  0  0  0  0  0  0  0
   36.6150   21.6420   32.0870 C   0  0  0  0  0  0  0  0  0  0  0  0
   36.4130   20.7880   31.0680 N   0  0  0  0  0  0  0  0  0  0  0  0
   35.6590   18.9640   30.4190 H   0  0  0  0  0  0  0  0  0  0  0  0
   34.8690   18.3120   32.6470 H   0  0  0  0  0  0  0  0  0  0  0  0
   35.2230   19.8770   34.5860 H   0  0  0  0  0  0  0  0  0  0  0  0
  1 13  1  0  0  0  0
  2  1  2  0  0  0  0
  2  6  1  0  0  0  0
  3  2  1  0  0  0  0
  4  3  2  0  0  0  0
  4  5  1  0  0  0  0
  5  1  1  0  0  0  0
  7  3  1  0  0  0  0
  8  9  1  0  0  0  0
  9 10  2  0  0  0  0
 11  4  1  0  0  0  0
 11  9  1  0  0  0  0
 12 11  1  0  0  0  0
 13 14  2  0  0  0  0
 13 19  1  0  0  0  0
 15 16  1  0  0  0  0
 16 22  1  0  0  0  0
 16 17  2  0  0  0  0
 17 23  1  0  0  0  0
 18 17  1  0  0  0  0
 19 18  2  0  0  0  0
 20 15  2  0  0  0  0
 20 19  1  0  0  0  0
 21 15  1  0  0  0  0
M  END
>  <minimizedAffinity>
-4.16167641

$$$$

 OpenBabel03272508463D

 23 24  0  0  0  0  0  0  0  0999 V2000
   37.2240   21.9330   35.5220 C   0  0  0  0  0  0  0  0  0  0  0  0
   36.1460   21.1350   35.8140 C   0  0  0  0  0  0  0  0  0  0  0  0
   35.7450   20.6610   34.5690 C   0  0  0  0  0  0  0  0  0  0  0  0
   36.5760   21.1830   33.6130 C   0  0  0  0  0  0  0  0  0  0  0  0
   37.4420   21.9330   34.2190 O   0  0  0  0  0  0  0  0  0  0  0  0
   35.7210   20.9310   36.7900 H   0  0  0  0  0  0  0  0  0  0  0  0
   34.9050   19.9950   34.4440 H   0  0  0  0  0  0  0  0  0  0  0  0
   35.9540   21.6970   30.2050 H   0  0  0  0  0  0  0  0  0  0  0  0
   35.9700   21.8690   31.2750 C   0  0  0  0  0  0  0  0  0  0  0  0
   35.4380   22.9340   31.6600 O   0  0  0  0  0  0  0  0  0  0  0  0
   36.5440   20.9770   32.2080 N   0  0  0  0  0  0  0  0  0  0  0  0
   36.9540   20.1310   31.7640 H   0  0  0  0  0  0  0  0  0  0  0  0
   38.0100   22.6720   36.5200 C   0  0  0  0  0  0  0  0  0  0  0  0
   37.3910   23.1950   37.4750 O   0  0  0  0  0  0  0  0  0  0  0  0
   41.2580   23.9010   35.4310 C   0  0  0  0  0  0  0  0  0  0  0  0
   42.1500   23.0250   36.0750 C   0  0  0  0  0  0  0  0  0  0  0  0
   41.6510   22.0180   36.8790 C   0  0  0  0  0  0  0  0  0  0  0  0
   40.3060   21.9330   37.0000 N   0  0  0  0  0  0  0  0  0  0  0  0
   39.4540   22.7770   36.3790 C   0  0  0  0  0  0  0  0  0  0  0  0
   39.9380   23.7570   35.5960 N   0  0  0  0  0  0  0  0  0  0  0  0
   41.5970   24.7110   34.7870 H   0  0  0  0  0  0  0  0  0  0  0  0
   43.1980   23.2140   35.8860 H   0  0  0  0  0  0  0  0  0  0  0  0
   42.3420   21.3630   37.3600 H   0  0  0  0  0  0  0  0  0  0  0  0
  1  2  2  0  0  0  0
  1 13  1  0  0  0  0
  2  6  1  0  0  0  0
  3  2  1  0  0  0  0
  4  5  1  0  0  0  0
  4  3  2  0  0  0  0
  5  1  1  0  0  0  0
  7  3  1  0  0  0  0
  8  9  1  0  0  0  0
  9 10  2  0  0  0  0
  9 11  1  0  0  0  0
 11  4  1  0  0  0  0
 12 11  1  0  0  0  0
 13 14  2  0  0  0  0
 15 20  2  0  0  0  0
 15 16  1  0  0  0  0
 16 17  2  0  0  0  0
 17 18  1  0  0  0  0
 17 23  1  0  0  0  0
 19 13  1  0  0  0  0
 19 18  2  0  0  0  0
 20 19  1  0  0  0  0
 21 15  1  0  0  0  0
 22 16  1  0  0  0  0
M  END
>  <minimizedAffinity>
-4.14590597

$$$$
