
 OpenBabel03272508433D

 23 24  0  0  0  0  0  0  0  0999 V2000
   36.4420   30.8420   49.4530 C   0  0  0  0  0  0  0  0  0  0  0  0
   37.3800   30.1330   50.1610 C   0  0  0  0  0  0  0  0  0  0  0  0
   38.4180   31.0440   50.3300 C   0  0  0  0  0  0  0  0  0  0  0  0
   38.0660   32.2250   49.7320 C   0  0  0  0  0  0  0  0  0  0  0  0
   36.8850   32.0660   49.2220 O   0  0  0  0  0  0  0  0  0  0  0  0
   37.3130   29.1060   50.5010 H   0  0  0  0  0  0  0  0  0  0  0  0
   39.3280   30.7970   50.8550 H   0  0  0  0  0  0  0  0  0  0  0  0
   40.0640   34.8030   48.4550 H   0  0  0  0  0  0  0  0  0  0  0  0
   39.4980   33.8790   48.5000 C   0  0  0  0  0  0  0  0  0  0  0  0
   39.4800   33.2040   47.4470 O   0  0  0  0  0  0  0  0  0  0  0  0
   38.8130   33.4310   49.6520 N   0  0  0  0  0  0  0  0  0  0  0  0
   38.9050   34.0780   50.4580 H   0  0  0  0  0  0  0  0  0  0  0  0
   35.1420   30.3090   49.0230 C   0  0  0  0  0  0  0  0  0  0  0  0
   34.3330   29.9610   49.9150 O   0  0  0  0  0  0  0  0  0  0  0  0
   33.1940   30.0130   45.9630 C   0  0  0  0  0  0  0  0  0  0  0  0
   34.1880   29.9900   44.9680 C   0  0  0  0  0  0  0  0  0  0  0  0
   35.5180   30.0750   45.3330 C   0  0  0  0  0  0  0  0  0  0  0  0
   35.7890   30.1770   46.6550 N   0  0  0  0  0  0  0  0  0  0  0  0
   34.8320   30.1980   47.6060 C   0  0  0  0  0  0  0  0  0  0  0  0
   33.5370   30.1160   47.2520 N   0  0  0  0  0  0  0  0  0  0  0  0
   32.1330   29.9490   45.7300 H   0  0  0  0  0  0  0  0  0  0  0  0
   33.8220   29.9050   43.9530 H   0  0  0  0  0  0  0  0  0  0  0  0
   36.2580   30.0560   44.5650 H   0  0  0  0  0  0  0  0  0  0  0  0
  1  2  2  0  0  0  0
  2  3  1  0  0  0  0
  2  6  1  0  0  0  0
  3  7  1  0  0  0  0
  4  3  2  0  0  0  0
  5  1  1  0  0  0  0
  5  4  1  0  0  0  0
  8  9  1  0  0  0  0
  9 11  1  0  0  0  0
 10  9  2  0  0  0  0
 11  4  1  0  0  0  0
 11 12  1  0  0  0  0
 13  1  1  0  0  0  0
 13 14  2  0  0  0  0
 15 20  1  0  0  0  0
 16 17  1  0  0  0  0
 16 15  2  0  0  0  0
 17 18  2  0  0  0  0
 18 19  1  0  0  0  0
 19 13  1  0  0  0  0
 20 19  2  0  0  0  0
 21 15  1  0  0  0  0
 22 16  1  0  0  0  0
 23 17  1  0  0  0  0
M  END
>  <minimizedAffinity>
-4.40981293

>  <minimizedRMSD>
0.282421559

$$$$
