
 OpenBabel03272508433D

 23 24  0  0  0  0  0  0  0  0999 V2000
   36.5530   30.5100   50.0050 C   0  0  0  0  0  0  0  0  0  0  0  0
   37.7370   30.2940   50.6660 C   0  0  0  0  0  0  0  0  0  0  0  0
   38.5660   31.3040   50.1860 C   0  0  0  0  0  0  0  0  0  0  0  0
   37.8620   32.0580   49.2850 C   0  0  0  0  0  0  0  0  0  0  0  0
   36.6700   31.5550   49.2040 O   0  0  0  0  0  0  0  0  0  0  0  0
   37.9580   29.5170   51.3870 H   0  0  0  0  0  0  0  0  0  0  0  0
   39.5890   31.4190   50.5110 H   0  0  0  0  0  0  0  0  0  0  0  0
   39.5400   35.0150   48.4450 H   0  0  0  0  0  0  0  0  0  0  0  0
   39.2150   34.1560   49.0220 C   0  0  0  0  0  0  0  0  0  0  0  0
   39.7030   34.0590   50.1700 O   0  0  0  0  0  0  0  0  0  0  0  0
   38.3010   33.1890   48.5460 N   0  0  0  0  0  0  0  0  0  0  0  0
   37.9700   33.3820   47.5810 H   0  0  0  0  0  0  0  0  0  0  0  0
   35.3430   29.6930   50.1730 C   0  0  0  0  0  0  0  0  0  0  0  0
   35.0970   29.2480   51.3180 O   0  0  0  0  0  0  0  0  0  0  0  0
   32.8740   28.0450   48.0670 C   0  0  0  0  0  0  0  0  0  0  0  0
   32.8430   28.8690   46.9280 C   0  0  0  0  0  0  0  0  0  0  0  0
   33.6580   29.9840   46.8730 C   0  0  0  0  0  0  0  0  0  0  0  0
   34.4550   30.2190   47.9410 N   0  0  0  0  0  0  0  0  0  0  0  0
   34.4810   29.4250   49.0320 C   0  0  0  0  0  0  0  0  0  0  0  0
   33.6880   28.3400   49.0870 N   0  0  0  0  0  0  0  0  0  0  0  0
   32.2530   27.1560   48.1620 H   0  0  0  0  0  0  0  0  0  0  0  0
   32.1560   28.5570   46.1520 H   0  0  0  0  0  0  0  0  0  0  0  0
   33.6210   30.5980   46.0020 H   0  0  0  0  0  0  0  0  0  0  0  0
  1 13  1  0  0  0  0
  1  2  2  0  0  0  0
  2  6  1  0  0  0  0
  3  7  1  0  0  0  0
  3  2  1  0  0  0  0
  4  3  2  0  0  0  0
  5  4  1  0  0  0  0
  5  1  1  0  0  0  0
  8  9  1  0  0  0  0
  9 10  2  0  0  0  0
 11  9  1  0  0  0  0
 11  4  1  0  0  0  0
 12 11  1  0  0  0  0
 13 14  2  0  0  0  0
 15 21  1  0  0  0  0
 15 20  1  0  0  0  0
 16 15  2  0  0  0  0
 17 16  1  0  0  0  0
 17 18  2  0  0  0  0
 18 19  1  0  0  0  0
 19 20  2  0  0  0  0
 19 13  1  0  0  0  0
 22 16  1  0  0  0  0
 23 17  1  0  0  0  0
M  END
>  <minimizedAffinity>
-5.1943264

>  <minimizedRMSD>
1.80408335

$$$$
