
 OpenBabel03262522453D

 33 35  0  0  1  0  0  0  0  0999 V2000
   38.5640   30.6650   45.6700 C   0  0  1  0  0  0  0  0  0  0  0  0
   37.8470   31.9050   45.5770 C   0  0  0  0  0  0  0  0  0  0  0  0
   37.0190   30.6390   45.4880 C   0  0  2  0  0  0  0  0  0  0  0  0
   38.7410   30.0620   46.6120 H   0  0  0  0  0  0  0  0  0  0  0  0
   37.6960   32.5000   46.4930 H   0  0  0  0  0  0  0  0  0  0  0  0
   37.8940   32.5150   44.6660 H   0  0  0  0  0  0  0  0  0  0  0  0
   36.4830   30.7030   44.5360 H   0  0  0  0  0  0  0  0  0  0  0  0
   38.9980   28.8970   43.8370 C   0  0  0  0  0  0  0  0  0  0  0  0
   39.3440   30.1470   44.4920 C   0  0  0  0  0  0  0  0  0  0  0  0
   40.3460   30.9120   43.9890 C   0  0  0  0  0  0  0  0  0  0  0  0
   40.9950   30.4430   42.8550 N   0  0  0  0  0  0  0  0  0  0  0  0
   40.6550   29.2820   42.2690 C   0  0  0  0  0  0  0  0  0  0  0  0
   39.6650   28.5180   42.7560 N   0  0  0  0  0  0  0  0  0  0  0  0
   41.3390   28.8210   41.1040 N   0  0  0  0  0  0  0  0  0  0  0  0
   38.1850   28.3240   44.2840 H   0  0  0  0  0  0  0  0  0  0  0  0
   40.8470   28.1750   40.4230 H   0  0  0  0  0  0  0  0  0  0  0  0
   42.3410   29.1080   40.8950 H   0  0  0  0  0  0  0  0  0  0  0  0
   40.5510   33.3450   46.3680 H   0  0  0  0  0  0  0  0  0  0  0  0
   40.2460   32.3870   45.9210 C   0  0  0  0  0  0  0  0  0  0  0  0
   39.5290   31.5940   46.5620 O   0  0  0  0  0  0  0  0  0  0  0  0
   40.7320   32.1450   44.5840 N   0  0  0  0  0  0  0  0  0  0  0  0
   41.3390   32.8810   44.1130 H   0  0  0  0  0  0  0  0  0  0  0  0
   34.0080   29.9310   45.2970 Cl  0  0  0  0  0  0  0  0  0  0  0  0
   34.8800   30.0390   46.8040 C   0  0  0  0  0  0  0  0  0  0  0  0
   36.1960   30.4170   46.6810 C   0  0  0  0  0  0  0  0  0  0  0  0
   36.9060   30.5360   47.8670 C   0  0  0  0  0  0  0  0  0  0  0  0
   36.3150   30.2900   49.1000 C   0  0  0  0  0  0  0  0  0  0  0  0
   34.9590   29.9060   49.1730 C   0  0  0  0  0  0  0  0  0  0  0  0
   34.0920   29.6180   50.6610 Cl  0  0  0  0  0  0  0  0  0  0  0  0
   34.2440   29.7830   47.9790 C   0  0  0  0  0  0  0  0  0  0  0  0
   37.9220   30.7860   48.1230 H   0  0  0  0  0  0  0  0  0  0  0  0
   36.7260   30.3390   50.0850 H   0  0  0  0  0  0  0  0  0  0  0  0
   33.2160   29.4930   47.9530 H   0  0  0  0  0  0  0  0  0  0  0  0
  1  4  1  1  0  0  0
  2  1  1  0  0  0  0
  2  5  1  0  0  0  0
  3  7  1  6  0  0  0
  3  2  1  0  0  0  0
  3  1  1  0  0  0  0
  3 25  1  0  0  0  0
  6  2  1  0  0  0  0
  8 15  1  0  0  0  0
  8  9  1  0  0  0  0
  9  1  1  0  0  0  0
 10  9  2  0  0  0  0
 10 21  1  0  0  0  0
 11 10  1  0  0  0  0
 12 13  1  0  0  0  0
 12 11  2  0  0  0  0
 13  8  2  0  0  0  0
 14 12  1  0  0  0  0
 16 14  1  0  0  0  0
 17 14  1  0  0  0  0
 19 18  1  0  0  0  0
 19 20  2  0  0  0  0
 21 19  1  0  0  0  0
 22 21  1  0  0  0  0
 23 24  1  0  0  0  0
 24 30  1  0  0  0  0
 25 24  2  0  0  0  0
 25 26  1  0  0  0  0
 26 31  1  0  0  0  0
 26 27  2  0  0  0  0
 27 28  1  0  0  0  0
 27 32  1  0  0  0  0
 28 29  1  0  0  0  0
 30 28  2  0  0  0  0
 33 30  1  0  0  0  0
M  END
>  <minimizedAffinity>
-5.91081285

>  <minimizedRMSD>
2.1725235

$$$$
