
 OpenBabel03272508433D

 23 24  0  0  0  0  0  0  0  0999 V2000
   35.8710   29.8760   49.8780 C   0  0  0  0  0  0  0  0  0  0  0  0
   36.7340   29.5260   50.8870 C   0  0  0  0  0  0  0  0  0  0  0  0
   37.9410   30.0950   50.4950 C   0  0  0  0  0  0  0  0  0  0  0  0
   37.7540   30.7420   49.3020 C   0  0  0  0  0  0  0  0  0  0  0  0
   36.5100   30.5890   48.9680 O   0  0  0  0  0  0  0  0  0  0  0  0
   36.5110   28.9430   51.7720 H   0  0  0  0  0  0  0  0  0  0  0  0
   38.8430   30.0040   51.0800 H   0  0  0  0  0  0  0  0  0  0  0  0
   39.5450   33.4070   47.9040 H   0  0  0  0  0  0  0  0  0  0  0  0
   38.8150   32.8710   48.5000 C   0  0  0  0  0  0  0  0  0  0  0  0
   38.0470   33.5830   49.1830 O   0  0  0  0  0  0  0  0  0  0  0  0
   38.7040   31.4630   48.5300 N   0  0  0  0  0  0  0  0  0  0  0  0
   39.3970   30.9870   47.9210 H   0  0  0  0  0  0  0  0  0  0  0  0
   34.4490   29.5050   49.8290 C   0  0  0  0  0  0  0  0  0  0  0  0
   33.7300   29.8350   50.8000 O   0  0  0  0  0  0  0  0  0  0  0  0
   32.3980   27.2180   47.8780 C   0  0  0  0  0  0  0  0  0  0  0  0
   32.8960   27.3960   46.5750 C   0  0  0  0  0  0  0  0  0  0  0  0
   33.9260   28.2900   46.3560 C   0  0  0  0  0  0  0  0  0  0  0  0
   34.4040   28.9550   47.4330 N   0  0  0  0  0  0  0  0  0  0  0  0
   33.9230   28.7810   48.6820 C   0  0  0  0  0  0  0  0  0  0  0  0
   32.9210   27.9110   48.8960 N   0  0  0  0  0  0  0  0  0  0  0  0
   31.5890   26.5270   48.1050 H   0  0  0  0  0  0  0  0  0  0  0  0
   32.4150   26.7960   45.8130 H   0  0  0  0  0  0  0  0  0  0  0  0
   34.2910   28.4120   45.3610 H   0  0  0  0  0  0  0  0  0  0  0  0
  1  2  2  0  0  0  0
  2  6  1  0  0  0  0
  3  2  1  0  0  0  0
  3  7  1  0  0  0  0
  4  3  2  0  0  0  0
  5  4  1  0  0  0  0
  5  1  1  0  0  0  0
  8  9  1  0  0  0  0
  9 11  1  0  0  0  0
  9 10  2  0  0  0  0
 11  4  1  0  0  0  0
 12 11  1  0  0  0  0
 13  1  1  0  0  0  0
 13 14  2  0  0  0  0
 15 21  1  0  0  0  0
 15 20  1  0  0  0  0
 16 15  2  0  0  0  0
 17 16  1  0  0  0  0
 17 18  2  0  0  0  0
 18 19  1  0  0  0  0
 19 20  2  0  0  0  0
 19 13  1  0  0  0  0
 22 16  1  0  0  0  0
 23 17  1  0  0  0  0
M  END
>  <minimizedAffinity>
-4.7914753

>  <minimizedRMSD>
2.09062934

$$$$
