
 OpenBabel03272508433D

 23 24  0  0  0  0  0  0  0  0999 V2000
   35.7560   29.8780   50.1050 C   0  0  0  0  0  0  0  0  0  0  0  0
   36.5130   29.5990   51.2170 C   0  0  0  0  0  0  0  0  0  0  0  0
   37.7470   30.1700   50.9220 C   0  0  0  0  0  0  0  0  0  0  0  0
   37.6780   30.7470   49.6810 C   0  0  0  0  0  0  0  0  0  0  0  0
   36.4790   30.5530   49.2290 O   0  0  0  0  0  0  0  0  0  0  0  0
   36.2060   29.0610   52.1060 H   0  0  0  0  0  0  0  0  0  0  0  0
   38.5840   30.1280   51.6020 H   0  0  0  0  0  0  0  0  0  0  0  0
   39.5350   33.3630   48.2750 H   0  0  0  0  0  0  0  0  0  0  0  0
   38.7520   32.8470   48.8200 C   0  0  0  0  0  0  0  0  0  0  0  0
   37.8700   33.5760   49.3230 O   0  0  0  0  0  0  0  0  0  0  0  0
   38.6940   31.4430   48.9730 N   0  0  0  0  0  0  0  0  0  0  0  0
   39.4820   30.9500   48.5100 H   0  0  0  0  0  0  0  0  0  0  0  0
   34.3530   29.4780   49.9290 C   0  0  0  0  0  0  0  0  0  0  0  0
   33.5540   29.7400   50.8580 O   0  0  0  0  0  0  0  0  0  0  0  0
   32.6440   27.1280   47.7380 C   0  0  0  0  0  0  0  0  0  0  0  0
   33.1120   27.5000   46.4650 C   0  0  0  0  0  0  0  0  0  0  0  0
   34.0060   28.5470   46.3480 C   0  0  0  0  0  0  0  0  0  0  0  0
   34.3860   29.1640   47.4910 N   0  0  0  0  0  0  0  0  0  0  0  0
   33.9340   28.8030   48.7110 C   0  0  0  0  0  0  0  0  0  0  0  0
   33.0640   27.7850   48.8250 N   0  0  0  0  0  0  0  0  0  0  0  0
   31.9400   26.3120   47.8860 H   0  0  0  0  0  0  0  0  0  0  0  0
   32.7210   26.9160   45.6420 H   0  0  0  0  0  0  0  0  0  0  0  0
   34.3510   28.8150   45.3750 H   0  0  0  0  0  0  0  0  0  0  0  0
  1  2  2  0  0  0  0
  2  6  1  0  0  0  0
  3  2  1  0  0  0  0
  3  7  1  0  0  0  0
  4  3  2  0  0  0  0
  5  4  1  0  0  0  0
  5  1  1  0  0  0  0
  8  9  1  0  0  0  0
  9 11  1  0  0  0  0
  9 10  2  0  0  0  0
 11  4  1  0  0  0  0
 12 11  1  0  0  0  0
 13  1  1  0  0  0  0
 13 14  2  0  0  0  0
 15 21  1  0  0  0  0
 15 20  1  0  0  0  0
 16 15  2  0  0  0  0
 17 16  1  0  0  0  0
 17 18  2  0  0  0  0
 18 19  1  0  0  0  0
 19 20  2  0  0  0  0
 19 13  1  0  0  0  0
 22 16  1  0  0  0  0
 23 17  1  0  0  0  0
M  END
>  <minimizedAffinity>
-4.78778601

>  <minimizedRMSD>
2.0753963

$$$$
