
 OpenBabel03272506573D

 24 25  0  0  0  0  0  0  0  0999 V2000
   38.5510   32.0350   46.6400 C   0  0  0  0  0  0  0  0  0  0  0  0
   39.7930   32.5910   46.4310 C   0  0  0  0  0  0  0  0  0  0  0  0
   40.2360   33.1800   45.2630 C   0  0  0  0  0  0  0  0  0  0  0  0
   39.3370   33.1990   44.2350 N   0  0  0  0  0  0  0  0  0  0  0  0
   38.1090   32.6580   44.4170 C   0  0  0  0  0  0  0  0  0  0  0  0
   37.7230   32.0930   45.5790 N   0  0  0  0  0  0  0  0  0  0  0  0
   40.5150   32.5820   47.2400 H   0  0  0  0  0  0  0  0  0  0  0  0
   41.2360   33.5960   45.1860 H   0  0  0  0  0  0  0  0  0  0  0  0
   36.8990   32.9970   41.1820 H   0  0  0  0  0  0  0  0  0  0  0  0
   37.6170   32.9750   42.0110 C   0  0  0  0  0  0  0  0  0  0  0  0
   38.8450   33.1950   41.8560 O   0  0  0  0  0  0  0  0  0  0  0  0
   37.1920   32.6910   43.3280 N   0  0  0  0  0  0  0  0  0  0  0  0
   36.1760   32.5060   43.4760 H   0  0  0  0  0  0  0  0  0  0  0  0
   36.9840   29.7890   49.0140 C   0  0  0  0  0  0  0  0  0  0  0  0
   37.4270   30.2200   50.2710 C   0  0  0  0  0  0  0  0  0  0  0  0
   38.3020   31.3340   50.2700 C   0  0  0  0  0  0  0  0  0  0  0  0
   38.6420   31.8930   49.0900 N   0  0  0  0  0  0  0  0  0  0  0  0
   38.1870   31.4370   47.9170 C   0  0  0  0  0  0  0  0  0  0  0  0
   37.3430   30.3680   47.8510 N   0  0  0  0  0  0  0  0  0  0  0  0
   36.3150   28.9440   48.9500 H   0  0  0  0  0  0  0  0  0  0  0  0
   38.6600   31.6900   51.2290 H   0  0  0  0  0  0  0  0  0  0  0  0
   37.0120   29.5650   51.4620 N   0  0  0  0  0  0  0  0  0  0  0  0
   37.6530   29.5950   52.2910 H   0  0  0  0  0  0  0  0  0  0  0  0
   36.0810   29.1000   51.4100 H   0  0  0  0  0  0  0  0  0  0  0  0
  1 18  1  0  0  0  0
  2  1  1  0  0  0  0
  2  7  1  0  0  0  0
  3  2  2  0  0  0  0
  4  5  2  0  0  0  0
  4  3  1  0  0  0  0
  5  6  1  0  0  0  0
  6  1  2  0  0  0  0
  8  3  1  0  0  0  0
  9 10  1  0  0  0  0
 10 12  1  0  0  0  0
 11 10  2  0  0  0  0
 12 13  1  0  0  0  0
 12  5  1  0  0  0  0
 14 15  1  0  0  0  0
 15 22  1  0  0  0  0
 16 15  2  0  0  0  0
 16 21  1  0  0  0  0
 17 16  1  0  0  0  0
 18 17  2  0  0  0  0
 19 18  1  0  0  0  0
 19 14  2  0  0  0  0
 20 14  1  0  0  0  0
 22 23  1  0  0  0  0
 24 22  1  0  0  0  0
M  END
>  <minimizedAffinity>
-5.34923363

>  <minimizedRMSD>
1.33448589

$$$$
