
 OpenBabel03272510093D

 23 24  0  0  0  0  0  0  0  0999 V2000
   37.6020   31.2600   48.6990 C   0  0  0  0  0  0  0  0  0  0  0  0
   38.1400   32.4930   48.9820 C   0  0  0  0  0  0  0  0  0  0  0  0
   38.9760   33.2120   48.1500 C   0  0  0  0  0  0  0  0  0  0  0  0
   39.3080   32.6590   46.9260 C   0  0  0  0  0  0  0  0  0  0  0  0
   38.7630   31.4160   46.6460 C   0  0  0  0  0  0  0  0  0  0  0  0
   37.9600   30.7770   47.5000 N   0  0  0  0  0  0  0  0  0  0  0  0
   37.9100   32.9710   49.9330 H   0  0  0  0  0  0  0  0  0  0  0  0
   39.3630   34.1730   48.4320 H   0  0  0  0  0  0  0  0  0  0  0  0
   39.0340   30.9970   45.6790 H   0  0  0  0  0  0  0  0  0  0  0  0
   37.1400   30.0630   50.8620 C   0  0  0  0  0  0  0  0  0  0  0  0
   36.7270   30.5340   49.6020 C   0  0  0  0  0  0  0  0  0  0  0  0
   35.4260   30.2980   49.1970 C   0  0  0  0  0  0  0  0  0  0  0  0
   34.6170   29.6090   50.0680 N   0  0  0  0  0  0  0  0  0  0  0  0
   35.0360   29.1720   51.2610 C   0  0  0  0  0  0  0  0  0  0  0  0
   36.2900   29.3930   51.6650 N   0  0  0  0  0  0  0  0  0  0  0  0
   38.1730   30.3100   51.0620 H   0  0  0  0  0  0  0  0  0  0  0  0
   34.9910   30.6090   48.2540 H   0  0  0  0  0  0  0  0  0  0  0  0
   34.3840   28.6320   51.9320 H   0  0  0  0  0  0  0  0  0  0  0  0
   40.9080   34.2590   44.2780 H   0  0  0  0  0  0  0  0  0  0  0  0
   40.1070   33.6430   44.6760 C   0  0  0  0  0  0  0  0  0  0  0  0
   39.2020   33.1830   43.9330 O   0  0  0  0  0  0  0  0  0  0  0  0
   40.1680   33.4050   46.0730 N   0  0  0  0  0  0  0  0  0  0  0  0
   40.9090   33.7770   46.7090 H   0  0  0  0  0  0  0  0  0  0  0  0
  1  2  1  0  0  0  0
  1 11  1  0  0  0  0
  2  7  1  0  0  0  0
  3  8  1  0  0  0  0
  3  2  2  0  0  0  0
  4  3  1  0  0  0  0
  5  4  2  0  0  0  0
  5  6  1  0  0  0  0
  6  1  2  0  0  0  0
  9  5  1  0  0  0  0
 10 16  1  0  0  0  0
 10 15  1  0  0  0  0
 11 10  2  0  0  0  0
 12 11  1  0  0  0  0
 12 13  2  0  0  0  0
 13 14  1  0  0  0  0
 14 15  2  0  0  0  0
 14 18  1  0  0  0  0
 17 12  1  0  0  0  0
 19 20  1  0  0  0  0
 20 22  1  0  0  0  0
 21 20  2  0  0  0  0
 22 23  1  0  0  0  0
 22  4  1  0  0  0  0
M  END
>  <minimizedAffinity>
-5.0129056

>  <minimizedRMSD>
1.49929249

$$$$
