
 OpenBabel03272506373D

 33 34  0  0  1  0  0  0  0  0999 V2000
   34.3580   29.7230   49.9630 O   0  0  0  0  0  0  0  0  0  0  0  0
   34.3250   29.6250   48.7240 C   0  0  0  0  0  0  0  0  0  0  0  0
   35.2360   30.3690   47.8770 C   0  0  2  0  0  0  0  0  0  0  0  0
   34.9180   29.7470   46.4840 C   0  0  0  0  0  0  0  0  0  0  0  0
   33.5020   29.2870   46.6290 C   0  0  0  0  0  0  0  0  0  0  0  0
   33.4070   28.7860   47.9930 N   0  0  0  0  0  0  0  0  0  0  0  0
   35.1240   31.4540   47.8090 H   0  0  0  0  0  0  0  0  0  0  0  0
   34.9470   30.5920   45.7710 H   0  0  0  0  0  0  0  0  0  0  0  0
   35.6260   28.9580   46.2300 H   0  0  0  0  0  0  0  0  0  0  0  0
   33.4010   28.3780   45.9860 H   0  0  0  0  0  0  0  0  0  0  0  0
   32.7610   30.0610   46.4310 H   0  0  0  0  0  0  0  0  0  0  0  0
   32.5860   27.7020   48.4840 C   0  0  0  0  0  0  0  0  0  0  0  0
   33.1900   26.9410   49.0290 H   0  0  0  0  0  0  0  0  0  0  0  0
   32.0750   27.1750   47.6500 H   0  0  0  0  0  0  0  0  0  0  0  0
   29.5860   28.1800   50.1510 H   0  0  0  0  0  0  0  0  0  0  0  0
   30.2880   27.7320   49.4310 C   0  0  0  0  0  0  0  0  0  0  0  0
   29.9130   26.7970   48.6640 O   0  0  0  0  0  0  0  0  0  0  0  0
   31.6150   28.2670   49.4260 N   0  0  0  0  0  0  0  0  0  0  0  0
   31.8710   29.0400   50.0820 H   0  0  0  0  0  0  0  0  0  0  0  0
   36.6180   30.0890   48.1180 O   0  0  0  0  0  0  0  0  0  0  0  0
   37.4850   31.1740   48.2100 C   0  0  0  0  0  0  0  0  0  0  0  0
   37.6570   31.7240   49.4670 C   0  0  0  0  0  0  0  0  0  0  0  0
   38.5140   32.8080   49.5970 C   0  0  0  0  0  0  0  0  0  0  0  0
   39.1440   33.2800   48.4870 N   0  0  0  0  0  0  0  0  0  0  0  0
   38.9660   32.7350   47.2730 C   0  0  0  0  0  0  0  0  0  0  0  0
   38.1460   31.7010   47.1610 N   0  0  0  0  0  0  0  0  0  0  0  0
   40.4760   32.2930   45.5010 C   0  0  0  0  0  0  0  0  0  0  0  0
   40.6740   31.0940   45.8350 O   0  0  0  0  0  0  0  0  0  0  0  0
   39.6400   33.2540   46.1290 N   0  0  0  0  0  0  0  0  0  0  0  0
   37.1890   31.4000   50.3860 H   0  0  0  0  0  0  0  0  0  0  0  0
   38.6830   33.2720   50.5470 H   0  0  0  0  0  0  0  0  0  0  0  0
   41.0450   32.5770   44.6100 H   0  0  0  0  0  0  0  0  0  0  0  0
   39.5680   34.2170   45.7470 H   0  0  0  0  0  0  0  0  0  0  0  0
  2  1  2  0  0  0  0
  3  7  1  1  0  0  0
  3 20  1  0  0  0  0
  3  2  1  0  0  0  0
  4  5  1  0  0  0  0
  4  3  1  0  0  0  0
  5  6  1  0  0  0  0
  6 12  1  0  0  0  0
  6  2  1  0  0  0  0
  8  4  1  0  0  0  0
  9  4  1  0  0  0  0
 10  5  1  0  0  0  0
 11  5  1  0  0  0  0
 12 13  1  0  0  0  0
 12 18  1  0  0  0  0
 14 12  1  0  0  0  0
 16 15  1  0  0  0  0
 17 16  2  0  0  0  0
 18 16  1  0  0  0  0
 18 19  1  0  0  0  0
 20 21  1  0  0  0  0
 21 22  1  0  0  0  0
 22 23  2  0  0  0  0
 22 30  1  0  0  0  0
 23 31  1  0  0  0  0
 24 23  1  0  0  0  0
 25 24  2  0  0  0  0
 26 25  1  0  0  0  0
 26 21  2  0  0  0  0
 27 28  2  0  0  0  0
 27 29  1  0  0  0  0
 29 25  1  0  0  0  0
 32 27  1  0  0  0  0
 33 29  1  0  0  0  0
M  END
>  <minimizedAffinity>
-5.7149744

>  <minimizedRMSD>
1.08952713

$$$$
