
 OpenBabel03272508413D

 38 40  0  0  1  0  0  0  0  0999 V2000
   36.4100   28.0420   32.3350 N   0  0  0  0  0  0  0  0  0  0  0  0
   35.8750   28.6630   33.5460 C   0  0  0  0  0  0  0  0  0  0  0  0
   34.9780   29.7950   33.2980 C   0  0  2  0  0  0  0  0  0  0  0  0
   35.4500   30.6540   32.2220 N   0  0  0  0  0  0  0  0  0  0  0  0
   35.7420   29.8850   31.0440 C   0  0  0  0  0  0  0  0  0  0  0  0
   36.9310   29.0330   31.4550 C   0  0  0  0  0  0  0  0  0  0  0  0
   36.8430   29.1060   33.9640 H   0  0  0  0  0  0  0  0  0  0  0  0
   35.4680   27.8780   34.1850 H   0  0  0  0  0  0  0  0  0  0  0  0
   33.9850   29.5260   32.8890 H   0  0  0  0  0  0  0  0  0  0  0  0
   35.1390   31.5870   32.1640 H   0  0  0  0  0  0  0  0  0  0  0  0
   34.9130   29.1860   30.7980 H   0  0  0  0  0  0  0  0  0  0  0  0
   36.0280   30.5060   30.1950 H   0  0  0  0  0  0  0  0  0  0  0  0
   37.4500   28.5960   30.5940 H   0  0  0  0  0  0  0  0  0  0  0  0
   37.6480   29.7370   31.9580 H   0  0  0  0  0  0  0  0  0  0  0  0
   32.3010   29.5170   34.5560 Cl  0  0  0  0  0  0  0  0  0  0  0  0
   33.6060   30.4990   35.2200 C   0  0  0  0  0  0  0  0  0  0  0  0
   34.7810   30.5570   34.5200 C   0  0  0  0  0  0  0  0  0  0  0  0
   35.9080   31.2910   34.9180 C   0  0  0  0  0  0  0  0  0  0  0  0
   35.7600   31.9980   36.1200 C   0  0  0  0  0  0  0  0  0  0  0  0
   34.5620   31.9480   36.8430 C   0  0  0  0  0  0  0  0  0  0  0  0
   33.5120   31.2040   36.3870 C   0  0  0  0  0  0  0  0  0  0  0  0
   36.8970   31.5010   34.5960 H   0  0  0  0  0  0  0  0  0  0  0  0
   36.4680   32.6290   36.6320 H   0  0  0  0  0  0  0  0  0  0  0  0
   34.3660   32.4600   37.7710 H   0  0  0  0  0  0  0  0  0  0  0  0
   30.4020   32.3170   37.1200 H   0  0  0  0  0  0  0  0  0  0  0  0
   31.3810   32.1690   36.7390 C   0  0  0  0  0  0  0  0  0  0  0  0
   31.6850   33.0890   35.9080 O   0  0  0  0  0  0  0  0  0  0  0  0
   32.2710   31.1110   37.0750 N   0  0  0  0  0  0  0  0  0  0  0  0
   31.9520   30.4030   37.7570 H   0  0  0  0  0  0  0  0  0  0  0  0
   36.3990   26.6410   32.1290 C   0  0  0  0  0  0  0  0  0  0  0  0
   35.5370   26.0280   31.2300 C   0  0  0  0  0  0  0  0  0  0  0  0
   35.5890   24.6420   31.0780 C   0  0  0  0  0  0  0  0  0  0  0  0
   36.5050   23.9480   31.8410 N   0  0  0  0  0  0  0  0  0  0  0  0
   37.3280   24.5900   32.7080 C   0  0  0  0  0  0  0  0  0  0  0  0
   37.2800   25.9000   32.8520 N   0  0  0  0  0  0  0  0  0  0  0  0
   34.8370   26.6190   30.6550 H   0  0  0  0  0  0  0  0  0  0  0  0
   34.9380   24.1150   30.3900 H   0  0  0  0  0  0  0  0  0  0  0  0
   38.0120   23.9610   33.2620 H   0  0  0  0  0  0  0  0  0  0  0  0
  1  2  1  0  0  0  0
  2  7  1  0  0  0  0
  2  8  1  0  0  0  0
  3  9  1  6  0  0  0
  3  2  1  0  0  0  0
  3 17  1  0  0  0  0
  4  3  1  0  0  0  0
  5  6  1  0  0  0  0
  5  4  1  0  0  0  0
  6 14  1  0  0  0  0
  6  1  1  0  0  0  0
 10  4  1  0  0  0  0
 11  5  1  0  0  0  0
 12  5  1  0  0  0  0
 13  6  1  0  0  0  0
 15 16  1  0  0  0  0
 16 21  1  0  0  0  0
 17 18  1  0  0  0  0
 17 16  2  0  0  0  0
 18 19  2  0  0  0  0
 19 23  1  0  0  0  0
 19 20  1  0  0  0  0
 20 24  1  0  0  0  0
 21 20  2  0  0  0  0
 21 28  1  0  0  0  0
 22 18  1  0  0  0  0
 26 28  1  0  0  0  0
 26 25  1  0  0  0  0
 27 26  2  0  0  0  0
 28 29  1  0  0  0  0
 30  1  1  0  0  0  0
 30 35  1  0  0  0  0
 31 30  2  0  0  0  0
 32 31  1  0  0  0  0
 32 33  2  0  0  0  0
 33 34  1  0  0  0  0
 34 35  2  0  0  0  0
 34 38  1  0  0  0  0
 36 31  1  0  0  0  0
 37 32  1  0  0  0  0
M  END
>  <minimizedAffinity>
-5.29515028

$$$$

 OpenBabel03272508413D

 38 40  0  0  1  0  0  0  0  0999 V2000
   35.2740   29.3890   33.9210 N   0  0  0  0  0  0  0  0  0  0  0  0
   35.9610   28.1380   34.2430 C   0  0  0  0  0  0  0  0  0  0  0  0
   37.1310   27.8600   33.4050 C   0  0  2  0  0  0  0  0  0  0  0  0
   36.9080   28.1940   32.0070 N   0  0  0  0  0  0  0  0  0  0  0  0
   36.4150   29.5370   31.8740 C   0  0  0  0  0  0  0  0  0  0  0  0
   35.0410   29.4820   32.5190 C   0  0  0  0  0  0  0  0  0  0  0  0
   35.1510   27.3990   33.9180 H   0  0  0  0  0  0  0  0  0  0  0  0
   36.1410   28.1100   35.3180 H   0  0  0  0  0  0  0  0  0  0  0  0
   38.0130   28.4990   33.6040 H   0  0  0  0  0  0  0  0  0  0  0  0
   37.4610   27.7770   31.3070 H   0  0  0  0  0  0  0  0  0  0  0  0
   37.0220   30.2540   32.4690 H   0  0  0  0  0  0  0  0  0  0  0  0
   36.3070   29.8460   30.8350 H   0  0  0  0  0  0  0  0  0  0  0  0
   34.4210   30.3470   32.2560 H   0  0  0  0  0  0  0  0  0  0  0  0
   34.5430   28.5690   32.0920 H   0  0  0  0  0  0  0  0  0  0  0  0
   38.8830   27.2680   35.7320 Cl  0  0  0  0  0  0  0  0  0  0  0  0
   38.3130   26.0500   34.5910 C   0  0  0  0  0  0  0  0  0  0  0  0
   37.5310   26.4700   33.5480 C   0  0  0  0  0  0  0  0  0  0  0  0
   37.0020   25.6230   32.5620 C   0  0  0  0  0  0  0  0  0  0  0  0
   37.3340   24.2680   32.7030 C   0  0  0  0  0  0  0  0  0  0  0  0
   38.1350   23.8290   33.7650 C   0  0  0  0  0  0  0  0  0  0  0  0
   38.6070   24.7190   34.6860 C   0  0  0  0  0  0  0  0  0  0  0  0
   36.3940   25.6680   31.6940 H   0  0  0  0  0  0  0  0  0  0  0  0
   37.0570   23.4310   32.0850 H   0  0  0  0  0  0  0  0  0  0  0  0
   38.4360   22.8110   33.9450 H   0  0  0  0  0  0  0  0  0  0  0  0
   39.0370   23.5570   37.8340 H   0  0  0  0  0  0  0  0  0  0  0  0
   38.6590   23.8930   36.9010 C   0  0  0  0  0  0  0  0  0  0  0  0
   37.3830   23.8500   36.8920 O   0  0  0  0  0  0  0  0  0  0  0  0
   39.4220   24.3370   35.7860 N   0  0  0  0  0  0  0  0  0  0  0  0
   40.4530   24.3410   35.8710 H   0  0  0  0  0  0  0  0  0  0  0  0
   34.9040   30.3300   34.9100 C   0  0  0  0  0  0  0  0  0  0  0  0
   35.8270   31.1660   35.5250 C   0  0  0  0  0  0  0  0  0  0  0  0
   35.3840   32.0720   36.4890 C   0  0  0  0  0  0  0  0  0  0  0  0
   34.0360   32.0870   36.7830 N   0  0  0  0  0  0  0  0  0  0  0  0
   33.1710   31.2520   36.1570 C   0  0  0  0  0  0  0  0  0  0  0  0
   33.5870   30.3950   35.2450 N   0  0  0  0  0  0  0  0  0  0  0  0
   36.8730   31.1140   35.2580 H   0  0  0  0  0  0  0  0  0  0  0  0
   36.0630   32.7470   36.9980 H   0  0  0  0  0  0  0  0  0  0  0  0
   32.1340   31.3370   36.4540 H   0  0  0  0  0  0  0  0  0  0  0  0
  1  2  1  0  0  0  0
  1 30  1  0  0  0  0
  2  8  1  0  0  0  0
  3 17  1  0  0  0  0
  3  9  1  1  0  0  0
  3  2  1  0  0  0  0
  4  3  1  0  0  0  0
  5  4  1  0  0  0  0
  5 11  1  0  0  0  0
  5  6  1  0  0  0  0
  6  1  1  0  0  0  0
  7  2  1  0  0  0  0
 10  4  1  0  0  0  0
 12  5  1  0  0  0  0
 13  6  1  0  0  0  0
 14  6  1  0  0  0  0
 16 21  1  0  0  0  0
 16 15  1  0  0  0  0
 17 16  2  0  0  0  0
 18 19  2  0  0  0  0
 18 17  1  0  0  0  0
 19 20  1  0  0  0  0
 20 24  1  0  0  0  0
 20 21  2  0  0  0  0
 21 28  1  0  0  0  0
 22 18  1  0  0  0  0
 23 19  1  0  0  0  0
 26 25  1  0  0  0  0
 27 26  2  0  0  0  0
 28 29  1  0  0  0  0
 28 26  1  0  0  0  0
 30 35  2  0  0  0  0
 30 31  1  0  0  0  0
 31 32  2  0  0  0  0
 32 33  1  0  0  0  0
 32 37  1  0  0  0  0
 34 38  1  0  0  0  0
 34 33  2  0  0  0  0
 35 34  1  0  0  0  0
 36 31  1  0  0  0  0
M  END
>  <minimizedAffinity>
-5.21517849

$$$$

 OpenBabel03272508413D

 38 40  0  0  1  0  0  0  0  0999 V2000
   36.9630   25.8420   32.2590 N   0  0  0  0  0  0  0  0  0  0  0  0
   37.5640   25.5450   33.5590 C   0  0  0  0  0  0  0  0  0  0  0  0
   38.1820   24.2190   33.6490 C   0  0  2  0  0  0  0  0  0  0  0  0
   37.3900   23.1890   32.9940 N   0  0  0  0  0  0  0  0  0  0  0  0
   37.0570   23.5760   31.6510 C   0  0  0  0  0  0  0  0  0  0  0  0
   36.1310   24.7650   31.8370 C   0  0  0  0  0  0  0  0  0  0  0  0
   36.6120   25.4980   34.1910 H   0  0  0  0  0  0  0  0  0  0  0  0
   38.2080   26.3790   33.8390 H   0  0  0  0  0  0  0  0  0  0  0  0
   39.1280   24.1030   33.0850 H   0  0  0  0  0  0  0  0  0  0  0  0
   37.5090   22.2430   33.2430 H   0  0  0  0  0  0  0  0  0  0  0  0
   37.9500   23.9460   31.1010 H   0  0  0  0  0  0  0  0  0  0  0  0
   36.5260   22.7950   31.1060 H   0  0  0  0  0  0  0  0  0  0  0  0
   35.5680   25.0040   30.9270 H   0  0  0  0  0  0  0  0  0  0  0  0
   35.3870   24.4500   32.6190 H   0  0  0  0  0  0  0  0  0  0  0  0
   39.9690   21.8860   34.0850 Cl  0  0  0  0  0  0  0  0  0  0  0  0
   39.2600   22.8410   35.3860 C   0  0  0  0  0  0  0  0  0  0  0  0
   38.4320   23.8750   35.0390 C   0  0  0  0  0  0  0  0  0  0  0  0
   37.7950   24.7250   35.9560 C   0  0  0  0  0  0  0  0  0  0  0  0
   38.0570   24.4440   37.3040 C   0  0  0  0  0  0  0  0  0  0  0  0
   38.9000   23.3870   37.6710 C   0  0  0  0  0  0  0  0  0  0  0  0
   39.4850   22.6090   36.7130 C   0  0  0  0  0  0  0  0  0  0  0  0
   37.1430   25.5620   35.9720 H   0  0  0  0  0  0  0  0  0  0  0  0
   37.6920   24.9420   38.1880 H   0  0  0  0  0  0  0  0  0  0  0  0
   39.1520   23.1050   38.6790 H   0  0  0  0  0  0  0  0  0  0  0  0
   42.5460   21.2950   37.3040 H   0  0  0  0  0  0  0  0  0  0  0  0
   41.7150   21.9200   37.0920 C   0  0  0  0  0  0  0  0  0  0  0  0
   42.0970   23.1240   36.9000 O   0  0  0  0  0  0  0  0  0  0  0  0
   40.3510   21.5250   37.0200 N   0  0  0  0  0  0  0  0  0  0  0  0
   40.1220   20.5300   37.1880 H   0  0  0  0  0  0  0  0  0  0  0  0
   37.2000   27.0550   31.5700 C   0  0  0  0  0  0  0  0  0  0  0  0
   36.3090   28.1190   31.6100 C   0  0  0  0  0  0  0  0  0  0  0  0
   36.6140   29.2860   30.9080 C   0  0  0  0  0  0  0  0  0  0  0  0
   37.8000   29.3180   30.2040 N   0  0  0  0  0  0  0  0  0  0  0  0
   38.6400   28.2530   30.1930 C   0  0  0  0  0  0  0  0  0  0  0  0
   38.3530   27.1500   30.8560 N   0  0  0  0  0  0  0  0  0  0  0  0
   35.3920   28.0430   32.1770 H   0  0  0  0  0  0  0  0  0  0  0  0
   35.9540   30.1450   30.9060 H   0  0  0  0  0  0  0  0  0  0  0  0
   39.5450   28.3720   29.6130 H   0  0  0  0  0  0  0  0  0  0  0  0
  1  2  1  0  0  0  0
  2  3  1  0  0  0  0
  2  8  1  0  0  0  0
  2  7  1  0  0  0  0
  3  9  1  6  0  0  0
  3 17  1  0  0  0  0
  4 10  1  0  0  0  0
  4  3  1  0  0  0  0
  5  6  1  0  0  0  0
  5  4  1  0  0  0  0
  6  1  1  0  0  0  0
  6 14  1  0  0  0  0
 11  5  1  0  0  0  0
 12  5  1  0  0  0  0
 13  6  1  0  0  0  0
 15 16  1  0  0  0  0
 16 21  1  0  0  0  0
 17 16  2  0  0  0  0
 17 18  1  0  0  0  0
 18 22  1  0  0  0  0
 18 19  2  0  0  0  0
 19 20  1  0  0  0  0
 19 23  1  0  0  0  0
 20 24  1  0  0  0  0
 21 28  1  0  0  0  0
 21 20  2  0  0  0  0
 26 25  1  0  0  0  0
 27 26  2  0  0  0  0
 28 26  1  0  0  0  0
 28 29  1  0  0  0  0
 30 31  1  0  0  0  0
 30  1  1  0  0  0  0
 31 36  1  0  0  0  0
 32 31  2  0  0  0  0
 33 32  1  0  0  0  0
 34 33  2  0  0  0  0
 34 35  1  0  0  0  0
 35 30  2  0  0  0  0
 37 32  1  0  0  0  0
 38 34  1  0  0  0  0
M  END
>  <minimizedAffinity>
-5.21186972

$$$$

 OpenBabel03272508413D

 38 40  0  0  1  0  0  0  0  0999 V2000
   37.2210   26.9870   31.7580 N   0  0  0  0  0  0  0  0  0  0  0  0
   37.0900   26.0700   32.8910 C   0  0  0  0  0  0  0  0  0  0  0  0
   38.3650   25.6640   33.4880 C   0  0  2  0  0  0  0  0  0  0  0  0
   39.3890   25.3980   32.4890 N   0  0  0  0  0  0  0  0  0  0  0  0
   39.5100   26.4990   31.5740 C   0  0  0  0  0  0  0  0  0  0  0  0
   38.1850   26.4990   30.8310 C   0  0  0  0  0  0  0  0  0  0  0  0
   36.6890   25.1540   32.3360 H   0  0  0  0  0  0  0  0  0  0  0  0
   36.3610   26.4860   33.5880 H   0  0  0  0  0  0  0  0  0  0  0  0
   38.8830   26.4510   34.0690 H   0  0  0  0  0  0  0  0  0  0  0  0
   40.1600   24.8280   32.7130 H   0  0  0  0  0  0  0  0  0  0  0  0
   39.5770   27.4700   32.1130 H   0  0  0  0  0  0  0  0  0  0  0  0
   40.3190   26.3650   30.8560 H   0  0  0  0  0  0  0  0  0  0  0  0
   38.2200   27.0960   29.9130 H   0  0  0  0  0  0  0  0  0  0  0  0
   38.0070   25.4300   30.5310 H   0  0  0  0  0  0  0  0  0  0  0  0
   38.2490   26.2490   36.3980 Cl  0  0  0  0  0  0  0  0  0  0  0  0
   38.0690   24.6370   35.7090 C   0  0  0  0  0  0  0  0  0  0  0  0
   38.1710   24.5090   34.3500 C   0  0  0  0  0  0  0  0  0  0  0  0
   38.0490   23.2970   33.6540 C   0  0  0  0  0  0  0  0  0  0  0  0
   37.8130   22.1730   34.4590 C   0  0  0  0  0  0  0  0  0  0  0  0
   37.7100   22.2910   35.8510 C   0  0  0  0  0  0  0  0  0  0  0  0
   37.8370   23.5120   36.4490 C   0  0  0  0  0  0  0  0  0  0  0  0
   38.0740   22.9230   32.6620 H   0  0  0  0  0  0  0  0  0  0  0  0
   37.6860   21.1430   34.1710 H   0  0  0  0  0  0  0  0  0  0  0  0
   37.5320   21.4820   36.5380 H   0  0  0  0  0  0  0  0  0  0  0  0
   39.1000   23.3650   39.5850 H   0  0  0  0  0  0  0  0  0  0  0  0
   38.9290   23.3190   38.5390 C   0  0  0  0  0  0  0  0  0  0  0  0
   39.9580   22.8650   37.9340 O   0  0  0  0  0  0  0  0  0  0  0  0
   37.7400   23.6990   37.8550 N   0  0  0  0  0  0  0  0  0  0  0  0
   36.9490   24.0590   38.4160 H   0  0  0  0  0  0  0  0  0  0  0  0
   36.4560   28.1720   31.6470 C   0  0  0  0  0  0  0  0  0  0  0  0
   36.7330   29.1500   30.7010 C   0  0  0  0  0  0  0  0  0  0  0  0
   35.9300   30.2910   30.6490 C   0  0  0  0  0  0  0  0  0  0  0  0
   34.8920   30.3850   31.5530 N   0  0  0  0  0  0  0  0  0  0  0  0
   34.6590   29.4040   32.4600 C   0  0  0  0  0  0  0  0  0  0  0  0
   35.4170   28.3260   32.5110 N   0  0  0  0  0  0  0  0  0  0  0  0
   37.5590   29.0280   30.0140 H   0  0  0  0  0  0  0  0  0  0  0  0
   36.1030   31.0830   29.9300 H   0  0  0  0  0  0  0  0  0  0  0  0
   33.8230   29.5670   33.1270 H   0  0  0  0  0  0  0  0  0  0  0  0
  1  2  1  0  0  0  0
  2  3  1  0  0  0  0
  2  8  1  0  0  0  0
  3  9  1  1  0  0  0
  3 17  1  0  0  0  0
  4 10  1  0  0  0  0
  4  3  1  0  0  0  0
  5 11  1  0  0  0  0
  5  4  1  0  0  0  0
  6  5  1  0  0  0  0
  6  1  1  0  0  0  0
  7  2  1  0  0  0  0
 12  5  1  0  0  0  0
 13  6  1  0  0  0  0
 14  6  1  0  0  0  0
 16 15  1  0  0  0  0
 16 21  1  0  0  0  0
 17 16  2  0  0  0  0
 18 17  1  0  0  0  0
 18 19  2  0  0  0  0
 19 20  1  0  0  0  0
 20 21  2  0  0  0  0
 20 24  1  0  0  0  0
 21 28  1  0  0  0  0
 22 18  1  0  0  0  0
 23 19  1  0  0  0  0
 26 25  1  0  0  0  0
 27 26  2  0  0  0  0
 28 29  1  0  0  0  0
 28 26  1  0  0  0  0
 30  1  1  0  0  0  0
 30 35  1  0  0  0  0
 31 30  2  0  0  0  0
 32 31  1  0  0  0  0
 32 33  2  0  0  0  0
 33 34  1  0  0  0  0
 34 35  2  0  0  0  0
 34 38  1  0  0  0  0
 36 31  1  0  0  0  0
 37 32  1  0  0  0  0
M  END
>  <minimizedAffinity>
-5.19158983

$$$$

 OpenBabel03272508413D

 38 40  0  0  1  0  0  0  0  0999 V2000
   37.2880   27.1830   33.5710 N   0  0  0  0  0  0  0  0  0  0  0  0
   36.5870   28.1310   34.4380 C   0  0  0  0  0  0  0  0  0  0  0  0
   35.4710   28.8280   33.7910 C   0  0  2  0  0  0  0  0  0  0  0  0
   35.7790   29.2260   32.4270 N   0  0  0  0  0  0  0  0  0  0  0  0
   36.2750   28.1120   31.6670 C   0  0  0  0  0  0  0  0  0  0  0  0
   37.6070   27.7920   32.3230 C   0  0  0  0  0  0  0  0  0  0  0  0
   37.4180   28.9050   34.5670 H   0  0  0  0  0  0  0  0  0  0  0  0
   36.3410   27.6250   35.3730 H   0  0  0  0  0  0  0  0  0  0  0  0
   34.5770   28.2050   33.5980 H   0  0  0  0  0  0  0  0  0  0  0  0
   35.2720   29.9550   32.0000 H   0  0  0  0  0  0  0  0  0  0  0  0
   35.6300   27.2150   31.7930 H   0  0  0  0  0  0  0  0  0  0  0  0
   36.4460   28.3580   30.6190 H   0  0  0  0  0  0  0  0  0  0  0  0
   38.2390   27.1530   31.6970 H   0  0  0  0  0  0  0  0  0  0  0  0
   38.1330   28.7790   32.4360 H   0  0  0  0  0  0  0  0  0  0  0  0
   32.5580   29.4100   33.8070 Cl  0  0  0  0  0  0  0  0  0  0  0  0
   33.7540   30.3400   34.7080 C   0  0  0  0  0  0  0  0  0  0  0  0
   35.0680   29.9750   34.5870 C   0  0  0  0  0  0  0  0  0  0  0  0
   36.1330   30.6140   35.2400 C   0  0  0  0  0  0  0  0  0  0  0  0
   35.7660   31.6960   36.0530 C   0  0  0  0  0  0  0  0  0  0  0  0
   34.4250   32.0800   36.1820 C   0  0  0  0  0  0  0  0  0  0  0  0
   33.4480   31.4010   35.5130 C   0  0  0  0  0  0  0  0  0  0  0  0
   37.1880   30.5470   35.3330 H   0  0  0  0  0  0  0  0  0  0  0  0
   36.3880   32.3430   36.6500 H   0  0  0  0  0  0  0  0  0  0  0  0
   34.0600   32.8960   36.7820 H   0  0  0  0  0  0  0  0  0  0  0  0
   30.3900   31.1570   36.9430 H   0  0  0  0  0  0  0  0  0  0  0  0
   31.4130   31.0700   36.6730 C   0  0  0  0  0  0  0  0  0  0  0  0
   32.0160   30.2600   37.4550 O   0  0  0  0  0  0  0  0  0  0  0  0
   32.0700   31.7390   35.6030 N   0  0  0  0  0  0  0  0  0  0  0  0
   31.5120   32.3810   35.0140 H   0  0  0  0  0  0  0  0  0  0  0  0
   37.5930   25.8620   33.9770 C   0  0  0  0  0  0  0  0  0  0  0  0
   37.8940   25.5390   35.2930 C   0  0  0  0  0  0  0  0  0  0  0  0
   38.1800   24.2130   35.6180 C   0  0  0  0  0  0  0  0  0  0  0  0
   38.1480   23.2830   34.5990 N   0  0  0  0  0  0  0  0  0  0  0  0
   37.8490   23.6450   33.3260 C   0  0  0  0  0  0  0  0  0  0  0  0
   37.5780   24.8980   33.0180 N   0  0  0  0  0  0  0  0  0  0  0  0
   37.9050   26.3070   36.0550 H   0  0  0  0  0  0  0  0  0  0  0  0
   38.4210   23.9080   36.6290 H   0  0  0  0  0  0  0  0  0  0  0  0
   37.8490   22.8460   32.5970 H   0  0  0  0  0  0  0  0  0  0  0  0
  1 30  1  0  0  0  0
  1  2  1  0  0  0  0
  2  7  1  0  0  0  0
  2  8  1  0  0  0  0
  3  9  1  6  0  0  0
  3  2  1  0  0  0  0
  3 17  1  0  0  0  0
  4  3  1  0  0  0  0
  5 11  1  0  0  0  0
  5  6  1  0  0  0  0
  5  4  1  0  0  0  0
  6 14  1  0  0  0  0
  6  1  1  0  0  0  0
 10  4  1  0  0  0  0
 12  5  1  0  0  0  0
 13  6  1  0  0  0  0
 15 16  1  0  0  0  0
 16 21  1  0  0  0  0
 17 16  2  0  0  0  0
 17 18  1  0  0  0  0
 18 22  1  0  0  0  0
 18 19  2  0  0  0  0
 19 20  1  0  0  0  0
 19 23  1  0  0  0  0
 20 24  1  0  0  0  0
 21 28  1  0  0  0  0
 21 20  2  0  0  0  0
 26 25  1  0  0  0  0
 26 27  2  0  0  0  0
 28 26  1  0  0  0  0
 29 28  1  0  0  0  0
 30 31  1  0  0  0  0
 31 32  2  0  0  0  0
 31 36  1  0  0  0  0
 32 37  1  0  0  0  0
 33 32  1  0  0  0  0
 34 33  2  0  0  0  0
 35 34  1  0  0  0  0
 35 30  2  0  0  0  0
 38 34  1  0  0  0  0
M  END
>  <minimizedAffinity>
-5.08327532

$$$$

 OpenBabel03272508413D

 38 40  0  0  1  0  0  0  0  0999 V2000
   38.6270   25.9590   35.3440 N   0  0  0  0  0  0  0  0  0  0  0  0
   37.7840   26.5330   34.2960 C   0  0  0  0  0  0  0  0  0  0  0  0
   38.4870   26.8060   33.0390 C   0  0  2  0  0  0  0  0  0  0  0  0
   39.8140   27.3620   33.2510 N   0  0  0  0  0  0  0  0  0  0  0  0
   40.5690   26.5510   34.1660 C   0  0  0  0  0  0  0  0  0  0  0  0
   39.8300   26.7090   35.4830 C   0  0  0  0  0  0  0  0  0  0  0  0
   37.5730   27.5510   34.7720 H   0  0  0  0  0  0  0  0  0  0  0  0
   36.8850   25.9230   34.2040 H   0  0  0  0  0  0  0  0  0  0  0  0
   38.7620   25.9080   32.4510 H   0  0  0  0  0  0  0  0  0  0  0  0
   40.2540   27.8760   32.5350 H   0  0  0  0  0  0  0  0  0  0  0  0
   40.5170   25.4740   33.8930 H   0  0  0  0  0  0  0  0  0  0  0  0
   41.5940   26.9000   34.2910 H   0  0  0  0  0  0  0  0  0  0  0  0
   40.4290   26.3820   36.3410 H   0  0  0  0  0  0  0  0  0  0  0  0
   39.6510   27.8120   35.5990 H   0  0  0  0  0  0  0  0  0  0  0  0
   39.0010   26.5840   30.1210 Cl  0  0  0  0  0  0  0  0  0  0  0  0
   37.7990   27.6610   30.8310 C   0  0  0  0  0  0  0  0  0  0  0  0
   37.6880   27.6790   32.1960 C   0  0  0  0  0  0  0  0  0  0  0  0
   36.7810   28.4790   32.9080 C   0  0  0  0  0  0  0  0  0  0  0  0
   35.9630   29.2970   32.1150 C   0  0  0  0  0  0  0  0  0  0  0  0
   36.0710   29.2890   30.7190 C   0  0  0  0  0  0  0  0  0  0  0  0
   36.9790   28.4760   30.1030 C   0  0  0  0  0  0  0  0  0  0  0  0
   36.4860   28.6820   33.9060 H   0  0  0  0  0  0  0  0  0  0  0  0
   35.1990   29.9940   32.4170 H   0  0  0  0  0  0  0  0  0  0  0  0
   35.4850   29.8840   30.0400 H   0  0  0  0  0  0  0  0  0  0  0  0
   38.3020   29.5750   27.1890 H   0  0  0  0  0  0  0  0  0  0  0  0
   38.0250   29.4150   28.2010 C   0  0  0  0  0  0  0  0  0  0  0  0
   38.6080   30.2570   28.9650 O   0  0  0  0  0  0  0  0  0  0  0  0
   37.1360   28.4190   28.6920 N   0  0  0  0  0  0  0  0  0  0  0  0
   36.7030   27.7730   28.0090 H   0  0  0  0  0  0  0  0  0  0  0  0
   38.2400   24.8230   36.0950 C   0  0  0  0  0  0  0  0  0  0  0  0
   38.0750   24.8620   37.4730 C   0  0  0  0  0  0  0  0  0  0  0  0
   37.6870   23.7020   38.1430 C   0  0  0  0  0  0  0  0  0  0  0  0
   37.4870   22.5640   37.3890 N   0  0  0  0  0  0  0  0  0  0  0  0
   37.6600   22.5720   36.0440 C   0  0  0  0  0  0  0  0  0  0  0  0
   38.0270   23.6680   35.4090 N   0  0  0  0  0  0  0  0  0  0  0  0
   38.2450   25.7810   38.0170 H   0  0  0  0  0  0  0  0  0  0  0  0
   37.5440   23.6780   39.2170 H   0  0  0  0  0  0  0  0  0  0  0  0
   37.4800   21.6320   35.5390 H   0  0  0  0  0  0  0  0  0  0  0  0
  1  6  1  0  0  0  0
  1 30  1  0  0  0  0
  2  7  1  0  0  0  0
  2  1  1  0  0  0  0
  3  9  1  6  0  0  0
  3  4  1  0  0  0  0
  3  2  1  0  0  0  0
  4  5  1  0  0  0  0
  5 12  1  0  0  0  0
  5  6  1  0  0  0  0
  6 14  1  0  0  0  0
  6 13  1  0  0  0  0
  8  2  1  0  0  0  0
 10  4  1  0  0  0  0
 11  5  1  0  0  0  0
 15 16  1  0  0  0  0
 16 17  1  0  0  0  0
 17 18  2  0  0  0  0
 17  3  1  0  0  0  0
 18 22  1  0  0  0  0
 19 23  1  0  0  0  0
 19 18  1  0  0  0  0
 20 19  2  0  0  0  0
 21 20  1  0  0  0  0
 21 16  2  0  0  0  0
 24 20  1  0  0  0  0
 25 26  1  0  0  0  0
 26 28  1  0  0  0  0
 26 27  2  0  0  0  0
 28 21  1  0  0  0  0
 29 28  1  0  0  0  0
 30 31  1  0  0  0  0
 31 36  1  0  0  0  0
 31 32  2  0  0  0  0
 32 37  1  0  0  0  0
 33 32  1  0  0  0  0
 34 33  2  0  0  0  0
 35 34  1  0  0  0  0
 35 30  2  0  0  0  0
 38 34  1  0  0  0  0
M  END
>  <minimizedAffinity>
-5.06511974

$$$$

 OpenBabel03272508413D

 38 40  0  0  1  0  0  0  0  0999 V2000
   36.0370   29.0340   31.6660 N   0  0  0  0  0  0  0  0  0  0  0  0
   35.2090   29.7970   32.6000 C   0  0  0  0  0  0  0  0  0  0  0  0
   35.6090   29.6690   34.0040 C   0  0  2  0  0  0  0  0  0  0  0  0
   35.9840   28.3080   34.3540 N   0  0  0  0  0  0  0  0  0  0  0  0
   36.9580   27.7910   33.4320 C   0  0  0  0  0  0  0  0  0  0  0  0
   36.1960   27.6940   32.1210 C   0  0  0  0  0  0  0  0  0  0  0  0
   34.2310   29.2140   32.4910 H   0  0  0  0  0  0  0  0  0  0  0  0
   35.1260   30.8200   32.2300 H   0  0  0  0  0  0  0  0  0  0  0  0
   36.5490   30.1880   34.2730 H   0  0  0  0  0  0  0  0  0  0  0  0
   35.9620   28.0170   35.2960 H   0  0  0  0  0  0  0  0  0  0  0  0
   37.7880   28.5130   33.2700 H   0  0  0  0  0  0  0  0  0  0  0  0
   37.3150   26.7990   33.7080 H   0  0  0  0  0  0  0  0  0  0  0  0
   36.7070   27.0610   31.3870 H   0  0  0  0  0  0  0  0  0  0  0  0
   35.2210   27.1950   32.3740 H   0  0  0  0  0  0  0  0  0  0  0  0
   36.4150   31.7720   35.9410 Cl  0  0  0  0  0  0  0  0  0  0  0  0
   34.7750   31.1440   35.7940 C   0  0  0  0  0  0  0  0  0  0  0  0
   34.5510   30.1550   34.8740 C   0  0  0  0  0  0  0  0  0  0  0  0
   33.3040   29.5560   34.6380 C   0  0  0  0  0  0  0  0  0  0  0  0
   32.2550   30.0410   35.4320 C   0  0  0  0  0  0  0  0  0  0  0  0
   32.4730   31.0500   36.3780 C   0  0  0  0  0  0  0  0  0  0  0  0
   33.7190   31.5830   36.5420 C   0  0  0  0  0  0  0  0  0  0  0  0
   32.8620   28.8160   34.0210 H   0  0  0  0  0  0  0  0  0  0  0  0
   31.2180   29.7480   35.4450 H   0  0  0  0  0  0  0  0  0  0  0  0
   31.7250   31.4760   37.0250 H   0  0  0  0  0  0  0  0  0  0  0  0
   33.8740   34.8320   37.4740 H   0  0  0  0  0  0  0  0  0  0  0  0
   33.7400   33.9100   36.9660 C   0  0  0  0  0  0  0  0  0  0  0  0
   33.2950   34.1070   35.7850 O   0  0  0  0  0  0  0  0  0  0  0  0
   34.0040   32.6110   37.4820 N   0  0  0  0  0  0  0  0  0  0  0  0
   34.3640   32.5340   38.4490 H   0  0  0  0  0  0  0  0  0  0  0  0
   36.5660   29.5990   30.4810 C   0  0  0  0  0  0  0  0  0  0  0  0
   36.4670   30.9540   30.1950 C   0  0  0  0  0  0  0  0  0  0  0  0
   37.0170   31.4390   29.0080 C   0  0  0  0  0  0  0  0  0  0  0  0
   37.6380   30.5320   28.1730 N   0  0  0  0  0  0  0  0  0  0  0  0
   37.7110   29.2160   28.4940 C   0  0  0  0  0  0  0  0  0  0  0  0
   37.1910   28.7570   29.6150 N   0  0  0  0  0  0  0  0  0  0  0  0
   35.9700   31.6230   30.8830 H   0  0  0  0  0  0  0  0  0  0  0  0
   36.9680   32.4870   28.7370 H   0  0  0  0  0  0  0  0  0  0  0  0
   38.2160   28.5830   27.7770 H   0  0  0  0  0  0  0  0  0  0  0  0
  1  6  1  0  0  0  0
  1  2  1  0  0  0  0
  2  3  1  0  0  0  0
  3  9  1  1  0  0  0
  3  4  1  0  0  0  0
  3 17  1  0  0  0  0
  4 10  1  0  0  0  0
  5 12  1  0  0  0  0
  5  4  1  0  0  0  0
  6 14  1  0  0  0  0
  6  5  1  0  0  0  0
  7  2  1  0  0  0  0
  8  2  1  0  0  0  0
 11  5  1  0  0  0  0
 13  6  1  0  0  0  0
 16 15  1  0  0  0  0
 16 21  1  0  0  0  0
 17 16  2  0  0  0  0
 18 17  1  0  0  0  0
 18 19  2  0  0  0  0
 19 23  1  0  0  0  0
 19 20  1  0  0  0  0
 20 21  2  0  0  0  0
 20 24  1  0  0  0  0
 21 28  1  0  0  0  0
 22 18  1  0  0  0  0
 26 25  1  0  0  0  0
 26 28  1  0  0  0  0
 27 26  2  0  0  0  0
 28 29  1  0  0  0  0
 30  1  1  0  0  0  0
 31 30  1  0  0  0  0
 31 36  1  0  0  0  0
 32 31  2  0  0  0  0
 33 34  2  0  0  0  0
 33 32  1  0  0  0  0
 34 35  1  0  0  0  0
 35 30  2  0  0  0  0
 37 32  1  0  0  0  0
 38 34  1  0  0  0  0
M  END
>  <minimizedAffinity>
-5.03539181

$$$$

 OpenBabel03272508413D

 38 40  0  0  1  0  0  0  0  0999 V2000
   37.4340   24.8730   32.4330 N   0  0  0  0  0  0  0  0  0  0  0  0
   37.4330   26.3260   32.2570 C   0  0  0  0  0  0  0  0  0  0  0  0
   36.1960   26.8630   31.6840 C   0  0  2  0  0  0  0  0  0  0  0  0
   35.6700   26.0300   30.6140 N   0  0  0  0  0  0  0  0  0  0  0  0
   35.5570   24.6620   31.0380 C   0  0  0  0  0  0  0  0  0  0  0  0
   36.9990   24.2270   31.2410 C   0  0  0  0  0  0  0  0  0  0  0  0
   38.2280   26.4080   31.4400 H   0  0  0  0  0  0  0  0  0  0  0  0
   37.7510   26.7860   33.1940 H   0  0  0  0  0  0  0  0  0  0  0  0
   35.3220   26.8550   32.3630 H   0  0  0  0  0  0  0  0  0  0  0  0
   35.0550   26.4140   29.9470 H   0  0  0  0  0  0  0  0  0  0  0  0
   35.0540   24.5830   32.0270 H   0  0  0  0  0  0  0  0  0  0  0  0
   35.0970   24.0230   30.2840 H   0  0  0  0  0  0  0  0  0  0  0  0
   37.1030   23.1380   31.2950 H   0  0  0  0  0  0  0  0  0  0  0  0
   37.5500   24.5730   30.3250 H   0  0  0  0  0  0  0  0  0  0  0  0
   35.3750   28.9940   33.5850 Cl  0  0  0  0  0  0  0  0  0  0  0  0
   36.1010   29.3050   32.0090 C   0  0  0  0  0  0  0  0  0  0  0  0
   36.4070   28.2260   31.2240 C   0  0  0  0  0  0  0  0  0  0  0  0
   36.9890   28.3100   29.9500 C   0  0  0  0  0  0  0  0  0  0  0  0
   37.2460   29.6130   29.5010 C   0  0  0  0  0  0  0  0  0  0  0  0
   36.9350   30.7240   30.2940 C   0  0  0  0  0  0  0  0  0  0  0  0
   36.3740   30.5540   31.5270 C   0  0  0  0  0  0  0  0  0  0  0  0
   37.3220   27.6780   29.1650 H   0  0  0  0  0  0  0  0  0  0  0  0
   37.6800   29.9400   28.5700 H   0  0  0  0  0  0  0  0  0  0  0  0
   37.1000   31.7540   30.0250 H   0  0  0  0  0  0  0  0  0  0  0  0
   34.2880   33.0010   32.5820 H   0  0  0  0  0  0  0  0  0  0  0  0
   34.7580   32.1890   32.0870 C   0  0  0  0  0  0  0  0  0  0  0  0
   34.0110   31.7380   31.1530 O   0  0  0  0  0  0  0  0  0  0  0  0
   36.0370   31.6400   32.3810 N   0  0  0  0  0  0  0  0  0  0  0  0
   36.5820   32.0600   33.1540 H   0  0  0  0  0  0  0  0  0  0  0  0
   37.8370   24.2530   33.6400 C   0  0  0  0  0  0  0  0  0  0  0  0
   38.1840   24.9800   34.7700 C   0  0  0  0  0  0  0  0  0  0  0  0
   38.5670   24.2970   35.9250 C   0  0  0  0  0  0  0  0  0  0  0  0
   38.5800   22.9180   35.8780 N   0  0  0  0  0  0  0  0  0  0  0  0
   38.2330   22.2490   34.7510 C   0  0  0  0  0  0  0  0  0  0  0  0
   37.8710   22.8940   33.6590 N   0  0  0  0  0  0  0  0  0  0  0  0
   38.1570   26.0610   34.7550 H   0  0  0  0  0  0  0  0  0  0  0  0
   38.8470   24.8160   36.8340 H   0  0  0  0  0  0  0  0  0  0  0  0
   38.2750   21.1700   34.8110 H   0  0  0  0  0  0  0  0  0  0  0  0
  1 30  1  0  0  0  0
  2  1  1  0  0  0  0
  2  8  1  0  0  0  0
  3  2  1  0  0  0  0
  3  9  1  1  0  0  0
  4  5  1  0  0  0  0
  4  3  1  0  0  0  0
  5  6  1  0  0  0  0
  5 11  1  0  0  0  0
  6 13  1  0  0  0  0
  6  1  1  0  0  0  0
  7  2  1  0  0  0  0
 10  4  1  0  0  0  0
 12  5  1  0  0  0  0
 14  6  1  0  0  0  0
 16 15  1  0  0  0  0
 17  3  1  0  0  0  0
 17 16  2  0  0  0  0
 18 17  1  0  0  0  0
 19 18  2  0  0  0  0
 19 20  1  0  0  0  0
 20 21  2  0  0  0  0
 21 16  1  0  0  0  0
 21 28  1  0  0  0  0
 22 18  1  0  0  0  0
 23 19  1  0  0  0  0
 24 20  1  0  0  0  0
 26 28  1  0  0  0  0
 26 25  1  0  0  0  0
 27 26  2  0  0  0  0
 28 29  1  0  0  0  0
 30 35  2  0  0  0  0
 30 31  1  0  0  0  0
 31 32  2  0  0  0  0
 32 37  1  0  0  0  0
 33 32  1  0  0  0  0
 34 38  1  0  0  0  0
 34 33  2  0  0  0  0
 35 34  1  0  0  0  0
 36 31  1  0  0  0  0
M  END
>  <minimizedAffinity>
-4.93867683

$$$$

 OpenBabel03272508413D

 38 40  0  0  1  0  0  0  0  0999 V2000
   38.2610   25.5380   33.0290 N   0  0  0  0  0  0  0  0  0  0  0  0
   38.7480   24.4670   33.8970 C   0  0  0  0  0  0  0  0  0  0  0  0
   39.1080   24.9030   35.2490 C   0  0  2  0  0  0  0  0  0  0  0  0
   39.8070   26.1790   35.2550 N   0  0  0  0  0  0  0  0  0  0  0  0
   39.0770   27.1670   34.5100 C   0  0  0  0  0  0  0  0  0  0  0  0
   39.1390   26.6590   33.0800 C   0  0  0  0  0  0  0  0  0  0  0  0
   39.7310   24.2340   33.3620 H   0  0  0  0  0  0  0  0  0  0  0  0
   38.0420   23.6360   33.8480 H   0  0  0  0  0  0  0  0  0  0  0  0
   38.2530   25.1650   35.9020 H   0  0  0  0  0  0  0  0  0  0  0  0
   40.3730   26.4270   36.0220 H   0  0  0  0  0  0  0  0  0  0  0  0
   38.0030   27.1830   34.8010 H   0  0  0  0  0  0  0  0  0  0  0  0
   39.5360   28.1540   34.5560 H   0  0  0  0  0  0  0  0  0  0  0  0
   38.8720   27.4320   32.3500 H   0  0  0  0  0  0  0  0  0  0  0  0
   40.2140   26.3850   32.9030 H   0  0  0  0  0  0  0  0  0  0  0  0
   41.6950   24.2370   33.9490 Cl  0  0  0  0  0  0  0  0  0  0  0  0
   41.1220   23.4930   35.4410 C   0  0  0  0  0  0  0  0  0  0  0  0
   39.8960   23.8780   35.9140 C   0  0  0  0  0  0  0  0  0  0  0  0
   39.3040   23.3800   37.0850 C   0  0  0  0  0  0  0  0  0  0  0  0
   40.0650   22.4230   37.7720 C   0  0  0  0  0  0  0  0  0  0  0  0
   41.3190   22.0200   37.2960 C   0  0  0  0  0  0  0  0  0  0  0  0
   41.8240   22.5580   36.1470 C   0  0  0  0  0  0  0  0  0  0  0  0
   38.4220   23.4950   37.6620 H   0  0  0  0  0  0  0  0  0  0  0  0
   39.8350   21.8950   38.6830 H   0  0  0  0  0  0  0  0  0  0  0  0
   41.9630   21.2940   37.7600 H   0  0  0  0  0  0  0  0  0  0  0  0
   45.1780   22.9190   35.8760 H   0  0  0  0  0  0  0  0  0  0  0  0
   44.1480   22.9970   36.1220 C   0  0  0  0  0  0  0  0  0  0  0  0
   43.9580   23.9360   36.9660 O   0  0  0  0  0  0  0  0  0  0  0  0
   43.0900   22.1940   35.6130 N   0  0  0  0  0  0  0  0  0  0  0  0
   43.3260   21.4510   34.9320 H   0  0  0  0  0  0  0  0  0  0  0  0
   37.0820   25.4150   32.2560 C   0  0  0  0  0  0  0  0  0  0  0  0
   36.4120   26.5160   31.7390 C   0  0  0  0  0  0  0  0  0  0  0  0
   35.2580   26.3140   30.9820 C   0  0  0  0  0  0  0  0  0  0  0  0
   34.8400   25.0140   30.7860 N   0  0  0  0  0  0  0  0  0  0  0  0
   35.5260   23.9680   31.3110 C   0  0  0  0  0  0  0  0  0  0  0  0
   36.6170   24.1580   32.0270 N   0  0  0  0  0  0  0  0  0  0  0  0
   36.7820   27.5160   31.9220 H   0  0  0  0  0  0  0  0  0  0  0  0
   34.6980   27.1390   30.5560 H   0  0  0  0  0  0  0  0  0  0  0  0
   35.1210   22.9870   31.1040 H   0  0  0  0  0  0  0  0  0  0  0  0
  1  6  1  0  0  0  0
  1  2  1  0  0  0  0
  2  3  1  0  0  0  0
  3  4  1  0  0  0  0
  3  9  1  1  0  0  0
  3 17  1  0  0  0  0
  4 10  1  0  0  0  0
  5 12  1  0  0  0  0
  5 11  1  0  0  0  0
  5  4  1  0  0  0  0
  6  5  1  0  0  0  0
  7  2  1  0  0  0  0
  8  2  1  0  0  0  0
 13  6  1  0  0  0  0
 14  6  1  0  0  0  0
 15 16  1  0  0  0  0
 16 17  2  0  0  0  0
 16 21  1  0  0  0  0
 17 18  1  0  0  0  0
 18 22  1  0  0  0  0
 18 19  2  0  0  0  0
 19 23  1  0  0  0  0
 20 24  1  0  0  0  0
 20 19  1  0  0  0  0
 21 20  2  0  0  0  0
 25 26  1  0  0  0  0
 26 27  2  0  0  0  0
 28 26  1  0  0  0  0
 28 21  1  0  0  0  0
 29 28  1  0  0  0  0
 30  1  1  0  0  0  0
 31 36  1  0  0  0  0
 31 30  2  0  0  0  0
 32 31  1  0  0  0  0
 33 32  2  0  0  0  0
 33 34  1  0  0  0  0
 34 35  2  0  0  0  0
 35 30  1  0  0  0  0
 37 32  1  0  0  0  0
 38 34  1  0  0  0  0
M  END
>  <minimizedAffinity>
-4.8776865

$$$$
