
 OpenBabel03272510093D

 23 24  0  0  0  0  0  0  0  0999 V2000
   36.3040   30.6360   48.1400 C   0  0  0  0  0  0  0  0  0  0  0  0
   36.7290   31.4180   49.1880 C   0  0  0  0  0  0  0  0  0  0  0  0
   37.7170   32.3810   49.1190 C   0  0  0  0  0  0  0  0  0  0  0  0
   38.3410   32.5860   47.9010 C   0  0  0  0  0  0  0  0  0  0  0  0
   37.9090   31.7950   46.8490 C   0  0  0  0  0  0  0  0  0  0  0  0
   36.9450   30.8810   46.9870 N   0  0  0  0  0  0  0  0  0  0  0  0
   36.2700   31.2950   50.1670 H   0  0  0  0  0  0  0  0  0  0  0  0
   38.0020   32.9590   49.9780 H   0  0  0  0  0  0  0  0  0  0  0  0
   38.4100   31.9700   45.8990 H   0  0  0  0  0  0  0  0  0  0  0  0
   35.2670   28.6210   49.2300 C   0  0  0  0  0  0  0  0  0  0  0  0
   35.2600   29.6320   48.2520 C   0  0  0  0  0  0  0  0  0  0  0  0
   34.2130   29.6800   47.3510 C   0  0  0  0  0  0  0  0  0  0  0  0
   33.2380   28.7200   47.4770 N   0  0  0  0  0  0  0  0  0  0  0  0
   33.2690   27.7690   48.4170 C   0  0  0  0  0  0  0  0  0  0  0  0
   34.2750   27.7100   49.2940 N   0  0  0  0  0  0  0  0  0  0  0  0
   36.1340   28.6900   49.8710 H   0  0  0  0  0  0  0  0  0  0  0  0
   34.0950   30.4070   46.5570 H   0  0  0  0  0  0  0  0  0  0  0  0
   32.4920   27.0230   48.4990 H   0  0  0  0  0  0  0  0  0  0  0  0
   40.7230   35.0500   48.5260 H   0  0  0  0  0  0  0  0  0  0  0  0
   39.9590   34.3540   48.8640 C   0  0  0  0  0  0  0  0  0  0  0  0
   39.6480   34.2580   50.0790 O   0  0  0  0  0  0  0  0  0  0  0  0
   39.3580   33.5790   47.8370 N   0  0  0  0  0  0  0  0  0  0  0  0
   39.6000   33.6410   46.8230 H   0  0  0  0  0  0  0  0  0  0  0  0
  1 11  1  0  0  0  0
  1  2  1  0  0  0  0
  2  7  1  0  0  0  0
  3  2  2  0  0  0  0
  3  8  1  0  0  0  0
  4  3  1  0  0  0  0
  5  6  1  0  0  0  0
  5  4  2  0  0  0  0
  6  1  2  0  0  0  0
  9  5  1  0  0  0  0
 10 15  1  0  0  0  0
 10 16  1  0  0  0  0
 11 10  2  0  0  0  0
 12 13  2  0  0  0  0
 12 11  1  0  0  0  0
 13 14  1  0  0  0  0
 14 18  1  0  0  0  0
 14 15  2  0  0  0  0
 17 12  1  0  0  0  0
 19 20  1  0  0  0  0
 20 21  2  0  0  0  0
 22  4  1  0  0  0  0
 22 20  1  0  0  0  0
 23 22  1  0  0  0  0
M  END
>  <minimizedAffinity>
-4.74833012

>  <minimizedRMSD>
2.73725271

$$$$
