
 OpenBabel03272505333D

 31 32  0  0  1  0  0  0  0  0999 V2000
   36.7830   31.1360   49.0600 C   0  0  0  0  0  0  0  0  0  0  0  0
   37.1270   32.2290   49.8560 C   0  0  0  0  0  0  0  0  0  0  0  0
   38.0500   33.1500   49.3410 C   0  0  0  0  0  0  0  0  0  0  0  0
   38.5550   32.9160   48.0860 N   0  0  0  0  0  0  0  0  0  0  0  0
   38.1950   31.8560   47.3650 C   0  0  0  0  0  0  0  0  0  0  0  0
   37.3170   30.9660   47.8370 N   0  0  0  0  0  0  0  0  0  0  0  0
   38.7760   31.7040   46.0770 N   0  0  0  0  0  0  0  0  0  0  0  0
   40.0140   30.9750   45.9270 C   0  0  0  0  0  0  0  0  0  0  0  0
   40.9740   31.6740   44.9960 C   0  0  0  0  0  0  0  0  0  0  0  0
   40.3410   32.1380   43.8020 N   0  0  0  0  0  0  0  0  0  0  0  0
   38.9710   31.7620   43.6830 C   0  0  0  0  0  0  0  0  0  0  0  0
   38.1610   32.2630   44.8730 C   0  0  1  0  0  0  0  0  0  0  0  0
   36.7310   32.4160   50.8430 H   0  0  0  0  0  0  0  0  0  0  0  0
   38.3670   34.0180   49.8920 H   0  0  0  0  0  0  0  0  0  0  0  0
   40.5010   30.7390   46.8680 H   0  0  0  0  0  0  0  0  0  0  0  0
   39.7300   30.0230   45.4100 H   0  0  0  0  0  0  0  0  0  0  0  0
   41.5600   32.4750   45.5090 H   0  0  0  0  0  0  0  0  0  0  0  0
   41.7230   30.9130   44.6880 H   0  0  0  0  0  0  0  0  0  0  0  0
   40.4350   33.1710   43.6780 H   0  0  0  0  0  0  0  0  0  0  0  0
   38.5430   32.2020   42.7770 H   0  0  0  0  0  0  0  0  0  0  0  0
   38.9550   30.6590   43.5990 H   0  0  0  0  0  0  0  0  0  0  0  0
   38.2750   33.3600   44.9040 H   0  0  0  0  0  0  0  0  0  0  0  0
   35.1520   30.5120   44.3650 H   0  0  0  0  0  0  0  0  0  0  0  0
   36.2140   30.6860   44.4340 C   0  0  0  0  0  0  0  0  0  0  0  0
   36.9690   29.6800   44.2050 O   0  0  0  0  0  0  0  0  0  0  0  0
   36.7830   31.9480   44.7600 N   0  0  0  0  0  0  0  0  0  0  0  0
   36.1480   32.7800   44.9490 H   0  0  0  0  0  0  0  0  0  0  0  0
   35.7950   30.1490   49.6100 C   0  0  0  0  0  0  0  0  0  0  0  0
   34.5200   30.7080   49.6000 F   0  0  0  0  0  0  0  0  0  0  0  0
   35.9100   28.9970   48.8890 F   0  0  0  0  0  0  0  0  0  0  0  0
   36.1280   29.9430   50.9510 F   0  0  0  0  0  0  0  0  0  0  0  0
  1 28  1  0  0  0  0
  1  2  1  0  0  0  0
  2 13  1  0  0  0  0
  3  2  2  0  0  0  0
  3 14  1  0  0  0  0
  4  3  1  0  0  0  0
  5  6  1  0  0  0  0
  5  4  2  0  0  0  0
  6  1  2  0  0  0  0
  7  5  1  0  0  0  0
  8  7  1  0  0  0  0
  8 15  1  0  0  0  0
  9 17  1  0  0  0  0
  9  8  1  0  0  0  0
 10  9  1  0  0  0  0
 11 10  1  0  0  0  0
 11 12  1  0  0  0  0
 12 22  1  1  0  0  0
 12  7  1  0  0  0  0
 16  8  1  0  0  0  0
 18  9  1  0  0  0  0
 19 10  1  0  0  0  0
 20 11  1  0  0  0  0
 21 11  1  0  0  0  0
 23 24  1  0  0  0  0
 24 26  1  0  0  0  0
 25 24  2  0  0  0  0
 26 12  1  0  0  0  0
 26 27  1  0  0  0  0
 28 31  1  0  0  0  0
 29 28  1  0  0  0  0
 30 28  1  0  0  0  0
M  END
>  <minimizedAffinity>
-6.14236927

>  <minimizedRMSD>
0.193855569

$$$$
