
 OpenBabel03272509353D

 43 46  0  0  1  0  0  0  0  0999 V2000
   36.4650   30.6440   44.9790 C   0  0  1  0  0  0  0  0  0  0  0  0
   37.5690   31.4210   45.6010 C   0  0  0  0  0  0  0  0  0  0  0  0
   37.9130   30.0500   45.2790 C   0  0  2  0  0  0  0  0  0  0  0  0
   36.2430   30.5920   43.9160 H   0  0  0  0  0  0  0  0  0  0  0  0
   37.7130   32.3450   45.0490 H   0  0  0  0  0  0  0  0  0  0  0  0
   37.3980   31.6550   46.6990 H   0  0  0  0  0  0  0  0  0  0  0  0
   37.7800   29.1310   45.8310 H   0  0  0  0  0  0  0  0  0  0  0  0
   38.8590   29.9840   44.1170 C   0  0  0  0  0  0  0  0  0  0  0  0
   39.5670   31.1870   44.0090 C   0  0  0  0  0  0  0  0  0  0  0  0
   40.5650   31.3150   43.0750 C   0  0  0  0  0  0  0  0  0  0  0  0
   40.8990   30.2620   42.2140 C   0  0  0  0  0  0  0  0  0  0  0  0
   40.1780   29.0850   42.3480 C   0  0  0  0  0  0  0  0  0  0  0  0
   40.3910   27.9880   41.5610 C   0  0  0  0  0  0  0  0  0  0  0  0
   39.6720   26.8250   41.6760 C   0  0  0  0  0  0  0  0  0  0  0  0
   38.6810   26.7430   42.6280 C   0  0  0  0  0  0  0  0  0  0  0  0
   38.4600   27.8450   43.4250 C   0  0  0  0  0  0  0  0  0  0  0  0
   39.2070   29.0020   43.2790 C   0  0  0  0  0  0  0  0  0  0  0  0
   39.5690   32.1360   44.5040 H   0  0  0  0  0  0  0  0  0  0  0  0
   41.2080   32.1540   42.8500 H   0  0  0  0  0  0  0  0  0  0  0  0
   41.6590   30.2360   41.4410 H   0  0  0  0  0  0  0  0  0  0  0  0
   41.1580   27.9990   40.7970 H   0  0  0  0  0  0  0  0  0  0  0  0
   39.8760   25.9770   41.0260 H   0  0  0  0  0  0  0  0  0  0  0  0
   38.0740   25.8620   42.7770 H   0  0  0  0  0  0  0  0  0  0  0  0
   37.6630   27.7680   44.1870 H   0  0  0  0  0  0  0  0  0  0  0  0
   33.4060   28.8600   46.2790 C   0  0  0  0  0  0  0  0  0  0  0  0
   34.3810   29.3820   45.3790 C   0  0  0  0  0  0  0  0  0  0  0  0
   35.4400   30.0760   45.8910 C   0  0  0  0  0  0  0  0  0  0  0  0
   35.4810   30.2160   47.2640 N   0  0  0  0  0  0  0  0  0  0  0  0
   34.5610   29.7220   48.0970 C   0  0  0  0  0  0  0  0  0  0  0  0
   33.5110   29.0380   47.6280 N   0  0  0  0  0  0  0  0  0  0  0  0
   32.5720   28.3100   45.8360 H   0  0  0  0  0  0  0  0  0  0  0  0
   34.2400   29.2070   44.3200 H   0  0  0  0  0  0  0  0  0  0  0  0
   34.7480   29.9550   49.5700 C   0  0  0  0  0  0  0  0  0  0  0  0
   35.0540   31.0100   49.6770 H   0  0  0  0  0  0  0  0  0  0  0  0
   33.8420   29.7180   50.1320 H   0  0  0  0  0  0  0  0  0  0  0  0
   35.9170   29.0530   50.0210 C   0  0  0  0  0  0  0  0  0  0  0  0
   36.7800   29.1880   49.3610 H   0  0  0  0  0  0  0  0  0  0  0  0
   35.5670   28.0020   50.0630 H   0  0  0  0  0  0  0  0  0  0  0  0
   37.6620   30.5780   52.5350 H   0  0  0  0  0  0  0  0  0  0  0  0
   37.4260   30.2800   51.5140 C   0  0  0  0  0  0  0  0  0  0  0  0
   38.1060   30.6040   50.5150 O   0  0  0  0  0  0  0  0  0  0  0  0
   36.2550   29.4660   51.3660 N   0  0  0  0  0  0  0  0  0  0  0  0
   35.6910   29.1980   52.2090 H   0  0  0  0  0  0  0  0  0  0  0  0
  1  4  1  6  0  0  0
  1  3  1  0  0  0  0
  1  2  1  0  0  0  0
  1 27  1  0  0  0  0
  2  6  1  0  0  0  0
  3  2  1  0  0  0  0
  3  7  1  1  0  0  0
  5  2  1  0  0  0  0
  8  3  1  0  0  0  0
  9  8  1  0  0  0  0
  9 18  1  0  0  0  0
 10  9  2  0  0  0  0
 11 12  2  0  0  0  0
 11 10  1  0  0  0  0
 12 17  1  0  0  0  0
 13 14  2  0  0  0  0
 13 12  1  0  0  0  0
 14 15  1  0  0  0  0
 15 23  1  0  0  0  0
 15 16  2  0  0  0  0
 16 24  1  0  0  0  0
 17 16  1  0  0  0  0
 17  8  2  0  0  0  0
 19 10  1  0  0  0  0
 20 11  1  0  0  0  0
 21 13  1  0  0  0  0
 22 14  1  0  0  0  0
 25 30  1  0  0  0  0
 26 27  1  0  0  0  0
 26 25  2  0  0  0  0
 27 28  2  0  0  0  0
 28 29  1  0  0  0  0
 29 33  1  0  0  0  0
 30 29  2  0  0  0  0
 31 25  1  0  0  0  0
 32 26  1  0  0  0  0
 33 34  1  0  0  0  0
 33 36  1  0  0  0  0
 33 35  1  0  0  0  0
 36 38  1  0  0  0  0
 36 42  1  0  0  0  0
 37 36  1  0  0  0  0
 40 39  1  0  0  0  0
 41 40  2  0  0  0  0
 42 40  1  0  0  0  0
 42 43  1  0  0  0  0
M  END
>  <minimizedAffinity>
-5.00701284

>  <minimizedRMSD>
2.56777406

$$$$
