
 OpenBabel03272505423D

 41 43  0  0  0  0  0  0  0  0999 V2000
   37.6260   23.7670   33.3150 C   0  0  0  0  0  0  0  0  0  0  0  0
   37.0080   22.8210   32.4900 C   0  0  0  0  0  0  0  0  0  0  0  0
   36.2540   23.2470   31.4150 C   0  0  0  0  0  0  0  0  0  0  0  0
   36.0670   24.5650   31.0950 C   0  0  0  0  0  0  0  0  0  0  0  0
   36.6800   25.5280   31.9120 C   0  0  0  0  0  0  0  0  0  0  0  0
   37.4310   25.0700   32.9850 C   0  0  0  0  0  0  0  0  0  0  0  0
   37.1300   21.7730   32.7060 H   0  0  0  0  0  0  0  0  0  0  0  0
   35.7870   22.4930   30.7920 H   0  0  0  0  0  0  0  0  0  0  0  0
   35.4640   24.8390   30.2380 H   0  0  0  0  0  0  0  0  0  0  0  0
   36.5020   26.5310   31.6200 H   0  0  0  0  0  0  0  0  0  0  0  0
   37.9750   26.1720   33.7010 N   0  0  0  0  0  0  0  0  0  0  0  0
   39.2290   26.8650   33.8090 C   0  0  0  0  0  0  0  0  0  0  0  0
   39.6140   26.8730   35.2600 C   0  0  0  0  0  0  0  0  0  0  0  0
   38.7020   27.7530   35.9690 N   0  0  0  0  0  0  0  0  0  0  0  0
   37.4550   27.9210   35.3130 C   0  0  0  0  0  0  0  0  0  0  0  0
   36.9610   26.7410   34.5410 C   0  0  0  0  0  0  0  0  0  0  0  0
   39.9740   26.2810   33.2170 H   0  0  0  0  0  0  0  0  0  0  0  0
   39.1670   27.9160   33.4520 H   0  0  0  0  0  0  0  0  0  0  0  0
   40.0150   26.0340   35.7300 H   0  0  0  0  0  0  0  0  0  0  0  0
   40.5290   27.5620   35.2110 H   0  0  0  0  0  0  0  0  0  0  0  0
   38.6470   27.5690   36.9840 H   0  0  0  0  0  0  0  0  0  0  0  0
   37.5090   28.8470   34.7080 H   0  0  0  0  0  0  0  0  0  0  0  0
   36.6730   28.1290   36.0940 H   0  0  0  0  0  0  0  0  0  0  0  0
   36.2540   27.2140   33.7840 H   0  0  0  0  0  0  0  0  0  0  0  0
   36.3060   26.0590   35.0720 H   0  0  0  0  0  0  0  0  0  0  0  0
   38.7700   23.2440   36.7400 C   0  0  0  0  0  0  0  0  0  0  0  0
   39.9680   22.5170   36.5510 C   0  0  0  0  0  0  0  0  0  0  0  0
   40.3520   22.2230   35.2420 C   0  0  0  0  0  0  0  0  0  0  0  0
   39.5330   22.6640   34.2560 N   0  0  0  0  0  0  0  0  0  0  0  0
   38.4130   23.3440   34.4410 C   0  0  0  0  0  0  0  0  0  0  0  0
   38.0290   23.6360   35.6990 N   0  0  0  0  0  0  0  0  0  0  0  0
   40.5460   22.2140   37.4100 H   0  0  0  0  0  0  0  0  0  0  0  0
   43.3810   20.5850   35.2760 H   0  0  0  0  0  0  0  0  0  0  0  0
   42.6650   21.1830   35.8630 C   0  0  0  0  0  0  0  0  0  0  0  0
   42.6940   21.5870   37.0490 O   0  0  0  0  0  0  0  0  0  0  0  0
   41.5410   21.5010   35.0310 N   0  0  0  0  0  0  0  0  0  0  0  0
   41.3880   21.2290   34.0260 H   0  0  0  0  0  0  0  0  0  0  0  0
   38.3870   23.5500   38.1580 C   0  0  0  0  0  0  0  0  0  0  0  0
   38.0650   24.9150   38.2350 F   0  0  0  0  0  0  0  0  0  0  0  0
   37.3490   22.7770   38.4980 F   0  0  0  0  0  0  0  0  0  0  0  0
   39.4840   23.3800   38.9580 F   0  0  0  0  0  0  0  0  0  0  0  0
  1 30  1  0  0  0  0
  2  7  1  0  0  0  0
  2  1  2  0  0  0  0
  3  2  1  0  0  0  0
  4  3  2  0  0  0  0
  4  5  1  0  0  0  0
  5  6  2  0  0  0  0
  6  1  1  0  0  0  0
  6 11  1  0  0  0  0
  8  3  1  0  0  0  0
  9  4  1  0  0  0  0
 10  5  1  0  0  0  0
 11 12  1  0  0  0  0
 11 16  1  0  0  0  0
 12 13  1  0  0  0  0
 13 19  1  0  0  0  0
 13 14  1  0  0  0  0
 14 21  1  0  0  0  0
 15 14  1  0  0  0  0
 15 23  1  0  0  0  0
 16 25  1  0  0  0  0
 16 15  1  0  0  0  0
 17 12  1  0  0  0  0
 18 12  1  0  0  0  0
 20 13  1  0  0  0  0
 22 15  1  0  0  0  0
 24 16  1  0  0  0  0
 26 38  1  0  0  0  0
 27 26  1  0  0  0  0
 27 32  1  0  0  0  0
 28 27  2  0  0  0  0
 29 30  2  0  0  0  0
 29 28  1  0  0  0  0
 30 31  1  0  0  0  0
 31 26  2  0  0  0  0
 33 34  1  0  0  0  0
 34 35  2  0  0  0  0
 36 28  1  0  0  0  0
 36 34  1  0  0  0  0
 37 36  1  0  0  0  0
 38 39  1  0  0  0  0
 38 40  1  0  0  0  0
 38 41  1  0  0  0  0
M  END
>  <minimizedAffinity>
-6.6761384

$$$$

 OpenBabel03272505423D

 41 43  0  0  0  0  0  0  0  0999 V2000
   36.8730   21.5800   33.7010 C   0  0  0  0  0  0  0  0  0  0  0  0
   36.1650   20.4020   33.9640 C   0  0  0  0  0  0  0  0  0  0  0  0
   35.1770   19.9940   33.0920 C   0  0  0  0  0  0  0  0  0  0  0  0
   34.8340   20.6810   31.9580 C   0  0  0  0  0  0  0  0  0  0  0  0
   35.5350   21.8660   31.6780 C   0  0  0  0  0  0  0  0  0  0  0  0
   36.5220   22.2510   32.5730 C   0  0  0  0  0  0  0  0  0  0  0  0
   36.4030   19.8300   34.8450 H   0  0  0  0  0  0  0  0  0  0  0  0
   34.6440   19.0780   33.3200 H   0  0  0  0  0  0  0  0  0  0  0  0
   34.0490   20.3120   31.3110 H   0  0  0  0  0  0  0  0  0  0  0  0
   35.2300   22.3580   30.7900 H   0  0  0  0  0  0  0  0  0  0  0  0
   37.1240   23.4640   32.1380 N   0  0  0  0  0  0  0  0  0  0  0  0
   37.2340   24.8260   32.5850 C   0  0  0  0  0  0  0  0  0  0  0  0
   36.7440   25.7040   31.4700 C   0  0  0  0  0  0  0  0  0  0  0  0
   37.7080   25.6470   30.3860 N   0  0  0  0  0  0  0  0  0  0  0  0
   38.4940   24.4650   30.3920 C   0  0  0  0  0  0  0  0  0  0  0  0
   37.8180   23.2350   30.9040 C   0  0  0  0  0  0  0  0  0  0  0  0
   36.5700   24.9290   33.4760 H   0  0  0  0  0  0  0  0  0  0  0  0
   38.2810   25.1100   32.8280 H   0  0  0  0  0  0  0  0  0  0  0  0
   35.7290   25.8310   31.2730 H   0  0  0  0  0  0  0  0  0  0  0  0
   37.0190   26.7300   31.9020 H   0  0  0  0  0  0  0  0  0  0  0  0
   37.3200   25.9150   29.4670 H   0  0  0  0  0  0  0  0  0  0  0  0
   39.4450   24.6900   30.9140 H   0  0  0  0  0  0  0  0  0  0  0  0
   38.7920   24.2360   29.3320 H   0  0  0  0  0  0  0  0  0  0  0  0
   38.6930   22.5860   31.2330 H   0  0  0  0  0  0  0  0  0  0  0  0
   37.3330   22.6090   30.1630 H   0  0  0  0  0  0  0  0  0  0  0  0
   38.5600   22.9700   36.6220 C   0  0  0  0  0  0  0  0  0  0  0  0
   39.9230   22.8630   36.2630 C   0  0  0  0  0  0  0  0  0  0  0  0
   40.2280   22.3100   35.0180 C   0  0  0  0  0  0  0  0  0  0  0  0
   39.1790   21.9200   34.2550 N   0  0  0  0  0  0  0  0  0  0  0  0
   37.9050   22.0230   34.5980 C   0  0  0  0  0  0  0  0  0  0  0  0
   37.5940   22.5540   35.7960 N   0  0  0  0  0  0  0  0  0  0  0  0
   40.6810   23.2070   36.9500 H   0  0  0  0  0  0  0  0  0  0  0  0
   43.6360   22.3940   34.5300 H   0  0  0  0  0  0  0  0  0  0  0  0
   42.7970   22.7670   35.1380 C   0  0  0  0  0  0  0  0  0  0  0  0
   42.7600   23.5510   36.1150 O   0  0  0  0  0  0  0  0  0  0  0  0
   41.5790   22.1960   34.6420 N   0  0  0  0  0  0  0  0  0  0  0  0
   41.4650   21.5290   33.8350 H   0  0  0  0  0  0  0  0  0  0  0  0
   38.2630   23.5730   37.9640 C   0  0  0  0  0  0  0  0  0  0  0  0
   39.3940   23.3960   38.7780 F   0  0  0  0  0  0  0  0  0  0  0  0
   37.9710   24.8670   37.7960 F   0  0  0  0  0  0  0  0  0  0  0  0
   37.2610   22.8550   38.5580 F   0  0  0  0  0  0  0  0  0  0  0  0
  1  2  1  0  0  0  0
  1 30  1  0  0  0  0
  2  7  1  0  0  0  0
  3  8  1  0  0  0  0
  3  2  2  0  0  0  0
  4  3  1  0  0  0  0
  5  4  2  0  0  0  0
  5  6  1  0  0  0  0
  6  1  2  0  0  0  0
  9  4  1  0  0  0  0
 10  5  1  0  0  0  0
 11  6  1  0  0  0  0
 11 12  1  0  0  0  0
 12 18  1  0  0  0  0
 12 17  1  0  0  0  0
 13 20  1  0  0  0  0
 13 12  1  0  0  0  0
 14 15  1  0  0  0  0
 14 13  1  0  0  0  0
 15 16  1  0  0  0  0
 15 22  1  0  0  0  0
 16 24  1  0  0  0  0
 16 11  1  0  0  0  0
 19 13  1  0  0  0  0
 21 14  1  0  0  0  0
 23 15  1  0  0  0  0
 25 16  1  0  0  0  0
 26 38  1  0  0  0  0
 27 26  1  0  0  0  0
 27 32  1  0  0  0  0
 28 27  2  0  0  0  0
 29 30  2  0  0  0  0
 29 28  1  0  0  0  0
 30 31  1  0  0  0  0
 31 26  2  0  0  0  0
 33 34  1  0  0  0  0
 34 35  2  0  0  0  0
 36 28  1  0  0  0  0
 36 34  1  0  0  0  0
 37 36  1  0  0  0  0
 38 41  1  0  0  0  0
 38 39  1  0  0  0  0
 40 38  1  0  0  0  0
M  END
>  <minimizedAffinity>
-6.39366817

$$$$

 OpenBabel03272505423D

 41 43  0  0  0  0  0  0  0  0999 V2000
   38.3660   24.3820   33.6980 C   0  0  0  0  0  0  0  0  0  0  0  0
   38.3430   25.4190   32.7580 C   0  0  0  0  0  0  0  0  0  0  0  0
   38.5210   26.7210   33.1780 C   0  0  0  0  0  0  0  0  0  0  0  0
   38.7250   27.0750   34.4850 C   0  0  0  0  0  0  0  0  0  0  0  0
   38.7510   26.0480   35.4420 C   0  0  0  0  0  0  0  0  0  0  0  0
   38.5680   24.7490   34.9900 C   0  0  0  0  0  0  0  0  0  0  0  0
   38.1860   25.1840   31.7180 H   0  0  0  0  0  0  0  0  0  0  0  0
   38.4990   27.5040   32.4290 H   0  0  0  0  0  0  0  0  0  0  0  0
   38.8580   28.1150   34.7550 H   0  0  0  0  0  0  0  0  0  0  0  0
   38.9110   26.3770   36.4370 H   0  0  0  0  0  0  0  0  0  0  0  0
   38.6230   23.8430   36.0850 N   0  0  0  0  0  0  0  0  0  0  0  0
   37.7110   23.2110   36.9980 C   0  0  0  0  0  0  0  0  0  0  0  0
   38.1740   23.5330   38.3900 C   0  0  0  0  0  0  0  0  0  0  0  0
   39.4160   22.8210   38.6350 N   0  0  0  0  0  0  0  0  0  0  0  0
   40.1220   22.4920   37.4480 C   0  0  0  0  0  0  0  0  0  0  0  0
   39.9850   23.4620   36.3190 C   0  0  0  0  0  0  0  0  0  0  0  0
   36.7050   23.6580   36.8150 H   0  0  0  0  0  0  0  0  0  0  0  0
   37.6880   22.1050   36.8790 H   0  0  0  0  0  0  0  0  0  0  0  0
   37.9990   24.4620   38.8280 H   0  0  0  0  0  0  0  0  0  0  0  0
   37.4610   22.8630   38.9870 H   0  0  0  0  0  0  0  0  0  0  0  0
   39.9890   23.2270   39.3910 H   0  0  0  0  0  0  0  0  0  0  0  0
   39.8530   21.4550   37.1670 H   0  0  0  0  0  0  0  0  0  0  0  0
   41.2180   22.4520   37.6910 H   0  0  0  0  0  0  0  0  0  0  0  0
   40.2200   22.8210   35.4080 H   0  0  0  0  0  0  0  0  0  0  0  0
   40.7430   24.2360   36.2560 H   0  0  0  0  0  0  0  0  0  0  0  0
   36.8530   21.1120   33.1260 C   0  0  0  0  0  0  0  0  0  0  0  0
   37.8900   20.4100   32.4690 C   0  0  0  0  0  0  0  0  0  0  0  0
   39.0890   21.0860   32.2370 C   0  0  0  0  0  0  0  0  0  0  0  0
   39.1540   22.3690   32.6660 N   0  0  0  0  0  0  0  0  0  0  0  0
   38.1790   23.0200   33.2810 C   0  0  0  0  0  0  0  0  0  0  0  0
   37.0160   22.3820   33.5120 N   0  0  0  0  0  0  0  0  0  0  0  0
   37.7300   19.3860   32.1690 H   0  0  0  0  0  0  0  0  0  0  0  0
   41.3440   18.9440   30.7580 H   0  0  0  0  0  0  0  0  0  0  0  0
   40.3870   19.0230   31.2990 C   0  0  0  0  0  0  0  0  0  0  0  0
   39.5640   18.1530   31.6660 O   0  0  0  0  0  0  0  0  0  0  0  0
   40.1330   20.4060   31.5850 N   0  0  0  0  0  0  0  0  0  0  0  0
   40.7350   21.2330   31.3370 H   0  0  0  0  0  0  0  0  0  0  0  0
   35.5780   20.3580   33.3670 C   0  0  0  0  0  0  0  0  0  0  0  0
   35.7880   19.0200   32.9900 F   0  0  0  0  0  0  0  0  0  0  0  0
   35.2560   20.4630   34.6610 F   0  0  0  0  0  0  0  0  0  0  0  0
   34.6160   20.8370   32.5200 F   0  0  0  0  0  0  0  0  0  0  0  0
  1  6  1  0  0  0  0
  2  3  1  0  0  0  0
  2  1  2  0  0  0  0
  3  4  2  0  0  0  0
  4  9  1  0  0  0  0
  4  5  1  0  0  0  0
  5 10  1  0  0  0  0
  6  5  2  0  0  0  0
  6 11  1  0  0  0  0
  7  2  1  0  0  0  0
  8  3  1  0  0  0  0
 11 16  1  0  0  0  0
 11 12  1  0  0  0  0
 12 13  1  0  0  0  0
 13 14  1  0  0  0  0
 13 19  1  0  0  0  0
 13 20  1  0  0  0  0
 14 21  1  0  0  0  0
 15 23  1  0  0  0  0
 15 14  1  0  0  0  0
 16 15  1  0  0  0  0
 17 12  1  0  0  0  0
 18 12  1  0  0  0  0
 22 15  1  0  0  0  0
 24 16  1  0  0  0  0
 25 16  1  0  0  0  0
 26 38  1  0  0  0  0
 26 31  1  0  0  0  0
 27 26  2  0  0  0  0
 28 27  1  0  0  0  0
 28 29  2  0  0  0  0
 29 30  1  0  0  0  0
 30 31  2  0  0  0  0
 30  1  1  0  0  0  0
 32 27  1  0  0  0  0
 33 34  1  0  0  0  0
 34 36  1  0  0  0  0
 34 35  2  0  0  0  0
 36 28  1  0  0  0  0
 37 36  1  0  0  0  0
 38 40  1  0  0  0  0
 39 38  1  0  0  0  0
 41 38  1  0  0  0  0
M  END
>  <minimizedAffinity>
-6.12990236

$$$$

 OpenBabel03272505423D

 41 43  0  0  0  0  0  0  0  0999 V2000
   35.0080   30.7840   35.1990 C   0  0  0  0  0  0  0  0  0  0  0  0
   35.7780   31.7720   35.8230 C   0  0  0  0  0  0  0  0  0  0  0  0
   35.1920   32.6010   36.7580 C   0  0  0  0  0  0  0  0  0  0  0  0
   33.8740   32.5190   37.1230 C   0  0  0  0  0  0  0  0  0  0  0  0
   33.0870   31.5330   36.5070 C   0  0  0  0  0  0  0  0  0  0  0  0
   33.7040   30.7150   35.5710 C   0  0  0  0  0  0  0  0  0  0  0  0
   36.8190   31.8710   35.5650 H   0  0  0  0  0  0  0  0  0  0  0  0
   35.8110   33.3570   37.2260 H   0  0  0  0  0  0  0  0  0  0  0  0
   33.4690   33.1980   37.8630 H   0  0  0  0  0  0  0  0  0  0  0  0
   32.0760   31.5140   36.8260 H   0  0  0  0  0  0  0  0  0  0  0  0
   32.7660   29.7820   35.0500 N   0  0  0  0  0  0  0  0  0  0  0  0
   32.2430   29.3900   33.7700 C   0  0  0  0  0  0  0  0  0  0  0  0
   30.7480   29.5070   33.8420 C   0  0  0  0  0  0  0  0  0  0  0  0
   30.2500   28.4640   34.7210 N   0  0  0  0  0  0  0  0  0  0  0  0
   31.2150   28.0050   35.6550 C   0  0  0  0  0  0  0  0  0  0  0  0
   32.2010   29.0230   36.1280 C   0  0  0  0  0  0  0  0  0  0  0  0
   32.6490   30.1100   33.0200 H   0  0  0  0  0  0  0  0  0  0  0  0
   32.5060   28.3420   33.5060 H   0  0  0  0  0  0  0  0  0  0  0  0
   30.2620   30.4270   33.7800 H   0  0  0  0  0  0  0  0  0  0  0  0
   30.4720   29.0380   32.8320 H   0  0  0  0  0  0  0  0  0  0  0  0
   29.3150   28.6590   35.1130 H   0  0  0  0  0  0  0  0  0  0  0  0
   31.6930   27.0980   35.2340 H   0  0  0  0  0  0  0  0  0  0  0  0
   30.6740   27.6480   36.5730 H   0  0  0  0  0  0  0  0  0  0  0  0
   33.0810   28.3840   36.4650 H   0  0  0  0  0  0  0  0  0  0  0  0
   31.9430   29.5560   37.0370 H   0  0  0  0  0  0  0  0  0  0  0  0
   36.6350   27.9030   33.6610 C   0  0  0  0  0  0  0  0  0  0  0  0
   36.7310   28.2980   32.3070 C   0  0  0  0  0  0  0  0  0  0  0  0
   36.2290   29.5520   31.9560 C   0  0  0  0  0  0  0  0  0  0  0  0
   35.6870   30.2890   32.9560 N   0  0  0  0  0  0  0  0  0  0  0  0
   35.6000   29.9120   34.2210 C   0  0  0  0  0  0  0  0  0  0  0  0
   36.0810   28.7050   34.5760 N   0  0  0  0  0  0  0  0  0  0  0  0
   37.1840   27.6290   31.5900 H   0  0  0  0  0  0  0  0  0  0  0  0
   36.8170   30.1280   28.6120 H   0  0  0  0  0  0  0  0  0  0  0  0
   37.0620   29.4970   29.4810 C   0  0  0  0  0  0  0  0  0  0  0  0
   37.8320   28.5170   29.6080 O   0  0  0  0  0  0  0  0  0  0  0  0
   36.3160   29.9640   30.6140 N   0  0  0  0  0  0  0  0  0  0  0  0
   35.6390   30.7690   30.6480 H   0  0  0  0  0  0  0  0  0  0  0  0
   37.1890   26.5520   34.0080 C   0  0  0  0  0  0  0  0  0  0  0  0
   38.5780   26.5870   33.8010 F   0  0  0  0  0  0  0  0  0  0  0  0
   36.8850   26.2800   35.2820 F   0  0  0  0  0  0  0  0  0  0  0  0
   36.7010   25.6340   33.1180 F   0  0  0  0  0  0  0  0  0  0  0  0
  1  6  2  0  0  0  0
  1  2  1  0  0  0  0
  2  3  2  0  0  0  0
  3  4  1  0  0  0  0
  3  8  1  0  0  0  0
  4  9  1  0  0  0  0
  5 10  1  0  0  0  0
  5  4  2  0  0  0  0
  6  5  1  0  0  0  0
  7  2  1  0  0  0  0
 11  6  1  0  0  0  0
 11 16  1  0  0  0  0
 12 13  1  0  0  0  0
 12 11  1  0  0  0  0
 13 14  1  0  0  0  0
 14 21  1  0  0  0  0
 14 15  1  0  0  0  0
 15 16  1  0  0  0  0
 15 23  1  0  0  0  0
 16 24  1  0  0  0  0
 16 25  1  0  0  0  0
 17 12  1  0  0  0  0
 18 12  1  0  0  0  0
 19 13  1  0  0  0  0
 20 13  1  0  0  0  0
 22 15  1  0  0  0  0
 26 38  1  0  0  0  0
 26 31  1  0  0  0  0
 27 26  2  0  0  0  0
 28 27  1  0  0  0  0
 28 29  2  0  0  0  0
 29 30  1  0  0  0  0
 30 31  2  0  0  0  0
 30  1  1  0  0  0  0
 32 27  1  0  0  0  0
 33 34  1  0  0  0  0
 34 35  2  0  0  0  0
 34 36  1  0  0  0  0
 36 37  1  0  0  0  0
 36 28  1  0  0  0  0
 38 40  1  0  0  0  0
 39 38  1  0  0  0  0
 41 38  1  0  0  0  0
M  END
>  <minimizedAffinity>
-5.99263954

$$$$

 OpenBabel03272505423D

 41 43  0  0  0  0  0  0  0  0999 V2000
   37.4220   24.2430   33.0490 C   0  0  0  0  0  0  0  0  0  0  0  0
   37.1710   25.5660   32.6710 C   0  0  0  0  0  0  0  0  0  0  0  0
   36.2900   25.8230   31.6400 C   0  0  0  0  0  0  0  0  0  0  0  0
   35.6290   24.8450   30.9460 C   0  0  0  0  0  0  0  0  0  0  0  0
   35.8690   23.5100   31.3120 C   0  0  0  0  0  0  0  0  0  0  0  0
   36.7600   23.2840   32.3520 C   0  0  0  0  0  0  0  0  0  0  0  0
   37.6700   26.3670   33.1910 H   0  0  0  0  0  0  0  0  0  0  0  0
   36.1140   26.8570   31.3670 H   0  0  0  0  0  0  0  0  0  0  0  0
   34.9500   25.1070   30.1450 H   0  0  0  0  0  0  0  0  0  0  0  0
   35.3330   22.7950   30.7430 H   0  0  0  0  0  0  0  0  0  0  0  0
   36.8830   21.8870   32.5870 N   0  0  0  0  0  0  0  0  0  0  0  0
   37.9140   20.8850   32.5740 C   0  0  0  0  0  0  0  0  0  0  0  0
   37.4640   19.7900   31.6510 C   0  0  0  0  0  0  0  0  0  0  0  0
   36.3530   19.0950   32.2750 N   0  0  0  0  0  0  0  0  0  0  0  0
   35.6570   19.8830   33.2280 C   0  0  0  0  0  0  0  0  0  0  0  0
   35.6030   21.3500   32.9460 C   0  0  0  0  0  0  0  0  0  0  0  0
   38.8340   21.3730   32.1720 H   0  0  0  0  0  0  0  0  0  0  0  0
   38.0960   20.4490   33.5810 H   0  0  0  0  0  0  0  0  0  0  0  0
   37.5170   19.8850   30.6140 H   0  0  0  0  0  0  0  0  0  0  0  0
   38.2920   19.0220   31.8490 H   0  0  0  0  0  0  0  0  0  0  0  0
   35.7560   18.5770   31.6090 H   0  0  0  0  0  0  0  0  0  0  0  0
   36.0650   19.6460   34.2300 H   0  0  0  0  0  0  0  0  0  0  0  0
   34.5880   19.5350   33.2590 H   0  0  0  0  0  0  0  0  0  0  0  0
   35.4300   21.7980   33.9780 H   0  0  0  0  0  0  0  0  0  0  0  0
   34.7370   21.7010   32.3950 H   0  0  0  0  0  0  0  0  0  0  0  0
   38.7790   23.6780   36.3880 C   0  0  0  0  0  0  0  0  0  0  0  0
   40.1410   23.4090   36.1190 C   0  0  0  0  0  0  0  0  0  0  0  0
   40.5580   23.4270   34.7880 C   0  0  0  0  0  0  0  0  0  0  0  0
   39.6110   23.7050   33.8600 N   0  0  0  0  0  0  0  0  0  0  0  0
   38.3380   23.9550   34.1190 C   0  0  0  0  0  0  0  0  0  0  0  0
   37.9190   23.9410   35.3990 N   0  0  0  0  0  0  0  0  0  0  0  0
   40.8130   23.2000   36.9380 H   0  0  0  0  0  0  0  0  0  0  0  0
   43.9530   22.8690   34.6430 H   0  0  0  0  0  0  0  0  0  0  0  0
   43.1020   23.1210   35.2950 C   0  0  0  0  0  0  0  0  0  0  0  0
   43.0360   23.3550   36.5240 O   0  0  0  0  0  0  0  0  0  0  0  0
   41.9100   23.1640   34.4990 N   0  0  0  0  0  0  0  0  0  0  0  0
   41.8220   22.9900   33.4640 H   0  0  0  0  0  0  0  0  0  0  0  0
   38.3620   23.6560   37.8290 C   0  0  0  0  0  0  0  0  0  0  0  0
   38.0800   24.9770   38.2190 F   0  0  0  0  0  0  0  0  0  0  0  0
   37.2910   22.8650   37.9530 F   0  0  0  0  0  0  0  0  0  0  0  0
   39.4280   23.2620   38.5920 F   0  0  0  0  0  0  0  0  0  0  0  0
  1 30  1  0  0  0  0
  2  1  1  0  0  0  0
  2  7  1  0  0  0  0
  3  2  2  0  0  0  0
  4  5  2  0  0  0  0
  4  3  1  0  0  0  0
  5  6  1  0  0  0  0
  6 11  1  0  0  0  0
  6  1  2  0  0  0  0
  8  3  1  0  0  0  0
  9  4  1  0  0  0  0
 10  5  1  0  0  0  0
 11 16  1  0  0  0  0
 12 11  1  0  0  0  0
 12 18  1  0  0  0  0
 13 20  1  0  0  0  0
 13 14  1  0  0  0  0
 13 12  1  0  0  0  0
 14 15  1  0  0  0  0
 15 23  1  0  0  0  0
 15 22  1  0  0  0  0
 16 15  1  0  0  0  0
 16 24  1  0  0  0  0
 17 12  1  0  0  0  0
 19 13  1  0  0  0  0
 21 14  1  0  0  0  0
 25 16  1  0  0  0  0
 26 38  1  0  0  0  0
 27 26  1  0  0  0  0
 27 32  1  0  0  0  0
 28 27  2  0  0  0  0
 29 30  2  0  0  0  0
 29 28  1  0  0  0  0
 30 31  1  0  0  0  0
 31 26  2  0  0  0  0
 33 34  1  0  0  0  0
 34 35  2  0  0  0  0
 36 28  1  0  0  0  0
 36 34  1  0  0  0  0
 37 36  1  0  0  0  0
 38 40  1  0  0  0  0
 38 39  1  0  0  0  0
 38 41  1  0  0  0  0
M  END
>  <minimizedAffinity>
-5.98438644

$$$$

 OpenBabel03272505423D

 41 43  0  0  0  0  0  0  0  0999 V2000
   37.3630   26.4560   33.9380 C   0  0  0  0  0  0  0  0  0  0  0  0
   37.0140   27.7150   34.4410 C   0  0  0  0  0  0  0  0  0  0  0  0
   36.2220   28.5540   33.6840 C   0  0  0  0  0  0  0  0  0  0  0  0
   35.7430   28.2280   32.4430 C   0  0  0  0  0  0  0  0  0  0  0  0
   36.0830   26.9690   31.9220 C   0  0  0  0  0  0  0  0  0  0  0  0
   36.8810   26.1480   32.7060 C   0  0  0  0  0  0  0  0  0  0  0  0
   37.3700   28.0110   35.4140 H   0  0  0  0  0  0  0  0  0  0  0  0
   35.9670   29.5220   34.0970 H   0  0  0  0  0  0  0  0  0  0  0  0
   35.1250   28.9280   31.8940 H   0  0  0  0  0  0  0  0  0  0  0  0
   35.6870   26.7690   30.9600 H   0  0  0  0  0  0  0  0  0  0  0  0
   37.1260   24.9220   32.0290 N   0  0  0  0  0  0  0  0  0  0  0  0
   36.7230   23.5460   32.1270 C   0  0  0  0  0  0  0  0  0  0  0  0
   37.9720   22.7180   32.2220 C   0  0  0  0  0  0  0  0  0  0  0  0
   38.6470   22.7610   30.9370 N   0  0  0  0  0  0  0  0  0  0  0  0
   38.3210   23.9070   30.1660 C   0  0  0  0  0  0  0  0  0  0  0  0
   38.0290   25.1520   30.9390 C   0  0  0  0  0  0  0  0  0  0  0  0
   36.1250   23.4480   33.0640 H   0  0  0  0  0  0  0  0  0  0  0  0
   36.1400   23.2090   31.2410 H   0  0  0  0  0  0  0  0  0  0  0  0
   38.5170   22.6410   33.1070 H   0  0  0  0  0  0  0  0  0  0  0  0
   37.5120   21.6700   32.1480 H   0  0  0  0  0  0  0  0  0  0  0  0
   39.6540   22.5340   30.9860 H   0  0  0  0  0  0  0  0  0  0  0  0
   37.5080   23.6270   29.4670 H   0  0  0  0  0  0  0  0  0  0  0  0
   39.1990   24.1500   29.5080 H   0  0  0  0  0  0  0  0  0  0  0  0
   37.3890   25.7540   30.2150 H   0  0  0  0  0  0  0  0  0  0  0  0
   38.8670   25.8180   31.1130 H   0  0  0  0  0  0  0  0  0  0  0  0
   38.5080   24.2000   36.5660 C   0  0  0  0  0  0  0  0  0  0  0  0
   39.8220   23.8910   36.1480 C   0  0  0  0  0  0  0  0  0  0  0  0
   40.2820   24.4690   34.9640 C   0  0  0  0  0  0  0  0  0  0  0  0
   39.4190   25.2850   34.3130 N   0  0  0  0  0  0  0  0  0  0  0  0
   38.1890   25.5690   34.7100 C   0  0  0  0  0  0  0  0  0  0  0  0
   37.7300   25.0190   35.8510 N   0  0  0  0  0  0  0  0  0  0  0  0
   40.4270   23.2270   36.7460 H   0  0  0  0  0  0  0  0  0  0  0  0
   43.5590   23.5510   34.4370 H   0  0  0  0  0  0  0  0  0  0  0  0
   42.7330   23.5900   35.1650 C   0  0  0  0  0  0  0  0  0  0  0  0
   42.6610   23.2280   36.3630 O   0  0  0  0  0  0  0  0  0  0  0  0
   41.5880   24.1760   34.5310 N   0  0  0  0  0  0  0  0  0  0  0  0
   41.5100   24.5220   33.5390 H   0  0  0  0  0  0  0  0  0  0  0  0
   38.0430   23.5680   37.8460 C   0  0  0  0  0  0  0  0  0  0  0  0
   37.6600   24.5960   38.7230 F   0  0  0  0  0  0  0  0  0  0  0  0
   37.0250   22.7450   37.5720 F   0  0  0  0  0  0  0  0  0  0  0  0
   39.1070   22.9460   38.4420 F   0  0  0  0  0  0  0  0  0  0  0  0
  1  2  1  0  0  0  0
  1 30  1  0  0  0  0
  2  7  1  0  0  0  0
  3  8  1  0  0  0  0
  3  2  2  0  0  0  0
  4  3  1  0  0  0  0
  5  4  2  0  0  0  0
  5  6  1  0  0  0  0
  6  1  2  0  0  0  0
  9  4  1  0  0  0  0
 10  5  1  0  0  0  0
 11 12  1  0  0  0  0
 11  6  1  0  0  0  0
 12 13  1  0  0  0  0
 12 17  1  0  0  0  0
 13 19  1  0  0  0  0
 14 21  1  0  0  0  0
 14 13  1  0  0  0  0
 15 14  1  0  0  0  0
 15 16  1  0  0  0  0
 16 25  1  0  0  0  0
 16 11  1  0  0  0  0
 18 12  1  0  0  0  0
 20 13  1  0  0  0  0
 22 15  1  0  0  0  0
 23 15  1  0  0  0  0
 24 16  1  0  0  0  0
 26 38  1  0  0  0  0
 27 26  1  0  0  0  0
 27 32  1  0  0  0  0
 28 27  2  0  0  0  0
 29 30  2  0  0  0  0
 29 28  1  0  0  0  0
 30 31  1  0  0  0  0
 31 26  2  0  0  0  0
 33 34  1  0  0  0  0
 34 35  2  0  0  0  0
 36 28  1  0  0  0  0
 36 34  1  0  0  0  0
 37 36  1  0  0  0  0
 38 41  1  0  0  0  0
 38 39  1  0  0  0  0
 40 38  1  0  0  0  0
M  END
>  <minimizedAffinity>
-5.95986605

$$$$

 OpenBabel03272505423D

 41 43  0  0  0  0  0  0  0  0999 V2000
   34.8960   30.8660   35.3170 C   0  0  0  0  0  0  0  0  0  0  0  0
   35.6430   31.8590   35.9600 C   0  0  0  0  0  0  0  0  0  0  0  0
   35.0340   32.6650   36.9010 C   0  0  0  0  0  0  0  0  0  0  0  0
   33.7160   32.5530   37.2550 C   0  0  0  0  0  0  0  0  0  0  0  0
   32.9510   31.5620   36.6200 C   0  0  0  0  0  0  0  0  0  0  0  0
   33.5910   30.7680   35.6780 C   0  0  0  0  0  0  0  0  0  0  0  0
   36.6840   31.9800   35.7110 H   0  0  0  0  0  0  0  0  0  0  0  0
   35.6360   33.4260   37.3840 H   0  0  0  0  0  0  0  0  0  0  0  0
   33.2930   33.2150   38.0010 H   0  0  0  0  0  0  0  0  0  0  0  0
   31.9390   31.5200   36.9310 H   0  0  0  0  0  0  0  0  0  0  0  0
   32.6740   29.8250   35.1380 N   0  0  0  0  0  0  0  0  0  0  0  0
   32.1470   29.4590   33.8520 C   0  0  0  0  0  0  0  0  0  0  0  0
   30.6500   29.5290   33.9430 C   0  0  0  0  0  0  0  0  0  0  0  0
   30.1930   28.4450   34.7940 N   0  0  0  0  0  0  0  0  0  0  0  0
   31.1820   27.9850   35.7020 C   0  0  0  0  0  0  0  0  0  0  0  0
   32.1440   29.0160   36.1970 C   0  0  0  0  0  0  0  0  0  0  0  0
   32.5240   30.2140   33.1210 H   0  0  0  0  0  0  0  0  0  0  0  0
   32.4370   28.4270   33.5510 H   0  0  0  0  0  0  0  0  0  0  0  0
   30.1380   30.4360   33.9160 H   0  0  0  0  0  0  0  0  0  0  0  0
   30.3760   29.0850   32.9220 H   0  0  0  0  0  0  0  0  0  0  0  0
   29.2570   28.6000   35.2020 H   0  0  0  0  0  0  0  0  0  0  0  0
   31.6810   27.1060   35.2470 H   0  0  0  0  0  0  0  0  0  0  0  0
   30.6620   27.5830   36.6140 H   0  0  0  0  0  0  0  0  0  0  0  0
   33.0460   28.3930   36.5030 H   0  0  0  0  0  0  0  0  0  0  0  0
   31.8810   29.5120   37.1250 H   0  0  0  0  0  0  0  0  0  0  0  0
   36.1710   29.6120   32.1360 C   0  0  0  0  0  0  0  0  0  0  0  0
   36.6880   28.3460   32.4960 C   0  0  0  0  0  0  0  0  0  0  0  0
   36.5860   27.9560   33.8320 C   0  0  0  0  0  0  0  0  0  0  0  0
   35.9930   28.8350   34.6760 N   0  0  0  0  0  0  0  0  0  0  0  0
   35.5110   30.0180   34.3320 C   0  0  0  0  0  0  0  0  0  0  0  0
   35.6020   30.4090   33.0470 N   0  0  0  0  0  0  0  0  0  0  0  0
   37.1410   27.7240   31.7390 H   0  0  0  0  0  0  0  0  0  0  0  0
   37.8370   24.7690   34.1940 H   0  0  0  0  0  0  0  0  0  0  0  0
   37.4950   25.5340   33.4790 C   0  0  0  0  0  0  0  0  0  0  0  0
   37.4150   25.5280   32.2280 O   0  0  0  0  0  0  0  0  0  0  0  0
   37.0940   26.7000   34.2100 N   0  0  0  0  0  0  0  0  0  0  0  0
   37.1080   26.8400   35.2540 H   0  0  0  0  0  0  0  0  0  0  0  0
   36.2900   30.0020   30.6920 C   0  0  0  0  0  0  0  0  0  0  0  0
   37.4730   30.7440   30.5400 F   0  0  0  0  0  0  0  0  0  0  0  0
   36.3030   28.8900   29.9480 F   0  0  0  0  0  0  0  0  0  0  0  0
   35.2690   30.8590   30.3810 F   0  0  0  0  0  0  0  0  0  0  0  0
  1  6  2  0  0  0  0
  1  2  1  0  0  0  0
  2  3  2  0  0  0  0
  3  4  1  0  0  0  0
  3  8  1  0  0  0  0
  4  9  1  0  0  0  0
  5 10  1  0  0  0  0
  5  4  2  0  0  0  0
  6  5  1  0  0  0  0
  7  2  1  0  0  0  0
 11  6  1  0  0  0  0
 11 16  1  0  0  0  0
 12 13  1  0  0  0  0
 12 11  1  0  0  0  0
 13 14  1  0  0  0  0
 14 21  1  0  0  0  0
 14 15  1  0  0  0  0
 15 16  1  0  0  0  0
 15 23  1  0  0  0  0
 16 24  1  0  0  0  0
 16 25  1  0  0  0  0
 17 12  1  0  0  0  0
 18 12  1  0  0  0  0
 19 13  1  0  0  0  0
 20 13  1  0  0  0  0
 22 15  1  0  0  0  0
 26 27  2  0  0  0  0
 26 31  1  0  0  0  0
 27 28  1  0  0  0  0
 28 36  1  0  0  0  0
 28 29  2  0  0  0  0
 30 29  1  0  0  0  0
 30  1  1  0  0  0  0
 31 30  2  0  0  0  0
 32 27  1  0  0  0  0
 34 33  1  0  0  0  0
 34 36  1  0  0  0  0
 35 34  2  0  0  0  0
 36 37  1  0  0  0  0
 38 26  1  0  0  0  0
 39 38  1  0  0  0  0
 40 38  1  0  0  0  0
 41 38  1  0  0  0  0
M  END
>  <minimizedAffinity>
-5.82924366

$$$$

 OpenBabel03272505423D

 41 43  0  0  0  0  0  0  0  0999 V2000
   35.2100   30.7110   34.6930 C   0  0  0  0  0  0  0  0  0  0  0  0
   35.9890   31.2850   35.7040 C   0  0  0  0  0  0  0  0  0  0  0  0
   35.4040   32.1560   36.6000 C   0  0  0  0  0  0  0  0  0  0  0  0
   34.0800   32.5050   36.5650 C   0  0  0  0  0  0  0  0  0  0  0  0
   33.2840   31.9380   35.5570 C   0  0  0  0  0  0  0  0  0  0  0  0
   33.9000   31.0670   34.6710 C   0  0  0  0  0  0  0  0  0  0  0  0
   37.0350   31.0380   35.7680 H   0  0  0  0  0  0  0  0  0  0  0  0
   36.0300   32.5860   37.3730 H   0  0  0  0  0  0  0  0  0  0  0  0
   33.6770   33.1950   37.2960 H   0  0  0  0  0  0  0  0  0  0  0  0
   32.2680   32.2420   35.5760 H   0  0  0  0  0  0  0  0  0  0  0  0
   32.9520   30.5910   33.7230 N   0  0  0  0  0  0  0  0  0  0  0  0
   32.5610   30.8690   32.3680 C   0  0  0  0  0  0  0  0  0  0  0  0
   31.0860   31.1500   32.3760 C   0  0  0  0  0  0  0  0  0  0  0  0
   30.3870   29.9090   32.6600 N   0  0  0  0  0  0  0  0  0  0  0  0
   31.1800   28.9620   33.3590 C   0  0  0  0  0  0  0  0  0  0  0  0
   32.1880   29.5270   34.3060 C   0  0  0  0  0  0  0  0  0  0  0  0
   33.1230   31.7790   32.0480 H   0  0  0  0  0  0  0  0  0  0  0  0
   32.7570   30.0130   31.6840 H   0  0  0  0  0  0  0  0  0  0  0  0
   30.6990   32.0630   32.6950 H   0  0  0  0  0  0  0  0  0  0  0  0
   30.8980   31.2070   31.2460 H   0  0  0  0  0  0  0  0  0  0  0  0
   29.4310   30.0430   33.0290 H   0  0  0  0  0  0  0  0  0  0  0  0
   31.6210   28.2710   32.6140 H   0  0  0  0  0  0  0  0  0  0  0  0
   30.4960   28.3220   33.9810 H   0  0  0  0  0  0  0  0  0  0  0  0
   32.9560   28.6900   34.3850 H   0  0  0  0  0  0  0  0  0  0  0  0
   31.8680   29.6440   35.3360 H   0  0  0  0  0  0  0  0  0  0  0  0
   36.7760   27.7480   33.2510 C   0  0  0  0  0  0  0  0  0  0  0  0
   36.9350   28.1190   31.8960 C   0  0  0  0  0  0  0  0  0  0  0  0
   36.4930   29.3860   31.5110 C   0  0  0  0  0  0  0  0  0  0  0  0
   35.9460   30.1580   32.4810 N   0  0  0  0  0  0  0  0  0  0  0  0
   35.8010   29.8040   33.7480 C   0  0  0  0  0  0  0  0  0  0  0  0
   36.2220   28.5840   34.1350 N   0  0  0  0  0  0  0  0  0  0  0  0
   37.3860   27.4240   31.2050 H   0  0  0  0  0  0  0  0  0  0  0  0
   37.2180   29.8910   28.1830 H   0  0  0  0  0  0  0  0  0  0  0  0
   37.4080   29.2640   29.0680 C   0  0  0  0  0  0  0  0  0  0  0  0
   38.1360   28.2570   29.2340 O   0  0  0  0  0  0  0  0  0  0  0  0
   36.6420   29.7750   30.1680 N   0  0  0  0  0  0  0  0  0  0  0  0
   35.9960   30.6060   30.1680 H   0  0  0  0  0  0  0  0  0  0  0  0
   37.2650   26.3830   33.6350 C   0  0  0  0  0  0  0  0  0  0  0  0
   36.5620   25.4390   32.8680 F   0  0  0  0  0  0  0  0  0  0  0  0
   38.5820   26.3200   33.4120 F   0  0  0  0  0  0  0  0  0  0  0  0
   36.9160   26.1400   34.9370 F   0  0  0  0  0  0  0  0  0  0  0  0
  1  2  1  0  0  0  0
  2  7  1  0  0  0  0
  2  3  2  0  0  0  0
  3  8  1  0  0  0  0
  4  3  1  0  0  0  0
  4  9  1  0  0  0  0
  5 10  1  0  0  0  0
  5  4  2  0  0  0  0
  6  1  2  0  0  0  0
  6  5  1  0  0  0  0
 11 16  1  0  0  0  0
 11  6  1  0  0  0  0
 12 13  1  0  0  0  0
 12 11  1  0  0  0  0
 13 14  1  0  0  0  0
 13 19  1  0  0  0  0
 14 21  1  0  0  0  0
 14 15  1  0  0  0  0
 15 23  1  0  0  0  0
 15 16  1  0  0  0  0
 16 24  1  0  0  0  0
 16 25  1  0  0  0  0
 17 12  1  0  0  0  0
 18 12  1  0  0  0  0
 20 13  1  0  0  0  0
 22 15  1  0  0  0  0
 26 38  1  0  0  0  0
 26 31  1  0  0  0  0
 27 26  2  0  0  0  0
 28 27  1  0  0  0  0
 28 29  2  0  0  0  0
 29 30  1  0  0  0  0
 30 31  2  0  0  0  0
 30  1  1  0  0  0  0
 32 27  1  0  0  0  0
 33 34  1  0  0  0  0
 34 35  2  0  0  0  0
 34 36  1  0  0  0  0
 36 28  1  0  0  0  0
 37 36  1  0  0  0  0
 38 41  1  0  0  0  0
 39 38  1  0  0  0  0
 40 38  1  0  0  0  0
M  END
>  <minimizedAffinity>
-5.79269361

$$$$

 OpenBabel03272505423D

 41 43  0  0  0  0  0  0  0  0999 V2000
   36.5380   28.9560   31.6650 C   0  0  0  0  0  0  0  0  0  0  0  0
   36.4270   29.4880   30.3750 C   0  0  0  0  0  0  0  0  0  0  0  0
   37.3190   29.0960   29.3990 C   0  0  0  0  0  0  0  0  0  0  0  0
   38.3310   28.1980   29.6130 C   0  0  0  0  0  0  0  0  0  0  0  0
   38.4580   27.6530   30.9010 C   0  0  0  0  0  0  0  0  0  0  0  0
   37.5470   28.0670   31.8620 C   0  0  0  0  0  0  0  0  0  0  0  0
   35.6440   30.1970   30.1640 H   0  0  0  0  0  0  0  0  0  0  0  0
   37.2100   29.5230   28.4090 H   0  0  0  0  0  0  0  0  0  0  0  0
   39.0020   27.9280   28.8070 H   0  0  0  0  0  0  0  0  0  0  0  0
   39.2570   26.9650   31.0110 H   0  0  0  0  0  0  0  0  0  0  0  0
   37.8210   27.4210   33.0990 N   0  0  0  0  0  0  0  0  0  0  0  0
   37.0900   26.9240   34.2320 C   0  0  0  0  0  0  0  0  0  0  0  0
   37.6690   27.5710   35.4570 C   0  0  0  0  0  0  0  0  0  0  0  0
   38.9990   27.0300   35.6740 N   0  0  0  0  0  0  0  0  0  0  0  0
   39.5990   26.5160   34.4940 C   0  0  0  0  0  0  0  0  0  0  0  0
   39.2340   27.2100   33.2220 C   0  0  0  0  0  0  0  0  0  0  0  0
   36.0280   27.2390   34.0970 H   0  0  0  0  0  0  0  0  0  0  0  0
   37.1730   25.8200   34.3400 H   0  0  0  0  0  0  0  0  0  0  0  0
   37.4460   28.5540   35.7210 H   0  0  0  0  0  0  0  0  0  0  0  0
   37.1030   26.9870   36.2660 H   0  0  0  0  0  0  0  0  0  0  0  0
   39.6070   27.6320   36.2520 H   0  0  0  0  0  0  0  0  0  0  0  0
   39.4130   25.4250   34.4650 H   0  0  0  0  0  0  0  0  0  0  0  0
   40.7140   26.6190   34.5940 H   0  0  0  0  0  0  0  0  0  0  0  0
   39.4320   26.4120   32.4350 H   0  0  0  0  0  0  0  0  0  0  0  0
   39.8920   28.0130   32.9070 H   0  0  0  0  0  0  0  0  0  0  0  0
   33.4770   29.3660   33.6060 C   0  0  0  0  0  0  0  0  0  0  0  0
   33.9120   30.1570   34.6940 C   0  0  0  0  0  0  0  0  0  0  0  0
   35.2570   30.5280   34.7320 C   0  0  0  0  0  0  0  0  0  0  0  0
   36.0350   30.0940   33.7120 N   0  0  0  0  0  0  0  0  0  0  0  0
   35.6200   29.3530   32.6970 C   0  0  0  0  0  0  0  0  0  0  0  0
   34.3250   28.9860   32.6450 N   0  0  0  0  0  0  0  0  0  0  0  0
   33.2050   30.4480   35.4550 H   0  0  0  0  0  0  0  0  0  0  0  0
   35.8090   32.5530   37.4620 H   0  0  0  0  0  0  0  0  0  0  0  0
   35.0480   32.0950   36.8110 C   0  0  0  0  0  0  0  0  0  0  0  0
   33.7960   32.1550   36.8240 O   0  0  0  0  0  0  0  0  0  0  0  0
   35.7110   31.3160   35.8060 N   0  0  0  0  0  0  0  0  0  0  0  0
   36.7470   31.1800   35.6790 H   0  0  0  0  0  0  0  0  0  0  0  0
   32.0250   28.9870   33.5890 C   0  0  0  0  0  0  0  0  0  0  0  0
   31.2780   30.1430   33.3060 F   0  0  0  0  0  0  0  0  0  0  0  0
   31.8400   28.0390   32.6650 F   0  0  0  0  0  0  0  0  0  0  0  0
   31.6540   28.6050   34.8510 F   0  0  0  0  0  0  0  0  0  0  0  0
  1  6  1  0  0  0  0
  1 30  1  0  0  0  0
  2  1  2  0  0  0  0
  3  4  2  0  0  0  0
  3  2  1  0  0  0  0
  4  5  1  0  0  0  0
  5 10  1  0  0  0  0
  5  6  2  0  0  0  0
  6 11  1  0  0  0  0
  7  2  1  0  0  0  0
  8  3  1  0  0  0  0
  9  4  1  0  0  0  0
 11 16  1  0  0  0  0
 11 12  1  0  0  0  0
 12 18  1  0  0  0  0
 12 13  1  0  0  0  0
 13 14  1  0  0  0  0
 13 19  1  0  0  0  0
 13 20  1  0  0  0  0
 14 21  1  0  0  0  0
 15 23  1  0  0  0  0
 15 14  1  0  0  0  0
 16 15  1  0  0  0  0
 17 12  1  0  0  0  0
 22 15  1  0  0  0  0
 24 16  1  0  0  0  0
 25 16  1  0  0  0  0
 26 27  1  0  0  0  0
 27 28  2  0  0  0  0
 27 32  1  0  0  0  0
 28 36  1  0  0  0  0
 29 28  1  0  0  0  0
 30 29  2  0  0  0  0
 31 30  1  0  0  0  0
 31 26  2  0  0  0  0
 34 35  2  0  0  0  0
 34 33  1  0  0  0  0
 36 34  1  0  0  0  0
 37 36  1  0  0  0  0
 38 26  1  0  0  0  0
 38 41  1  0  0  0  0
 39 38  1  0  0  0  0
 40 38  1  0  0  0  0
M  END
>  <minimizedAffinity>
-5.78098011

$$$$
