
 OpenBabel03272502503D

 23 24  0  0  0  0  0  0  0  0999 V2000
   35.9700   30.3150   48.6080 C   0  0  0  0  0  0  0  0  0  0  0  0
   36.0450   29.2770   49.5000 C   0  0  0  0  0  0  0  0  0  0  0  0
   35.0620   28.3140   49.5790 C   0  0  0  0  0  0  0  0  0  0  0  0
   34.0040   28.4540   48.7130 C   0  0  0  0  0  0  0  0  0  0  0  0
   33.8990   29.4920   47.8000 C   0  0  0  0  0  0  0  0  0  0  0  0
   34.9110   30.4130   47.7760 N   0  0  0  0  0  0  0  0  0  0  0  0
   36.9220   29.2290   50.1640 H   0  0  0  0  0  0  0  0  0  0  0  0
   35.1090   27.4890   50.2780 H   0  0  0  0  0  0  0  0  0  0  0  0
   33.1860   27.7490   48.7000 H   0  0  0  0  0  0  0  0  0  0  0  0
   32.6530   30.2940   44.6320 H   0  0  0  0  0  0  0  0  0  0  0  0
   33.1930   30.0660   45.5410 C   0  0  0  0  0  0  0  0  0  0  0  0
   34.3970   30.1820   45.1390 O   0  0  0  0  0  0  0  0  0  0  0  0
   32.8660   29.7180   46.8820 N   0  0  0  0  0  0  0  0  0  0  0  0
   31.8090   29.6880   46.9550 H   0  0  0  0  0  0  0  0  0  0  0  0
   38.1370   33.1140   49.5290 C   0  0  0  0  0  0  0  0  0  0  0  0
   39.0120   33.2240   48.4450 C   0  0  0  0  0  0  0  0  0  0  0  0
   38.8420   32.3220   47.4000 C   0  0  0  0  0  0  0  0  0  0  0  0
   37.8420   31.3930   47.4920 N   0  0  0  0  0  0  0  0  0  0  0  0
   37.0250   31.3200   48.5470 C   0  0  0  0  0  0  0  0  0  0  0  0
   37.1790   32.1800   49.5530 N   0  0  0  0  0  0  0  0  0  0  0  0
   38.2660   33.8240   50.3570 H   0  0  0  0  0  0  0  0  0  0  0  0
   39.7930   33.9530   48.3770 H   0  0  0  0  0  0  0  0  0  0  0  0
   39.4830   32.3420   46.5210 H   0  0  0  0  0  0  0  0  0  0  0  0
  1  2  1  0  0  0  0
  2  3  2  0  0  0  0
  2  7  1  0  0  0  0
  3  8  1  0  0  0  0
  4  3  1  0  0  0  0
  5  4  2  0  0  0  0
  6  5  1  0  0  0  0
  6  1  2  0  0  0  0
  9  4  1  0  0  0  0
 10 11  1  0  0  0  0
 11 13  1  0  0  0  0
 12 11  2  0  0  0  0
 13 14  1  0  0  0  0
 13  5  1  0  0  0  0
 15 20  1  0  0  0  0
 15 21  1  0  0  0  0
 16 15  2  0  0  0  0
 17 18  2  0  0  0  0
 17 16  1  0  0  0  0
 18 19  1  0  0  0  0
 19  1  1  0  0  0  0
 19 20  2  0  0  0  0
 22 16  1  0  0  0  0
 23 17  1  0  0  0  0
M  END
>  <minimizedAffinity>
-5.30042076

>  <minimizedRMSD>
0.259285241

$$$$
