
 OpenBabel03272510003D

 17 17  0  0  0  0  0  0  0  0999 V2000
   38.4020   31.3400   50.1710 C   0  0  0  0  0  0  0  0  0  0  0  0
   38.4190   31.7790   48.8450 C   0  0  0  0  0  0  0  0  0  0  0  0
   37.3640   31.4040   48.0250 C   0  0  0  0  0  0  0  0  0  0  0  0
   36.3710   30.6320   48.5500 N   0  0  0  0  0  0  0  0  0  0  0  0
   36.3940   30.2320   49.8330 C   0  0  0  0  0  0  0  0  0  0  0  0
   37.4030   30.5810   50.6440 N   0  0  0  0  0  0  0  0  0  0  0  0
   39.2460   31.6590   50.7710 H   0  0  0  0  0  0  0  0  0  0  0  0
   39.1900   32.3930   48.3950 H   0  0  0  0  0  0  0  0  0  0  0  0
   38.0270   31.5090   44.6970 H   0  0  0  0  0  0  0  0  0  0  0  0
   38.1190   31.1610   45.7160 C   0  0  0  0  0  0  0  0  0  0  0  0
   38.8950   30.2330   46.1190 O   0  0  0  0  0  0  0  0  0  0  0  0
   37.3000   31.8060   46.6620 N   0  0  0  0  0  0  0  0  0  0  0  0
   36.6410   32.5740   46.4100 H   0  0  0  0  0  0  0  0  0  0  0  0
   35.2680   29.3930   50.3110 C   0  0  0  0  0  0  0  0  0  0  0  0
   35.3500   29.1100   51.6640 F   0  0  0  0  0  0  0  0  0  0  0  0
   34.0450   30.0650   50.1350 F   0  0  0  0  0  0  0  0  0  0  0  0
   35.1310   28.2100   49.6470 F   0  0  0  0  0  0  0  0  0  0  0  0
  1  6  1  0  0  0  0
  1  7  1  0  0  0  0
  2  1  2  0  0  0  0
  3  4  2  0  0  0  0
  3  2  1  0  0  0  0
  4  5  1  0  0  0  0
  5 14  1  0  0  0  0
  5  6  2  0  0  0  0
  8  2  1  0  0  0  0
  9 10  1  0  0  0  0
 10 11  2  0  0  0  0
 10 12  1  0  0  0  0
 12  3  1  0  0  0  0
 13 12  1  0  0  0  0
 14 15  1  0  0  0  0
 16 14  1  0  0  0  0
 17 14  1  0  0  0  0
M  END
>  <minimizedAffinity>
-4.58778811

>  <minimizedRMSD>
0.207667828

$$$$
