
 OpenBabel03272510093D

 23 24  0  0  0  0  0  0  0  0999 V2000
   37.2410   31.2210   48.5130 C   0  0  0  0  0  0  0  0  0  0  0  0
   38.2250   32.1100   48.8720 C   0  0  0  0  0  0  0  0  0  0  0  0
   39.0400   32.8000   47.9960 C   0  0  0  0  0  0  0  0  0  0  0  0
   38.8640   32.5880   46.6400 C   0  0  0  0  0  0  0  0  0  0  0  0
   37.8700   31.6890   46.2830 C   0  0  0  0  0  0  0  0  0  0  0  0
   37.1180   31.0570   47.1870 N   0  0  0  0  0  0  0  0  0  0  0  0
   38.4040   32.3120   49.9270 H   0  0  0  0  0  0  0  0  0  0  0  0
   39.7930   33.4820   48.3430 H   0  0  0  0  0  0  0  0  0  0  0  0
   37.7450   31.5350   45.2140 H   0  0  0  0  0  0  0  0  0  0  0  0
   36.8850   30.0080   50.6870 C   0  0  0  0  0  0  0  0  0  0  0  0
   36.4030   30.5140   49.4650 C   0  0  0  0  0  0  0  0  0  0  0  0
   35.0690   30.3330   49.1500 C   0  0  0  0  0  0  0  0  0  0  0  0
   34.2970   29.6620   50.0670 N   0  0  0  0  0  0  0  0  0  0  0  0
   34.7810   29.1910   51.2220 C   0  0  0  0  0  0  0  0  0  0  0  0
   36.0670   29.3580   51.5390 N   0  0  0  0  0  0  0  0  0  0  0  0
   37.9390   30.2120   50.8170 H   0  0  0  0  0  0  0  0  0  0  0  0
   34.5820   30.6760   48.2450 H   0  0  0  0  0  0  0  0  0  0  0  0
   34.1570   28.6660   51.9300 H   0  0  0  0  0  0  0  0  0  0  0  0
   41.1670   33.6110   44.2360 H   0  0  0  0  0  0  0  0  0  0  0  0
   40.6570   32.8330   44.7980 C   0  0  0  0  0  0  0  0  0  0  0  0
   40.9070   31.6150   44.6100 O   0  0  0  0  0  0  0  0  0  0  0  0
   39.7060   33.3010   45.7430 N   0  0  0  0  0  0  0  0  0  0  0  0
   39.4830   34.3060   45.9160 H   0  0  0  0  0  0  0  0  0  0  0  0
  1  2  1  0  0  0  0
  1 11  1  0  0  0  0
  2  7  1  0  0  0  0
  3  8  1  0  0  0  0
  3  2  2  0  0  0  0
  4  3  1  0  0  0  0
  5  4  2  0  0  0  0
  5  6  1  0  0  0  0
  6  1  2  0  0  0  0
  9  5  1  0  0  0  0
 10 16  1  0  0  0  0
 10 15  1  0  0  0  0
 11 10  2  0  0  0  0
 12 11  1  0  0  0  0
 12 13  2  0  0  0  0
 13 14  1  0  0  0  0
 14 15  2  0  0  0  0
 14 18  1  0  0  0  0
 17 12  1  0  0  0  0
 19 20  1  0  0  0  0
 20 22  1  0  0  0  0
 21 20  2  0  0  0  0
 22 23  1  0  0  0  0
 22  4  1  0  0  0  0
M  END
>  <minimizedAffinity>
-5.01260805

>  <minimizedRMSD>
2.28519297

$$$$
