
 OpenBabel03272507443D

 29 30  0  0  0  0  0  0  0  0999 V2000
   35.3790   29.3600   48.6600 N   0  0  0  0  0  0  0  0  0  0  0  0
   36.1760   28.6610   49.6200 C   0  0  0  0  0  0  0  0  0  0  0  0
   36.7650   29.4160   50.7260 C   0  0  0  0  0  0  0  0  0  0  0  0
   37.0520   30.8670   50.5010 C   0  0  0  0  0  0  0  0  0  0  0  0
   36.2100   31.4960   49.4380 C   0  0  0  0  0  0  0  0  0  0  0  0
   36.1020   30.5250   48.2520 C   0  0  0  0  0  0  0  0  0  0  0  0
   35.5410   27.8180   50.0170 H   0  0  0  0  0  0  0  0  0  0  0  0
   36.9740   28.1300   49.0350 H   0  0  0  0  0  0  0  0  0  0  0  0
   36.1470   29.2650   51.6370 H   0  0  0  0  0  0  0  0  0  0  0  0
   37.7450   28.9260   50.9990 H   0  0  0  0  0  0  0  0  0  0  0  0
   36.8470   31.4020   51.4520 H   0  0  0  0  0  0  0  0  0  0  0  0
   36.6670   32.4520   49.1150 H   0  0  0  0  0  0  0  0  0  0  0  0
   35.2000   31.7080   49.8140 H   0  0  0  0  0  0  0  0  0  0  0  0
   35.5570   31.0650   47.4270 H   0  0  0  0  0  0  0  0  0  0  0  0
   37.1160   30.2940   47.8710 H   0  0  0  0  0  0  0  0  0  0  0  0
   34.0920   28.9600   48.1980 C   0  0  0  0  0  0  0  0  0  0  0  0
   33.5410   29.3370   46.9710 C   0  0  0  0  0  0  0  0  0  0  0  0
   32.2720   28.8610   46.6660 C   0  0  0  0  0  0  0  0  0  0  0  0
   31.6240   28.0560   47.5640 N   0  0  0  0  0  0  0  0  0  0  0  0
   32.1920   27.7210   48.7280 C   0  0  0  0  0  0  0  0  0  0  0  0
   33.4110   28.1720   49.0310 N   0  0  0  0  0  0  0  0  0  0  0  0
   34.1370   29.9620   46.3620 H   0  0  0  0  0  0  0  0  0  0  0  0
   31.8390   29.1500   45.7190 H   0  0  0  0  0  0  0  0  0  0  0  0
   31.6430   27.0840   49.4040 H   0  0  0  0  0  0  0  0  0  0  0  0
   40.1120   32.3990   49.6410 H   0  0  0  0  0  0  0  0  0  0  0  0
   39.0450   32.2980   49.7960 C   0  0  0  0  0  0  0  0  0  0  0  0
   38.2270   33.2520   49.5700 O   0  0  0  0  0  0  0  0  0  0  0  0
   38.4870   31.0770   50.2680 N   0  0  0  0  0  0  0  0  0  0  0  0
   39.1510   30.2910   50.4560 H   0  0  0  0  0  0  0  0  0  0  0  0
  1  2  1  0  0  0  0
  2  7  1  0  0  0  0
  2  3  1  0  0  0  0
  3 10  1  0  0  0  0
  3  9  1  0  0  0  0
  4  3  1  0  0  0  0
  4 11  1  0  0  0  0
  5 13  1  0  0  0  0
  5  4  1  0  0  0  0
  6  1  1  0  0  0  0
  6  5  1  0  0  0  0
  8  2  1  0  0  0  0
 12  5  1  0  0  0  0
 14  6  1  0  0  0  0
 15  6  1  0  0  0  0
 16  1  1  0  0  0  0
 16 21  1  0  0  0  0
 17 16  2  0  0  0  0
 18 17  1  0  0  0  0
 18 19  2  0  0  0  0
 19 20  1  0  0  0  0
 20 21  2  0  0  0  0
 20 24  1  0  0  0  0
 22 17  1  0  0  0  0
 23 18  1  0  0  0  0
 25 26  1  0  0  0  0
 26 28  1  0  0  0  0
 27 26  2  0  0  0  0
 28 29  1  0  0  0  0
 28  4  1  0  0  0  0
M  END
>  <minimizedAffinity>
-4.45606995

>  <minimizedRMSD>
1.54292786

$$$$
