
 OpenBabel03272510003D

 17 17  0  0  0  0  0  0  0  0999 V2000
   37.7020   33.1240   49.5510 C   0  0  0  0  0  0  0  0  0  0  0  0
   38.5650   32.8310   48.4910 C   0  0  0  0  0  0  0  0  0  0  0  0
   38.5660   31.5350   47.9970 C   0  0  0  0  0  0  0  0  0  0  0  0
   37.7330   30.6180   48.5660 N   0  0  0  0  0  0  0  0  0  0  0  0
   36.9190   30.9430   49.5850 C   0  0  0  0  0  0  0  0  0  0  0  0
   36.9000   32.1890   50.0790 N   0  0  0  0  0  0  0  0  0  0  0  0
   37.7380   34.1490   49.9010 H   0  0  0  0  0  0  0  0  0  0  0  0
   39.2390   33.5330   48.0160 H   0  0  0  0  0  0  0  0  0  0  0  0
   39.6860   31.0920   44.8240 H   0  0  0  0  0  0  0  0  0  0  0  0
   39.0040   31.4080   45.5990 C   0  0  0  0  0  0  0  0  0  0  0  0
   37.8830   31.9840   45.4120 O   0  0  0  0  0  0  0  0  0  0  0  0
   39.4110   31.1480   46.9210 N   0  0  0  0  0  0  0  0  0  0  0  0
   40.3150   30.6800   47.1530 H   0  0  0  0  0  0  0  0  0  0  0  0
   36.0490   29.8750   50.1360 C   0  0  0  0  0  0  0  0  0  0  0  0
   36.2540   29.6660   51.4900 F   0  0  0  0  0  0  0  0  0  0  0  0
   34.6950   30.2270   50.0050 F   0  0  0  0  0  0  0  0  0  0  0  0
   36.1760   28.6720   49.5080 F   0  0  0  0  0  0  0  0  0  0  0  0
  1  7  1  0  0  0  0
  1  6  1  0  0  0  0
  2  1  2  0  0  0  0
  3  2  1  0  0  0  0
  3  4  2  0  0  0  0
  4  5  1  0  0  0  0
  5  6  2  0  0  0  0
  5 14  1  0  0  0  0
  8  2  1  0  0  0  0
  9 10  1  0  0  0  0
 10 12  1  0  0  0  0
 11 10  2  0  0  0  0
 12 13  1  0  0  0  0
 12  3  1  0  0  0  0
 14 15  1  0  0  0  0
 16 14  1  0  0  0  0
 17 14  1  0  0  0  0
M  END
>  <minimizedAffinity>
-4.8922143

>  <minimizedRMSD>
1.89607728

$$$$
