
 OpenBabel03272510093D

 23 24  0  0  0  0  0  0  0  0999 V2000
   36.4760   30.6040   47.8390 C   0  0  0  0  0  0  0  0  0  0  0  0
   37.1540   31.2820   48.8250 C   0  0  0  0  0  0  0  0  0  0  0  0
   38.1920   32.1700   48.6170 C   0  0  0  0  0  0  0  0  0  0  0  0
   38.5930   32.4080   47.3150 C   0  0  0  0  0  0  0  0  0  0  0  0
   37.9070   31.7220   46.3250 C   0  0  0  0  0  0  0  0  0  0  0  0
   36.9110   30.8760   46.5990 N   0  0  0  0  0  0  0  0  0  0  0  0
   36.8770   31.1290   49.8670 H   0  0  0  0  0  0  0  0  0  0  0  0
   38.6800   32.6680   49.4340 H   0  0  0  0  0  0  0  0  0  0  0  0
   38.2360   31.9210   45.3080 H   0  0  0  0  0  0  0  0  0  0  0  0
   35.3990   28.7590   49.1650 C   0  0  0  0  0  0  0  0  0  0  0  0
   35.3900   29.6760   48.0980 C   0  0  0  0  0  0  0  0  0  0  0  0
   34.2980   29.7010   47.2510 C   0  0  0  0  0  0  0  0  0  0  0  0
   33.2820   28.8150   47.5150 N   0  0  0  0  0  0  0  0  0  0  0  0
   33.3160   27.9520   48.5370 C   0  0  0  0  0  0  0  0  0  0  0  0
   34.3650   27.9160   49.3630 N   0  0  0  0  0  0  0  0  0  0  0  0
   36.3030   28.8360   49.7520 H   0  0  0  0  0  0  0  0  0  0  0  0
   34.1740   30.3600   46.3990 H   0  0  0  0  0  0  0  0  0  0  0  0
   32.5070   27.2620   48.7290 H   0  0  0  0  0  0  0  0  0  0  0  0
   41.0020   34.9150   47.5240 H   0  0  0  0  0  0  0  0  0  0  0  0
   40.1630   34.3600   47.9370 C   0  0  0  0  0  0  0  0  0  0  0  0
   39.6910   34.6350   49.0710 O   0  0  0  0  0  0  0  0  0  0  0  0
   39.6620   33.3240   47.1080 N   0  0  0  0  0  0  0  0  0  0  0  0
   40.0390   33.0790   46.1650 H   0  0  0  0  0  0  0  0  0  0  0  0
  1 11  1  0  0  0  0
  1  2  1  0  0  0  0
  2  7  1  0  0  0  0
  3  2  2  0  0  0  0
  3  8  1  0  0  0  0
  4  3  1  0  0  0  0
  5  6  1  0  0  0  0
  5  4  2  0  0  0  0
  6  1  2  0  0  0  0
  9  5  1  0  0  0  0
 10 15  1  0  0  0  0
 10 16  1  0  0  0  0
 11 10  2  0  0  0  0
 12 13  2  0  0  0  0
 12 11  1  0  0  0  0
 13 14  1  0  0  0  0
 14 18  1  0  0  0  0
 14 15  2  0  0  0  0
 17 12  1  0  0  0  0
 19 20  1  0  0  0  0
 20 21  2  0  0  0  0
 22  4  1  0  0  0  0
 22 20  1  0  0  0  0
 23 22  1  0  0  0  0
M  END
>  <minimizedAffinity>
-4.60177851

>  <minimizedRMSD>
2.64078712

$$$$
