
 OpenBabel03272509343D

 37 40  0  0  1  0  0  0  0  0999 V2000
   39.4100   25.3650   34.7680 C   0  0  1  0  0  0  0  0  0  0  0  0
   39.6430   24.6280   33.5150 C   0  0  0  0  0  0  0  0  0  0  0  0
   38.2880   25.2100   33.7030 C   0  0  2  0  0  0  0  0  0  0  0  0
   39.7560   26.3960   34.8770 H   0  0  0  0  0  0  0  0  0  0  0  0
   40.4890   24.9940   32.9690 H   0  0  0  0  0  0  0  0  0  0  0  0
   39.6530   23.4970   33.6380 H   0  0  0  0  0  0  0  0  0  0  0  0
   37.3920   24.8920   34.1940 H   0  0  0  0  0  0  0  0  0  0  0  0
   38.0600   26.3170   32.7380 C   0  0  0  0  0  0  0  0  0  0  0  0
   38.6910   26.0460   31.5170 C   0  0  0  0  0  0  0  0  0  0  0  0
   38.5510   26.9000   30.4430 C   0  0  0  0  0  0  0  0  0  0  0  0
   37.7780   28.0490   30.5490 C   0  0  0  0  0  0  0  0  0  0  0  0
   37.1630   28.3010   31.7510 C   0  0  0  0  0  0  0  0  0  0  0  0
   36.3820   29.4030   31.9990 C   0  0  0  0  0  0  0  0  0  0  0  0
   35.7760   29.6580   33.2140 C   0  0  0  0  0  0  0  0  0  0  0  0
   35.9500   28.7700   34.2550 C   0  0  0  0  0  0  0  0  0  0  0  0
   36.7290   27.6580   34.0260 C   0  0  0  0  0  0  0  0  0  0  0  0
   37.3160   27.4420   32.7970 C   0  0  0  0  0  0  0  0  0  0  0  0
   39.3130   25.2780   31.1110 H   0  0  0  0  0  0  0  0  0  0  0  0
   38.9640   26.8420   29.4470 H   0  0  0  0  0  0  0  0  0  0  0  0
   37.5650   28.8210   29.8040 H   0  0  0  0  0  0  0  0  0  0  0  0
   36.2190   30.1310   31.2010 H   0  0  0  0  0  0  0  0  0  0  0  0
   35.1680   30.5490   33.3520 H   0  0  0  0  0  0  0  0  0  0  0  0
   35.5060   28.9050   35.2310 H   0  0  0  0  0  0  0  0  0  0  0  0
   36.8560   26.9620   34.8730 H   0  0  0  0  0  0  0  0  0  0  0  0
   37.9120   24.2350   38.0350 C   0  0  0  0  0  0  0  0  0  0  0  0
   38.1190   24.9850   36.8400 C   0  0  0  0  0  0  0  0  0  0  0  0
   39.1490   24.6060   36.0080 C   0  0  0  0  0  0  0  0  0  0  0  0
   39.8860   23.5380   36.3980 N   0  0  0  0  0  0  0  0  0  0  0  0
   39.6910   22.8310   37.5240 C   0  0  0  0  0  0  0  0  0  0  0  0
   38.6800   23.1910   38.3590 N   0  0  0  0  0  0  0  0  0  0  0  0
   37.0860   24.5700   38.6660 H   0  0  0  0  0  0  0  0  0  0  0  0
   37.4790   25.8260   36.6080 H   0  0  0  0  0  0  0  0  0  0  0  0
   42.2930   20.8080   36.7400 H   0  0  0  0  0  0  0  0  0  0  0  0
   41.5160   21.5670   36.7820 C   0  0  0  0  0  0  0  0  0  0  0  0
   41.6720   22.2590   35.7250 O   0  0  0  0  0  0  0  0  0  0  0  0
   40.5460   21.7290   37.8100 N   0  0  0  0  0  0  0  0  0  0  0  0
   40.5800   21.0550   38.6060 H   0  0  0  0  0  0  0  0  0  0  0  0
  1  4  1  1  0  0  0
  1 27  1  0  0  0  0
  2  6  1  0  0  0  0
  2  3  1  0  0  0  0
  2  1  1  0  0  0  0
  3  7  1  1  0  0  0
  3  1  1  0  0  0  0
  5  2  1  0  0  0  0
  8 17  1  0  0  0  0
  8  3  1  0  0  0  0
  9  8  2  0  0  0  0
 10 11  2  0  0  0  0
 10  9  1  0  0  0  0
 11 12  1  0  0  0  0
 12 13  2  0  0  0  0
 12 17  1  0  0  0  0
 13 14  1  0  0  0  0
 14 22  1  0  0  0  0
 14 15  2  0  0  0  0
 15 23  1  0  0  0  0
 16 15  1  0  0  0  0
 16 24  1  0  0  0  0
 17 16  2  0  0  0  0
 18  9  1  0  0  0  0
 19 10  1  0  0  0  0
 20 11  1  0  0  0  0
 21 13  1  0  0  0  0
 25 30  1  0  0  0  0
 25 31  1  0  0  0  0
 26 25  2  0  0  0  0
 27 28  2  0  0  0  0
 27 26  1  0  0  0  0
 28 29  1  0  0  0  0
 29 36  1  0  0  0  0
 29 30  2  0  0  0  0
 32 26  1  0  0  0  0
 33 34  1  0  0  0  0
 34 36  1  0  0  0  0
 35 34  2  0  0  0  0
 36 37  1  0  0  0  0
M  END
>  <minimizedAffinity>
-6.40510941

$$$$

 OpenBabel03272509343D

 37 40  0  0  1  0  0  0  0  0999 V2000
   38.3700   26.2900   34.3940 C   0  0  1  0  0  0  0  0  0  0  0  0
   38.1320   26.9850   35.6700 C   0  0  0  0  0  0  0  0  0  0  0  0
   37.5870   25.6070   35.5510 C   0  0  2  0  0  0  0  0  0  0  0  0
   39.3330   25.8170   34.1930 H   0  0  0  0  0  0  0  0  0  0  0  0
   39.0340   27.3400   36.1250 H   0  0  0  0  0  0  0  0  0  0  0  0
   37.3200   27.7810   35.6200 H   0  0  0  0  0  0  0  0  0  0  0  0
   36.6890   25.1830   35.1530 H   0  0  0  0  0  0  0  0  0  0  0  0
   38.3130   24.6800   36.4570 C   0  0  0  0  0  0  0  0  0  0  0  0
   37.8270   24.7870   37.7670 C   0  0  0  0  0  0  0  0  0  0  0  0
   38.3000   23.9650   38.7670 C   0  0  0  0  0  0  0  0  0  0  0  0
   39.2720   23.0090   38.4980 C   0  0  0  0  0  0  0  0  0  0  0  0
   39.7390   22.9140   37.2090 C   0  0  0  0  0  0  0  0  0  0  0  0
   40.7060   22.0260   36.8060 C   0  0  0  0  0  0  0  0  0  0  0  0
   41.1800   21.9440   35.5100 C   0  0  0  0  0  0  0  0  0  0  0  0
   40.6710   22.7910   34.5490 C   0  0  0  0  0  0  0  0  0  0  0  0
   39.7010   23.6890   34.9340 C   0  0  0  0  0  0  0  0  0  0  0  0
   39.2550   23.7390   36.2380 C   0  0  0  0  0  0  0  0  0  0  0  0
   37.1000   25.3740   38.2860 H   0  0  0  0  0  0  0  0  0  0  0  0
   38.0380   23.9160   39.8140 H   0  0  0  0  0  0  0  0  0  0  0  0
   39.7490   22.2870   39.1660 H   0  0  0  0  0  0  0  0  0  0  0  0
   41.1350   21.3380   37.5360 H   0  0  0  0  0  0  0  0  0  0  0  0
   41.9490   21.2190   35.2500 H   0  0  0  0  0  0  0  0  0  0  0  0
   40.9950   22.7820   33.5180 H   0  0  0  0  0  0  0  0  0  0  0  0
   39.3090   24.3590   34.1490 H   0  0  0  0  0  0  0  0  0  0  0  0
   36.4830   28.2120   31.7590 C   0  0  0  0  0  0  0  0  0  0  0  0
   37.3220   27.9370   32.8800 C   0  0  0  0  0  0  0  0  0  0  0  0
   37.5220   26.6200   33.2310 C   0  0  0  0  0  0  0  0  0  0  0  0
   36.9000   25.6850   32.4720 N   0  0  0  0  0  0  0  0  0  0  0  0
   36.1100   25.9450   31.4160 C   0  0  0  0  0  0  0  0  0  0  0  0
   35.8990   27.2390   31.0550 N   0  0  0  0  0  0  0  0  0  0  0  0
   36.3500   29.2690   31.5170 H   0  0  0  0  0  0  0  0  0  0  0  0
   37.7790   28.7490   33.4290 H   0  0  0  0  0  0  0  0  0  0  0  0
   35.5930   22.6280   30.9510 H   0  0  0  0  0  0  0  0  0  0  0  0
   35.8970   23.6170   31.2870 C   0  0  0  0  0  0  0  0  0  0  0  0
   36.6510   23.4090   32.2920 O   0  0  0  0  0  0  0  0  0  0  0  0
   35.5180   24.8600   30.7090 N   0  0  0  0  0  0  0  0  0  0  0  0
   34.8850   24.8260   29.8790 H   0  0  0  0  0  0  0  0  0  0  0  0
  1  4  1  6  0  0  0
  1  3  1  0  0  0  0
  1  2  1  0  0  0  0
  2  5  1  0  0  0  0
  3  7  1  6  0  0  0
  3  2  1  0  0  0  0
  3  8  1  0  0  0  0
  6  2  1  0  0  0  0
  8  9  1  0  0  0  0
  9 18  1  0  0  0  0
  9 10  2  0  0  0  0
 10 19  1  0  0  0  0
 11 10  1  0  0  0  0
 11 20  1  0  0  0  0
 12 11  2  0  0  0  0
 13 12  1  0  0  0  0
 13 21  1  0  0  0  0
 14 13  2  0  0  0  0
 15 16  2  0  0  0  0
 15 14  1  0  0  0  0
 16 17  1  0  0  0  0
 17  8  2  0  0  0  0
 17 12  1  0  0  0  0
 22 14  1  0  0  0  0
 23 15  1  0  0  0  0
 24 16  1  0  0  0  0
 25 26  1  0  0  0  0
 26 27  2  0  0  0  0
 26 32  1  0  0  0  0
 27  1  1  0  0  0  0
 28 27  1  0  0  0  0
 29 28  2  0  0  0  0
 30 29  1  0  0  0  0
 30 25  2  0  0  0  0
 31 25  1  0  0  0  0
 33 34  1  0  0  0  0
 34 35  2  0  0  0  0
 36 34  1  0  0  0  0
 36 29  1  0  0  0  0
 37 36  1  0  0  0  0
M  END
>  <minimizedAffinity>
-6.39391899

$$$$

 OpenBabel03272509343D

 37 40  0  0  1  0  0  0  0  0999 V2000
   39.2690   26.7320   34.6440 C   0  0  1  0  0  0  0  0  0  0  0  0
   38.0060   26.8520   35.3910 C   0  0  0  0  0  0  0  0  0  0  0  0
   38.4000   25.4840   34.9670 C   0  0  2  0  0  0  0  0  0  0  0  0
   40.2260   26.7340   35.1700 H   0  0  0  0  0  0  0  0  0  0  0  0
   38.1250   27.3520   36.3310 H   0  0  0  0  0  0  0  0  0  0  0  0
   37.1420   27.2670   34.7780 H   0  0  0  0  0  0  0  0  0  0  0  0
   38.2830   24.9070   34.0730 H   0  0  0  0  0  0  0  0  0  0  0  0
   38.7520   24.6540   36.1490 C   0  0  0  0  0  0  0  0  0  0  0  0
   37.8890   24.9280   37.2190 C   0  0  0  0  0  0  0  0  0  0  0  0
   37.9770   24.2190   38.3980 C   0  0  0  0  0  0  0  0  0  0  0  0
   38.9250   23.2150   38.5520 C   0  0  0  0  0  0  0  0  0  0  0  0
   39.7630   22.9560   37.4950 C   0  0  0  0  0  0  0  0  0  0  0  0
   40.7520   22.0030   37.5140 C   0  0  0  0  0  0  0  0  0  0  0  0
   41.6000   21.7560   36.4510 C   0  0  0  0  0  0  0  0  0  0  0  0
   41.4670   22.4950   35.2940 C   0  0  0  0  0  0  0  0  0  0  0  0
   40.4820   23.4550   35.2560 C   0  0  0  0  0  0  0  0  0  0  0  0
   39.6560   23.6700   36.3390 C   0  0  0  0  0  0  0  0  0  0  0  0
   37.0740   25.5900   37.4170 H   0  0  0  0  0  0  0  0  0  0  0  0
   37.4000   24.3020   39.3080 H   0  0  0  0  0  0  0  0  0  0  0  0
   39.1260   22.5670   39.4090 H   0  0  0  0  0  0  0  0  0  0  0  0
   40.8900   21.3970   38.4100 H   0  0  0  0  0  0  0  0  0  0  0  0
   42.3660   20.9870   36.5240 H   0  0  0  0  0  0  0  0  0  0  0  0
   42.0950   22.3550   34.4250 H   0  0  0  0  0  0  0  0  0  0  0  0
   40.3940   24.0350   34.3210 H   0  0  0  0  0  0  0  0  0  0  0  0
   40.4340   27.3260   31.1100 C   0  0  0  0  0  0  0  0  0  0  0  0
   40.4570   26.9680   32.4910 C   0  0  0  0  0  0  0  0  0  0  0  0
   39.2860   27.0760   33.2080 C   0  0  0  0  0  0  0  0  0  0  0  0
   38.1970   27.5170   32.5340 N   0  0  0  0  0  0  0  0  0  0  0  0
   38.1750   27.8550   31.2320 C   0  0  0  0  0  0  0  0  0  0  0  0
   39.3220   27.7560   30.5080 N   0  0  0  0  0  0  0  0  0  0  0  0
   41.3840   27.2260   30.5810 H   0  0  0  0  0  0  0  0  0  0  0  0
   41.3750   26.6240   32.9480 H   0  0  0  0  0  0  0  0  0  0  0  0
   34.8800   28.6140   31.4550 H   0  0  0  0  0  0  0  0  0  0  0  0
   35.9130   28.3160   31.6190 C   0  0  0  0  0  0  0  0  0  0  0  0
   35.9700   27.9880   32.8490 O   0  0  0  0  0  0  0  0  0  0  0  0
   36.9550   28.3050   30.6520 N   0  0  0  0  0  0  0  0  0  0  0  0
   36.7100   28.6130   29.6850 H   0  0  0  0  0  0  0  0  0  0  0  0
  1  3  1  0  0  0  0
  1  4  1  1  0  0  0
  1  2  1  0  0  0  0
  2  5  1  0  0  0  0
  3  7  1  6  0  0  0
  3  2  1  0  0  0  0
  3  8  1  0  0  0  0
  6  2  1  0  0  0  0
  8 17  2  0  0  0  0
  8  9  1  0  0  0  0
  9 18  1  0  0  0  0
  9 10  2  0  0  0  0
 10 11  1  0  0  0  0
 10 19  1  0  0  0  0
 11 20  1  0  0  0  0
 12 13  1  0  0  0  0
 12 11  2  0  0  0  0
 13 21  1  0  0  0  0
 14 22  1  0  0  0  0
 14 13  2  0  0  0  0
 15 14  1  0  0  0  0
 16 15  2  0  0  0  0
 16 17  1  0  0  0  0
 17 12  1  0  0  0  0
 23 15  1  0  0  0  0
 24 16  1  0  0  0  0
 25 26  1  0  0  0  0
 26 32  1  0  0  0  0
 26 27  2  0  0  0  0
 27  1  1  0  0  0  0
 28 27  1  0  0  0  0
 29 28  2  0  0  0  0
 30 25  2  0  0  0  0
 30 29  1  0  0  0  0
 31 25  1  0  0  0  0
 33 34  1  0  0  0  0
 34 35  2  0  0  0  0
 36 29  1  0  0  0  0
 36 34  1  0  0  0  0
 37 36  1  0  0  0  0
M  END
>  <minimizedAffinity>
-6.2571578

$$$$

 OpenBabel03272509343D

 37 40  0  0  1  0  0  0  0  0999 V2000
   39.7660   23.7290   34.0380 C   0  0  1  0  0  0  0  0  0  0  0  0
   39.2450   22.8890   32.9480 C   0  0  0  0  0  0  0  0  0  0  0  0
   38.2390   23.6030   33.7760 C   0  0  2  0  0  0  0  0  0  0  0  0
   40.1540   24.7290   33.8300 H   0  0  0  0  0  0  0  0  0  0  0  0
   39.6660   23.1360   31.9940 H   0  0  0  0  0  0  0  0  0  0  0  0
   39.2770   21.7730   33.1670 H   0  0  0  0  0  0  0  0  0  0  0  0
   37.7460   23.4040   34.7040 H   0  0  0  0  0  0  0  0  0  0  0  0
   37.5610   24.6560   32.9750 C   0  0  0  0  0  0  0  0  0  0  0  0
   37.2120   24.1680   31.7090 C   0  0  0  0  0  0  0  0  0  0  0  0
   36.5030   24.9470   30.8200 C   0  0  0  0  0  0  0  0  0  0  0  0
   36.1160   26.2370   31.1620 C   0  0  0  0  0  0  0  0  0  0  0  0
   36.4630   26.7030   32.4070 C   0  0  0  0  0  0  0  0  0  0  0  0
   36.1580   27.9590   32.8700 C   0  0  0  0  0  0  0  0  0  0  0  0
   36.5200   28.4270   34.1190 C   0  0  0  0  0  0  0  0  0  0  0  0
   37.2300   27.6040   34.9680 C   0  0  0  0  0  0  0  0  0  0  0  0
   37.5450   26.3400   34.5220 C   0  0  0  0  0  0  0  0  0  0  0  0
   37.1640   25.9130   33.2680 C   0  0  0  0  0  0  0  0  0  0  0  0
   37.3310   23.2580   31.1620 H   0  0  0  0  0  0  0  0  0  0  0  0
   36.1590   24.7290   29.8200 H   0  0  0  0  0  0  0  0  0  0  0  0
   35.5570   26.9770   30.5830 H   0  0  0  0  0  0  0  0  0  0  0  0
   35.5970   28.6420   32.2280 H   0  0  0  0  0  0  0  0  0  0  0  0
   36.2500   29.4330   34.4310 H   0  0  0  0  0  0  0  0  0  0  0  0
   37.5450   27.9030   35.9580 H   0  0  0  0  0  0  0  0  0  0  0  0
   38.1140   25.6990   35.2180 H   0  0  0  0  0  0  0  0  0  0  0  0
   41.6760   21.6490   36.5330 C   0  0  0  0  0  0  0  0  0  0  0  0
   41.3030   22.2650   35.3010 C   0  0  0  0  0  0  0  0  0  0  0  0
   40.1970   23.0850   35.2950 C   0  0  0  0  0  0  0  0  0  0  0  0
   39.5480   23.2420   36.4750 N   0  0  0  0  0  0  0  0  0  0  0  0
   39.8990   22.6620   37.6360 C   0  0  0  0  0  0  0  0  0  0  0  0
   40.9880   21.8480   37.6610 N   0  0  0  0  0  0  0  0  0  0  0  0
   42.5580   21.0070   36.4920 H   0  0  0  0  0  0  0  0  0  0  0  0
   41.8820   22.0830   34.4060 H   0  0  0  0  0  0  0  0  0  0  0  0
   37.2950   24.1590   39.2040 H   0  0  0  0  0  0  0  0  0  0  0  0
   38.0450   23.7960   38.5050 C   0  0  0  0  0  0  0  0  0  0  0  0
   37.7420   24.3280   37.3890 O   0  0  0  0  0  0  0  0  0  0  0  0
   39.1220   22.9160   38.8010 N   0  0  0  0  0  0  0  0  0  0  0  0
   39.2060   22.5820   39.7870 H   0  0  0  0  0  0  0  0  0  0  0  0
  1  4  1  6  0  0  0
  1 27  1  0  0  0  0
  2  6  1  0  0  0  0
  2  3  1  0  0  0  0
  2  1  1  0  0  0  0
  3  1  1  0  0  0  0
  3  7  1  1  0  0  0
  5  2  1  0  0  0  0
  8 17  1  0  0  0  0
  8  3  1  0  0  0  0
  9  8  2  0  0  0  0
 10 11  2  0  0  0  0
 10  9  1  0  0  0  0
 11 12  1  0  0  0  0
 12 13  2  0  0  0  0
 12 17  1  0  0  0  0
 13 14  1  0  0  0  0
 14 22  1  0  0  0  0
 14 15  2  0  0  0  0
 15 23  1  0  0  0  0
 16 15  1  0  0  0  0
 16 24  1  0  0  0  0
 17 16  2  0  0  0  0
 18  9  1  0  0  0  0
 19 10  1  0  0  0  0
 20 11  1  0  0  0  0
 21 13  1  0  0  0  0
 25 30  1  0  0  0  0
 26 25  2  0  0  0  0
 27 26  1  0  0  0  0
 27 28  2  0  0  0  0
 28 29  1  0  0  0  0
 29 30  2  0  0  0  0
 29 36  1  0  0  0  0
 31 25  1  0  0  0  0
 32 26  1  0  0  0  0
 34 36  1  0  0  0  0
 34 33  1  0  0  0  0
 35 34  2  0  0  0  0
 36 37  1  0  0  0  0
M  END
>  <minimizedAffinity>
-6.16186094

$$$$

 OpenBabel03272509343D

 37 40  0  0  1  0  0  0  0  0999 V2000
   38.5900   26.9890   33.7170 C   0  0  1  0  0  0  0  0  0  0  0  0
   38.0200   26.9680   35.0730 C   0  0  0  0  0  0  0  0  0  0  0  0
   37.9640   25.6950   34.3090 C   0  0  2  0  0  0  0  0  0  0  0  0
   39.6700   26.9120   33.5680 H   0  0  0  0  0  0  0  0  0  0  0  0
   38.7110   27.3020   35.8210 H   0  0  0  0  0  0  0  0  0  0  0  0
   37.0030   27.4710   35.1570 H   0  0  0  0  0  0  0  0  0  0  0  0
   37.2950   25.2760   33.5870 H   0  0  0  0  0  0  0  0  0  0  0  0
   38.8620   24.6810   34.9210 C   0  0  0  0  0  0  0  0  0  0  0  0
   39.8420   24.2720   34.0070 C   0  0  0  0  0  0  0  0  0  0  0  0
   40.8350   23.3910   34.3800 C   0  0  0  0  0  0  0  0  0  0  0  0
   40.8870   22.8890   35.6740 C   0  0  0  0  0  0  0  0  0  0  0  0
   39.9210   23.3000   36.5610 C   0  0  0  0  0  0  0  0  0  0  0  0
   39.8440   22.8750   37.8650 C   0  0  0  0  0  0  0  0  0  0  0  0
   38.8630   23.2830   38.7490 C   0  0  0  0  0  0  0  0  0  0  0  0
   37.8930   24.1650   38.3220 C   0  0  0  0  0  0  0  0  0  0  0  0
   37.9530   24.6030   37.0180 C   0  0  0  0  0  0  0  0  0  0  0  0
   38.9500   24.1720   36.1680 C   0  0  0  0  0  0  0  0  0  0  0  0
   40.0920   24.4710   32.9870 H   0  0  0  0  0  0  0  0  0  0  0  0
   41.6540   22.9790   33.8090 H   0  0  0  0  0  0  0  0  0  0  0  0
   41.5970   22.1940   36.1280 H   0  0  0  0  0  0  0  0  0  0  0  0
   40.5920   22.1760   38.2420 H   0  0  0  0  0  0  0  0  0  0  0  0
   38.8530   22.9110   39.7710 H   0  0  0  0  0  0  0  0  0  0  0  0
   37.0970   24.5260   38.9580 H   0  0  0  0  0  0  0  0  0  0  0  0
   37.1670   25.3080   36.6970 H   0  0  0  0  0  0  0  0  0  0  0  0
   37.4000   27.9640   30.2770 C   0  0  0  0  0  0  0  0  0  0  0  0
   38.1850   27.3700   31.3100 C   0  0  0  0  0  0  0  0  0  0  0  0
   37.7960   27.5700   32.6150 C   0  0  0  0  0  0  0  0  0  0  0  0
   36.6860   28.3220   32.8120 N   0  0  0  0  0  0  0  0  0  0  0  0
   35.9460   28.8820   31.8390 C   0  0  0  0  0  0  0  0  0  0  0  0
   36.3150   28.6960   30.5440 N   0  0  0  0  0  0  0  0  0  0  0  0
   37.7450   27.7800   29.2570 H   0  0  0  0  0  0  0  0  0  0  0  0
   39.0590   26.7840   31.0590 H   0  0  0  0  0  0  0  0  0  0  0  0
   33.8500   30.2010   34.1520 H   0  0  0  0  0  0  0  0  0  0  0  0
   34.6380   29.6880   33.6050 C   0  0  0  0  0  0  0  0  0  0  0  0
   35.3620   29.1440   34.5000 O   0  0  0  0  0  0  0  0  0  0  0  0
   34.8010   29.6500   32.1930 N   0  0  0  0  0  0  0  0  0  0  0  0
   34.0970   30.1650   31.6190 H   0  0  0  0  0  0  0  0  0  0  0  0
  1  4  1  6  0  0  0
  1  3  1  0  0  0  0
  1  2  1  0  0  0  0
  2  6  1  0  0  0  0
  2  5  1  0  0  0  0
  3  7  1  6  0  0  0
  3  8  1  0  0  0  0
  3  2  1  0  0  0  0
  8 17  1  0  0  0  0
  9 10  1  0  0  0  0
  9  8  2  0  0  0  0
 10 11  2  0  0  0  0
 11 20  1  0  0  0  0
 11 12  1  0  0  0  0
 12 13  1  0  0  0  0
 13 21  1  0  0  0  0
 13 14  2  0  0  0  0
 14 22  1  0  0  0  0
 15 14  1  0  0  0  0
 15 23  1  0  0  0  0
 16 15  2  0  0  0  0
 17 12  2  0  0  0  0
 17 16  1  0  0  0  0
 18  9  1  0  0  0  0
 19 10  1  0  0  0  0
 24 16  1  0  0  0  0
 25 30  2  0  0  0  0
 25 26  1  0  0  0  0
 26 27  2  0  0  0  0
 27 28  1  0  0  0  0
 27  1  1  0  0  0  0
 29 36  1  0  0  0  0
 29 28  2  0  0  0  0
 30 29  1  0  0  0  0
 31 25  1  0  0  0  0
 32 26  1  0  0  0  0
 34 33  1  0  0  0  0
 34 35  2  0  0  0  0
 36 34  1  0  0  0  0
 37 36  1  0  0  0  0
M  END
>  <minimizedAffinity>
-6.04767895

$$$$

 OpenBabel03272509343D

 37 40  0  0  1  0  0  0  0  0999 V2000
   37.9010   25.8290   35.4360 C   0  0  1  0  0  0  0  0  0  0  0  0
   38.5190   27.1280   35.7490 C   0  0  0  0  0  0  0  0  0  0  0  0
   38.3840   26.7840   34.3090 C   0  0  2  0  0  0  0  0  0  0  0  0
   36.8150   25.7120   35.4610 H   0  0  0  0  0  0  0  0  0  0  0  0
   37.9060   27.7390   36.3800 H   0  0  0  0  0  0  0  0  0  0  0  0
   39.5930   27.0530   36.1160 H   0  0  0  0  0  0  0  0  0  0  0  0
   38.9660   26.2220   33.6100 H   0  0  0  0  0  0  0  0  0  0  0  0
   37.3920   27.6760   33.6530 C   0  0  0  0  0  0  0  0  0  0  0  0
   36.5380   28.2490   34.6050 C   0  0  0  0  0  0  0  0  0  0  0  0
   35.5840   29.1730   34.2340 C   0  0  0  0  0  0  0  0  0  0  0  0
   35.4500   29.5580   32.9060 C   0  0  0  0  0  0  0  0  0  0  0  0
   36.2950   28.9900   31.9840 C   0  0  0  0  0  0  0  0  0  0  0  0
   36.2650   29.2680   30.6390 C   0  0  0  0  0  0  0  0  0  0  0  0
   37.1100   28.6840   29.7150 C   0  0  0  0  0  0  0  0  0  0  0  0
   38.0460   27.7650   30.1410 C   0  0  0  0  0  0  0  0  0  0  0  0
   38.0920   27.4730   31.4860 C   0  0  0  0  0  0  0  0  0  0  0  0
   37.2300   28.0790   32.3760 C   0  0  0  0  0  0  0  0  0  0  0  0
   36.3930   28.1910   35.6620 H   0  0  0  0  0  0  0  0  0  0  0  0
   34.8560   29.7030   34.8300 H   0  0  0  0  0  0  0  0  0  0  0  0
   34.7560   30.2690   32.4490 H   0  0  0  0  0  0  0  0  0  0  0  0
   35.5390   29.9900   30.2610 H   0  0  0  0  0  0  0  0  0  0  0  0
   37.0390   28.9440   28.6610 H   0  0  0  0  0  0  0  0  0  0  0  0
   38.7390   27.2700   29.4750 H   0  0  0  0  0  0  0  0  0  0  0  0
   38.8480   26.7340   31.8050 H   0  0  0  0  0  0  0  0  0  0  0  0
   38.9340   22.2420   35.9560 C   0  0  0  0  0  0  0  0  0  0  0  0
   38.1090   23.4000   35.8370 C   0  0  0  0  0  0  0  0  0  0  0  0
   38.7160   24.6020   35.5510 C   0  0  0  0  0  0  0  0  0  0  0  0
   40.0630   24.5850   35.4030 N   0  0  0  0  0  0  0  0  0  0  0  0
   40.8410   23.4940   35.5150 C   0  0  0  0  0  0  0  0  0  0  0  0
   40.2600   22.2980   35.7980 N   0  0  0  0  0  0  0  0  0  0  0  0
   38.4120   21.3110   36.1850 H   0  0  0  0  0  0  0  0  0  0  0  0
   37.0380   23.3200   35.9720 H   0  0  0  0  0  0  0  0  0  0  0  0
   43.5960   25.3580   34.8660 H   0  0  0  0  0  0  0  0  0  0  0  0
   42.5950   24.9720   35.0480 C   0  0  0  0  0  0  0  0  0  0  0  0
   41.8280   25.9840   34.9500 O   0  0  0  0  0  0  0  0  0  0  0  0
   42.2470   23.6230   35.3340 N   0  0  0  0  0  0  0  0  0  0  0  0
   43.0260   22.9290   35.3730 H   0  0  0  0  0  0  0  0  0  0  0  0
  1  4  1  1  0  0  0
  1 27  1  0  0  0  0
  1  2  1  0  0  0  0
  2  6  1  0  0  0  0
  2  5  1  0  0  0  0
  3  7  1  6  0  0  0
  3  1  1  0  0  0  0
  3  2  1  0  0  0  0
  8  3  1  0  0  0  0
  8  9  1  0  0  0  0
  9 18  1  0  0  0  0
 10  9  2  0  0  0  0
 10 19  1  0  0  0  0
 11 10  1  0  0  0  0
 12 17  1  0  0  0  0
 12 11  2  0  0  0  0
 13 12  1  0  0  0  0
 14 15  1  0  0  0  0
 14 13  2  0  0  0  0
 15 16  2  0  0  0  0
 16 24  1  0  0  0  0
 16 17  1  0  0  0  0
 17  8  2  0  0  0  0
 20 11  1  0  0  0  0
 21 13  1  0  0  0  0
 22 14  1  0  0  0  0
 23 15  1  0  0  0  0
 25 31  1  0  0  0  0
 26 25  1  0  0  0  0
 26 32  1  0  0  0  0
 27 26  2  0  0  0  0
 28 29  2  0  0  0  0
 28 27  1  0  0  0  0
 29 30  1  0  0  0  0
 30 25  2  0  0  0  0
 33 34  1  0  0  0  0
 34 36  1  0  0  0  0
 35 34  2  0  0  0  0
 36 37  1  0  0  0  0
 36 29  1  0  0  0  0
M  END
>  <minimizedAffinity>
-6.03900051

$$$$

 OpenBabel03272509343D

 37 40  0  0  1  0  0  0  0  0999 V2000
   37.7930   25.1010   34.4530 C   0  0  1  0  0  0  0  0  0  0  0  0
   37.3680   26.2190   35.3120 C   0  0  0  0  0  0  0  0  0  0  0  0
   38.3520   26.5370   34.2450 C   0  0  2  0  0  0  0  0  0  0  0  0
   37.1610   24.7660   33.6280 H   0  0  0  0  0  0  0  0  0  0  0  0
   36.3040   26.3420   35.3390 H   0  0  0  0  0  0  0  0  0  0  0  0
   37.8360   26.2100   36.3490 H   0  0  0  0  0  0  0  0  0  0  0  0
   39.4170   26.4810   34.1590 H   0  0  0  0  0  0  0  0  0  0  0  0
   37.7320   27.4030   33.2090 C   0  0  0  0  0  0  0  0  0  0  0  0
   36.6390   28.1030   33.7380 C   0  0  0  0  0  0  0  0  0  0  0  0
   35.9560   29.0280   32.9770 C   0  0  0  0  0  0  0  0  0  0  0  0
   36.3360   29.2870   31.6660 C   0  0  0  0  0  0  0  0  0  0  0  0
   37.4100   28.5950   31.1610 C   0  0  0  0  0  0  0  0  0  0  0  0
   37.8850   28.7410   29.8800 C   0  0  0  0  0  0  0  0  0  0  0  0
   38.9570   28.0330   29.3740 C   0  0  0  0  0  0  0  0  0  0  0  0
   39.6050   27.1200   30.1790 C   0  0  0  0  0  0  0  0  0  0  0  0
   39.1440   26.9590   31.4660 C   0  0  0  0  0  0  0  0  0  0  0  0
   38.0700   27.6860   31.9330 C   0  0  0  0  0  0  0  0  0  0  0  0
   36.1220   28.1550   34.6710 H   0  0  0  0  0  0  0  0  0  0  0  0
   35.1050   29.6450   33.2260 H   0  0  0  0  0  0  0  0  0  0  0  0
   35.9080   29.9790   30.9370 H   0  0  0  0  0  0  0  0  0  0  0  0
   37.4000   29.4530   29.2110 H   0  0  0  0  0  0  0  0  0  0  0  0
   39.2890   28.1910   28.3500 H   0  0  0  0  0  0  0  0  0  0  0  0
   40.4510   26.5320   29.8490 H   0  0  0  0  0  0  0  0  0  0  0  0
   39.6760   26.2220   32.0920 H   0  0  0  0  0  0  0  0  0  0  0  0
   40.6430   22.6430   34.6230 C   0  0  0  0  0  0  0  0  0  0  0  0
   39.6970   23.5690   34.0930 C   0  0  0  0  0  0  0  0  0  0  0  0
   38.8010   24.1500   34.9620 C   0  0  0  0  0  0  0  0  0  0  0  0
   38.8960   23.7910   36.2660 N   0  0  0  0  0  0  0  0  0  0  0  0
   39.7880   22.9180   36.7660 C   0  0  0  0  0  0  0  0  0  0  0  0
   40.6800   22.3330   35.9220 N   0  0  0  0  0  0  0  0  0  0  0  0
   41.3330   22.2050   33.8990 H   0  0  0  0  0  0  0  0  0  0  0  0
   39.6940   23.7970   33.0350 H   0  0  0  0  0  0  0  0  0  0  0  0
   38.5100   23.3490   39.8740 H   0  0  0  0  0  0  0  0  0  0  0  0
   38.7480   23.3710   38.8130 C   0  0  0  0  0  0  0  0  0  0  0  0
   37.9180   24.1920   38.3050 O   0  0  0  0  0  0  0  0  0  0  0  0
   39.7730   22.6320   38.1600 N   0  0  0  0  0  0  0  0  0  0  0  0
   40.3570   22.0020   38.7540 H   0  0  0  0  0  0  0  0  0  0  0  0
  1  4  1  6  0  0  0
  1 27  1  0  0  0  0
  1  2  1  0  0  0  0
  2  5  1  0  0  0  0
  2  6  1  0  0  0  0
  3  7  1  1  0  0  0
  3  1  1  0  0  0  0
  3  2  1  0  0  0  0
  8  9  1  0  0  0  0
  8  3  1  0  0  0  0
  9 18  1  0  0  0  0
 10 19  1  0  0  0  0
 10  9  2  0  0  0  0
 11 10  1  0  0  0  0
 12 11  2  0  0  0  0
 12 17  1  0  0  0  0
 13 12  1  0  0  0  0
 14 13  2  0  0  0  0
 14 15  1  0  0  0  0
 15 16  2  0  0  0  0
 16 17  1  0  0  0  0
 16 24  1  0  0  0  0
 17  8  2  0  0  0  0
 20 11  1  0  0  0  0
 21 13  1  0  0  0  0
 22 14  1  0  0  0  0
 23 15  1  0  0  0  0
 25 30  1  0  0  0  0
 26 25  2  0  0  0  0
 26 27  1  0  0  0  0
 27 28  2  0  0  0  0
 28 29  1  0  0  0  0
 29 36  1  0  0  0  0
 30 29  2  0  0  0  0
 31 25  1  0  0  0  0
 32 26  1  0  0  0  0
 34 33  1  0  0  0  0
 35 34  2  0  0  0  0
 36 37  1  0  0  0  0
 36 34  1  0  0  0  0
M  END
>  <minimizedAffinity>
-6.00198221

$$$$

 OpenBabel03272509343D

 37 40  0  0  1  0  0  0  0  0999 V2000
   36.1110   29.7660   32.6810 C   0  0  1  0  0  0  0  0  0  0  0  0
   34.6950   30.0110   32.3620 C   0  0  0  0  0  0  0  0  0  0  0  0
   34.9760   29.2980   33.6350 C   0  0  2  0  0  0  0  0  0  0  0  0
   36.7270   30.5610   33.1090 H   0  0  0  0  0  0  0  0  0  0  0  0
   34.4830   31.0440   32.1730 H   0  0  0  0  0  0  0  0  0  0  0  0
   34.2750   29.3220   31.5590 H   0  0  0  0  0  0  0  0  0  0  0  0
   35.1550   28.2790   33.9050 H   0  0  0  0  0  0  0  0  0  0  0  0
   34.6210   30.1520   34.7980 C   0  0  0  0  0  0  0  0  0  0  0  0
   35.7300   30.8960   35.2220 C   0  0  0  0  0  0  0  0  0  0  0  0
   35.6160   31.8180   36.2410 C   0  0  0  0  0  0  0  0  0  0  0  0
   34.3970   32.0310   36.8700 C   0  0  0  0  0  0  0  0  0  0  0  0
   33.3170   31.2970   36.4430 C   0  0  0  0  0  0  0  0  0  0  0  0
   32.0580   31.3960   36.9830 C   0  0  0  0  0  0  0  0  0  0  0  0
   30.9790   30.6450   36.5580 C   0  0  0  0  0  0  0  0  0  0  0  0
   31.1490   29.7370   35.5340 C   0  0  0  0  0  0  0  0  0  0  0  0
   32.4040   29.6230   34.9800 C   0  0  0  0  0  0  0  0  0  0  0  0
   33.4540   30.3910   35.4340 C   0  0  0  0  0  0  0  0  0  0  0  0
   36.7600   30.9870   34.9530 H   0  0  0  0  0  0  0  0  0  0  0  0
   36.3600   32.4640   36.6840 H   0  0  0  0  0  0  0  0  0  0  0  0
   34.1380   32.7150   37.6830 H   0  0  0  0  0  0  0  0  0  0  0  0
   31.8810   32.1030   37.7960 H   0  0  0  0  0  0  0  0  0  0  0  0
   30.0030   30.7670   37.0250 H   0  0  0  0  0  0  0  0  0  0  0  0
   30.3500   29.1180   35.1510 H   0  0  0  0  0  0  0  0  0  0  0  0
   32.5170   28.8890   34.1630 H   0  0  0  0  0  0  0  0  0  0  0  0
   37.7630   26.4420   32.0350 C   0  0  0  0  0  0  0  0  0  0  0  0
   37.0670   27.4890   32.7100 C   0  0  0  0  0  0  0  0  0  0  0  0
   36.8130   28.6500   32.0160 C   0  0  0  0  0  0  0  0  0  0  0  0
   37.2480   28.7020   30.7330 N   0  0  0  0  0  0  0  0  0  0  0  0
   37.9030   27.7150   30.0970 C   0  0  0  0  0  0  0  0  0  0  0  0
   38.1640   26.5610   30.7670 N   0  0  0  0  0  0  0  0  0  0  0  0
   37.9440   25.5400   32.6240 H   0  0  0  0  0  0  0  0  0  0  0  0
   36.7560   27.3600   33.7380 H   0  0  0  0  0  0  0  0  0  0  0  0
   38.0860   29.6060   27.2910 H   0  0  0  0  0  0  0  0  0  0  0  0
   37.9100   29.1930   28.2820 C   0  0  0  0  0  0  0  0  0  0  0  0
   37.2880   30.1060   28.9160 O   0  0  0  0  0  0  0  0  0  0  0  0
   38.3030   27.9070   28.7440 N   0  0  0  0  0  0  0  0  0  0  0  0
   38.8110   27.2940   28.0690 H   0  0  0  0  0  0  0  0  0  0  0  0
  1  4  1  1  0  0  0
  1  3  1  0  0  0  0
  2  1  1  0  0  0  0
  2  3  1  0  0  0  0
  3  7  1  1  0  0  0
  3  8  1  0  0  0  0
  5  2  1  0  0  0  0
  6  2  1  0  0  0  0
  8  9  2  0  0  0  0
  8 17  1  0  0  0  0
  9 10  1  0  0  0  0
 10 19  1  0  0  0  0
 10 11  2  0  0  0  0
 11 20  1  0  0  0  0
 12 11  1  0  0  0  0
 12 13  1  0  0  0  0
 13 21  1  0  0  0  0
 14 13  2  0  0  0  0
 14 22  1  0  0  0  0
 15 14  1  0  0  0  0
 16 17  1  0  0  0  0
 16 15  2  0  0  0  0
 17 12  2  0  0  0  0
 18  9  1  0  0  0  0
 23 15  1  0  0  0  0
 24 16  1  0  0  0  0
 25 31  1  0  0  0  0
 25 26  1  0  0  0  0
 26 32  1  0  0  0  0
 27  1  1  0  0  0  0
 27 26  2  0  0  0  0
 28 27  1  0  0  0  0
 29 28  2  0  0  0  0
 29 30  1  0  0  0  0
 30 25  2  0  0  0  0
 33 34  1  0  0  0  0
 34 36  1  0  0  0  0
 34 35  2  0  0  0  0
 36 29  1  0  0  0  0
 37 36  1  0  0  0  0
M  END
>  <minimizedAffinity>
-5.96704531

$$$$

 OpenBabel03272509343D

 37 40  0  0  1  0  0  0  0  0999 V2000
   34.0780   29.4540   33.9030 C   0  0  1  0  0  0  0  0  0  0  0  0
   34.8890   30.2410   32.9600 C   0  0  0  0  0  0  0  0  0  0  0  0
   35.6260   29.5170   34.0270 C   0  0  2  0  0  0  0  0  0  0  0  0
   33.7110   28.4630   33.6250 H   0  0  0  0  0  0  0  0  0  0  0  0
   34.7070   29.9800   31.9370 H   0  0  0  0  0  0  0  0  0  0  0  0
   34.8510   31.3640   33.1410 H   0  0  0  0  0  0  0  0  0  0  0  0
   35.8810   29.7260   35.0450 H   0  0  0  0  0  0  0  0  0  0  0  0
   36.4360   28.4150   33.4430 C   0  0  0  0  0  0  0  0  0  0  0  0
   36.1950   28.3010   32.0670 C   0  0  0  0  0  0  0  0  0  0  0  0
   36.8950   27.3940   31.2990 C   0  0  0  0  0  0  0  0  0  0  0  0
   37.8570   26.5730   31.8730 C   0  0  0  0  0  0  0  0  0  0  0  0
   38.0840   26.6970   33.2230 C   0  0  0  0  0  0  0  0  0  0  0  0
   38.9940   25.9420   33.9210 C   0  0  0  0  0  0  0  0  0  0  0  0
   39.2090   26.0630   35.2810 C   0  0  0  0  0  0  0  0  0  0  0  0
   38.4810   26.9870   36.0010 C   0  0  0  0  0  0  0  0  0  0  0  0
   37.5640   27.7530   35.3180 C   0  0  0  0  0  0  0  0  0  0  0  0
   37.3800   27.6010   33.9600 C   0  0  0  0  0  0  0  0  0  0  0  0
   35.5670   28.7700   31.3410 H   0  0  0  0  0  0  0  0  0  0  0  0
   36.8330   27.1800   30.2420 H   0  0  0  0  0  0  0  0  0  0  0  0
   38.4930   25.8120   31.4140 H   0  0  0  0  0  0  0  0  0  0  0  0
   39.5910   25.2000   33.3890 H   0  0  0  0  0  0  0  0  0  0  0  0
   39.9450   25.4360   35.7810 H   0  0  0  0  0  0  0  0  0  0  0  0
   38.5980   27.1350   37.0650 H   0  0  0  0  0  0  0  0  0  0  0  0
   36.9910   28.4850   35.9140 H   0  0  0  0  0  0  0  0  0  0  0  0
   32.8680   32.1380   36.2550 C   0  0  0  0  0  0  0  0  0  0  0  0
   33.5520   31.5060   35.1740 C   0  0  0  0  0  0  0  0  0  0  0  0
   33.3760   30.1520   34.9990 C   0  0  0  0  0  0  0  0  0  0  0  0
   32.5570   29.5240   35.8790 N   0  0  0  0  0  0  0  0  0  0  0  0
   31.9130   30.1190   36.8980 C   0  0  0  0  0  0  0  0  0  0  0  0
   32.0750   31.4560   37.0870 N   0  0  0  0  0  0  0  0  0  0  0  0
   33.0370   33.2120   36.3570 H   0  0  0  0  0  0  0  0  0  0  0  0
   34.1870   32.0870   34.5190 H   0  0  0  0  0  0  0  0  0  0  0  0
   30.5420   27.1550   37.8000 H   0  0  0  0  0  0  0  0  0  0  0  0
   31.0860   27.9740   37.3350 C   0  0  0  0  0  0  0  0  0  0  0  0
   31.7120   27.4430   36.3600 O   0  0  0  0  0  0  0  0  0  0  0  0
   31.0830   29.3350   37.7470 N   0  0  0  0  0  0  0  0  0  0  0  0
   30.5010   29.5780   38.5800 H   0  0  0  0  0  0  0  0  0  0  0  0
  1  4  1  6  0  0  0
  1  3  1  0  0  0  0
  1 27  1  0  0  0  0
  2  6  1  0  0  0  0
  2  1  1  0  0  0  0
  2  3  1  0  0  0  0
  3  7  1  1  0  0  0
  5  2  1  0  0  0  0
  8 17  1  0  0  0  0
  8  3  1  0  0  0  0
  9  8  2  0  0  0  0
 10 11  2  0  0  0  0
 10  9  1  0  0  0  0
 11 12  1  0  0  0  0
 12 13  2  0  0  0  0
 12 17  1  0  0  0  0
 13 14  1  0  0  0  0
 14 22  1  0  0  0  0
 14 15  2  0  0  0  0
 15 23  1  0  0  0  0
 16 24  1  0  0  0  0
 16 15  1  0  0  0  0
 17 16  2  0  0  0  0
 18  9  1  0  0  0  0
 19 10  1  0  0  0  0
 20 11  1  0  0  0  0
 21 13  1  0  0  0  0
 25 31  1  0  0  0  0
 25 30  1  0  0  0  0
 26 25  2  0  0  0  0
 27 26  1  0  0  0  0
 27 28  2  0  0  0  0
 28 29  1  0  0  0  0
 29 30  2  0  0  0  0
 29 36  1  0  0  0  0
 32 26  1  0  0  0  0
 34 36  1  0  0  0  0
 34 33  1  0  0  0  0
 35 34  2  0  0  0  0
 36 37  1  0  0  0  0
M  END
>  <minimizedAffinity>
-5.89977264

$$$$
