
 OpenBabel03272508393D

 28 29  0  0  1  0  0  0  0  0999 V2000
   37.6790   22.3150   34.1310 N   0  0  0  0  0  0  0  0  0  0  0  0
   37.7810   22.0250   35.5500 C   0  0  0  0  0  0  0  0  0  0  0  0
   37.9270   23.2270   36.4050 C   0  0  2  0  0  0  0  0  0  0  0  0
   38.6030   24.3510   35.8410 N   0  0  0  0  0  0  0  0  0  0  0  0
   38.2310   24.5890   34.4400 C   0  0  0  0  0  0  0  0  0  0  0  0
   38.6210   23.3210   33.7270 C   0  0  0  0  0  0  0  0  0  0  0  0
   38.6130   21.2750   35.6760 H   0  0  0  0  0  0  0  0  0  0  0  0
   36.8710   21.4740   35.8450 H   0  0  0  0  0  0  0  0  0  0  0  0
   36.9220   23.5560   36.7420 H   0  0  0  0  0  0  0  0  0  0  0  0
   38.3090   25.1950   36.4100 H   0  0  0  0  0  0  0  0  0  0  0  0
   38.8460   25.4590   34.0990 H   0  0  0  0  0  0  0  0  0  0  0  0
   37.1530   24.7340   34.3040 H   0  0  0  0  0  0  0  0  0  0  0  0
   38.5810   23.4500   32.6310 H   0  0  0  0  0  0  0  0  0  0  0  0
   39.6490   23.0770   34.0220 H   0  0  0  0  0  0  0  0  0  0  0  0
   36.7560   21.6690   33.2760 C   0  0  0  0  0  0  0  0  0  0  0  0
   35.9570   20.5950   33.6760 C   0  0  0  0  0  0  0  0  0  0  0  0
   35.0650   20.0080   32.7880 C   0  0  0  0  0  0  0  0  0  0  0  0
   35.0120   20.5270   31.5250 N   0  0  0  0  0  0  0  0  0  0  0  0
   35.8060   21.5820   31.1570 C   0  0  0  0  0  0  0  0  0  0  0  0
   36.6650   22.1430   32.0180 N   0  0  0  0  0  0  0  0  0  0  0  0
   36.0470   20.2360   34.6780 H   0  0  0  0  0  0  0  0  0  0  0  0
   34.4320   19.1760   33.0680 H   0  0  0  0  0  0  0  0  0  0  0  0
   35.6750   21.9100   30.1220 H   0  0  0  0  0  0  0  0  0  0  0  0
   39.3270   22.9950   39.5060 H   0  0  0  0  0  0  0  0  0  0  0  0
   38.6900   23.5780   38.8460 C   0  0  0  0  0  0  0  0  0  0  0  0
   37.9850   24.6140   38.7360 O   0  0  0  0  0  0  0  0  0  0  0  0
   38.6660   22.8320   37.6120 N   0  0  0  0  0  0  0  0  0  0  0  0
   39.1340   21.9250   37.3380 H   0  0  0  0  0  0  0  0  0  0  0  0
  1  2  1  0  0  0  0
  2  7  1  0  0  0  0
  2  8  1  0  0  0  0
  2  3  1  0  0  0  0
  3  9  1  1  0  0  0
  3 27  1  0  0  0  0
  4  3  1  0  0  0  0
  4 10  1  0  0  0  0
  5  4  1  0  0  0  0
  6 14  1  0  0  0  0
  6  1  1  0  0  0  0
  6  5  1  0  0  0  0
 11  5  1  0  0  0  0
 12  5  1  0  0  0  0
 13  6  1  0  0  0  0
 15 16  1  0  0  0  0
 15  1  1  0  0  0  0
 16 21  1  0  0  0  0
 17 22  1  0  0  0  0
 17 16  2  0  0  0  0
 18 17  1  0  0  0  0
 19 18  2  0  0  0  0
 19 20  1  0  0  0  0
 20 15  2  0  0  0  0
 23 19  1  0  0  0  0
 25 24  1  0  0  0  0
 26 25  2  0  0  0  0
 27 25  1  0  0  0  0
 28 27  1  0  0  0  0
M  END
>  <minimizedAffinity>
-4.28901339

$$$$

 OpenBabel03272508393D

 28 29  0  0  1  0  0  0  0  0999 V2000
   37.1990   25.1930   32.2370 N   0  0  0  0  0  0  0  0  0  0  0  0
   37.3710   26.5120   31.6560 C   0  0  0  0  0  0  0  0  0  0  0  0
   36.1900   27.0010   30.9040 C   0  0  2  0  0  0  0  0  0  0  0  0
   35.3750   26.0220   30.2600 N   0  0  0  0  0  0  0  0  0  0  0  0
   35.1720   24.8250   31.0870 C   0  0  0  0  0  0  0  0  0  0  0  0
   36.5600   24.2890   31.3220 C   0  0  0  0  0  0  0  0  0  0  0  0
   38.3180   26.4850   31.0460 H   0  0  0  0  0  0  0  0  0  0  0  0
   37.5980   27.2130   32.4780 H   0  0  0  0  0  0  0  0  0  0  0  0
   35.5480   27.5970   31.5860 H   0  0  0  0  0  0  0  0  0  0  0  0
   34.4320   26.4760   30.0970 H   0  0  0  0  0  0  0  0  0  0  0  0
   34.5590   24.1210   30.4680 H   0  0  0  0  0  0  0  0  0  0  0  0
   34.7280   25.0510   32.0630 H   0  0  0  0  0  0  0  0  0  0  0  0
   36.5290   23.2760   31.7600 H   0  0  0  0  0  0  0  0  0  0  0  0
   37.0680   24.2470   30.3510 H   0  0  0  0  0  0  0  0  0  0  0  0
   37.6220   24.8660   33.5470 C   0  0  0  0  0  0  0  0  0  0  0  0
   38.0690   23.5960   33.9180 C   0  0  0  0  0  0  0  0  0  0  0  0
   38.4770   23.3420   35.2210 C   0  0  0  0  0  0  0  0  0  0  0  0
   38.4170   24.3830   36.1050 N   0  0  0  0  0  0  0  0  0  0  0  0
   37.9750   25.6200   35.7170 C   0  0  0  0  0  0  0  0  0  0  0  0
   37.5830   25.8580   34.4580 N   0  0  0  0  0  0  0  0  0  0  0  0
   38.0910   22.8250   33.1780 H   0  0  0  0  0  0  0  0  0  0  0  0
   38.8280   22.3700   35.5380 H   0  0  0  0  0  0  0  0  0  0  0  0
   37.9720   26.3720   36.5110 H   0  0  0  0  0  0  0  0  0  0  0  0
   37.0830   29.7080   29.0310 H   0  0  0  0  0  0  0  0  0  0  0  0
   36.6610   29.3610   29.9710 C   0  0  0  0  0  0  0  0  0  0  0  0
   36.1830   29.7080   31.0820 O   0  0  0  0  0  0  0  0  0  0  0  0
   36.6700   27.9230   29.8650 N   0  0  0  0  0  0  0  0  0  0  0  0
   36.9950   27.2840   29.0890 H   0  0  0  0  0  0  0  0  0  0  0  0
  1 15  1  0  0  0  0
  2  1  1  0  0  0  0
  2  8  1  0  0  0  0
  3  9  1  1  0  0  0
  3  2  1  0  0  0  0
  4  3  1  0  0  0  0
  4  5  1  0  0  0  0
  5  6  1  0  0  0  0
  5 12  1  0  0  0  0
  6 13  1  0  0  0  0
  6  1  1  0  0  0  0
  7  2  1  0  0  0  0
 10  4  1  0  0  0  0
 11  5  1  0  0  0  0
 14  6  1  0  0  0  0
 15 16  2  0  0  0  0
 15 20  1  0  0  0  0
 16 17  1  0  0  0  0
 17 22  1  0  0  0  0
 17 18  2  0  0  0  0
 19 18  1  0  0  0  0
 19 23  1  0  0  0  0
 20 19  2  0  0  0  0
 21 16  1  0  0  0  0
 24 25  1  0  0  0  0
 25 26  2  0  0  0  0
 27 25  1  0  0  0  0
 27  3  1  0  0  0  0
 28 27  1  0  0  0  0
M  END
>  <minimizedAffinity>
-4.17198133

$$$$

 OpenBabel03272508393D

 28 29  0  0  1  0  0  0  0  0999 V2000
   37.5200   26.0590   32.5070 N   0  0  0  0  0  0  0  0  0  0  0  0
   38.3240   26.7890   31.5440 C   0  0  0  0  0  0  0  0  0  0  0  0
   37.5340   27.5460   30.5440 C   0  0  2  0  0  0  0  0  0  0  0  0
   36.2640   27.0080   30.1730 N   0  0  0  0  0  0  0  0  0  0  0  0
   35.5220   26.4720   31.3210 C   0  0  0  0  0  0  0  0  0  0  0  0
   36.4140   25.3930   31.8770 C   0  0  0  0  0  0  0  0  0  0  0  0
   39.0460   26.0540   31.0900 H   0  0  0  0  0  0  0  0  0  0  0  0
   38.9670   27.4880   32.1080 H   0  0  0  0  0  0  0  0  0  0  0  0
   37.3800   28.5820   30.9120 H   0  0  0  0  0  0  0  0  0  0  0  0
   35.7070   27.8090   29.7620 H   0  0  0  0  0  0  0  0  0  0  0  0
   34.5730   26.0480   30.9050 H   0  0  0  0  0  0  0  0  0  0  0  0
   35.3610   27.2150   32.1100 H   0  0  0  0  0  0  0  0  0  0  0  0
   35.8800   24.7750   32.6190 H   0  0  0  0  0  0  0  0  0  0  0  0
   36.7280   24.7590   31.0390 H   0  0  0  0  0  0  0  0  0  0  0  0
   37.8140   26.0230   33.8900 C   0  0  0  0  0  0  0  0  0  0  0  0
   38.0150   27.1690   34.6640 C   0  0  0  0  0  0  0  0  0  0  0  0
   38.2950   27.0660   36.0210 C   0  0  0  0  0  0  0  0  0  0  0  0
   38.3630   25.8060   36.5470 N   0  0  0  0  0  0  0  0  0  0  0  0
   38.1620   24.6980   35.7670 C   0  0  0  0  0  0  0  0  0  0  0  0
   37.8930   24.8050   34.4590 N   0  0  0  0  0  0  0  0  0  0  0  0
   37.9480   28.1240   34.1910 H   0  0  0  0  0  0  0  0  0  0  0  0
   38.4540   27.9330   36.6460 H   0  0  0  0  0  0  0  0  0  0  0  0
   38.2420   23.7470   36.2990 H   0  0  0  0  0  0  0  0  0  0  0  0
   38.9740   28.4640   27.5920 H   0  0  0  0  0  0  0  0  0  0  0  0
   38.2370   28.7130   28.3520 C   0  0  0  0  0  0  0  0  0  0  0  0
   37.3570   29.5370   28.7100 O   0  0  0  0  0  0  0  0  0  0  0  0
   38.3400   27.6490   29.3200 N   0  0  0  0  0  0  0  0  0  0  0  0
   38.9610   26.7950   29.3520 H   0  0  0  0  0  0  0  0  0  0  0  0
  1 15  1  0  0  0  0
  2  8  1  0  0  0  0
  2  1  1  0  0  0  0
  3  9  1  1  0  0  0
  3  2  1  0  0  0  0
  4  3  1  0  0  0  0
  4  5  1  0  0  0  0
  5  6  1  0  0  0  0
  5 12  1  0  0  0  0
  6  1  1  0  0  0  0
  6 13  1  0  0  0  0
  7  2  1  0  0  0  0
 10  4  1  0  0  0  0
 11  5  1  0  0  0  0
 14  6  1  0  0  0  0
 15 20  2  0  0  0  0
 15 16  1  0  0  0  0
 16 17  2  0  0  0  0
 17 18  1  0  0  0  0
 17 22  1  0  0  0  0
 19 23  1  0  0  0  0
 19 18  2  0  0  0  0
 20 19  1  0  0  0  0
 21 16  1  0  0  0  0
 24 25  1  0  0  0  0
 25 26  2  0  0  0  0
 25 27  1  0  0  0  0
 27 28  1  0  0  0  0
 27  3  1  0  0  0  0
M  END
>  <minimizedAffinity>
-4.05774307

$$$$

 OpenBabel03272508393D

 28 29  0  0  1  0  0  0  0  0999 V2000
   38.7000   24.5020   34.6280 N   0  0  0  0  0  0  0  0  0  0  0  0
   37.8690   25.5900   34.1460 C   0  0  0  0  0  0  0  0  0  0  0  0
   37.1600   25.2950   32.8780 C   0  0  2  0  0  0  0  0  0  0  0  0
   37.8030   24.4100   31.9610 N   0  0  0  0  0  0  0  0  0  0  0  0
   38.4410   23.2690   32.6320 C   0  0  0  0  0  0  0  0  0  0  0  0
   39.4480   23.8940   33.5620 C   0  0  0  0  0  0  0  0  0  0  0  0
   38.5190   26.5090   34.1000 H   0  0  0  0  0  0  0  0  0  0  0  0
   37.1290   25.8200   34.9340 H   0  0  0  0  0  0  0  0  0  0  0  0
   36.1540   24.8870   33.1110 H   0  0  0  0  0  0  0  0  0  0  0  0
   37.0460   24.0370   31.3220 H   0  0  0  0  0  0  0  0  0  0  0  0
   38.9400   22.6750   31.8260 H   0  0  0  0  0  0  0  0  0  0  0  0
   37.7400   22.6840   33.2380 H   0  0  0  0  0  0  0  0  0  0  0  0
   40.1350   23.1360   33.9760 H   0  0  0  0  0  0  0  0  0  0  0  0
   40.0240   24.6260   32.9840 H   0  0  0  0  0  0  0  0  0  0  0  0
   38.7490   24.1120   35.9860 C   0  0  0  0  0  0  0  0  0  0  0  0
   37.8590   24.5810   36.9550 C   0  0  0  0  0  0  0  0  0  0  0  0
   37.9570   24.1530   38.2730 C   0  0  0  0  0  0  0  0  0  0  0  0
   38.9530   23.2640   38.5660 N   0  0  0  0  0  0  0  0  0  0  0  0
   39.8140   22.8180   37.5970 C   0  0  0  0  0  0  0  0  0  0  0  0
   39.7140   23.2360   36.3290 N   0  0  0  0  0  0  0  0  0  0  0  0
   37.1020   25.2760   36.6610 H   0  0  0  0  0  0  0  0  0  0  0  0
   37.2820   24.4980   39.0450 H   0  0  0  0  0  0  0  0  0  0  0  0
   40.5680   22.1100   37.9510 H   0  0  0  0  0  0  0  0  0  0  0  0
   36.0800   27.8320   30.8700 H   0  0  0  0  0  0  0  0  0  0  0  0
   35.9520   26.7900   31.1550 C   0  0  0  0  0  0  0  0  0  0  0  0
   35.2990   25.7350   30.9530 O   0  0  0  0  0  0  0  0  0  0  0  0
   36.9450   26.5690   32.1780 N   0  0  0  0  0  0  0  0  0  0  0  0
   37.6630   27.2170   32.6020 H   0  0  0  0  0  0  0  0  0  0  0  0
  1 15  1  0  0  0  0
  2  1  1  0  0  0  0
  2  8  1  0  0  0  0
  3  9  1  1  0  0  0
  3  2  1  0  0  0  0
  4  5  1  0  0  0  0
  4  3  1  0  0  0  0
  5 12  1  0  0  0  0
  5  6  1  0  0  0  0
  6 13  1  0  0  0  0
  6  1  1  0  0  0  0
  7  2  1  0  0  0  0
 10  4  1  0  0  0  0
 11  5  1  0  0  0  0
 14  6  1  0  0  0  0
 15 20  2  0  0  0  0
 15 16  1  0  0  0  0
 16 17  2  0  0  0  0
 17 18  1  0  0  0  0
 17 22  1  0  0  0  0
 19 23  1  0  0  0  0
 19 18  2  0  0  0  0
 20 19  1  0  0  0  0
 21 16  1  0  0  0  0
 24 25  1  0  0  0  0
 25 27  1  0  0  0  0
 26 25  2  0  0  0  0
 27 28  1  0  0  0  0
 27  3  1  0  0  0  0
M  END
>  <minimizedAffinity>
-4.00673389

$$$$

 OpenBabel03272508393D

 28 29  0  0  1  0  0  0  0  0999 V2000
   39.4880   24.3850   35.5370 N   0  0  0  0  0  0  0  0  0  0  0  0
   40.4760   23.5850   36.2370 C   0  0  0  0  0  0  0  0  0  0  0  0
   40.1020   22.1590   36.3920 C   0  0  2  0  0  0  0  0  0  0  0  0
   38.7120   21.8560   36.5010 N   0  0  0  0  0  0  0  0  0  0  0  0
   37.8880   22.6500   35.5790 C   0  0  0  0  0  0  0  0  0  0  0  0
   38.1540   24.0800   35.9720 C   0  0  0  0  0  0  0  0  0  0  0  0
   40.6930   24.1060   37.2130 H   0  0  0  0  0  0  0  0  0  0  0  0
   41.4240   23.6560   35.6750 H   0  0  0  0  0  0  0  0  0  0  0  0
   40.5210   21.5800   35.5420 H   0  0  0  0  0  0  0  0  0  0  0  0
   38.6050   20.8340   36.2440 H   0  0  0  0  0  0  0  0  0  0  0  0
   36.8270   22.3580   35.7820 H   0  0  0  0  0  0  0  0  0  0  0  0
   38.1840   22.5290   34.5310 H   0  0  0  0  0  0  0  0  0  0  0  0
   37.4380   24.7680   35.4890 H   0  0  0  0  0  0  0  0  0  0  0  0
   38.0420   24.1510   37.0610 H   0  0  0  0  0  0  0  0  0  0  0  0
   39.8270   25.3410   34.5510 C   0  0  0  0  0  0  0  0  0  0  0  0
   40.8120   26.3150   34.7300 C   0  0  0  0  0  0  0  0  0  0  0  0
   41.1030   27.2220   33.7190 C   0  0  0  0  0  0  0  0  0  0  0  0
   40.3850   27.1120   32.5610 N   0  0  0  0  0  0  0  0  0  0  0  0
   39.4240   26.1470   32.4090 C   0  0  0  0  0  0  0  0  0  0  0  0
   39.1490   25.2770   33.3890 N   0  0  0  0  0  0  0  0  0  0  0  0
   41.3370   26.3470   35.6600 H   0  0  0  0  0  0  0  0  0  0  0  0
   41.8600   27.9870   33.8270 H   0  0  0  0  0  0  0  0  0  0  0  0
   38.9180   26.1580   31.4410 H   0  0  0  0  0  0  0  0  0  0  0  0
   42.1650   20.6960   38.6810 H   0  0  0  0  0  0  0  0  0  0  0  0
   41.9850   20.8970   37.6280 C   0  0  0  0  0  0  0  0  0  0  0  0
   42.4120   20.7360   36.4560 O   0  0  0  0  0  0  0  0  0  0  0  0
   40.7570   21.6530   37.6060 N   0  0  0  0  0  0  0  0  0  0  0  0
   40.1240   21.9740   38.3890 H   0  0  0  0  0  0  0  0  0  0  0  0
  1  6  1  0  0  0  0
  1  2  1  0  0  0  0
  2  3  1  0  0  0  0
  2  7  1  0  0  0  0
  3  9  1  6  0  0  0
  3  4  1  0  0  0  0
  3 27  1  0  0  0  0
  5 11  1  0  0  0  0
  5  6  1  0  0  0  0
  5  4  1  0  0  0  0
  6 14  1  0  0  0  0
  8  2  1  0  0  0  0
 10  4  1  0  0  0  0
 12  5  1  0  0  0  0
 13  6  1  0  0  0  0
 15 16  1  0  0  0  0
 15  1  1  0  0  0  0
 16 21  1  0  0  0  0
 17 22  1  0  0  0  0
 17 16  2  0  0  0  0
 18 17  1  0  0  0  0
 19 18  2  0  0  0  0
 19 20  1  0  0  0  0
 20 15  2  0  0  0  0
 23 19  1  0  0  0  0
 25 24  1  0  0  0  0
 26 25  2  0  0  0  0
 27 25  1  0  0  0  0
 27 28  1  0  0  0  0
M  END
>  <minimizedAffinity>
-4.00232983

$$$$

 OpenBabel03272508393D

 28 29  0  0  1  0  0  0  0  0999 V2000
   38.3900   23.4380   33.8390 N   0  0  0  0  0  0  0  0  0  0  0  0
   38.0650   23.2080   35.2350 C   0  0  0  0  0  0  0  0  0  0  0  0
   39.0700   23.7380   36.1870 C   0  0  2  0  0  0  0  0  0  0  0  0
   40.4290   23.7680   35.7510 N   0  0  0  0  0  0  0  0  0  0  0  0
   40.5640   24.1980   34.3530 C   0  0  0  0  0  0  0  0  0  0  0  0
   39.7770   23.1820   33.5680 C   0  0  0  0  0  0  0  0  0  0  0  0
   37.8670   22.1040   35.3510 H   0  0  0  0  0  0  0  0  0  0  0  0
   37.0870   23.6810   35.4340 H   0  0  0  0  0  0  0  0  0  0  0  0
   38.7770   24.7650   36.4890 H   0  0  0  0  0  0  0  0  0  0  0  0
   40.9260   24.4740   36.3650 H   0  0  0  0  0  0  0  0  0  0  0  0
   41.6570   24.1450   34.1160 H   0  0  0  0  0  0  0  0  0  0  0  0
   40.1220   25.1840   34.1660 H   0  0  0  0  0  0  0  0  0  0  0  0
   39.9680   23.2770   32.4850 H   0  0  0  0  0  0  0  0  0  0  0  0
   40.0920   22.1870   33.9040 H   0  0  0  0  0  0  0  0  0  0  0  0
   37.4360   23.8620   32.8850 C   0  0  0  0  0  0  0  0  0  0  0  0
   36.7080   22.9830   32.0800 C   0  0  0  0  0  0  0  0  0  0  0  0
   35.7790   23.4630   31.1660 C   0  0  0  0  0  0  0  0  0  0  0  0
   35.6200   24.8190   31.0960 N   0  0  0  0  0  0  0  0  0  0  0  0
   36.3460   25.6620   31.8970 C   0  0  0  0  0  0  0  0  0  0  0  0
   37.2390   25.1910   32.7760 N   0  0  0  0  0  0  0  0  0  0  0  0
   36.8800   21.9330   32.1840 H   0  0  0  0  0  0  0  0  0  0  0  0
   35.2000   22.8080   30.5300 H   0  0  0  0  0  0  0  0  0  0  0  0
   36.1320   26.7240   31.7510 H   0  0  0  0  0  0  0  0  0  0  0  0
   38.6020   22.4810   39.3230 H   0  0  0  0  0  0  0  0  0  0  0  0
   38.4750   23.3390   38.6670 C   0  0  0  0  0  0  0  0  0  0  0  0
   38.0530   24.5210   38.5770 O   0  0  0  0  0  0  0  0  0  0  0  0
   39.0180   22.9120   37.4010 N   0  0  0  0  0  0  0  0  0  0  0  0
   39.4540   21.9960   37.1040 H   0  0  0  0  0  0  0  0  0  0  0  0
  1  2  1  0  0  0  0
  2  7  1  0  0  0  0
  2  8  1  0  0  0  0
  2  3  1  0  0  0  0
  3  9  1  1  0  0  0
  3 27  1  0  0  0  0
  4  3  1  0  0  0  0
  4 10  1  0  0  0  0
  5  4  1  0  0  0  0
  6  1  1  0  0  0  0
  6 14  1  0  0  0  0
  6  5  1  0  0  0  0
 11  5  1  0  0  0  0
 12  5  1  0  0  0  0
 13  6  1  0  0  0  0
 15  1  1  0  0  0  0
 16 21  1  0  0  0  0
 16 15  2  0  0  0  0
 17 16  1  0  0  0  0
 18 17  2  0  0  0  0
 18 19  1  0  0  0  0
 19 20  2  0  0  0  0
 20 15  1  0  0  0  0
 22 17  1  0  0  0  0
 23 19  1  0  0  0  0
 25 24  1  0  0  0  0
 26 25  2  0  0  0  0
 27 25  1  0  0  0  0
 28 27  1  0  0  0  0
M  END
>  <minimizedAffinity>
-3.97031784

$$$$

 OpenBabel03272508393D

 28 29  0  0  1  0  0  0  0  0999 V2000
   38.6010   26.0840   35.2040 N   0  0  0  0  0  0  0  0  0  0  0  0
   37.3190   26.5060   34.6690 C   0  0  0  0  0  0  0  0  0  0  0  0
   37.3470   26.8440   33.2250 C   0  0  2  0  0  0  0  0  0  0  0  0
   38.5650   27.3750   32.7020 N   0  0  0  0  0  0  0  0  0  0  0  0
   39.7520   26.6940   33.2360 C   0  0  0  0  0  0  0  0  0  0  0  0
   39.6730   26.9100   34.7240 C   0  0  0  0  0  0  0  0  0  0  0  0
   36.9460   27.3430   35.3230 H   0  0  0  0  0  0  0  0  0  0  0  0
   36.5990   25.6860   34.8390 H   0  0  0  0  0  0  0  0  0  0  0  0
   37.0780   25.9420   32.6360 H   0  0  0  0  0  0  0  0  0  0  0  0
   38.5350   27.2200   31.6550 H   0  0  0  0  0  0  0  0  0  0  0  0
   40.6350   27.2170   32.7900 H   0  0  0  0  0  0  0  0  0  0  0  0
   39.7430   25.6140   33.0510 H   0  0  0  0  0  0  0  0  0  0  0  0
   40.6160   26.6220   35.2210 H   0  0  0  0  0  0  0  0  0  0  0  0
   39.4890   27.9780   34.8950 H   0  0  0  0  0  0  0  0  0  0  0  0
   38.7450   24.9900   36.0880 C   0  0  0  0  0  0  0  0  0  0  0  0
   39.6070   23.9160   35.8520 C   0  0  0  0  0  0  0  0  0  0  0  0
   39.7070   22.8750   36.7650 C   0  0  0  0  0  0  0  0  0  0  0  0
   38.9300   22.9550   37.8870 N   0  0  0  0  0  0  0  0  0  0  0  0
   38.0920   24.0190   38.0960 C   0  0  0  0  0  0  0  0  0  0  0  0
   38.0010   25.0190   37.2110 N   0  0  0  0  0  0  0  0  0  0  0  0
   40.1870   23.9140   34.9550 H   0  0  0  0  0  0  0  0  0  0  0  0
   40.3660   22.0310   36.6110 H   0  0  0  0  0  0  0  0  0  0  0  0
   37.5220   23.9720   39.0280 H   0  0  0  0  0  0  0  0  0  0  0  0
   34.9580   28.8780   31.8870 H   0  0  0  0  0  0  0  0  0  0  0  0
   35.6840   28.0910   31.6950 C   0  0  0  0  0  0  0  0  0  0  0  0
   36.1860   27.3360   30.8230 O   0  0  0  0  0  0  0  0  0  0  0  0
   36.2940   27.8380   32.9770 N   0  0  0  0  0  0  0  0  0  0  0  0
   36.1280   28.2740   33.9250 H   0  0  0  0  0  0  0  0  0  0  0  0
  1 15  1  0  0  0  0
  2  8  1  0  0  0  0
  2  1  1  0  0  0  0
  2  7  1  0  0  0  0
  3  9  1  6  0  0  0
  3  2  1  0  0  0  0
  4  3  1  0  0  0  0
  4  5  1  0  0  0  0
  5  6  1  0  0  0  0
  6 14  1  0  0  0  0
  6  1  1  0  0  0  0
  6 13  1  0  0  0  0
 10  4  1  0  0  0  0
 11  5  1  0  0  0  0
 12  5  1  0  0  0  0
 15 20  1  0  0  0  0
 16 15  2  0  0  0  0
 16 17  1  0  0  0  0
 17 18  2  0  0  0  0
 18 19  1  0  0  0  0
 19 23  1  0  0  0  0
 20 19  2  0  0  0  0
 21 16  1  0  0  0  0
 22 17  1  0  0  0  0
 25 24  1  0  0  0  0
 25 27  1  0  0  0  0
 26 25  2  0  0  0  0
 27  3  1  0  0  0  0
 27 28  1  0  0  0  0
M  END
>  <minimizedAffinity>
-3.88275886

$$$$

 OpenBabel03272508393D

 28 29  0  0  1  0  0  0  0  0999 V2000
   37.6460   24.3670   32.6500 N   0  0  0  0  0  0  0  0  0  0  0  0
   38.0620   25.6180   32.0420 C   0  0  0  0  0  0  0  0  0  0  0  0
   37.0040   26.2870   31.2480 C   0  0  2  0  0  0  0  0  0  0  0  0
   36.0430   25.4500   30.6050 N   0  0  0  0  0  0  0  0  0  0  0  0
   35.6120   24.3310   31.4540 C   0  0  0  0  0  0  0  0  0  0  0  0
   36.8770   23.5660   31.7390 C   0  0  0  0  0  0  0  0  0  0  0  0
   39.0020   25.4070   31.4590 H   0  0  0  0  0  0  0  0  0  0  0  0
   38.3910   26.2920   32.8540 H   0  0  0  0  0  0  0  0  0  0  0  0
   36.4630   27.0060   31.8970 H   0  0  0  0  0  0  0  0  0  0  0  0
   35.1990   26.0590   30.4050 H   0  0  0  0  0  0  0  0  0  0  0  0
   34.8980   23.7300   30.8360 H   0  0  0  0  0  0  0  0  0  0  0  0
   35.1940   24.6600   32.4120 H   0  0  0  0  0  0  0  0  0  0  0  0
   36.6580   22.5870   32.2000 H   0  0  0  0  0  0  0  0  0  0  0  0
   37.3910   23.4070   30.7840 H   0  0  0  0  0  0  0  0  0  0  0  0
   37.9740   24.0080   33.9780 C   0  0  0  0  0  0  0  0  0  0  0  0
   38.2600   24.9390   34.9800 C   0  0  0  0  0  0  0  0  0  0  0  0
   38.5680   24.5210   36.2680 C   0  0  0  0  0  0  0  0  0  0  0  0
   38.5790   23.1730   36.4980 N   0  0  0  0  0  0  0  0  0  0  0  0
   38.2950   22.2800   35.4980 C   0  0  0  0  0  0  0  0  0  0  0  0
   37.9990   22.6910   34.2580 N   0  0  0  0  0  0  0  0  0  0  0  0
   38.2340   25.9790   34.7340 H   0  0  0  0  0  0  0  0  0  0  0  0
   38.7920   25.2170   37.0640 H   0  0  0  0  0  0  0  0  0  0  0  0
   38.3350   21.2300   35.8020 H   0  0  0  0  0  0  0  0  0  0  0  0
   37.9610   28.6730   29.0050 H   0  0  0  0  0  0  0  0  0  0  0  0
   37.2560   28.4010   29.7870 C   0  0  0  0  0  0  0  0  0  0  0  0
   36.2560   28.7720   30.4540 O   0  0  0  0  0  0  0  0  0  0  0  0
   37.6630   27.0800   30.2010 N   0  0  0  0  0  0  0  0  0  0  0  0
   38.4500   26.4590   29.8690 H   0  0  0  0  0  0  0  0  0  0  0  0
  1 15  1  0  0  0  0
  2  1  1  0  0  0  0
  2  8  1  0  0  0  0
  3  9  1  1  0  0  0
  3  2  1  0  0  0  0
  4  3  1  0  0  0  0
  4  5  1  0  0  0  0
  5  6  1  0  0  0  0
  5 12  1  0  0  0  0
  6 13  1  0  0  0  0
  6  1  1  0  0  0  0
  7  2  1  0  0  0  0
 10  4  1  0  0  0  0
 11  5  1  0  0  0  0
 14  6  1  0  0  0  0
 15 20  2  0  0  0  0
 15 16  1  0  0  0  0
 16 17  2  0  0  0  0
 17 18  1  0  0  0  0
 17 22  1  0  0  0  0
 19 23  1  0  0  0  0
 19 18  2  0  0  0  0
 20 19  1  0  0  0  0
 21 16  1  0  0  0  0
 24 25  1  0  0  0  0
 25 27  1  0  0  0  0
 25 26  2  0  0  0  0
 27  3  1  0  0  0  0
 28 27  1  0  0  0  0
M  END
>  <minimizedAffinity>
-3.8772192

$$$$

 OpenBabel03272508393D

 28 29  0  0  1  0  0  0  0  0999 V2000
   37.8160   27.1240   31.7510 N   0  0  0  0  0  0  0  0  0  0  0  0
   38.7700   26.9690   30.6680 C   0  0  0  0  0  0  0  0  0  0  0  0
   38.5140   27.8510   29.5040 C   0  0  2  0  0  0  0  0  0  0  0  0
   37.1550   28.1970   29.2340 N   0  0  0  0  0  0  0  0  0  0  0  0
   36.3950   28.4920   30.4560 C   0  0  0  0  0  0  0  0  0  0  0  0
   36.4700   27.2210   31.2620 C   0  0  0  0  0  0  0  0  0  0  0  0
   38.8020   25.8730   30.4080 H   0  0  0  0  0  0  0  0  0  0  0  0
   39.7750   27.1810   31.0740 H   0  0  0  0  0  0  0  0  0  0  0  0
   39.0960   28.7890   29.6250 H   0  0  0  0  0  0  0  0  0  0  0  0
   37.1800   29.0740   28.6400 H   0  0  0  0  0  0  0  0  0  0  0  0
   35.3480   28.7080   30.1250 H   0  0  0  0  0  0  0  0  0  0  0  0
   36.8410   29.2960   31.0530 H   0  0  0  0  0  0  0  0  0  0  0  0
   35.7660   27.2450   32.1120 H   0  0  0  0  0  0  0  0  0  0  0  0
   36.2040   26.3910   30.5970 H   0  0  0  0  0  0  0  0  0  0  0  0
   38.1960   27.1680   33.1130 C   0  0  0  0  0  0  0  0  0  0  0  0
   37.3140   27.4850   34.1490 C   0  0  0  0  0  0  0  0  0  0  0  0
   37.7500   27.5040   35.4680 C   0  0  0  0  0  0  0  0  0  0  0  0
   39.0640   27.2040   35.6930 N   0  0  0  0  0  0  0  0  0  0  0  0
   39.9100   26.8960   34.6600 C   0  0  0  0  0  0  0  0  0  0  0  0
   39.4830   26.8800   33.3910 N   0  0  0  0  0  0  0  0  0  0  0  0
   36.2990   27.7100   33.9050 H   0  0  0  0  0  0  0  0  0  0  0  0
   37.0910   27.7440   36.2910 H   0  0  0  0  0  0  0  0  0  0  0  0
   40.9360   26.6740   34.9630 H   0  0  0  0  0  0  0  0  0  0  0  0
   39.9070   27.0520   26.4950 H   0  0  0  0  0  0  0  0  0  0  0  0
   39.6380   27.8530   27.1810 C   0  0  0  0  0  0  0  0  0  0  0  0
   39.6410   29.0960   27.3730 O   0  0  0  0  0  0  0  0  0  0  0  0
   39.0400   27.1800   28.3080 N   0  0  0  0  0  0  0  0  0  0  0  0
   38.8700   26.1550   28.4960 H   0  0  0  0  0  0  0  0  0  0  0  0
  1 15  1  0  0  0  0
  2  8  1  0  0  0  0
  2  1  1  0  0  0  0
  3  9  1  1  0  0  0
  3  2  1  0  0  0  0
  4  3  1  0  0  0  0
  4  5  1  0  0  0  0
  5 12  1  0  0  0  0
  5  6  1  0  0  0  0
  6  1  1  0  0  0  0
  6 13  1  0  0  0  0
  7  2  1  0  0  0  0
 10  4  1  0  0  0  0
 11  5  1  0  0  0  0
 14  6  1  0  0  0  0
 15 20  2  0  0  0  0
 15 16  1  0  0  0  0
 16 17  2  0  0  0  0
 17 18  1  0  0  0  0
 17 22  1  0  0  0  0
 19 23  1  0  0  0  0
 19 18  2  0  0  0  0
 20 19  1  0  0  0  0
 21 16  1  0  0  0  0
 24 25  1  0  0  0  0
 25 26  2  0  0  0  0
 25 27  1  0  0  0  0
 27 28  1  0  0  0  0
 27  3  1  0  0  0  0
M  END
>  <minimizedAffinity>
-3.87262583

$$$$
