
 OpenBabel03272510033D

 17 17  0  0  0  0  0  0  0  0999 V2000
   38.1490   22.7570   34.9030 C   0  0  0  0  0  0  0  0  0  0  0  0
   38.1790   24.0090   34.2830 C   0  0  0  0  0  0  0  0  0  0  0  0
   38.2030   25.1330   35.0960 C   0  0  0  0  0  0  0  0  0  0  0  0
   38.1970   24.9620   36.4490 N   0  0  0  0  0  0  0  0  0  0  0  0
   38.1680   23.7380   37.0030 C   0  0  0  0  0  0  0  0  0  0  0  0
   38.1430   22.6380   36.2380 N   0  0  0  0  0  0  0  0  0  0  0  0
   38.1310   21.9110   34.2270 H   0  0  0  0  0  0  0  0  0  0  0  0
   38.1850   24.1830   33.2140 H   0  0  0  0  0  0  0  0  0  0  0  0
   39.4240   28.1280   34.0630 H   0  0  0  0  0  0  0  0  0  0  0  0
   39.4620   27.1340   34.4860 C   0  0  0  0  0  0  0  0  0  0  0  0
   40.5080   26.5500   34.9200 O   0  0  0  0  0  0  0  0  0  0  0  0
   38.2350   26.4470   34.5520 N   0  0  0  0  0  0  0  0  0  0  0  0
   37.3370   26.8590   34.2180 H   0  0  0  0  0  0  0  0  0  0  0  0
   38.1630   23.6560   38.4840 C   0  0  0  0  0  0  0  0  0  0  0  0
   39.4160   23.3840   39.0070 F   0  0  0  0  0  0  0  0  0  0  0  0
   37.7740   24.8840   39.0450 F   0  0  0  0  0  0  0  0  0  0  0  0
   37.2950   22.7330   38.9890 F   0  0  0  0  0  0  0  0  0  0  0  0
  1  6  1  0  0  0  0
  2  1  2  0  0  0  0
  2  3  1  0  0  0  0
  3  4  2  0  0  0  0
  4  5  1  0  0  0  0
  5 14  1  0  0  0  0
  6  5  2  0  0  0  0
  7  1  1  0  0  0  0
  8  2  1  0  0  0  0
  9 10  1  0  0  0  0
 10 12  1  0  0  0  0
 10 11  2  0  0  0  0
 12  3  1  0  0  0  0
 13 12  1  0  0  0  0
 14 17  1  0  0  0  0
 14 15  1  0  0  0  0
 14 16  1  0  0  0  0
M  END
>  <minimizedAffinity>
-4.16853905

$$$$

 OpenBabel03272510033D

 17 17  0  0  0  0  0  0  0  0999 V2000
   38.2480   23.5010   33.9440 C   0  0  0  0  0  0  0  0  0  0  0  0
   38.6690   22.5880   34.9150 C   0  0  0  0  0  0  0  0  0  0  0  0
   38.9560   23.0770   36.1820 C   0  0  0  0  0  0  0  0  0  0  0  0
   38.8130   24.4120   36.4150 N   0  0  0  0  0  0  0  0  0  0  0  0
   38.4050   25.2550   35.4520 C   0  0  0  0  0  0  0  0  0  0  0  0
   38.1220   24.8070   34.2200 N   0  0  0  0  0  0  0  0  0  0  0  0
   38.0360   23.0720   32.9720 H   0  0  0  0  0  0  0  0  0  0  0  0
   38.7930   21.5230   34.7660 H   0  0  0  0  0  0  0  0  0  0  0  0
   41.0400   21.4170   38.2850 H   0  0  0  0  0  0  0  0  0  0  0  0
   40.7700   22.0820   37.4780 C   0  0  0  0  0  0  0  0  0  0  0  0
   41.5840   22.7350   36.7470 O   0  0  0  0  0  0  0  0  0  0  0  0
   39.3910   22.2200   37.2300 N   0  0  0  0  0  0  0  0  0  0  0  0
   38.6640   21.7180   37.7840 H   0  0  0  0  0  0  0  0  0  0  0  0
   38.2810   26.6910   35.8030 C   0  0  0  0  0  0  0  0  0  0  0  0
   37.1240   27.2650   35.3040 F   0  0  0  0  0  0  0  0  0  0  0  0
   38.2160   26.8530   37.1980 F   0  0  0  0  0  0  0  0  0  0  0  0
   39.3320   27.4590   35.3960 F   0  0  0  0  0  0  0  0  0  0  0  0
  1  6  2  0  0  0  0
  1  2  1  0  0  0  0
  2  3  2  0  0  0  0
  3  4  1  0  0  0  0
  3 12  1  0  0  0  0
  5 14  1  0  0  0  0
  5  4  2  0  0  0  0
  6  5  1  0  0  0  0
  7  1  1  0  0  0  0
  8  2  1  0  0  0  0
 10  9  1  0  0  0  0
 11 10  2  0  0  0  0
 12 10  1  0  0  0  0
 12 13  1  0  0  0  0
 14 16  1  0  0  0  0
 15 14  1  0  0  0  0
 17 14  1  0  0  0  0
M  END
>  <minimizedAffinity>
-4.04009962

$$$$

 OpenBabel03272510033D

 17 17  0  0  0  0  0  0  0  0999 V2000
   37.8720   25.5910   35.0570 C   0  0  0  0  0  0  0  0  0  0  0  0
   38.1900   24.5820   34.1440 C   0  0  0  0  0  0  0  0  0  0  0  0
   38.5220   23.3330   34.6480 C   0  0  0  0  0  0  0  0  0  0  0  0
   38.5230   23.1530   36.0000 N   0  0  0  0  0  0  0  0  0  0  0  0
   38.2100   24.1520   36.8430 C   0  0  0  0  0  0  0  0  0  0  0  0
   37.8860   25.3670   36.3790 N   0  0  0  0  0  0  0  0  0  0  0  0
   37.6190   26.5470   34.6160 H   0  0  0  0  0  0  0  0  0  0  0  0
   38.2000   24.6900   33.0660 H   0  0  0  0  0  0  0  0  0  0  0  0
   38.1580   20.5750   32.7030 H   0  0  0  0  0  0  0  0  0  0  0  0
   37.8420   21.3800   33.3500 C   0  0  0  0  0  0  0  0  0  0  0  0
   36.6480   21.5990   33.7380 O   0  0  0  0  0  0  0  0  0  0  0  0
   38.8590   22.2490   33.7920 N   0  0  0  0  0  0  0  0  0  0  0  0
   39.8590   22.1350   33.5190 H   0  0  0  0  0  0  0  0  0  0  0  0
   38.2390   23.8570   38.2960 C   0  0  0  0  0  0  0  0  0  0  0  0
   37.9340   24.9630   39.0710 F   0  0  0  0  0  0  0  0  0  0  0  0
   37.2760   22.8860   38.6210 F   0  0  0  0  0  0  0  0  0  0  0  0
   39.4270   23.3550   38.7410 F   0  0  0  0  0  0  0  0  0  0  0  0
  1  6  1  0  0  0  0
  2  3  1  0  0  0  0
  2  1  2  0  0  0  0
  3  4  2  0  0  0  0
  4  5  1  0  0  0  0
  5 14  1  0  0  0  0
  6  5  2  0  0  0  0
  7  1  1  0  0  0  0
  8  2  1  0  0  0  0
  9 10  1  0  0  0  0
 10 11  2  0  0  0  0
 10 12  1  0  0  0  0
 12  3  1  0  0  0  0
 13 12  1  0  0  0  0
 14 16  1  0  0  0  0
 14 17  1  0  0  0  0
 14 15  1  0  0  0  0
M  END
>  <minimizedAffinity>
-3.98325562

$$$$

 OpenBabel03272510033D

 17 17  0  0  0  0  0  0  0  0999 V2000
   38.1630   23.7790   38.2000 C   0  0  0  0  0  0  0  0  0  0  0  0
   37.7610   24.5410   37.0990 C   0  0  0  0  0  0  0  0  0  0  0  0
   38.5490   24.4960   35.9580 C   0  0  0  0  0  0  0  0  0  0  0  0
   39.6680   23.7180   35.9670 N   0  0  0  0  0  0  0  0  0  0  0  0
   40.0180   23.0010   37.0490 C   0  0  0  0  0  0  0  0  0  0  0  0
   39.2720   23.0280   38.1620 N   0  0  0  0  0  0  0  0  0  0  0  0
   37.5150   23.8470   39.0650 H   0  0  0  0  0  0  0  0  0  0  0  0
   36.8800   25.1700   37.0560 H   0  0  0  0  0  0  0  0  0  0  0  0
   38.3860   27.0810   33.7640 H   0  0  0  0  0  0  0  0  0  0  0  0
   38.6700   26.5660   34.6700 C   0  0  0  0  0  0  0  0  0  0  0  0
   39.3690   27.0570   35.6160 O   0  0  0  0  0  0  0  0  0  0  0  0
   38.2160   25.2390   34.7920 N   0  0  0  0  0  0  0  0  0  0  0  0
   37.6400   24.7690   34.0610 H   0  0  0  0  0  0  0  0  0  0  0  0
   41.2530   22.1840   36.9600 C   0  0  0  0  0  0  0  0  0  0  0  0
   41.3350   21.4660   35.7790 F   0  0  0  0  0  0  0  0  0  0  0  0
   42.3910   23.0080   36.9860 F   0  0  0  0  0  0  0  0  0  0  0  0
   41.4160   21.3050   37.9910 F   0  0  0  0  0  0  0  0  0  0  0  0
  1  7  1  0  0  0  0
  2  1  2  0  0  0  0
  3  4  2  0  0  0  0
  3  2  1  0  0  0  0
  4  5  1  0  0  0  0
  5  6  2  0  0  0  0
  6  1  1  0  0  0  0
  8  2  1  0  0  0  0
  9 10  1  0  0  0  0
 10 12  1  0  0  0  0
 10 11  2  0  0  0  0
 12  3  1  0  0  0  0
 13 12  1  0  0  0  0
 14 16  1  0  0  0  0
 14  5  1  0  0  0  0
 14 17  1  0  0  0  0
 15 14  1  0  0  0  0
M  END
>  <minimizedAffinity>
-3.89848566

$$$$

 OpenBabel03272510033D

 17 17  0  0  0  0  0  0  0  0999 V2000
   38.0810   24.4550   38.6450 C   0  0  0  0  0  0  0  0  0  0  0  0
   38.7700   23.2490   38.4850 C   0  0  0  0  0  0  0  0  0  0  0  0
   39.2500   22.9410   37.2200 C   0  0  0  0  0  0  0  0  0  0  0  0
   39.0280   23.8230   36.2040 N   0  0  0  0  0  0  0  0  0  0  0  0
   38.3610   24.9720   36.4030 C   0  0  0  0  0  0  0  0  0  0  0  0
   37.8870   25.2910   37.6160 N   0  0  0  0  0  0  0  0  0  0  0  0
   37.7270   24.6500   39.6500 H   0  0  0  0  0  0  0  0  0  0  0  0
   38.9640   22.5260   39.2680 H   0  0  0  0  0  0  0  0  0  0  0  0
   41.8520   20.8260   36.6910 H   0  0  0  0  0  0  0  0  0  0  0  0
   41.3670   21.7710   36.8870 C   0  0  0  0  0  0  0  0  0  0  0  0
   41.9550   22.8900   37.0490 O   0  0  0  0  0  0  0  0  0  0  0  0
   39.9610   21.7360   36.9660 N   0  0  0  0  0  0  0  0  0  0  0  0
   39.4100   20.8600   36.8440 H   0  0  0  0  0  0  0  0  0  0  0  0
   38.1700   25.8660   35.2350 C   0  0  0  0  0  0  0  0  0  0  0  0
   36.8600   26.2950   35.0990 F   0  0  0  0  0  0  0  0  0  0  0  0
   38.9400   27.0340   35.3770 F   0  0  0  0  0  0  0  0  0  0  0  0
   38.5530   25.3200   34.0450 F   0  0  0  0  0  0  0  0  0  0  0  0
  1  7  1  0  0  0  0
  2  1  1  0  0  0  0
  2  8  1  0  0  0  0
  3  2  2  0  0  0  0
  4  5  2  0  0  0  0
  4  3  1  0  0  0  0
  5  6  1  0  0  0  0
  6  1  2  0  0  0  0
  9 10  1  0  0  0  0
 10 12  1  0  0  0  0
 10 11  2  0  0  0  0
 12  3  1  0  0  0  0
 13 12  1  0  0  0  0
 14 16  1  0  0  0  0
 14  5  1  0  0  0  0
 15 14  1  0  0  0  0
 17 14  1  0  0  0  0
M  END
>  <minimizedAffinity>
-3.89742494

$$$$

 OpenBabel03272510033D

 17 17  0  0  0  0  0  0  0  0999 V2000
   40.0370   23.0960   34.6010 C   0  0  0  0  0  0  0  0  0  0  0  0
   39.1410   22.5670   35.5340 C   0  0  0  0  0  0  0  0  0  0  0  0
   38.3830   23.4570   36.2810 C   0  0  0  0  0  0  0  0  0  0  0  0
   38.5480   24.7940   36.0690 N   0  0  0  0  0  0  0  0  0  0  0  0
   39.4220   25.2600   35.1610 C   0  0  0  0  0  0  0  0  0  0  0  0
   40.1650   24.4190   34.4270 N   0  0  0  0  0  0  0  0  0  0  0  0
   40.6050   22.3620   34.0420 H   0  0  0  0  0  0  0  0  0  0  0  0
   38.9840   21.5130   35.7280 H   0  0  0  0  0  0  0  0  0  0  0  0
   37.0320   22.7330   39.3090 H   0  0  0  0  0  0  0  0  0  0  0  0
   37.7810   23.0910   38.6180 C   0  0  0  0  0  0  0  0  0  0  0  0
   38.9180   23.5700   38.9360 O   0  0  0  0  0  0  0  0  0  0  0  0
   37.4470   23.0070   37.2530 N   0  0  0  0  0  0  0  0  0  0  0  0
   36.5380   22.6260   36.9150 H   0  0  0  0  0  0  0  0  0  0  0  0
   39.5290   26.7310   35.0040 C   0  0  0  0  0  0  0  0  0  0  0  0
   39.0780   27.4210   36.1160 F   0  0  0  0  0  0  0  0  0  0  0  0
   40.8720   27.1120   34.8380 F   0  0  0  0  0  0  0  0  0  0  0  0
   38.8730   27.2260   33.9160 F   0  0  0  0  0  0  0  0  0  0  0  0
  1  2  1  0  0  0  0
  2  8  1  0  0  0  0
  2  3  2  0  0  0  0
  3 12  1  0  0  0  0
  4  3  1  0  0  0  0
  5  4  2  0  0  0  0
  6  1  2  0  0  0  0
  6  5  1  0  0  0  0
  7  1  1  0  0  0  0
 10 11  2  0  0  0  0
 10  9  1  0  0  0  0
 12 10  1  0  0  0  0
 13 12  1  0  0  0  0
 14  5  1  0  0  0  0
 14 15  1  0  0  0  0
 16 14  1  0  0  0  0
 17 14  1  0  0  0  0
M  END
>  <minimizedAffinity>
-3.86525941

$$$$

 OpenBabel03272510033D

 17 17  0  0  0  0  0  0  0  0999 V2000
   37.7010   22.0420   34.7210 C   0  0  0  0  0  0  0  0  0  0  0  0
   38.1520   23.0510   33.8670 C   0  0  0  0  0  0  0  0  0  0  0  0
   38.6060   24.2300   34.4410 C   0  0  0  0  0  0  0  0  0  0  0  0
   38.5890   24.3450   35.7990 N   0  0  0  0  0  0  0  0  0  0  0  0
   38.1460   23.3480   36.5840 C   0  0  0  0  0  0  0  0  0  0  0  0
   37.7030   22.2000   36.0530 N   0  0  0  0  0  0  0  0  0  0  0  0
   37.3580   21.1410   34.2260 H   0  0  0  0  0  0  0  0  0  0  0  0
   38.1800   22.9950   32.7860 H   0  0  0  0  0  0  0  0  0  0  0  0
   38.5840   27.0490   32.5490 H   0  0  0  0  0  0  0  0  0  0  0  0
   38.1640   26.2520   33.1450 C   0  0  0  0  0  0  0  0  0  0  0  0
   36.9300   26.1010   33.4210 O   0  0  0  0  0  0  0  0  0  0  0  0
   39.0830   25.3100   33.6480 N   0  0  0  0  0  0  0  0  0  0  0  0
   40.1080   25.3660   33.4640 H   0  0  0  0  0  0  0  0  0  0  0  0
   38.1670   23.5680   38.0510 C   0  0  0  0  0  0  0  0  0  0  0  0
   37.1820   22.8540   38.7120 F   0  0  0  0  0  0  0  0  0  0  0  0
   39.3860   23.1320   38.5970 F   0  0  0  0  0  0  0  0  0  0  0  0
   38.0490   24.8760   38.4210 F   0  0  0  0  0  0  0  0  0  0  0  0
  1  6  1  0  0  0  0
  2  3  1  0  0  0  0
  2  1  2  0  0  0  0
  3  4  2  0  0  0  0
  4  5  1  0  0  0  0
  5 14  1  0  0  0  0
  6  5  2  0  0  0  0
  7  1  1  0  0  0  0
  8  2  1  0  0  0  0
  9 10  1  0  0  0  0
 10 11  2  0  0  0  0
 10 12  1  0  0  0  0
 12  3  1  0  0  0  0
 13 12  1  0  0  0  0
 14 17  1  0  0  0  0
 14 16  1  0  0  0  0
 14 15  1  0  0  0  0
M  END
>  <minimizedAffinity>
-3.83703732

$$$$

 OpenBabel03272510033D

 17 17  0  0  0  0  0  0  0  0999 V2000
   40.5620   22.4810   35.7890 C   0  0  0  0  0  0  0  0  0  0  0  0
   39.8450   22.7830   34.6280 C   0  0  0  0  0  0  0  0  0  0  0  0
   38.6130   23.4050   34.7700 C   0  0  0  0  0  0  0  0  0  0  0  0
   38.1670   23.6900   36.0270 N   0  0  0  0  0  0  0  0  0  0  0  0
   38.8900   23.3830   37.1170 C   0  0  0  0  0  0  0  0  0  0  0  0
   40.0820   22.7810   37.0040 N   0  0  0  0  0  0  0  0  0  0  0  0
   41.5170   21.9960   35.6260 H   0  0  0  0  0  0  0  0  0  0  0  0
   40.1680   22.5710   33.6160 H   0  0  0  0  0  0  0  0  0  0  0  0
   37.2700   25.2520   32.2590 H   0  0  0  0  0  0  0  0  0  0  0  0
   37.8990   25.0500   33.1140 C   0  0  0  0  0  0  0  0  0  0  0  0
   38.6910   25.8800   33.6680 O   0  0  0  0  0  0  0  0  0  0  0  0
   37.8160   23.7480   33.6440 N   0  0  0  0  0  0  0  0  0  0  0  0
   37.1910   23.0140   33.2460 H   0  0  0  0  0  0  0  0  0  0  0  0
   38.3190   23.7340   38.4400 C   0  0  0  0  0  0  0  0  0  0  0  0
   37.3340   22.8490   38.8490 F   0  0  0  0  0  0  0  0  0  0  0  0
   39.3110   23.6850   39.4340 F   0  0  0  0  0  0  0  0  0  0  0  0
   37.7970   24.9920   38.5080 F   0  0  0  0  0  0  0  0  0  0  0  0
  1  6  1  0  0  0  0
  2  3  1  0  0  0  0
  2  1  2  0  0  0  0
  3  4  2  0  0  0  0
  4  5  1  0  0  0  0
  5 14  1  0  0  0  0
  6  5  2  0  0  0  0
  7  1  1  0  0  0  0
  8  2  1  0  0  0  0
  9 10  1  0  0  0  0
 10 12  1  0  0  0  0
 10 11  2  0  0  0  0
 12  3  1  0  0  0  0
 13 12  1  0  0  0  0
 14 17  1  0  0  0  0
 14 15  1  0  0  0  0
 14 16  1  0  0  0  0
M  END
>  <minimizedAffinity>
-3.82734275

$$$$

 OpenBabel03272510033D

 17 17  0  0  0  0  0  0  0  0999 V2000
   40.6590   25.4830   34.6880 C   0  0  0  0  0  0  0  0  0  0  0  0
   39.9340   26.6710   34.8140 C   0  0  0  0  0  0  0  0  0  0  0  0
   38.7870   26.6500   35.5940 C   0  0  0  0  0  0  0  0  0  0  0  0
   38.4260   25.4800   36.1940 N   0  0  0  0  0  0  0  0  0  0  0  0
   39.1540   24.3600   36.0460 C   0  0  0  0  0  0  0  0  0  0  0  0
   40.2650   24.3560   35.2970 N   0  0  0  0  0  0  0  0  0  0  0  0
   41.5460   25.5510   34.0690 H   0  0  0  0  0  0  0  0  0  0  0  0
   40.1900   27.6170   34.3530 H   0  0  0  0  0  0  0  0  0  0  0  0
   36.3720   28.9760   35.0610 H   0  0  0  0  0  0  0  0  0  0  0  0
   36.9440   28.0790   34.8720 C   0  0  0  0  0  0  0  0  0  0  0  0
   36.7510   27.2620   33.9130 O   0  0  0  0  0  0  0  0  0  0  0  0
   37.9880   27.8120   35.7780 N   0  0  0  0  0  0  0  0  0  0  0  0
   38.2090   28.4340   36.5860 H   0  0  0  0  0  0  0  0  0  0  0  0
   38.6790   23.1370   36.7390 C   0  0  0  0  0  0  0  0  0  0  0  0
   38.5330   23.3200   38.1030 F   0  0  0  0  0  0  0  0  0  0  0  0
   37.4090   22.7640   36.2660 F   0  0  0  0  0  0  0  0  0  0  0  0
   39.4740   22.0450   36.5500 F   0  0  0  0  0  0  0  0  0  0  0  0
  1  2  2  0  0  0  0
  1  6  1  0  0  0  0
  2  3  1  0  0  0  0
  3 12  1  0  0  0  0
  3  4  2  0  0  0  0
  5  4  1  0  0  0  0
  5 14  1  0  0  0  0
  6  5  2  0  0  0  0
  7  1  1  0  0  0  0
  8  2  1  0  0  0  0
 10  9  1  0  0  0  0
 10 12  1  0  0  0  0
 11 10  2  0  0  0  0
 12 13  1  0  0  0  0
 14 15  1  0  0  0  0
 16 14  1  0  0  0  0
 17 14  1  0  0  0  0
M  END
>  <minimizedAffinity>
-3.82636642

$$$$
