
 OpenBabel03272506003D

 40 42  0  0  1  0  0  0  0  0999 V2000
   35.1110   31.6640   36.1650 C   0  0  2  0  0  0  0  0  0  0  0  0
   35.8180   30.6860   35.3010 C   0  0  0  0  0  0  0  0  0  0  0  0
   34.9390   30.1880   34.1420 C   0  0  2  0  0  0  0  0  0  0  0  0
   33.6620   29.6120   34.5540 C   0  0  0  0  0  0  0  0  0  0  0  0
   33.0060   30.3570   35.7110 C   0  0  0  0  0  0  0  0  0  0  0  0
   33.6210   31.7120   35.9220 C   0  0  0  0  0  0  0  0  0  0  0  0
   35.2110   31.4080   37.2550 H   0  0  0  0  0  0  0  0  0  0  0  0
   36.7320   30.9290   34.8120 H   0  0  0  0  0  0  0  0  0  0  0  0
   36.0200   29.7380   35.8870 H   0  0  0  0  0  0  0  0  0  0  0  0
   34.8260   31.0240   33.4360 H   0  0  0  0  0  0  0  0  0  0  0  0
   33.7760   28.5700   34.9100 H   0  0  0  0  0  0  0  0  0  0  0  0
   32.9880   29.5490   33.6760 H   0  0  0  0  0  0  0  0  0  0  0  0
   31.9520   30.5300   35.4090 H   0  0  0  0  0  0  0  0  0  0  0  0
   32.9580   29.7700   36.6360 H   0  0  0  0  0  0  0  0  0  0  0  0
   33.4480   32.3550   35.0470 H   0  0  0  0  0  0  0  0  0  0  0  0
   33.1470   32.1680   36.8070 H   0  0  0  0  0  0  0  0  0  0  0  0
   35.0140   30.3260   31.1940 Cl  0  0  0  0  0  0  0  0  0  0  0  0
   35.8710   29.0910   32.1040 C   0  0  0  0  0  0  0  0  0  0  0  0
   35.7870   29.1500   33.4820 C   0  0  0  0  0  0  0  0  0  0  0  0
   36.5080   28.1520   34.1060 C   0  0  0  0  0  0  0  0  0  0  0  0
   37.2310   27.2030   33.4100 C   0  0  0  0  0  0  0  0  0  0  0  0
   37.2620   27.2180   32.0210 C   0  0  0  0  0  0  0  0  0  0  0  0
   36.5520   28.2040   31.3490 C   0  0  0  0  0  0  0  0  0  0  0  0
   36.4970   28.1300   35.1880 H   0  0  0  0  0  0  0  0  0  0  0  0
   37.7660   26.4580   34.0040 H   0  0  0  0  0  0  0  0  0  0  0  0
   37.8320   26.4670   31.5060 H   0  0  0  0  0  0  0  0  0  0  0  0
   37.2320   28.6660   27.9510 H   0  0  0  0  0  0  0  0  0  0  0  0
   37.4620   28.8330   28.9900 C   0  0  0  0  0  0  0  0  0  0  0  0
   38.4410   29.5240   29.3390 O   0  0  0  0  0  0  0  0  0  0  0  0
   36.5830   28.2200   29.9260 N   0  0  0  0  0  0  0  0  0  0  0  0
   35.7470   27.6320   29.7180 H   0  0  0  0  0  0  0  0  0  0  0  0
   35.6250   33.0350   36.0200 C   0  0  0  0  0  0  0  0  0  0  0  0
   36.8190   33.1480   35.3080 C   0  0  0  0  0  0  0  0  0  0  0  0
   37.3470   34.4340   35.1290 C   0  0  0  0  0  0  0  0  0  0  0  0
   36.6650   35.5230   35.6640 N   0  0  0  0  0  0  0  0  0  0  0  0
   35.5130   35.3630   36.3480 C   0  0  0  0  0  0  0  0  0  0  0  0
   35.0310   34.1280   36.5040 N   0  0  0  0  0  0  0  0  0  0  0  0
   37.5470   32.5360   34.8070 H   0  0  0  0  0  0  0  0  0  0  0  0
   38.2120   34.8050   34.6430 H   0  0  0  0  0  0  0  0  0  0  0  0
   34.9730   36.1930   36.7690 H   0  0  0  0  0  0  0  0  0  0  0  0
  1  7  1  1  0  0  0
  2  9  1  0  0  0  0
  2  1  1  0  0  0  0
  3 10  1  6  0  0  0
  3  4  1  0  0  0  0
  3  2  1  0  0  0  0
  4 11  1  0  0  0  0
  4  5  1  0  0  0  0
  5  6  1  0  0  0  0
  5 14  1  0  0  0  0
  6  1  1  0  0  0  0
  6 16  1  0  0  0  0
  8  2  1  0  0  0  0
 12  4  1  0  0  0  0
 13  5  1  0  0  0  0
 15  6  1  0  0  0  0
 17 18  1  0  0  0  0
 18 19  1  0  0  0  0
 19 20  2  0  0  0  0
 19  3  1  0  0  0  0
 20 24  1  0  0  0  0
 21 25  1  0  0  0  0
 21 20  1  0  0  0  0
 22 21  2  0  0  0  0
 23 22  1  0  0  0  0
 23 18  2  0  0  0  0
 26 22  1  0  0  0  0
 27 28  1  0  0  0  0
 28 29  2  0  0  0  0
 28 30  1  0  0  0  0
 30 23  1  0  0  0  0
 31 30  1  0  0  0  0
 32  1  1  0  0  0  0
 32 37  1  0  0  0  0
 33 32  2  0  0  0  0
 34 33  1  0  0  0  0
 34 35  2  0  0  0  0
 35 36  1  0  0  0  0
 36 37  2  0  0  0  0
 36 40  1  0  0  0  0
 38 33  1  0  0  0  0
 39 34  1  0  0  0  0
M  END
>  <minimizedAffinity>
-5.71275806

$$$$

 OpenBabel03272506003D

 40 42  0  0  1  0  0  0  0  0999 V2000
   36.5730   28.6480   32.8040 C   0  0  2  0  0  0  0  0  0  0  0  0
   35.6960   29.0440   33.9340 C   0  0  0  0  0  0  0  0  0  0  0  0
   34.4580   29.8260   33.4680 C   0  0  2  0  0  0  0  0  0  0  0  0
   34.7550   31.0110   32.6690 C   0  0  0  0  0  0  0  0  0  0  0  0
   35.9110   30.8120   31.6960 C   0  0  0  0  0  0  0  0  0  0  0  0
   36.2420   29.3570   31.5120 C   0  0  0  0  0  0  0  0  0  0  0  0
   37.6500   28.9050   33.0000 H   0  0  0  0  0  0  0  0  0  0  0  0
   35.2800   28.3240   34.5990 H   0  0  0  0  0  0  0  0  0  0  0  0
   36.2350   29.7960   34.5880 H   0  0  0  0  0  0  0  0  0  0  0  0
   33.7980   29.1130   32.9510 H   0  0  0  0  0  0  0  0  0  0  0  0
   35.0530   31.8690   33.3000 H   0  0  0  0  0  0  0  0  0  0  0  0
   33.8350   31.3390   32.1440 H   0  0  0  0  0  0  0  0  0  0  0  0
   35.5570   31.1840   30.7120 H   0  0  0  0  0  0  0  0  0  0  0  0
   36.7950   31.4140   31.9410 H   0  0  0  0  0  0  0  0  0  0  0  0
   35.3980   28.8260   31.0490 H   0  0  0  0  0  0  0  0  0  0  0  0
   37.1210   29.2870   30.8510 H   0  0  0  0  0  0  0  0  0  0  0  0
   35.8640   31.8990   35.0300 Cl  0  0  0  0  0  0  0  0  0  0  0  0
   34.3720   31.1510   35.5810 C   0  0  0  0  0  0  0  0  0  0  0  0
   33.7890   30.2170   34.7460 C   0  0  0  0  0  0  0  0  0  0  0  0
   32.6130   29.7020   35.2550 C   0  0  0  0  0  0  0  0  0  0  0  0
   32.0910   30.0910   36.4720 C   0  0  0  0  0  0  0  0  0  0  0  0
   32.7430   31.0410   37.2500 C   0  0  0  0  0  0  0  0  0  0  0  0
   33.9300   31.5870   36.7780 C   0  0  0  0  0  0  0  0  0  0  0  0
   32.0910   28.9650   34.6580 H   0  0  0  0  0  0  0  0  0  0  0  0
   31.1540   29.6200   36.7790 H   0  0  0  0  0  0  0  0  0  0  0  0
   32.3130   31.3240   38.1920 H   0  0  0  0  0  0  0  0  0  0  0  0
   35.0840   34.4450   38.4280 H   0  0  0  0  0  0  0  0  0  0  0  0
   34.4110   33.9600   37.7410 C   0  0  0  0  0  0  0  0  0  0  0  0
   33.5270   34.5980   37.1340 O   0  0  0  0  0  0  0  0  0  0  0  0
   34.5980   32.5590   37.5740 N   0  0  0  0  0  0  0  0  0  0  0  0
   35.3100   31.9550   38.0400 H   0  0  0  0  0  0  0  0  0  0  0  0
   36.5430   27.2020   32.5330 C   0  0  0  0  0  0  0  0  0  0  0  0
   35.6930   26.8100   31.4990 C   0  0  0  0  0  0  0  0  0  0  0  0
   35.6370   25.4440   31.1910 C   0  0  0  0  0  0  0  0  0  0  0  0
   36.4190   24.5550   31.9220 N   0  0  0  0  0  0  0  0  0  0  0  0
   37.2260   24.9830   32.9160 C   0  0  0  0  0  0  0  0  0  0  0  0
   37.2620   26.2880   33.1890 N   0  0  0  0  0  0  0  0  0  0  0  0
   34.9980   27.2270   30.7940 H   0  0  0  0  0  0  0  0  0  0  0  0
   35.0960   24.8810   30.4740 H   0  0  0  0  0  0  0  0  0  0  0  0
   37.8380   24.3090   33.4920 H   0  0  0  0  0  0  0  0  0  0  0  0
  1  7  1  1  0  0  0
  1  2  1  0  0  0  0
  2  9  1  0  0  0  0
  2  8  1  0  0  0  0
  3 10  1  6  0  0  0
  3  2  1  0  0  0  0
  3 19  1  0  0  0  0
  4 11  1  0  0  0  0
  4  3  1  0  0  0  0
  5 14  1  0  0  0  0
  5  4  1  0  0  0  0
  6  5  1  0  0  0  0
  6  1  1  0  0  0  0
 12  4  1  0  0  0  0
 13  5  1  0  0  0  0
 15  6  1  0  0  0  0
 16  6  1  0  0  0  0
 17 18  1  0  0  0  0
 18 23  1  0  0  0  0
 19 20  1  0  0  0  0
 19 18  2  0  0  0  0
 20 21  2  0  0  0  0
 21 25  1  0  0  0  0
 21 22  1  0  0  0  0
 22 26  1  0  0  0  0
 23 22  2  0  0  0  0
 23 30  1  0  0  0  0
 24 20  1  0  0  0  0
 28 27  1  0  0  0  0
 29 28  2  0  0  0  0
 30 28  1  0  0  0  0
 30 31  1  0  0  0  0
 32  1  1  0  0  0  0
 32 37  1  0  0  0  0
 33 32  2  0  0  0  0
 34 33  1  0  0  0  0
 34 35  2  0  0  0  0
 35 36  1  0  0  0  0
 36 37  2  0  0  0  0
 36 40  1  0  0  0  0
 38 33  1  0  0  0  0
 39 34  1  0  0  0  0
M  END
>  <minimizedAffinity>
-5.66088295

$$$$

 OpenBabel03272506003D

 40 42  0  0  1  0  0  0  0  0999 V2000
   37.0010   27.9400   32.0500 C   0  0  2  0  0  0  0  0  0  0  0  0
   36.3950   28.6100   33.2280 C   0  0  0  0  0  0  0  0  0  0  0  0
   35.3400   29.6540   32.8290 C   0  0  2  0  0  0  0  0  0  0  0  0
   35.8180   30.6760   31.9030 C   0  0  0  0  0  0  0  0  0  0  0  0
   36.7600   30.1330   30.8340 C   0  0  0  0  0  0  0  0  0  0  0  0
   36.6960   28.6340   30.7440 C   0  0  0  0  0  0  0  0  0  0  0  0
   38.1230   27.9260   32.1080 H   0  0  0  0  0  0  0  0  0  0  0  0
   35.9000   28.0600   33.9930 H   0  0  0  0  0  0  0  0  0  0  0  0
   37.1800   29.2370   33.7540 H   0  0  0  0  0  0  0  0  0  0  0  0
   34.4660   29.1040   32.4490 H   0  0  0  0  0  0  0  0  0  0  0  0
   36.3940   31.4650   32.4220 H   0  0  0  0  0  0  0  0  0  0  0  0
   34.9490   31.1980   31.4520 H   0  0  0  0  0  0  0  0  0  0  0  0
   36.3890   30.5270   29.8650 H   0  0  0  0  0  0  0  0  0  0  0  0
   37.7880   30.5040   30.9310 H   0  0  0  0  0  0  0  0  0  0  0  0
   35.6970   28.3100   30.4200 H   0  0  0  0  0  0  0  0  0  0  0  0
   37.4430   28.3050   30.0030 H   0  0  0  0  0  0  0  0  0  0  0  0
   32.5240   29.2490   33.6170 Cl  0  0  0  0  0  0  0  0  0  0  0  0
   33.6510   30.1850   34.5880 C   0  0  0  0  0  0  0  0  0  0  0  0
   34.9520   30.2750   34.1320 C   0  0  0  0  0  0  0  0  0  0  0  0
   35.7640   31.0110   34.9710 C   0  0  0  0  0  0  0  0  0  0  0  0
   35.3070   31.5890   36.1380 C   0  0  0  0  0  0  0  0  0  0  0  0
   33.9790   31.4470   36.5240 C   0  0  0  0  0  0  0  0  0  0  0  0
   33.1240   30.7140   35.7110 C   0  0  0  0  0  0  0  0  0  0  0  0
   36.8020   31.1270   34.6860 H   0  0  0  0  0  0  0  0  0  0  0  0
   36.0350   32.1510   36.7280 H   0  0  0  0  0  0  0  0  0  0  0  0
   33.6510   31.9080   37.4370 H   0  0  0  0  0  0  0  0  0  0  0  0
   30.0270   29.7320   37.0020 H   0  0  0  0  0  0  0  0  0  0  0  0
   31.0820   29.5730   36.8600 C   0  0  0  0  0  0  0  0  0  0  0  0
   31.6610   28.5720   37.3310 O   0  0  0  0  0  0  0  0  0  0  0  0
   31.7650   30.5680   36.1050 N   0  0  0  0  0  0  0  0  0  0  0  0
   31.3570   31.4290   35.6780 H   0  0  0  0  0  0  0  0  0  0  0  0
   36.5820   26.5370   31.9110 C   0  0  0  0  0  0  0  0  0  0  0  0
   35.4520   26.3300   31.1200 C   0  0  0  0  0  0  0  0  0  0  0  0
   35.0180   25.0090   30.9440 C   0  0  0  0  0  0  0  0  0  0  0  0
   35.7250   23.9800   31.5590 N   0  0  0  0  0  0  0  0  0  0  0  0
   36.8130   24.2300   32.3170 C   0  0  0  0  0  0  0  0  0  0  0  0
   37.2060   25.4960   32.4690 N   0  0  0  0  0  0  0  0  0  0  0  0
   34.7270   26.8820   30.5500 H   0  0  0  0  0  0  0  0  0  0  0  0
   34.2150   24.5720   30.4090 H   0  0  0  0  0  0  0  0  0  0  0  0
   37.3700   23.4460   32.8010 H   0  0  0  0  0  0  0  0  0  0  0  0
  1  7  1  1  0  0  0
  1  2  1  0  0  0  0
  2  9  1  0  0  0  0
  2  8  1  0  0  0  0
  3 10  1  6  0  0  0
  3  2  1  0  0  0  0
  3 19  1  0  0  0  0
  4 11  1  0  0  0  0
  4  3  1  0  0  0  0
  5 14  1  0  0  0  0
  5  4  1  0  0  0  0
  6  5  1  0  0  0  0
  6  1  1  0  0  0  0
 12  4  1  0  0  0  0
 13  5  1  0  0  0  0
 15  6  1  0  0  0  0
 16  6  1  0  0  0  0
 17 18  1  0  0  0  0
 18 23  1  0  0  0  0
 19 18  2  0  0  0  0
 19 20  1  0  0  0  0
 20 21  2  0  0  0  0
 21 22  1  0  0  0  0
 21 25  1  0  0  0  0
 22 26  1  0  0  0  0
 23 30  1  0  0  0  0
 23 22  2  0  0  0  0
 24 20  1  0  0  0  0
 28 27  1  0  0  0  0
 28 29  2  0  0  0  0
 30 28  1  0  0  0  0
 31 30  1  0  0  0  0
 32  1  1  0  0  0  0
 32 37  1  0  0  0  0
 33 32  2  0  0  0  0
 34 33  1  0  0  0  0
 34 35  2  0  0  0  0
 35 36  1  0  0  0  0
 36 37  2  0  0  0  0
 36 40  1  0  0  0  0
 38 33  1  0  0  0  0
 39 34  1  0  0  0  0
M  END
>  <minimizedAffinity>
-5.55267286

$$$$

 OpenBabel03272506003D

 40 42  0  0  1  0  0  0  0  0999 V2000
   35.9100   28.8900   31.5140 C   0  0  2  0  0  0  0  0  0  0  0  0
   34.9870   29.4580   32.5280 C   0  0  0  0  0  0  0  0  0  0  0  0
   35.6530   29.6090   33.9060 C   0  0  2  0  0  0  0  0  0  0  0  0
   36.2310   28.3780   34.4370 C   0  0  0  0  0  0  0  0  0  0  0  0
   36.9140   27.5220   33.3760 C   0  0  0  0  0  0  0  0  0  0  0  0
   37.1630   28.2950   32.1110 C   0  0  0  0  0  0  0  0  0  0  0  0
   35.4370   28.0420   30.9470 H   0  0  0  0  0  0  0  0  0  0  0  0
   34.5190   30.4050   32.3920 H   0  0  0  0  0  0  0  0  0  0  0  0
   34.1490   28.7240   32.7350 H   0  0  0  0  0  0  0  0  0  0  0  0
   36.3830   30.4280   33.8270 H   0  0  0  0  0  0  0  0  0  0  0  0
   35.4610   27.7210   34.8850 H   0  0  0  0  0  0  0  0  0  0  0  0
   36.9240   28.6260   35.2660 H   0  0  0  0  0  0  0  0  0  0  0  0
   37.9100   27.2560   33.7870 H   0  0  0  0  0  0  0  0  0  0  0  0
   36.4050   26.5680   33.1920 H   0  0  0  0  0  0  0  0  0  0  0  0
   37.8670   29.1190   32.2950 H   0  0  0  0  0  0  0  0  0  0  0  0
   37.5980   27.6050   31.3700 H   0  0  0  0  0  0  0  0  0  0  0  0
   36.3720   31.7600   35.7950 Cl  0  0  0  0  0  0  0  0  0  0  0  0
   34.7630   31.0560   35.7330 C   0  0  0  0  0  0  0  0  0  0  0  0
   34.5380   30.0780   34.7830 C   0  0  0  0  0  0  0  0  0  0  0  0
   33.2420   29.6030   34.8000 C   0  0  0  0  0  0  0  0  0  0  0  0
   32.2860   30.0670   35.6800 C   0  0  0  0  0  0  0  0  0  0  0  0
   32.5970   31.0560   36.6060 C   0  0  0  0  0  0  0  0  0  0  0  0
   33.8890   31.5650   36.6260 C   0  0  0  0  0  0  0  0  0  0  0  0
   32.9820   28.8350   34.0820 H   0  0  0  0  0  0  0  0  0  0  0  0
   31.2910   29.6210   35.6070 H   0  0  0  0  0  0  0  0  0  0  0  0
   31.8330   31.3970   37.2780 H   0  0  0  0  0  0  0  0  0  0  0  0
   34.4020   34.5120   38.4360 H   0  0  0  0  0  0  0  0  0  0  0  0
   34.0640   33.9940   37.5550 C   0  0  0  0  0  0  0  0  0  0  0  0
   33.5760   34.6080   36.5840 O   0  0  0  0  0  0  0  0  0  0  0  0
   34.2100   32.5780   37.5730 N   0  0  0  0  0  0  0  0  0  0  0  0
   34.6060   31.9920   38.3400 H   0  0  0  0  0  0  0  0  0  0  0  0
   36.3270   29.8730   30.5030 C   0  0  0  0  0  0  0  0  0  0  0  0
   35.8520   31.1690   30.7030 C   0  0  0  0  0  0  0  0  0  0  0  0
   36.2310   32.1480   29.7750 C   0  0  0  0  0  0  0  0  0  0  0  0
   37.0520   31.7870   28.7120 N   0  0  0  0  0  0  0  0  0  0  0  0
   37.4860   30.5190   28.5590 C   0  0  0  0  0  0  0  0  0  0  0  0
   37.1110   29.6050   29.4560 N   0  0  0  0  0  0  0  0  0  0  0  0
   35.2340   31.7290   31.3810 H   0  0  0  0  0  0  0  0  0  0  0  0
   36.0240   33.1840   29.6850 H   0  0  0  0  0  0  0  0  0  0  0  0
   38.1210   30.2220   27.7410 H   0  0  0  0  0  0  0  0  0  0  0  0
  1  7  1  6  0  0  0
  1  6  1  0  0  0  0
  1  2  1  0  0  0  0
  2  9  1  0  0  0  0
  2  3  1  0  0  0  0
  3 10  1  6  0  0  0
  3  4  1  0  0  0  0
  3 19  1  0  0  0  0
  4 11  1  0  0  0  0
  4 12  1  0  0  0  0
  5 13  1  0  0  0  0
  5  4  1  0  0  0  0
  6 15  1  0  0  0  0
  6  5  1  0  0  0  0
  8  2  1  0  0  0  0
 14  5  1  0  0  0  0
 16  6  1  0  0  0  0
 18 17  1  0  0  0  0
 18 23  1  0  0  0  0
 19 20  1  0  0  0  0
 19 18  2  0  0  0  0
 20 21  2  0  0  0  0
 21 22  1  0  0  0  0
 22 23  2  0  0  0  0
 22 26  1  0  0  0  0
 23 30  1  0  0  0  0
 24 20  1  0  0  0  0
 25 21  1  0  0  0  0
 28 30  1  0  0  0  0
 28 27  1  0  0  0  0
 29 28  2  0  0  0  0
 30 31  1  0  0  0  0
 32 33  1  0  0  0  0
 32  1  1  0  0  0  0
 33 38  1  0  0  0  0
 34 33  2  0  0  0  0
 35 34  1  0  0  0  0
 36 35  2  0  0  0  0
 36 37  1  0  0  0  0
 37 32  2  0  0  0  0
 39 34  1  0  0  0  0
 40 36  1  0  0  0  0
M  END
>  <minimizedAffinity>
-5.53247356

$$$$

 OpenBabel03272506003D

 40 42  0  0  1  0  0  0  0  0999 V2000
   38.9150   25.7830   35.2970 C   0  0  2  0  0  0  0  0  0  0  0  0
   38.1000   26.5500   34.3220 C   0  0  0  0  0  0  0  0  0  0  0  0
   38.8030   26.7010   32.9630 C   0  0  2  0  0  0  0  0  0  0  0  0
   40.1330   27.2970   33.0320 C   0  0  0  0  0  0  0  0  0  0  0  0
   40.9450   26.8290   34.2350 C   0  0  0  0  0  0  0  0  0  0  0  0
   40.3510   25.6020   34.8660 C   0  0  0  0  0  0  0  0  0  0  0  0
   38.9810   26.3060   36.2900 H   0  0  0  0  0  0  0  0  0  0  0  0
   37.1200   26.2400   34.0440 H   0  0  0  0  0  0  0  0  0  0  0  0
   37.9990   27.6240   34.6720 H   0  0  0  0  0  0  0  0  0  0  0  0
   38.7980   25.7110   32.4830 H   0  0  0  0  0  0  0  0  0  0  0  0
   40.0880   28.3980   33.1260 H   0  0  0  0  0  0  0  0  0  0  0  0
   40.6710   27.1050   32.0810 H   0  0  0  0  0  0  0  0  0  0  0  0
   41.9400   26.5340   33.8420 H   0  0  0  0  0  0  0  0  0  0  0  0
   41.1380   27.6250   34.9650 H   0  0  0  0  0  0  0  0  0  0  0  0
   40.3830   24.7540   34.1670 H   0  0  0  0  0  0  0  0  0  0  0  0
   40.9450   25.3560   35.7620 H   0  0  0  0  0  0  0  0  0  0  0  0
   39.2830   26.7620   30.0510 Cl  0  0  0  0  0  0  0  0  0  0  0  0
   38.0300   27.7230   30.8220 C   0  0  0  0  0  0  0  0  0  0  0  0
   37.8790   27.5840   32.1880 C   0  0  0  0  0  0  0  0  0  0  0  0
   36.8580   28.3620   32.6970 C   0  0  0  0  0  0  0  0  0  0  0  0
   36.0810   29.1860   31.9080 C   0  0  0  0  0  0  0  0  0  0  0  0
   36.3010   29.2660   30.5370 C   0  0  0  0  0  0  0  0  0  0  0  0
   37.3170   28.5000   29.9810 C   0  0  0  0  0  0  0  0  0  0  0  0
   36.6720   28.3080   33.7620 H   0  0  0  0  0  0  0  0  0  0  0  0
   35.3000   29.7590   32.4130 H   0  0  0  0  0  0  0  0  0  0  0  0
   35.6810   29.9150   29.9490 H   0  0  0  0  0  0  0  0  0  0  0  0
   38.3570   29.2270   26.7230 H   0  0  0  0  0  0  0  0  0  0  0  0
   38.4020   29.3920   27.7860 C   0  0  0  0  0  0  0  0  0  0  0  0
   39.1650   30.2470   28.2820 O   0  0  0  0  0  0  0  0  0  0  0  0
   37.5420   28.5800   28.5780 N   0  0  0  0  0  0  0  0  0  0  0  0
   36.8780   27.8480   28.2440 H   0  0  0  0  0  0  0  0  0  0  0  0
   38.3660   24.4470   35.5770 C   0  0  0  0  0  0  0  0  0  0  0  0
   37.8380   24.2790   36.8570 C   0  0  0  0  0  0  0  0  0  0  0  0
   37.2900   23.0280   37.1720 C   0  0  0  0  0  0  0  0  0  0  0  0
   37.3000   22.0260   36.2080 N   0  0  0  0  0  0  0  0  0  0  0  0
   37.8240   22.2350   34.9820 C   0  0  0  0  0  0  0  0  0  0  0  0
   38.3390   23.4360   34.7070 N   0  0  0  0  0  0  0  0  0  0  0  0
   37.6960   24.8230   37.7740 H   0  0  0  0  0  0  0  0  0  0  0  0
   36.8320   22.6320   38.0420 H   0  0  0  0  0  0  0  0  0  0  0  0
   37.8410   21.4710   34.2240 H   0  0  0  0  0  0  0  0  0  0  0  0
  1 32  1  0  0  0  0
  1  7  1  1  0  0  0
  2  9  1  0  0  0  0
  2  1  1  0  0  0  0
  3 10  1  6  0  0  0
  3  4  1  0  0  0  0
  3  2  1  0  0  0  0
  4 11  1  0  0  0  0
  4  5  1  0  0  0  0
  5  6  1  0  0  0  0
  5 14  1  0  0  0  0
  6  1  1  0  0  0  0
  6 16  1  0  0  0  0
  8  2  1  0  0  0  0
 12  4  1  0  0  0  0
 13  5  1  0  0  0  0
 15  6  1  0  0  0  0
 17 18  1  0  0  0  0
 18 19  1  0  0  0  0
 19 20  2  0  0  0  0
 19  3  1  0  0  0  0
 20 24  1  0  0  0  0
 21 25  1  0  0  0  0
 21 20  1  0  0  0  0
 22 21  2  0  0  0  0
 23 22  1  0  0  0  0
 23 18  2  0  0  0  0
 26 22  1  0  0  0  0
 27 28  1  0  0  0  0
 28 29  2  0  0  0  0
 28 30  1  0  0  0  0
 30 23  1  0  0  0  0
 31 30  1  0  0  0  0
 32 33  1  0  0  0  0
 33 34  2  0  0  0  0
 33 38  1  0  0  0  0
 34 39  1  0  0  0  0
 35 34  1  0  0  0  0
 36 35  2  0  0  0  0
 37 36  1  0  0  0  0
 37 32  2  0  0  0  0
 40 36  1  0  0  0  0
M  END
>  <minimizedAffinity>
-5.47562122

$$$$

 OpenBabel03272506003D

 40 42  0  0  1  0  0  0  0  0999 V2000
   39.3700   25.7270   31.6410 C   0  0  2  0  0  0  0  0  0  0  0  0
   39.7210   24.8650   32.7960 C   0  0  0  0  0  0  0  0  0  0  0  0
   40.1660   25.6800   34.0210 C   0  0  2  0  0  0  0  0  0  0  0  0
   41.2730   26.5980   33.7680 C   0  0  0  0  0  0  0  0  0  0  0  0
   41.1900   27.2890   32.4110 C   0  0  0  0  0  0  0  0  0  0  0  0
   39.8220   27.1590   31.8020 C   0  0  0  0  0  0  0  0  0  0  0  0
   39.8650   25.3790   30.6930 H   0  0  0  0  0  0  0  0  0  0  0  0
   39.0230   24.1780   33.2150 H   0  0  0  0  0  0  0  0  0  0  0  0
   40.6460   24.2580   32.5510 H   0  0  0  0  0  0  0  0  0  0  0  0
   39.2720   26.1840   34.4190 H   0  0  0  0  0  0  0  0  0  0  0  0
   42.2480   26.0760   33.7670 H   0  0  0  0  0  0  0  0  0  0  0  0
   41.3360   27.3340   34.5950 H   0  0  0  0  0  0  0  0  0  0  0  0
   41.3510   28.3700   32.6040 H   0  0  0  0  0  0  0  0  0  0  0  0
   41.9870   26.9880   31.7200 H   0  0  0  0  0  0  0  0  0  0  0  0
   39.0740   27.6760   32.4200 H   0  0  0  0  0  0  0  0  0  0  0  0
   39.8490   27.6220   30.8020 H   0  0  0  0  0  0  0  0  0  0  0  0
   37.9750   24.6100   35.6850 Cl  0  0  0  0  0  0  0  0  0  0  0  0
   39.6420   24.0860   35.8680 C   0  0  0  0  0  0  0  0  0  0  0  0
   40.5740   24.6350   35.0080 C   0  0  0  0  0  0  0  0  0  0  0  0
   41.8490   24.1470   35.2160 C   0  0  0  0  0  0  0  0  0  0  0  0
   42.1420   23.2100   36.1850 C   0  0  0  0  0  0  0  0  0  0  0  0
   41.1420   22.7080   37.0100 C   0  0  0  0  0  0  0  0  0  0  0  0
   39.8430   23.1700   36.8360 C   0  0  0  0  0  0  0  0  0  0  0  0
   42.6380   24.5250   34.5790 H   0  0  0  0  0  0  0  0  0  0  0  0
   43.1850   22.8920   36.2640 H   0  0  0  0  0  0  0  0  0  0  0  0
   41.4000   21.9800   37.7550 H   0  0  0  0  0  0  0  0  0  0  0  0
   37.3120   22.6000   39.1800 H   0  0  0  0  0  0  0  0  0  0  0  0
   38.0260   23.2500   38.7030 C   0  0  0  0  0  0  0  0  0  0  0  0
   38.1450   24.4470   39.0360 O   0  0  0  0  0  0  0  0  0  0  0  0
   38.8180   22.6560   37.6800 N   0  0  0  0  0  0  0  0  0  0  0  0
   38.7820   21.6690   37.3440 H   0  0  0  0  0  0  0  0  0  0  0  0
   37.9260   25.7500   31.3600 C   0  0  0  0  0  0  0  0  0  0  0  0
   37.3100   24.5000   31.3130 C   0  0  0  0  0  0  0  0  0  0  0  0
   35.9320   24.4660   31.0610 C   0  0  0  0  0  0  0  0  0  0  0  0
   35.2510   25.6640   30.8720 N   0  0  0  0  0  0  0  0  0  0  0  0
   35.8910   26.8510   30.9260 C   0  0  0  0  0  0  0  0  0  0  0  0
   37.2040   26.8570   31.1670 N   0  0  0  0  0  0  0  0  0  0  0  0
   37.5470   23.4550   31.4040 H   0  0  0  0  0  0  0  0  0  0  0  0
   35.2270   23.6790   30.9750 H   0  0  0  0  0  0  0  0  0  0  0  0
   35.3810   27.7880   30.7810 H   0  0  0  0  0  0  0  0  0  0  0  0
  1  7  1  6  0  0  0
  1  6  1  0  0  0  0
  1  2  1  0  0  0  0
  2  8  1  0  0  0  0
  2  3  1  0  0  0  0
  3 10  1  1  0  0  0
  3 19  1  0  0  0  0
  4  3  1  0  0  0  0
  4 12  1  0  0  0  0
  5 13  1  0  0  0  0
  5  4  1  0  0  0  0
  6  5  1  0  0  0  0
  6 15  1  0  0  0  0
  9  2  1  0  0  0  0
 11  4  1  0  0  0  0
 14  5  1  0  0  0  0
 16  6  1  0  0  0  0
 17 18  1  0  0  0  0
 18 23  1  0  0  0  0
 19 20  1  0  0  0  0
 19 18  2  0  0  0  0
 20 21  2  0  0  0  0
 21 25  1  0  0  0  0
 21 22  1  0  0  0  0
 22 26  1  0  0  0  0
 23 22  2  0  0  0  0
 23 30  1  0  0  0  0
 24 20  1  0  0  0  0
 28 29  2  0  0  0  0
 28 27  1  0  0  0  0
 30 28  1  0  0  0  0
 31 30  1  0  0  0  0
 32  1  1  0  0  0  0
 33 32  1  0  0  0  0
 33 38  1  0  0  0  0
 34 33  2  0  0  0  0
 35 36  2  0  0  0  0
 35 34  1  0  0  0  0
 36 37  1  0  0  0  0
 37 32  2  0  0  0  0
 39 34  1  0  0  0  0
 40 36  1  0  0  0  0
M  END
>  <minimizedAffinity>
-5.40810823

$$$$

 OpenBabel03272506003D

 40 42  0  0  1  0  0  0  0  0999 V2000
   36.3180   29.0550   32.5640 C   0  0  2  0  0  0  0  0  0  0  0  0
   35.6130   29.4470   33.8090 C   0  0  0  0  0  0  0  0  0  0  0  0
   34.1650   29.8920   33.5470 C   0  0  2  0  0  0  0  0  0  0  0  0
   34.0290   30.9700   32.5720 C   0  0  0  0  0  0  0  0  0  0  0  0
   34.9880   30.8470   31.3940 C   0  0  0  0  0  0  0  0  0  0  0  0
   35.5920   29.4730   31.3070 C   0  0  0  0  0  0  0  0  0  0  0  0
   37.3270   29.5430   32.4830 H   0  0  0  0  0  0  0  0  0  0  0  0
   35.5050   28.7750   34.6280 H   0  0  0  0  0  0  0  0  0  0  0  0
   36.0880   30.3840   34.2360 H   0  0  0  0  0  0  0  0  0  0  0  0
   33.5920   28.9920   33.2750 H   0  0  0  0  0  0  0  0  0  0  0  0
   34.2470   31.9590   33.0190 H   0  0  0  0  0  0  0  0  0  0  0  0
   32.9750   31.0280   32.2330 H   0  0  0  0  0  0  0  0  0  0  0  0
   34.3750   30.9830   30.4790 H   0  0  0  0  0  0  0  0  0  0  0  0
   35.7460   31.6400   31.3640 H   0  0  0  0  0  0  0  0  0  0  0  0
   34.8130   28.7220   31.1080 H   0  0  0  0  0  0  0  0  0  0  0  0
   36.3190   29.4710   30.4780 H   0  0  0  0  0  0  0  0  0  0  0  0
   31.5630   28.7800   34.3890 Cl  0  0  0  0  0  0  0  0  0  0  0  0
   32.4670   29.9190   35.3750 C   0  0  0  0  0  0  0  0  0  0  0  0
   33.6880   30.3440   34.8890 C   0  0  0  0  0  0  0  0  0  0  0  0
   34.3300   31.2190   35.7430 C   0  0  0  0  0  0  0  0  0  0  0  0
   33.7920   31.6170   36.9490 C   0  0  0  0  0  0  0  0  0  0  0  0
   32.5540   31.1400   37.3630 C   0  0  0  0  0  0  0  0  0  0  0  0
   31.8710   30.2560   36.5370 C   0  0  0  0  0  0  0  0  0  0  0  0
   35.2980   31.5970   35.4360 H   0  0  0  0  0  0  0  0  0  0  0  0
   34.3840   32.3140   37.5470 H   0  0  0  0  0  0  0  0  0  0  0  0
   32.1600   31.4680   38.3070 H   0  0  0  0  0  0  0  0  0  0  0  0
   29.1320   28.4250   37.7070 H   0  0  0  0  0  0  0  0  0  0  0  0
   30.1780   28.5050   37.4640 C   0  0  0  0  0  0  0  0  0  0  0  0
   30.9590   27.5440   37.6190 O   0  0  0  0  0  0  0  0  0  0  0  0
   30.6040   29.7670   36.9600 N   0  0  0  0  0  0  0  0  0  0  0  0
   30.0180   30.6150   36.8010 H   0  0  0  0  0  0  0  0  0  0  0  0
   36.5580   27.6060   32.4730 C   0  0  0  0  0  0  0  0  0  0  0  0
   37.2160   27.0440   33.5670 C   0  0  0  0  0  0  0  0  0  0  0  0
   37.4580   25.6640   33.5370 C   0  0  0  0  0  0  0  0  0  0  0  0
   37.0380   24.9290   32.4330 N   0  0  0  0  0  0  0  0  0  0  0  0
   36.4050   25.5190   31.3970 C   0  0  0  0  0  0  0  0  0  0  0  0
   36.1860   26.8340   31.4490 N   0  0  0  0  0  0  0  0  0  0  0  0
   37.6470   27.3270   34.5100 H   0  0  0  0  0  0  0  0  0  0  0  0
   37.9230   24.9920   34.2120 H   0  0  0  0  0  0  0  0  0  0  0  0
   36.0740   24.9660   30.5340 H   0  0  0  0  0  0  0  0  0  0  0  0
  1  7  1  1  0  0  0
  1  2  1  0  0  0  0
  2  9  1  0  0  0  0
  2  8  1  0  0  0  0
  3 10  1  6  0  0  0
  3  2  1  0  0  0  0
  3 19  1  0  0  0  0
  4 11  1  0  0  0  0
  4  3  1  0  0  0  0
  5  4  1  0  0  0  0
  6  5  1  0  0  0  0
  6  1  1  0  0  0  0
 12  4  1  0  0  0  0
 13  5  1  0  0  0  0
 14  5  1  0  0  0  0
 15  6  1  0  0  0  0
 16  6  1  0  0  0  0
 17 18  1  0  0  0  0
 18 23  1  0  0  0  0
 19 18  2  0  0  0  0
 19 20  1  0  0  0  0
 20 21  2  0  0  0  0
 21 22  1  0  0  0  0
 21 25  1  0  0  0  0
 22 26  1  0  0  0  0
 23 30  1  0  0  0  0
 23 22  2  0  0  0  0
 24 20  1  0  0  0  0
 28 29  2  0  0  0  0
 28 27  1  0  0  0  0
 30 28  1  0  0  0  0
 31 30  1  0  0  0  0
 32  1  1  0  0  0  0
 32 33  1  0  0  0  0
 33 38  1  0  0  0  0
 34 33  2  0  0  0  0
 34 39  1  0  0  0  0
 35 34  1  0  0  0  0
 36 37  1  0  0  0  0
 36 35  2  0  0  0  0
 37 32  2  0  0  0  0
 40 36  1  0  0  0  0
M  END
>  <minimizedAffinity>
-5.36940956

$$$$

 OpenBabel03272506003D

 40 42  0  0  1  0  0  0  0  0999 V2000
   37.7000   26.7760   33.0540 C   0  0  2  0  0  0  0  0  0  0  0  0
   39.0070   26.1370   33.3480 C   0  0  0  0  0  0  0  0  0  0  0  0
   39.1610   25.7770   34.8350 C   0  0  2  0  0  0  0  0  0  0  0  0
   38.9700   26.8960   35.7520 C   0  0  0  0  0  0  0  0  0  0  0  0
   37.8470   27.8380   35.3330 C   0  0  0  0  0  0  0  0  0  0  0  0
   36.9570   27.2180   34.2920 C   0  0  0  0  0  0  0  0  0  0  0  0
   37.8200   27.7130   32.4460 H   0  0  0  0  0  0  0  0  0  0  0  0
   39.3170   25.2430   32.8590 H   0  0  0  0  0  0  0  0  0  0  0  0
   39.8420   26.8860   33.1850 H   0  0  0  0  0  0  0  0  0  0  0  0
   38.4840   24.9330   35.0370 H   0  0  0  0  0  0  0  0  0  0  0  0
   39.8720   27.5330   35.8180 H   0  0  0  0  0  0  0  0  0  0  0  0
   38.8110   26.5060   36.7780 H   0  0  0  0  0  0  0  0  0  0  0  0
   37.2200   27.9930   36.2360 H   0  0  0  0  0  0  0  0  0  0  0  0
   38.2010   28.8350   35.0430 H   0  0  0  0  0  0  0  0  0  0  0  0
   36.4400   26.3390   34.7020 H   0  0  0  0  0  0  0  0  0  0  0  0
   36.2110   27.9700   33.9900 H   0  0  0  0  0  0  0  0  0  0  0  0
   39.4000   22.8670   35.2750 Cl  0  0  0  0  0  0  0  0  0  0  0  0
   40.8000   23.9240   35.1690 C   0  0  0  0  0  0  0  0  0  0  0  0
   40.5620   25.2640   34.9270 C   0  0  0  0  0  0  0  0  0  0  0  0
   41.7220   26.0080   34.8400 C   0  0  0  0  0  0  0  0  0  0  0  0
   42.9780   25.4540   34.9830 C   0  0  0  0  0  0  0  0  0  0  0  0
   43.1280   24.0930   35.2250 C   0  0  0  0  0  0  0  0  0  0  0  0
   41.9880   23.3050   35.3190 C   0  0  0  0  0  0  0  0  0  0  0  0
   41.6220   27.0680   34.6480 H   0  0  0  0  0  0  0  0  0  0  0  0
   43.8290   26.1340   34.8970 H   0  0  0  0  0  0  0  0  0  0  0  0
   44.1170   23.6910   35.3320 H   0  0  0  0  0  0  0  0  0  0  0  0
   42.1090   20.0550   36.6030 H   0  0  0  0  0  0  0  0  0  0  0  0
   41.8970   21.1050   36.7130 C   0  0  0  0  0  0  0  0  0  0  0  0
   41.4660   21.5750   37.7870 O   0  0  0  0  0  0  0  0  0  0  0  0
   42.1400   21.9120   35.5660 N   0  0  0  0  0  0  0  0  0  0  0  0
   42.4990   21.5990   34.6370 H   0  0  0  0  0  0  0  0  0  0  0  0
   36.7970   25.9050   32.2860 C   0  0  0  0  0  0  0  0  0  0  0  0
   37.0660   24.5400   32.3800 C   0  0  0  0  0  0  0  0  0  0  0  0
   36.2260   23.6650   31.6770 C   0  0  0  0  0  0  0  0  0  0  0  0
   35.1780   24.1920   30.9280 N   0  0  0  0  0  0  0  0  0  0  0  0
   34.9580   25.5220   30.8660 C   0  0  0  0  0  0  0  0  0  0  0  0
   35.7720   26.3340   31.5450 N   0  0  0  0  0  0  0  0  0  0  0  0
   37.7600   23.8620   32.8410 H   0  0  0  0  0  0  0  0  0  0  0  0
   36.1970   22.6110   31.5730 H   0  0  0  0  0  0  0  0  0  0  0  0
   34.1530   25.9470   30.2910 H   0  0  0  0  0  0  0  0  0  0  0  0
  1  7  1  6  0  0  0
  1  2  1  0  0  0  0
  1  6  1  0  0  0  0
  2  3  1  0  0  0  0
  3 19  1  0  0  0  0
  3 10  1  1  0  0  0
  3  4  1  0  0  0  0
  4 11  1  0  0  0  0
  4 12  1  0  0  0  0
  5  4  1  0  0  0  0
  5 13  1  0  0  0  0
  6 15  1  0  0  0  0
  6  5  1  0  0  0  0
  8  2  1  0  0  0  0
  9  2  1  0  0  0  0
 14  5  1  0  0  0  0
 16  6  1  0  0  0  0
 18 17  1  0  0  0  0
 18 23  1  0  0  0  0
 19 18  2  0  0  0  0
 20 19  1  0  0  0  0
 20 21  2  0  0  0  0
 21 22  1  0  0  0  0
 22 23  2  0  0  0  0
 22 26  1  0  0  0  0
 23 30  1  0  0  0  0
 24 20  1  0  0  0  0
 25 21  1  0  0  0  0
 27 28  1  0  0  0  0
 28 29  2  0  0  0  0
 30 28  1  0  0  0  0
 31 30  1  0  0  0  0
 32 33  1  0  0  0  0
 32  1  1  0  0  0  0
 33 38  1  0  0  0  0
 34 33  2  0  0  0  0
 35 34  1  0  0  0  0
 36 35  2  0  0  0  0
 36 37  1  0  0  0  0
 37 32  2  0  0  0  0
 39 34  1  0  0  0  0
 40 36  1  0  0  0  0
M  END
>  <minimizedAffinity>
-5.36294317

$$$$

 OpenBabel03272506003D

 40 42  0  0  1  0  0  0  0  0999 V2000
   34.8950   29.8170   33.2220 C   0  0  2  0  0  0  0  0  0  0  0  0
   35.4000   28.4320   33.3880 C   0  0  0  0  0  0  0  0  0  0  0  0
   36.8670   28.2880   32.9530 C   0  0  2  0  0  0  0  0  0  0  0  0
   37.1400   28.7260   31.5870 C   0  0  0  0  0  0  0  0  0  0  0  0
   36.3710   29.9810   31.1880 C   0  0  0  0  0  0  0  0  0  0  0  0
   35.7990   30.6890   32.3840 C   0  0  0  0  0  0  0  0  0  0  0  0
   33.9050   29.8410   32.6900 H   0  0  0  0  0  0  0  0  0  0  0  0
   35.3880   27.9400   34.3320 H   0  0  0  0  0  0  0  0  0  0  0  0
   34.8580   27.7410   32.6710 H   0  0  0  0  0  0  0  0  0  0  0  0
   37.4810   28.8090   33.7030 H   0  0  0  0  0  0  0  0  0  0  0  0
   36.8490   27.9610   30.8430 H   0  0  0  0  0  0  0  0  0  0  0  0
   38.2330   28.8620   31.4570 H   0  0  0  0  0  0  0  0  0  0  0  0
   37.1140   30.6690   30.7360 H   0  0  0  0  0  0  0  0  0  0  0  0
   35.6200   29.8010   30.4080 H   0  0  0  0  0  0  0  0  0  0  0  0
   36.6040   31.0560   33.0360 H   0  0  0  0  0  0  0  0  0  0  0  0
   35.2060   31.5450   32.0220 H   0  0  0  0  0  0  0  0  0  0  0  0
   38.2900   27.5010   35.4170 Cl  0  0  0  0  0  0  0  0  0  0  0  0
   37.8230   26.3390   34.1840 C   0  0  0  0  0  0  0  0  0  0  0  0
   37.1310   26.8240   33.0900 C   0  0  0  0  0  0  0  0  0  0  0  0
   36.7910   25.8340   32.1890 C   0  0  0  0  0  0  0  0  0  0  0  0
   37.1170   24.5060   32.3780 C   0  0  0  0  0  0  0  0  0  0  0  0
   37.8160   24.1040   33.5100 C   0  0  0  0  0  0  0  0  0  0  0  0
   38.1790   25.0650   34.4450 C   0  0  0  0  0  0  0  0  0  0  0  0
   36.2430   26.1320   31.3040 H   0  0  0  0  0  0  0  0  0  0  0  0
   36.8000   23.8060   31.6010 H   0  0  0  0  0  0  0  0  0  0  0  0
   38.0560   23.0640   33.6290 H   0  0  0  0  0  0  0  0  0  0  0  0
   39.2590   23.9000   37.5590 H   0  0  0  0  0  0  0  0  0  0  0  0
   38.4740   24.1240   36.8570 C   0  0  0  0  0  0  0  0  0  0  0  0
   37.2730   23.9280   37.1360 O   0  0  0  0  0  0  0  0  0  0  0  0
   38.8940   24.6540   35.6040 N   0  0  0  0  0  0  0  0  0  0  0  0
   39.8710   24.8470   35.2950 H   0  0  0  0  0  0  0  0  0  0  0  0
   34.6830   30.5070   34.5040 C   0  0  0  0  0  0  0  0  0  0  0  0
   35.8000   31.1680   35.0150 C   0  0  0  0  0  0  0  0  0  0  0  0
   35.6490   31.8530   36.2280 C   0  0  0  0  0  0  0  0  0  0  0  0
   34.4090   31.8410   36.8590 N   0  0  0  0  0  0  0  0  0  0  0  0
   33.3560   31.1860   36.3260 C   0  0  0  0  0  0  0  0  0  0  0  0
   33.5260   30.5420   35.1700 N   0  0  0  0  0  0  0  0  0  0  0  0
   36.8340   31.3470   34.7840 H   0  0  0  0  0  0  0  0  0  0  0  0
   36.3090   32.4250   36.8280 H   0  0  0  0  0  0  0  0  0  0  0  0
   32.3900   31.1660   36.8010 H   0  0  0  0  0  0  0  0  0  0  0  0
  1  7  1  6  0  0  0
  1  2  1  0  0  0  0
  1 32  1  0  0  0  0
  2  8  1  0  0  0  0
  3 19  1  0  0  0  0
  3  2  1  0  0  0  0
  3 10  1  1  0  0  0
  4  3  1  0  0  0  0
  5  4  1  0  0  0  0
  5  6  1  0  0  0  0
  6 15  1  0  0  0  0
  6  1  1  0  0  0  0
  9  2  1  0  0  0  0
 11  4  1  0  0  0  0
 12  4  1  0  0  0  0
 13  5  1  0  0  0  0
 14  5  1  0  0  0  0
 16  6  1  0  0  0  0
 18 23  1  0  0  0  0
 18 17  1  0  0  0  0
 19 18  2  0  0  0  0
 20 21  2  0  0  0  0
 20 19  1  0  0  0  0
 21 22  1  0  0  0  0
 22 26  1  0  0  0  0
 22 23  2  0  0  0  0
 23 30  1  0  0  0  0
 24 20  1  0  0  0  0
 25 21  1  0  0  0  0
 28 29  2  0  0  0  0
 28 27  1  0  0  0  0
 30 28  1  0  0  0  0
 31 30  1  0  0  0  0
 32 33  2  0  0  0  0
 32 37  1  0  0  0  0
 33 34  1  0  0  0  0
 34 39  1  0  0  0  0
 34 35  2  0  0  0  0
 36 40  1  0  0  0  0
 36 35  1  0  0  0  0
 37 36  2  0  0  0  0
 38 33  1  0  0  0  0
M  END
>  <minimizedAffinity>
-5.32766724

$$$$
