
 OpenBabel03272509353D

 43 46  0  0  1  0  0  0  0  0999 V2000
   36.3470   30.6660   44.8070 C   0  0  1  0  0  0  0  0  0  0  0  0
   37.4030   31.6000   45.2780 C   0  0  0  0  0  0  0  0  0  0  0  0
   37.8740   30.2560   45.0100 C   0  0  2  0  0  0  0  0  0  0  0  0
   36.0450   30.5150   43.7730 H   0  0  0  0  0  0  0  0  0  0  0  0
   37.3930   32.4940   44.6600 H   0  0  0  0  0  0  0  0  0  0  0  0
   37.2980   31.8910   46.3710 H   0  0  0  0  0  0  0  0  0  0  0  0
   37.8940   29.3690   45.6260 H   0  0  0  0  0  0  0  0  0  0  0  0
   38.7210   30.2120   43.7730 C   0  0  0  0  0  0  0  0  0  0  0  0
   39.1820   31.4980   43.4640 C   0  0  0  0  0  0  0  0  0  0  0  0
   40.0620   31.6810   42.4260 C   0  0  0  0  0  0  0  0  0  0  0  0
   40.5170   30.6040   41.6570 C   0  0  0  0  0  0  0  0  0  0  0  0
   40.0420   29.3450   41.9900 C   0  0  0  0  0  0  0  0  0  0  0  0
   40.3930   28.2120   41.3100 C   0  0  0  0  0  0  0  0  0  0  0  0
   39.9150   26.9640   41.6220 C   0  0  0  0  0  0  0  0  0  0  0  0
   39.0350   26.8300   42.6720 C   0  0  0  0  0  0  0  0  0  0  0  0
   38.6760   27.9670   43.3620 C   0  0  0  0  0  0  0  0  0  0  0  0
   39.1790   29.2100   43.0170 C   0  0  0  0  0  0  0  0  0  0  0  0
   39.0460   32.4880   43.8500 H   0  0  0  0  0  0  0  0  0  0  0  0
   40.5160   32.5860   42.0480 H   0  0  0  0  0  0  0  0  0  0  0  0
   41.2060   30.6160   40.8180 H   0  0  0  0  0  0  0  0  0  0  0  0
   41.0820   28.2630   40.4760 H   0  0  0  0  0  0  0  0  0  0  0  0
   40.2230   26.0910   41.0520 H   0  0  0  0  0  0  0  0  0  0  0  0
   38.6160   25.8820   42.9760 H   0  0  0  0  0  0  0  0  0  0  0  0
   37.9690   27.8470   44.2040 H   0  0  0  0  0  0  0  0  0  0  0  0
   33.7850   28.4870   46.5140 C   0  0  0  0  0  0  0  0  0  0  0  0
   34.6200   29.0440   45.5010 C   0  0  0  0  0  0  0  0  0  0  0  0
   35.4730   30.0540   45.8410 C   0  0  0  0  0  0  0  0  0  0  0  0
   35.4580   30.4600   47.1610 N   0  0  0  0  0  0  0  0  0  0  0  0
   34.6700   29.9290   48.0990 C   0  0  0  0  0  0  0  0  0  0  0  0
   33.8220   28.9390   47.8010 N   0  0  0  0  0  0  0  0  0  0  0  0
   33.1130   27.6790   46.2080 H   0  0  0  0  0  0  0  0  0  0  0  0
   34.5430   28.6420   44.5000 H   0  0  0  0  0  0  0  0  0  0  0  0
   34.7720   30.4770   49.4950 C   0  0  0  0  0  0  0  0  0  0  0  0
   34.1270   31.3720   49.5210 H   0  0  0  0  0  0  0  0  0  0  0  0
   34.4900   29.7300   50.2410 H   0  0  0  0  0  0  0  0  0  0  0  0
   36.2380   30.9160   49.6970 C   0  0  0  0  0  0  0  0  0  0  0  0
   36.3470   31.4670   50.6370 H   0  0  0  0  0  0  0  0  0  0  0  0
   36.5640   31.5020   48.8140 H   0  0  0  0  0  0  0  0  0  0  0  0
   38.1220   28.3970   51.0370 H   0  0  0  0  0  0  0  0  0  0  0  0
   37.5320   29.3130   51.0260 C   0  0  0  0  0  0  0  0  0  0  0  0
   37.2930   30.0030   52.0420 O   0  0  0  0  0  0  0  0  0  0  0  0
   37.0250   29.7020   49.7430 N   0  0  0  0  0  0  0  0  0  0  0  0
   37.2310   29.1180   48.8970 H   0  0  0  0  0  0  0  0  0  0  0  0
  1  4  1  6  0  0  0
  1  3  1  0  0  0  0
  1  2  1  0  0  0  0
  1 27  1  0  0  0  0
  2  6  1  0  0  0  0
  3  2  1  0  0  0  0
  3  7  1  1  0  0  0
  5  2  1  0  0  0  0
  8  3  1  0  0  0  0
  9  8  1  0  0  0  0
  9 18  1  0  0  0  0
 10  9  2  0  0  0  0
 11 12  2  0  0  0  0
 11 10  1  0  0  0  0
 12 17  1  0  0  0  0
 13 14  2  0  0  0  0
 13 12  1  0  0  0  0
 14 15  1  0  0  0  0
 15 23  1  0  0  0  0
 15 16  2  0  0  0  0
 16 24  1  0  0  0  0
 17 16  1  0  0  0  0
 17  8  2  0  0  0  0
 19 10  1  0  0  0  0
 20 11  1  0  0  0  0
 21 13  1  0  0  0  0
 22 14  1  0  0  0  0
 25 30  1  0  0  0  0
 26 27  1  0  0  0  0
 26 25  2  0  0  0  0
 27 28  2  0  0  0  0
 28 29  1  0  0  0  0
 29 33  1  0  0  0  0
 30 29  2  0  0  0  0
 31 25  1  0  0  0  0
 32 26  1  0  0  0  0
 33 34  1  0  0  0  0
 33 36  1  0  0  0  0
 33 35  1  0  0  0  0
 36 42  1  0  0  0  0
 36 37  1  0  0  0  0
 38 36  1  0  0  0  0
 40 39  1  0  0  0  0
 40 41  2  0  0  0  0
 42 40  1  0  0  0  0
 43 42  1  0  0  0  0
M  END
>  <minimizedAffinity>
-5.04289579

>  <minimizedRMSD>
2.65663671

$$$$
