
 OpenBabel03272509483D

 21 21  0  0  0  0  0  0  0  0999 V2000
   37.9380   23.4090   37.6430 C   0  0  0  0  0  0  0  0  0  0  0  0
   37.3390   22.4880   37.8150 H   0  0  0  0  0  0  0  0  0  0  0  0
   37.3860   24.2430   38.1270 H   0  0  0  0  0  0  0  0  0  0  0  0
   39.2730   23.2170   38.2870 C   0  0  0  0  0  0  0  0  0  0  0  0
   39.9120   24.1110   38.0640 H   0  0  0  0  0  0  0  0  0  0  0  0
   39.1270   23.2340   39.3930 H   0  0  0  0  0  0  0  0  0  0  0  0
   41.7410   21.1010   36.9610 H   0  0  0  0  0  0  0  0  0  0  0  0
   41.1700   21.9560   37.2630 C   0  0  0  0  0  0  0  0  0  0  0  0
   41.7770   23.0030   36.9130 O   0  0  0  0  0  0  0  0  0  0  0  0
   39.9250   21.9850   37.9460 N   0  0  0  0  0  0  0  0  0  0  0  0
   39.5490   21.0190   38.1680 H   0  0  0  0  0  0  0  0  0  0  0  0
   38.1030   23.6260   36.2480 O   0  0  0  0  0  0  0  0  0  0  0  0
   38.8070   27.1370   35.7500 C   0  0  0  0  0  0  0  0  0  0  0  0
   39.8490   27.0150   34.8160 C   0  0  0  0  0  0  0  0  0  0  0  0
   40.2670   25.7560   34.4010 C   0  0  0  0  0  0  0  0  0  0  0  0
   39.6130   24.6890   34.9430 N   0  0  0  0  0  0  0  0  0  0  0  0
   38.6090   24.8290   35.8420 C   0  0  0  0  0  0  0  0  0  0  0  0
   38.2150   26.0600   36.2380 N   0  0  0  0  0  0  0  0  0  0  0  0
   38.5400   28.1430   36.0240 H   0  0  0  0  0  0  0  0  0  0  0  0
   40.3740   27.8600   34.3810 H   0  0  0  0  0  0  0  0  0  0  0  0
   41.0620   25.6180   33.6860 H   0  0  0  0  0  0  0  0  0  0  0  0
  1  2  1  0  0  0  0
  1  3  1  0  0  0  0
  1  4  1  0  0  0  0
  4  6  1  0  0  0  0
  5  4  1  0  0  0  0
  7  8  1  0  0  0  0
  8 10  1  0  0  0  0
  9  8  2  0  0  0  0
 10 11  1  0  0  0  0
 10  4  1  0  0  0  0
 12  1  1  0  0  0  0
 13 19  1  0  0  0  0
 13 18  1  0  0  0  0
 14 13  2  0  0  0  0
 15 14  1  0  0  0  0
 15 16  2  0  0  0  0
 16 17  1  0  0  0  0
 17 18  2  0  0  0  0
 17 12  1  0  0  0  0
 20 14  1  0  0  0  0
 21 15  1  0  0  0  0
M  END
>  <minimizedAffinity>
-3.64124131

$$$$

 OpenBabel03272509483D

 21 21  0  0  0  0  0  0  0  0999 V2000
   38.2020   22.2410   35.8460 C   0  0  0  0  0  0  0  0  0  0  0  0
   38.0430   21.1860   36.1570 H   0  0  0  0  0  0  0  0  0  0  0  0
   37.2880   22.8000   36.1380 H   0  0  0  0  0  0  0  0  0  0  0  0
   39.3950   22.7620   36.5830 C   0  0  0  0  0  0  0  0  0  0  0  0
   40.3170   22.2980   36.1460 H   0  0  0  0  0  0  0  0  0  0  0  0
   39.4860   23.8520   36.3620 H   0  0  0  0  0  0  0  0  0  0  0  0
   38.5180   23.5030   39.9000 H   0  0  0  0  0  0  0  0  0  0  0  0
   38.6310   23.5240   38.8350 C   0  0  0  0  0  0  0  0  0  0  0  0
   38.0310   24.5310   38.3750 O   0  0  0  0  0  0  0  0  0  0  0  0
   39.3290   22.6040   38.0070 N   0  0  0  0  0  0  0  0  0  0  0  0
   39.7780   21.8120   38.5500 H   0  0  0  0  0  0  0  0  0  0  0  0
   38.4360   22.3050   34.4460 O   0  0  0  0  0  0  0  0  0  0  0  0
   36.0280   22.4190   31.7510 C   0  0  0  0  0  0  0  0  0  0  0  0
   35.1680   21.4010   32.1920 C   0  0  0  0  0  0  0  0  0  0  0  0
   35.4400   20.7220   33.3740 C   0  0  0  0  0  0  0  0  0  0  0  0
   36.5600   21.1060   34.0510 N   0  0  0  0  0  0  0  0  0  0  0  0
   37.3770   22.0920   33.6090 C   0  0  0  0  0  0  0  0  0  0  0  0
   37.1000   22.7420   32.4560 N   0  0  0  0  0  0  0  0  0  0  0  0
   35.7530   22.8980   30.8270 H   0  0  0  0  0  0  0  0  0  0  0  0
   34.2750   21.0910   31.6580 H   0  0  0  0  0  0  0  0  0  0  0  0
   34.8050   19.9350   33.7470 H   0  0  0  0  0  0  0  0  0  0  0  0
  1  3  1  0  0  0  0
  1  2  1  0  0  0  0
  1  4  1  0  0  0  0
  4 10  1  0  0  0  0
  5  4  1  0  0  0  0
  6  4  1  0  0  0  0
  8  7  1  0  0  0  0
  9  8  2  0  0  0  0
 10 11  1  0  0  0  0
 10  8  1  0  0  0  0
 12  1  1  0  0  0  0
 13 14  2  0  0  0  0
 13 18  1  0  0  0  0
 14 15  1  0  0  0  0
 15 21  1  0  0  0  0
 15 16  2  0  0  0  0
 17 16  1  0  0  0  0
 17 12  1  0  0  0  0
 18 17  2  0  0  0  0
 19 13  1  0  0  0  0
 20 14  1  0  0  0  0
M  END
>  <minimizedAffinity>
-3.50690699

$$$$

 OpenBabel03272509483D

 21 21  0  0  0  0  0  0  0  0999 V2000
   40.1700   23.5090   35.7700 C   0  0  0  0  0  0  0  0  0  0  0  0
   40.2900   24.3970   36.4280 H   0  0  0  0  0  0  0  0  0  0  0  0
   41.1770   23.2740   35.3640 H   0  0  0  0  0  0  0  0  0  0  0  0
   39.6650   22.3800   36.6100 C   0  0  0  0  0  0  0  0  0  0  0  0
   38.6560   22.0720   36.2300 H   0  0  0  0  0  0  0  0  0  0  0  0
   40.3230   21.4970   36.4320 H   0  0  0  0  0  0  0  0  0  0  0  0
   38.5000   23.6320   39.6760 H   0  0  0  0  0  0  0  0  0  0  0  0
   38.6070   23.3770   38.6410 C   0  0  0  0  0  0  0  0  0  0  0  0
   37.6260   23.8360   37.9980 O   0  0  0  0  0  0  0  0  0  0  0  0
   39.6560   22.6470   38.0200 N   0  0  0  0  0  0  0  0  0  0  0  0
   40.4040   22.3320   38.7010 H   0  0  0  0  0  0  0  0  0  0  0  0
   39.2370   23.7940   34.7360 O   0  0  0  0  0  0  0  0  0  0  0  0
   37.1200   26.6500   34.0770 C   0  0  0  0  0  0  0  0  0  0  0  0
   37.6260   27.5200   35.0560 C   0  0  0  0  0  0  0  0  0  0  0  0
   38.6550   27.1030   35.8930 C   0  0  0  0  0  0  0  0  0  0  0  0
   39.1210   25.8360   35.6990 N   0  0  0  0  0  0  0  0  0  0  0  0
   38.6200   25.0120   34.7480 C   0  0  0  0  0  0  0  0  0  0  0  0
   37.6170   25.4310   33.9420 N   0  0  0  0  0  0  0  0  0  0  0  0
   36.3240   27.0420   33.4680 H   0  0  0  0  0  0  0  0  0  0  0  0
   37.2600   28.5290   35.2160 H   0  0  0  0  0  0  0  0  0  0  0  0
   39.0720   27.7400   36.6570 H   0  0  0  0  0  0  0  0  0  0  0  0
  1  2  1  0  0  0  0
  1  4  1  0  0  0  0
  3  1  1  0  0  0  0
  4 10  1  0  0  0  0
  5  4  1  0  0  0  0
  6  4  1  0  0  0  0
  8  7  1  0  0  0  0
  9  8  2  0  0  0  0
 10  8  1  0  0  0  0
 10 11  1  0  0  0  0
 12 17  1  0  0  0  0
 12  1  1  0  0  0  0
 13 14  1  0  0  0  0
 14 20  1  0  0  0  0
 14 15  2  0  0  0  0
 15 21  1  0  0  0  0
 16 15  1  0  0  0  0
 17 16  2  0  0  0  0
 18 13  2  0  0  0  0
 18 17  1  0  0  0  0
 19 13  1  0  0  0  0
M  END
>  <minimizedAffinity>
-3.48650432

$$$$

 OpenBabel03272509483D

 21 21  0  0  0  0  0  0  0  0999 V2000
   38.2200   22.9110   34.8700 C   0  0  0  0  0  0  0  0  0  0  0  0
   38.7720   22.0300   34.4770 H   0  0  0  0  0  0  0  0  0  0  0  0
   37.3770   23.0970   34.1720 H   0  0  0  0  0  0  0  0  0  0  0  0
   37.7090   22.5640   36.2320 C   0  0  0  0  0  0  0  0  0  0  0  0
   36.8800   23.2710   36.4950 H   0  0  0  0  0  0  0  0  0  0  0  0
   37.2250   21.5600   36.1720 H   0  0  0  0  0  0  0  0  0  0  0  0
   39.4140   23.4330   39.1740 H   0  0  0  0  0  0  0  0  0  0  0  0
   38.7150   23.3880   38.3640 C   0  0  0  0  0  0  0  0  0  0  0  0
   37.8310   24.2690   38.5290 O   0  0  0  0  0  0  0  0  0  0  0  0
   38.7200   22.5070   37.2490 N   0  0  0  0  0  0  0  0  0  0  0  0
   39.5310   21.8260   37.2590 H   0  0  0  0  0  0  0  0  0  0  0  0
   39.0920   24.0300   34.9550 O   0  0  0  0  0  0  0  0  0  0  0  0
   38.1330   27.4400   35.6830 C   0  0  0  0  0  0  0  0  0  0  0  0
   37.2490   27.6450   34.6110 C   0  0  0  0  0  0  0  0  0  0  0  0
   37.0200   26.6270   33.6920 C   0  0  0  0  0  0  0  0  0  0  0  0
   37.6880   25.4580   33.9030 N   0  0  0  0  0  0  0  0  0  0  0  0
   38.5360   25.2780   34.9440 C   0  0  0  0  0  0  0  0  0  0  0  0
   38.7500   26.2790   35.8290 N   0  0  0  0  0  0  0  0  0  0  0  0
   38.2600   28.2730   36.3520 H   0  0  0  0  0  0  0  0  0  0  0  0
   36.7140   28.5740   34.4380 H   0  0  0  0  0  0  0  0  0  0  0  0
   36.3500   26.7440   32.8560 H   0  0  0  0  0  0  0  0  0  0  0  0
  1 12  1  0  0  0  0
  1  4  1  0  0  0  0
  2  1  1  0  0  0  0
  3  1  1  0  0  0  0
  4  5  1  0  0  0  0
  4 10  1  0  0  0  0
  6  4  1  0  0  0  0
  8  9  2  0  0  0  0
  8  7  1  0  0  0  0
 10 11  1  0  0  0  0
 10  8  1  0  0  0  0
 13 18  1  0  0  0  0
 13 19  1  0  0  0  0
 14 13  2  0  0  0  0
 15 16  2  0  0  0  0
 15 14  1  0  0  0  0
 16 17  1  0  0  0  0
 17 12  1  0  0  0  0
 17 18  2  0  0  0  0
 20 14  1  0  0  0  0
 21 15  1  0  0  0  0
M  END
>  <minimizedAffinity>
-3.3205874

$$$$

 OpenBabel03272509483D

 21 21  0  0  0  0  0  0  0  0999 V2000
   38.6400   23.8550   35.1580 C   0  0  0  0  0  0  0  0  0  0  0  0
   38.1240   24.8370   35.0830 H   0  0  0  0  0  0  0  0  0  0  0  0
   39.6680   24.0630   35.5260 H   0  0  0  0  0  0  0  0  0  0  0  0
   37.8890   23.0140   36.1400 C   0  0  0  0  0  0  0  0  0  0  0  0
   36.9340   23.5390   36.4040 H   0  0  0  0  0  0  0  0  0  0  0  0
   37.5720   22.0790   35.6200 H   0  0  0  0  0  0  0  0  0  0  0  0
   39.1360   23.2240   39.4140 H   0  0  0  0  0  0  0  0  0  0  0  0
   38.6160   23.4090   38.4960 C   0  0  0  0  0  0  0  0  0  0  0  0
   37.9340   24.4610   38.6110 O   0  0  0  0  0  0  0  0  0  0  0  0
   38.6440   22.6400   37.3020 N   0  0  0  0  0  0  0  0  0  0  0  0
   39.2660   21.7850   37.3700 H   0  0  0  0  0  0  0  0  0  0  0  0
   38.6540   23.2160   33.8890 O   0  0  0  0  0  0  0  0  0  0  0  0
   35.8270   22.9200   31.6550 C   0  0  0  0  0  0  0  0  0  0  0  0
   35.6130   24.2850   31.4010 C   0  0  0  0  0  0  0  0  0  0  0  0
   36.4290   25.2400   31.9950 C   0  0  0  0  0  0  0  0  0  0  0  0
   37.4170   24.7720   32.8100 N   0  0  0  0  0  0  0  0  0  0  0  0
   37.6080   23.4510   33.0420 C   0  0  0  0  0  0  0  0  0  0  0  0
   36.8040   22.5330   32.4570 N   0  0  0  0  0  0  0  0  0  0  0  0
   35.1540   22.2410   31.1600 H   0  0  0  0  0  0  0  0  0  0  0  0
   34.8280   24.6640   30.7530 H   0  0  0  0  0  0  0  0  0  0  0  0
   36.2990   26.2970   31.8270 H   0  0  0  0  0  0  0  0  0  0  0  0
  1  3  1  0  0  0  0
  1  4  1  0  0  0  0
  2  1  1  0  0  0  0
  4  5  1  0  0  0  0
  4 10  1  0  0  0  0
  6  4  1  0  0  0  0
  8  9  2  0  0  0  0
  8  7  1  0  0  0  0
 10 11  1  0  0  0  0
 10  8  1  0  0  0  0
 12  1  1  0  0  0  0
 13 18  1  0  0  0  0
 14 13  2  0  0  0  0
 14 15  1  0  0  0  0
 15 16  2  0  0  0  0
 16 17  1  0  0  0  0
 17 12  1  0  0  0  0
 18 17  2  0  0  0  0
 19 13  1  0  0  0  0
 20 14  1  0  0  0  0
 21 15  1  0  0  0  0
M  END
>  <minimizedAffinity>
-3.28591728

$$$$

 OpenBabel03272509483D

 21 21  0  0  0  0  0  0  0  0999 V2000
   37.6940   25.8890   34.6950 C   0  0  0  0  0  0  0  0  0  0  0  0
   38.4690   26.6430   34.9520 H   0  0  0  0  0  0  0  0  0  0  0  0
   36.8660   26.0220   35.4230 H   0  0  0  0  0  0  0  0  0  0  0  0
   37.2220   26.1720   33.3040 C   0  0  0  0  0  0  0  0  0  0  0  0
   37.5660   25.3420   32.6330 H   0  0  0  0  0  0  0  0  0  0  0  0
   36.1080   26.1060   33.2990 H   0  0  0  0  0  0  0  0  0  0  0  0
   36.7980   29.3360   31.8450 H   0  0  0  0  0  0  0  0  0  0  0  0
   36.6350   28.3550   32.2450 C   0  0  0  0  0  0  0  0  0  0  0  0
   35.4120   28.0690   32.1530 O   0  0  0  0  0  0  0  0  0  0  0  0
   37.5910   27.4650   32.8030 N   0  0  0  0  0  0  0  0  0  0  0  0
   38.5750   27.8580   32.8070 H   0  0  0  0  0  0  0  0  0  0  0  0
   38.2480   24.5820   34.7590 O   0  0  0  0  0  0  0  0  0  0  0  0
   39.7840   22.8440   37.5320 C   0  0  0  0  0  0  0  0  0  0  0  0
   38.9450   23.3020   38.5610 C   0  0  0  0  0  0  0  0  0  0  0  0
   37.9040   24.1760   38.2720 C   0  0  0  0  0  0  0  0  0  0  0  0
   37.7600   24.5400   36.9660 N   0  0  0  0  0  0  0  0  0  0  0  0
   38.5800   24.0860   35.9880 C   0  0  0  0  0  0  0  0  0  0  0  0
   39.5900   23.2360   36.2840 N   0  0  0  0  0  0  0  0  0  0  0  0
   40.5680   22.1700   37.8320 H   0  0  0  0  0  0  0  0  0  0  0  0
   39.0540   23.0160   39.6020 H   0  0  0  0  0  0  0  0  0  0  0  0
   37.2370   24.5520   39.0320 H   0  0  0  0  0  0  0  0  0  0  0  0
  1 12  1  0  0  0  0
  1  2  1  0  0  0  0
  1  3  1  0  0  0  0
  4  1  1  0  0  0  0
  5  4  1  0  0  0  0
  6  4  1  0  0  0  0
  7  8  1  0  0  0  0
  8 10  1  0  0  0  0
  9  8  2  0  0  0  0
 10 11  1  0  0  0  0
 10  4  1  0  0  0  0
 12 17  1  0  0  0  0
 13 19  1  0  0  0  0
 13 14  1  0  0  0  0
 14 20  1  0  0  0  0
 15 14  2  0  0  0  0
 15 21  1  0  0  0  0
 16 15  1  0  0  0  0
 17 18  1  0  0  0  0
 17 16  2  0  0  0  0
 18 13  2  0  0  0  0
M  END
>  <minimizedAffinity>
-3.22654605

$$$$

 OpenBabel03272509483D

 21 21  0  0  0  0  0  0  0  0999 V2000
   37.9020   23.9810   37.5910 C   0  0  0  0  0  0  0  0  0  0  0  0
   37.3380   23.0650   37.3110 H   0  0  0  0  0  0  0  0  0  0  0  0
   37.1860   24.6460   38.1200 H   0  0  0  0  0  0  0  0  0  0  0  0
   39.0150   23.5760   38.5020 C   0  0  0  0  0  0  0  0  0  0  0  0
   39.7950   24.3810   38.4970 H   0  0  0  0  0  0  0  0  0  0  0  0
   38.6190   23.5620   39.5450 H   0  0  0  0  0  0  0  0  0  0  0  0
   41.2550   21.2100   37.1950 H   0  0  0  0  0  0  0  0  0  0  0  0
   40.7580   22.1210   37.4620 C   0  0  0  0  0  0  0  0  0  0  0  0
   41.3960   23.0950   36.9840 O   0  0  0  0  0  0  0  0  0  0  0  0
   39.5700   22.2820   38.2240 N   0  0  0  0  0  0  0  0  0  0  0  0
   39.1570   21.3620   38.5520 H   0  0  0  0  0  0  0  0  0  0  0  0
   38.4330   24.5980   36.4260 O   0  0  0  0  0  0  0  0  0  0  0  0
   37.7350   23.9800   32.9330 C   0  0  0  0  0  0  0  0  0  0  0  0
   37.5660   22.5870   32.9930 C   0  0  0  0  0  0  0  0  0  0  0  0
   37.6990   21.9220   34.2070 C   0  0  0  0  0  0  0  0  0  0  0  0
   37.9890   22.6920   35.2930 N   0  0  0  0  0  0  0  0  0  0  0  0
   38.1470   24.0360   35.2150 C   0  0  0  0  0  0  0  0  0  0  0  0
   38.0170   24.6690   34.0270 N   0  0  0  0  0  0  0  0  0  0  0  0
   37.6180   24.4250   31.9600 H   0  0  0  0  0  0  0  0  0  0  0  0
   37.3350   21.9680   32.1320 H   0  0  0  0  0  0  0  0  0  0  0  0
   37.5770   20.8540   34.2960 H   0  0  0  0  0  0  0  0  0  0  0  0
  1  3  1  0  0  0  0
  1  4  1  0  0  0  0
  2  1  1  0  0  0  0
  4  6  1  0  0  0  0
  5  4  1  0  0  0  0
  7  8  1  0  0  0  0
  8 10  1  0  0  0  0
  9  8  2  0  0  0  0
 10  4  1  0  0  0  0
 10 11  1  0  0  0  0
 12  1  1  0  0  0  0
 13 14  2  0  0  0  0
 13 18  1  0  0  0  0
 14 15  1  0  0  0  0
 15 21  1  0  0  0  0
 15 16  2  0  0  0  0
 17 16  1  0  0  0  0
 17 12  1  0  0  0  0
 18 17  2  0  0  0  0
 19 13  1  0  0  0  0
 20 14  1  0  0  0  0
M  END
>  <minimizedAffinity>
-3.22579908

$$$$

 OpenBabel03272509483D

 21 21  0  0  0  0  0  0  0  0999 V2000
   38.3550   25.3310   34.0870 C   0  0  0  0  0  0  0  0  0  0  0  0
   39.4210   25.6320   34.1790 H   0  0  0  0  0  0  0  0  0  0  0  0
   37.7620   26.0850   34.6460 H   0  0  0  0  0  0  0  0  0  0  0  0
   37.9960   25.3500   32.6350 C   0  0  0  0  0  0  0  0  0  0  0  0
   38.6110   26.1360   32.1240 H   0  0  0  0  0  0  0  0  0  0  0  0
   38.3280   24.3840   32.1860 H   0  0  0  0  0  0  0  0  0  0  0  0
   34.8720   24.6930   31.1760 H   0  0  0  0  0  0  0  0  0  0  0  0
   35.9090   24.6690   31.4470 C   0  0  0  0  0  0  0  0  0  0  0  0
   36.4840   23.7540   30.8010 O   0  0  0  0  0  0  0  0  0  0  0  0
   36.5940   25.5000   32.3730 N   0  0  0  0  0  0  0  0  0  0  0  0
   35.9650   26.2200   32.8310 H   0  0  0  0  0  0  0  0  0  0  0  0
   38.1740   24.0220   34.6100 O   0  0  0  0  0  0  0  0  0  0  0  0
   37.8700   24.0290   38.2130 C   0  0  0  0  0  0  0  0  0  0  0  0
   39.0150   23.2780   38.5240 C   0  0  0  0  0  0  0  0  0  0  0  0
   39.8340   22.8030   37.5060 C   0  0  0  0  0  0  0  0  0  0  0  0
   39.4600   23.1110   36.2320 N   0  0  0  0  0  0  0  0  0  0  0  0
   38.3510   23.8380   35.9520 C   0  0  0  0  0  0  0  0  0  0  0  0
   37.5630   24.2920   36.9530 N   0  0  0  0  0  0  0  0  0  0  0  0
   37.2840   24.3610   39.0530 H   0  0  0  0  0  0  0  0  0  0  0  0
   39.3180   23.0290   39.5360 H   0  0  0  0  0  0  0  0  0  0  0  0
   40.7220   22.2240   37.7020 H   0  0  0  0  0  0  0  0  0  0  0  0
  1  2  1  0  0  0  0
  1 12  1  0  0  0  0
  1  3  1  0  0  0  0
  4  1  1  0  0  0  0
  5  4  1  0  0  0  0
  6  4  1  0  0  0  0
  7  8  1  0  0  0  0
  8 10  1  0  0  0  0
  9  8  2  0  0  0  0
 10  4  1  0  0  0  0
 10 11  1  0  0  0  0
 12 17  1  0  0  0  0
 13 14  1  0  0  0  0
 13 19  1  0  0  0  0
 14 20  1  0  0  0  0
 15 21  1  0  0  0  0
 15 14  2  0  0  0  0
 16 15  1  0  0  0  0
 17 16  2  0  0  0  0
 17 18  1  0  0  0  0
 18 13  2  0  0  0  0
M  END
>  <minimizedAffinity>
-3.21019506

$$$$

 OpenBabel03272509483D

 21 21  0  0  0  0  0  0  0  0999 V2000
   38.7760   23.2490   33.5720 C   0  0  0  0  0  0  0  0  0  0  0  0
   39.3390   22.6830   32.7970 H   0  0  0  0  0  0  0  0  0  0  0  0
   39.4730   24.0110   33.9790 H   0  0  0  0  0  0  0  0  0  0  0  0
   37.6100   23.9050   32.9050 C   0  0  0  0  0  0  0  0  0  0  0  0
   37.0320   24.4790   33.6750 H   0  0  0  0  0  0  0  0  0  0  0  0
   38.0050   24.6770   32.2030 H   0  0  0  0  0  0  0  0  0  0  0  0
   34.9720   22.9000   30.8180 H   0  0  0  0  0  0  0  0  0  0  0  0
   35.6570   23.4740   31.4090 C   0  0  0  0  0  0  0  0  0  0  0  0
   35.3270   24.6880   31.3620 O   0  0  0  0  0  0  0  0  0  0  0  0
   36.7750   23.0110   32.1530 N   0  0  0  0  0  0  0  0  0  0  0  0
   36.9160   21.9630   32.0870 H   0  0  0  0  0  0  0  0  0  0  0  0
   38.3160   22.3610   34.5810 O   0  0  0  0  0  0  0  0  0  0  0  0
   40.0770   22.6960   37.7210 C   0  0  0  0  0  0  0  0  0  0  0  0
   39.0410   23.2540   38.4870 C   0  0  0  0  0  0  0  0  0  0  0  0
   37.7990   23.4930   37.9100 C   0  0  0  0  0  0  0  0  0  0  0  0
   37.6650   23.1560   36.5960 N   0  0  0  0  0  0  0  0  0  0  0  0
   38.6770   22.6170   35.8740 C   0  0  0  0  0  0  0  0  0  0  0  0
   39.8810   22.3920   36.4490 N   0  0  0  0  0  0  0  0  0  0  0  0
   41.0100   22.5410   38.2360 H   0  0  0  0  0  0  0  0  0  0  0  0
   39.1410   23.5250   39.5340 H   0  0  0  0  0  0  0  0  0  0  0  0
   36.9780   23.9200   38.4630 H   0  0  0  0  0  0  0  0  0  0  0  0
  1  3  1  0  0  0  0
  1 12  1  0  0  0  0
  2  1  1  0  0  0  0
  4  1  1  0  0  0  0
  4  5  1  0  0  0  0
  6  4  1  0  0  0  0
  7  8  1  0  0  0  0
  8 10  1  0  0  0  0
  9  8  2  0  0  0  0
 10  4  1  0  0  0  0
 11 10  1  0  0  0  0
 12 17  1  0  0  0  0
 13 19  1  0  0  0  0
 13 14  1  0  0  0  0
 14 20  1  0  0  0  0
 15 21  1  0  0  0  0
 15 14  2  0  0  0  0
 16 15  1  0  0  0  0
 17 18  1  0  0  0  0
 17 16  2  0  0  0  0
 18 13  2  0  0  0  0
M  END
>  <minimizedAffinity>
-3.20944262

$$$$
