
 OpenBabel03272510293D

 24 25  0  0  0  0  0  0  0  0999 V2000
   37.0420   31.1550   49.1870 C   0  0  0  0  0  0  0  0  0  0  0  0
   37.4510   32.3900   49.6890 C   0  0  0  0  0  0  0  0  0  0  0  0
   38.3910   33.0610   48.9220 C   0  0  0  0  0  0  0  0  0  0  0  0
   38.8530   32.5120   47.7660 N   0  0  0  0  0  0  0  0  0  0  0  0
   38.4270   31.3030   47.3110 C   0  0  0  0  0  0  0  0  0  0  0  0
   37.4980   30.6190   48.0500 N   0  0  0  0  0  0  0  0  0  0  0  0
   37.0770   32.8180   50.6100 H   0  0  0  0  0  0  0  0  0  0  0  0
   38.7870   34.0220   49.2020 H   0  0  0  0  0  0  0  0  0  0  0  0
   36.0000   30.3980   49.9660 C   0  0  0  0  0  0  0  0  0  0  0  0
   35.8310   28.9700   49.8560 C   0  0  0  0  0  0  0  0  0  0  0  0
   36.6080   29.4970   51.0420 C   0  0  0  0  0  0  0  0  0  0  0  0
   35.1580   31.0410   50.2920 H   0  0  0  0  0  0  0  0  0  0  0  0
   36.5080   28.4150   49.1430 H   0  0  0  0  0  0  0  0  0  0  0  0
   34.8670   28.4770   49.9870 H   0  0  0  0  0  0  0  0  0  0  0  0
   36.0410   29.4910   51.9950 H   0  0  0  0  0  0  0  0  0  0  0  0
   37.6920   29.4110   51.0900 H   0  0  0  0  0  0  0  0  0  0  0  0
   38.9020   30.6950   46.0730 C   0  0  0  0  0  0  0  0  0  0  0  0
   38.4790   31.1660   45.1790 H   0  0  0  0  0  0  0  0  0  0  0  0
   38.6830   29.6310   46.0110 H   0  0  0  0  0  0  0  0  0  0  0  0
   42.1680   31.5950   45.2860 H   0  0  0  0  0  0  0  0  0  0  0  0
   41.0790   31.5980   45.1750 C   0  0  0  0  0  0  0  0  0  0  0  0
   40.5310   32.2930   44.2680 O   0  0  0  0  0  0  0  0  0  0  0  0
   40.3630   30.7950   46.0920 N   0  0  0  0  0  0  0  0  0  0  0  0
   40.8580   30.2300   46.8350 H   0  0  0  0  0  0  0  0  0  0  0  0
  1  2  1  0  0  0  0
  1  9  1  0  0  0  0
  2  7  1  0  0  0  0
  3  8  1  0  0  0  0
  3  2  2  0  0  0  0
  4  3  1  0  0  0  0
  5  4  2  0  0  0  0
  5  6  1  0  0  0  0
  6  1  2  0  0  0  0
  9 12  1  0  0  0  0
  9 11  1  0  0  0  0
 10  9  1  0  0  0  0
 10 14  1  0  0  0  0
 10 11  1  0  0  0  0
 11 16  1  0  0  0  0
 11 15  1  0  0  0  0
 13 10  1  0  0  0  0
 17 23  1  0  0  0  0
 17  5  1  0  0  0  0
 18 17  1  0  0  0  0
 19 17  1  0  0  0  0
 21 20  1  0  0  0  0
 21 23  1  0  0  0  0
 22 21  2  0  0  0  0
 23 24  1  0  0  0  0
M  END
>  <minimizedAffinity>
-5.12688017

>  <minimizedRMSD>
1.15507734

$$$$
