
 OpenBabel03272509293D

 30 31  0  0  1  0  0  0  0  0999 V2000
   38.8930   25.8730   34.7800 C   0  0  2  0  0  0  0  0  0  0  0  0
   38.5260   27.2150   35.3810 C   0  0  0  0  0  0  0  0  0  0  0  0
   37.1620   27.6990   34.9830 C   0  0  0  0  0  0  0  0  0  0  0  0
   36.9990   27.7270   33.4720 C   0  0  0  0  0  0  0  0  0  0  0  0
   37.6050   26.5410   32.7820 C   0  0  0  0  0  0  0  0  0  0  0  0
   37.8650   25.4330   33.7890 C   0  0  1  0  0  0  0  0  0  0  0  0
   39.8870   25.9240   34.3270 H   0  0  0  0  0  0  0  0  0  0  0  0
   38.5490   27.1680   36.4910 H   0  0  0  0  0  0  0  0  0  0  0  0
   39.2450   28.0080   35.0500 H   0  0  0  0  0  0  0  0  0  0  0  0
   36.3940   27.0420   35.4520 H   0  0  0  0  0  0  0  0  0  0  0  0
   37.0330   28.7150   35.3610 H   0  0  0  0  0  0  0  0  0  0  0  0
   35.8870   27.6530   33.2950 H   0  0  0  0  0  0  0  0  0  0  0  0
   37.3320   28.6980   33.0830 H   0  0  0  0  0  0  0  0  0  0  0  0
   37.0020   26.1680   31.9350 H   0  0  0  0  0  0  0  0  0  0  0  0
   38.6100   26.7900   32.3670 H   0  0  0  0  0  0  0  0  0  0  0  0
   36.8900   25.3560   34.3600 H   0  0  0  0  0  0  0  0  0  0  0  0
   38.9480   24.8450   35.8620 C   0  0  0  0  0  0  0  0  0  0  0  0
   38.0110   24.9780   36.9010 C   0  0  0  0  0  0  0  0  0  0  0  0
   38.0720   24.0190   37.9210 C   0  0  0  0  0  0  0  0  0  0  0  0
   39.0120   23.0290   37.8570 N   0  0  0  0  0  0  0  0  0  0  0  0
   39.9030   22.9370   36.8310 C   0  0  0  0  0  0  0  0  0  0  0  0
   39.8530   23.8510   35.8490 N   0  0  0  0  0  0  0  0  0  0  0  0
   37.2660   25.7260   36.9940 H   0  0  0  0  0  0  0  0  0  0  0  0
   37.3960   24.0320   38.7650 H   0  0  0  0  0  0  0  0  0  0  0  0
   40.6060   22.1180   36.8730 H   0  0  0  0  0  0  0  0  0  0  0  0
   37.3580   22.4940   31.9030 H   0  0  0  0  0  0  0  0  0  0  0  0
   37.1650   23.4480   32.3490 C   0  0  0  0  0  0  0  0  0  0  0  0
   35.9810   23.6120   31.8970 O   0  0  0  0  0  0  0  0  0  0  0  0
   38.0940   24.1710   33.1840 N   0  0  0  0  0  0  0  0  0  0  0  0
   38.9760   23.6480   33.2960 H   0  0  0  0  0  0  0  0  0  0  0  0
  1  7  1  6  0  0  0
  1  2  1  0  0  0  0
  1 17  1  0  0  0  0
  2  8  1  0  0  0  0
  3 11  1  0  0  0  0
  3  2  1  0  0  0  0
  3 10  1  0  0  0  0
  4  3  1  0  0  0  0
  5  4  1  0  0  0  0
  5  6  1  0  0  0  0
  6 16  1  1  0  0  0
  6  1  1  0  0  0  0
  9  2  1  0  0  0  0
 12  4  1  0  0  0  0
 13  4  1  0  0  0  0
 14  5  1  0  0  0  0
 15  5  1  0  0  0  0
 17 18  1  0  0  0  0
 18 23  1  0  0  0  0
 18 19  2  0  0  0  0
 19 24  1  0  0  0  0
 20 19  1  0  0  0  0
 21 25  1  0  0  0  0
 21 20  2  0  0  0  0
 22 17  2  0  0  0  0
 22 21  1  0  0  0  0
 26 27  1  0  0  0  0
 27 29  1  0  0  0  0
 28 27  2  0  0  0  0
 29 30  1  0  0  0  0
 29  6  1  0  0  0  0
M  END
>  <minimizedAffinity>
-4.40051746

$$$$

 OpenBabel03272509293D

 30 31  0  0  1  0  0  0  0  0999 V2000
   39.9180   23.8450   35.8130 C   0  0  2  0  0  0  0  0  0  0  0  0
   41.3250   23.7380   35.2570 C   0  0  0  0  0  0  0  0  0  0  0  0
   41.9320   22.3750   35.4200 C   0  0  0  0  0  0  0  0  0  0  0  0
   41.8930   21.9170   36.8700 C   0  0  0  0  0  0  0  0  0  0  0  0
   40.6100   22.2550   37.5700 C   0  0  0  0  0  0  0  0  0  0  0  0
   39.5390   22.6020   36.5500 C   0  0  1  0  0  0  0  0  0  0  0  0
   39.8340   24.7290   36.4500 H   0  0  0  0  0  0  0  0  0  0  0  0
   41.3370   23.9770   34.1720 H   0  0  0  0  0  0  0  0  0  0  0  0
   42.0130   24.4500   35.7810 H   0  0  0  0  0  0  0  0  0  0  0  0
   41.3910   21.6560   34.7630 H   0  0  0  0  0  0  0  0  0  0  0  0
   42.9760   22.4230   35.1040 H   0  0  0  0  0  0  0  0  0  0  0  0
   41.9310   20.7900   36.8230 H   0  0  0  0  0  0  0  0  0  0  0  0
   42.7980   22.2590   37.3890 H   0  0  0  0  0  0  0  0  0  0  0  0
   40.2590   21.4630   38.2540 H   0  0  0  0  0  0  0  0  0  0  0  0
   40.7240   23.1770   38.1880 H   0  0  0  0  0  0  0  0  0  0  0  0
   39.6020   21.7590   35.7970 H   0  0  0  0  0  0  0  0  0  0  0  0
   38.9530   24.0160   34.6860 C   0  0  0  0  0  0  0  0  0  0  0  0
   38.5050   25.3250   34.4360 C   0  0  0  0  0  0  0  0  0  0  0  0
   37.5920   25.4810   33.3860 C   0  0  0  0  0  0  0  0  0  0  0  0
   37.1900   24.3840   32.6750 N   0  0  0  0  0  0  0  0  0  0  0  0
   37.6490   23.1310   32.9510 C   0  0  0  0  0  0  0  0  0  0  0  0
   38.5250   22.9710   33.9560 N   0  0  0  0  0  0  0  0  0  0  0  0
   38.7860   26.2040   34.9580 H   0  0  0  0  0  0  0  0  0  0  0  0
   37.1870   26.4450   33.1130 H   0  0  0  0  0  0  0  0  0  0  0  0
   37.2710   22.3310   32.3320 H   0  0  0  0  0  0  0  0  0  0  0  0
   36.7130   23.4500   38.4850 H   0  0  0  0  0  0  0  0  0  0  0  0
   37.7080   23.4830   38.0900 C   0  0  0  0  0  0  0  0  0  0  0  0
   38.1300   24.4760   38.7730 O   0  0  0  0  0  0  0  0  0  0  0  0
   38.2270   22.5830   37.0890 N   0  0  0  0  0  0  0  0  0  0  0  0
   37.5130   21.8980   36.7980 H   0  0  0  0  0  0  0  0  0  0  0  0
  1  7  1  1  0  0  0
  1  6  1  0  0  0  0
  2  3  1  0  0  0  0
  2  9  1  0  0  0  0
  2  1  1  0  0  0  0
  3  4  1  0  0  0  0
  4 13  1  0  0  0  0
  4  5  1  0  0  0  0
  5 15  1  0  0  0  0
  5 14  1  0  0  0  0
  6 16  1  6  0  0  0
  6 29  1  0  0  0  0
  6  5  1  0  0  0  0
  8  2  1  0  0  0  0
 10  3  1  0  0  0  0
 11  3  1  0  0  0  0
 12  4  1  0  0  0  0
 17  1  1  0  0  0  0
 18 17  1  0  0  0  0
 18 23  1  0  0  0  0
 19 18  2  0  0  0  0
 20 21  2  0  0  0  0
 20 19  1  0  0  0  0
 21 22  1  0  0  0  0
 22 17  2  0  0  0  0
 24 19  1  0  0  0  0
 25 21  1  0  0  0  0
 27 26  1  0  0  0  0
 27 28  2  0  0  0  0
 29 27  1  0  0  0  0
 30 29  1  0  0  0  0
M  END
>  <minimizedAffinity>
-4.22072935

$$$$

 OpenBabel03272509293D

 30 31  0  0  1  0  0  0  0  0999 V2000
   36.9090   27.8540   32.0510 C   0  0  2  0  0  0  0  0  0  0  0  0
   36.4210   28.3300   33.4050 C   0  0  0  0  0  0  0  0  0  0  0  0
   35.3370   29.3650   33.3230 C   0  0  0  0  0  0  0  0  0  0  0  0
   35.7560   30.5450   32.4610 C   0  0  0  0  0  0  0  0  0  0  0  0
   36.5080   30.1460   31.2250 C   0  0  0  0  0  0  0  0  0  0  0  0
   36.3050   28.6650   30.9510 C   0  0  1  0  0  0  0  0  0  0  0  0
   38.0010   27.8830   32.0160 H   0  0  0  0  0  0  0  0  0  0  0  0
   36.0220   27.4800   33.9990 H   0  0  0  0  0  0  0  0  0  0  0  0
   37.2560   28.8010   33.9850 H   0  0  0  0  0  0  0  0  0  0  0  0
   34.4120   28.8890   32.9220 H   0  0  0  0  0  0  0  0  0  0  0  0
   35.1340   29.7310   34.3310 H   0  0  0  0  0  0  0  0  0  0  0  0
   34.7900   31.0030   32.1000 H   0  0  0  0  0  0  0  0  0  0  0  0
   36.2660   31.2920   33.0820 H   0  0  0  0  0  0  0  0  0  0  0  0
   36.2470   30.7480   30.3370 H   0  0  0  0  0  0  0  0  0  0  0  0
   37.6070   30.2610   31.3720 H   0  0  0  0  0  0  0  0  0  0  0  0
   35.1850   28.5270   31.0370 H   0  0  0  0  0  0  0  0  0  0  0  0
   36.4940   26.4340   31.8470 C   0  0  0  0  0  0  0  0  0  0  0  0
   37.3360   25.4500   32.3930 C   0  0  0  0  0  0  0  0  0  0  0  0
   36.9510   24.1190   32.1910 C   0  0  0  0  0  0  0  0  0  0  0  0
   35.8080   23.8480   31.4920 N   0  0  0  0  0  0  0  0  0  0  0  0
   35.0200   24.8330   30.9780 C   0  0  0  0  0  0  0  0  0  0  0  0
   35.3800   26.1130   31.1670 N   0  0  0  0  0  0  0  0  0  0  0  0
   38.2300   25.6100   32.9410 H   0  0  0  0  0  0  0  0  0  0  0  0
   37.5290   23.2870   32.5700 H   0  0  0  0  0  0  0  0  0  0  0  0
   34.1380   24.5150   30.4410 H   0  0  0  0  0  0  0  0  0  0  0  0
   38.2300   28.1630   28.0370 H   0  0  0  0  0  0  0  0  0  0  0  0
   37.9740   28.4560   29.0340 C   0  0  0  0  0  0  0  0  0  0  0  0
   39.1130   28.9260   29.3720 O   0  0  0  0  0  0  0  0  0  0  0  0
   36.6730   28.2860   29.6350 N   0  0  0  0  0  0  0  0  0  0  0  0
   36.0150   27.8410   28.9760 H   0  0  0  0  0  0  0  0  0  0  0  0
  1  7  1  6  0  0  0
  1  2  1  0  0  0  0
  2  9  1  0  0  0  0
  2  8  1  0  0  0  0
  3  2  1  0  0  0  0
  3 11  1  0  0  0  0
  4 13  1  0  0  0  0
  4  3  1  0  0  0  0
  5 15  1  0  0  0  0
  5  4  1  0  0  0  0
  6 16  1  1  0  0  0
  6  5  1  0  0  0  0
  6  1  1  0  0  0  0
 10  3  1  0  0  0  0
 12  4  1  0  0  0  0
 14  5  1  0  0  0  0
 17  1  1  0  0  0  0
 17 18  1  0  0  0  0
 18 23  1  0  0  0  0
 19 18  2  0  0  0  0
 19 24  1  0  0  0  0
 20 19  1  0  0  0  0
 21 22  1  0  0  0  0
 21 20  2  0  0  0  0
 22 17  2  0  0  0  0
 25 21  1  0  0  0  0
 26 27  1  0  0  0  0
 27 28  2  0  0  0  0
 27 29  1  0  0  0  0
 29  6  1  0  0  0  0
 30 29  1  0  0  0  0
M  END
>  <minimizedAffinity>
-4.18785191

$$$$

 OpenBabel03272509293D

 30 31  0  0  1  0  0  0  0  0999 V2000
   38.0280   26.8370   33.1660 C   0  0  2  0  0  0  0  0  0  0  0  0
   39.1480   27.2580   32.2350 C   0  0  0  0  0  0  0  0  0  0  0  0
   40.4920   26.7220   32.6310 C   0  0  0  0  0  0  0  0  0  0  0  0
   40.8320   27.0760   34.0700 C   0  0  0  0  0  0  0  0  0  0  0  0
   39.6690   26.9500   35.0090 C   0  0  0  0  0  0  0  0  0  0  0  0
   38.5690   26.1240   34.3620 C   0  0  1  0  0  0  0  0  0  0  0  0
   37.4350   27.7080   33.4550 H   0  0  0  0  0  0  0  0  0  0  0  0
   38.9470   26.9120   31.1980 H   0  0  0  0  0  0  0  0  0  0  0  0
   39.2510   28.3740   32.2180 H   0  0  0  0  0  0  0  0  0  0  0  0
   40.5000   25.6170   32.4820 H   0  0  0  0  0  0  0  0  0  0  0  0
   41.2470   27.1680   31.9800 H   0  0  0  0  0  0  0  0  0  0  0  0
   41.5780   26.2940   34.3970 H   0  0  0  0  0  0  0  0  0  0  0  0
   41.3380   28.0500   34.1000 H   0  0  0  0  0  0  0  0  0  0  0  0
   39.9410   26.5380   35.9960 H   0  0  0  0  0  0  0  0  0  0  0  0
   39.2010   27.9450   35.2000 H   0  0  0  0  0  0  0  0  0  0  0  0
   39.1150   25.2140   33.9660 H   0  0  0  0  0  0  0  0  0  0  0  0
   37.1170   25.8940   32.4500 C   0  0  0  0  0  0  0  0  0  0  0  0
   36.0950   26.4750   31.6790 C   0  0  0  0  0  0  0  0  0  0  0  0
   35.2350   25.5890   31.0180 C   0  0  0  0  0  0  0  0  0  0  0  0
   35.4260   24.2420   31.1500 N   0  0  0  0  0  0  0  0  0  0  0  0
   36.4300   23.7200   31.9090 C   0  0  0  0  0  0  0  0  0  0  0  0
   37.2600   24.5610   32.5470 N   0  0  0  0  0  0  0  0  0  0  0  0
   35.9070   27.5100   31.5460 H   0  0  0  0  0  0  0  0  0  0  0  0
   34.4180   25.9330   30.3990 H   0  0  0  0  0  0  0  0  0  0  0  0
   36.4960   22.6430   31.9500 H   0  0  0  0  0  0  0  0  0  0  0  0
   37.0860   24.3620   37.0350 H   0  0  0  0  0  0  0  0  0  0  0  0
   37.8310   24.7010   36.3450 C   0  0  0  0  0  0  0  0  0  0  0  0
   38.8070   24.0110   36.7960 O   0  0  0  0  0  0  0  0  0  0  0  0
   37.6020   25.6580   35.2900 N   0  0  0  0  0  0  0  0  0  0  0  0
   36.6220   25.9780   35.2840 H   0  0  0  0  0  0  0  0  0  0  0  0
  1  7  1  1  0  0  0
  1  6  1  0  0  0  0
  2  3  1  0  0  0  0
  2  1  1  0  0  0  0
  3  4  1  0  0  0  0
  4 13  1  0  0  0  0
  4 12  1  0  0  0  0
  4  5  1  0  0  0  0
  5 15  1  0  0  0  0
  5 14  1  0  0  0  0
  6 16  1  6  0  0  0
  6  5  1  0  0  0  0
  6 29  1  0  0  0  0
  8  2  1  0  0  0  0
  9  2  1  0  0  0  0
 10  3  1  0  0  0  0
 11  3  1  0  0  0  0
 17 22  1  0  0  0  0
 17  1  1  0  0  0  0
 18 17  2  0  0  0  0
 19 20  2  0  0  0  0
 19 18  1  0  0  0  0
 20 21  1  0  0  0  0
 21 25  1  0  0  0  0
 21 22  2  0  0  0  0
 23 18  1  0  0  0  0
 24 19  1  0  0  0  0
 27 28  2  0  0  0  0
 27 26  1  0  0  0  0
 29 27  1  0  0  0  0
 30 29  1  0  0  0  0
M  END
>  <minimizedAffinity>
-4.18086624

$$$$

 OpenBabel03272509293D

 30 31  0  0  1  0  0  0  0  0999 V2000
   38.2230   23.8990   35.7610 C   0  0  2  0  0  0  0  0  0  0  0  0
   37.4220   23.9250   37.0480 C   0  0  0  0  0  0  0  0  0  0  0  0
   38.2650   24.1060   38.2760 C   0  0  0  0  0  0  0  0  0  0  0  0
   39.3680   23.0630   38.3540 C   0  0  0  0  0  0  0  0  0  0  0  0
   40.0200   22.7800   37.0330 C   0  0  0  0  0  0  0  0  0  0  0  0
   39.6890   23.8870   36.0450 C   0  0  1  0  0  0  0  0  0  0  0  0
   37.9270   23.0390   35.1540 H   0  0  0  0  0  0  0  0  0  0  0  0
   36.6800   24.7530   37.0310 H   0  0  0  0  0  0  0  0  0  0  0  0
   36.8680   22.9620   37.1900 H   0  0  0  0  0  0  0  0  0  0  0  0
   38.6930   25.1350   38.2740 H   0  0  0  0  0  0  0  0  0  0  0  0
   37.6240   23.9950   39.1530 H   0  0  0  0  0  0  0  0  0  0  0  0
   40.1690   23.5290   38.9990 H   0  0  0  0  0  0  0  0  0  0  0  0
   38.9970   22.1730   38.8780 H   0  0  0  0  0  0  0  0  0  0  0  0
   41.1110   22.6280   37.1020 H   0  0  0  0  0  0  0  0  0  0  0  0
   39.6020   21.8540   36.5720 H   0  0  0  0  0  0  0  0  0  0  0  0
   39.9050   24.8360   36.6250 H   0  0  0  0  0  0  0  0  0  0  0  0
   37.9260   25.1290   34.9670 C   0  0  0  0  0  0  0  0  0  0  0  0
   37.9000   26.3420   35.6780 C   0  0  0  0  0  0  0  0  0  0  0  0
   37.6100   27.4930   34.9340 C   0  0  0  0  0  0  0  0  0  0  0  0
   37.3730   27.3840   33.5920 N   0  0  0  0  0  0  0  0  0  0  0  0
   37.4070   26.1870   32.9420 C   0  0  0  0  0  0  0  0  0  0  0  0
   37.6840   25.0780   33.6460 N   0  0  0  0  0  0  0  0  0  0  0  0
   38.0760   26.4760   36.7150 H   0  0  0  0  0  0  0  0  0  0  0  0
   37.5660   28.4740   35.3850 H   0  0  0  0  0  0  0  0  0  0  0  0
   37.2060   26.2080   31.8810 H   0  0  0  0  0  0  0  0  0  0  0  0
   41.9980   24.9700   33.6070 H   0  0  0  0  0  0  0  0  0  0  0  0
   41.3660   24.9880   34.4710 C   0  0  0  0  0  0  0  0  0  0  0  0
   41.6300   26.1780   34.8510 O   0  0  0  0  0  0  0  0  0  0  0  0
   40.5370   23.8910   34.9080 N   0  0  0  0  0  0  0  0  0  0  0  0
   40.6320   23.0790   34.2780 H   0  0  0  0  0  0  0  0  0  0  0  0
  1  7  1  6  0  0  0
  1  6  1  0  0  0  0
  1  2  1  0  0  0  0
  2  9  1  0  0  0  0
  2  3  1  0  0  0  0
  3  4  1  0  0  0  0
  3 11  1  0  0  0  0
  4 13  1  0  0  0  0
  4 12  1  0  0  0  0
  5 14  1  0  0  0  0
  5  4  1  0  0  0  0
  6 16  1  1  0  0  0
  6  5  1  0  0  0  0
  8  2  1  0  0  0  0
 10  3  1  0  0  0  0
 15  5  1  0  0  0  0
 17 18  1  0  0  0  0
 17  1  1  0  0  0  0
 18 23  1  0  0  0  0
 19 24  1  0  0  0  0
 19 18  2  0  0  0  0
 20 19  1  0  0  0  0
 21 20  2  0  0  0  0
 21 22  1  0  0  0  0
 22 17  2  0  0  0  0
 25 21  1  0  0  0  0
 26 27  1  0  0  0  0
 27 28  2  0  0  0  0
 27 29  1  0  0  0  0
 29  6  1  0  0  0  0
 30 29  1  0  0  0  0
M  END
>  <minimizedAffinity>
-4.16719294

$$$$

 OpenBabel03272509293D

 30 31  0  0  1  0  0  0  0  0999 V2000
   36.9920   27.0170   34.4630 C   0  0  2  0  0  0  0  0  0  0  0  0
   38.0260   27.5000   35.4610 C   0  0  0  0  0  0  0  0  0  0  0  0
   39.4020   26.9560   35.2120 C   0  0  0  0  0  0  0  0  0  0  0  0
   39.3960   25.4370   35.1420 C   0  0  0  0  0  0  0  0  0  0  0  0
   38.2210   24.8760   34.3960 C   0  0  0  0  0  0  0  0  0  0  0  0
   37.5660   25.9680   33.5670 C   0  0  1  0  0  0  0  0  0  0  0  0
   36.1060   26.6520   34.9900 H   0  0  0  0  0  0  0  0  0  0  0  0
   38.1010   28.6090   35.4410 H   0  0  0  0  0  0  0  0  0  0  0  0
   37.7510   27.1870   36.5000 H   0  0  0  0  0  0  0  0  0  0  0  0
   39.8000   27.3940   34.2680 H   0  0  0  0  0  0  0  0  0  0  0  0
   40.0470   27.2590   36.0380 H   0  0  0  0  0  0  0  0  0  0  0  0
   40.3070   25.1670   34.5310 H   0  0  0  0  0  0  0  0  0  0  0  0
   39.5370   25.0210   36.1480 H   0  0  0  0  0  0  0  0  0  0  0  0
   38.4730   24.0040   33.7680 H   0  0  0  0  0  0  0  0  0  0  0  0
   37.4260   24.5380   35.1010 H   0  0  0  0  0  0  0  0  0  0  0  0
   38.4350   26.4550   33.0290 H   0  0  0  0  0  0  0  0  0  0  0  0
   36.5610   28.1600   33.6040 C   0  0  0  0  0  0  0  0  0  0  0  0
   35.6020   29.0290   34.1530 C   0  0  0  0  0  0  0  0  0  0  0  0
   35.1900   30.0940   33.3410 C   0  0  0  0  0  0  0  0  0  0  0  0
   35.7250   30.2320   32.0910 N   0  0  0  0  0  0  0  0  0  0  0  0
   36.6540   29.3660   31.5970 C   0  0  0  0  0  0  0  0  0  0  0  0
   37.0540   28.3420   32.3670 N   0  0  0  0  0  0  0  0  0  0  0  0
   35.1580   28.9630   35.1130 H   0  0  0  0  0  0  0  0  0  0  0  0
   34.4570   30.8180   33.6680 H   0  0  0  0  0  0  0  0  0  0  0  0
   37.0140   29.5620   30.5980 H   0  0  0  0  0  0  0  0  0  0  0  0
   36.3970   24.5880   30.5370 H   0  0  0  0  0  0  0  0  0  0  0  0
   37.0760   24.9640   31.2740 C   0  0  0  0  0  0  0  0  0  0  0  0
   38.1560   24.8000   30.6120 O   0  0  0  0  0  0  0  0  0  0  0  0
   36.6890   25.4630   32.5720 N   0  0  0  0  0  0  0  0  0  0  0  0
   35.6670   25.4110   32.7010 H   0  0  0  0  0  0  0  0  0  0  0  0
  1  7  1  1  0  0  0
  1  2  1  0  0  0  0
  2  9  1  0  0  0  0
  3  2  1  0  0  0  0
  3 11  1  0  0  0  0
  4  3  1  0  0  0  0
  4 13  1  0  0  0  0
  5 15  1  0  0  0  0
  5  4  1  0  0  0  0
  6 16  1  6  0  0  0
  6  5  1  0  0  0  0
  6  1  1  0  0  0  0
  8  2  1  0  0  0  0
 10  3  1  0  0  0  0
 12  4  1  0  0  0  0
 14  5  1  0  0  0  0
 17 18  1  0  0  0  0
 17  1  1  0  0  0  0
 18 23  1  0  0  0  0
 19 24  1  0  0  0  0
 19 18  2  0  0  0  0
 20 19  1  0  0  0  0
 21 20  2  0  0  0  0
 21 22  1  0  0  0  0
 22 17  2  0  0  0  0
 25 21  1  0  0  0  0
 26 27  1  0  0  0  0
 27 29  1  0  0  0  0
 28 27  2  0  0  0  0
 29 30  1  0  0  0  0
 29  6  1  0  0  0  0
M  END
>  <minimizedAffinity>
-4.07874775

$$$$

 OpenBabel03272509293D

 30 31  0  0  1  0  0  0  0  0999 V2000
   36.7890   22.5040   31.5620 C   0  0  2  0  0  0  0  0  0  0  0  0
   35.5890   21.7200   31.0680 C   0  0  0  0  0  0  0  0  0  0  0  0
   34.8000   21.0730   32.1680 C   0  0  0  0  0  0  0  0  0  0  0  0
   35.6820   20.2020   33.0490 C   0  0  0  0  0  0  0  0  0  0  0  0
   37.0220   20.8110   33.3450 C   0  0  0  0  0  0  0  0  0  0  0  0
   36.9960   22.2970   33.0270 C   0  0  1  0  0  0  0  0  0  0  0  0
   37.6790   22.2260   30.9900 H   0  0  0  0  0  0  0  0  0  0  0  0
   34.8930   22.3810   30.5070 H   0  0  0  0  0  0  0  0  0  0  0  0
   35.9100   20.8910   30.3870 H   0  0  0  0  0  0  0  0  0  0  0  0
   34.3000   21.8660   32.7700 H   0  0  0  0  0  0  0  0  0  0  0  0
   34.0350   20.4400   31.7170 H   0  0  0  0  0  0  0  0  0  0  0  0
   35.1440   20.1450   34.0400 H   0  0  0  0  0  0  0  0  0  0  0  0
   35.7260   19.1860   32.6360 H   0  0  0  0  0  0  0  0  0  0  0  0
   37.3670   20.6360   34.3780 H   0  0  0  0  0  0  0  0  0  0  0  0
   37.8080   20.3910   32.6740 H   0  0  0  0  0  0  0  0  0  0  0  0
   36.0510   22.6630   33.5330 H   0  0  0  0  0  0  0  0  0  0  0  0
   36.5540   23.9620   31.3400 C   0  0  0  0  0  0  0  0  0  0  0  0
   35.2160   24.3640   31.1820 C   0  0  0  0  0  0  0  0  0  0  0  0
   34.9980   25.7300   30.9620 C   0  0  0  0  0  0  0  0  0  0  0  0
   36.0660   26.5820   30.9140 N   0  0  0  0  0  0  0  0  0  0  0  0
   37.3480   26.1510   31.0720 C   0  0  0  0  0  0  0  0  0  0  0  0
   37.5680   24.8430   31.2830 N   0  0  0  0  0  0  0  0  0  0  0  0
   34.3570   23.7430   31.2100 H   0  0  0  0  0  0  0  0  0  0  0  0
   34.0070   26.1410   30.8280 H   0  0  0  0  0  0  0  0  0  0  0  0
   38.1210   26.9030   31.0170 H   0  0  0  0  0  0  0  0  0  0  0  0
   39.1310   23.7570   35.4260 H   0  0  0  0  0  0  0  0  0  0  0  0
   38.3060   23.2150   35.0130 C   0  0  0  0  0  0  0  0  0  0  0  0
   37.7390   22.9010   36.1130 O   0  0  0  0  0  0  0  0  0  0  0  0
   38.0790   23.0090   33.6020 N   0  0  0  0  0  0  0  0  0  0  0  0
   38.8190   23.4550   33.0380 H   0  0  0  0  0  0  0  0  0  0  0  0
  1  7  1  6  0  0  0
  1  6  1  0  0  0  0
  2  1  1  0  0  0  0
  2  3  1  0  0  0  0
  3 10  1  0  0  0  0
  3  4  1  0  0  0  0
  4  5  1  0  0  0  0
  4 12  1  0  0  0  0
  5 14  1  0  0  0  0
  6  5  1  0  0  0  0
  6 16  1  1  0  0  0
  6 29  1  0  0  0  0
  8  2  1  0  0  0  0
  9  2  1  0  0  0  0
 11  3  1  0  0  0  0
 13  4  1  0  0  0  0
 15  5  1  0  0  0  0
 17  1  1  0  0  0  0
 18 23  1  0  0  0  0
 18 17  2  0  0  0  0
 19 18  1  0  0  0  0
 20 19  2  0  0  0  0
 20 21  1  0  0  0  0
 21 22  2  0  0  0  0
 22 17  1  0  0  0  0
 24 19  1  0  0  0  0
 25 21  1  0  0  0  0
 27 26  1  0  0  0  0
 27 28  2  0  0  0  0
 29 27  1  0  0  0  0
 30 29  1  0  0  0  0
M  END
>  <minimizedAffinity>
-4.042274

$$$$

 OpenBabel03272509293D

 30 31  0  0  1  0  0  0  0  0999 V2000
   39.3670   25.5130   34.6350 C   0  0  2  0  0  0  0  0  0  0  0  0
   39.4180   26.8500   35.3490 C   0  0  0  0  0  0  0  0  0  0  0  0
   38.0650   27.4210   35.6550 C   0  0  0  0  0  0  0  0  0  0  0  0
   37.2040   27.5150   34.4050 C   0  0  0  0  0  0  0  0  0  0  0  0
   37.3290   26.3240   33.5000 C   0  0  0  0  0  0  0  0  0  0  0  0
   37.9650   25.1670   34.2530 C   0  0  1  0  0  0  0  0  0  0  0  0
   40.0270   25.5290   33.7640 H   0  0  0  0  0  0  0  0  0  0  0  0
   39.9640   26.7590   36.3130 H   0  0  0  0  0  0  0  0  0  0  0  0
   39.9430   27.6150   34.7210 H   0  0  0  0  0  0  0  0  0  0  0  0
   37.5710   26.7880   36.4280 H   0  0  0  0  0  0  0  0  0  0  0  0
   38.1980   28.4270   36.0560 H   0  0  0  0  0  0  0  0  0  0  0  0
   36.1390   27.5060   34.7790 H   0  0  0  0  0  0  0  0  0  0  0  0
   37.3750   28.4800   33.9110 H   0  0  0  0  0  0  0  0  0  0  0  0
   36.3740   26.0160   33.0410 H   0  0  0  0  0  0  0  0  0  0  0  0
   38.0300   26.5350   32.6580 H   0  0  0  0  0  0  0  0  0  0  0  0
   37.3770   25.1210   35.2190 H   0  0  0  0  0  0  0  0  0  0  0  0
   39.8630   24.4430   35.5520 C   0  0  0  0  0  0  0  0  0  0  0  0
   41.1950   24.0310   35.3710 C   0  0  0  0  0  0  0  0  0  0  0  0
   41.6550   23.0200   36.2240 C   0  0  0  0  0  0  0  0  0  0  0  0
   40.8110   22.4980   37.1640 N   0  0  0  0  0  0  0  0  0  0  0  0
   39.5260   22.9270   37.3060 C   0  0  0  0  0  0  0  0  0  0  0  0
   39.0750   23.8960   36.4930 N   0  0  0  0  0  0  0  0  0  0  0  0
   41.8850   24.4040   34.6580 H   0  0  0  0  0  0  0  0  0  0  0  0
   42.6630   22.6320   36.1670 H   0  0  0  0  0  0  0  0  0  0  0  0
   38.9400   22.4500   38.0790 H   0  0  0  0  0  0  0  0  0  0  0  0
   38.1980   22.6010   31.8420 H   0  0  0  0  0  0  0  0  0  0  0  0
   38.3390   23.5500   32.3160 C   0  0  0  0  0  0  0  0  0  0  0  0
   39.0570   24.0900   31.4080 O   0  0  0  0  0  0  0  0  0  0  0  0
   37.7960   23.9180   33.6020 N   0  0  0  0  0  0  0  0  0  0  0  0
   37.2500   23.1430   34.0100 H   0  0  0  0  0  0  0  0  0  0  0  0
  1  7  1  6  0  0  0
  1  2  1  0  0  0  0
  1 17  1  0  0  0  0
  2  3  1  0  0  0  0
  2  8  1  0  0  0  0
  3 11  1  0  0  0  0
  3 10  1  0  0  0  0
  4 12  1  0  0  0  0
  4  3  1  0  0  0  0
  5  6  1  0  0  0  0
  5  4  1  0  0  0  0
  6  1  1  0  0  0  0
  6 16  1  1  0  0  0
  9  2  1  0  0  0  0
 13  4  1  0  0  0  0
 14  5  1  0  0  0  0
 15  5  1  0  0  0  0
 17 22  1  0  0  0  0
 18 17  2  0  0  0  0
 18 19  1  0  0  0  0
 19 20  2  0  0  0  0
 20 21  1  0  0  0  0
 21 25  1  0  0  0  0
 22 21  2  0  0  0  0
 23 18  1  0  0  0  0
 24 19  1  0  0  0  0
 26 27  1  0  0  0  0
 27 29  1  0  0  0  0
 28 27  2  0  0  0  0
 29 30  1  0  0  0  0
 29  6  1  0  0  0  0
M  END
>  <minimizedAffinity>
-4.02867842

$$$$

 OpenBabel03272509293D

 30 31  0  0  1  0  0  0  0  0999 V2000
   38.6600   24.7150   34.7470 C   0  0  2  0  0  0  0  0  0  0  0  0
   39.1730   23.6690   33.7780 C   0  0  0  0  0  0  0  0  0  0  0  0
   40.4680   24.0420   33.1200 C   0  0  0  0  0  0  0  0  0  0  0  0
   40.3770   25.4000   32.4420 C   0  0  0  0  0  0  0  0  0  0  0  0
   39.6200   26.4200   33.2410 C   0  0  0  0  0  0  0  0  0  0  0  0
   39.4900   25.9550   34.6820 C   0  0  1  0  0  0  0  0  0  0  0  0
   37.6070   24.9290   34.5450 H   0  0  0  0  0  0  0  0  0  0  0  0
   39.3340   22.6990   34.2980 H   0  0  0  0  0  0  0  0  0  0  0  0
   38.4390   23.5030   32.9480 H   0  0  0  0  0  0  0  0  0  0  0  0
   41.2790   24.0360   33.8850 H   0  0  0  0  0  0  0  0  0  0  0  0
   40.6980   23.2940   32.3600 H   0  0  0  0  0  0  0  0  0  0  0  0
   41.4410   25.7760   32.3910 H   0  0  0  0  0  0  0  0  0  0  0  0
   40.0210   25.2740   31.4110 H   0  0  0  0  0  0  0  0  0  0  0  0
   40.0580   27.4320   33.1920 H   0  0  0  0  0  0  0  0  0  0  0  0
   38.5700   26.5130   32.8760 H   0  0  0  0  0  0  0  0  0  0  0  0
   40.5430   25.6440   34.9590 H   0  0  0  0  0  0  0  0  0  0  0  0
   38.7470   24.1850   36.1410 C   0  0  0  0  0  0  0  0  0  0  0  0
   39.8380   23.3450   36.4250 C   0  0  0  0  0  0  0  0  0  0  0  0
   39.9120   22.8400   37.7290 C   0  0  0  0  0  0  0  0  0  0  0  0
   38.9470   23.1780   38.6360 N   0  0  0  0  0  0  0  0  0  0  0  0
   37.9050   23.9960   38.3200 C   0  0  0  0  0  0  0  0  0  0  0  0
   37.8250   24.4860   37.0720 N   0  0  0  0  0  0  0  0  0  0  0  0
   40.6080   23.0540   35.7560 H   0  0  0  0  0  0  0  0  0  0  0  0
   40.7110   22.1860   38.0490 H   0  0  0  0  0  0  0  0  0  0  0  0
   37.1960   24.2020   39.1080 H   0  0  0  0  0  0  0  0  0  0  0  0
   37.6290   28.5420   36.1970 H   0  0  0  0  0  0  0  0  0  0  0  0
   37.8920   27.7600   35.5150 C   0  0  0  0  0  0  0  0  0  0  0  0
   36.8450   27.8090   34.7850 O   0  0  0  0  0  0  0  0  0  0  0  0
   39.1150   26.9950   35.5710 N   0  0  0  0  0  0  0  0  0  0  0  0
   39.7080   27.2990   36.3590 H   0  0  0  0  0  0  0  0  0  0  0  0
  1  7  1  6  0  0  0
  1 17  1  0  0  0  0
  2  8  1  0  0  0  0
  2  1  1  0  0  0  0
  3  2  1  0  0  0  0
  3 10  1  0  0  0  0
  4  3  1  0  0  0  0
  4  5  1  0  0  0  0
  5  6  1  0  0  0  0
  6  1  1  0  0  0  0
  6 16  1  1  0  0  0
  6 29  1  0  0  0  0
  9  2  1  0  0  0  0
 11  3  1  0  0  0  0
 12  4  1  0  0  0  0
 13  4  1  0  0  0  0
 14  5  1  0  0  0  0
 15  5  1  0  0  0  0
 17 18  2  0  0  0  0
 17 22  1  0  0  0  0
 18 19  1  0  0  0  0
 19 24  1  0  0  0  0
 19 20  2  0  0  0  0
 21 20  1  0  0  0  0
 21 25  1  0  0  0  0
 22 21  2  0  0  0  0
 23 18  1  0  0  0  0
 27 29  1  0  0  0  0
 27 26  1  0  0  0  0
 28 27  2  0  0  0  0
 29 30  1  0  0  0  0
M  END
>  <minimizedAffinity>
-3.9864192

$$$$
