
 OpenBabel03272506503D

 30 31  0  0  1  0  0  0  0  0999 V2000
   34.5250   30.3850   48.9720 C   0  0  1  0  0  0  0  0  0  0  0  0
   34.1470   30.2880   47.5660 C   0  0  0  0  0  0  0  0  0  0  0  0
   34.1890   28.9240   46.9350 C   0  0  0  0  0  0  0  0  0  0  0  0
   33.7210   27.8230   47.8070 C   0  0  2  0  0  0  0  0  0  0  0  0
   34.1460   27.8790   49.2390 C   0  0  0  0  0  0  0  0  0  0  0  0
   33.9660   29.2530   49.7970 C   0  0  0  0  0  0  0  0  0  0  0  0
   34.0170   31.3020   49.4140 H   0  0  0  0  0  0  0  0  0  0  0  0
   33.0340   30.5370   47.5290 H   0  0  0  0  0  0  0  0  0  0  0  0
   34.5730   30.9950   46.8660 H   0  0  0  0  0  0  0  0  0  0  0  0
   35.2500   28.7220   46.6650 H   0  0  0  0  0  0  0  0  0  0  0  0
   33.5980   28.9430   46.0160 H   0  0  0  0  0  0  0  0  0  0  0  0
   32.6110   27.8200   47.7810 H   0  0  0  0  0  0  0  0  0  0  0  0
   33.5180   27.1990   49.8100 H   0  0  0  0  0  0  0  0  0  0  0  0
   35.2260   27.6350   49.3480 H   0  0  0  0  0  0  0  0  0  0  0  0
   32.8420   29.4250   49.7400 H   0  0  0  0  0  0  0  0  0  0  0  0
   34.1820   29.2720   50.8530 H   0  0  0  0  0  0  0  0  0  0  0  0
   36.8310   31.1810   48.2750 C   0  0  0  0  0  0  0  0  0  0  0  0
   35.9560   30.6550   49.2590 C   0  0  0  0  0  0  0  0  0  0  0  0
   36.4820   30.3980   50.5070 C   0  0  0  0  0  0  0  0  0  0  0  0
   37.8000   30.6560   50.7400 N   0  0  0  0  0  0  0  0  0  0  0  0
   38.6100   31.1610   49.7700 C   0  0  0  0  0  0  0  0  0  0  0  0
   38.1120   31.4210   48.5370 N   0  0  0  0  0  0  0  0  0  0  0  0
   36.4870   31.4050   47.2780 H   0  0  0  0  0  0  0  0  0  0  0  0
   35.9550   30.0090   51.3380 H   0  0  0  0  0  0  0  0  0  0  0  0
   39.6540   31.3730   49.9310 H   0  0  0  0  0  0  0  0  0  0  0  0
   33.5260   24.4900   46.8420 H   0  0  0  0  0  0  0  0  0  0  0  0
   33.2410   25.4390   47.2550 C   0  0  0  0  0  0  0  0  0  0  0  0
   32.0780   25.5190   47.7520 O   0  0  0  0  0  0  0  0  0  0  0  0
   34.1470   26.5510   47.2350 N   0  0  0  0  0  0  0  0  0  0  0  0
   35.1150   26.4480   46.8100 H   0  0  0  0  0  0  0  0  0  0  0  0
  1 18  1  0  0  0  0
  1  7  1  1  0  0  0
  1  6  1  0  0  0  0
  2  1  1  0  0  0  0
  3  2  1  0  0  0  0
  3  4  1  0  0  0  0
  4 12  1  6  0  0  0
  4  5  1  0  0  0  0
  5 14  1  0  0  0  0
  5  6  1  0  0  0  0
  5 13  1  0  0  0  0
  6 16  1  0  0  0  0
  8  2  1  0  0  0  0
  9  2  1  0  0  0  0
 10  3  1  0  0  0  0
 11  3  1  0  0  0  0
 15  6  1  0  0  0  0
 17 22  2  0  0  0  0
 17 18  1  0  0  0  0
 18 19  2  0  0  0  0
 19 20  1  0  0  0  0
 19 24  1  0  0  0  0
 21 25  1  0  0  0  0
 21 20  2  0  0  0  0
 22 21  1  0  0  0  0
 23 17  1  0  0  0  0
 26 27  1  0  0  0  0
 27 28  2  0  0  0  0
 29 27  1  0  0  0  0
 29  4  1  0  0  0  0
 30 29  1  0  0  0  0
M  END
>  <minimizedAffinity>
-4.20166302

>  <minimizedRMSD>
0.56301105

$$$$
