
 OpenBabel03272510073D

 26 27  0  0  0  0  0  0  0  0999 V2000
   36.8660   21.8080   33.0960 C   0  0  0  0  0  0  0  0  0  0  0  0
   35.8120   20.9570   33.4630 C   0  0  0  0  0  0  0  0  0  0  0  0
   35.6500   20.6600   34.8340 C   0  0  0  0  0  0  0  0  0  0  0  0
   36.5190   21.2140   35.7260 N   0  0  0  0  0  0  0  0  0  0  0  0
   37.5110   22.0230   35.3280 C   0  0  0  0  0  0  0  0  0  0  0  0
   37.6930   22.3230   34.0420 N   0  0  0  0  0  0  0  0  0  0  0  0
   38.3900   22.5710   36.3290 N   0  0  0  0  0  0  0  0  0  0  0  0
   37.9170   23.4270   37.4120 C   0  0  0  0  0  0  0  0  0  0  0  0
   39.0580   23.5240   38.3550 C   0  0  0  0  0  0  0  0  0  0  0  0
   40.1180   22.5680   37.8410 C   0  0  0  0  0  0  0  0  0  0  0  0
   39.8200   22.3610   36.4060 C   0  0  0  0  0  0  0  0  0  0  0  0
   37.0450   22.0750   32.0640 H   0  0  0  0  0  0  0  0  0  0  0  0
   34.8420   20.0050   35.1250 H   0  0  0  0  0  0  0  0  0  0  0  0
   36.9950   22.9730   37.8050 H   0  0  0  0  0  0  0  0  0  0  0  0
   37.6360   24.4390   37.0140 H   0  0  0  0  0  0  0  0  0  0  0  0
   38.7340   23.1470   39.3510 H   0  0  0  0  0  0  0  0  0  0  0  0
   39.4280   24.5520   38.5170 H   0  0  0  0  0  0  0  0  0  0  0  0
   41.0930   23.1270   37.9330 H   0  0  0  0  0  0  0  0  0  0  0  0
   40.2170   21.6680   38.4550 H   0  0  0  0  0  0  0  0  0  0  0  0
   40.0000   21.2800   36.1590 H   0  0  0  0  0  0  0  0  0  0  0  0
   40.3870   23.0020   35.7240 H   0  0  0  0  0  0  0  0  0  0  0  0
   34.0260   19.1150   31.2320 H   0  0  0  0  0  0  0  0  0  0  0  0
   34.7630   19.1090   32.0420 C   0  0  0  0  0  0  0  0  0  0  0  0
   35.3650   18.1340   32.5630 O   0  0  0  0  0  0  0  0  0  0  0  0
   34.9640   20.4330   32.4550 N   0  0  0  0  0  0  0  0  0  0  0  0
   34.5620   21.3220   32.1420 H   0  0  0  0  0  0  0  0  0  0  0  0
  1  2  2  0  0  0  0
  1  6  1  0  0  0  0
  2  3  1  0  0  0  0
  3 13  1  0  0  0  0
  3  4  2  0  0  0  0
  5  4  1  0  0  0  0
  5  7  1  0  0  0  0
  6  5  2  0  0  0  0
  7 11  1  0  0  0  0
  7  8  1  0  0  0  0
  8 14  1  0  0  0  0
  8  9  1  0  0  0  0
  9 17  1  0  0  0  0
  9 16  1  0  0  0  0
 10 18  1  0  0  0  0
 10  9  1  0  0  0  0
 10 19  1  0  0  0  0
 11 10  1  0  0  0  0
 12  1  1  0  0  0  0
 15  8  1  0  0  0  0
 20 11  1  0  0  0  0
 21 11  1  0  0  0  0
 22 23  1  0  0  0  0
 23 25  1  0  0  0  0
 23 24  2  0  0  0  0
 25  2  1  0  0  0  0
 26 25  1  0  0  0  0
M  END
>  <minimizedAffinity>
-4.31628466

$$$$

 OpenBabel03272510073D

 26 27  0  0  0  0  0  0  0  0999 V2000
   37.5890   23.9360   36.8970 C   0  0  0  0  0  0  0  0  0  0  0  0
   37.5460   22.6670   36.2970 C   0  0  0  0  0  0  0  0  0  0  0  0
   38.4040   22.4240   35.2040 C   0  0  0  0  0  0  0  0  0  0  0  0
   39.2290   23.4280   34.7880 N   0  0  0  0  0  0  0  0  0  0  0  0
   39.2360   24.6240   35.3930 C   0  0  0  0  0  0  0  0  0  0  0  0
   38.4380   24.8880   36.4280 N   0  0  0  0  0  0  0  0  0  0  0  0
   40.1350   25.6350   34.8980 N   0  0  0  0  0  0  0  0  0  0  0  0
   41.5840   25.4620   34.8790 C   0  0  0  0  0  0  0  0  0  0  0  0
   42.0950   26.5780   34.0460 C   0  0  0  0  0  0  0  0  0  0  0  0
   40.8760   27.2780   33.4760 C   0  0  0  0  0  0  0  0  0  0  0  0
   39.7480   26.9250   34.3670 C   0  0  0  0  0  0  0  0  0  0  0  0
   36.9590   24.1870   37.7380 H   0  0  0  0  0  0  0  0  0  0  0  0
   38.3770   21.4510   34.7350 H   0  0  0  0  0  0  0  0  0  0  0  0
   41.7840   24.4450   34.5100 H   0  0  0  0  0  0  0  0  0  0  0  0
   41.9970   25.5160   35.9220 H   0  0  0  0  0  0  0  0  0  0  0  0
   42.6610   26.1550   33.1860 H   0  0  0  0  0  0  0  0  0  0  0  0
   42.7910   27.2570   34.5720 H   0  0  0  0  0  0  0  0  0  0  0  0
   41.0900   28.3800   33.5800 H   0  0  0  0  0  0  0  0  0  0  0  0
   40.7340   27.0880   32.4080 H   0  0  0  0  0  0  0  0  0  0  0  0
   38.8370   26.7510   33.7340 H   0  0  0  0  0  0  0  0  0  0  0  0
   39.5310   27.6630   35.1440 H   0  0  0  0  0  0  0  0  0  0  0  0
   35.2300   20.2490   36.8830 H   0  0  0  0  0  0  0  0  0  0  0  0
   35.7400   20.8650   36.1360 C   0  0  0  0  0  0  0  0  0  0  0  0
   35.5930   20.8860   34.8860 O   0  0  0  0  0  0  0  0  0  0  0  0
   36.6510   21.6940   36.8070 N   0  0  0  0  0  0  0  0  0  0  0  0
   36.8870   21.7980   37.7980 H   0  0  0  0  0  0  0  0  0  0  0  0
  1 12  1  0  0  0  0
  2 25  1  0  0  0  0
  2  1  2  0  0  0  0
  3  2  1  0  0  0  0
  4  3  2  0  0  0  0
  4  5  1  0  0  0  0
  5  6  2  0  0  0  0
  6  1  1  0  0  0  0
  7  5  1  0  0  0  0
  8  7  1  0  0  0  0
  8 15  1  0  0  0  0
  9 17  1  0  0  0  0
  9  8  1  0  0  0  0
 10 18  1  0  0  0  0
 10  9  1  0  0  0  0
 10 11  1  0  0  0  0
 11  7  1  0  0  0  0
 11 21  1  0  0  0  0
 13  3  1  0  0  0  0
 14  8  1  0  0  0  0
 16  9  1  0  0  0  0
 19 10  1  0  0  0  0
 20 11  1  0  0  0  0
 23 25  1  0  0  0  0
 23 22  1  0  0  0  0
 24 23  2  0  0  0  0
 25 26  1  0  0  0  0
M  END
>  <minimizedAffinity>
-4.22494841

$$$$

 OpenBabel03272510073D

 26 27  0  0  0  0  0  0  0  0999 V2000
   37.5370   25.6310   33.1690 C   0  0  0  0  0  0  0  0  0  0  0  0
   38.3850   26.7350   32.9890 C   0  0  0  0  0  0  0  0  0  0  0  0
   39.4400   26.9140   33.9100 C   0  0  0  0  0  0  0  0  0  0  0  0
   39.5820   26.0100   34.9210 N   0  0  0  0  0  0  0  0  0  0  0  0
   38.7460   24.9700   35.0520 C   0  0  0  0  0  0  0  0  0  0  0  0
   37.7400   24.7710   34.2010 N   0  0  0  0  0  0  0  0  0  0  0  0
   38.9590   24.0560   36.1450 N   0  0  0  0  0  0  0  0  0  0  0  0
   40.1900   23.2880   36.3050 C   0  0  0  0  0  0  0  0  0  0  0  0
   40.1160   22.7180   37.6720 C   0  0  0  0  0  0  0  0  0  0  0  0
   38.8840   23.3230   38.3190 C   0  0  0  0  0  0  0  0  0  0  0  0
   38.0170   23.7740   37.2080 C   0  0  0  0  0  0  0  0  0  0  0  0
   36.7110   25.4360   32.5000 H   0  0  0  0  0  0  0  0  0  0  0  0
   40.0970   27.7620   33.7800 H   0  0  0  0  0  0  0  0  0  0  0  0
   41.0270   23.9730   36.1050 H   0  0  0  0  0  0  0  0  0  0  0  0
   40.2450   22.4750   35.5310 H   0  0  0  0  0  0  0  0  0  0  0  0
   40.9960   23.0670   38.2550 H   0  0  0  0  0  0  0  0  0  0  0  0
   40.1380   21.6130   37.7060 H   0  0  0  0  0  0  0  0  0  0  0  0
   38.3780   22.4680   38.8520 H   0  0  0  0  0  0  0  0  0  0  0  0
   39.1250   24.0660   39.0860 H   0  0  0  0  0  0  0  0  0  0  0  0
   37.5550   24.7570   37.4950 H   0  0  0  0  0  0  0  0  0  0  0  0
   37.2400   23.0630   36.9170 H   0  0  0  0  0  0  0  0  0  0  0  0
   37.3130   29.0630   30.7560 H   0  0  0  0  0  0  0  0  0  0  0  0
   37.1580   28.5910   31.7320 C   0  0  0  0  0  0  0  0  0  0  0  0
   36.2740   28.8240   32.5970 O   0  0  0  0  0  0  0  0  0  0  0  0
   38.1500   27.6170   31.9040 N   0  0  0  0  0  0  0  0  0  0  0  0
   38.9260   27.3090   31.3100 H   0  0  0  0  0  0  0  0  0  0  0  0
  1  6  1  0  0  0  0
  2  1  2  0  0  0  0
  2  3  1  0  0  0  0
  3  4  2  0  0  0  0
  4  5  1  0  0  0  0
  5  7  1  0  0  0  0
  6  5  2  0  0  0  0
  7  8  1  0  0  0  0
  7 11  1  0  0  0  0
  8  9  1  0  0  0  0
  9 17  1  0  0  0  0
  9 16  1  0  0  0  0
  9 10  1  0  0  0  0
 10 18  1  0  0  0  0
 10 19  1  0  0  0  0
 11 20  1  0  0  0  0
 11 10  1  0  0  0  0
 12  1  1  0  0  0  0
 13  3  1  0  0  0  0
 14  8  1  0  0  0  0
 15  8  1  0  0  0  0
 21 11  1  0  0  0  0
 22 23  1  0  0  0  0
 23 25  1  0  0  0  0
 23 24  2  0  0  0  0
 25  2  1  0  0  0  0
 26 25  1  0  0  0  0
M  END
>  <minimizedAffinity>
-3.89875841

$$$$

 OpenBabel03272510073D

 26 27  0  0  0  0  0  0  0  0999 V2000
   35.7910   24.8970   31.6100 C   0  0  0  0  0  0  0  0  0  0  0  0
   36.9470   25.2270   32.3340 C   0  0  0  0  0  0  0  0  0  0  0  0
   37.7450   24.1700   32.8220 C   0  0  0  0  0  0  0  0  0  0  0  0
   37.3550   22.8880   32.5660 N   0  0  0  0  0  0  0  0  0  0  0  0
   36.2410   22.6210   31.8690 C   0  0  0  0  0  0  0  0  0  0  0  0
   35.4650   23.5960   31.3940 N   0  0  0  0  0  0  0  0  0  0  0  0
   35.8930   21.2430   31.6370 N   0  0  0  0  0  0  0  0  0  0  0  0
   36.7580   20.3220   30.9080 C   0  0  0  0  0  0  0  0  0  0  0  0
   36.1810   18.9770   31.1470 C   0  0  0  0  0  0  0  0  0  0  0  0
   35.0670   19.1660   32.1590 C   0  0  0  0  0  0  0  0  0  0  0  0
   34.6780   20.5920   32.0780 C   0  0  0  0  0  0  0  0  0  0  0  0
   35.1370   25.6580   31.2080 H   0  0  0  0  0  0  0  0  0  0  0  0
   38.6360   24.4140   33.3820 H   0  0  0  0  0  0  0  0  0  0  0  0
   37.7840   20.4850   31.2700 H   0  0  0  0  0  0  0  0  0  0  0  0
   36.7580   20.5720   29.8120 H   0  0  0  0  0  0  0  0  0  0  0  0
   36.9530   18.3350   31.6270 H   0  0  0  0  0  0  0  0  0  0  0  0
   35.8630   18.4480   30.2300 H   0  0  0  0  0  0  0  0  0  0  0  0
   34.2130   18.5340   31.7830 H   0  0  0  0  0  0  0  0  0  0  0  0
   35.3220   18.7830   33.1520 H   0  0  0  0  0  0  0  0  0  0  0  0
   34.4750   20.9630   33.1190 H   0  0  0  0  0  0  0  0  0  0  0  0
   33.8210   20.7950   31.4310 H   0  0  0  0  0  0  0  0  0  0  0  0
   37.5340   28.3770   33.4690 H   0  0  0  0  0  0  0  0  0  0  0  0
   37.2120   27.3600   33.7170 C   0  0  0  0  0  0  0  0  0  0  0  0
   36.8470   26.8890   34.8250 O   0  0  0  0  0  0  0  0  0  0  0  0
   37.2630   26.5930   32.5450 N   0  0  0  0  0  0  0  0  0  0  0  0
   37.5310   26.8190   31.5830 H   0  0  0  0  0  0  0  0  0  0  0  0
  1  2  1  0  0  0  0
  2 25  1  0  0  0  0
  2  3  2  0  0  0  0
  3 13  1  0  0  0  0
  4  3  1  0  0  0  0
  5  4  2  0  0  0  0
  6  1  2  0  0  0  0
  6  5  1  0  0  0  0
  7  5  1  0  0  0  0
  7 11  1  0  0  0  0
  8  9  1  0  0  0  0
  8 14  1  0  0  0  0
  8  7  1  0  0  0  0
  9 16  1  0  0  0  0
  9 10  1  0  0  0  0
 10 19  1  0  0  0  0
 11 10  1  0  0  0  0
 11 20  1  0  0  0  0
 12  1  1  0  0  0  0
 15  8  1  0  0  0  0
 17  9  1  0  0  0  0
 18 10  1  0  0  0  0
 21 11  1  0  0  0  0
 22 23  1  0  0  0  0
 23 24  2  0  0  0  0
 25 23  1  0  0  0  0
 26 25  1  0  0  0  0
M  END
>  <minimizedAffinity>
-3.86623096

$$$$

 OpenBabel03272510073D

 26 27  0  0  0  0  0  0  0  0999 V2000
   37.6010   24.6990   30.8570 C   0  0  0  0  0  0  0  0  0  0  0  0
   36.4650   25.5240   30.8690 C   0  0  0  0  0  0  0  0  0  0  0  0
   35.2290   24.9400   31.2210 C   0  0  0  0  0  0  0  0  0  0  0  0
   35.2010   23.6130   31.5310 N   0  0  0  0  0  0  0  0  0  0  0  0
   36.3130   22.8640   31.5060 C   0  0  0  0  0  0  0  0  0  0  0  0
   37.4970   23.3830   31.1770 N   0  0  0  0  0  0  0  0  0  0  0  0
   36.2060   21.4690   31.8460 N   0  0  0  0  0  0  0  0  0  0  0  0
   35.7370   21.0070   33.1480 C   0  0  0  0  0  0  0  0  0  0  0  0
   35.5040   19.5520   32.9820 C   0  0  0  0  0  0  0  0  0  0  0  0
   35.7060   19.2540   31.5090 C   0  0  0  0  0  0  0  0  0  0  0  0
   36.5350   20.3590   30.9780 C   0  0  0  0  0  0  0  0  0  0  0  0
   38.5770   25.0830   30.5970 H   0  0  0  0  0  0  0  0  0  0  0  0
   34.3490   25.5680   31.2320 H   0  0  0  0  0  0  0  0  0  0  0  0
   34.8590   21.6160   33.4110 H   0  0  0  0  0  0  0  0  0  0  0  0
   36.5150   21.2040   33.9350 H   0  0  0  0  0  0  0  0  0  0  0  0
   34.4400   19.3290   33.2180 H   0  0  0  0  0  0  0  0  0  0  0  0
   36.1110   18.9150   33.6520 H   0  0  0  0  0  0  0  0  0  0  0  0
   36.3070   18.3000   31.4780 H   0  0  0  0  0  0  0  0  0  0  0  0
   34.7690   19.0470   30.9820 H   0  0  0  0  0  0  0  0  0  0  0  0
   36.1560   20.6270   29.9550 H   0  0  0  0  0  0  0  0  0  0  0  0
   37.6080   20.1460   30.9380 H   0  0  0  0  0  0  0  0  0  0  0  0
   36.7610   28.9070   30.7100 H   0  0  0  0  0  0  0  0  0  0  0  0
   36.6430   28.0280   31.3520 C   0  0  0  0  0  0  0  0  0  0  0  0
   36.5520   27.9640   32.6050 O   0  0  0  0  0  0  0  0  0  0  0  0
   36.6030   26.8930   30.5290 N   0  0  0  0  0  0  0  0  0  0  0  0
   36.6630   26.7750   29.5140 H   0  0  0  0  0  0  0  0  0  0  0  0
  1  2  2  0  0  0  0
  1  6  1  0  0  0  0
  2  3  1  0  0  0  0
  3 13  1  0  0  0  0
  3  4  2  0  0  0  0
  5  4  1  0  0  0  0
  5  7  1  0  0  0  0
  6  5  2  0  0  0  0
  7  8  1  0  0  0  0
  8 14  1  0  0  0  0
  8 15  1  0  0  0  0
  9  8  1  0  0  0  0
  9 16  1  0  0  0  0
  9 17  1  0  0  0  0
 10  9  1  0  0  0  0
 11 10  1  0  0  0  0
 11  7  1  0  0  0  0
 12  1  1  0  0  0  0
 18 10  1  0  0  0  0
 19 10  1  0  0  0  0
 20 11  1  0  0  0  0
 21 11  1  0  0  0  0
 22 23  1  0  0  0  0
 23 24  2  0  0  0  0
 25  2  1  0  0  0  0
 25 23  1  0  0  0  0
 26 25  1  0  0  0  0
M  END
>  <minimizedAffinity>
-3.84892273

$$$$

 OpenBabel03272510073D

 26 27  0  0  0  0  0  0  0  0999 V2000
   38.6780   22.1550   35.9600 C   0  0  0  0  0  0  0  0  0  0  0  0
   39.9450   22.4730   36.4750 C   0  0  0  0  0  0  0  0  0  0  0  0
   40.4700   23.7520   36.1930 C   0  0  0  0  0  0  0  0  0  0  0  0
   39.7250   24.6100   35.4390 N   0  0  0  0  0  0  0  0  0  0  0  0
   38.5190   24.2620   34.9680 C   0  0  0  0  0  0  0  0  0  0  0  0
   37.9930   23.0620   35.2150 N   0  0  0  0  0  0  0  0  0  0  0  0
   37.7900   25.2210   34.1790 N   0  0  0  0  0  0  0  0  0  0  0  0
   37.3850   26.5240   34.6950 C   0  0  0  0  0  0  0  0  0  0  0  0
   36.9360   27.2890   33.5070 C   0  0  0  0  0  0  0  0  0  0  0  0
   37.2540   26.4270   32.3000 C   0  0  0  0  0  0  0  0  0  0  0  0
   37.3670   25.0410   32.8060 C   0  0  0  0  0  0  0  0  0  0  0  0
   38.2180   21.1940   36.1390 H   0  0  0  0  0  0  0  0  0  0  0  0
   41.4450   24.0050   36.5850 H   0  0  0  0  0  0  0  0  0  0  0  0
   38.2440   26.9360   35.2460 H   0  0  0  0  0  0  0  0  0  0  0  0
   36.5500   26.4060   35.4380 H   0  0  0  0  0  0  0  0  0  0  0  0
   37.5510   28.2130   33.4210 H   0  0  0  0  0  0  0  0  0  0  0  0
   35.8820   27.6210   33.5510 H   0  0  0  0  0  0  0  0  0  0  0  0
   36.3470   26.4990   31.6350 H   0  0  0  0  0  0  0  0  0  0  0  0
   38.0980   26.8060   31.7150 H   0  0  0  0  0  0  0  0  0  0  0  0
   38.2170   24.5370   32.2720 H   0  0  0  0  0  0  0  0  0  0  0  0
   36.4560   24.4440   32.7110 H   0  0  0  0  0  0  0  0  0  0  0  0
   42.1240   20.3220   37.9500 H   0  0  0  0  0  0  0  0  0  0  0  0
   41.9720   21.0880   37.1830 C   0  0  0  0  0  0  0  0  0  0  0  0
   42.7950   21.5590   36.3550 O   0  0  0  0  0  0  0  0  0  0  0  0
   40.6370   21.5080   37.2480 N   0  0  0  0  0  0  0  0  0  0  0  0
   39.8560   21.2310   37.8500 H   0  0  0  0  0  0  0  0  0  0  0  0
  1 12  1  0  0  0  0
  1  2  1  0  0  0  0
  2 25  1  0  0  0  0
  3  2  2  0  0  0  0
  3 13  1  0  0  0  0
  4  3  1  0  0  0  0
  5  6  1  0  0  0  0
  5  4  2  0  0  0  0
  6  1  2  0  0  0  0
  7  8  1  0  0  0  0
  7  5  1  0  0  0  0
  8 14  1  0  0  0  0
  8 15  1  0  0  0  0
  9 17  1  0  0  0  0
  9  8  1  0  0  0  0
 10 11  1  0  0  0  0
 10  9  1  0  0  0  0
 11  7  1  0  0  0  0
 16  9  1  0  0  0  0
 18 10  1  0  0  0  0
 19 10  1  0  0  0  0
 20 11  1  0  0  0  0
 21 11  1  0  0  0  0
 23 25  1  0  0  0  0
 23 22  1  0  0  0  0
 24 23  2  0  0  0  0
 25 26  1  0  0  0  0
M  END
>  <minimizedAffinity>
-3.82579947

$$$$

 OpenBabel03272510073D

 26 27  0  0  0  0  0  0  0  0999 V2000
   36.4420   28.2400   30.9020 C   0  0  0  0  0  0  0  0  0  0  0  0
   37.5330   28.0670   30.0350 C   0  0  0  0  0  0  0  0  0  0  0  0
   38.6970   27.4600   30.5510 C   0  0  0  0  0  0  0  0  0  0  0  0
   38.7040   27.0730   31.8590 N   0  0  0  0  0  0  0  0  0  0  0  0
   37.6380   27.2590   32.6490 C   0  0  0  0  0  0  0  0  0  0  0  0
   36.5220   27.8290   32.1940 N   0  0  0  0  0  0  0  0  0  0  0  0
   37.7190   26.8230   34.0200 N   0  0  0  0  0  0  0  0  0  0  0  0
   37.9500   25.4320   34.3950 C   0  0  0  0  0  0  0  0  0  0  0  0
   38.2500   25.4670   35.8470 C   0  0  0  0  0  0  0  0  0  0  0  0
   38.3340   26.9320   36.2290 C   0  0  0  0  0  0  0  0  0  0  0  0
   37.5880   27.6710   35.1860 C   0  0  0  0  0  0  0  0  0  0  0  0
   35.5210   28.6970   30.5700 H   0  0  0  0  0  0  0  0  0  0  0  0
   39.5420   27.3240   29.8910 H   0  0  0  0  0  0  0  0  0  0  0  0
   38.7470   25.0480   33.7400 H   0  0  0  0  0  0  0  0  0  0  0  0
   37.0340   24.8150   34.1870 H   0  0  0  0  0  0  0  0  0  0  0  0
   39.2580   25.0270   36.0160 H   0  0  0  0  0  0  0  0  0  0  0  0
   37.5470   24.8850   36.4710 H   0  0  0  0  0  0  0  0  0  0  0  0
   37.7770   27.0180   37.2050 H   0  0  0  0  0  0  0  0  0  0  0  0
   39.3580   27.2650   36.4270 H   0  0  0  0  0  0  0  0  0  0  0  0
   38.1430   28.6200   34.9570 H   0  0  0  0  0  0  0  0  0  0  0  0
   36.5480   27.8950   35.4410 H   0  0  0  0  0  0  0  0  0  0  0  0
   37.6240   29.6380   27.0210 H   0  0  0  0  0  0  0  0  0  0  0  0
   37.9240   29.6600   28.0740 C   0  0  0  0  0  0  0  0  0  0  0  0
   38.5940   30.5260   28.6930 O   0  0  0  0  0  0  0  0  0  0  0  0
   37.4220   28.5060   28.6910 N   0  0  0  0  0  0  0  0  0  0  0  0
   36.8690   27.7190   28.3370 H   0  0  0  0  0  0  0  0  0  0  0  0
  1  6  1  0  0  0  0
  2  3  1  0  0  0  0
  2  1  2  0  0  0  0
  3  4  2  0  0  0  0
  4  5  1  0  0  0  0
  5  7  1  0  0  0  0
  6  5  2  0  0  0  0
  7  8  1  0  0  0  0
  7 11  1  0  0  0  0
  8  9  1  0  0  0  0
  9 16  1  0  0  0  0
  9 10  1  0  0  0  0
  9 17  1  0  0  0  0
 10 19  1  0  0  0  0
 10 18  1  0  0  0  0
 11 21  1  0  0  0  0
 11 10  1  0  0  0  0
 12  1  1  0  0  0  0
 13  3  1  0  0  0  0
 14  8  1  0  0  0  0
 15  8  1  0  0  0  0
 20 11  1  0  0  0  0
 22 23  1  0  0  0  0
 23 25  1  0  0  0  0
 23 24  2  0  0  0  0
 25  2  1  0  0  0  0
 26 25  1  0  0  0  0
M  END
>  <minimizedAffinity>
-3.80584407

$$$$

 OpenBabel03272510073D

 26 27  0  0  0  0  0  0  0  0999 V2000
   38.4500   26.5490   35.8850 C   0  0  0  0  0  0  0  0  0  0  0  0
   38.5050   25.2290   35.4100 C   0  0  0  0  0  0  0  0  0  0  0  0
   37.8910   24.9470   34.1710 C   0  0  0  0  0  0  0  0  0  0  0  0
   37.2800   25.9660   33.5010 N   0  0  0  0  0  0  0  0  0  0  0  0
   37.2530   27.2120   33.9940 C   0  0  0  0  0  0  0  0  0  0  0  0
   37.8230   27.5130   35.1620 N   0  0  0  0  0  0  0  0  0  0  0  0
   36.5900   28.2360   33.2300 N   0  0  0  0  0  0  0  0  0  0  0  0
   37.0070   28.6120   31.8830 C   0  0  0  0  0  0  0  0  0  0  0  0
   35.9110   29.4640   31.3610 C   0  0  0  0  0  0  0  0  0  0  0  0
   34.8060   29.4180   32.3990 C   0  0  0  0  0  0  0  0  0  0  0  0
   35.4520   29.0160   33.6680 C   0  0  0  0  0  0  0  0  0  0  0  0
   38.9000   26.8310   36.8260 H   0  0  0  0  0  0  0  0  0  0  0  0
   37.9280   23.9340   33.7980 H   0  0  0  0  0  0  0  0  0  0  0  0
   37.2050   27.6790   31.3330 H   0  0  0  0  0  0  0  0  0  0  0  0
   37.9770   29.1780   31.9190 H   0  0  0  0  0  0  0  0  0  0  0  0
   35.5080   29.0030   30.4330 H   0  0  0  0  0  0  0  0  0  0  0  0
   36.2230   30.4900   31.0890 H   0  0  0  0  0  0  0  0  0  0  0  0
   34.4440   30.4820   32.4950 H   0  0  0  0  0  0  0  0  0  0  0  0
   33.9430   28.8250   32.0790 H   0  0  0  0  0  0  0  0  0  0  0  0
   34.7660   28.3080   34.2070 H   0  0  0  0  0  0  0  0  0  0  0  0
   35.7260   29.8470   34.3240 H   0  0  0  0  0  0  0  0  0  0  0  0
   39.5010   22.8040   37.5730 H   0  0  0  0  0  0  0  0  0  0  0  0
   38.6820   23.4420   37.2290 C   0  0  0  0  0  0  0  0  0  0  0  0
   37.4940   23.5060   37.6430 O   0  0  0  0  0  0  0  0  0  0  0  0
   39.1650   24.2430   36.1860 N   0  0  0  0  0  0  0  0  0  0  0  0
   40.0840   24.3130   35.7400 H   0  0  0  0  0  0  0  0  0  0  0  0
  1 12  1  0  0  0  0
  2  1  1  0  0  0  0
  2 25  1  0  0  0  0
  3  2  2  0  0  0  0
  4  5  2  0  0  0  0
  4  3  1  0  0  0  0
  5  6  1  0  0  0  0
  6  1  2  0  0  0  0
  7 11  1  0  0  0  0
  7  5  1  0  0  0  0
  8 15  1  0  0  0  0
  8  7  1  0  0  0  0
  9  8  1  0  0  0  0
  9 10  1  0  0  0  0
 10 18  1  0  0  0  0
 10 11  1  0  0  0  0
 11 20  1  0  0  0  0
 11 21  1  0  0  0  0
 13  3  1  0  0  0  0
 14  8  1  0  0  0  0
 16  9  1  0  0  0  0
 17  9  1  0  0  0  0
 19 10  1  0  0  0  0
 23 22  1  0  0  0  0
 23 24  2  0  0  0  0
 25 23  1  0  0  0  0
 26 25  1  0  0  0  0
M  END
>  <minimizedAffinity>
-3.8055687

$$$$

 OpenBabel03272510073D

 26 27  0  0  0  0  0  0  0  0999 V2000
   36.0630   20.8440   33.6700 C   0  0  0  0  0  0  0  0  0  0  0  0
   36.5410   21.4380   32.4910 C   0  0  0  0  0  0  0  0  0  0  0  0
   37.5740   22.3920   32.6050 C   0  0  0  0  0  0  0  0  0  0  0  0
   38.0550   22.6860   33.8470 N   0  0  0  0  0  0  0  0  0  0  0  0
   37.5670   22.0920   34.9450 C   0  0  0  0  0  0  0  0  0  0  0  0
   36.5910   21.1860   34.8740 N   0  0  0  0  0  0  0  0  0  0  0  0
   38.1250   22.4530   36.2230 N   0  0  0  0  0  0  0  0  0  0  0  0
   39.5330   22.2580   36.5530 C   0  0  0  0  0  0  0  0  0  0  0  0
   39.7430   23.0110   37.8140 C   0  0  0  0  0  0  0  0  0  0  0  0
   38.4500   23.7570   38.0840 C   0  0  0  0  0  0  0  0  0  0  0  0
   37.3980   23.0400   37.3280 C   0  0  0  0  0  0  0  0  0  0  0  0
   35.2730   20.1060   33.6530 H   0  0  0  0  0  0  0  0  0  0  0  0
   37.9470   22.8560   31.7030 H   0  0  0  0  0  0  0  0  0  0  0  0
   40.1190   22.5890   35.6830 H   0  0  0  0  0  0  0  0  0  0  0  0
   39.7530   21.1650   36.6950 H   0  0  0  0  0  0  0  0  0  0  0  0
   40.5330   23.7760   37.6480 H   0  0  0  0  0  0  0  0  0  0  0  0
   40.0840   22.3910   38.6630 H   0  0  0  0  0  0  0  0  0  0  0  0
   38.2570   23.6280   39.1880 H   0  0  0  0  0  0  0  0  0  0  0  0
   38.5320   24.8340   37.9080 H   0  0  0  0  0  0  0  0  0  0  0  0
   36.7000   23.8000   36.8850 H   0  0  0  0  0  0  0  0  0  0  0  0
   36.8350   22.3070   37.9120 H   0  0  0  0  0  0  0  0  0  0  0  0
   35.6090   20.0340   29.5390 H   0  0  0  0  0  0  0  0  0  0  0  0
   36.2710   19.9800   30.4090 C   0  0  0  0  0  0  0  0  0  0  0  0
   37.1630   19.1350   30.6800 O   0  0  0  0  0  0  0  0  0  0  0  0
   35.9710   21.0620   31.2490 N   0  0  0  0  0  0  0  0  0  0  0  0
   35.2890   21.8230   31.1770 H   0  0  0  0  0  0  0  0  0  0  0  0
  1  6  1  0  0  0  0
  2  3  1  0  0  0  0
  2  1  2  0  0  0  0
  3  4  2  0  0  0  0
  4  5  1  0  0  0  0
  5  7  1  0  0  0  0
  6  5  2  0  0  0  0
  7  8  1  0  0  0  0
  7 11  1  0  0  0  0
  8 15  1  0  0  0  0
  8  9  1  0  0  0  0
  9 10  1  0  0  0  0
  9 17  1  0  0  0  0
 10 18  1  0  0  0  0
 11 21  1  0  0  0  0
 11 10  1  0  0  0  0
 12  1  1  0  0  0  0
 13  3  1  0  0  0  0
 14  8  1  0  0  0  0
 16  9  1  0  0  0  0
 19 10  1  0  0  0  0
 20 11  1  0  0  0  0
 22 23  1  0  0  0  0
 23 24  2  0  0  0  0
 23 25  1  0  0  0  0
 25  2  1  0  0  0  0
 26 25  1  0  0  0  0
M  END
>  <minimizedAffinity>
-3.7861824

$$$$
