
 OpenBabel03272510053D

 26 27  0  0  0  0  0  0  0  0999 V2000
   38.5230   32.5790   48.1680 C   0  0  0  0  0  0  0  0  0  0  0  0
   38.8540   32.4250   46.8120 C   0  0  0  0  0  0  0  0  0  0  0  0
   38.1480   31.4570   46.0660 C   0  0  0  0  0  0  0  0  0  0  0  0
   37.1850   30.7250   46.6960 N   0  0  0  0  0  0  0  0  0  0  0  0
   36.9040   30.9080   47.9940 C   0  0  0  0  0  0  0  0  0  0  0  0
   37.5510   31.8130   48.7280 N   0  0  0  0  0  0  0  0  0  0  0  0
   35.8730   30.0970   48.5900 N   0  0  0  0  0  0  0  0  0  0  0  0
   34.4890   30.1120   48.1270 C   0  0  0  0  0  0  0  0  0  0  0  0
   33.8460   28.9540   48.7940 C   0  0  0  0  0  0  0  0  0  0  0  0
   34.9530   28.2070   49.5120 C   0  0  0  0  0  0  0  0  0  0  0  0
   36.0510   29.1820   49.6970 C   0  0  0  0  0  0  0  0  0  0  0  0
   39.0250   33.3020   48.7950 H   0  0  0  0  0  0  0  0  0  0  0  0
   38.3970   31.3310   45.0220 H   0  0  0  0  0  0  0  0  0  0  0  0
   34.5150   30.0910   47.0280 H   0  0  0  0  0  0  0  0  0  0  0  0
   33.9900   31.0750   48.4210 H   0  0  0  0  0  0  0  0  0  0  0  0
   33.4420   28.2700   48.0150 H   0  0  0  0  0  0  0  0  0  0  0  0
   32.9940   29.2200   49.4460 H   0  0  0  0  0  0  0  0  0  0  0  0
   34.5270   27.9430   50.5220 H   0  0  0  0  0  0  0  0  0  0  0  0
   35.2140   27.2600   49.0290 H   0  0  0  0  0  0  0  0  0  0  0  0
   37.0270   28.6540   49.5230 H   0  0  0  0  0  0  0  0  0  0  0  0
   36.0610   29.6800   50.6710 H   0  0  0  0  0  0  0  0  0  0  0  0
   40.9900   34.2500   44.8980 H   0  0  0  0  0  0  0  0  0  0  0  0
   40.0990   33.6150   44.9230 C   0  0  0  0  0  0  0  0  0  0  0  0
   39.3590   33.2450   43.9750 O   0  0  0  0  0  0  0  0  0  0  0  0
   39.8720   33.2380   46.2540 N   0  0  0  0  0  0  0  0  0  0  0  0
   40.3690   33.4480   47.1240 H   0  0  0  0  0  0  0  0  0  0  0  0
  1  6  1  0  0  0  0
  1 12  1  0  0  0  0
  2  1  2  0  0  0  0
  3  4  2  0  0  0  0
  3  2  1  0  0  0  0
  4  5  1  0  0  0  0
  5  7  1  0  0  0  0
  5  6  2  0  0  0  0
  7 11  1  0  0  0  0
  8 15  1  0  0  0  0
  8  7  1  0  0  0  0
  8  9  1  0  0  0  0
  9 17  1  0  0  0  0
  9 10  1  0  0  0  0
 10 11  1  0  0  0  0
 10 18  1  0  0  0  0
 11 21  1  0  0  0  0
 13  3  1  0  0  0  0
 14  8  1  0  0  0  0
 16  9  1  0  0  0  0
 19 10  1  0  0  0  0
 20 11  1  0  0  0  0
 22 23  1  0  0  0  0
 23 25  1  0  0  0  0
 24 23  2  0  0  0  0
 25  2  1  0  0  0  0
 25 26  1  0  0  0  0
M  END
>  <minimizedAffinity>
-4.94753504

>  <minimizedRMSD>
1.42090285

$$$$
