
 OpenBabel03272503593D

 20 20  0  0  0  0  0  0  0  0999 V2000
   38.5110   32.1620   48.2510 C   0  0  0  0  0  0  0  0  0  0  0  0
   39.2980   32.6130   48.9310 H   0  0  0  0  0  0  0  0  0  0  0  0
   37.7030   32.8800   48.2720 H   0  0  0  0  0  0  0  0  0  0  0  0
   39.1700   32.0070   46.9590 C   0  0  0  0  0  0  0  0  0  0  0  0
   39.9230   33.0060   46.3650 C   0  0  0  0  0  0  0  0  0  0  0  0
   40.5040   32.7390   45.1060 C   0  0  0  0  0  0  0  0  0  0  0  0
   40.2840   31.4990   44.5480 N   0  0  0  0  0  0  0  0  0  0  0  0
   39.5420   30.5550   45.1660 C   0  0  0  0  0  0  0  0  0  0  0  0
   38.9910   30.8230   46.3700 N   0  0  0  0  0  0  0  0  0  0  0  0
   40.0380   33.9470   46.8850 H   0  0  0  0  0  0  0  0  0  0  0  0
   41.0870   33.5020   44.6390 H   0  0  0  0  0  0  0  0  0  0  0  0
   39.3980   29.5970   44.6870 H   0  0  0  0  0  0  0  0  0  0  0  0
   38.0110   30.8700   48.8470 C   0  0  0  0  0  0  0  0  0  0  0  0
   36.9090   30.9770   48.9130 H   0  0  0  0  0  0  0  0  0  0  0  0
   38.2980   30.0090   48.2110 H   0  0  0  0  0  0  0  0  0  0  0  0
   37.4590   30.0780   52.1160 H   0  0  0  0  0  0  0  0  0  0  0  0
   37.5040   30.3000   51.0590 C   0  0  0  0  0  0  0  0  0  0  0  0
   36.2880   30.0580   50.7540 O   0  0  0  0  0  0  0  0  0  0  0  0
   38.5410   30.7340   50.1880 N   0  0  0  0  0  0  0  0  0  0  0  0
   39.4320   30.8510   50.7130 H   0  0  0  0  0  0  0  0  0  0  0  0
  1  3  1  0  0  0  0
  1 13  1  0  0  0  0
  1  2  1  0  0  0  0
  4  1  1  0  0  0  0
  5 10  1  0  0  0  0
  5  4  2  0  0  0  0
  6  5  1  0  0  0  0
  7  6  2  0  0  0  0
  7  8  1  0  0  0  0
  8  9  2  0  0  0  0
  9  4  1  0  0  0  0
 11  6  1  0  0  0  0
 12  8  1  0  0  0  0
 13 14  1  0  0  0  0
 13 19  1  0  0  0  0
 15 13  1  0  0  0  0
 17 16  1  0  0  0  0
 18 17  2  0  0  0  0
 19 20  1  0  0  0  0
 19 17  1  0  0  0  0
M  END
>  <minimizedAffinity>
-4.11553335

>  <minimizedRMSD>
3.13579965

$$$$
