
 OpenBabel03272510323D

 24 25  0  0  0  0  0  0  0  0999 V2000
   36.1140   30.2810   48.6280 C   0  0  0  0  0  0  0  0  0  0  0  0
   35.2950   29.6900   47.7150 C   0  0  0  0  0  0  0  0  0  0  0  0
   34.1910   28.9490   48.0830 C   0  0  0  0  0  0  0  0  0  0  0  0
   33.9320   28.8200   49.4420 C   0  0  0  0  0  0  0  0  0  0  0  0
   34.7370   29.4020   50.3960 C   0  0  0  0  0  0  0  0  0  0  0  0
   35.8350   30.1370   49.9790 C   0  0  0  0  0  0  0  0  0  0  0  0
   35.4900   29.7860   46.6430 H   0  0  0  0  0  0  0  0  0  0  0  0
   33.5150   28.4640   47.3920 H   0  0  0  0  0  0  0  0  0  0  0  0
   33.0850   28.2540   49.8190 H   0  0  0  0  0  0  0  0  0  0  0  0
   34.5450   29.3080   51.4680 H   0  0  0  0  0  0  0  0  0  0  0  0
   38.5400   32.9680   48.3110 C   0  0  0  0  0  0  0  0  0  0  0  0
   39.3820   32.5570   47.2790 C   0  0  0  0  0  0  0  0  0  0  0  0
   39.0950   31.2990   46.6710 C   0  0  0  0  0  0  0  0  0  0  0  0
   38.0390   30.6050   47.1360 N   0  0  0  0  0  0  0  0  0  0  0  0
   37.2510   31.0400   48.1360 C   0  0  0  0  0  0  0  0  0  0  0  0
   37.5060   32.2300   48.7260 N   0  0  0  0  0  0  0  0  0  0  0  0
   38.7480   33.9280   48.7860 H   0  0  0  0  0  0  0  0  0  0  0  0
   40.2200   33.1720   46.9550 H   0  0  0  0  0  0  0  0  0  0  0  0
   39.7390   30.9660   45.8680 H   0  0  0  0  0  0  0  0  0  0  0  0
   38.4030   29.9660   52.1810 H   0  0  0  0  0  0  0  0  0  0  0  0
   37.6200   29.7990   51.4390 C   0  0  0  0  0  0  0  0  0  0  0  0
   37.5520   28.6170   50.9960 O   0  0  0  0  0  0  0  0  0  0  0  0
   36.6890   30.7530   50.9290 N   0  0  0  0  0  0  0  0  0  0  0  0
   36.7740   31.7190   51.3160 H   0  0  0  0  0  0  0  0  0  0  0  0
  1  6  1  0  0  0  0
  2  3  1  0  0  0  0
  2  1  2  0  0  0  0
  3  4  2  0  0  0  0
  4  9  1  0  0  0  0
  4  5  1  0  0  0  0
  5 10  1  0  0  0  0
  6  5  2  0  0  0  0
  6 23  1  0  0  0  0
  7  2  1  0  0  0  0
  8  3  1  0  0  0  0
 11 16  1  0  0  0  0
 11 17  1  0  0  0  0
 12 11  2  0  0  0  0
 13 14  2  0  0  0  0
 13 12  1  0  0  0  0
 14 15  1  0  0  0  0
 15  1  1  0  0  0  0
 15 16  2  0  0  0  0
 18 12  1  0  0  0  0
 19 13  1  0  0  0  0
 21 20  1  0  0  0  0
 22 21  2  0  0  0  0
 23 24  1  0  0  0  0
 23 21  1  0  0  0  0
M  END
>  <minimizedAffinity>
-4.98403549

>  <minimizedRMSD>
1.09108269

$$$$
