
 OpenBabel03272504463D

 26 27  0  0  0  0  0  0  0  0999 V2000
   36.3040   27.6750   32.1350 C   0  0  0  0  0  0  0  0  0  0  0  0
   36.2900   26.3780   31.6450 C   0  0  0  0  0  0  0  0  0  0  0  0
   36.7100   25.2700   32.3420 C   0  0  0  0  0  0  0  0  0  0  0  0
   37.1620   25.5290   33.6010 N   0  0  0  0  0  0  0  0  0  0  0  0
   37.1780   26.7980   34.0850 C   0  0  0  0  0  0  0  0  0  0  0  0
   36.7640   27.8420   33.3810 N   0  0  0  0  0  0  0  0  0  0  0  0
   35.9630   28.5150   31.5460 H   0  0  0  0  0  0  0  0  0  0  0  0
   39.7340   27.3220   36.2410 H   0  0  0  0  0  0  0  0  0  0  0  0
   39.0910   27.1720   35.3830 C   0  0  0  0  0  0  0  0  0  0  0  0
   39.8370   27.2300   34.3480 O   0  0  0  0  0  0  0  0  0  0  0  0
   37.6710   26.9510   35.4110 N   0  0  0  0  0  0  0  0  0  0  0  0
   37.2220   26.9340   36.3540 H   0  0  0  0  0  0  0  0  0  0  0  0
   39.3060   24.3880   31.2760 Cl  0  0  0  0  0  0  0  0  0  0  0  0
   37.8540   23.4210   31.2840 C   0  0  0  0  0  0  0  0  0  0  0  0
   36.6840   23.9190   31.8040 C   0  0  0  0  0  0  0  0  0  0  0  0
   35.5820   23.0970   31.7740 C   0  0  0  0  0  0  0  0  0  0  0  0
   35.6040   21.8180   31.2520 C   0  0  0  0  0  0  0  0  0  0  0  0
   36.8230   21.3600   30.7340 C   0  0  0  0  0  0  0  0  0  0  0  0
   36.8230   19.7410   30.0800 Cl  0  0  0  0  0  0  0  0  0  0  0  0
   37.9530   22.1510   30.7440 C   0  0  0  0  0  0  0  0  0  0  0  0
   34.6670   23.5020   32.1880 H   0  0  0  0  0  0  0  0  0  0  0  0
   34.6960   21.2290   31.2640 H   0  0  0  0  0  0  0  0  0  0  0  0
   38.8520   21.7440   30.3340 H   0  0  0  0  0  0  0  0  0  0  0  0
   35.7970   26.2040   30.3090 N   0  0  0  0  0  0  0  0  0  0  0  0
   36.2730   26.0460   29.4140 H   0  0  0  0  0  0  0  0  0  0  0  0
   34.7410   26.2760   30.4230 H   0  0  0  0  0  0  0  0  0  0  0  0
  1  6  1  0  0  0  0
  2  1  2  0  0  0  0
  2  3  1  0  0  0  0
  3  4  2  0  0  0  0
  4  5  1  0  0  0  0
  5 11  1  0  0  0  0
  6  5  2  0  0  0  0
  7  1  1  0  0  0  0
  9 11  1  0  0  0  0
  9  8  1  0  0  0  0
 10  9  2  0  0  0  0
 11 12  1  0  0  0  0
 13 14  1  0  0  0  0
 14 15  1  0  0  0  0
 15  3  1  0  0  0  0
 16 15  2  0  0  0  0
 16 21  1  0  0  0  0
 17 22  1  0  0  0  0
 17 16  1  0  0  0  0
 18 20  1  0  0  0  0
 18 17  2  0  0  0  0
 19 18  1  0  0  0  0
 20 14  2  0  0  0  0
 23 20  1  0  0  0  0
 24 26  1  0  0  0  0
 24  2  1  0  0  0  0
 25 24  1  0  0  0  0
M  END
>  <minimizedAffinity>
-4.95606375

$$$$

 OpenBabel03272504463D

 26 27  0  0  0  0  0  0  0  0999 V2000
   39.8050   22.5180   37.4900 C   0  0  0  0  0  0  0  0  0  0  0  0
   39.0740   23.5820   36.9840 C   0  0  0  0  0  0  0  0  0  0  0  0
   39.4540   24.3610   35.9190 C   0  0  0  0  0  0  0  0  0  0  0  0
   40.6470   24.0150   35.3590 N   0  0  0  0  0  0  0  0  0  0  0  0
   41.3690   22.9740   35.8510 C   0  0  0  0  0  0  0  0  0  0  0  0
   40.9670   22.2450   36.8830 N   0  0  0  0  0  0  0  0  0  0  0  0
   39.4620   21.9340   38.3330 H   0  0  0  0  0  0  0  0  0  0  0  0
   44.7040   23.4440   35.5140 H   0  0  0  0  0  0  0  0  0  0  0  0
   43.6610   23.4510   35.8050 C   0  0  0  0  0  0  0  0  0  0  0  0
   43.5600   24.2500   36.7970 O   0  0  0  0  0  0  0  0  0  0  0  0
   42.5980   22.7030   35.1900 N   0  0  0  0  0  0  0  0  0  0  0  0
   42.8650   22.0960   34.3830 H   0  0  0  0  0  0  0  0  0  0  0  0
   37.9230   23.6900   33.4970 Cl  0  0  0  0  0  0  0  0  0  0  0  0
   37.9160   25.2500   34.2770 C   0  0  0  0  0  0  0  0  0  0  0  0
   38.6660   25.4720   35.4070 C   0  0  0  0  0  0  0  0  0  0  0  0
   38.6090   26.7280   35.9650 C   0  0  0  0  0  0  0  0  0  0  0  0
   37.8450   27.7540   35.4430 C   0  0  0  0  0  0  0  0  0  0  0  0
   37.1000   27.4750   34.2890 C   0  0  0  0  0  0  0  0  0  0  0  0
   36.1450   28.7890   33.6510 Cl  0  0  0  0  0  0  0  0  0  0  0  0
   37.1280   26.2290   33.6980 C   0  0  0  0  0  0  0  0  0  0  0  0
   39.2040   26.8870   36.8540 H   0  0  0  0  0  0  0  0  0  0  0  0
   37.8500   28.7170   35.9370 H   0  0  0  0  0  0  0  0  0  0  0  0
   36.5380   26.0790   32.8190 H   0  0  0  0  0  0  0  0  0  0  0  0
   37.8300   23.8700   37.6390 N   0  0  0  0  0  0  0  0  0  0  0  0
   37.5570   24.6000   38.3080 H   0  0  0  0  0  0  0  0  0  0  0  0
   37.1750   23.1180   37.2700 H   0  0  0  0  0  0  0  0  0  0  0  0
  1  7  1  0  0  0  0
  2  1  1  0  0  0  0
  2 24  1  0  0  0  0
  3  2  2  0  0  0  0
  4  5  2  0  0  0  0
  4  3  1  0  0  0  0
  5  6  1  0  0  0  0
  6  1  2  0  0  0  0
  8  9  1  0  0  0  0
  9 10  2  0  0  0  0
 11  9  1  0  0  0  0
 11  5  1  0  0  0  0
 12 11  1  0  0  0  0
 13 14  1  0  0  0  0
 14 15  1  0  0  0  0
 15  3  1  0  0  0  0
 15 16  2  0  0  0  0
 16 21  1  0  0  0  0
 17 22  1  0  0  0  0
 17 16  1  0  0  0  0
 18 17  2  0  0  0  0
 19 18  1  0  0  0  0
 20 14  2  0  0  0  0
 20 18  1  0  0  0  0
 23 20  1  0  0  0  0
 24 25  1  0  0  0  0
 26 24  1  0  0  0  0
M  END
>  <minimizedAffinity>
-4.94621134

$$$$

 OpenBabel03272504463D

 26 27  0  0  0  0  0  0  0  0999 V2000
   37.9560   22.6850   34.7870 C   0  0  0  0  0  0  0  0  0  0  0  0
   38.8880   23.5280   34.2000 C   0  0  0  0  0  0  0  0  0  0  0  0
   39.9680   24.0770   34.8480 C   0  0  0  0  0  0  0  0  0  0  0  0
   40.0790   23.7310   36.1610 N   0  0  0  0  0  0  0  0  0  0  0  0
   39.1690   22.9070   36.7410 C   0  0  0  0  0  0  0  0  0  0  0  0
   38.1380   22.3960   36.0810 N   0  0  0  0  0  0  0  0  0  0  0  0
   37.1200   22.2780   34.2340 H   0  0  0  0  0  0  0  0  0  0  0  0
   38.6930   23.6130   40.0170 H   0  0  0  0  0  0  0  0  0  0  0  0
   38.7070   23.5840   38.9340 C   0  0  0  0  0  0  0  0  0  0  0  0
   38.0090   24.5740   38.5290 O   0  0  0  0  0  0  0  0  0  0  0  0
   39.3830   22.6140   38.1160 N   0  0  0  0  0  0  0  0  0  0  0  0
   39.9110   21.8680   38.6210 H   0  0  0  0  0  0  0  0  0  0  0  0
   39.4550   26.9300   35.3490 Cl  0  0  0  0  0  0  0  0  0  0  0  0
   40.7720   26.3110   34.3870 C   0  0  0  0  0  0  0  0  0  0  0  0
   40.9320   24.9580   34.2070 C   0  0  0  0  0  0  0  0  0  0  0  0
   41.9940   24.5470   33.4350 C   0  0  0  0  0  0  0  0  0  0  0  0
   42.8850   25.4220   32.8450 C   0  0  0  0  0  0  0  0  0  0  0  0
   42.6760   26.7910   33.0610 C   0  0  0  0  0  0  0  0  0  0  0  0
   43.8160   27.8740   32.3040 Cl  0  0  0  0  0  0  0  0  0  0  0  0
   41.6230   27.2470   33.8280 C   0  0  0  0  0  0  0  0  0  0  0  0
   42.1080   23.4790   33.3020 H   0  0  0  0  0  0  0  0  0  0  0  0
   43.6980   25.0240   32.2510 H   0  0  0  0  0  0  0  0  0  0  0  0
   41.5170   28.3030   33.9540 H   0  0  0  0  0  0  0  0  0  0  0  0
   38.6880   23.8340   32.8130 N   0  0  0  0  0  0  0  0  0  0  0  0
   38.3200   24.6660   32.3370 H   0  0  0  0  0  0  0  0  0  0  0  0
   39.0230   22.9560   32.3140 H   0  0  0  0  0  0  0  0  0  0  0  0
  1  6  1  0  0  0  0
  2  1  2  0  0  0  0
  2  3  1  0  0  0  0
  3  4  2  0  0  0  0
  4  5  1  0  0  0  0
  5 11  1  0  0  0  0
  6  5  2  0  0  0  0
  7  1  1  0  0  0  0
  9  8  1  0  0  0  0
 10  9  2  0  0  0  0
 11 12  1  0  0  0  0
 11  9  1  0  0  0  0
 14 13  1  0  0  0  0
 15 14  1  0  0  0  0
 15  3  1  0  0  0  0
 16 15  2  0  0  0  0
 17 18  2  0  0  0  0
 17 16  1  0  0  0  0
 18 20  1  0  0  0  0
 19 18  1  0  0  0  0
 20 23  1  0  0  0  0
 20 14  2  0  0  0  0
 21 16  1  0  0  0  0
 22 17  1  0  0  0  0
 24  2  1  0  0  0  0
 25 24  1  0  0  0  0
 26 24  1  0  0  0  0
M  END
>  <minimizedAffinity>
-4.92025232

$$$$

 OpenBabel03272504463D

 26 27  0  0  0  0  0  0  0  0999 V2000
   38.4080   27.2760   31.3720 C   0  0  0  0  0  0  0  0  0  0  0  0
   38.1080   25.9360   31.1790 C   0  0  0  0  0  0  0  0  0  0  0  0
   37.5100   25.1230   32.1120 C   0  0  0  0  0  0  0  0  0  0  0  0
   37.2150   25.7350   33.2920 N   0  0  0  0  0  0  0  0  0  0  0  0
   37.5070   27.0470   33.4870 C   0  0  0  0  0  0  0  0  0  0  0  0
   38.0850   27.8000   32.5610 N   0  0  0  0  0  0  0  0  0  0  0  0
   38.8810   27.8750   30.6050 H   0  0  0  0  0  0  0  0  0  0  0  0
   38.2670   27.7350   36.7130 H   0  0  0  0  0  0  0  0  0  0  0  0
   38.2490   27.4220   35.6760 C   0  0  0  0  0  0  0  0  0  0  0  0
   39.3830   26.8890   35.4310 O   0  0  0  0  0  0  0  0  0  0  0  0
   37.1550   27.5810   34.7570 N   0  0  0  0  0  0  0  0  0  0  0  0
   36.2960   28.0430   35.1320 H   0  0  0  0  0  0  0  0  0  0  0  0
   34.8140   24.6760   31.0220 Cl  0  0  0  0  0  0  0  0  0  0  0  0
   35.9660   23.4150   31.3740 C   0  0  0  0  0  0  0  0  0  0  0  0
   37.2050   23.7190   31.8830 C   0  0  0  0  0  0  0  0  0  0  0  0
   38.0580   22.6700   32.1350 C   0  0  0  0  0  0  0  0  0  0  0  0
   37.7250   21.3500   31.9020 C   0  0  0  0  0  0  0  0  0  0  0  0
   36.4490   21.0940   31.3820 C   0  0  0  0  0  0  0  0  0  0  0  0
   36.0540   19.4180   31.0980 Cl  0  0  0  0  0  0  0  0  0  0  0  0
   35.5620   22.1170   31.1150 C   0  0  0  0  0  0  0  0  0  0  0  0
   39.0310   22.9260   32.5350 H   0  0  0  0  0  0  0  0  0  0  0  0
   38.4500   20.5770   32.1250 H   0  0  0  0  0  0  0  0  0  0  0  0
   34.6030   21.8570   30.7200 H   0  0  0  0  0  0  0  0  0  0  0  0
   38.4570   25.3800   29.9030 N   0  0  0  0  0  0  0  0  0  0  0  0
   39.2300   24.7750   29.6040 H   0  0  0  0  0  0  0  0  0  0  0  0
   37.6940   25.7440   29.2570 H   0  0  0  0  0  0  0  0  0  0  0  0
  1  6  1  0  0  0  0
  2  1  2  0  0  0  0
  2  3  1  0  0  0  0
  3  4  2  0  0  0  0
  4  5  1  0  0  0  0
  5 11  1  0  0  0  0
  6  5  2  0  0  0  0
  7  1  1  0  0  0  0
  9  8  1  0  0  0  0
 10  9  2  0  0  0  0
 11 12  1  0  0  0  0
 11  9  1  0  0  0  0
 13 14  1  0  0  0  0
 14 15  1  0  0  0  0
 15  3  1  0  0  0  0
 15 16  2  0  0  0  0
 16 21  1  0  0  0  0
 17 22  1  0  0  0  0
 17 16  1  0  0  0  0
 18 17  2  0  0  0  0
 19 18  1  0  0  0  0
 20 14  2  0  0  0  0
 20 18  1  0  0  0  0
 23 20  1  0  0  0  0
 24  2  1  0  0  0  0
 25 24  1  0  0  0  0
 26 24  1  0  0  0  0
M  END
>  <minimizedAffinity>
-4.85603952

$$$$

 OpenBabel03272504463D

 26 27  0  0  0  0  0  0  0  0999 V2000
   36.4030   29.3740   30.3710 C   0  0  0  0  0  0  0  0  0  0  0  0
   35.8530   29.9740   31.4930 C   0  0  0  0  0  0  0  0  0  0  0  0
   35.6460   29.3460   32.6970 C   0  0  0  0  0  0  0  0  0  0  0  0
   36.0270   28.0390   32.7300 N   0  0  0  0  0  0  0  0  0  0  0  0
   36.5660   27.4450   31.6330 C   0  0  0  0  0  0  0  0  0  0  0  0
   36.7510   28.0860   30.4870 N   0  0  0  0  0  0  0  0  0  0  0  0
   36.5470   29.9120   29.4430 H   0  0  0  0  0  0  0  0  0  0  0  0
   35.8000   24.1540   31.4410 H   0  0  0  0  0  0  0  0  0  0  0  0
   35.8160   25.2360   31.4260 C   0  0  0  0  0  0  0  0  0  0  0  0
   34.6620   25.6180   31.0330 O   0  0  0  0  0  0  0  0  0  0  0  0
   36.9270   26.0780   31.7800 N   0  0  0  0  0  0  0  0  0  0  0  0
   37.8000   25.5910   32.0830 H   0  0  0  0  0  0  0  0  0  0  0  0
   32.7230   29.0570   32.8670 Cl  0  0  0  0  0  0  0  0  0  0  0  0
   33.7050   29.9170   34.0230 C   0  0  0  0  0  0  0  0  0  0  0  0
   35.0670   30.0010   33.8610 C   0  0  0  0  0  0  0  0  0  0  0  0
   35.7730   30.6960   34.8140 C   0  0  0  0  0  0  0  0  0  0  0  0
   35.1800   31.3030   35.9040 C   0  0  0  0  0  0  0  0  0  0  0  0
   33.7880   31.1880   36.0220 C   0  0  0  0  0  0  0  0  0  0  0  0
   33.0650   31.9640   37.4080 Cl  0  0  0  0  0  0  0  0  0  0  0  0
   33.0410   30.4990   35.0890 C   0  0  0  0  0  0  0  0  0  0  0  0
   36.8450   30.7530   34.6730 H   0  0  0  0  0  0  0  0  0  0  0  0
   35.8020   31.8340   36.6140 H   0  0  0  0  0  0  0  0  0  0  0  0
   31.9830   30.4470   35.2340 H   0  0  0  0  0  0  0  0  0  0  0  0
   35.4820   31.3540   31.3630 N   0  0  0  0  0  0  0  0  0  0  0  0
   34.5730   31.8140   31.2390 H   0  0  0  0  0  0  0  0  0  0  0  0
   36.4120   31.8670   31.4240 H   0  0  0  0  0  0  0  0  0  0  0  0
  1  6  2  0  0  0  0
  1  2  1  0  0  0  0
  2  3  2  0  0  0  0
  3  4  1  0  0  0  0
  3 15  1  0  0  0  0
  5 11  1  0  0  0  0
  5  4  2  0  0  0  0
  6  5  1  0  0  0  0
  7  1  1  0  0  0  0
  9  8  1  0  0  0  0
  9 11  1  0  0  0  0
 10  9  2  0  0  0  0
 11 12  1  0  0  0  0
 13 14  1  0  0  0  0
 14 20  1  0  0  0  0
 15 14  2  0  0  0  0
 15 16  1  0  0  0  0
 16 17  2  0  0  0  0
 17 18  1  0  0  0  0
 17 22  1  0  0  0  0
 18 19  1  0  0  0  0
 20 23  1  0  0  0  0
 20 18  2  0  0  0  0
 21 16  1  0  0  0  0
 24 26  1  0  0  0  0
 24  2  1  0  0  0  0
 25 24  1  0  0  0  0
M  END
>  <minimizedAffinity>
-4.82785797

$$$$

 OpenBabel03272504463D

 26 27  0  0  0  0  0  0  0  0999 V2000
   37.0200   27.6630   34.1680 C   0  0  0  0  0  0  0  0  0  0  0  0
   38.1140   26.9990   34.6980 C   0  0  0  0  0  0  0  0  0  0  0  0
   38.8680   26.0650   34.0280 C   0  0  0  0  0  0  0  0  0  0  0  0
   38.4600   25.8170   32.7520 N   0  0  0  0  0  0  0  0  0  0  0  0
   37.3880   26.4640   32.2270 C   0  0  0  0  0  0  0  0  0  0  0  0
   36.6850   27.3600   32.9070 N   0  0  0  0  0  0  0  0  0  0  0  0
   36.4570   28.3910   34.7370 H   0  0  0  0  0  0  0  0  0  0  0  0
   35.6940   24.5590   30.0010 H   0  0  0  0  0  0  0  0  0  0  0  0
   36.1240   25.0280   30.8770 C   0  0  0  0  0  0  0  0  0  0  0  0
   35.6470   24.4190   31.8930 O   0  0  0  0  0  0  0  0  0  0  0  0
   37.0530   26.1250   30.8870 N   0  0  0  0  0  0  0  0  0  0  0  0
   37.3370   26.5020   29.9550 H   0  0  0  0  0  0  0  0  0  0  0  0
   41.4210   27.4440   33.5380 Cl  0  0  0  0  0  0  0  0  0  0  0  0
   41.2500   25.9560   34.4320 C   0  0  0  0  0  0  0  0  0  0  0  0
   40.0140   25.3830   34.6090 C   0  0  0  0  0  0  0  0  0  0  0  0
   39.9600   24.2100   35.3250 C   0  0  0  0  0  0  0  0  0  0  0  0
   41.0770   23.5960   35.8590 C   0  0  0  0  0  0  0  0  0  0  0  0
   42.3130   24.2220   35.6480 C   0  0  0  0  0  0  0  0  0  0  0  0
   43.7070   23.4260   36.3330 Cl  0  0  0  0  0  0  0  0  0  0  0  0
   42.4120   25.4000   34.9370 C   0  0  0  0  0  0  0  0  0  0  0  0
   38.9800   23.7700   35.4570 H   0  0  0  0  0  0  0  0  0  0  0  0
   40.9560   22.6730   36.4110 H   0  0  0  0  0  0  0  0  0  0  0  0
   43.3840   25.8280   34.8100 H   0  0  0  0  0  0  0  0  0  0  0  0
   38.4680   27.3270   36.0500 N   0  0  0  0  0  0  0  0  0  0  0  0
   38.3200   26.8360   36.9390 H   0  0  0  0  0  0  0  0  0  0  0  0
   38.9600   28.2660   35.9560 H   0  0  0  0  0  0  0  0  0  0  0  0
  1  2  1  0  0  0  0
  1  7  1  0  0  0  0
  2 24  1  0  0  0  0
  3 15  1  0  0  0  0
  3  2  2  0  0  0  0
  4  3  1  0  0  0  0
  5  4  2  0  0  0  0
  5  6  1  0  0  0  0
  6  1  2  0  0  0  0
  8  9  1  0  0  0  0
  9 11  1  0  0  0  0
  9 10  2  0  0  0  0
 11  5  1  0  0  0  0
 12 11  1  0  0  0  0
 13 14  1  0  0  0  0
 14 15  2  0  0  0  0
 14 20  1  0  0  0  0
 15 16  1  0  0  0  0
 16 21  1  0  0  0  0
 16 17  2  0  0  0  0
 17 22  1  0  0  0  0
 18 17  1  0  0  0  0
 18 19  1  0  0  0  0
 20 18  2  0  0  0  0
 23 20  1  0  0  0  0
 24 25  1  0  0  0  0
 26 24  1  0  0  0  0
M  END
>  <minimizedAffinity>
-4.77142239

$$$$

 OpenBabel03272504463D

 26 27  0  0  0  0  0  0  0  0999 V2000
   38.0420   25.4720   37.2280 C   0  0  0  0  0  0  0  0  0  0  0  0
   38.5360   26.1240   36.1090 C   0  0  0  0  0  0  0  0  0  0  0  0
   39.2140   25.5160   35.0800 C   0  0  0  0  0  0  0  0  0  0  0  0
   39.3830   24.1720   35.2280 N   0  0  0  0  0  0  0  0  0  0  0  0
   38.9010   23.5280   36.3220 C   0  0  0  0  0  0  0  0  0  0  0  0
   38.2510   24.1510   37.2950 N   0  0  0  0  0  0  0  0  0  0  0  0
   37.5140   25.9960   38.0130 H   0  0  0  0  0  0  0  0  0  0  0  0
   40.8210   20.8850   37.2110 H   0  0  0  0  0  0  0  0  0  0  0  0
   40.3850   21.8600   37.0290 C   0  0  0  0  0  0  0  0  0  0  0  0
   41.1940   22.7220   37.5120 O   0  0  0  0  0  0  0  0  0  0  0  0
   39.1350   22.1260   36.3710 N   0  0  0  0  0  0  0  0  0  0  0  0
   38.6000   21.2930   36.0360 H   0  0  0  0  0  0  0  0  0  0  0  0
   37.3250   25.5620   32.8250 Cl  0  0  0  0  0  0  0  0  0  0  0  0
   38.9060   26.2990   32.8130 C   0  0  0  0  0  0  0  0  0  0  0  0
   39.7220   26.2250   33.9160 C   0  0  0  0  0  0  0  0  0  0  0  0
   40.9540   26.8300   33.8290 C   0  0  0  0  0  0  0  0  0  0  0  0
   41.3950   27.4930   32.7010 C   0  0  0  0  0  0  0  0  0  0  0  0
   40.5230   27.5390   31.6040 C   0  0  0  0  0  0  0  0  0  0  0  0
   41.1060   28.3830   30.1910 Cl  0  0  0  0  0  0  0  0  0  0  0  0
   39.2790   26.9450   31.6480 C   0  0  0  0  0  0  0  0  0  0  0  0
   41.5860   26.7640   34.7060 H   0  0  0  0  0  0  0  0  0  0  0  0
   42.3790   27.9460   32.7070 H   0  0  0  0  0  0  0  0  0  0  0  0
   38.6610   27.0140   30.7780 H   0  0  0  0  0  0  0  0  0  0  0  0
   38.3100   27.5400   36.0430 N   0  0  0  0  0  0  0  0  0  0  0  0
   38.9250   28.3440   36.2140 H   0  0  0  0  0  0  0  0  0  0  0  0
   37.2890   27.6140   35.7550 H   0  0  0  0  0  0  0  0  0  0  0  0
  1  6  1  0  0  0  0
  1  7  1  0  0  0  0
  2  1  2  0  0  0  0
  3  4  2  0  0  0  0
  3  2  1  0  0  0  0
  4  5  1  0  0  0  0
  5 11  1  0  0  0  0
  5  6  2  0  0  0  0
  9  8  1  0  0  0  0
  9 10  2  0  0  0  0
 11  9  1  0  0  0  0
 12 11  1  0  0  0  0
 14 13  1  0  0  0  0
 14 15  1  0  0  0  0
 15  3  1  0  0  0  0
 16 15  2  0  0  0  0
 16 21  1  0  0  0  0
 17 22  1  0  0  0  0
 17 16  1  0  0  0  0
 18 20  1  0  0  0  0
 18 17  2  0  0  0  0
 19 18  1  0  0  0  0
 20 14  2  0  0  0  0
 23 20  1  0  0  0  0
 24  2  1  0  0  0  0
 24 25  1  0  0  0  0
 26 24  1  0  0  0  0
M  END
>  <minimizedAffinity>
-4.7629056

$$$$

 OpenBabel03272504463D

 26 27  0  0  0  0  0  0  0  0999 V2000
   36.3730   29.8110   30.4440 C   0  0  0  0  0  0  0  0  0  0  0  0
   36.5390   28.4430   30.5880 C   0  0  0  0  0  0  0  0  0  0  0  0
   35.8750   27.6620   31.5030 C   0  0  0  0  0  0  0  0  0  0  0  0
   35.0010   28.3400   32.2990 N   0  0  0  0  0  0  0  0  0  0  0  0
   34.8350   29.6810   32.1630 C   0  0  0  0  0  0  0  0  0  0  0  0
   35.4950   30.4000   31.2660 N   0  0  0  0  0  0  0  0  0  0  0  0
   36.9200   30.3830   29.7070 H   0  0  0  0  0  0  0  0  0  0  0  0
   34.1020   31.1950   35.1000 H   0  0  0  0  0  0  0  0  0  0  0  0
   34.5620   30.7050   34.2510 C   0  0  0  0  0  0  0  0  0  0  0  0
   35.8020   30.5770   34.5260 O   0  0  0  0  0  0  0  0  0  0  0  0
   33.8980   30.2840   33.0470 N   0  0  0  0  0  0  0  0  0  0  0  0
   32.8720   30.4700   32.9940 H   0  0  0  0  0  0  0  0  0  0  0  0
   38.0730   26.9400   33.3200 Cl  0  0  0  0  0  0  0  0  0  0  0  0
   37.0740   25.7950   32.4630 C   0  0  0  0  0  0  0  0  0  0  0  0
   36.0680   26.2260   31.6320 C   0  0  0  0  0  0  0  0  0  0  0  0
   35.3240   25.2630   30.9910 C   0  0  0  0  0  0  0  0  0  0  0  0
   35.5450   23.9090   31.1440 C   0  0  0  0  0  0  0  0  0  0  0  0
   36.5840   23.5220   32.0030 C   0  0  0  0  0  0  0  0  0  0  0  0
   36.8410   21.8050   32.1780 Cl  0  0  0  0  0  0  0  0  0  0  0  0
   37.3550   24.4550   32.6660 C   0  0  0  0  0  0  0  0  0  0  0  0
   34.5350   25.6190   30.3410 H   0  0  0  0  0  0  0  0  0  0  0  0
   34.9180   23.2090   30.6060 H   0  0  0  0  0  0  0  0  0  0  0  0
   38.1320   24.0970   33.3060 H   0  0  0  0  0  0  0  0  0  0  0  0
   37.4810   27.8170   29.7040 N   0  0  0  0  0  0  0  0  0  0  0  0
   38.4410   27.4840   29.8450 H   0  0  0  0  0  0  0  0  0  0  0  0
   36.9520   27.7540   28.7830 H   0  0  0  0  0  0  0  0  0  0  0  0
  1  2  2  0  0  0  0
  1  6  1  0  0  0  0
  2  3  1  0  0  0  0
  3 15  1  0  0  0  0
  3  4  2  0  0  0  0
  5  4  1  0  0  0  0
  5 11  1  0  0  0  0
  6  5  2  0  0  0  0
  7  1  1  0  0  0  0
  9 10  2  0  0  0  0
  9  8  1  0  0  0  0
 11  9  1  0  0  0  0
 12 11  1  0  0  0  0
 14 20  1  0  0  0  0
 14 13  1  0  0  0  0
 15 14  2  0  0  0  0
 16 17  2  0  0  0  0
 16 15  1  0  0  0  0
 17 18  1  0  0  0  0
 18 19  1  0  0  0  0
 18 20  2  0  0  0  0
 20 23  1  0  0  0  0
 21 16  1  0  0  0  0
 22 17  1  0  0  0  0
 24 25  1  0  0  0  0
 24  2  1  0  0  0  0
 26 24  1  0  0  0  0
M  END
>  <minimizedAffinity>
-4.76229095

$$$$

 OpenBabel03272504463D

 26 27  0  0  0  0  0  0  0  0999 V2000
   38.2360   26.9670   31.3280 C   0  0  0  0  0  0  0  0  0  0  0  0
   37.8860   25.6260   31.2810 C   0  0  0  0  0  0  0  0  0  0  0  0
   37.3100   24.9270   32.3130 C   0  0  0  0  0  0  0  0  0  0  0  0
   37.0900   25.6580   33.4410 N   0  0  0  0  0  0  0  0  0  0  0  0
   37.4310   26.9720   33.4940 C   0  0  0  0  0  0  0  0  0  0  0  0
   37.9860   27.6120   32.4740 N   0  0  0  0  0  0  0  0  0  0  0  0
   38.6880   27.4740   30.4870 H   0  0  0  0  0  0  0  0  0  0  0  0
   38.3670   27.9380   36.6000 H   0  0  0  0  0  0  0  0  0  0  0  0
   38.2890   27.5290   35.6010 C   0  0  0  0  0  0  0  0  0  0  0  0
   39.3930   26.9350   35.3580 O   0  0  0  0  0  0  0  0  0  0  0  0
   37.1570   27.6360   34.7210 N   0  0  0  0  0  0  0  0  0  0  0  0
   36.3320   28.1610   35.0890 H   0  0  0  0  0  0  0  0  0  0  0  0
   39.3190   23.1440   33.5150 Cl  0  0  0  0  0  0  0  0  0  0  0  0
   37.8330   22.6110   32.7740 C   0  0  0  0  0  0  0  0  0  0  0  0
   36.9530   23.5190   32.2360 C   0  0  0  0  0  0  0  0  0  0  0  0
   35.8030   23.0210   31.6690 C   0  0  0  0  0  0  0  0  0  0  0  0
   35.5050   21.6740   31.6170 C   0  0  0  0  0  0  0  0  0  0  0  0
   36.4370   20.7900   32.1800 C   0  0  0  0  0  0  0  0  0  0  0  0
   36.0360   19.0930   32.1020 Cl  0  0  0  0  0  0  0  0  0  0  0  0
   37.6030   21.2460   32.7600 C   0  0  0  0  0  0  0  0  0  0  0  0
   35.1190   23.7480   31.2490 H   0  0  0  0  0  0  0  0  0  0  0  0
   34.5790   21.3560   31.1540 H   0  0  0  0  0  0  0  0  0  0  0  0
   38.2730   20.5220   33.1710 H   0  0  0  0  0  0  0  0  0  0  0  0
   38.1560   24.9390   30.0500 N   0  0  0  0  0  0  0  0  0  0  0  0
   38.8950   24.2810   29.7760 H   0  0  0  0  0  0  0  0  0  0  0  0
   37.3740   25.2660   29.4070 H   0  0  0  0  0  0  0  0  0  0  0  0
  1  6  1  0  0  0  0
  2  1  2  0  0  0  0
  2  3  1  0  0  0  0
  3  4  2  0  0  0  0
  4  5  1  0  0  0  0
  5 11  1  0  0  0  0
  6  5  2  0  0  0  0
  7  1  1  0  0  0  0
  9  8  1  0  0  0  0
 10  9  2  0  0  0  0
 11 12  1  0  0  0  0
 11  9  1  0  0  0  0
 14 13  1  0  0  0  0
 15  3  1  0  0  0  0
 15 14  2  0  0  0  0
 16 15  1  0  0  0  0
 17 16  2  0  0  0  0
 17 18  1  0  0  0  0
 18 20  2  0  0  0  0
 19 18  1  0  0  0  0
 20 14  1  0  0  0  0
 20 23  1  0  0  0  0
 21 16  1  0  0  0  0
 22 17  1  0  0  0  0
 24  2  1  0  0  0  0
 25 24  1  0  0  0  0
 26 24  1  0  0  0  0
M  END
>  <minimizedAffinity>
-4.74539232

$$$$
