
 OpenBabel03272510323D

 24 25  0  0  0  0  0  0  0  0999 V2000
   36.1410   30.2370   48.3460 C   0  0  0  0  0  0  0  0  0  0  0  0
   35.1280   30.3140   47.4380 C   0  0  0  0  0  0  0  0  0  0  0  0
   34.1250   29.3700   47.3690 C   0  0  0  0  0  0  0  0  0  0  0  0
   34.1750   28.3150   48.2730 C   0  0  0  0  0  0  0  0  0  0  0  0
   35.1830   28.2030   49.2050 C   0  0  0  0  0  0  0  0  0  0  0  0
   36.1700   29.1750   49.2360 C   0  0  0  0  0  0  0  0  0  0  0  0
   35.0790   31.1410   46.7230 H   0  0  0  0  0  0  0  0  0  0  0  0
   33.3030   29.3930   46.6660 H   0  0  0  0  0  0  0  0  0  0  0  0
   33.4260   27.5300   48.2880 H   0  0  0  0  0  0  0  0  0  0  0  0
   35.2350   27.3780   49.9210 H   0  0  0  0  0  0  0  0  0  0  0  0
   38.0760   33.1190   49.4210 C   0  0  0  0  0  0  0  0  0  0  0  0
   39.0200   33.2990   48.4130 C   0  0  0  0  0  0  0  0  0  0  0  0
   38.9830   32.3860   47.3180 C   0  0  0  0  0  0  0  0  0  0  0  0
   38.0440   31.4210   47.3400 N   0  0  0  0  0  0  0  0  0  0  0  0
   37.1500   31.2830   48.3350 C   0  0  0  0  0  0  0  0  0  0  0  0
   37.1680   32.1380   49.3820 N   0  0  0  0  0  0  0  0  0  0  0  0
   38.0920   33.8110   50.2650 H   0  0  0  0  0  0  0  0  0  0  0  0
   39.7530   34.1040   48.4630 H   0  0  0  0  0  0  0  0  0  0  0  0
   39.7090   32.5130   46.5270 H   0  0  0  0  0  0  0  0  0  0  0  0
   37.2800   29.3220   52.4330 H   0  0  0  0  0  0  0  0  0  0  0  0
   36.7200   29.3180   51.4960 C   0  0  0  0  0  0  0  0  0  0  0  0
   35.4800   29.5410   51.6210 O   0  0  0  0  0  0  0  0  0  0  0  0
   37.2250   29.0950   50.1820 N   0  0  0  0  0  0  0  0  0  0  0  0
   38.2510   28.9160   50.1160 H   0  0  0  0  0  0  0  0  0  0  0  0
  1  6  1  0  0  0  0
  2  1  2  0  0  0  0
  3  2  1  0  0  0  0
  3  4  2  0  0  0  0
  4  9  1  0  0  0  0
  4  5  1  0  0  0  0
  5  6  2  0  0  0  0
  5 10  1  0  0  0  0
  6 23  1  0  0  0  0
  7  2  1  0  0  0  0
  8  3  1  0  0  0  0
 11 17  1  0  0  0  0
 12 18  1  0  0  0  0
 12 11  2  0  0  0  0
 13 14  2  0  0  0  0
 13 12  1  0  0  0  0
 14 15  1  0  0  0  0
 15  1  1  0  0  0  0
 15 16  2  0  0  0  0
 16 11  1  0  0  0  0
 19 13  1  0  0  0  0
 21 22  2  0  0  0  0
 21 20  1  0  0  0  0
 23 21  1  0  0  0  0
 24 23  1  0  0  0  0
M  END
>  <minimizedAffinity>
-5.16721392

>  <minimizedRMSD>
0.50532186

$$$$
