
 OpenBabel03272506113D

 40 42  0  0  1  0  0  0  0  0999 V2000
   36.2020   30.4200   48.4290 C   0  0  1  0  0  0  0  0  0  0  0  0
   36.6150   29.3110   49.4710 C   0  0  0  0  0  0  0  0  0  0  0  0
   35.6650   28.1170   49.3670 C   0  0  0  0  0  0  0  0  0  0  0  0
   34.2420   28.5770   49.2890 C   0  0  0  0  0  0  0  0  0  0  0  0
   34.1800   29.9670   49.8490 C   0  0  0  0  0  0  0  0  0  0  0  0
   34.8370   30.8810   48.8380 C   0  0  2  0  0  0  0  0  0  0  0  0
   36.0030   29.7830   47.6370 H   0  0  0  0  0  0  0  0  0  0  0  0
   36.6070   29.7910   50.4550 H   0  0  0  0  0  0  0  0  0  0  0  0
   37.6250   28.9860   49.1870 H   0  0  0  0  0  0  0  0  0  0  0  0
   35.8590   27.5290   50.2870 H   0  0  0  0  0  0  0  0  0  0  0  0
   36.0180   27.5710   48.4520 H   0  0  0  0  0  0  0  0  0  0  0  0
   33.6300   27.9180   49.9500 H   0  0  0  0  0  0  0  0  0  0  0  0
   33.8420   28.5010   48.2650 H   0  0  0  0  0  0  0  0  0  0  0  0
   34.6180   29.9840   50.8430 H   0  0  0  0  0  0  0  0  0  0  0  0
   33.1210   30.2990   49.9070 H   0  0  0  0  0  0  0  0  0  0  0  0
   34.7510   31.8890   49.2360 H   0  0  0  0  0  0  0  0  0  0  0  0
   37.9140   31.8060   47.3640 C   0  0  0  0  0  0  0  0  0  0  0  0
   38.8350   32.8590   47.4690 C   0  0  0  0  0  0  0  0  0  0  0  0
   39.1000   33.5150   48.6580 C   0  0  0  0  0  0  0  0  0  0  0  0
   38.4410   33.1320   49.8110 C   0  0  0  0  0  0  0  0  0  0  0  0
   37.5320   32.0900   49.6920 C   0  0  0  0  0  0  0  0  0  0  0  0
   37.2420   31.4160   48.5160 C   0  0  0  0  0  0  0  0  0  0  0  0
   39.3890   33.2180   46.6060 H   0  0  0  0  0  0  0  0  0  0  0  0
   39.8180   34.3170   48.6630 H   0  0  0  0  0  0  0  0  0  0  0  0
   38.6580   33.6510   50.7330 H   0  0  0  0  0  0  0  0  0  0  0  0
   37.0810   31.8660   50.6500 H   0  0  0  0  0  0  0  0  0  0  0  0
   38.8550   30.1700   45.8090 C   0  0  0  0  0  0  0  0  0  0  0  0
   37.8590   31.1800   46.0870 C   0  0  0  0  0  0  0  0  0  0  0  0
   36.9430   31.4190   45.1050 C   0  0  0  0  0  0  0  0  0  0  0  0
   37.0010   30.7170   43.9500 N   0  0  0  0  0  0  0  0  0  0  0  0
   37.9540   29.7640   43.7150 C   0  0  0  0  0  0  0  0  0  0  0  0
   38.9170   29.4740   44.6640 N   0  0  0  0  0  0  0  0  0  0  0  0
   39.6390   29.8770   46.4890 H   0  0  0  0  0  0  0  0  0  0  0  0
   36.1830   32.1330   45.0220 H   0  0  0  0  0  0  0  0  0  0  0  0
   37.9900   29.2020   42.7760 H   0  0  0  0  0  0  0  0  0  0  0  0
   33.5080   30.0180   45.6850 H   0  0  0  0  0  0  0  0  0  0  0  0
   34.1500   30.0480   46.5530 C   0  0  0  0  0  0  0  0  0  0  0  0
   35.1680   29.2760   46.5440 O   0  0  0  0  0  0  0  0  0  0  0  0
   33.9080   30.8960   47.6810 N   0  0  0  0  0  0  0  0  0  0  0  0
   33.0340   31.4820   47.5590 H   0  0  0  0  0  0  0  0  0  0  0  0
  1  7  1  6  0  0  0
  1 22  1  0  0  0  0
  1  6  1  0  0  0  0
  1  2  1  0  0  0  0
  2  8  1  0  0  0  0
  3  2  1  0  0  0  0
  3 10  1  0  0  0  0
  4  3  1  0  0  0  0
  4  5  1  0  0  0  0
  4 12  1  0  0  0  0
  5 15  1  0  0  0  0
  5 14  1  0  0  0  0
  6 16  1  1  0  0  0
  6  5  1  0  0  0  0
  9  2  1  0  0  0  0
 11  3  1  0  0  0  0
 13  4  1  0  0  0  0
 17 18  2  0  0  0  0
 17 22  1  0  0  0  0
 18 19  1  0  0  0  0
 19 24  1  0  0  0  0
 19 20  2  0  0  0  0
 20 25  1  0  0  0  0
 21 20  1  0  0  0  0
 21 26  1  0  0  0  0
 22 21  2  0  0  0  0
 23 18  1  0  0  0  0
 27 28  1  0  0  0  0
 27 33  1  0  0  0  0
 28 17  1  0  0  0  0
 29 28  2  0  0  0  0
 30 29  1  0  0  0  0
 31 30  2  0  0  0  0
 31 32  1  0  0  0  0
 32 27  2  0  0  0  0
 34 29  1  0  0  0  0
 35 31  1  0  0  0  0
 36 37  1  0  0  0  0
 37 39  1  0  0  0  0
 38 37  2  0  0  0  0
 39  6  1  0  0  0  0
 40 39  1  0  0  0  0
M  END
>  <minimizedAffinity>
-5.56986904

>  <minimizedRMSD>
2.56541181

$$$$
