
 OpenBabel03272510293D

 24 25  0  0  0  0  0  0  0  0999 V2000
   37.4660   31.4260   49.3780 C   0  0  0  0  0  0  0  0  0  0  0  0
   37.8820   32.7170   49.7030 C   0  0  0  0  0  0  0  0  0  0  0  0
   38.6990   33.3310   48.7640 C   0  0  0  0  0  0  0  0  0  0  0  0
   39.0430   32.6790   47.6210 N   0  0  0  0  0  0  0  0  0  0  0  0
   38.6140   31.4180   47.3430 C   0  0  0  0  0  0  0  0  0  0  0  0
   37.8060   30.7890   48.2520 N   0  0  0  0  0  0  0  0  0  0  0  0
   37.6030   33.2270   50.6150 H   0  0  0  0  0  0  0  0  0  0  0  0
   39.0870   34.3260   48.8980 H   0  0  0  0  0  0  0  0  0  0  0  0
   36.5540   30.7250   50.3480 C   0  0  0  0  0  0  0  0  0  0  0  0
   36.5090   29.2900   50.4760 C   0  0  0  0  0  0  0  0  0  0  0  0
   37.3130   30.0610   51.4980 C   0  0  0  0  0  0  0  0  0  0  0  0
   35.6810   31.3440   50.6380 H   0  0  0  0  0  0  0  0  0  0  0  0
   37.1830   28.6810   49.8040 H   0  0  0  0  0  0  0  0  0  0  0  0
   35.6050   28.7490   50.7610 H   0  0  0  0  0  0  0  0  0  0  0  0
   36.8160   30.1640   52.4830 H   0  0  0  0  0  0  0  0  0  0  0  0
   38.4020   30.0700   51.4690 H   0  0  0  0  0  0  0  0  0  0  0  0
   38.9640   30.6990   46.1230 C   0  0  0  0  0  0  0  0  0  0  0  0
   38.4670   31.1040   45.2340 H   0  0  0  0  0  0  0  0  0  0  0  0
   38.7250   29.6390   46.1710 H   0  0  0  0  0  0  0  0  0  0  0  0
   42.1570   31.5330   45.0250 H   0  0  0  0  0  0  0  0  0  0  0  0
   41.0630   31.5610   45.0210 C   0  0  0  0  0  0  0  0  0  0  0  0
   40.4440   32.2740   44.1730 O   0  0  0  0  0  0  0  0  0  0  0  0
   40.4220   30.7690   45.9990 N   0  0  0  0  0  0  0  0  0  0  0  0
   40.9740   30.1880   46.6890 H   0  0  0  0  0  0  0  0  0  0  0  0
  1  2  1  0  0  0  0
  1  9  1  0  0  0  0
  2  7  1  0  0  0  0
  3  8  1  0  0  0  0
  3  2  2  0  0  0  0
  4  3  1  0  0  0  0
  5  4  2  0  0  0  0
  5  6  1  0  0  0  0
  6  1  2  0  0  0  0
  9 10  1  0  0  0  0
  9 12  1  0  0  0  0
  9 11  1  0  0  0  0
 10 14  1  0  0  0  0
 10 11  1  0  0  0  0
 11 15  1  0  0  0  0
 13 10  1  0  0  0  0
 16 11  1  0  0  0  0
 17 19  1  0  0  0  0
 17  5  1  0  0  0  0
 18 17  1  0  0  0  0
 21 20  1  0  0  0  0
 21 23  1  0  0  0  0
 22 21  2  0  0  0  0
 23 17  1  0  0  0  0
 23 24  1  0  0  0  0
M  END
>  <minimizedAffinity>
-5.17063951

>  <minimizedRMSD>
1.01404262

$$$$
