
 OpenBabel03272507363D

 15 15  0  0  0  0  0  0  0  0999 V2000
   36.7840   29.6800   51.1240 C   0  0  0  0  0  0  0  0  0  0  0  0
   37.2980   30.0630   49.8860 C   0  0  0  0  0  0  0  0  0  0  0  0
   36.5480   29.8560   48.7410 C   0  0  0  0  0  0  0  0  0  0  0  0
   35.3220   29.2750   48.8950 N   0  0  0  0  0  0  0  0  0  0  0  0
   34.8370   28.9080   50.1020 C   0  0  0  0  0  0  0  0  0  0  0  0
   35.5650   29.1110   51.2030 N   0  0  0  0  0  0  0  0  0  0  0  0
   36.8820   30.1270   47.7460 H   0  0  0  0  0  0  0  0  0  0  0  0
   33.8710   28.4540   50.2030 H   0  0  0  0  0  0  0  0  0  0  0  0
   39.3170   32.8710   49.3230 H   0  0  0  0  0  0  0  0  0  0  0  0
   38.6260   32.0620   49.4970 C   0  0  0  0  0  0  0  0  0  0  0  0
   37.8110   33.0470   49.4570 O   0  0  0  0  0  0  0  0  0  0  0  0
   38.5480   30.6610   49.6810 N   0  0  0  0  0  0  0  0  0  0  0  0
   39.5380   30.3540   49.6180 H   0  0  0  0  0  0  0  0  0  0  0  0
   37.6550   29.9560   52.1580 O   0  0  0  0  0  0  0  0  0  0  0  0
   37.5340   30.7150   52.8370 H   0  0  0  0  0  0  0  0  0  0  0  0
  1  6  1  0  0  0  0
  1 14  1  0  0  0  0
  2  1  2  0  0  0  0
  3  4  2  0  0  0  0
  3  2  1  0  0  0  0
  4  5  1  0  0  0  0
  5  8  1  0  0  0  0
  5  6  2  0  0  0  0
  7  3  1  0  0  0  0
  9 10  1  0  0  0  0
 10 12  1  0  0  0  0
 11 10  2  0  0  0  0
 12  2  1  0  0  0  0
 13 12  1  0  0  0  0
 14 15  1  0  0  0  0
M  END
>  <minimizedAffinity>
-4.23447084

>  <minimizedRMSD>
1.43491542

$$$$
