
 OpenBabel03272508353D

 27 28  0  0  0  0  0  0  0  0999 V2000
   37.9500   25.1460   34.8570 C   0  0  0  0  0  0  0  0  0  0  0  0
   37.4250   26.4010   34.9400 C   0  0  0  0  0  0  0  0  0  0  0  0
   37.0840   26.8260   33.6700 C   0  0  0  0  0  0  0  0  0  0  0  0
   37.4190   25.8040   32.8510 N   0  0  0  0  0  0  0  0  0  0  0  0
   37.9390   24.7970   33.5640 N   0  0  0  0  0  0  0  0  0  0  0  0
   37.2520   27.0560   35.8010 H   0  0  0  0  0  0  0  0  0  0  0  0
   36.6400   27.7710   33.3560 H   0  0  0  0  0  0  0  0  0  0  0  0
   39.8400   22.8940   37.1980 C   0  0  0  0  0  0  0  0  0  0  0  0
   39.4920   23.5330   36.0030 C   0  0  0  0  0  0  0  0  0  0  0  0
   38.4090   24.4210   36.0370 C   0  0  0  0  0  0  0  0  0  0  0  0
   37.7770   24.5950   37.2270 N   0  0  0  0  0  0  0  0  0  0  0  0
   38.1490   23.9540   38.3610 C   0  0  0  0  0  0  0  0  0  0  0  0
   39.1830   23.1060   38.3320 N   0  0  0  0  0  0  0  0  0  0  0  0
   40.6910   22.2290   37.0610 H   0  0  0  0  0  0  0  0  0  0  0  0
   40.0060   23.3830   35.0610 H   0  0  0  0  0  0  0  0  0  0  0  0
   37.5660   24.1780   39.2470 H   0  0  0  0  0  0  0  0  0  0  0  0
   37.2230   25.8340   31.3920 C   0  0  0  0  0  0  0  0  0  0  0  0
   38.1410   26.2360   30.9370 H   0  0  0  0  0  0  0  0  0  0  0  0
   37.0030   24.7920   31.0810 H   0  0  0  0  0  0  0  0  0  0  0  0
   36.0170   26.6730   31.0700 C   0  0  0  0  0  0  0  0  0  0  0  0
   35.1630   26.0700   30.7410 H   0  0  0  0  0  0  0  0  0  0  0  0
   35.7310   27.3600   31.8810 H   0  0  0  0  0  0  0  0  0  0  0  0
   37.1220   29.4800   29.2240 H   0  0  0  0  0  0  0  0  0  0  0  0
   36.8660   28.8640   30.0640 C   0  0  0  0  0  0  0  0  0  0  0  0
   37.0290   29.4010   31.1900 O   0  0  0  0  0  0  0  0  0  0  0  0
   36.3740   27.5340   29.9560 N   0  0  0  0  0  0  0  0  0  0  0  0
   36.2900   27.2230   28.9450 H   0  0  0  0  0  0  0  0  0  0  0  0
  1  2  1  0  0  0  0
  1 10  1  0  0  0  0
  2  6  1  0  0  0  0
  3  2  2  0  0  0  0
  4  5  1  0  0  0  0
  4  3  1  0  0  0  0
  5  1  2  0  0  0  0
  7  3  1  0  0  0  0
  8 13  1  0  0  0  0
  9 10  1  0  0  0  0
  9  8  2  0  0  0  0
 10 11  2  0  0  0  0
 11 12  1  0  0  0  0
 12 16  1  0  0  0  0
 13 12  2  0  0  0  0
 14  8  1  0  0  0  0
 15  9  1  0  0  0  0
 17  4  1  0  0  0  0
 18 17  1  0  0  0  0
 19 17  1  0  0  0  0
 20 17  1  0  0  0  0
 20 22  1  0  0  0  0
 21 20  1  0  0  0  0
 23 24  1  0  0  0  0
 24 25  2  0  0  0  0
 26 24  1  0  0  0  0
 26 20  1  0  0  0  0
 27 26  1  0  0  0  0
M  END
>  <minimizedAffinity>
-4.33990288

$$$$

 OpenBabel03272508353D

 27 28  0  0  0  0  0  0  0  0999 V2000
   37.7750   25.2560   34.5150 C   0  0  0  0  0  0  0  0  0  0  0  0
   37.8260   25.7160   35.7970 C   0  0  0  0  0  0  0  0  0  0  0  0
   38.3930   24.7430   36.5970 C   0  0  0  0  0  0  0  0  0  0  0  0
   38.6690   23.7140   35.7650 N   0  0  0  0  0  0  0  0  0  0  0  0
   38.2970   24.0230   34.5160 N   0  0  0  0  0  0  0  0  0  0  0  0
   37.5070   26.6680   36.2360 H   0  0  0  0  0  0  0  0  0  0  0  0
   38.5920   24.7620   37.6690 H   0  0  0  0  0  0  0  0  0  0  0  0
   36.7260   28.1180   32.3180 C   0  0  0  0  0  0  0  0  0  0  0  0
   37.2890   27.4570   33.4140 C   0  0  0  0  0  0  0  0  0  0  0  0
   37.2240   26.0580   33.4280 C   0  0  0  0  0  0  0  0  0  0  0  0
   36.6190   25.4470   32.3760 N   0  0  0  0  0  0  0  0  0  0  0  0
   36.0870   26.1290   31.3330 C   0  0  0  0  0  0  0  0  0  0  0  0
   36.1470   27.4650   31.3170 N   0  0  0  0  0  0  0  0  0  0  0  0
   36.8300   29.1980   32.4060 H   0  0  0  0  0  0  0  0  0  0  0  0
   37.7680   27.9580   34.2460 H   0  0  0  0  0  0  0  0  0  0  0  0
   35.6320   25.5270   30.5540 H   0  0  0  0  0  0  0  0  0  0  0  0
   39.2890   22.4540   36.2070 C   0  0  0  0  0  0  0  0  0  0  0  0
   38.4820   21.7280   36.3920 H   0  0  0  0  0  0  0  0  0  0  0  0
   39.9800   22.1400   35.3990 H   0  0  0  0  0  0  0  0  0  0  0  0
   40.1120   22.7110   37.4400 C   0  0  0  0  0  0  0  0  0  0  0  0
   40.8890   23.4660   37.2740 H   0  0  0  0  0  0  0  0  0  0  0  0
   39.5080   22.9500   38.3290 H   0  0  0  0  0  0  0  0  0  0  0  0
   42.5950   20.2010   37.6250 H   0  0  0  0  0  0  0  0  0  0  0  0
   42.1130   21.1230   37.3670 C   0  0  0  0  0  0  0  0  0  0  0  0
   42.8000   21.9060   36.6610 O   0  0  0  0  0  0  0  0  0  0  0  0
   40.7950   21.4740   37.7710 N   0  0  0  0  0  0  0  0  0  0  0  0
   40.3440   20.7130   38.3580 H   0  0  0  0  0  0  0  0  0  0  0  0
  1  5  2  0  0  0  0
  1  2  1  0  0  0  0
  2  6  1  0  0  0  0
  2  3  2  0  0  0  0
  3  7  1  0  0  0  0
  4 17  1  0  0  0  0
  4  3  1  0  0  0  0
  5  4  1  0  0  0  0
  8 14  1  0  0  0  0
  8  9  1  0  0  0  0
  9 10  2  0  0  0  0
  9 15  1  0  0  0  0
 10  1  1  0  0  0  0
 11 10  1  0  0  0  0
 12 11  2  0  0  0  0
 13 12  1  0  0  0  0
 13  8  2  0  0  0  0
 16 12  1  0  0  0  0
 17 18  1  0  0  0  0
 17 20  1  0  0  0  0
 19 17  1  0  0  0  0
 20 26  1  0  0  0  0
 20 22  1  0  0  0  0
 21 20  1  0  0  0  0
 24 23  1  0  0  0  0
 24 26  1  0  0  0  0
 25 24  2  0  0  0  0
 26 27  1  0  0  0  0
M  END
>  <minimizedAffinity>
-4.32362747

$$$$

 OpenBabel03272508353D

 27 28  0  0  0  0  0  0  0  0999 V2000
   37.9040   25.5300   34.9850 C   0  0  0  0  0  0  0  0  0  0  0  0
   37.4620   26.7750   35.3190 C   0  0  0  0  0  0  0  0  0  0  0  0
   36.9890   27.4000   34.1800 C   0  0  0  0  0  0  0  0  0  0  0  0
   37.1640   26.5030   33.1830 N   0  0  0  0  0  0  0  0  0  0  0  0
   37.7130   25.3820   33.6680 N   0  0  0  0  0  0  0  0  0  0  0  0
   37.4330   27.2980   36.2810 H   0  0  0  0  0  0  0  0  0  0  0  0
   36.5620   28.3960   34.0680 H   0  0  0  0  0  0  0  0  0  0  0  0
   38.5190   23.5310   38.1070 C   0  0  0  0  0  0  0  0  0  0  0  0
   37.8920   24.4320   37.2400 C   0  0  0  0  0  0  0  0  0  0  0  0
   38.4650   24.6180   35.9760 C   0  0  0  0  0  0  0  0  0  0  0  0
   39.5880   23.9100   35.6850 N   0  0  0  0  0  0  0  0  0  0  0  0
   40.1620   23.0470   36.5570 C   0  0  0  0  0  0  0  0  0  0  0  0
   39.6170   22.8670   37.7660 N   0  0  0  0  0  0  0  0  0  0  0  0
   37.9950   23.4620   39.0580 H   0  0  0  0  0  0  0  0  0  0  0  0
   36.9970   24.9900   37.4870 H   0  0  0  0  0  0  0  0  0  0  0  0
   41.0550   22.5410   36.2070 H   0  0  0  0  0  0  0  0  0  0  0  0
   36.7910   26.7610   31.7830 C   0  0  0  0  0  0  0  0  0  0  0  0
   36.3860   27.7830   31.7250 H   0  0  0  0  0  0  0  0  0  0  0  0
   37.7110   26.6220   31.1800 H   0  0  0  0  0  0  0  0  0  0  0  0
   35.7920   25.7290   31.3370 C   0  0  0  0  0  0  0  0  0  0  0  0
   35.2370   25.2930   32.1760 H   0  0  0  0  0  0  0  0  0  0  0  0
   35.1080   26.0900   30.5530 H   0  0  0  0  0  0  0  0  0  0  0  0
   36.9570   22.4820   30.5590 H   0  0  0  0  0  0  0  0  0  0  0  0
   36.3950   23.2650   31.0310 C   0  0  0  0  0  0  0  0  0  0  0  0
   35.5780   22.8820   31.9080 O   0  0  0  0  0  0  0  0  0  0  0  0
   36.5340   24.6450   30.7190 N   0  0  0  0  0  0  0  0  0  0  0  0
   37.2600   24.8100   29.9620 H   0  0  0  0  0  0  0  0  0  0  0  0
  1  2  1  0  0  0  0
  1 10  1  0  0  0  0
  2  6  1  0  0  0  0
  3  2  2  0  0  0  0
  4  5  1  0  0  0  0
  4  3  1  0  0  0  0
  5  1  2  0  0  0  0
  7  3  1  0  0  0  0
  8 14  1  0  0  0  0
  9 15  1  0  0  0  0
  9  8  2  0  0  0  0
 10  9  1  0  0  0  0
 11 10  2  0  0  0  0
 11 12  1  0  0  0  0
 12 13  2  0  0  0  0
 13  8  1  0  0  0  0
 16 12  1  0  0  0  0
 17  4  1  0  0  0  0
 18 17  1  0  0  0  0
 19 17  1  0  0  0  0
 20 17  1  0  0  0  0
 20 21  1  0  0  0  0
 22 20  1  0  0  0  0
 23 24  1  0  0  0  0
 24 25  2  0  0  0  0
 26 24  1  0  0  0  0
 26 20  1  0  0  0  0
 27 26  1  0  0  0  0
M  END
>  <minimizedAffinity>
-4.23608208

$$$$

 OpenBabel03272508353D

 27 28  0  0  0  0  0  0  0  0999 V2000
   37.8420   25.5880   34.9430 C   0  0  0  0  0  0  0  0  0  0  0  0
   37.4550   26.8520   35.2730 C   0  0  0  0  0  0  0  0  0  0  0  0
   36.9630   27.4770   34.1430 C   0  0  0  0  0  0  0  0  0  0  0  0
   37.0700   26.5600   33.1540 N   0  0  0  0  0  0  0  0  0  0  0  0
   37.5980   25.4280   33.6360 N   0  0  0  0  0  0  0  0  0  0  0  0
   37.4790   27.3890   36.2280 H   0  0  0  0  0  0  0  0  0  0  0  0
   36.5660   28.4860   34.0310 H   0  0  0  0  0  0  0  0  0  0  0  0
   39.9860   23.0400   36.6840 C   0  0  0  0  0  0  0  0  0  0  0  0
   39.5350   23.8830   35.6630 C   0  0  0  0  0  0  0  0  0  0  0  0
   38.4070   24.6710   35.9260 C   0  0  0  0  0  0  0  0  0  0  0  0
   37.8350   24.5570   37.1540 N   0  0  0  0  0  0  0  0  0  0  0  0
   38.3070   23.7260   38.1140 C   0  0  0  0  0  0  0  0  0  0  0  0
   39.3840   22.9730   37.8660 N   0  0  0  0  0  0  0  0  0  0  0  0
   40.8640   22.4750   36.3760 H   0  0  0  0  0  0  0  0  0  0  0  0
   40.0020   23.9620   34.6890 H   0  0  0  0  0  0  0  0  0  0  0  0
   37.7630   23.7270   39.0520 H   0  0  0  0  0  0  0  0  0  0  0  0
   36.6550   26.8110   31.7650 C   0  0  0  0  0  0  0  0  0  0  0  0
   36.1830   27.8050   31.7280 H   0  0  0  0  0  0  0  0  0  0  0  0
   37.5710   26.7410   31.1430 H   0  0  0  0  0  0  0  0  0  0  0  0
   35.7170   25.7220   31.3220 C   0  0  0  0  0  0  0  0  0  0  0  0
   35.1730   25.2720   32.1600 H   0  0  0  0  0  0  0  0  0  0  0  0
   35.0280   26.0350   30.5220 H   0  0  0  0  0  0  0  0  0  0  0  0
   37.0150   22.5200   30.5710 H   0  0  0  0  0  0  0  0  0  0  0  0
   36.4060   23.2800   31.0200 C   0  0  0  0  0  0  0  0  0  0  0  0
   35.5520   22.8620   31.8440 O   0  0  0  0  0  0  0  0  0  0  0  0
   36.5230   24.6680   30.7330 N   0  0  0  0  0  0  0  0  0  0  0  0
   37.2860   24.8630   30.0220 H   0  0  0  0  0  0  0  0  0  0  0  0
  1  2  1  0  0  0  0
  1 10  1  0  0  0  0
  2  6  1  0  0  0  0
  3  2  2  0  0  0  0
  4  5  1  0  0  0  0
  4  3  1  0  0  0  0
  5  1  2  0  0  0  0
  7  3  1  0  0  0  0
  8 13  1  0  0  0  0
  9 10  1  0  0  0  0
  9  8  2  0  0  0  0
 10 11  2  0  0  0  0
 11 12  1  0  0  0  0
 12 16  1  0  0  0  0
 13 12  2  0  0  0  0
 14  8  1  0  0  0  0
 15  9  1  0  0  0  0
 17  4  1  0  0  0  0
 18 17  1  0  0  0  0
 19 17  1  0  0  0  0
 20 17  1  0  0  0  0
 20 21  1  0  0  0  0
 22 20  1  0  0  0  0
 23 24  1  0  0  0  0
 24 25  2  0  0  0  0
 26 24  1  0  0  0  0
 26 20  1  0  0  0  0
 27 26  1  0  0  0  0
M  END
>  <minimizedAffinity>
-4.22571993

$$$$

 OpenBabel03272508353D

 27 28  0  0  0  0  0  0  0  0999 V2000
   37.7100   26.6430   34.3680 C   0  0  0  0  0  0  0  0  0  0  0  0
   38.1330   27.1590   35.5570 C   0  0  0  0  0  0  0  0  0  0  0  0
   38.3310   26.1210   36.4470 C   0  0  0  0  0  0  0  0  0  0  0  0
   38.0180   24.9990   35.7610 N   0  0  0  0  0  0  0  0  0  0  0  0
   37.6450   25.3140   34.5140 N   0  0  0  0  0  0  0  0  0  0  0  0
   38.3190   28.1920   35.8710 H   0  0  0  0  0  0  0  0  0  0  0  0
   38.6660   26.1580   37.4840 H   0  0  0  0  0  0  0  0  0  0  0  0
   36.1610   29.1630   32.0500 C   0  0  0  0  0  0  0  0  0  0  0  0
   36.3490   28.4020   33.2090 C   0  0  0  0  0  0  0  0  0  0  0  0
   37.4130   27.4920   33.2190 C   0  0  0  0  0  0  0  0  0  0  0  0
   38.1840   27.4150   32.1030 N   0  0  0  0  0  0  0  0  0  0  0  0
   37.9650   28.1720   31.0010 C   0  0  0  0  0  0  0  0  0  0  0  0
   36.9500   29.0420   30.9880 N   0  0  0  0  0  0  0  0  0  0  0  0
   35.3110   29.8350   32.1470 H   0  0  0  0  0  0  0  0  0  0  0  0
   35.7250   28.4750   34.0910 H   0  0  0  0  0  0  0  0  0  0  0  0
   38.6500   28.0180   30.1750 H   0  0  0  0  0  0  0  0  0  0  0  0
   38.0900   23.6470   36.3380 C   0  0  0  0  0  0  0  0  0  0  0  0
   37.0690   23.2340   36.3580 H   0  0  0  0  0  0  0  0  0  0  0  0
   38.7830   23.0650   35.6970 H   0  0  0  0  0  0  0  0  0  0  0  0
   38.6940   23.7250   37.7130 C   0  0  0  0  0  0  0  0  0  0  0  0
   39.4460   24.5190   37.7960 H   0  0  0  0  0  0  0  0  0  0  0  0
   37.9470   23.8000   38.5180 H   0  0  0  0  0  0  0  0  0  0  0  0
   41.1970   21.2270   37.7360 H   0  0  0  0  0  0  0  0  0  0  0  0
   40.7100   22.1630   37.5450 C   0  0  0  0  0  0  0  0  0  0  0  0
   41.4000   23.0050   36.9130 O   0  0  0  0  0  0  0  0  0  0  0  0
   39.3840   22.4710   37.9560 N   0  0  0  0  0  0  0  0  0  0  0  0
   38.9320   21.6620   38.4750 H   0  0  0  0  0  0  0  0  0  0  0  0
  1  5  2  0  0  0  0
  1  2  1  0  0  0  0
  2  6  1  0  0  0  0
  2  3  2  0  0  0  0
  3  7  1  0  0  0  0
  4 17  1  0  0  0  0
  4  3  1  0  0  0  0
  5  4  1  0  0  0  0
  8 14  1  0  0  0  0
  8  9  1  0  0  0  0
  9 10  2  0  0  0  0
  9 15  1  0  0  0  0
 10  1  1  0  0  0  0
 11 10  1  0  0  0  0
 12 11  2  0  0  0  0
 13 12  1  0  0  0  0
 13  8  2  0  0  0  0
 16 12  1  0  0  0  0
 17 18  1  0  0  0  0
 17 20  1  0  0  0  0
 19 17  1  0  0  0  0
 20 21  1  0  0  0  0
 20 26  1  0  0  0  0
 20 22  1  0  0  0  0
 24 23  1  0  0  0  0
 24 26  1  0  0  0  0
 25 24  2  0  0  0  0
 26 27  1  0  0  0  0
M  END
>  <minimizedAffinity>
-4.20020962

$$$$

 OpenBabel03272508353D

 27 28  0  0  0  0  0  0  0  0999 V2000
   36.1800   23.8910   31.7340 C   0  0  0  0  0  0  0  0  0  0  0  0
   35.2930   24.7160   31.1110 C   0  0  0  0  0  0  0  0  0  0  0  0
   35.6590   26.0270   31.3530 C   0  0  0  0  0  0  0  0  0  0  0  0
   36.7670   25.9510   32.1250 N   0  0  0  0  0  0  0  0  0  0  0  0
   37.0780   24.6680   32.3520 N   0  0  0  0  0  0  0  0  0  0  0  0
   34.4110   24.4990   30.4990 H   0  0  0  0  0  0  0  0  0  0  0  0
   35.1840   26.9480   31.0150 H   0  0  0  0  0  0  0  0  0  0  0  0
   36.7800   20.2550   30.9980 C   0  0  0  0  0  0  0  0  0  0  0  0
   36.9970   21.6360   30.9970 C   0  0  0  0  0  0  0  0  0  0  0  0
   36.0630   22.4380   31.6660 C   0  0  0  0  0  0  0  0  0  0  0  0
   35.0160   21.8140   32.2660 N   0  0  0  0  0  0  0  0  0  0  0  0
   34.8450   20.4710   32.2420 C   0  0  0  0  0  0  0  0  0  0  0  0
   35.7350   19.7020   31.6040 N   0  0  0  0  0  0  0  0  0  0  0  0
   37.5600   19.7270   30.4540 H   0  0  0  0  0  0  0  0  0  0  0  0
   37.8370   22.1190   30.5130 H   0  0  0  0  0  0  0  0  0  0  0  0
   33.9690   20.0930   32.7580 H   0  0  0  0  0  0  0  0  0  0  0  0
   37.4950   27.1300   32.6200 C   0  0  0  0  0  0  0  0  0  0  0  0
   38.5500   26.8450   32.7490 H   0  0  0  0  0  0  0  0  0  0  0  0
   37.3490   27.9310   31.8680 H   0  0  0  0  0  0  0  0  0  0  0  0
   36.8730   27.5920   33.9090 C   0  0  0  0  0  0  0  0  0  0  0  0
   37.3660   28.4820   34.3170 H   0  0  0  0  0  0  0  0  0  0  0  0
   35.7830   27.7350   33.8440 H   0  0  0  0  0  0  0  0  0  0  0  0
   38.2250   25.6540   36.5400 H   0  0  0  0  0  0  0  0  0  0  0  0
   38.1130   26.4500   35.8300 C   0  0  0  0  0  0  0  0  0  0  0  0
   39.0000   27.3410   35.8820 O   0  0  0  0  0  0  0  0  0  0  0  0
   37.0550   26.5310   34.8830 N   0  0  0  0  0  0  0  0  0  0  0  0
   36.3890   25.7080   34.9620 H   0  0  0  0  0  0  0  0  0  0  0  0
  1  5  2  0  0  0  0
  2  3  2  0  0  0  0
  2  1  1  0  0  0  0
  3  4  1  0  0  0  0
  4  5  1  0  0  0  0
  4 17  1  0  0  0  0
  6  2  1  0  0  0  0
  7  3  1  0  0  0  0
  8 13  1  0  0  0  0
  9  8  2  0  0  0  0
  9 10  1  0  0  0  0
 10  1  1  0  0  0  0
 10 11  2  0  0  0  0
 12 11  1  0  0  0  0
 12 16  1  0  0  0  0
 13 12  2  0  0  0  0
 14  8  1  0  0  0  0
 15  9  1  0  0  0  0
 17 18  1  0  0  0  0
 17 20  1  0  0  0  0
 19 17  1  0  0  0  0
 20 21  1  0  0  0  0
 20 26  1  0  0  0  0
 22 20  1  0  0  0  0
 24 25  2  0  0  0  0
 24 23  1  0  0  0  0
 26 27  1  0  0  0  0
 26 24  1  0  0  0  0
M  END
>  <minimizedAffinity>
-4.06023502

$$$$

 OpenBabel03272508353D

 27 28  0  0  0  0  0  0  0  0999 V2000
   38.0610   25.7760   35.3790 C   0  0  0  0  0  0  0  0  0  0  0  0
   37.9830   27.0620   35.8220 C   0  0  0  0  0  0  0  0  0  0  0  0
   37.3790   27.8330   34.8470 C   0  0  0  0  0  0  0  0  0  0  0  0
   37.1090   26.9780   33.8340 N   0  0  0  0  0  0  0  0  0  0  0  0
   37.5200   25.7450   34.1550 N   0  0  0  0  0  0  0  0  0  0  0  0
   38.3050   27.5230   36.7620 H   0  0  0  0  0  0  0  0  0  0  0  0
   37.1520   28.8990   34.8550 H   0  0  0  0  0  0  0  0  0  0  0  0
   40.2390   22.9760   36.6200 C   0  0  0  0  0  0  0  0  0  0  0  0
   39.7580   23.9680   35.7590 C   0  0  0  0  0  0  0  0  0  0  0  0
   38.6530   24.7150   36.1870 C   0  0  0  0  0  0  0  0  0  0  0  0
   38.1290   24.4190   37.4050 N   0  0  0  0  0  0  0  0  0  0  0  0
   38.6280   23.4480   38.2060 C   0  0  0  0  0  0  0  0  0  0  0  0
   39.6840   22.7330   37.8010 N   0  0  0  0  0  0  0  0  0  0  0  0
   41.0960   22.4580   36.1930 H   0  0  0  0  0  0  0  0  0  0  0  0
   40.1870   24.1920   34.7890 H   0  0  0  0  0  0  0  0  0  0  0  0
   38.1230   23.3080   39.1560 H   0  0  0  0  0  0  0  0  0  0  0  0
   36.4580   27.3860   32.5790 C   0  0  0  0  0  0  0  0  0  0  0  0
   37.1390   27.1390   31.7500 H   0  0  0  0  0  0  0  0  0  0  0  0
   35.4960   26.8380   32.5290 H   0  0  0  0  0  0  0  0  0  0  0  0
   36.1460   28.8560   32.6350 C   0  0  0  0  0  0  0  0  0  0  0  0
   36.4860   29.3210   33.5680 H   0  0  0  0  0  0  0  0  0  0  0  0
   36.5070   29.4150   31.7580 H   0  0  0  0  0  0  0  0  0  0  0  0
   32.8260   29.5860   33.6100 H   0  0  0  0  0  0  0  0  0  0  0  0
   33.8940   29.4940   33.6600 C   0  0  0  0  0  0  0  0  0  0  0  0
   34.4120   29.8640   34.7450 O   0  0  0  0  0  0  0  0  0  0  0  0
   34.7020   28.9940   32.6010 N   0  0  0  0  0  0  0  0  0  0  0  0
   34.1220   28.7230   31.7550 H   0  0  0  0  0  0  0  0  0  0  0  0
  1  2  1  0  0  0  0
  1 10  1  0  0  0  0
  2  6  1  0  0  0  0
  3  7  1  0  0  0  0
  3  2  2  0  0  0  0
  4  5  1  0  0  0  0
  4  3  1  0  0  0  0
  5  1  2  0  0  0  0
  8 13  1  0  0  0  0
  9 10  1  0  0  0  0
  9  8  2  0  0  0  0
 10 11  2  0  0  0  0
 11 12  1  0  0  0  0
 12 16  1  0  0  0  0
 13 12  2  0  0  0  0
 14  8  1  0  0  0  0
 15  9  1  0  0  0  0
 17 20  1  0  0  0  0
 17  4  1  0  0  0  0
 18 17  1  0  0  0  0
 19 17  1  0  0  0  0
 20 21  1  0  0  0  0
 22 20  1  0  0  0  0
 23 24  1  0  0  0  0
 24 25  2  0  0  0  0
 26 20  1  0  0  0  0
 26 24  1  0  0  0  0
 27 26  1  0  0  0  0
M  END
>  <minimizedAffinity>
-3.96980309

$$$$

 OpenBabel03272508353D

 27 28  0  0  0  0  0  0  0  0999 V2000
   37.9770   24.9510   34.7110 C   0  0  0  0  0  0  0  0  0  0  0  0
   38.0290   24.3730   33.4790 C   0  0  0  0  0  0  0  0  0  0  0  0
   37.4840   25.2440   32.5540 C   0  0  0  0  0  0  0  0  0  0  0  0
   37.1160   26.3330   33.2670 N   0  0  0  0  0  0  0  0  0  0  0  0
   37.4120   26.1550   34.5600 N   0  0  0  0  0  0  0  0  0  0  0  0
   38.4110   23.3990   33.1520 H   0  0  0  0  0  0  0  0  0  0  0  0
   37.3610   25.1190   31.4790 H   0  0  0  0  0  0  0  0  0  0  0  0
   38.3930   23.6430   38.2100 C   0  0  0  0  0  0  0  0  0  0  0  0
   37.8170   24.3310   37.1360 C   0  0  0  0  0  0  0  0  0  0  0  0
   38.4790   24.2750   35.9030 C   0  0  0  0  0  0  0  0  0  0  0  0
   39.6310   23.5590   35.8410 N   0  0  0  0  0  0  0  0  0  0  0  0
   40.1540   22.9080   36.9080 C   0  0  0  0  0  0  0  0  0  0  0  0
   39.5240   22.9580   38.0870 N   0  0  0  0  0  0  0  0  0  0  0  0
   37.8020   23.7510   39.1170 H   0  0  0  0  0  0  0  0  0  0  0  0
   36.8970   24.8990   37.2020 H   0  0  0  0  0  0  0  0  0  0  0  0
   41.0780   22.3700   36.7300 H   0  0  0  0  0  0  0  0  0  0  0  0
   36.4840   27.5200   32.6680 C   0  0  0  0  0  0  0  0  0  0  0  0
   35.6800   27.8510   33.3430 H   0  0  0  0  0  0  0  0  0  0  0  0
   37.2860   28.2760   32.5430 H   0  0  0  0  0  0  0  0  0  0  0  0
   35.9670   27.1710   31.3000 C   0  0  0  0  0  0  0  0  0  0  0  0
   36.4680   26.2940   30.8740 H   0  0  0  0  0  0  0  0  0  0  0  0
   34.8720   27.0630   31.2590 H   0  0  0  0  0  0  0  0  0  0  0  0
   37.6590   29.2890   29.0300 H   0  0  0  0  0  0  0  0  0  0  0  0
   37.4610   28.4520   29.6700 C   0  0  0  0  0  0  0  0  0  0  0  0
   38.3770   27.5900   29.7210 O   0  0  0  0  0  0  0  0  0  0  0  0
   36.2660   28.2890   30.4240 N   0  0  0  0  0  0  0  0  0  0  0  0
   35.5930   29.0970   30.2790 H   0  0  0  0  0  0  0  0  0  0  0  0
  1 10  1  0  0  0  0
  2  1  1  0  0  0  0
  3  4  1  0  0  0  0
  3  2  2  0  0  0  0
  4  5  1  0  0  0  0
  5  1  2  0  0  0  0
  6  2  1  0  0  0  0
  7  3  1  0  0  0  0
  8 14  1  0  0  0  0
  9 15  1  0  0  0  0
  9  8  2  0  0  0  0
 10  9  1  0  0  0  0
 11 10  2  0  0  0  0
 11 12  1  0  0  0  0
 12 13  2  0  0  0  0
 13  8  1  0  0  0  0
 16 12  1  0  0  0  0
 17  4  1  0  0  0  0
 17 18  1  0  0  0  0
 19 17  1  0  0  0  0
 20 17  1  0  0  0  0
 21 20  1  0  0  0  0
 22 20  1  0  0  0  0
 23 24  1  0  0  0  0
 24 25  2  0  0  0  0
 24 26  1  0  0  0  0
 26 20  1  0  0  0  0
 27 26  1  0  0  0  0
M  END
>  <minimizedAffinity>
-3.95764399

$$$$

 OpenBabel03272508353D

 27 28  0  0  0  0  0  0  0  0999 V2000
   37.0600   27.3190   34.0770 C   0  0  0  0  0  0  0  0  0  0  0  0
   37.7360   27.5520   35.2370 C   0  0  0  0  0  0  0  0  0  0  0  0
   38.3090   26.3680   35.6640 C   0  0  0  0  0  0  0  0  0  0  0  0
   37.9570   25.4480   34.7370 N   0  0  0  0  0  0  0  0  0  0  0  0
   37.2070   26.0200   33.7870 N   0  0  0  0  0  0  0  0  0  0  0  0
   37.8740   28.4670   35.8220 H   0  0  0  0  0  0  0  0  0  0  0  0
   38.9180   26.1770   36.5470 H   0  0  0  0  0  0  0  0  0  0  0  0
   34.8480   30.2420   33.2490 C   0  0  0  0  0  0  0  0  0  0  0  0
   35.4810   29.2670   34.0280 C   0  0  0  0  0  0  0  0  0  0  0  0
   36.3440   28.3780   33.3740 C   0  0  0  0  0  0  0  0  0  0  0  0
   36.5020   28.5280   32.0330 N   0  0  0  0  0  0  0  0  0  0  0  0
   35.8680   29.4890   31.3190 C   0  0  0  0  0  0  0  0  0  0  0  0
   35.0430   30.3390   31.9400 N   0  0  0  0  0  0  0  0  0  0  0  0
   34.2030   30.8770   33.8530 H   0  0  0  0  0  0  0  0  0  0  0  0
   35.3440   29.1590   35.0970 H   0  0  0  0  0  0  0  0  0  0  0  0
   36.0780   29.5060   30.2550 H   0  0  0  0  0  0  0  0  0  0  0  0
   38.3590   24.0340   34.8020 C   0  0  0  0  0  0  0  0  0  0  0  0
   37.4650   23.4200   34.6130 H   0  0  0  0  0  0  0  0  0  0  0  0
   39.1520   23.8950   34.0400 H   0  0  0  0  0  0  0  0  0  0  0  0
   38.9650   23.7510   36.1500 C   0  0  0  0  0  0  0  0  0  0  0  0
   39.7510   22.9890   36.1040 H   0  0  0  0  0  0  0  0  0  0  0  0
   39.3160   24.6550   36.6720 H   0  0  0  0  0  0  0  0  0  0  0  0
   37.0890   22.8720   39.0160 H   0  0  0  0  0  0  0  0  0  0  0  0
   37.8790   23.2770   38.4150 C   0  0  0  0  0  0  0  0  0  0  0  0
   38.8090   23.8290   39.0570 O   0  0  0  0  0  0  0  0  0  0  0  0
   37.9120   23.2150   36.9940 N   0  0  0  0  0  0  0  0  0  0  0  0
   37.0610   22.7190   36.5990 H   0  0  0  0  0  0  0  0  0  0  0  0
  1  2  1  0  0  0  0
  2  3  2  0  0  0  0
  2  6  1  0  0  0  0
  3  7  1  0  0  0  0
  4 17  1  0  0  0  0
  4  3  1  0  0  0  0
  5  1  2  0  0  0  0
  5  4  1  0  0  0  0
  8 14  1  0  0  0  0
  8  9  1  0  0  0  0
  9 15  1  0  0  0  0
 10  9  2  0  0  0  0
 10  1  1  0  0  0  0
 11 10  1  0  0  0  0
 12 13  1  0  0  0  0
 12 11  2  0  0  0  0
 13  8  2  0  0  0  0
 16 12  1  0  0  0  0
 17 20  1  0  0  0  0
 18 17  1  0  0  0  0
 19 17  1  0  0  0  0
 20 22  1  0  0  0  0
 20 26  1  0  0  0  0
 21 20  1  0  0  0  0
 24 23  1  0  0  0  0
 24 25  2  0  0  0  0
 26 24  1  0  0  0  0
 27 26  1  0  0  0  0
M  END
>  <minimizedAffinity>
-3.94787502

$$$$
