
 OpenBabel03272510153D

 24 25  0  0  0  0  0  0  0  0999 V2000
   37.0920   29.5290   51.2660 Br  0  0  0  0  0  0  0  0  0  0  0  0
   35.9590   29.3080   49.7330 C   0  0  0  0  0  0  0  0  0  0  0  0
   36.0840   30.1480   48.6450 C   0  0  0  0  0  0  0  0  0  0  0  0
   35.2340   29.9280   47.5770 C   0  0  0  0  0  0  0  0  0  0  0  0
   34.2870   28.9160   47.5690 C   0  0  0  0  0  0  0  0  0  0  0  0
   34.2020   28.1080   48.6740 C   0  0  0  0  0  0  0  0  0  0  0  0
   35.0380   28.3060   49.7510 C   0  0  0  0  0  0  0  0  0  0  0  0
   35.3760   30.6190   46.7470 H   0  0  0  0  0  0  0  0  0  0  0  0
   33.4520   27.3330   48.6250 H   0  0  0  0  0  0  0  0  0  0  0  0
   34.8830   27.6130   50.5640 H   0  0  0  0  0  0  0  0  0  0  0  0
   37.8400   33.2200   49.5470 C   0  0  0  0  0  0  0  0  0  0  0  0
   38.9370   33.2620   48.6290 C   0  0  0  0  0  0  0  0  0  0  0  0
   39.0360   32.2220   47.7220 C   0  0  0  0  0  0  0  0  0  0  0  0
   38.1000   31.2230   47.7460 N   0  0  0  0  0  0  0  0  0  0  0  0
   37.0770   31.2230   48.6320 C   0  0  0  0  0  0  0  0  0  0  0  0
   36.9480   32.2190   49.5290 N   0  0  0  0  0  0  0  0  0  0  0  0
   37.7590   34.0340   50.2580 H   0  0  0  0  0  0  0  0  0  0  0  0
   39.6520   34.0750   48.6500 H   0  0  0  0  0  0  0  0  0  0  0  0
   39.8480   32.1900   46.9940 H   0  0  0  0  0  0  0  0  0  0  0  0
   31.2640   28.4650   45.8950 H   0  0  0  0  0  0  0  0  0  0  0  0
   32.1250   28.5830   46.5200 C   0  0  0  0  0  0  0  0  0  0  0  0
   31.3950   28.3720   47.5230 O   0  0  0  0  0  0  0  0  0  0  0  0
   33.5160   28.8560   46.3880 N   0  0  0  0  0  0  0  0  0  0  0  0
   33.7020   28.9660   45.3660 H   0  0  0  0  0  0  0  0  0  0  0  0
  2  7  1  0  0  0  0
  2  1  1  0  0  0  0
  3  2  2  0  0  0  0
  4  3  1  0  0  0  0
  5  4  2  0  0  0  0
  5  6  1  0  0  0  0
  6  7  2  0  0  0  0
  7 10  1  0  0  0  0
  8  4  1  0  0  0  0
  9  6  1  0  0  0  0
 11 17  1  0  0  0  0
 12 18  1  0  0  0  0
 12 11  2  0  0  0  0
 13 14  2  0  0  0  0
 13 12  1  0  0  0  0
 14 15  1  0  0  0  0
 15  3  1  0  0  0  0
 15 16  2  0  0  0  0
 16 11  1  0  0  0  0
 19 13  1  0  0  0  0
 20 21  1  0  0  0  0
 21 22  2  0  0  0  0
 23 21  1  0  0  0  0
 23  5  1  0  0  0  0
 24 23  1  0  0  0  0
M  END
>  <minimizedAffinity>
-5.49628401

>  <minimizedRMSD>
0.634245753

$$$$
