
 OpenBabel03262522583D

 34 37  0  0  0  0  0  0  0  0999 V2000
   34.7960   28.8990   49.0060 C   0  0  0  0  0  0  0  0  0  0  0  0
   34.7460   28.3010   47.7440 C   0  0  0  0  0  0  0  0  0  0  0  0
   33.4740   27.8250   47.5500 C   0  0  0  0  0  0  0  0  0  0  0  0
   32.7710   28.1430   48.6990 N   0  0  0  0  0  0  0  0  0  0  0  0
   33.5960   28.7710   49.5180 N   0  0  0  0  0  0  0  0  0  0  0  0
   30.5760   27.4660   47.8300 N   0  0  0  0  0  0  0  0  0  0  0  0
   31.3990   27.7900   48.8480 C   0  0  0  0  0  0  0  0  0  0  0  0
   30.6690   27.7060   49.9780 N   0  0  0  0  0  0  0  0  0  0  0  0
   29.4050   27.3340   49.6900 C   0  0  0  0  0  0  0  0  0  0  0  0
   28.2430   27.0840   50.3680 C   0  0  0  0  0  0  0  0  0  0  0  0
   27.1400   26.7150   49.7010 N   0  0  0  0  0  0  0  0  0  0  0  0
   27.1300   26.5780   48.3560 C   0  0  0  0  0  0  0  0  0  0  0  0
   28.2410   26.8110   47.6480 N   0  0  0  0  0  0  0  0  0  0  0  0
   29.3520   27.1830   48.3270 C   0  0  0  0  0  0  0  0  0  0  0  0
   35.6050   28.2460   47.0620 H   0  0  0  0  0  0  0  0  0  0  0  0
   33.1070   27.3060   46.6660 H   0  0  0  0  0  0  0  0  0  0  0  0
   30.8330   27.4320   46.8000 H   0  0  0  0  0  0  0  0  0  0  0  0
   26.2130   26.2770   47.8660 H   0  0  0  0  0  0  0  0  0  0  0  0
   37.3010   30.0100   51.4390 C   0  0  0  0  0  0  0  0  0  0  0  0
   38.2160   30.7190   50.6140 C   0  0  0  0  0  0  0  0  0  0  0  0
   37.9620   30.8050   49.2400 C   0  0  0  0  0  0  0  0  0  0  0  0
   36.8370   30.1930   48.7930 N   0  0  0  0  0  0  0  0  0  0  0  0
   35.9740   29.5230   49.5840 C   0  0  0  0  0  0  0  0  0  0  0  0
   36.2230   29.4450   50.8860 N   0  0  0  0  0  0  0  0  0  0  0  0
   37.5240   29.9610   52.4980 H   0  0  0  0  0  0  0  0  0  0  0  0
   39.1020   31.1920   51.0160 H   0  0  0  0  0  0  0  0  0  0  0  0
   39.5820   33.3360   47.5800 H   0  0  0  0  0  0  0  0  0  0  0  0
   38.8800   32.9240   48.2950 C   0  0  0  0  0  0  0  0  0  0  0  0
   38.0770   33.4650   49.1030 O   0  0  0  0  0  0  0  0  0  0  0  0
   38.8330   31.4970   48.3540 N   0  0  0  0  0  0  0  0  0  0  0  0
   39.4440   30.9140   47.7410 H   0  0  0  0  0  0  0  0  0  0  0  0
   28.2780   27.2320   51.7770 N   0  0  0  0  0  0  0  0  0  0  0  0
   28.4820   26.2330   52.0560 H   0  0  0  0  0  0  0  0  0  0  0  0
   28.1510   28.0440   52.4110 H   0  0  0  0  0  0  0  0  0  0  0  0
  1  5  2  0  0  0  0
  1 23  1  0  0  0  0
  2  1  1  0  0  0  0
  3  2  2  0  0  0  0
  3  4  1  0  0  0  0
  4  7  1  0  0  0  0
  4  5  1  0  0  0  0
  6 14  1  0  0  0  0
  6  7  1  0  0  0  0
  7  8  2  0  0  0  0
  9  8  1  0  0  0  0
  9 10  1  0  0  0  0
 10 32  1  0  0  0  0
 11 10  2  0  0  0  0
 12 11  1  0  0  0  0
 13 14  1  0  0  0  0
 13 12  2  0  0  0  0
 14  9  2  0  0  0  0
 15  2  1  0  0  0  0
 16  3  1  0  0  0  0
 17  6  1  0  0  0  0
 18 12  1  0  0  0  0
 19 25  1  0  0  0  0
 20 26  1  0  0  0  0
 20 19  2  0  0  0  0
 21 20  1  0  0  0  0
 22 21  2  0  0  0  0
 22 23  1  0  0  0  0
 23 24  2  0  0  0  0
 24 19  1  0  0  0  0
 27 28  1  0  0  0  0
 28 30  1  0  0  0  0
 28 29  2  0  0  0  0
 30 21  1  0  0  0  0
 31 30  1  0  0  0  0
 32 33  1  0  0  0  0
 32 34  1  0  0  0  0
M  END
>  <minimizedAffinity>
-7.75309658

>  <minimizedRMSD>
0.771791756

$$$$
