
 OpenBabel03272510143D

 24 25  0  0  0  0  0  0  0  0999 V2000
   37.2590   29.3620   51.0540 Br  0  0  0  0  0  0  0  0  0  0  0  0
   35.8970   29.3500   49.7010 C   0  0  0  0  0  0  0  0  0  0  0  0
   35.9240   30.2730   48.6750 C   0  0  0  0  0  0  0  0  0  0  0  0
   34.9100   30.2030   47.7370 C   0  0  0  0  0  0  0  0  0  0  0  0
   33.8960   29.2600   47.7980 C   0  0  0  0  0  0  0  0  0  0  0  0
   33.9140   28.3650   48.8380 C   0  0  0  0  0  0  0  0  0  0  0  0
   34.9130   28.4130   49.7850 C   0  0  0  0  0  0  0  0  0  0  0  0
   34.9810   30.9530   46.9510 H   0  0  0  0  0  0  0  0  0  0  0  0
   33.1060   27.6480   48.8470 H   0  0  0  0  0  0  0  0  0  0  0  0
   34.8270   27.6630   50.5560 H   0  0  0  0  0  0  0  0  0  0  0  0
   37.9660   33.1930   49.4700 C   0  0  0  0  0  0  0  0  0  0  0  0
   38.9760   33.1840   48.4560 C   0  0  0  0  0  0  0  0  0  0  0  0
   38.9190   32.1620   47.5240 C   0  0  0  0  0  0  0  0  0  0  0  0
   37.9210   31.2290   47.6150 N   0  0  0  0  0  0  0  0  0  0  0  0
   36.9840   31.2760   48.5910 C   0  0  0  0  0  0  0  0  0  0  0  0
   37.0080   32.2560   49.5150 N   0  0  0  0  0  0  0  0  0  0  0  0
   38.0080   33.9930   50.2010 H   0  0  0  0  0  0  0  0  0  0  0  0
   39.7460   33.9440   48.4260 H   0  0  0  0  0  0  0  0  0  0  0  0
   39.6580   32.0930   46.7240 H   0  0  0  0  0  0  0  0  0  0  0  0
   33.0500   29.1650   44.4190 H   0  0  0  0  0  0  0  0  0  0  0  0
   33.4320   29.1690   45.4190 C   0  0  0  0  0  0  0  0  0  0  0  0
   34.5760   28.9260   44.9550 O   0  0  0  0  0  0  0  0  0  0  0  0
   32.9570   29.3540   46.7490 N   0  0  0  0  0  0  0  0  0  0  0  0
   31.9320   29.5360   46.6750 H   0  0  0  0  0  0  0  0  0  0  0  0
  2  7  1  0  0  0  0
  2  1  1  0  0  0  0
  3  2  2  0  0  0  0
  4  5  2  0  0  0  0
  4  3  1  0  0  0  0
  5  6  1  0  0  0  0
  6  9  1  0  0  0  0
  6  7  2  0  0  0  0
  7 10  1  0  0  0  0
  8  4  1  0  0  0  0
 11 16  1  0  0  0  0
 11 17  1  0  0  0  0
 12 11  2  0  0  0  0
 13 14  2  0  0  0  0
 13 12  1  0  0  0  0
 14 15  1  0  0  0  0
 15  3  1  0  0  0  0
 15 16  2  0  0  0  0
 18 12  1  0  0  0  0
 19 13  1  0  0  0  0
 20 21  1  0  0  0  0
 21 23  1  0  0  0  0
 22 21  2  0  0  0  0
 23  5  1  0  0  0  0
 24 23  1  0  0  0  0
M  END
>  <minimizedAffinity>
-5.44143486

>  <minimizedRMSD>
0.139133066

$$$$
