
 OpenBabel03272508103D

 30 31  0  0  0  0  0  0  0  0999 V2000
   38.9320   30.5130   45.6290 O   0  0  0  0  0  0  0  0  0  0  0  0
   36.6240   29.5970   44.0920 Cl  0  0  0  0  0  0  0  0  0  0  0  0
   38.2650   29.9460   43.5090 C   0  0  0  0  0  0  0  0  0  0  0  0
   39.3060   30.3800   44.3220 C   0  0  0  0  0  0  0  0  0  0  0  0
   40.5260   30.6110   43.7260 C   0  0  0  0  0  0  0  0  0  0  0  0
   40.7060   30.4200   42.3810 C   0  0  0  0  0  0  0  0  0  0  0  0
   39.6900   29.9910   41.5650 C   0  0  0  0  0  0  0  0  0  0  0  0
   38.4660   29.7540   42.1320 C   0  0  0  0  0  0  0  0  0  0  0  0
   41.2870   30.9470   44.4110 H   0  0  0  0  0  0  0  0  0  0  0  0
   41.6950   30.6220   41.9830 H   0  0  0  0  0  0  0  0  0  0  0  0
   39.8440   29.8440   40.5120 H   0  0  0  0  0  0  0  0  0  0  0  0
   35.7380   29.4080   39.9670 H   0  0  0  0  0  0  0  0  0  0  0  0
   36.4380   30.0170   40.5230 C   0  0  0  0  0  0  0  0  0  0  0  0
   36.3480   31.2790   40.4550 O   0  0  0  0  0  0  0  0  0  0  0  0
   37.4050   29.3080   41.2900 N   0  0  0  0  0  0  0  0  0  0  0  0
   37.4290   28.2640   41.3070 H   0  0  0  0  0  0  0  0  0  0  0  0
   39.4760   32.5140   47.1670 O   0  0  0  0  0  0  0  0  0  0  0  0
   38.3520   31.8490   46.4400 P   0  0  1  0  0  0  0  0  0  0  0  0
   37.7780   32.9050   45.2190 O   0  0  0  0  0  0  0  0  0  0  0  0
   38.5910   33.3410   44.8370 H   0  0  0  0  0  0  0  0  0  0  0  0
   37.0640   31.4010   47.4390 O   0  0  0  0  0  0  0  0  0  0  0  0
   37.6060   30.5300   50.9830 C   0  0  0  0  0  0  0  0  0  0  0  0
   37.7150   31.2960   49.8220 C   0  0  0  0  0  0  0  0  0  0  0  0
   37.0970   30.8420   48.6610 C   0  0  0  0  0  0  0  0  0  0  0  0
   36.4080   29.6540   48.7240 N   0  0  0  0  0  0  0  0  0  0  0  0
   36.3300   28.9480   49.8680 C   0  0  0  0  0  0  0  0  0  0  0  0
   36.9320   29.3930   50.9930 N   0  0  0  0  0  0  0  0  0  0  0  0
   38.1160   30.9550   51.8370 H   0  0  0  0  0  0  0  0  0  0  0  0
   38.2340   32.2290   49.6930 H   0  0  0  0  0  0  0  0  0  0  0  0
   35.7850   28.0070   49.9260 H   0  0  0  0  0  0  0  0  0  0  0  0
  1 18  1  0  0  0  0
  3  2  1  0  0  0  0
  3  4  1  0  0  0  0
  4  1  1  0  0  0  0
  5  4  2  0  0  0  0
  5  9  1  0  0  0  0
  6  5  1  0  0  0  0
  7  8  1  0  0  0  0
  7  6  2  0  0  0  0
  8  3  2  0  0  0  0
 10  6  1  0  0  0  0
 11  7  1  0  0  0  0
 12 13  1  0  0  0  0
 13 15  1  0  0  0  0
 14 13  2  0  0  0  0
 15 16  1  0  0  0  0
 15  8  1  0  0  0  0
 18 17  2  1  0  0  0
 18 21  1  0  0  0  0
 19 18  1  0  0  0  0
 20 19  1  0  0  0  0
 21 24  1  0  0  0  0
 22 27  1  0  0  0  0
 22 28  1  0  0  0  0
 23 22  2  0  0  0  0
 24 25  2  0  0  0  0
 24 23  1  0  0  0  0
 25 26  1  0  0  0  0
 26 30  1  0  0  0  0
 26 27  2  0  0  0  0
 29 23  1  0  0  0  0
M  END
>  <minimizedAffinity>
-4.79418516

>  <minimizedRMSD>
0.111878701

$$$$
