
 OpenBabel03272503533D

 40 42  0  0  1  0  0  0  0  0999 V2000
   37.6730   30.5940   46.1640 C   0  0  1  0  0  0  0  0  0  0  0  0
   36.4550   30.9670   45.2840 C   0  0  0  0  0  0  0  0  0  0  0  0
   36.3270   29.7690   44.3220 C   0  0  0  0  0  0  0  0  0  0  0  0
   37.4700   29.8530   43.3770 C   0  0  0  0  0  0  0  0  0  0  0  0
   38.7700   29.7640   44.1260 C   0  0  0  0  0  0  0  0  0  0  0  0
   38.8640   30.7550   45.2610 C   0  0  2  0  0  0  0  0  0  0  0  0
   37.4220   29.5680   46.4660 H   0  0  0  0  0  0  0  0  0  0  0  0
   36.7170   31.8270   44.6580 H   0  0  0  0  0  0  0  0  0  0  0  0
   35.5360   31.0430   45.8630 H   0  0  0  0  0  0  0  0  0  0  0  0
   35.3480   29.8150   43.7890 H   0  0  0  0  0  0  0  0  0  0  0  0
   36.4520   28.8800   44.9560 H   0  0  0  0  0  0  0  0  0  0  0  0
   37.4760   29.1050   42.5850 H   0  0  0  0  0  0  0  0  0  0  0  0
   37.4680   30.8480   42.8530 H   0  0  0  0  0  0  0  0  0  0  0  0
   39.5930   29.9890   43.4090 H   0  0  0  0  0  0  0  0  0  0  0  0
   38.9190   28.7170   44.4300 H   0  0  0  0  0  0  0  0  0  0  0  0
   38.8210   31.7570   44.7870 H   0  0  0  0  0  0  0  0  0  0  0  0
   37.0040   31.2240   48.5020 C   0  0  0  0  0  0  0  0  0  0  0  0
   37.1830   32.0300   49.6190 C   0  0  0  0  0  0  0  0  0  0  0  0
   38.1310   33.0630   49.6050 C   0  0  0  0  0  0  0  0  0  0  0  0
   38.8710   33.2400   48.4400 C   0  0  0  0  0  0  0  0  0  0  0  0
   38.7010   32.4510   47.3390 C   0  0  0  0  0  0  0  0  0  0  0  0
   37.7430   31.4160   47.3700 C   0  0  0  0  0  0  0  0  0  0  0  0
   36.6120   31.8950   50.5200 H   0  0  0  0  0  0  0  0  0  0  0  0
   38.2520   33.6800   50.4920 H   0  0  0  0  0  0  0  0  0  0  0  0
   39.5810   34.0520   48.5010 H   0  0  0  0  0  0  0  0  0  0  0  0
   39.3350   32.6990   46.5110 H   0  0  0  0  0  0  0  0  0  0  0  0
   35.0480   28.1440   49.4600 C   0  0  0  0  0  0  0  0  0  0  0  0
   36.1150   29.0610   49.4100 C   0  0  0  0  0  0  0  0  0  0  0  0
   35.9820   30.2070   48.6280 C   0  0  0  0  0  0  0  0  0  0  0  0
   34.8190   30.3500   47.9660 N   0  0  0  0  0  0  0  0  0  0  0  0
   33.8020   29.4720   48.0170 C   0  0  0  0  0  0  0  0  0  0  0  0
   33.9230   28.3810   48.7590 N   0  0  0  0  0  0  0  0  0  0  0  0
   35.3160   27.3120   50.1130 H   0  0  0  0  0  0  0  0  0  0  0  0
   37.0560   28.9580   49.9360 H   0  0  0  0  0  0  0  0  0  0  0  0
   32.8810   29.6050   47.4810 H   0  0  0  0  0  0  0  0  0  0  0  0
   42.1720   31.0460   46.3370 H   0  0  0  0  0  0  0  0  0  0  0  0
   41.2830   31.3210   45.7760 C   0  0  0  0  0  0  0  0  0  0  0  0
   41.3660   32.3150   45.0450 O   0  0  0  0  0  0  0  0  0  0  0  0
   40.1190   30.5230   45.9330 N   0  0  0  0  0  0  0  0  0  0  0  0
   40.0710   29.6810   46.5610 H   0  0  0  0  0  0  0  0  0  0  0  0
  1  7  1  1  0  0  0
  1 22  1  0  0  0  0
  2  9  1  0  0  0  0
  2  1  1  0  0  0  0
  3 11  1  0  0  0  0
  3  2  1  0  0  0  0
  4  5  1  0  0  0  0
  4  3  1  0  0  0  0
  5 15  1  0  0  0  0
  5  6  1  0  0  0  0
  6 16  1  6  0  0  0
  6 39  1  0  0  0  0
  6  1  1  0  0  0  0
  8  2  1  0  0  0  0
 10  3  1  0  0  0  0
 12  4  1  0  0  0  0
 13  4  1  0  0  0  0
 14  5  1  0  0  0  0
 17 29  1  0  0  0  0
 17 18  1  0  0  0  0
 18 23  1  0  0  0  0
 19 18  2  0  0  0  0
 19 24  1  0  0  0  0
 20 25  1  0  0  0  0
 20 19  1  0  0  0  0
 21 22  1  0  0  0  0
 21 20  2  0  0  0  0
 22 17  2  0  0  0  0
 26 21  1  0  0  0  0
 27 33  1  0  0  0  0
 28 27  1  0  0  0  0
 28 34  1  0  0  0  0
 29 28  2  0  0  0  0
 30 31  2  0  0  0  0
 30 29  1  0  0  0  0
 31 32  1  0  0  0  0
 32 27  2  0  0  0  0
 35 31  1  0  0  0  0
 37 39  1  0  0  0  0
 37 36  1  0  0  0  0
 38 37  2  0  0  0  0
 39 40  1  0  0  0  0
M  END
>  <minimizedAffinity>
-6.21899033

>  <minimizedRMSD>
1.83194792

$$$$
