
 OpenBabel03272509033D

 29 30  0  0  0  0  0  0  0  0999 V2000
   34.8920   28.3120   49.6280 C   0  0  0  0  0  0  0  0  0  0  0  0
   34.3470   28.4230   48.4490 C   0  0  0  0  0  0  0  0  0  0  0  0
   37.3560   30.2820   51.4670 C   0  0  0  0  0  0  0  0  0  0  0  0
   38.1580   30.7890   50.4220 C   0  0  0  0  0  0  0  0  0  0  0  0
   37.8120   30.4200   49.1050 C   0  0  0  0  0  0  0  0  0  0  0  0
   36.7350   29.6120   48.9520 N   0  0  0  0  0  0  0  0  0  0  0  0
   36.0090   29.1590   49.9640 C   0  0  0  0  0  0  0  0  0  0  0  0
   36.3130   29.4890   51.2190 N   0  0  0  0  0  0  0  0  0  0  0  0
   37.6450   30.5800   52.4760 H   0  0  0  0  0  0  0  0  0  0  0  0
   39.0000   31.4270   50.6110 H   0  0  0  0  0  0  0  0  0  0  0  0
   39.5150   32.3250   46.6600 H   0  0  0  0  0  0  0  0  0  0  0  0
   38.9880   32.0750   47.5670 C   0  0  0  0  0  0  0  0  0  0  0  0
   38.8070   33.0430   48.3450 O   0  0  0  0  0  0  0  0  0  0  0  0
   38.5000   30.8330   47.9600 N   0  0  0  0  0  0  0  0  0  0  0  0
   38.7210   30.1180   47.2170 H   0  0  0  0  0  0  0  0  0  0  0  0
   33.2150   27.6740   47.8970 C   0  0  0  0  0  0  0  0  0  0  0  0
   32.6480   27.1600   48.7230 H   0  0  0  0  0  0  0  0  0  0  0  0
   32.5390   28.3730   47.3590 H   0  0  0  0  0  0  0  0  0  0  0  0
   33.6440   26.5640   46.9930 C   0  0  0  0  0  0  0  0  0  0  0  0
   33.8530   25.2470   47.3560 C   0  0  0  0  0  0  0  0  0  0  0  0
   34.2500   24.3130   46.4190 C   0  0  0  0  0  0  0  0  0  0  0  0
   34.4510   24.6760   45.0740 C   0  0  0  0  0  0  0  0  0  0  0  0
   34.2430   25.9920   44.7030 C   0  0  0  0  0  0  0  0  0  0  0  0
   33.8450   26.9190   45.6570 C   0  0  0  0  0  0  0  0  0  0  0  0
   33.6890   25.0160   48.3910 H   0  0  0  0  0  0  0  0  0  0  0  0
   34.4080   23.2910   46.7260 H   0  0  0  0  0  0  0  0  0  0  0  0
   34.7570   23.9080   44.3980 H   0  0  0  0  0  0  0  0  0  0  0  0
   34.3990   26.2640   43.6680 H   0  0  0  0  0  0  0  0  0  0  0  0
   33.7010   27.9210   45.2990 H   0  0  0  0  0  0  0  0  0  0  0  0
  1  7  1  0  0  0  0
  2  1  2  0  0  0  0
  3  9  1  0  0  0  0
  4 10  1  0  0  0  0
  4  3  2  0  0  0  0
  5  4  1  0  0  0  0
  6  5  2  0  0  0  0
  6  7  1  0  0  0  0
  7  8  2  0  0  0  0
  8  3  1  0  0  0  0
 11 12  1  0  0  0  0
 12 14  1  0  0  0  0
 12 13  2  0  0  0  0
 14  5  1  0  0  0  0
 15 14  1  0  0  0  0
 16  2  1  0  0  0  0
 16 17  1  0  0  0  0
 18 16  1  0  0  0  0
 19 20  1  0  0  0  0
 19 16  1  0  0  0  0
 20 25  1  0  0  0  0
 21 26  1  0  0  0  0
 21 20  2  0  0  0  0
 22 21  1  0  0  0  0
 23 22  2  0  0  0  0
 23 24  1  0  0  0  0
 24 19  2  0  0  0  0
 27 22  1  0  0  0  0
 28 23  1  0  0  0  0
 29 24  1  0  0  0  0
M  END
>  <minimizedAffinity>
-5.81208515

>  <minimizedRMSD>
0.264510959

$$$$
