
 OpenBabel03272510143D

 24 25  0  0  0  0  0  0  0  0999 V2000
   37.2620   29.3690   51.0630 Br  0  0  0  0  0  0  0  0  0  0  0  0
   35.9090   29.4120   49.7020 C   0  0  0  0  0  0  0  0  0  0  0  0
   35.9580   30.3570   48.6970 C   0  0  0  0  0  0  0  0  0  0  0  0
   34.9500   30.3270   47.7520 C   0  0  0  0  0  0  0  0  0  0  0  0
   33.9200   29.4000   47.7850 C   0  0  0  0  0  0  0  0  0  0  0  0
   33.9150   28.4810   48.8030 C   0  0  0  0  0  0  0  0  0  0  0  0
   34.9090   28.4900   49.7580 C   0  0  0  0  0  0  0  0  0  0  0  0
   35.0390   31.0930   46.9840 H   0  0  0  0  0  0  0  0  0  0  0  0
   33.0960   27.7780   48.7900 H   0  0  0  0  0  0  0  0  0  0  0  0
   34.8050   27.7240   50.5100 H   0  0  0  0  0  0  0  0  0  0  0  0
   38.0430   33.2240   49.5720 C   0  0  0  0  0  0  0  0  0  0  0  0
   39.0600   33.2200   48.5660 C   0  0  0  0  0  0  0  0  0  0  0  0
   38.9930   32.2210   47.6110 C   0  0  0  0  0  0  0  0  0  0  0  0
   37.9790   31.3030   47.6740 N   0  0  0  0  0  0  0  0  0  0  0  0
   37.0360   31.3440   48.6440 C   0  0  0  0  0  0  0  0  0  0  0  0
   37.0690   32.3030   49.5900 N   0  0  0  0  0  0  0  0  0  0  0  0
   38.0920   34.0070   50.3210 H   0  0  0  0  0  0  0  0  0  0  0  0
   39.8430   33.9680   48.5580 H   0  0  0  0  0  0  0  0  0  0  0  0
   39.7370   32.1570   46.8150 H   0  0  0  0  0  0  0  0  0  0  0  0
   33.1340   29.7230   44.4040 H   0  0  0  0  0  0  0  0  0  0  0  0
   33.5010   29.6210   45.4060 C   0  0  0  0  0  0  0  0  0  0  0  0
   34.6720   29.6020   44.9470 O   0  0  0  0  0  0  0  0  0  0  0  0
   32.9890   29.5350   46.7320 N   0  0  0  0  0  0  0  0  0  0  0  0
   31.9500   29.5920   46.6530 H   0  0  0  0  0  0  0  0  0  0  0  0
  2  7  1  0  0  0  0
  2  1  1  0  0  0  0
  3  2  2  0  0  0  0
  4  5  2  0  0  0  0
  4  3  1  0  0  0  0
  5  6  1  0  0  0  0
  6  7  2  0  0  0  0
  7 10  1  0  0  0  0
  8  4  1  0  0  0  0
  9  6  1  0  0  0  0
 11 16  1  0  0  0  0
 11 17  1  0  0  0  0
 12 11  2  0  0  0  0
 13 14  2  0  0  0  0
 13 12  1  0  0  0  0
 14 15  1  0  0  0  0
 15  3  1  0  0  0  0
 15 16  2  0  0  0  0
 18 12  1  0  0  0  0
 19 13  1  0  0  0  0
 20 21  1  0  0  0  0
 21 23  1  0  0  0  0
 22 21  2  0  0  0  0
 23  5  1  0  0  0  0
 24 23  1  0  0  0  0
M  END
>  <minimizedAffinity>
-5.43288136

>  <minimizedRMSD>
0.188669756

$$$$
