
 OpenBabel03272510153D

 24 25  0  0  0  0  0  0  0  0999 V2000
   37.0480   29.6820   51.2510 Br  0  0  0  0  0  0  0  0  0  0  0  0
   35.9620   29.3770   49.6980 C   0  0  0  0  0  0  0  0  0  0  0  0
   36.1380   30.1410   48.5620 C   0  0  0  0  0  0  0  0  0  0  0  0
   35.3200   29.8630   47.4820 C   0  0  0  0  0  0  0  0  0  0  0  0
   34.3550   28.8680   47.5090 C   0  0  0  0  0  0  0  0  0  0  0  0
   34.2200   28.1370   48.6610 C   0  0  0  0  0  0  0  0  0  0  0  0
   35.0230   28.3930   49.7510 C   0  0  0  0  0  0  0  0  0  0  0  0
   35.5020   30.4950   46.6140 H   0  0  0  0  0  0  0  0  0  0  0  0
   33.4580   27.3720   48.6380 H   0  0  0  0  0  0  0  0  0  0  0  0
   34.8290   27.7580   50.6010 H   0  0  0  0  0  0  0  0  0  0  0  0
   37.9880   33.1740   49.4030 C   0  0  0  0  0  0  0  0  0  0  0  0
   39.0460   33.2000   48.4400 C   0  0  0  0  0  0  0  0  0  0  0  0
   39.0870   32.1630   47.5250 C   0  0  0  0  0  0  0  0  0  0  0  0
   38.1350   31.1810   47.5830 N   0  0  0  0  0  0  0  0  0  0  0  0
   37.1500   31.1960   48.5120 C   0  0  0  0  0  0  0  0  0  0  0  0
   37.0780   32.1900   49.4180 N   0  0  0  0  0  0  0  0  0  0  0  0
   37.9530   33.9860   50.1200 H   0  0  0  0  0  0  0  0  0  0  0  0
   39.7780   33.9990   48.4340 H   0  0  0  0  0  0  0  0  0  0  0  0
   39.8680   32.1190   46.7630 H   0  0  0  0  0  0  0  0  0  0  0  0
   32.1470   30.1070   45.1150 H   0  0  0  0  0  0  0  0  0  0  0  0
   32.8090   29.8410   45.9130 C   0  0  0  0  0  0  0  0  0  0  0  0
   32.5900   30.9640   46.4350 O   0  0  0  0  0  0  0  0  0  0  0  0
   33.6240   28.7420   46.3080 N   0  0  0  0  0  0  0  0  0  0  0  0
   33.5080   28.0080   45.5750 H   0  0  0  0  0  0  0  0  0  0  0  0
  2  7  1  0  0  0  0
  2  1  1  0  0  0  0
  3  2  2  0  0  0  0
  4  5  2  0  0  0  0
  4  3  1  0  0  0  0
  5  6  1  0  0  0  0
  6  7  2  0  0  0  0
  7 10  1  0  0  0  0
  8  4  1  0  0  0  0
  9  6  1  0  0  0  0
 11 16  1  0  0  0  0
 11 17  1  0  0  0  0
 12 11  2  0  0  0  0
 13 14  2  0  0  0  0
 13 12  1  0  0  0  0
 14 15  1  0  0  0  0
 15  3  1  0  0  0  0
 15 16  2  0  0  0  0
 18 12  1  0  0  0  0
 19 13  1  0  0  0  0
 20 21  1  0  0  0  0
 21 23  1  0  0  0  0
 21 22  2  0  0  0  0
 23  5  1  0  0  0  0
 24 23  1  0  0  0  0
M  END
>  <minimizedAffinity>
-5.58840179

>  <minimizedRMSD>
0.595353663

$$$$
