
 OpenBabel03272510153D

 24 25  0  0  0  0  0  0  0  0999 V2000
   37.4650   29.2320   50.9260 Br  0  0  0  0  0  0  0  0  0  0  0  0
   36.0120   29.3090   49.6740 C   0  0  0  0  0  0  0  0  0  0  0  0
   35.9810   30.2850   48.6990 C   0  0  0  0  0  0  0  0  0  0  0  0
   34.9030   30.2780   47.8330 C   0  0  0  0  0  0  0  0  0  0  0  0
   33.8830   29.3440   47.9140 C   0  0  0  0  0  0  0  0  0  0  0  0
   33.9600   28.3930   48.9000 C   0  0  0  0  0  0  0  0  0  0  0  0
   35.0230   28.3790   49.7760 C   0  0  0  0  0  0  0  0  0  0  0  0
   34.9310   31.0690   47.0850 H   0  0  0  0  0  0  0  0  0  0  0  0
   33.1450   27.6860   48.9270 H   0  0  0  0  0  0  0  0  0  0  0  0
   34.9800   27.5890   50.5100 H   0  0  0  0  0  0  0  0  0  0  0  0
   38.0320   33.2180   49.4260 C   0  0  0  0  0  0  0  0  0  0  0  0
   39.0500   33.1730   48.4210 C   0  0  0  0  0  0  0  0  0  0  0  0
   38.9950   32.1250   47.5190 C   0  0  0  0  0  0  0  0  0  0  0  0
   37.9920   31.2000   47.6290 N   0  0  0  0  0  0  0  0  0  0  0  0
   37.0480   31.2810   48.5950 C   0  0  0  0  0  0  0  0  0  0  0  0
   37.0680   32.2870   49.4900 N   0  0  0  0  0  0  0  0  0  0  0  0
   38.0720   34.0380   50.1330 H   0  0  0  0  0  0  0  0  0  0  0  0
   39.8240   33.9290   48.3750 H   0  0  0  0  0  0  0  0  0  0  0  0
   39.7410   32.0290   46.7270 H   0  0  0  0  0  0  0  0  0  0  0  0
   32.5110   28.6890   44.7780 H   0  0  0  0  0  0  0  0  0  0  0  0
   33.0310   28.8120   45.7060 C   0  0  0  0  0  0  0  0  0  0  0  0
   33.9290   28.0420   45.2750 O   0  0  0  0  0  0  0  0  0  0  0  0
   32.8740   29.5050   46.9400 N   0  0  0  0  0  0  0  0  0  0  0  0
   31.9770   30.0330   46.8710 H   0  0  0  0  0  0  0  0  0  0  0  0
  2  7  1  0  0  0  0
  2  1  1  0  0  0  0
  3  2  2  0  0  0  0
  4  5  2  0  0  0  0
  4  3  1  0  0  0  0
  5  6  1  0  0  0  0
  6  9  1  0  0  0  0
  6  7  2  0  0  0  0
  7 10  1  0  0  0  0
  8  4  1  0  0  0  0
 11 16  1  0  0  0  0
 11 17  1  0  0  0  0
 12 11  2  0  0  0  0
 13 14  2  0  0  0  0
 13 12  1  0  0  0  0
 14 15  1  0  0  0  0
 15  3  1  0  0  0  0
 15 16  2  0  0  0  0
 18 12  1  0  0  0  0
 19 13  1  0  0  0  0
 20 21  1  0  0  0  0
 21 23  1  0  0  0  0
 22 21  2  0  0  0  0
 23  5  1  0  0  0  0
 24 23  1  0  0  0  0
M  END
>  <minimizedAffinity>
-5.45410204

>  <minimizedRMSD>
0.655236244

$$$$
