
 OpenBabel03272504353D

 39 41  0  0  0  0  0  0  0  0999 V2000
   33.7410   28.5330   47.5210 C   0  0  0  0  0  0  0  0  0  0  0  0
   33.8980   28.3370   46.1580 C   0  0  0  0  0  0  0  0  0  0  0  0
   32.7910   28.0290   45.3780 C   0  0  0  0  0  0  0  0  0  0  0  0
   31.5890   27.9340   45.9960 N   0  0  0  0  0  0  0  0  0  0  0  0
   31.4680   28.1320   47.3370 C   0  0  0  0  0  0  0  0  0  0  0  0
   32.5280   28.4290   48.1000 N   0  0  0  0  0  0  0  0  0  0  0  0
   34.8690   28.4220   45.7060 H   0  0  0  0  0  0  0  0  0  0  0  0
   32.9030   27.8770   44.3270 H   0  0  0  0  0  0  0  0  0  0  0  0
   34.8410   28.8490   48.3640 N   0  0  0  0  0  0  0  0  0  0  0  0
   34.9570   28.3130   49.7190 C   0  0  0  0  0  0  0  0  0  0  0  0
   35.3790   29.3120   50.7430 C   0  0  0  0  0  0  0  0  0  0  0  0
   36.1890   30.3740   50.3200 N   0  0  0  0  0  0  0  0  0  0  0  0
   35.8480   30.8820   49.0050 C   0  0  0  0  0  0  0  0  0  0  0  0
   35.9540   29.6820   48.0780 C   0  0  0  0  0  0  0  0  0  0  0  0
   34.0330   27.7940   49.9780 H   0  0  0  0  0  0  0  0  0  0  0  0
   35.7680   27.5500   49.6450 H   0  0  0  0  0  0  0  0  0  0  0  0
   35.9290   28.7540   51.5510 H   0  0  0  0  0  0  0  0  0  0  0  0
   34.4630   29.6850   51.2500 H   0  0  0  0  0  0  0  0  0  0  0  0
   37.2040   30.2970   50.4760 H   0  0  0  0  0  0  0  0  0  0  0  0
   34.8120   31.2640   49.0030 H   0  0  0  0  0  0  0  0  0  0  0  0
   36.5920   31.6300   48.6790 H   0  0  0  0  0  0  0  0  0  0  0  0
   36.8920   29.1300   48.2500 H   0  0  0  0  0  0  0  0  0  0  0  0
   35.9000   30.0340   47.0290 H   0  0  0  0  0  0  0  0  0  0  0  0
   30.1530   28.0190   47.9590 C   0  0  0  0  0  0  0  0  0  0  0  0
   30.0240   27.5120   49.2280 C   0  0  0  0  0  0  0  0  0  0  0  0
   28.8040   27.3830   49.8650 C   0  0  0  0  0  0  0  0  0  0  0  0
   27.7220   27.7920   49.1510 N   0  0  0  0  0  0  0  0  0  0  0  0
   27.8530   28.2890   47.9050 C   0  0  0  0  0  0  0  0  0  0  0  0
   29.0550   28.4140   47.2840 N   0  0  0  0  0  0  0  0  0  0  0  0
   30.9060   27.1950   49.7710 H   0  0  0  0  0  0  0  0  0  0  0  0
   27.4610   26.6180   52.8750 H   0  0  0  0  0  0  0  0  0  0  0  0
   27.4740   27.0530   51.8670 C   0  0  0  0  0  0  0  0  0  0  0  0
   26.4710   27.6510   51.4440 O   0  0  0  0  0  0  0  0  0  0  0  0
   28.6840   26.8580   51.1770 N   0  0  0  0  0  0  0  0  0  0  0  0
   29.4960   26.3540   51.5670 H   0  0  0  0  0  0  0  0  0  0  0  0
   26.6440   28.7190   47.1710 C   0  0  0  0  0  0  0  0  0  0  0  0
   26.7770   30.0100   46.7080 F   0  0  0  0  0  0  0  0  0  0  0  0
   25.5520   28.6750   48.0390 F   0  0  0  0  0  0  0  0  0  0  0  0
   26.3700   27.8220   46.1620 F   0  0  0  0  0  0  0  0  0  0  0  0
  1  6  1  0  0  0  0
  1  9  1  0  0  0  0
  2  1  2  0  0  0  0
  3  4  2  0  0  0  0
  3  2  1  0  0  0  0
  4  5  1  0  0  0  0
  5 24  1  0  0  0  0
  5  6  2  0  0  0  0
  7  2  1  0  0  0  0
  8  3  1  0  0  0  0
  9 10  1  0  0  0  0
 10 15  1  0  0  0  0
 10 11  1  0  0  0  0
 11 18  1  0  0  0  0
 11 17  1  0  0  0  0
 12 19  1  0  0  0  0
 12 11  1  0  0  0  0
 13 12  1  0  0  0  0
 14 22  1  0  0  0  0
 14  9  1  0  0  0  0
 14 13  1  0  0  0  0
 16 10  1  0  0  0  0
 20 13  1  0  0  0  0
 21 13  1  0  0  0  0
 23 14  1  0  0  0  0
 24 25  1  0  0  0  0
 25 30  1  0  0  0  0
 25 26  2  0  0  0  0
 26 34  1  0  0  0  0
 27 26  1  0  0  0  0
 28 27  2  0  0  0  0
 29 28  1  0  0  0  0
 29 24  2  0  0  0  0
 32 31  1  0  0  0  0
 33 32  2  0  0  0  0
 34 35  1  0  0  0  0
 34 32  1  0  0  0  0
 36 28  1  0  0  0  0
 36 38  1  0  0  0  0
 37 36  1  0  0  0  0
 39 36  1  0  0  0  0
M  END
>  <minimizedAffinity>
-6.10776186

>  <minimizedRMSD>
1.81540346

$$$$
