
 OpenBabel03272510183D

 24 25  0  0  0  0  0  0  0  0999 V2000
   38.5250   27.1340   35.6700 Br  0  0  0  0  0  0  0  0  0  0  0  0
   38.2150   25.7990   34.3260 C   0  0  0  0  0  0  0  0  0  0  0  0
   38.2260   24.4590   34.6570 C   0  0  0  0  0  0  0  0  0  0  0  0
   37.9950   23.5560   33.6360 C   0  0  0  0  0  0  0  0  0  0  0  0
   37.7580   23.9470   32.3280 C   0  0  0  0  0  0  0  0  0  0  0  0
   37.7560   25.2900   32.0500 C   0  0  0  0  0  0  0  0  0  0  0  0
   37.9840   26.2120   33.0490 C   0  0  0  0  0  0  0  0  0  0  0  0
   38.0150   22.5140   33.9530 H   0  0  0  0  0  0  0  0  0  0  0  0
   37.5670   25.5510   31.0200 H   0  0  0  0  0  0  0  0  0  0  0  0
   37.9600   27.2380   32.7180 H   0  0  0  0  0  0  0  0  0  0  0  0
   39.9080   23.0090   37.5550 C   0  0  0  0  0  0  0  0  0  0  0  0
   38.9670   23.1930   38.6170 C   0  0  0  0  0  0  0  0  0  0  0  0
   37.7740   23.8160   38.2960 C   0  0  0  0  0  0  0  0  0  0  0  0
   37.5550   24.2190   37.0060 N   0  0  0  0  0  0  0  0  0  0  0  0
   38.4740   24.0240   36.0310 C   0  0  0  0  0  0  0  0  0  0  0  0
   39.6470   23.4210   36.3060 N   0  0  0  0  0  0  0  0  0  0  0  0
   40.8430   22.5210   37.8040 H   0  0  0  0  0  0  0  0  0  0  0  0
   39.1850   22.8580   39.6230 H   0  0  0  0  0  0  0  0  0  0  0  0
   37.0110   23.9900   39.0570 H   0  0  0  0  0  0  0  0  0  0  0  0
   35.7000   21.5790   30.8110 H   0  0  0  0  0  0  0  0  0  0  0  0
   36.2250   22.3460   31.3420 C   0  0  0  0  0  0  0  0  0  0  0  0
   35.1490   22.6470   31.9190 O   0  0  0  0  0  0  0  0  0  0  0  0
   37.5450   22.8750   31.4350 N   0  0  0  0  0  0  0  0  0  0  0  0
   38.1330   22.3220   30.7730 H   0  0  0  0  0  0  0  0  0  0  0  0
  2  3  1  0  0  0  0
  2  1  1  0  0  0  0
  3 15  1  0  0  0  0
  4  8  1  0  0  0  0
  4  3  2  0  0  0  0
  5  4  1  0  0  0  0
  6  5  2  0  0  0  0
  6  7  1  0  0  0  0
  7  2  2  0  0  0  0
  9  6  1  0  0  0  0
 10  7  1  0  0  0  0
 11 17  1  0  0  0  0
 11 12  1  0  0  0  0
 12 18  1  0  0  0  0
 13 12  2  0  0  0  0
 13 19  1  0  0  0  0
 14 13  1  0  0  0  0
 15 16  1  0  0  0  0
 15 14  2  0  0  0  0
 16 11  2  0  0  0  0
 20 21  1  0  0  0  0
 21 23  1  0  0  0  0
 21 22  2  0  0  0  0
 23  5  1  0  0  0  0
 24 23  1  0  0  0  0
M  END
>  <minimizedAffinity>
-4.4204278

$$$$

 OpenBabel03272510183D

 24 25  0  0  0  0  0  0  0  0999 V2000
   37.3830   24.0780   31.8220 Br  0  0  0  0  0  0  0  0  0  0  0  0
   37.9480   23.6560   33.6070 C   0  0  0  0  0  0  0  0  0  0  0  0
   37.7450   22.3920   34.1230 C   0  0  0  0  0  0  0  0  0  0  0  0
   38.1780   22.1620   35.4160 C   0  0  0  0  0  0  0  0  0  0  0  0
   38.7920   23.1370   36.1860 C   0  0  0  0  0  0  0  0  0  0  0  0
   38.9710   24.3770   35.6280 C   0  0  0  0  0  0  0  0  0  0  0  0
   38.5490   24.6330   34.3410 C   0  0  0  0  0  0  0  0  0  0  0  0
   37.9930   21.1490   35.7710 H   0  0  0  0  0  0  0  0  0  0  0  0
   39.4530   25.1060   36.2610 H   0  0  0  0  0  0  0  0  0  0  0  0
   38.7400   25.6400   34.0060 H   0  0  0  0  0  0  0  0  0  0  0  0
   37.3090   19.6390   31.7640 C   0  0  0  0  0  0  0  0  0  0  0  0
   35.9040   19.3710   31.8170 C   0  0  0  0  0  0  0  0  0  0  0  0
   35.1480   20.1540   32.6700 C   0  0  0  0  0  0  0  0  0  0  0  0
   35.7660   21.1270   33.4090 N   0  0  0  0  0  0  0  0  0  0  0  0
   37.0990   21.3480   33.3280 C   0  0  0  0  0  0  0  0  0  0  0  0
   37.8670   20.6060   32.5080 N   0  0  0  0  0  0  0  0  0  0  0  0
   37.9040   19.0280   31.0960 H   0  0  0  0  0  0  0  0  0  0  0  0
   35.4610   18.5890   31.2130 H   0  0  0  0  0  0  0  0  0  0  0  0
   34.0710   20.0040   32.7610 H   0  0  0  0  0  0  0  0  0  0  0  0
   38.6160   23.3500   39.6600 H   0  0  0  0  0  0  0  0  0  0  0  0
   38.5850   23.3850   38.5900 C   0  0  0  0  0  0  0  0  0  0  0  0
   37.7740   24.3420   38.6700 O   0  0  0  0  0  0  0  0  0  0  0  0
   39.1600   22.7050   37.4780 N   0  0  0  0  0  0  0  0  0  0  0  0
   39.7850   21.9680   37.8720 H   0  0  0  0  0  0  0  0  0  0  0  0
  1  2  1  0  0  0  0
  2  3  2  0  0  0  0
  2  7  1  0  0  0  0
  3  4  1  0  0  0  0
  4  8  1  0  0  0  0
  4  5  2  0  0  0  0
  5 23  1  0  0  0  0
  6  5  1  0  0  0  0
  6  9  1  0  0  0  0
  7  6  2  0  0  0  0
 10  7  1  0  0  0  0
 11 12  2  0  0  0  0
 11 16  1  0  0  0  0
 12 13  1  0  0  0  0
 13 19  1  0  0  0  0
 13 14  2  0  0  0  0
 15 14  1  0  0  0  0
 15  3  1  0  0  0  0
 16 15  2  0  0  0  0
 17 11  1  0  0  0  0
 18 12  1  0  0  0  0
 21 22  2  0  0  0  0
 21 20  1  0  0  0  0
 23 24  1  0  0  0  0
 23 21  1  0  0  0  0
M  END
>  <minimizedAffinity>
-4.37504768

$$$$

 OpenBabel03272510183D

 24 25  0  0  0  0  0  0  0  0999 V2000
   43.7840   23.9630   35.1290 Br  0  0  0  0  0  0  0  0  0  0  0  0
   42.0550   23.5180   35.8340 C   0  0  0  0  0  0  0  0  0  0  0  0
   40.9210   24.1300   35.3410 C   0  0  0  0  0  0  0  0  0  0  0  0
   39.7110   23.7590   35.8980 C   0  0  0  0  0  0  0  0  0  0  0  0
   39.6090   22.8160   36.9080 C   0  0  0  0  0  0  0  0  0  0  0  0
   40.7650   22.2350   37.3640 C   0  0  0  0  0  0  0  0  0  0  0  0
   41.9840   22.5880   36.8260 C   0  0  0  0  0  0  0  0  0  0  0  0
   38.8510   24.2730   35.4720 H   0  0  0  0  0  0  0  0  0  0  0  0
   40.6400   21.5060   38.1500 H   0  0  0  0  0  0  0  0  0  0  0  0
   42.8250   22.0690   37.2590 H   0  0  0  0  0  0  0  0  0  0  0  0
   40.9420   25.6000   31.9990 C   0  0  0  0  0  0  0  0  0  0  0  0
   41.1620   26.9920   32.2450 C   0  0  0  0  0  0  0  0  0  0  0  0
   41.2970   27.3810   33.5660 C   0  0  0  0  0  0  0  0  0  0  0  0
   41.2150   26.4370   34.5540 N   0  0  0  0  0  0  0  0  0  0  0  0
   41.0060   25.1280   34.2760 C   0  0  0  0  0  0  0  0  0  0  0  0
   40.8700   24.7120   33.0020 N   0  0  0  0  0  0  0  0  0  0  0  0
   40.8360   25.2920   30.9650 H   0  0  0  0  0  0  0  0  0  0  0  0
   41.2190   27.7020   31.4300 H   0  0  0  0  0  0  0  0  0  0  0  0
   41.4660   28.4280   33.8270 H   0  0  0  0  0  0  0  0  0  0  0  0
   36.8150   23.6200   38.8290 H   0  0  0  0  0  0  0  0  0  0  0  0
   37.7300   23.4780   38.2930 C   0  0  0  0  0  0  0  0  0  0  0  0
   38.1910   24.5010   38.8610 O   0  0  0  0  0  0  0  0  0  0  0  0
   38.2870   22.5750   37.3420 N   0  0  0  0  0  0  0  0  0  0  0  0
   37.5500   21.8640   37.1410 H   0  0  0  0  0  0  0  0  0  0  0  0
  1  2  1  0  0  0  0
  2  7  1  0  0  0  0
  3  2  2  0  0  0  0
  3  4  1  0  0  0  0
  4  5  2  0  0  0  0
  5 23  1  0  0  0  0
  5  6  1  0  0  0  0
  6  9  1  0  0  0  0
  7 10  1  0  0  0  0
  7  6  2  0  0  0  0
  8  4  1  0  0  0  0
 11 12  2  0  0  0  0
 11 16  1  0  0  0  0
 12 13  1  0  0  0  0
 13 19  1  0  0  0  0
 13 14  2  0  0  0  0
 15 14  1  0  0  0  0
 15  3  1  0  0  0  0
 16 15  2  0  0  0  0
 17 11  1  0  0  0  0
 18 12  1  0  0  0  0
 21 20  1  0  0  0  0
 21 22  2  0  0  0  0
 23 21  1  0  0  0  0
 24 23  1  0  0  0  0
M  END
>  <minimizedAffinity>
-4.30737829

$$$$

 OpenBabel03272510183D

 24 25  0  0  0  0  0  0  0  0999 V2000
   40.5720   24.7060   32.2640 Br  0  0  0  0  0  0  0  0  0  0  0  0
   39.9310   24.0270   33.9410 C   0  0  0  0  0  0  0  0  0  0  0  0
   38.5860   23.7830   34.1280 C   0  0  0  0  0  0  0  0  0  0  0  0
   38.1990   23.2940   35.3630 C   0  0  0  0  0  0  0  0  0  0  0  0
   39.0990   23.0490   36.3870 C   0  0  0  0  0  0  0  0  0  0  0  0
   40.4260   23.3070   36.1520 C   0  0  0  0  0  0  0  0  0  0  0  0
   40.8370   23.7950   34.9310 C   0  0  0  0  0  0  0  0  0  0  0  0
   37.1280   23.1200   35.4540 H   0  0  0  0  0  0  0  0  0  0  0  0
   41.0920   23.1020   36.9770 H   0  0  0  0  0  0  0  0  0  0  0  0
   41.9010   23.9610   34.8570 H   0  0  0  0  0  0  0  0  0  0  0  0
   36.3420   23.1890   31.3100 C   0  0  0  0  0  0  0  0  0  0  0  0
   35.7950   24.4830   31.0370 C   0  0  0  0  0  0  0  0  0  0  0  0
   36.2200   25.5250   31.8410 C   0  0  0  0  0  0  0  0  0  0  0  0
   37.1250   25.2760   32.8380 N   0  0  0  0  0  0  0  0  0  0  0  0
   37.6190   24.0350   33.0600 C   0  0  0  0  0  0  0  0  0  0  0  0
   37.2280   22.9950   32.2980 N   0  0  0  0  0  0  0  0  0  0  0  0
   36.0110   22.3700   30.6810 H   0  0  0  0  0  0  0  0  0  0  0  0
   35.0800   24.6310   30.2370 H   0  0  0  0  0  0  0  0  0  0  0  0
   35.8430   26.5380   31.6900 H   0  0  0  0  0  0  0  0  0  0  0  0
   37.5730   23.5130   39.4860 H   0  0  0  0  0  0  0  0  0  0  0  0
   38.0470   23.5010   38.5260 C   0  0  0  0  0  0  0  0  0  0  0  0
   38.0570   24.7590   38.5440 O   0  0  0  0  0  0  0  0  0  0  0  0
   38.5070   22.5530   37.5690 N   0  0  0  0  0  0  0  0  0  0  0  0
   38.2980   21.6090   37.9620 H   0  0  0  0  0  0  0  0  0  0  0  0
  1  2  1  0  0  0  0
  2  3  2  0  0  0  0
  2  7  1  0  0  0  0
  3  4  1  0  0  0  0
  4  8  1  0  0  0  0
  4  5  2  0  0  0  0
  5 23  1  0  0  0  0
  6  5  1  0  0  0  0
  6  9  1  0  0  0  0
  7  6  2  0  0  0  0
 10  7  1  0  0  0  0
 11 16  1  0  0  0  0
 12 11  2  0  0  0  0
 12 13  1  0  0  0  0
 13 14  2  0  0  0  0
 14 15  1  0  0  0  0
 15  3  1  0  0  0  0
 16 15  2  0  0  0  0
 17 11  1  0  0  0  0
 18 12  1  0  0  0  0
 19 13  1  0  0  0  0
 21 22  2  0  0  0  0
 21 20  1  0  0  0  0
 23 24  1  0  0  0  0
 23 21  1  0  0  0  0
M  END
>  <minimizedAffinity>
-4.30404282

$$$$

 OpenBabel03272510183D

 24 25  0  0  0  0  0  0  0  0999 V2000
   38.5160   27.3520   36.0280 Br  0  0  0  0  0  0  0  0  0  0  0  0
   37.8340   26.6480   34.3770 C   0  0  0  0  0  0  0  0  0  0  0  0
   37.9610   25.3050   34.0850 C   0  0  0  0  0  0  0  0  0  0  0  0
   37.4460   24.8710   32.8780 C   0  0  0  0  0  0  0  0  0  0  0  0
   36.8230   25.7220   31.9790 C   0  0  0  0  0  0  0  0  0  0  0  0
   36.7210   27.0480   32.3160 C   0  0  0  0  0  0  0  0  0  0  0  0
   37.2270   27.5060   33.5130 C   0  0  0  0  0  0  0  0  0  0  0  0
   37.5740   23.8040   32.7000 H   0  0  0  0  0  0  0  0  0  0  0  0
   36.2290   27.6750   31.5880 H   0  0  0  0  0  0  0  0  0  0  0  0
   37.0910   28.5650   33.6730 H   0  0  0  0  0  0  0  0  0  0  0  0
   38.4360   22.9920   36.8710 C   0  0  0  0  0  0  0  0  0  0  0  0
   39.8250   22.6570   36.7970 C   0  0  0  0  0  0  0  0  0  0  0  0
   40.5580   23.2440   35.7800 C   0  0  0  0  0  0  0  0  0  0  0  0
   39.9330   24.0990   34.9120 N   0  0  0  0  0  0  0  0  0  0  0  0
   38.6150   24.3890   35.0200 C   0  0  0  0  0  0  0  0  0  0  0  0
   37.8700   23.8370   35.9960 N   0  0  0  0  0  0  0  0  0  0  0  0
   37.8590   22.5340   37.6660 H   0  0  0  0  0  0  0  0  0  0  0  0
   40.2740   21.9740   37.5070 H   0  0  0  0  0  0  0  0  0  0  0  0
   41.6220   23.0320   35.6640 H   0  0  0  0  0  0  0  0  0  0  0  0
   34.2700   24.6870   29.8450 H   0  0  0  0  0  0  0  0  0  0  0  0
   34.9600   25.0550   30.5760 C   0  0  0  0  0  0  0  0  0  0  0  0
   33.9840   25.4980   31.2350 O   0  0  0  0  0  0  0  0  0  0  0  0
   36.3650   25.0860   30.8050 N   0  0  0  0  0  0  0  0  0  0  0  0
   36.8080   24.5960   29.9970 H   0  0  0  0  0  0  0  0  0  0  0  0
  2  1  1  0  0  0  0
  3  2  1  0  0  0  0
  3 15  1  0  0  0  0
  4  3  2  0  0  0  0
  5  6  2  0  0  0  0
  5  4  1  0  0  0  0
  6  7  1  0  0  0  0
  7 10  1  0  0  0  0
  7  2  2  0  0  0  0
  8  4  1  0  0  0  0
  9  6  1  0  0  0  0
 11 17  1  0  0  0  0
 12 11  1  0  0  0  0
 12 18  1  0  0  0  0
 13 12  2  0  0  0  0
 14 15  2  0  0  0  0
 14 13  1  0  0  0  0
 15 16  1  0  0  0  0
 16 11  2  0  0  0  0
 19 13  1  0  0  0  0
 20 21  1  0  0  0  0
 21 23  1  0  0  0  0
 21 22  2  0  0  0  0
 23  5  1  0  0  0  0
 24 23  1  0  0  0  0
M  END
>  <minimizedAffinity>
-4.28972244

$$$$

 OpenBabel03272510183D

 24 25  0  0  0  0  0  0  0  0999 V2000
   40.5790   26.6820   32.9940 Br  0  0  0  0  0  0  0  0  0  0  0  0
   39.8440   25.4660   34.2860 C   0  0  0  0  0  0  0  0  0  0  0  0
   38.4820   25.4190   34.5040 C   0  0  0  0  0  0  0  0  0  0  0  0
   38.0260   24.5190   35.4490 C   0  0  0  0  0  0  0  0  0  0  0  0
   38.8730   23.6870   36.1630 C   0  0  0  0  0  0  0  0  0  0  0  0
   40.2190   23.7720   35.9090 C   0  0  0  0  0  0  0  0  0  0  0  0
   40.7000   24.6600   34.9720 C   0  0  0  0  0  0  0  0  0  0  0  0
   36.9440   24.5240   35.5800 H   0  0  0  0  0  0  0  0  0  0  0  0
   40.8430   23.1060   36.4870 H   0  0  0  0  0  0  0  0  0  0  0  0
   41.7720   24.6420   34.8550 H   0  0  0  0  0  0  0  0  0  0  0  0
   36.3890   28.2900   33.6610 C   0  0  0  0  0  0  0  0  0  0  0  0
   35.8470   27.9470   32.3820 C   0  0  0  0  0  0  0  0  0  0  0  0
   36.2240   26.7280   31.8480 C   0  0  0  0  0  0  0  0  0  0  0  0
   37.0800   25.9250   32.5530 N   0  0  0  0  0  0  0  0  0  0  0  0
   37.5690   26.2880   33.7620 C   0  0  0  0  0  0  0  0  0  0  0  0
   37.2230   27.4680   34.3130 N   0  0  0  0  0  0  0  0  0  0  0  0
   36.0950   29.2450   34.0820 H   0  0  0  0  0  0  0  0  0  0  0  0
   35.1740   28.6170   31.8620 H   0  0  0  0  0  0  0  0  0  0  0  0
   35.8500   26.4030   30.8750 H   0  0  0  0  0  0  0  0  0  0  0  0
   37.4110   23.0710   39.2650 H   0  0  0  0  0  0  0  0  0  0  0  0
   37.8840   23.3820   38.3560 C   0  0  0  0  0  0  0  0  0  0  0  0
   38.0650   24.5160   38.8690 O   0  0  0  0  0  0  0  0  0  0  0  0
   38.2140   22.8410   37.0800 N   0  0  0  0  0  0  0  0  0  0  0  0
   37.8760   21.8540   37.0800 H   0  0  0  0  0  0  0  0  0  0  0  0
  1  2  1  0  0  0  0
  2  3  2  0  0  0  0
  2  7  1  0  0  0  0
  3  4  1  0  0  0  0
  4  8  1  0  0  0  0
  4  5  2  0  0  0  0
  5 23  1  0  0  0  0
  6  5  1  0  0  0  0
  6  9  1  0  0  0  0
  7  6  2  0  0  0  0
 10  7  1  0  0  0  0
 11 17  1  0  0  0  0
 11 16  1  0  0  0  0
 12 11  2  0  0  0  0
 13 12  1  0  0  0  0
 13 14  2  0  0  0  0
 14 15  1  0  0  0  0
 15 16  2  0  0  0  0
 15  3  1  0  0  0  0
 18 12  1  0  0  0  0
 19 13  1  0  0  0  0
 21 22  2  0  0  0  0
 21 20  1  0  0  0  0
 23 24  1  0  0  0  0
 23 21  1  0  0  0  0
M  END
>  <minimizedAffinity>
-4.28042078

$$$$

 OpenBabel03272510183D

 24 25  0  0  0  0  0  0  0  0999 V2000
   41.3740   22.4600   33.0960 Br  0  0  0  0  0  0  0  0  0  0  0  0
   40.6120   22.5530   34.8560 C   0  0  0  0  0  0  0  0  0  0  0  0
   39.2420   22.5730   35.0240 C   0  0  0  0  0  0  0  0  0  0  0  0
   38.7670   22.6410   36.3200 C   0  0  0  0  0  0  0  0  0  0  0  0
   39.6030   22.6870   37.4240 C   0  0  0  0  0  0  0  0  0  0  0  0
   40.9570   22.6640   37.2050 C   0  0  0  0  0  0  0  0  0  0  0  0
   41.4570   22.5970   35.9220 C   0  0  0  0  0  0  0  0  0  0  0  0
   37.6800   22.6540   36.3930 H   0  0  0  0  0  0  0  0  0  0  0  0
   41.5710   22.7010   38.0920 H   0  0  0  0  0  0  0  0  0  0  0  0
   42.5340   22.5850   35.8680 H   0  0  0  0  0  0  0  0  0  0  0  0
   37.1170   23.6850   32.2710 C   0  0  0  0  0  0  0  0  0  0  0  0
   36.6400   22.4630   31.6990 C   0  0  0  0  0  0  0  0  0  0  0  0
   37.0700   21.2870   32.2870 C   0  0  0  0  0  0  0  0  0  0  0  0
   37.9140   21.3460   33.3630 N   0  0  0  0  0  0  0  0  0  0  0  0
   38.3410   22.5260   33.8730 C   0  0  0  0  0  0  0  0  0  0  0  0
   37.9420   23.6910   33.3270 N   0  0  0  0  0  0  0  0  0  0  0  0
   36.7810   24.6080   31.8130 H   0  0  0  0  0  0  0  0  0  0  0  0
   35.9730   22.4670   30.8460 H   0  0  0  0  0  0  0  0  0  0  0  0
   36.7470   20.3180   31.9020 H   0  0  0  0  0  0  0  0  0  0  0  0
   37.6220   24.3600   39.7520 H   0  0  0  0  0  0  0  0  0  0  0  0
   38.2200   23.9540   38.9630 C   0  0  0  0  0  0  0  0  0  0  0  0
   38.0660   25.0280   38.3280 O   0  0  0  0  0  0  0  0  0  0  0  0
   38.9240   22.7530   38.6600 N   0  0  0  0  0  0  0  0  0  0  0  0
   38.7860   22.1150   39.4740 H   0  0  0  0  0  0  0  0  0  0  0  0
  1  2  1  0  0  0  0
  2  3  2  0  0  0  0
  2  7  1  0  0  0  0
  3  4  1  0  0  0  0
  4  8  1  0  0  0  0
  4  5  2  0  0  0  0
  5 23  1  0  0  0  0
  6  5  1  0  0  0  0
  6  9  1  0  0  0  0
  7  6  2  0  0  0  0
 10  7  1  0  0  0  0
 11 16  1  0  0  0  0
 12 11  2  0  0  0  0
 12 13  1  0  0  0  0
 13 14  2  0  0  0  0
 14 15  1  0  0  0  0
 15  3  1  0  0  0  0
 16 15  2  0  0  0  0
 17 11  1  0  0  0  0
 18 12  1  0  0  0  0
 19 13  1  0  0  0  0
 21 20  1  0  0  0  0
 22 21  2  0  0  0  0
 23 21  1  0  0  0  0
 23 24  1  0  0  0  0
M  END
>  <minimizedAffinity>
-4.21344137

$$$$

 OpenBabel03272510183D

 24 25  0  0  0  0  0  0  0  0999 V2000
   37.9930   27.5160   35.5750 Br  0  0  0  0  0  0  0  0  0  0  0  0
   38.5570   25.7110   35.9070 C   0  0  0  0  0  0  0  0  0  0  0  0
   39.5500   25.1370   35.1400 C   0  0  0  0  0  0  0  0  0  0  0  0
   39.9040   23.8340   35.4380 C   0  0  0  0  0  0  0  0  0  0  0  0
   39.3050   23.1090   36.4570 C   0  0  0  0  0  0  0  0  0  0  0  0
   38.3230   23.7240   37.1900 C   0  0  0  0  0  0  0  0  0  0  0  0
   37.9520   25.0220   36.9140 C   0  0  0  0  0  0  0  0  0  0  0  0
   40.6920   23.4320   34.8030 H   0  0  0  0  0  0  0  0  0  0  0  0
   37.8840   23.1240   37.9730 H   0  0  0  0  0  0  0  0  0  0  0  0
   37.1710   25.4040   37.5530 H   0  0  0  0  0  0  0  0  0  0  0  0
   40.2740   26.4190   31.7990 C   0  0  0  0  0  0  0  0  0  0  0  0
   41.3960   27.2820   32.0060 C   0  0  0  0  0  0  0  0  0  0  0  0
   41.8700   27.3950   33.3010 C   0  0  0  0  0  0  0  0  0  0  0  0
   41.2550   26.6910   34.3020 N   0  0  0  0  0  0  0  0  0  0  0  0
   40.1960   25.8840   34.0610 C   0  0  0  0  0  0  0  0  0  0  0  0
   39.7070   25.7490   32.8130 N   0  0  0  0  0  0  0  0  0  0  0  0
   39.9010   26.3280   30.7850 H   0  0  0  0  0  0  0  0  0  0  0  0
   41.8480   27.8200   31.1810 H   0  0  0  0  0  0  0  0  0  0  0  0
   42.7220   28.0370   33.5310 H   0  0  0  0  0  0  0  0  0  0  0  0
   41.8660   20.8640   37.1950 H   0  0  0  0  0  0  0  0  0  0  0  0
   41.1660   21.6490   36.9930 C   0  0  0  0  0  0  0  0  0  0  0  0
   42.0690   22.4850   37.2530 O   0  0  0  0  0  0  0  0  0  0  0  0
   39.8050   21.7970   36.6020 N   0  0  0  0  0  0  0  0  0  0  0  0
   39.4210   20.8320   36.4920 H   0  0  0  0  0  0  0  0  0  0  0  0
  1  2  1  0  0  0  0
  2  7  1  0  0  0  0
  3  4  1  0  0  0  0
  3  2  2  0  0  0  0
  4  5  2  0  0  0  0
  5 23  1  0  0  0  0
  5  6  1  0  0  0  0
  6  9  1  0  0  0  0
  7  6  2  0  0  0  0
  7 10  1  0  0  0  0
  8  4  1  0  0  0  0
 11 12  2  0  0  0  0
 11 16  1  0  0  0  0
 12 13  1  0  0  0  0
 13 19  1  0  0  0  0
 13 14  2  0  0  0  0
 15 14  1  0  0  0  0
 15  3  1  0  0  0  0
 16 15  2  0  0  0  0
 17 11  1  0  0  0  0
 18 12  1  0  0  0  0
 21 20  1  0  0  0  0
 21 22  2  0  0  0  0
 23 21  1  0  0  0  0
 24 23  1  0  0  0  0
M  END
>  <minimizedAffinity>
-4.19999504

$$$$

 OpenBabel03272510183D

 24 25  0  0  0  0  0  0  0  0999 V2000
   37.4300   23.4820   37.3830 Br  0  0  0  0  0  0  0  0  0  0  0  0
   39.2350   23.3950   36.7360 C   0  0  0  0  0  0  0  0  0  0  0  0
   39.6830   24.2970   35.7920 C   0  0  0  0  0  0  0  0  0  0  0  0
   40.9950   24.1720   35.3740 C   0  0  0  0  0  0  0  0  0  0  0  0
   41.8480   23.1940   35.8610 C   0  0  0  0  0  0  0  0  0  0  0  0
   41.3550   22.3220   36.7980 C   0  0  0  0  0  0  0  0  0  0  0  0
   40.0510   22.4240   37.2320 C   0  0  0  0  0  0  0  0  0  0  0  0
   41.2950   24.9090   34.6300 H   0  0  0  0  0  0  0  0  0  0  0  0
   42.0520   21.5770   37.1510 H   0  0  0  0  0  0  0  0  0  0  0  0
   39.7710   21.6870   37.9680 H   0  0  0  0  0  0  0  0  0  0  0  0
   37.2980   26.0070   33.6190 C   0  0  0  0  0  0  0  0  0  0  0  0
   37.1270   27.2820   34.2460 C   0  0  0  0  0  0  0  0  0  0  0  0
   37.8440   27.5110   35.4060 C   0  0  0  0  0  0  0  0  0  0  0  0
   38.6670   26.5290   35.8900 N   0  0  0  0  0  0  0  0  0  0  0  0
   38.8000   25.3360   35.2640 C   0  0  0  0  0  0  0  0  0  0  0  0
   38.1170   25.0770   34.1320 N   0  0  0  0  0  0  0  0  0  0  0  0
   36.7380   25.8240   32.7100 H   0  0  0  0  0  0  0  0  0  0  0  0
   36.4640   28.0270   33.8250 H   0  0  0  0  0  0  0  0  0  0  0  0
   37.7610   28.4610   35.9370 H   0  0  0  0  0  0  0  0  0  0  0  0
   45.1880   24.1850   35.9400 H   0  0  0  0  0  0  0  0  0  0  0  0
   44.1480   23.9450   36.0290 C   0  0  0  0  0  0  0  0  0  0  0  0
   44.1220   24.5800   37.1140 O   0  0  0  0  0  0  0  0  0  0  0  0
   43.1460   23.2340   35.3090 N   0  0  0  0  0  0  0  0  0  0  0  0
   43.6080   22.8560   34.4530 H   0  0  0  0  0  0  0  0  0  0  0  0
  2  7  1  0  0  0  0
  2  1  1  0  0  0  0
  3  2  2  0  0  0  0
  4  3  1  0  0  0  0
  4  5  2  0  0  0  0
  5  6  1  0  0  0  0
  6  9  1  0  0  0  0
  6  7  2  0  0  0  0
  7 10  1  0  0  0  0
  8  4  1  0  0  0  0
 11 16  2  0  0  0  0
 11 12  1  0  0  0  0
 12 13  2  0  0  0  0
 13 14  1  0  0  0  0
 13 19  1  0  0  0  0
 15  3  1  0  0  0  0
 15 14  2  0  0  0  0
 16 15  1  0  0  0  0
 17 11  1  0  0  0  0
 18 12  1  0  0  0  0
 20 21  1  0  0  0  0
 21 22  2  0  0  0  0
 23  5  1  0  0  0  0
 23 21  1  0  0  0  0
 24 23  1  0  0  0  0
M  END
>  <minimizedAffinity>
-4.19595623

$$$$
