
 OpenBabel03272509233D

 42 45  0  0  0  0  0  0  0  0999 V2000
   37.7790   25.9120   32.0330 C   0  0  0  0  0  0  0  0  0  0  0  0
   36.7240   26.5630   31.4230 C   0  0  0  0  0  0  0  0  0  0  0  0
   35.6370   25.7350   31.1370 C   0  0  0  0  0  0  0  0  0  0  0  0
   35.6370   24.3680   31.4490 C   0  0  0  0  0  0  0  0  0  0  0  0
   36.7730   23.8080   32.0740 C   0  0  0  0  0  0  0  0  0  0  0  0
   37.8640   24.6100   32.3680 C   0  0  0  0  0  0  0  0  0  0  0  0
   34.7460   26.1300   30.6570 H   0  0  0  0  0  0  0  0  0  0  0  0
   34.8090   23.7390   31.2300 H   0  0  0  0  0  0  0  0  0  0  0  0
   36.7810   22.7500   32.3200 H   0  0  0  0  0  0  0  0  0  0  0  0
   37.0570   28.3780   29.8230 C   0  0  0  0  0  0  0  0  0  0  0  0
   36.7170   27.9500   31.1030 C   0  0  0  0  0  0  0  0  0  0  0  0
   36.3710   28.9340   32.0430 C   0  0  0  0  0  0  0  0  0  0  0  0
   36.3870   30.2380   31.6620 N   0  0  0  0  0  0  0  0  0  0  0  0
   36.7270   30.5990   30.4020 C   0  0  0  0  0  0  0  0  0  0  0  0
   37.0590   29.6760   29.4930 N   0  0  0  0  0  0  0  0  0  0  0  0
   37.3270   27.6320   29.0830 H   0  0  0  0  0  0  0  0  0  0  0  0
   36.7390   31.6480   30.0960 H   0  0  0  0  0  0  0  0  0  0  0  0
   35.9970   28.5420   33.4300 C   0  0  0  0  0  0  0  0  0  0  0  0
   35.3810   29.3080   33.9090 H   0  0  0  0  0  0  0  0  0  0  0  0
   36.9230   28.2960   34.0160 H   0  0  0  0  0  0  0  0  0  0  0  0
   35.4180   27.6030   33.3780 H   0  0  0  0  0  0  0  0  0  0  0  0
   38.9270   26.6660   32.3630 O   0  0  0  0  0  0  0  0  0  0  0  0
   38.7570   27.6120   32.6860 H   0  0  0  0  0  0  0  0  0  0  0  0
   38.9350   24.0000   32.9760 O   0  0  0  0  0  0  0  0  0  0  0  0
   39.7220   22.5980   34.8740 C   0  0  0  0  0  0  0  0  0  0  0  0
   39.0420   23.6540   34.2910 C   0  0  0  0  0  0  0  0  0  0  0  0
   38.3480   24.5210   35.1180 C   0  0  0  0  0  0  0  0  0  0  0  0
   38.3220   24.3510   36.5130 C   0  0  0  0  0  0  0  0  0  0  0  0
   37.7540   25.0080   37.5450 N   0  0  0  0  0  0  0  0  0  0  0  0
   38.0670   24.3930   38.7000 C   0  0  0  0  0  0  0  0  0  0  0  0
   38.8430   23.3340   38.3840 N   0  0  0  0  0  0  0  0  0  0  0  0
   39.0130   23.2890   37.0430 C   0  0  0  0  0  0  0  0  0  0  0  0
   39.7040   22.4240   36.2370 C   0  0  0  0  0  0  0  0  0  0  0  0
   40.2370   21.9720   34.1560 H   0  0  0  0  0  0  0  0  0  0  0  0
   37.7740   25.3840   34.8010 H   0  0  0  0  0  0  0  0  0  0  0  0
   37.1630   25.8670   37.4400 H   0  0  0  0  0  0  0  0  0  0  0  0
   37.7620   24.6790   39.7060 H   0  0  0  0  0  0  0  0  0  0  0  0
   42.5690   21.0990   37.4900 H   0  0  0  0  0  0  0  0  0  0  0  0
   41.7820   21.6970   37.0780 C   0  0  0  0  0  0  0  0  0  0  0  0
   42.0690   22.9140   36.8130 O   0  0  0  0  0  0  0  0  0  0  0  0
   40.4240   21.3190   36.7750 N   0  0  0  0  0  0  0  0  0  0  0  0
   40.1930   20.3340   36.9900 H   0  0  0  0  0  0  0  0  0  0  0  0
  1 22  1  0  0  0  0
  1  6  1  0  0  0  0
  2  1  2  0  0  0  0
  3  2  1  0  0  0  0
  3  4  2  0  0  0  0
  4  5  1  0  0  0  0
  5  9  1  0  0  0  0
  5  6  2  0  0  0  0
  6 24  1  0  0  0  0
  7  3  1  0  0  0  0
  8  4  1  0  0  0  0
 10 11  1  0  0  0  0
 11  2  1  0  0  0  0
 11 12  2  0  0  0  0
 12 18  1  0  0  0  0
 13 12  1  0  0  0  0
 14 13  2  0  0  0  0
 15 10  2  0  0  0  0
 15 14  1  0  0  0  0
 16 10  1  0  0  0  0
 17 14  1  0  0  0  0
 18 19  1  0  0  0  0
 18 20  1  0  0  0  0
 21 18  1  0  0  0  0
 22 23  1  0  0  0  0
 24 26  1  0  0  0  0
 25 33  1  0  0  0  0
 26 25  2  0  0  0  0
 26 27  1  0  0  0  0
 27 28  2  0  0  0  0
 28 32  1  0  0  0  0
 28 29  1  0  0  0  0
 29 30  1  0  0  0  0
 30 37  1  0  0  0  0
 31 30  2  0  0  0  0
 32 31  1  0  0  0  0
 33 41  1  0  0  0  0
 33 32  2  0  0  0  0
 34 25  1  0  0  0  0
 35 27  1  0  0  0  0
 36 29  1  0  0  0  0
 39 38  1  0  0  0  0
 40 39  2  0  0  0  0
 41 42  1  0  0  0  0
 41 39  1  0  0  0  0
M  END
>  <minimizedAffinity>
-6.1832943

$$$$

 OpenBabel03272509233D

 42 45  0  0  0  0  0  0  0  0999 V2000
   37.4740   27.0670   34.6090 C   0  0  0  0  0  0  0  0  0  0  0  0
   37.6920   25.7160   34.4110 C   0  0  0  0  0  0  0  0  0  0  0  0
   37.2200   25.2390   33.1870 C   0  0  0  0  0  0  0  0  0  0  0  0
   36.5850   26.0730   32.2560 C   0  0  0  0  0  0  0  0  0  0  0  0
   36.4150   27.4410   32.5640 C   0  0  0  0  0  0  0  0  0  0  0  0
   36.8760   27.9380   33.7730 C   0  0  0  0  0  0  0  0  0  0  0  0
   37.3320   24.1930   32.9160 H   0  0  0  0  0  0  0  0  0  0  0  0
   36.2250   25.7090   31.3250 H   0  0  0  0  0  0  0  0  0  0  0  0
   35.9240   28.0940   31.8490 H   0  0  0  0  0  0  0  0  0  0  0  0
   37.6240   24.3360   36.4260 C   0  0  0  0  0  0  0  0  0  0  0  0
   38.3360   24.8640   35.3520 C   0  0  0  0  0  0  0  0  0  0  0  0
   39.6920   24.5180   35.2440 C   0  0  0  0  0  0  0  0  0  0  0  0
   40.2370   23.6990   36.1810 N   0  0  0  0  0  0  0  0  0  0  0  0
   39.4960   23.2140   37.2070 C   0  0  0  0  0  0  0  0  0  0  0  0
   38.2040   23.5320   37.3260 N   0  0  0  0  0  0  0  0  0  0  0  0
   36.5740   24.5920   36.5260 H   0  0  0  0  0  0  0  0  0  0  0  0
   39.9350   22.5540   37.9600 H   0  0  0  0  0  0  0  0  0  0  0  0
   40.5100   25.0490   34.1180 C   0  0  0  0  0  0  0  0  0  0  0  0
   41.3770   24.4130   33.9190 H   0  0  0  0  0  0  0  0  0  0  0  0
   40.7900   26.1160   34.3250 H   0  0  0  0  0  0  0  0  0  0  0  0
   39.8750   25.0760   33.2150 H   0  0  0  0  0  0  0  0  0  0  0  0
   37.9170   27.6430   35.8200 O   0  0  0  0  0  0  0  0  0  0  0  0
   38.7940   27.2890   36.1840 H   0  0  0  0  0  0  0  0  0  0  0  0
   36.6790   29.2770   34.0080 O   0  0  0  0  0  0  0  0  0  0  0  0
   34.2340   29.6660   34.2560 C   0  0  0  0  0  0  0  0  0  0  0  0
   35.5720   29.8580   34.5550 C   0  0  0  0  0  0  0  0  0  0  0  0
   35.8960   30.7630   35.5520 C   0  0  0  0  0  0  0  0  0  0  0  0
   34.9100   31.4790   36.2510 C   0  0  0  0  0  0  0  0  0  0  0  0
   34.9150   32.3970   37.2380 N   0  0  0  0  0  0  0  0  0  0  0  0
   33.6510   32.7530   37.5330 C   0  0  0  0  0  0  0  0  0  0  0  0
   32.8430   32.0440   36.7150 N   0  0  0  0  0  0  0  0  0  0  0  0
   33.5960   31.2530   35.9170 C   0  0  0  0  0  0  0  0  0  0  0  0
   33.2610   30.3600   34.9350 C   0  0  0  0  0  0  0  0  0  0  0  0
   34.0710   28.9420   33.4680 H   0  0  0  0  0  0  0  0  0  0  0  0
   36.8970   31.0120   35.8880 H   0  0  0  0  0  0  0  0  0  0  0  0
   35.7840   32.7640   37.6940 H   0  0  0  0  0  0  0  0  0  0  0  0
   33.3220   33.4710   38.2820 H   0  0  0  0  0  0  0  0  0  0  0  0
   30.3910   28.5820   35.2950 H   0  0  0  0  0  0  0  0  0  0  0  0
   31.3720   29.0080   35.3320 C   0  0  0  0  0  0  0  0  0  0  0  0
   32.1980   28.4720   36.1460 O   0  0  0  0  0  0  0  0  0  0  0  0
   31.9040   30.1180   34.5800 N   0  0  0  0  0  0  0  0  0  0  0  0
   31.2340   30.5510   33.9220 H   0  0  0  0  0  0  0  0  0  0  0  0
  1 22  1  0  0  0  0
  2  1  1  0  0  0  0
  2 11  1  0  0  0  0
  3  2  2  0  0  0  0
  4  5  2  0  0  0  0
  4  3  1  0  0  0  0
  5  6  1  0  0  0  0
  6 24  1  0  0  0  0
  6  1  2  0  0  0  0
  7  3  1  0  0  0  0
  8  4  1  0  0  0  0
  9  5  1  0  0  0  0
 10 16  1  0  0  0  0
 10 15  1  0  0  0  0
 11 10  2  0  0  0  0
 12 11  1  0  0  0  0
 12 13  2  0  0  0  0
 13 14  1  0  0  0  0
 14 15  2  0  0  0  0
 14 17  1  0  0  0  0
 18 20  1  0  0  0  0
 18 12  1  0  0  0  0
 19 18  1  0  0  0  0
 21 18  1  0  0  0  0
 22 23  1  0  0  0  0
 24 26  1  0  0  0  0
 25 26  2  0  0  0  0
 25 33  1  0  0  0  0
 26 27  1  0  0  0  0
 27 35  1  0  0  0  0
 27 28  2  0  0  0  0
 28 29  1  0  0  0  0
 29 30  1  0  0  0  0
 29 36  1  0  0  0  0
 30 37  1  0  0  0  0
 31 30  2  0  0  0  0
 32 28  1  0  0  0  0
 32 31  1  0  0  0  0
 33 32  2  0  0  0  0
 34 25  1  0  0  0  0
 38 39  1  0  0  0  0
 39 40  2  0  0  0  0
 41 33  1  0  0  0  0
 41 39  1  0  0  0  0
 42 41  1  0  0  0  0
M  END
>  <minimizedAffinity>
-5.92401695

$$$$

 OpenBabel03272509233D

 42 45  0  0  0  0  0  0  0  0999 V2000
   37.5090   26.0840   32.1470 C   0  0  0  0  0  0  0  0  0  0  0  0
   36.3860   26.7840   31.7460 C   0  0  0  0  0  0  0  0  0  0  0  0
   35.3940   25.9840   31.1760 C   0  0  0  0  0  0  0  0  0  0  0  0
   35.5430   24.5980   31.0320 C   0  0  0  0  0  0  0  0  0  0  0  0
   36.7350   23.9870   31.4780 C   0  0  0  0  0  0  0  0  0  0  0  0
   37.7350   24.7600   32.0480 C   0  0  0  0  0  0  0  0  0  0  0  0
   34.4630   26.4190   30.8210 H   0  0  0  0  0  0  0  0  0  0  0  0
   34.7860   23.9910   30.5980 H   0  0  0  0  0  0  0  0  0  0  0  0
   36.8590   22.9130   31.3710 H   0  0  0  0  0  0  0  0  0  0  0  0
   35.7100   28.7260   33.0650 C   0  0  0  0  0  0  0  0  0  0  0  0
   36.2280   28.1910   31.8890 C   0  0  0  0  0  0  0  0  0  0  0  0
   36.5820   29.0920   30.8710 C   0  0  0  0  0  0  0  0  0  0  0  0
   36.4010   30.4210   31.0800 N   0  0  0  0  0  0  0  0  0  0  0  0
   35.8930   30.8870   32.2460 C   0  0  0  0  0  0  0  0  0  0  0  0
   35.5510   30.0460   33.2260 N   0  0  0  0  0  0  0  0  0  0  0  0
   35.4320   28.0460   33.8630 H   0  0  0  0  0  0  0  0  0  0  0  0
   35.7490   31.9580   32.4140 H   0  0  0  0  0  0  0  0  0  0  0  0
   37.1410   28.5830   29.5870 C   0  0  0  0  0  0  0  0  0  0  0  0
   37.7310   29.3500   29.0770 H   0  0  0  0  0  0  0  0  0  0  0  0
   36.3120   28.1750   28.9490 H   0  0  0  0  0  0  0  0  0  0  0  0
   37.7960   27.7240   29.8130 H   0  0  0  0  0  0  0  0  0  0  0  0
   38.5700   26.8060   32.7360 O   0  0  0  0  0  0  0  0  0  0  0  0
   38.3000   27.5740   33.3400 H   0  0  0  0  0  0  0  0  0  0  0  0
   38.8680   24.1010   32.4600 O   0  0  0  0  0  0  0  0  0  0  0  0
   38.1900   23.2640   34.7030 C   0  0  0  0  0  0  0  0  0  0  0  0
   39.0840   23.5260   33.6790 C   0  0  0  0  0  0  0  0  0  0  0  0
   40.4100   23.1730   33.8620 C   0  0  0  0  0  0  0  0  0  0  0  0
   40.8570   22.5660   35.0480 C   0  0  0  0  0  0  0  0  0  0  0  0
   42.0460   22.1220   35.5050 N   0  0  0  0  0  0  0  0  0  0  0  0
   41.8950   21.6140   36.7420 C   0  0  0  0  0  0  0  0  0  0  0  0
   40.5890   21.7440   37.0620 N   0  0  0  0  0  0  0  0  0  0  0  0
   39.9310   22.3260   36.0340 C   0  0  0  0  0  0  0  0  0  0  0  0
   38.6170   22.6700   35.8660 C   0  0  0  0  0  0  0  0  0  0  0  0
   37.1770   23.5710   34.4750 H   0  0  0  0  0  0  0  0  0  0  0  0
   41.2140   23.3190   33.1490 H   0  0  0  0  0  0  0  0  0  0  0  0
   42.9400   22.1740   34.9610 H   0  0  0  0  0  0  0  0  0  0  0  0
   42.6640   21.1790   37.3780 H   0  0  0  0  0  0  0  0  0  0  0  0
   36.8970   23.6970   38.6080 H   0  0  0  0  0  0  0  0  0  0  0  0
   37.5320   23.5670   37.7560 C   0  0  0  0  0  0  0  0  0  0  0  0
   38.2990   24.5460   37.4610 O   0  0  0  0  0  0  0  0  0  0  0  0
   37.6480   22.4270   36.8810 N   0  0  0  0  0  0  0  0  0  0  0  0
   37.0270   21.6360   37.1210 H   0  0  0  0  0  0  0  0  0  0  0  0
  1 22  1  0  0  0  0
  2 11  1  0  0  0  0
  2  1  2  0  0  0  0
  3  2  1  0  0  0  0
  4  3  2  0  0  0  0
  4  5  1  0  0  0  0
  5  6  2  0  0  0  0
  6  1  1  0  0  0  0
  6 24  1  0  0  0  0
  7  3  1  0  0  0  0
  8  4  1  0  0  0  0
  9  5  1  0  0  0  0
 10 15  1  0  0  0  0
 10 16  1  0  0  0  0
 11 10  2  0  0  0  0
 12 13  2  0  0  0  0
 12 11  1  0  0  0  0
 13 14  1  0  0  0  0
 14 17  1  0  0  0  0
 14 15  2  0  0  0  0
 18 21  1  0  0  0  0
 18 12  1  0  0  0  0
 19 18  1  0  0  0  0
 20 18  1  0  0  0  0
 22 23  1  0  0  0  0
 24 26  1  0  0  0  0
 25 33  1  0  0  0  0
 26 27  1  0  0  0  0
 26 25  2  0  0  0  0
 27 28  2  0  0  0  0
 28 29  1  0  0  0  0
 28 32  1  0  0  0  0
 29 30  1  0  0  0  0
 30 31  2  0  0  0  0
 30 37  1  0  0  0  0
 32 31  1  0  0  0  0
 33 32  2  0  0  0  0
 33 41  1  0  0  0  0
 34 25  1  0  0  0  0
 35 27  1  0  0  0  0
 36 29  1  0  0  0  0
 39 38  1  0  0  0  0
 40 39  2  0  0  0  0
 41 42  1  0  0  0  0
 41 39  1  0  0  0  0
M  END
>  <minimizedAffinity>
-5.83477783

$$$$

 OpenBabel03272509233D

 42 45  0  0  0  0  0  0  0  0999 V2000
   38.0310   25.5240   34.1420 C   0  0  0  0  0  0  0  0  0  0  0  0
   38.8110   25.3730   35.2730 C   0  0  0  0  0  0  0  0  0  0  0  0
   38.7980   26.4810   36.1220 C   0  0  0  0  0  0  0  0  0  0  0  0
   38.0530   27.6330   35.8350 C   0  0  0  0  0  0  0  0  0  0  0  0
   37.2890   27.6770   34.6480 C   0  0  0  0  0  0  0  0  0  0  0  0
   37.2860   26.5890   33.7890 C   0  0  0  0  0  0  0  0  0  0  0  0
   39.3730   26.4840   37.0440 H   0  0  0  0  0  0  0  0  0  0  0  0
   38.0430   28.4760   36.4830 H   0  0  0  0  0  0  0  0  0  0  0  0
   36.7080   28.5650   34.4170 H   0  0  0  0  0  0  0  0  0  0  0  0
   40.8800   24.0830   35.1120 C   0  0  0  0  0  0  0  0  0  0  0  0
   39.5710   24.2070   35.5710 C   0  0  0  0  0  0  0  0  0  0  0  0
   39.0500   23.1460   36.3290 C   0  0  0  0  0  0  0  0  0  0  0  0
   39.8360   22.0660   36.5720 N   0  0  0  0  0  0  0  0  0  0  0  0
   41.1040   21.9980   36.1000 C   0  0  0  0  0  0  0  0  0  0  0  0
   41.6180   22.9980   35.3770 N   0  0  0  0  0  0  0  0  0  0  0  0
   41.3000   24.8930   34.5250 H   0  0  0  0  0  0  0  0  0  0  0  0
   41.7360   21.1280   36.2970 H   0  0  0  0  0  0  0  0  0  0  0  0
   37.6560   23.2170   36.8490 C   0  0  0  0  0  0  0  0  0  0  0  0
   37.5220   22.5680   37.7200 H   0  0  0  0  0  0  0  0  0  0  0  0
   36.9320   22.9920   36.0210 H   0  0  0  0  0  0  0  0  0  0  0  0
   37.4530   24.2600   37.1490 H   0  0  0  0  0  0  0  0  0  0  0  0
   37.9800   24.4550   33.2200 O   0  0  0  0  0  0  0  0  0  0  0  0
   37.9850   23.5250   33.6210 H   0  0  0  0  0  0  0  0  0  0  0  0
   36.5220   26.6990   32.6530 O   0  0  0  0  0  0  0  0  0  0  0  0
   35.7430   28.8350   31.6430 C   0  0  0  0  0  0  0  0  0  0  0  0
   36.5500   27.7150   31.7420 C   0  0  0  0  0  0  0  0  0  0  0  0
   37.5540   27.5480   30.8040 C   0  0  0  0  0  0  0  0  0  0  0  0
   37.7650   28.4770   29.7710 C   0  0  0  0  0  0  0  0  0  0  0  0
   38.6310   28.5830   28.7430 N   0  0  0  0  0  0  0  0  0  0  0  0
   38.3740   29.7070   28.0480 C   0  0  0  0  0  0  0  0  0  0  0  0
   37.3290   30.3110   28.6530 N   0  0  0  0  0  0  0  0  0  0  0  0
   36.9370   29.5720   29.7150 C   0  0  0  0  0  0  0  0  0  0  0  0
   35.9400   29.7510   30.6370 C   0  0  0  0  0  0  0  0  0  0  0  0
   34.9860   28.8880   32.4160 H   0  0  0  0  0  0  0  0  0  0  0  0
   38.2570   26.7220   30.7600 H   0  0  0  0  0  0  0  0  0  0  0  0
   39.3850   27.8850   28.5360 H   0  0  0  0  0  0  0  0  0  0  0  0
   38.8960   30.0750   27.1670 H   0  0  0  0  0  0  0  0  0  0  0  0
   35.2080   32.9430   31.5360 H   0  0  0  0  0  0  0  0  0  0  0  0
   35.6160   31.9660   31.3720 C   0  0  0  0  0  0  0  0  0  0  0  0
   36.7320   31.7100   31.9400 O   0  0  0  0  0  0  0  0  0  0  0  0
   35.0770   30.8820   30.5900 N   0  0  0  0  0  0  0  0  0  0  0  0
   34.1740   31.0910   30.1300 H   0  0  0  0  0  0  0  0  0  0  0  0
  1  2  1  0  0  0  0
  2 11  1  0  0  0  0
  2  3  2  0  0  0  0
  3  7  1  0  0  0  0
  4  3  1  0  0  0  0
  4  8  1  0  0  0  0
  5  4  2  0  0  0  0
  6  1  2  0  0  0  0
  6  5  1  0  0  0  0
  9  5  1  0  0  0  0
 10 15  2  0  0  0  0
 10 11  1  0  0  0  0
 11 12  2  0  0  0  0
 12 13  1  0  0  0  0
 12 18  1  0  0  0  0
 14 17  1  0  0  0  0
 14 13  2  0  0  0  0
 15 14  1  0  0  0  0
 16 10  1  0  0  0  0
 18 21  1  0  0  0  0
 18 19  1  0  0  0  0
 20 18  1  0  0  0  0
 22 23  1  0  0  0  0
 22  1  1  0  0  0  0
 24  6  1  0  0  0  0
 25 26  1  0  0  0  0
 25 34  1  0  0  0  0
 26 24  1  0  0  0  0
 27 26  2  0  0  0  0
 28 27  1  0  0  0  0
 29 28  1  0  0  0  0
 30 31  2  0  0  0  0
 30 29  1  0  0  0  0
 31 32  1  0  0  0  0
 32 28  2  0  0  0  0
 32 33  1  0  0  0  0
 33 25  2  0  0  0  0
 35 27  1  0  0  0  0
 36 29  1  0  0  0  0
 37 30  1  0  0  0  0
 39 38  1  0  0  0  0
 39 40  2  0  0  0  0
 41 33  1  0  0  0  0
 41 39  1  0  0  0  0
 42 41  1  0  0  0  0
M  END
>  <minimizedAffinity>
-5.79867125

$$$$

 OpenBabel03272509233D

 42 45  0  0  0  0  0  0  0  0999 V2000
   36.8010   27.5290   32.7190 C   0  0  0  0  0  0  0  0  0  0  0  0
   36.9480   27.0500   31.4310 C   0  0  0  0  0  0  0  0  0  0  0  0
   36.6400   27.9850   30.4410 C   0  0  0  0  0  0  0  0  0  0  0  0
   36.2210   29.2870   30.7480 C   0  0  0  0  0  0  0  0  0  0  0  0
   36.1060   29.6690   32.1030 C   0  0  0  0  0  0  0  0  0  0  0  0
   36.4070   28.7580   33.1040 C   0  0  0  0  0  0  0  0  0  0  0  0
   36.7160   27.7280   29.3880 H   0  0  0  0  0  0  0  0  0  0  0  0
   35.9870   29.9980   29.9940 H   0  0  0  0  0  0  0  0  0  0  0  0
   35.7830   30.6760   32.3510 H   0  0  0  0  0  0  0  0  0  0  0  0
   38.7230   25.4500   30.9260 C   0  0  0  0  0  0  0  0  0  0  0  0
   37.3720   25.7300   31.1120 C   0  0  0  0  0  0  0  0  0  0  0  0
   36.4670   24.6650   30.9720 C   0  0  0  0  0  0  0  0  0  0  0  0
   36.9470   23.4320   30.6660 N   0  0  0  0  0  0  0  0  0  0  0  0
   38.2740   23.2160   30.4970 C   0  0  0  0  0  0  0  0  0  0  0  0
   39.1500   24.2170   30.6250 N   0  0  0  0  0  0  0  0  0  0  0  0
   39.4380   26.2590   31.0300 H   0  0  0  0  0  0  0  0  0  0  0  0
   38.6600   22.2230   30.2510 H   0  0  0  0  0  0  0  0  0  0  0  0
   35.0080   24.8990   31.1570 C   0  0  0  0  0  0  0  0  0  0  0  0
   34.4860   23.9750   31.4240 H   0  0  0  0  0  0  0  0  0  0  0  0
   34.5840   25.3890   30.2400 H   0  0  0  0  0  0  0  0  0  0  0  0
   34.8770   25.6290   31.9750 H   0  0  0  0  0  0  0  0  0  0  0  0
   37.0890   26.6560   33.7920 O   0  0  0  0  0  0  0  0  0  0  0  0
   37.8700   26.0250   33.6510 H   0  0  0  0  0  0  0  0  0  0  0  0
   36.2730   29.1950   34.4000 O   0  0  0  0  0  0  0  0  0  0  0  0
   33.8830   29.8220   34.6900 C   0  0  0  0  0  0  0  0  0  0  0  0
   35.2450   29.9300   34.9140 C   0  0  0  0  0  0  0  0  0  0  0  0
   35.6890   30.9120   35.7830 C   0  0  0  0  0  0  0  0  0  0  0  0
   34.7980   31.7870   36.4290 C   0  0  0  0  0  0  0  0  0  0  0  0
   34.9250   32.8090   37.2990 N   0  0  0  0  0  0  0  0  0  0  0  0
   33.7100   33.3040   37.5960 C   0  0  0  0  0  0  0  0  0  0  0  0
   32.8090   32.5790   36.8990 N   0  0  0  0  0  0  0  0  0  0  0  0
   33.4560   31.6390   36.1730 C   0  0  0  0  0  0  0  0  0  0  0  0
   33.0030   30.6710   35.3170 C   0  0  0  0  0  0  0  0  0  0  0  0
   33.6240   29.0280   34.0000 H   0  0  0  0  0  0  0  0  0  0  0  0
   36.7210   31.1100   36.0500 H   0  0  0  0  0  0  0  0  0  0  0  0
   35.8420   33.1490   37.6750 H   0  0  0  0  0  0  0  0  0  0  0  0
   33.4770   34.1300   38.2660 H   0  0  0  0  0  0  0  0  0  0  0  0
   30.0010   29.2600   36.0420 H   0  0  0  0  0  0  0  0  0  0  0  0
   31.0180   29.5890   35.9810 C   0  0  0  0  0  0  0  0  0  0  0  0
   31.8260   29.1120   36.8490 O   0  0  0  0  0  0  0  0  0  0  0  0
   31.6150   30.5090   35.0450 N   0  0  0  0  0  0  0  0  0  0  0  0
   30.9600   30.8950   34.3430 H   0  0  0  0  0  0  0  0  0  0  0  0
  1  6  1  0  0  0  0
  1 22  1  0  0  0  0
  2  1  2  0  0  0  0
  3  4  2  0  0  0  0
  3  2  1  0  0  0  0
  4  5  1  0  0  0  0
  5  9  1  0  0  0  0
  5  6  2  0  0  0  0
  6 24  1  0  0  0  0
  7  3  1  0  0  0  0
  8  4  1  0  0  0  0
 10 16  1  0  0  0  0
 10 11  1  0  0  0  0
 11  2  1  0  0  0  0
 12 11  2  0  0  0  0
 12 18  1  0  0  0  0
 13 12  1  0  0  0  0
 14 15  1  0  0  0  0
 14 13  2  0  0  0  0
 15 10  2  0  0  0  0
 17 14  1  0  0  0  0
 18 19  1  0  0  0  0
 18 21  1  0  0  0  0
 20 18  1  0  0  0  0
 23 22  1  0  0  0  0
 24 26  1  0  0  0  0
 25 26  2  0  0  0  0
 25 33  1  0  0  0  0
 26 27  1  0  0  0  0
 27 35  1  0  0  0  0
 27 28  2  0  0  0  0
 28 29  1  0  0  0  0
 29 30  1  0  0  0  0
 29 36  1  0  0  0  0
 30 37  1  0  0  0  0
 31 30  2  0  0  0  0
 32 28  1  0  0  0  0
 32 31  1  0  0  0  0
 33 32  2  0  0  0  0
 34 25  1  0  0  0  0
 39 38  1  0  0  0  0
 39 40  2  0  0  0  0
 41 33  1  0  0  0  0
 41 39  1  0  0  0  0
 42 41  1  0  0  0  0
M  END
>  <minimizedAffinity>
-5.75293875

$$$$

 OpenBabel03272509233D

 42 45  0  0  0  0  0  0  0  0999 V2000
   36.3770   28.5460   33.6920 C   0  0  0  0  0  0  0  0  0  0  0  0
   35.7780   29.7890   33.6200 C   0  0  0  0  0  0  0  0  0  0  0  0
   35.8510   30.3800   32.3570 C   0  0  0  0  0  0  0  0  0  0  0  0
   36.4790   29.7510   31.2730 C   0  0  0  0  0  0  0  0  0  0  0  0
   37.0600   28.4780   31.4620 C   0  0  0  0  0  0  0  0  0  0  0  0
   37.0000   27.8700   32.7070 C   0  0  0  0  0  0  0  0  0  0  0  0
   35.4160   31.3590   32.1740 H   0  0  0  0  0  0  0  0  0  0  0  0
   36.5340   30.2020   30.3130 H   0  0  0  0  0  0  0  0  0  0  0  0
   37.5490   27.9830   30.6280 H   0  0  0  0  0  0  0  0  0  0  0  0
   35.8720   31.2320   35.5880 C   0  0  0  0  0  0  0  0  0  0  0  0
   35.1380   30.4340   34.7150 C   0  0  0  0  0  0  0  0  0  0  0  0
   33.7620   30.3000   34.9640 C   0  0  0  0  0  0  0  0  0  0  0  0
   33.2230   30.9470   36.0300 N   0  0  0  0  0  0  0  0  0  0  0  0
   33.9850   31.7120   36.8480 C   0  0  0  0  0  0  0  0  0  0  0  0
   35.2960   31.8510   36.6270 N   0  0  0  0  0  0  0  0  0  0  0  0
   36.9360   31.3480   35.4120 H   0  0  0  0  0  0  0  0  0  0  0  0
   33.5500   32.2320   37.7050 H   0  0  0  0  0  0  0  0  0  0  0  0
   32.9210   29.4590   34.0680 C   0  0  0  0  0  0  0  0  0  0  0  0
   31.8690   29.7570   34.1120 H   0  0  0  0  0  0  0  0  0  0  0  0
   33.0790   28.3740   34.3100 H   0  0  0  0  0  0  0  0  0  0  0  0
   33.2830   29.5900   33.0330 H   0  0  0  0  0  0  0  0  0  0  0  0
   36.3560   27.8660   34.9310 O   0  0  0  0  0  0  0  0  0  0  0  0
   35.5090   27.9710   35.4770 H   0  0  0  0  0  0  0  0  0  0  0  0
   37.5850   26.6320   32.8210 O   0  0  0  0  0  0  0  0  0  0  0  0
   39.9550   27.1100   33.4070 C   0  0  0  0  0  0  0  0  0  0  0  0
   38.7990   26.3470   33.3730 C   0  0  0  0  0  0  0  0  0  0  0  0
   38.8200   25.1000   33.9740 C   0  0  0  0  0  0  0  0  0  0  0  0
   39.9730   24.6020   34.6050 C   0  0  0  0  0  0  0  0  0  0  0  0
   40.2900   23.4650   35.2550 N   0  0  0  0  0  0  0  0  0  0  0  0
   41.5700   23.5210   35.6690 C   0  0  0  0  0  0  0  0  0  0  0  0
   42.0590   24.7140   35.2690 N   0  0  0  0  0  0  0  0  0  0  0  0
   41.0940   25.3970   34.6130 C   0  0  0  0  0  0  0  0  0  0  0  0
   41.0870   26.6330   34.0230 C   0  0  0  0  0  0  0  0  0  0  0  0
   39.8500   28.0690   32.9160 H   0  0  0  0  0  0  0  0  0  0  0  0
   37.9940   24.4000   34.0220 H   0  0  0  0  0  0  0  0  0  0  0  0
   39.6240   22.6700   35.4060 H   0  0  0  0  0  0  0  0  0  0  0  0
   42.1220   22.7610   36.2200 H   0  0  0  0  0  0  0  0  0  0  0  0
   43.9630   27.6880   32.5590 H   0  0  0  0  0  0  0  0  0  0  0  0
   43.0420   27.2250   32.8490 C   0  0  0  0  0  0  0  0  0  0  0  0
   42.5740   26.3390   32.0570 O   0  0  0  0  0  0  0  0  0  0  0  0
   42.2420   27.4650   34.0240 N   0  0  0  0  0  0  0  0  0  0  0  0
   42.6230   28.1830   34.6640 H   0  0  0  0  0  0  0  0  0  0  0  0
  1 22  1  0  0  0  0
  2  1  1  0  0  0  0
  2 11  1  0  0  0  0
  3  2  2  0  0  0  0
  4  5  2  0  0  0  0
  4  3  1  0  0  0  0
  5  6  1  0  0  0  0
  6 24  1  0  0  0  0
  6  1  2  0  0  0  0
  7  3  1  0  0  0  0
  8  4  1  0  0  0  0
  9  5  1  0  0  0  0
 10 15  1  0  0  0  0
 11 12  1  0  0  0  0
 11 10  2  0  0  0  0
 12 13  2  0  0  0  0
 13 14  1  0  0  0  0
 14 17  1  0  0  0  0
 15 14  2  0  0  0  0
 16 10  1  0  0  0  0
 18 19  1  0  0  0  0
 18 20  1  0  0  0  0
 18 12  1  0  0  0  0
 21 18  1  0  0  0  0
 22 23  1  0  0  0  0
 24 26  1  0  0  0  0
 25 33  1  0  0  0  0
 26 25  2  0  0  0  0
 26 27  1  0  0  0  0
 27 35  1  0  0  0  0
 27 28  2  0  0  0  0
 28 32  1  0  0  0  0
 28 29  1  0  0  0  0
 29 36  1  0  0  0  0
 29 30  1  0  0  0  0
 30 37  1  0  0  0  0
 31 30  2  0  0  0  0
 32 31  1  0  0  0  0
 33 41  1  0  0  0  0
 33 32  2  0  0  0  0
 34 25  1  0  0  0  0
 38 39  1  0  0  0  0
 39 41  1  0  0  0  0
 40 39  2  0  0  0  0
 41 42  1  0  0  0  0
M  END
>  <minimizedAffinity>
-5.74043417

$$$$

 OpenBabel03272509233D

 42 45  0  0  0  0  0  0  0  0999 V2000
   35.9560   29.0120   33.4360 C   0  0  0  0  0  0  0  0  0  0  0  0
   35.5350   30.3210   33.5760 C   0  0  0  0  0  0  0  0  0  0  0  0
   35.7230   31.1010   32.4330 C   0  0  0  0  0  0  0  0  0  0  0  0
   36.2890   30.5830   31.2600 C   0  0  0  0  0  0  0  0  0  0  0  0
   36.6840   29.2280   31.2300 C   0  0  0  0  0  0  0  0  0  0  0  0
   36.5070   28.4330   32.3520 C   0  0  0  0  0  0  0  0  0  0  0  0
   35.4320   32.1480   32.4190 H   0  0  0  0  0  0  0  0  0  0  0  0
   36.4320   31.1780   30.3910 H   0  0  0  0  0  0  0  0  0  0  0  0
   37.1240   28.8180   30.3250 H   0  0  0  0  0  0  0  0  0  0  0  0
   35.7560   31.5130   35.6960 C   0  0  0  0  0  0  0  0  0  0  0  0
   34.9600   30.8540   34.7630 C   0  0  0  0  0  0  0  0  0  0  0  0
   33.5890   30.7460   35.0460 C   0  0  0  0  0  0  0  0  0  0  0  0
   33.1130   31.2800   36.2000 N   0  0  0  0  0  0  0  0  0  0  0  0
   33.9330   31.9110   37.0740 C   0  0  0  0  0  0  0  0  0  0  0  0
   35.2410   32.0240   36.8220 N   0  0  0  0  0  0  0  0  0  0  0  0
   36.8170   31.6070   35.4950 H   0  0  0  0  0  0  0  0  0  0  0  0
   33.5500   32.3410   38.0030 H   0  0  0  0  0  0  0  0  0  0  0  0
   32.6830   30.0520   34.0880 C   0  0  0  0  0  0  0  0  0  0  0  0
   31.6470   30.3820   34.2070 H   0  0  0  0  0  0  0  0  0  0  0  0
   32.8010   28.9400   34.1940 H   0  0  0  0  0  0  0  0  0  0  0  0
   33.0170   30.2920   33.0630 H   0  0  0  0  0  0  0  0  0  0  0  0
   35.8080   28.1430   34.5400 O   0  0  0  0  0  0  0  0  0  0  0  0
   34.9690   28.2710   35.0930 H   0  0  0  0  0  0  0  0  0  0  0  0
   36.9130   27.1240   32.2540 O   0  0  0  0  0  0  0  0  0  0  0  0
   37.8390   25.3680   33.7540 C   0  0  0  0  0  0  0  0  0  0  0  0
   37.8950   26.5140   32.9790 C   0  0  0  0  0  0  0  0  0  0  0  0
   39.1040   27.1830   32.8880 C   0  0  0  0  0  0  0  0  0  0  0  0
   40.2530   26.7300   33.5560 C   0  0  0  0  0  0  0  0  0  0  0  0
   41.5300   27.1520   33.6570 N   0  0  0  0  0  0  0  0  0  0  0  0
   42.2230   26.3150   34.4500 C   0  0  0  0  0  0  0  0  0  0  0  0
   41.3650   25.3530   34.8510 N   0  0  0  0  0  0  0  0  0  0  0  0
   40.1460   25.5870   34.3130 C   0  0  0  0  0  0  0  0  0  0  0  0
   38.9580   24.9150   34.4120 C   0  0  0  0  0  0  0  0  0  0  0  0
   36.8580   24.9090   33.7680 H   0  0  0  0  0  0  0  0  0  0  0  0
   39.2920   28.0880   32.3200 H   0  0  0  0  0  0  0  0  0  0  0  0
   41.9040   28.0070   33.1800 H   0  0  0  0  0  0  0  0  0  0  0  0
   43.2740   26.3830   34.7270 H   0  0  0  0  0  0  0  0  0  0  0  0
   38.2030   23.3830   37.3460 H   0  0  0  0  0  0  0  0  0  0  0  0
   38.3900   24.0470   36.5280 C   0  0  0  0  0  0  0  0  0  0  0  0
   38.1990   25.2910   36.7460 O   0  0  0  0  0  0  0  0  0  0  0  0
   38.8340   23.7310   35.1920 N   0  0  0  0  0  0  0  0  0  0  0  0
   38.9880   22.7230   35.0170 H   0  0  0  0  0  0  0  0  0  0  0  0
  1  2  1  0  0  0  0
  1 22  1  0  0  0  0
  2 11  1  0  0  0  0
  3  2  2  0  0  0  0
  4  3  1  0  0  0  0
  5  4  2  0  0  0  0
  5  6  1  0  0  0  0
  6  1  2  0  0  0  0
  7  3  1  0  0  0  0
  8  4  1  0  0  0  0
  9  5  1  0  0  0  0
 10 15  1  0  0  0  0
 11 12  1  0  0  0  0
 11 10  2  0  0  0  0
 12 13  2  0  0  0  0
 13 14  1  0  0  0  0
 14 17  1  0  0  0  0
 15 14  2  0  0  0  0
 16 10  1  0  0  0  0
 18 20  1  0  0  0  0
 18 19  1  0  0  0  0
 18 12  1  0  0  0  0
 21 18  1  0  0  0  0
 22 23  1  0  0  0  0
 24  6  1  0  0  0  0
 24 26  1  0  0  0  0
 25 34  1  0  0  0  0
 25 33  1  0  0  0  0
 26 25  2  0  0  0  0
 27 26  1  0  0  0  0
 27 28  2  0  0  0  0
 28 29  1  0  0  0  0
 28 32  1  0  0  0  0
 29 30  1  0  0  0  0
 30 37  1  0  0  0  0
 30 31  2  0  0  0  0
 32 33  2  0  0  0  0
 32 31  1  0  0  0  0
 33 41  1  0  0  0  0
 35 27  1  0  0  0  0
 36 29  1  0  0  0  0
 39 40  2  0  0  0  0
 39 38  1  0  0  0  0
 41 39  1  0  0  0  0
 42 41  1  0  0  0  0
M  END
>  <minimizedAffinity>
-5.67637634

$$$$

 OpenBabel03272509233D

 42 45  0  0  0  0  0  0  0  0999 V2000
   36.3030   26.4520   31.4700 C   0  0  0  0  0  0  0  0  0  0  0  0
   36.2940   27.5680   32.2850 C   0  0  0  0  0  0  0  0  0  0  0  0
   37.0830   27.4390   33.4290 C   0  0  0  0  0  0  0  0  0  0  0  0
   37.8120   26.2740   33.7060 C   0  0  0  0  0  0  0  0  0  0  0  0
   37.7470   25.1930   32.8000 C   0  0  0  0  0  0  0  0  0  0  0  0
   36.9700   25.2970   31.6570 C   0  0  0  0  0  0  0  0  0  0  0  0
   37.1580   28.2500   34.1490 H   0  0  0  0  0  0  0  0  0  0  0  0
   38.4130   26.1780   34.5780 H   0  0  0  0  0  0  0  0  0  0  0  0
   38.3090   24.2870   33.0060 H   0  0  0  0  0  0  0  0  0  0  0  0
   34.3330   28.9820   32.6360 C   0  0  0  0  0  0  0  0  0  0  0  0
   35.5560   28.7540   32.0100 C   0  0  0  0  0  0  0  0  0  0  0  0
   36.0170   29.7320   31.1150 C   0  0  0  0  0  0  0  0  0  0  0  0
   35.2570   30.8380   30.9050 N   0  0  0  0  0  0  0  0  0  0  0  0
   34.0730   31.0100   31.5410 C   0  0  0  0  0  0  0  0  0  0  0  0
   33.6180   30.0890   32.3970 N   0  0  0  0  0  0  0  0  0  0  0  0
   33.9620   28.2380   33.3310 H   0  0  0  0  0  0  0  0  0  0  0  0
   33.4620   31.9000   31.3710 H   0  0  0  0  0  0  0  0  0  0  0  0
   37.3170   29.5470   30.4130 C   0  0  0  0  0  0  0  0  0  0  0  0
   37.7380   30.5050   30.0920 H   0  0  0  0  0  0  0  0  0  0  0  0
   37.1900   28.8210   29.5670 H   0  0  0  0  0  0  0  0  0  0  0  0
   38.0220   29.0680   31.1150 H   0  0  0  0  0  0  0  0  0  0  0  0
   35.5330   26.4850   30.2860 O   0  0  0  0  0  0  0  0  0  0  0  0
   35.5050   27.3750   29.8020 H   0  0  0  0  0  0  0  0  0  0  0  0
   36.9530   24.2090   30.8190 O   0  0  0  0  0  0  0  0  0  0  0  0
   38.1100   22.0780   31.3780 C   0  0  0  0  0  0  0  0  0  0  0  0
   37.0090   22.8950   31.1820 C   0  0  0  0  0  0  0  0  0  0  0  0
   35.7500   22.3500   31.3690 C   0  0  0  0  0  0  0  0  0  0  0  0
   35.5720   21.0080   31.7460 C   0  0  0  0  0  0  0  0  0  0  0  0
   34.5080   20.2190   31.9950 N   0  0  0  0  0  0  0  0  0  0  0  0
   34.9280   18.9840   32.3270 C   0  0  0  0  0  0  0  0  0  0  0  0
   36.2770   19.0030   32.2840 N   0  0  0  0  0  0  0  0  0  0  0  0
   36.6960   20.2390   31.9280 C   0  0  0  0  0  0  0  0  0  0  0  0
   37.9470   20.7650   31.7480 C   0  0  0  0  0  0  0  0  0  0  0  0
   39.0530   22.5840   31.2120 H   0  0  0  0  0  0  0  0  0  0  0  0
   34.8050   22.8700   31.2510 H   0  0  0  0  0  0  0  0  0  0  0  0
   33.5120   20.5390   31.9350 H   0  0  0  0  0  0  0  0  0  0  0  0
   34.3140   18.1220   32.5840 H   0  0  0  0  0  0  0  0  0  0  0  0
   40.3400   18.6980   30.5080 H   0  0  0  0  0  0  0  0  0  0  0  0
   39.5090   19.3460   30.6970 C   0  0  0  0  0  0  0  0  0  0  0  0
   38.7490   19.6070   29.7030 O   0  0  0  0  0  0  0  0  0  0  0  0
   39.1190   19.9780   31.9330 N   0  0  0  0  0  0  0  0  0  0  0  0
   39.7350   19.7660   32.7370 H   0  0  0  0  0  0  0  0  0  0  0  0
  1  6  2  0  0  0  0
  1  2  1  0  0  0  0
  2  3  2  0  0  0  0
  3  4  1  0  0  0  0
  3  7  1  0  0  0  0
  4  8  1  0  0  0  0
  5  9  1  0  0  0  0
  5  4  2  0  0  0  0
  6  5  1  0  0  0  0
 10 16  1  0  0  0  0
 11  2  1  0  0  0  0
 11 10  2  0  0  0  0
 12 11  1  0  0  0  0
 13 12  2  0  0  0  0
 13 14  1  0  0  0  0
 14 15  2  0  0  0  0
 15 10  1  0  0  0  0
 17 14  1  0  0  0  0
 18 12  1  0  0  0  0
 18 21  1  0  0  0  0
 19 18  1  0  0  0  0
 20 18  1  0  0  0  0
 22  1  1  0  0  0  0
 23 22  1  0  0  0  0
 24 26  1  0  0  0  0
 24  6  1  0  0  0  0
 25 33  1  0  0  0  0
 26 27  1  0  0  0  0
 26 25  2  0  0  0  0
 27 28  2  0  0  0  0
 28 32  1  0  0  0  0
 28 29  1  0  0  0  0
 29 30  1  0  0  0  0
 30 37  1  0  0  0  0
 31 30  2  0  0  0  0
 32 31  1  0  0  0  0
 33 32  2  0  0  0  0
 33 41  1  0  0  0  0
 34 25  1  0  0  0  0
 35 27  1  0  0  0  0
 36 29  1  0  0  0  0
 38 39  1  0  0  0  0
 39 41  1  0  0  0  0
 40 39  2  0  0  0  0
 41 42  1  0  0  0  0
M  END
>  <minimizedAffinity>
-5.61934566

$$$$

 OpenBabel03272509233D

 42 45  0  0  0  0  0  0  0  0999 V2000
   37.2260   27.2090   32.6490 C   0  0  0  0  0  0  0  0  0  0  0  0
   37.7970   25.9570   32.7750 C   0  0  0  0  0  0  0  0  0  0  0  0
   37.8810   25.5030   34.0930 C   0  0  0  0  0  0  0  0  0  0  0  0
   37.4200   26.2640   35.1760 C   0  0  0  0  0  0  0  0  0  0  0  0
   36.8520   27.5330   34.9290 C   0  0  0  0  0  0  0  0  0  0  0  0
   36.7580   28.0060   33.6290 C   0  0  0  0  0  0  0  0  0  0  0  0
   38.3120   24.5310   34.3220 H   0  0  0  0  0  0  0  0  0  0  0  0
   37.4840   25.9170   36.1780 H   0  0  0  0  0  0  0  0  0  0  0  0
   36.4920   28.1300   35.7620 H   0  0  0  0  0  0  0  0  0  0  0  0
   39.5910   25.2840   31.2590 C   0  0  0  0  0  0  0  0  0  0  0  0
   38.2680   25.1780   31.6810 C   0  0  0  0  0  0  0  0  0  0  0  0
   37.4390   24.2820   30.9870 C   0  0  0  0  0  0  0  0  0  0  0  0
   37.9600   23.5730   29.9530 N   0  0  0  0  0  0  0  0  0  0  0  0
   39.2560   23.7150   29.5850 C   0  0  0  0  0  0  0  0  0  0  0  0
   40.0600   24.5640   30.2330 N   0  0  0  0  0  0  0  0  0  0  0  0
   40.2460   25.9710   31.7830 H   0  0  0  0  0  0  0  0  0  0  0  0
   39.6750   23.1440   28.7520 H   0  0  0  0  0  0  0  0  0  0  0  0
   36.0130   24.1230   31.3890 C   0  0  0  0  0  0  0  0  0  0  0  0
   35.6150   23.1550   31.0710 H   0  0  0  0  0  0  0  0  0  0  0  0
   35.4130   24.9890   31.0020 H   0  0  0  0  0  0  0  0  0  0  0  0
   35.9560   24.1860   32.4890 H   0  0  0  0  0  0  0  0  0  0  0  0
   37.0970   27.7560   31.3530 O   0  0  0  0  0  0  0  0  0  0  0  0
   36.8660   27.0980   30.6170 H   0  0  0  0  0  0  0  0  0  0  0  0
   36.1940   29.2470   33.4610 O   0  0  0  0  0  0  0  0  0  0  0  0
   33.8280   29.6110   34.1370 C   0  0  0  0  0  0  0  0  0  0  0  0
   35.1970   29.8020   34.2080 C   0  0  0  0  0  0  0  0  0  0  0  0
   35.6860   30.6770   35.1640 C   0  0  0  0  0  0  0  0  0  0  0  0
   34.8330   31.3620   36.0460 C   0  0  0  0  0  0  0  0  0  0  0  0
   35.0050   32.2470   37.0480 N   0  0  0  0  0  0  0  0  0  0  0  0
   33.8100   32.5840   37.5670 C   0  0  0  0  0  0  0  0  0  0  0  0
   32.8750   31.8960   36.8760 N   0  0  0  0  0  0  0  0  0  0  0  0
   33.4810   31.1380   35.9350 C   0  0  0  0  0  0  0  0  0  0  0  0
   32.9840   30.2750   34.9950 C   0  0  0  0  0  0  0  0  0  0  0  0
   33.5330   28.9120   33.3640 H   0  0  0  0  0  0  0  0  0  0  0  0
   36.7290   30.9220   35.3330 H   0  0  0  0  0  0  0  0  0  0  0  0
   35.9390   32.6050   37.3610 H   0  0  0  0  0  0  0  0  0  0  0  0
   33.6130   33.2750   38.3850 H   0  0  0  0  0  0  0  0  0  0  0  0
   30.2250   28.4500   35.7620 H   0  0  0  0  0  0  0  0  0  0  0  0
   31.1970   28.8850   35.6480 C   0  0  0  0  0  0  0  0  0  0  0  0
   32.1530   28.3200   36.2800 O   0  0  0  0  0  0  0  0  0  0  0  0
   31.5870   30.0350   34.8700 N   0  0  0  0  0  0  0  0  0  0  0  0
   30.8110   30.4910   34.3590 H   0  0  0  0  0  0  0  0  0  0  0  0
  1  2  2  0  0  0  0
  1  6  1  0  0  0  0
  2  3  1  0  0  0  0
  3  7  1  0  0  0  0
  3  4  2  0  0  0  0
  4  8  1  0  0  0  0
  5  4  1  0  0  0  0
  5  9  1  0  0  0  0
  6  5  2  0  0  0  0
 10 11  1  0  0  0  0
 10 16  1  0  0  0  0
 11  2  1  0  0  0  0
 12 18  1  0  0  0  0
 12 11  2  0  0  0  0
 13 12  1  0  0  0  0
 14 13  2  0  0  0  0
 14 15  1  0  0  0  0
 15 10  2  0  0  0  0
 17 14  1  0  0  0  0
 18 21  1  0  0  0  0
 19 18  1  0  0  0  0
 20 18  1  0  0  0  0
 22  1  1  0  0  0  0
 23 22  1  0  0  0  0
 24  6  1  0  0  0  0
 24 26  1  0  0  0  0
 25 26  2  0  0  0  0
 25 33  1  0  0  0  0
 26 27  1  0  0  0  0
 27 35  1  0  0  0  0
 27 28  2  0  0  0  0
 28 29  1  0  0  0  0
 29 36  1  0  0  0  0
 29 30  1  0  0  0  0
 30 37  1  0  0  0  0
 31 30  2  0  0  0  0
 32 28  1  0  0  0  0
 32 31  1  0  0  0  0
 33 32  2  0  0  0  0
 34 25  1  0  0  0  0
 39 38  1  0  0  0  0
 39 40  2  0  0  0  0
 41 33  1  0  0  0  0
 41 39  1  0  0  0  0
 42 41  1  0  0  0  0
M  END
>  <minimizedAffinity>
-5.59238291

$$$$
