
 OpenBabel03272510153D

 24 25  0  0  0  0  0  0  0  0999 V2000
   37.4290   29.2150   50.9120 Br  0  0  0  0  0  0  0  0  0  0  0  0
   35.9890   29.2910   49.6450 C   0  0  0  0  0  0  0  0  0  0  0  0
   35.9690   30.2660   48.6680 C   0  0  0  0  0  0  0  0  0  0  0  0
   34.9000   30.2580   47.7910 C   0  0  0  0  0  0  0  0  0  0  0  0
   33.8790   29.3240   47.8630 C   0  0  0  0  0  0  0  0  0  0  0  0
   33.9450   28.3750   48.8500 C   0  0  0  0  0  0  0  0  0  0  0  0
   34.9990   28.3610   49.7380 C   0  0  0  0  0  0  0  0  0  0  0  0
   34.9350   31.0480   47.0420 H   0  0  0  0  0  0  0  0  0  0  0  0
   33.1300   27.6670   48.8700 H   0  0  0  0  0  0  0  0  0  0  0  0
   34.9480   27.5720   50.4710 H   0  0  0  0  0  0  0  0  0  0  0  0
   38.0180   33.1930   49.4200 C   0  0  0  0  0  0  0  0  0  0  0  0
   39.0410   33.1530   48.4200 C   0  0  0  0  0  0  0  0  0  0  0  0
   38.9900   32.1100   47.5120 C   0  0  0  0  0  0  0  0  0  0  0  0
   37.9850   31.1850   47.6120 N   0  0  0  0  0  0  0  0  0  0  0  0
   37.0360   31.2610   48.5750 C   0  0  0  0  0  0  0  0  0  0  0  0
   37.0540   32.2630   49.4750 N   0  0  0  0  0  0  0  0  0  0  0  0
   38.0550   34.0090   50.1320 H   0  0  0  0  0  0  0  0  0  0  0  0
   39.8160   33.9080   48.3820 H   0  0  0  0  0  0  0  0  0  0  0  0
   39.7380   32.0170   46.7230 H   0  0  0  0  0  0  0  0  0  0  0  0
   30.8650   28.4110   46.3690 H   0  0  0  0  0  0  0  0  0  0  0  0
   31.7690   28.5950   46.9130 C   0  0  0  0  0  0  0  0  0  0  0  0
   31.4710   27.6410   47.6780 O   0  0  0  0  0  0  0  0  0  0  0  0
   32.8800   29.4840   46.8780 N   0  0  0  0  0  0  0  0  0  0  0  0
   32.7220   30.1260   46.0690 H   0  0  0  0  0  0  0  0  0  0  0  0
  2  7  1  0  0  0  0
  2  1  1  0  0  0  0
  3  2  2  0  0  0  0
  4  5  2  0  0  0  0
  4  3  1  0  0  0  0
  5  6  1  0  0  0  0
  6  9  1  0  0  0  0
  6  7  2  0  0  0  0
  7 10  1  0  0  0  0
  8  4  1  0  0  0  0
 11 16  1  0  0  0  0
 11 17  1  0  0  0  0
 12 11  2  0  0  0  0
 13 14  2  0  0  0  0
 13 12  1  0  0  0  0
 14 15  1  0  0  0  0
 15  3  1  0  0  0  0
 15 16  2  0  0  0  0
 18 12  1  0  0  0  0
 19 13  1  0  0  0  0
 20 21  1  0  0  0  0
 21 22  2  0  0  0  0
 23 21  1  0  0  0  0
 23  5  1  0  0  0  0
 24 23  1  0  0  0  0
M  END
>  <minimizedAffinity>
-5.57302809

>  <minimizedRMSD>
0.237082928

$$$$
