
 OpenBabel03272504363D

 39 41  0  0  0  0  0  0  0  0999 V2000
   38.2180   23.8810   34.7440 C   0  0  0  0  0  0  0  0  0  0  0  0
   37.8400   22.6950   34.1350 C   0  0  0  0  0  0  0  0  0  0  0  0
   37.3360   22.7210   32.8400 C   0  0  0  0  0  0  0  0  0  0  0  0
   37.2370   23.9230   32.2250 N   0  0  0  0  0  0  0  0  0  0  0  0
   37.6170   25.0710   32.8510 C   0  0  0  0  0  0  0  0  0  0  0  0
   38.1040   25.0590   34.0980 N   0  0  0  0  0  0  0  0  0  0  0  0
   37.9350   21.7620   34.6580 H   0  0  0  0  0  0  0  0  0  0  0  0
   37.0420   21.8120   32.3630 H   0  0  0  0  0  0  0  0  0  0  0  0
   38.7390   23.9110   36.0670 N   0  0  0  0  0  0  0  0  0  0  0  0
   40.0480   23.3490   36.3960 C   0  0  0  0  0  0  0  0  0  0  0  0
   40.0740   22.5380   37.6470 C   0  0  0  0  0  0  0  0  0  0  0  0
   39.1610   22.8720   38.6570 N   0  0  0  0  0  0  0  0  0  0  0  0
   37.8610   23.2770   38.1610 C   0  0  0  0  0  0  0  0  0  0  0  0
   38.1380   24.4500   37.2340 C   0  0  0  0  0  0  0  0  0  0  0  0
   40.4360   22.8140   35.5270 H   0  0  0  0  0  0  0  0  0  0  0  0
   40.6960   24.2420   36.5650 H   0  0  0  0  0  0  0  0  0  0  0  0
   41.1110   22.6120   38.0750 H   0  0  0  0  0  0  0  0  0  0  0  0
   39.9770   21.4680   37.3600 H   0  0  0  0  0  0  0  0  0  0  0  0
   39.4990   23.4550   39.4360 H   0  0  0  0  0  0  0  0  0  0  0  0
   37.3990   22.4520   37.5890 H   0  0  0  0  0  0  0  0  0  0  0  0
   37.2300   23.6400   38.9910 H   0  0  0  0  0  0  0  0  0  0  0  0
   38.8180   25.1760   37.7070 H   0  0  0  0  0  0  0  0  0  0  0  0
   37.1770   24.9340   36.9720 H   0  0  0  0  0  0  0  0  0  0  0  0
   37.4920   26.3420   32.1470 C   0  0  0  0  0  0  0  0  0  0  0  0
   38.0950   26.5260   30.9280 C   0  0  0  0  0  0  0  0  0  0  0  0
   38.0090   27.7090   30.2180 C   0  0  0  0  0  0  0  0  0  0  0  0
   37.2820   28.6950   30.8050 N   0  0  0  0  0  0  0  0  0  0  0  0
   36.6920   28.5110   32.0020 C   0  0  0  0  0  0  0  0  0  0  0  0
   36.7800   27.3460   32.6960 N   0  0  0  0  0  0  0  0  0  0  0  0
   38.6670   25.7190   30.4870 H   0  0  0  0  0  0  0  0  0  0  0  0
   38.7780   29.0450   27.2060 H   0  0  0  0  0  0  0  0  0  0  0  0
   38.2460   28.9780   28.1640 C   0  0  0  0  0  0  0  0  0  0  0  0
   37.3880   29.8290   28.4500 O   0  0  0  0  0  0  0  0  0  0  0  0
   38.6370   27.8850   28.9580 N   0  0  0  0  0  0  0  0  0  0  0  0
   39.3570   27.1980   28.6810 H   0  0  0  0  0  0  0  0  0  0  0  0
   35.9130   29.6170   32.5980 C   0  0  0  0  0  0  0  0  0  0  0  0
   36.3820   30.8410   32.1740 F   0  0  0  0  0  0  0  0  0  0  0  0
   36.0370   29.5570   33.9870 F   0  0  0  0  0  0  0  0  0  0  0  0
   34.5740   29.4410   32.3240 F   0  0  0  0  0  0  0  0  0  0  0  0
  1  9  1  0  0  0  0
  2  7  1  0  0  0  0
  2  1  1  0  0  0  0
  3  2  2  0  0  0  0
  4  3  1  0  0  0  0
  4  5  2  0  0  0  0
  5  6  1  0  0  0  0
  6  1  2  0  0  0  0
  8  3  1  0  0  0  0
  9 10  1  0  0  0  0
  9 14  1  0  0  0  0
 10 16  1  0  0  0  0
 10 11  1  0  0  0  0
 11 17  1  0  0  0  0
 11 12  1  0  0  0  0
 12 19  1  0  0  0  0
 13 12  1  0  0  0  0
 13 21  1  0  0  0  0
 14 22  1  0  0  0  0
 14 13  1  0  0  0  0
 15 10  1  0  0  0  0
 18 11  1  0  0  0  0
 20 13  1  0  0  0  0
 23 14  1  0  0  0  0
 24 29  1  0  0  0  0
 24  5  1  0  0  0  0
 25 24  2  0  0  0  0
 26 27  2  0  0  0  0
 26 25  1  0  0  0  0
 27 28  1  0  0  0  0
 28 36  1  0  0  0  0
 28 29  2  0  0  0  0
 30 25  1  0  0  0  0
 31 32  1  0  0  0  0
 32 33  2  0  0  0  0
 32 34  1  0  0  0  0
 34 26  1  0  0  0  0
 35 34  1  0  0  0  0
 36 38  1  0  0  0  0
 37 36  1  0  0  0  0
 39 36  1  0  0  0  0
M  END
>  <minimizedAffinity>
-6.10713673

$$$$

 OpenBabel03272504363D

 39 41  0  0  0  0  0  0  0  0999 V2000
   36.8350   26.6250   32.8260 C   0  0  0  0  0  0  0  0  0  0  0  0
   36.4640   25.9480   31.6740 C   0  0  0  0  0  0  0  0  0  0  0  0
   36.7670   24.5980   31.5470 C   0  0  0  0  0  0  0  0  0  0  0  0
   37.4190   23.9970   32.5700 N   0  0  0  0  0  0  0  0  0  0  0  0
   37.7700   24.6900   33.6880 C   0  0  0  0  0  0  0  0  0  0  0  0
   37.4840   25.9910   33.8230 N   0  0  0  0  0  0  0  0  0  0  0  0
   35.9470   26.4620   30.8860 H   0  0  0  0  0  0  0  0  0  0  0  0
   36.4850   24.0690   30.6630 H   0  0  0  0  0  0  0  0  0  0  0  0
   36.5500   28.0060   33.0070 N   0  0  0  0  0  0  0  0  0  0  0  0
   36.2030   28.5590   34.3150 C   0  0  0  0  0  0  0  0  0  0  0  0
   35.0590   29.5160   34.2950 C   0  0  0  0  0  0  0  0  0  0  0  0
   34.8520   30.2580   33.1230 N   0  0  0  0  0  0  0  0  0  0  0  0
   35.1100   29.5130   31.9070 C   0  0  0  0  0  0  0  0  0  0  0  0
   36.5490   29.0360   32.0310 C   0  0  0  0  0  0  0  0  0  0  0  0
   36.0670   27.7410   35.0250 H   0  0  0  0  0  0  0  0  0  0  0  0
   37.1100   29.1320   34.6220 H   0  0  0  0  0  0  0  0  0  0  0  0
   35.2100   30.2390   35.1440 H   0  0  0  0  0  0  0  0  0  0  0  0
   34.1420   28.9560   34.5790 H   0  0  0  0  0  0  0  0  0  0  0  0
   35.2140   31.2220   33.0950 H   0  0  0  0  0  0  0  0  0  0  0  0
   34.4330   28.6430   31.8440 H   0  0  0  0  0  0  0  0  0  0  0  0
   35.0480   30.1810   31.0290 H   0  0  0  0  0  0  0  0  0  0  0  0
   37.2120   29.8570   32.3490 H   0  0  0  0  0  0  0  0  0  0  0  0
   36.8770   28.6290   31.0550 H   0  0  0  0  0  0  0  0  0  0  0  0
   38.4710   24.0000   34.7650 C   0  0  0  0  0  0  0  0  0  0  0  0
   39.5290   23.1680   34.4860 C   0  0  0  0  0  0  0  0  0  0  0  0
   40.2290   22.4900   35.4660 C   0  0  0  0  0  0  0  0  0  0  0  0
   39.8050   22.6950   36.7410 N   0  0  0  0  0  0  0  0  0  0  0  0
   38.7670   23.5110   37.0100 C   0  0  0  0  0  0  0  0  0  0  0  0
   38.0820   24.1760   36.0420 N   0  0  0  0  0  0  0  0  0  0  0  0
   39.8420   23.0270   33.4600 H   0  0  0  0  0  0  0  0  0  0  0  0
   42.9880   20.5810   35.9000 H   0  0  0  0  0  0  0  0  0  0  0  0
   42.1700   21.2420   36.2140 C   0  0  0  0  0  0  0  0  0  0  0  0
   42.0690   21.5690   37.4080 O   0  0  0  0  0  0  0  0  0  0  0  0
   41.3200   21.6350   35.1650 N   0  0  0  0  0  0  0  0  0  0  0  0
   41.4400   21.3390   34.1830 H   0  0  0  0  0  0  0  0  0  0  0  0
   38.3440   23.7000   38.4130 C   0  0  0  0  0  0  0  0  0  0  0  0
   37.3020   22.8580   38.7360 F   0  0  0  0  0  0  0  0  0  0  0  0
   37.9130   25.0160   38.5800 F   0  0  0  0  0  0  0  0  0  0  0  0
   39.4280   23.5430   39.2490 F   0  0  0  0  0  0  0  0  0  0  0  0
  1  9  1  0  0  0  0
  1  6  1  0  0  0  0
  2  1  2  0  0  0  0
  3  2  1  0  0  0  0
  3  4  2  0  0  0  0
  4  5  1  0  0  0  0
  5  6  2  0  0  0  0
  5 24  1  0  0  0  0
  7  2  1  0  0  0  0
  8  3  1  0  0  0  0
  9 10  1  0  0  0  0
 10 16  1  0  0  0  0
 10 15  1  0  0  0  0
 11 10  1  0  0  0  0
 11 18  1  0  0  0  0
 11 17  1  0  0  0  0
 12 11  1  0  0  0  0
 13 14  1  0  0  0  0
 13 12  1  0  0  0  0
 14 22  1  0  0  0  0
 14  9  1  0  0  0  0
 19 12  1  0  0  0  0
 20 13  1  0  0  0  0
 21 13  1  0  0  0  0
 23 14  1  0  0  0  0
 24 29  1  0  0  0  0
 25 24  2  0  0  0  0
 25 26  1  0  0  0  0
 26 27  2  0  0  0  0
 27 28  1  0  0  0  0
 28 36  1  0  0  0  0
 29 28  2  0  0  0  0
 30 25  1  0  0  0  0
 31 32  1  0  0  0  0
 32 33  2  0  0  0  0
 34 26  1  0  0  0  0
 34 32  1  0  0  0  0
 35 34  1  0  0  0  0
 36 38  1  0  0  0  0
 36 37  1  0  0  0  0
 36 39  1  0  0  0  0
M  END
>  <minimizedAffinity>
-6.05742121

$$$$

 OpenBabel03272504363D

 39 41  0  0  0  0  0  0  0  0999 V2000
   37.2690   27.2820   32.3530 C   0  0  0  0  0  0  0  0  0  0  0  0
   36.5410   28.2850   32.9740 C   0  0  0  0  0  0  0  0  0  0  0  0
   36.4010   28.2730   34.3570 C   0  0  0  0  0  0  0  0  0  0  0  0
   36.9910   27.2650   35.0430 N   0  0  0  0  0  0  0  0  0  0  0  0
   37.6990   26.2940   34.4030 C   0  0  0  0  0  0  0  0  0  0  0  0
   37.8410   26.2950   33.0720 N   0  0  0  0  0  0  0  0  0  0  0  0
   36.0890   29.0670   32.3930 H   0  0  0  0  0  0  0  0  0  0  0  0
   35.8420   29.0410   34.8430 H   0  0  0  0  0  0  0  0  0  0  0  0
   37.4430   27.2470   30.9430 N   0  0  0  0  0  0  0  0  0  0  0  0
   38.5350   26.5030   30.3160 C   0  0  0  0  0  0  0  0  0  0  0  0
   39.2300   27.2360   29.2180 C   0  0  0  0  0  0  0  0  0  0  0  0
   38.4830   28.1690   28.4860 N   0  0  0  0  0  0  0  0  0  0  0  0
   37.5400   28.9240   29.2880 C   0  0  0  0  0  0  0  0  0  0  0  0
   36.6540   27.8770   29.9450 C   0  0  0  0  0  0  0  0  0  0  0  0
   39.2140   26.1430   31.0910 H   0  0  0  0  0  0  0  0  0  0  0  0
   38.0360   25.6150   29.8590 H   0  0  0  0  0  0  0  0  0  0  0  0
   39.6280   26.4670   28.5000 H   0  0  0  0  0  0  0  0  0  0  0  0
   40.1420   27.7030   29.6470 H   0  0  0  0  0  0  0  0  0  0  0  0
   38.0990   27.8710   27.5780 H   0  0  0  0  0  0  0  0  0  0  0  0
   38.0770   29.4980   30.0640 H   0  0  0  0  0  0  0  0  0  0  0  0
   36.9030   29.5510   28.6410 H   0  0  0  0  0  0  0  0  0  0  0  0
   36.3090   27.1320   29.2110 H   0  0  0  0  0  0  0  0  0  0  0  0
   35.7900   28.3850   30.4160 H   0  0  0  0  0  0  0  0  0  0  0  0
   38.3170   25.2290   35.1850 C   0  0  0  0  0  0  0  0  0  0  0  0
   39.2290   24.3810   34.6070 C   0  0  0  0  0  0  0  0  0  0  0  0
   39.8450   23.3560   35.3010 C   0  0  0  0  0  0  0  0  0  0  0  0
   39.4900   23.2330   36.6070 N   0  0  0  0  0  0  0  0  0  0  0  0
   38.5940   24.0680   37.1700 C   0  0  0  0  0  0  0  0  0  0  0  0
   37.9920   25.0740   36.4830 N   0  0  0  0  0  0  0  0  0  0  0  0
   39.4910   24.5060   33.5640 H   0  0  0  0  0  0  0  0  0  0  0  0
   42.2960   21.0460   34.9780 H   0  0  0  0  0  0  0  0  0  0  0  0
   41.5950   21.6900   35.5230 C   0  0  0  0  0  0  0  0  0  0  0  0
   41.5760   21.6620   36.7650 O   0  0  0  0  0  0  0  0  0  0  0  0
   40.7870   22.4860   34.6920 N   0  0  0  0  0  0  0  0  0  0  0  0
   40.8350   22.4790   33.6610 H   0  0  0  0  0  0  0  0  0  0  0  0
   38.2420   23.8910   38.5940 C   0  0  0  0  0  0  0  0  0  0  0  0
   39.3500   23.5640   39.3440 F   0  0  0  0  0  0  0  0  0  0  0  0
   37.3170   22.8520   38.7030 F   0  0  0  0  0  0  0  0  0  0  0  0
   37.6050   25.0220   39.0580 F   0  0  0  0  0  0  0  0  0  0  0  0
  1  2  2  0  0  0  0
  1  6  1  0  0  0  0
  2  3  1  0  0  0  0
  3  8  1  0  0  0  0
  3  4  2  0  0  0  0
  5  4  1  0  0  0  0
  5 24  1  0  0  0  0
  6  5  2  0  0  0  0
  7  2  1  0  0  0  0
  9  1  1  0  0  0  0
 10  9  1  0  0  0  0
 10 15  1  0  0  0  0
 11 18  1  0  0  0  0
 11 10  1  0  0  0  0
 12 11  1  0  0  0  0
 12 13  1  0  0  0  0
 13 14  1  0  0  0  0
 13 20  1  0  0  0  0
 14 23  1  0  0  0  0
 14  9  1  0  0  0  0
 16 10  1  0  0  0  0
 17 11  1  0  0  0  0
 19 12  1  0  0  0  0
 21 13  1  0  0  0  0
 22 14  1  0  0  0  0
 24 29  1  0  0  0  0
 25 24  2  0  0  0  0
 25 26  1  0  0  0  0
 26 27  2  0  0  0  0
 27 28  1  0  0  0  0
 28 36  1  0  0  0  0
 29 28  2  0  0  0  0
 30 25  1  0  0  0  0
 31 32  1  0  0  0  0
 32 33  2  0  0  0  0
 34 26  1  0  0  0  0
 34 32  1  0  0  0  0
 35 34  1  0  0  0  0
 36 38  1  0  0  0  0
 36 39  1  0  0  0  0
 36 37  1  0  0  0  0
M  END
>  <minimizedAffinity>
-6.05607796

$$$$

 OpenBabel03272504363D

 39 41  0  0  0  0  0  0  0  0999 V2000
   36.3290   22.1990   31.7980 C   0  0  0  0  0  0  0  0  0  0  0  0
   35.9730   23.3920   31.1890 C   0  0  0  0  0  0  0  0  0  0  0  0
   36.5050   24.5870   31.6590 C   0  0  0  0  0  0  0  0  0  0  0  0
   37.3600   24.5290   32.7070 N   0  0  0  0  0  0  0  0  0  0  0  0
   37.6900   23.3400   33.2840 C   0  0  0  0  0  0  0  0  0  0  0  0
   37.1840   22.1830   32.8400 N   0  0  0  0  0  0  0  0  0  0  0  0
   35.2920   23.3950   30.3590 H   0  0  0  0  0  0  0  0  0  0  0  0
   36.2360   25.5100   31.1950 H   0  0  0  0  0  0  0  0  0  0  0  0
   35.8150   20.9500   31.3570 N   0  0  0  0  0  0  0  0  0  0  0  0
   34.6440   20.3320   31.9780 C   0  0  0  0  0  0  0  0  0  0  0  0
   34.7820   18.8690   32.2340 C   0  0  0  0  0  0  0  0  0  0  0  0
   35.6120   18.1340   31.3750 N   0  0  0  0  0  0  0  0  0  0  0  0
   36.8050   18.8470   30.9620 C   0  0  0  0  0  0  0  0  0  0  0  0
   36.2980   20.1230   30.3090 C   0  0  0  0  0  0  0  0  0  0  0  0
   34.3690   20.9010   32.8670 H   0  0  0  0  0  0  0  0  0  0  0  0
   33.8320   20.4620   31.2240 H   0  0  0  0  0  0  0  0  0  0  0  0
   33.7510   18.4210   32.1910 H   0  0  0  0  0  0  0  0  0  0  0  0
   35.0890   18.7380   33.2940 H   0  0  0  0  0  0  0  0  0  0  0  0
   35.1660   17.6090   30.6090 H   0  0  0  0  0  0  0  0  0  0  0  0
   37.4200   19.0990   31.8440 H   0  0  0  0  0  0  0  0  0  0  0  0
   37.3510   18.2680   30.1980 H   0  0  0  0  0  0  0  0  0  0  0  0
   35.4870   19.9080   29.5950 H   0  0  0  0  0  0  0  0  0  0  0  0
   37.1430   20.6230   29.7960 H   0  0  0  0  0  0  0  0  0  0  0  0
   38.6150   23.3270   34.4120 C   0  0  0  0  0  0  0  0  0  0  0  0
   39.9560   23.1060   34.2100 C   0  0  0  0  0  0  0  0  0  0  0  0
   40.8760   23.0830   35.2410 C   0  0  0  0  0  0  0  0  0  0  0  0
   40.3720   23.2960   36.4840 N   0  0  0  0  0  0  0  0  0  0  0  0
   39.0560   23.5120   36.6780 C   0  0  0  0  0  0  0  0  0  0  0  0
   38.1550   23.5330   35.6610 N   0  0  0  0  0  0  0  0  0  0  0  0
   40.3260   22.9410   33.2060 H   0  0  0  0  0  0  0  0  0  0  0  0
   44.2100   22.9540   35.8040 H   0  0  0  0  0  0  0  0  0  0  0  0
   43.1610   23.1600   36.0530 C   0  0  0  0  0  0  0  0  0  0  0  0
   42.8750   23.6220   37.1700 O   0  0  0  0  0  0  0  0  0  0  0  0
   42.2590   22.8540   35.0190 N   0  0  0  0  0  0  0  0  0  0  0  0
   42.5390   22.4700   34.1020 H   0  0  0  0  0  0  0  0  0  0  0  0
   38.5580   23.7370   38.0520 C   0  0  0  0  0  0  0  0  0  0  0  0
   39.5020   23.3770   38.9880 F   0  0  0  0  0  0  0  0  0  0  0  0
   37.4210   22.9530   38.2510 F   0  0  0  0  0  0  0  0  0  0  0  0
   38.1510   25.0460   38.1890 F   0  0  0  0  0  0  0  0  0  0  0  0
  1  6  1  0  0  0  0
  2  3  1  0  0  0  0
  2  1  2  0  0  0  0
  3  4  2  0  0  0  0
  4  5  1  0  0  0  0
  5 24  1  0  0  0  0
  6  5  2  0  0  0  0
  7  2  1  0  0  0  0
  8  3  1  0  0  0  0
  9  1  1  0  0  0  0
  9 10  1  0  0  0  0
 10 11  1  0  0  0  0
 10 15  1  0  0  0  0
 11 18  1  0  0  0  0
 12 11  1  0  0  0  0
 13 12  1  0  0  0  0
 13 20  1  0  0  0  0
 14 13  1  0  0  0  0
 14  9  1  0  0  0  0
 16 10  1  0  0  0  0
 17 11  1  0  0  0  0
 19 12  1  0  0  0  0
 21 13  1  0  0  0  0
 22 14  1  0  0  0  0
 23 14  1  0  0  0  0
 24 29  1  0  0  0  0
 25 24  2  0  0  0  0
 25 26  1  0  0  0  0
 26 27  2  0  0  0  0
 27 28  1  0  0  0  0
 28 36  1  0  0  0  0
 29 28  2  0  0  0  0
 30 25  1  0  0  0  0
 31 32  1  0  0  0  0
 32 33  2  0  0  0  0
 34 26  1  0  0  0  0
 34 32  1  0  0  0  0
 35 34  1  0  0  0  0
 36 39  1  0  0  0  0
 36 38  1  0  0  0  0
 36 37  1  0  0  0  0
M  END
>  <minimizedAffinity>
-5.91730738

$$$$

 OpenBabel03272504363D

 39 41  0  0  0  0  0  0  0  0999 V2000
   35.9390   28.5680   33.9210 C   0  0  0  0  0  0  0  0  0  0  0  0
   35.7180   28.3920   32.5640 C   0  0  0  0  0  0  0  0  0  0  0  0
   36.3090   27.3200   31.9080 C   0  0  0  0  0  0  0  0  0  0  0  0
   37.0860   26.4830   32.6370 N   0  0  0  0  0  0  0  0  0  0  0  0
   37.2840   26.6840   33.9690 C   0  0  0  0  0  0  0  0  0  0  0  0
   36.7200   27.7140   34.6120 N   0  0  0  0  0  0  0  0  0  0  0  0
   35.0940   29.0780   32.0220 H   0  0  0  0  0  0  0  0  0  0  0  0
   36.1450   27.1760   30.8630 H   0  0  0  0  0  0  0  0  0  0  0  0
   35.3580   29.6490   34.6400 N   0  0  0  0  0  0  0  0  0  0  0  0
   33.9110   29.8370   34.7190 C   0  0  0  0  0  0  0  0  0  0  0  0
   33.4610   31.2460   34.5260 C   0  0  0  0  0  0  0  0  0  0  0  0
   34.3400   32.2670   34.9100 N   0  0  0  0  0  0  0  0  0  0  0  0
   35.7330   31.9760   34.6330 C   0  0  0  0  0  0  0  0  0  0  0  0
   36.0190   30.6750   35.3660 C   0  0  0  0  0  0  0  0  0  0  0  0
   33.4210   29.1320   34.0450 H   0  0  0  0  0  0  0  0  0  0  0  0
   33.6520   29.5460   35.7650 H   0  0  0  0  0  0  0  0  0  0  0  0
   32.5020   31.3750   35.1000 H   0  0  0  0  0  0  0  0  0  0  0  0
   33.1550   31.3610   33.4630 H   0  0  0  0  0  0  0  0  0  0  0  0
   34.1910   32.7080   35.8290 H   0  0  0  0  0  0  0  0  0  0  0  0
   35.8820   31.8340   33.5480 H   0  0  0  0  0  0  0  0  0  0  0  0
   36.3810   32.7590   35.0650 H   0  0  0  0  0  0  0  0  0  0  0  0
   35.6390   30.7100   36.3990 H   0  0  0  0  0  0  0  0  0  0  0  0
   37.1120   30.4940   35.3610 H   0  0  0  0  0  0  0  0  0  0  0  0
   38.1290   25.7560   34.7130 C   0  0  0  0  0  0  0  0  0  0  0  0
   39.3150   25.3140   34.1800 C   0  0  0  0  0  0  0  0  0  0  0  0
   40.1530   24.4360   34.8400 C   0  0  0  0  0  0  0  0  0  0  0  0
   39.7310   24.0280   36.0650 N   0  0  0  0  0  0  0  0  0  0  0  0
   38.5660   24.4640   36.5840 C   0  0  0  0  0  0  0  0  0  0  0  0
   37.7450   25.3280   35.9310 N   0  0  0  0  0  0  0  0  0  0  0  0
   39.6230   25.6590   33.2010 H   0  0  0  0  0  0  0  0  0  0  0  0
   43.2300   23.0460   34.6160 H   0  0  0  0  0  0  0  0  0  0  0  0
   42.3110   23.3640   35.1250 C   0  0  0  0  0  0  0  0  0  0  0  0
   42.1810   23.1560   36.3430 O   0  0  0  0  0  0  0  0  0  0  0  0
   41.3770   23.9880   34.2790 N   0  0  0  0  0  0  0  0  0  0  0  0
   41.5250   24.1420   33.2680 H   0  0  0  0  0  0  0  0  0  0  0  0
   38.1510   23.9890   37.9210 C   0  0  0  0  0  0  0  0  0  0  0  0
   37.8140   25.0440   38.7410 F   0  0  0  0  0  0  0  0  0  0  0  0
   39.2170   23.3030   38.5050 F   0  0  0  0  0  0  0  0  0  0  0  0
   37.1300   23.0730   37.7920 F   0  0  0  0  0  0  0  0  0  0  0  0
  1  6  1  0  0  0  0
  1  9  1  0  0  0  0
  2  1  2  0  0  0  0
  3  2  1  0  0  0  0
  3  4  2  0  0  0  0
  4  5  1  0  0  0  0
  5  6  2  0  0  0  0
  5 24  1  0  0  0  0
  7  2  1  0  0  0  0
  8  3  1  0  0  0  0
  9 10  1  0  0  0  0
  9 14  1  0  0  0  0
 10 16  1  0  0  0  0
 11 10  1  0  0  0  0
 11 12  1  0  0  0  0
 11 17  1  0  0  0  0
 12 19  1  0  0  0  0
 13 12  1  0  0  0  0
 13 21  1  0  0  0  0
 13 14  1  0  0  0  0
 14 22  1  0  0  0  0
 15 10  1  0  0  0  0
 18 11  1  0  0  0  0
 20 13  1  0  0  0  0
 23 14  1  0  0  0  0
 24 29  1  0  0  0  0
 25 24  2  0  0  0  0
 25 26  1  0  0  0  0
 26 27  2  0  0  0  0
 27 28  1  0  0  0  0
 28 36  1  0  0  0  0
 29 28  2  0  0  0  0
 30 25  1  0  0  0  0
 31 32  1  0  0  0  0
 32 33  2  0  0  0  0
 34 26  1  0  0  0  0
 34 32  1  0  0  0  0
 35 34  1  0  0  0  0
 36 38  1  0  0  0  0
 36 37  1  0  0  0  0
 39 36  1  0  0  0  0
M  END
>  <minimizedAffinity>
-5.87551451

$$$$

 OpenBabel03272504363D

 39 41  0  0  0  0  0  0  0  0999 V2000
   37.7680   25.1490   33.9930 C   0  0  0  0  0  0  0  0  0  0  0  0
   37.5620   24.3250   32.8980 C   0  0  0  0  0  0  0  0  0  0  0  0
   36.9470   24.8380   31.7620 C   0  0  0  0  0  0  0  0  0  0  0  0
   36.5720   26.1400   31.7800 N   0  0  0  0  0  0  0  0  0  0  0  0
   36.7890   26.9220   32.8730 C   0  0  0  0  0  0  0  0  0  0  0  0
   37.3800   26.4400   33.9730 N   0  0  0  0  0  0  0  0  0  0  0  0
   37.8750   23.2980   32.9240 H   0  0  0  0  0  0  0  0  0  0  0  0
   36.7840   24.2110   30.9140 H   0  0  0  0  0  0  0  0  0  0  0  0
   38.3920   24.6740   35.1800 N   0  0  0  0  0  0  0  0  0  0  0  0
   39.4890   23.7080   35.1440 C   0  0  0  0  0  0  0  0  0  0  0  0
   39.3770   22.6130   36.1510 C   0  0  0  0  0  0  0  0  0  0  0  0
   38.7090   22.8970   37.3500 N   0  0  0  0  0  0  0  0  0  0  0  0
   37.5570   23.7620   37.1870 C   0  0  0  0  0  0  0  0  0  0  0  0
   38.0970   25.0200   36.5240 C   0  0  0  0  0  0  0  0  0  0  0  0
   39.6110   23.3430   34.1230 H   0  0  0  0  0  0  0  0  0  0  0  0
   40.3930   24.3080   35.4040 H   0  0  0  0  0  0  0  0  0  0  0  0
   40.4220   22.2810   36.4040 H   0  0  0  0  0  0  0  0  0  0  0  0
   38.9300   21.7310   35.6440 H   0  0  0  0  0  0  0  0  0  0  0  0
   39.2810   23.1310   38.1740 H   0  0  0  0  0  0  0  0  0  0  0  0
   36.8130   23.2830   36.5250 H   0  0  0  0  0  0  0  0  0  0  0  0
   37.1490   24.0450   38.1720 H   0  0  0  0  0  0  0  0  0  0  0  0
   39.0080   25.3750   37.0310 H   0  0  0  0  0  0  0  0  0  0  0  0
   37.3120   25.8010   36.5480 H   0  0  0  0  0  0  0  0  0  0  0  0
   36.3680   28.3190   32.8450 C   0  0  0  0  0  0  0  0  0  0  0  0
   36.3110   29.0050   31.6570 C   0  0  0  0  0  0  0  0  0  0  0  0
   35.9190   30.3280   31.5730 C   0  0  0  0  0  0  0  0  0  0  0  0
   35.5890   30.9200   32.7500 N   0  0  0  0  0  0  0  0  0  0  0  0
   35.6470   30.2430   33.9140 C   0  0  0  0  0  0  0  0  0  0  0  0
   36.0330   28.9420   33.9910 N   0  0  0  0  0  0  0  0  0  0  0  0
   36.5790   28.5040   30.7360 H   0  0  0  0  0  0  0  0  0  0  0  0
   35.1650   32.7210   29.3030 H   0  0  0  0  0  0  0  0  0  0  0  0
   35.1620   32.2440   30.2910 C   0  0  0  0  0  0  0  0  0  0  0  0
   34.5690   32.7920   31.2350 O   0  0  0  0  0  0  0  0  0  0  0  0
   35.8630   31.0260   30.3380 N   0  0  0  0  0  0  0  0  0  0  0  0
   36.3440   30.6040   29.5270 H   0  0  0  0  0  0  0  0  0  0  0  0
   35.2790   30.9330   35.1680 C   0  0  0  0  0  0  0  0  0  0  0  0
   34.0880   30.4540   35.6680 F   0  0  0  0  0  0  0  0  0  0  0  0
   35.1280   32.2950   34.9030 F   0  0  0  0  0  0  0  0  0  0  0  0
   36.3120   30.8310   36.0740 F   0  0  0  0  0  0  0  0  0  0  0  0
  1  9  1  0  0  0  0
  2  7  1  0  0  0  0
  2  1  2  0  0  0  0
  3  4  2  0  0  0  0
  3  2  1  0  0  0  0
  4  5  1  0  0  0  0
  5  6  2  0  0  0  0
  6  1  1  0  0  0  0
  8  3  1  0  0  0  0
  9 14  1  0  0  0  0
 10  9  1  0  0  0  0
 10 16  1  0  0  0  0
 10 11  1  0  0  0  0
 11 17  1  0  0  0  0
 11 12  1  0  0  0  0
 12 19  1  0  0  0  0
 13 12  1  0  0  0  0
 13 21  1  0  0  0  0
 14 23  1  0  0  0  0
 14 22  1  0  0  0  0
 14 13  1  0  0  0  0
 15 10  1  0  0  0  0
 18 11  1  0  0  0  0
 20 13  1  0  0  0  0
 24  5  1  0  0  0  0
 24 29  1  0  0  0  0
 25 24  2  0  0  0  0
 26 25  1  0  0  0  0
 26 27  2  0  0  0  0
 27 28  1  0  0  0  0
 28 29  2  0  0  0  0
 28 36  1  0  0  0  0
 30 25  1  0  0  0  0
 31 32  1  0  0  0  0
 32 34  1  0  0  0  0
 32 33  2  0  0  0  0
 34 26  1  0  0  0  0
 35 34  1  0  0  0  0
 36 37  1  0  0  0  0
 36 39  1  0  0  0  0
 38 36  1  0  0  0  0
M  END
>  <minimizedAffinity>
-5.73724747

$$$$

 OpenBabel03272504363D

 39 41  0  0  0  0  0  0  0  0999 V2000
   36.1190   22.2580   31.6610 C   0  0  0  0  0  0  0  0  0  0  0  0
   35.5040   23.3940   31.1590 C   0  0  0  0  0  0  0  0  0  0  0  0
   35.9510   24.6470   31.5600 C   0  0  0  0  0  0  0  0  0  0  0  0
   36.9820   24.7010   32.4360 N   0  0  0  0  0  0  0  0  0  0  0  0
   37.5650   23.5650   32.9110 C   0  0  0  0  0  0  0  0  0  0  0  0
   37.1440   22.3520   32.5320 N   0  0  0  0  0  0  0  0  0  0  0  0
   34.6890   23.3080   30.4650 H   0  0  0  0  0  0  0  0  0  0  0  0
   35.4830   25.5280   31.1790 H   0  0  0  0  0  0  0  0  0  0  0  0
   35.7020   20.9520   31.2840 N   0  0  0  0  0  0  0  0  0  0  0  0
   34.5680   20.2870   31.9230 C   0  0  0  0  0  0  0  0  0  0  0  0
   34.8060   18.8540   32.2630 C   0  0  0  0  0  0  0  0  0  0  0  0
   35.6990   18.1340   31.4570 N   0  0  0  0  0  0  0  0  0  0  0  0
   36.8450   18.9070   31.0200 C   0  0  0  0  0  0  0  0  0  0  0  0
   36.2600   20.1060   30.2900 C   0  0  0  0  0  0  0  0  0  0  0  0
   34.2390   20.8820   32.7770 H   0  0  0  0  0  0  0  0  0  0  0  0
   33.7610   20.3160   31.1540 H   0  0  0  0  0  0  0  0  0  0  0  0
   33.8100   18.3310   32.2330 H   0  0  0  0  0  0  0  0  0  0  0  0
   35.1040   18.8030   33.3320 H   0  0  0  0  0  0  0  0  0  0  0  0
   35.3040   17.5370   30.7170 H   0  0  0  0  0  0  0  0  0  0  0  0
   37.4270   19.2510   31.8950 H   0  0  0  0  0  0  0  0  0  0  0  0
   37.4440   18.3270   30.2970 H   0  0  0  0  0  0  0  0  0  0  0  0
   35.4790   19.7940   29.5790 H   0  0  0  0  0  0  0  0  0  0  0  0
   37.0760   20.6350   29.7610 H   0  0  0  0  0  0  0  0  0  0  0  0
   38.6740   23.6720   33.8520 C   0  0  0  0  0  0  0  0  0  0  0  0
   38.8370   22.7380   34.8450 C   0  0  0  0  0  0  0  0  0  0  0  0
   39.8690   22.7900   35.7630 C   0  0  0  0  0  0  0  0  0  0  0  0
   40.7250   23.8370   35.6270 N   0  0  0  0  0  0  0  0  0  0  0  0
   40.5600   24.7520   34.6510 C   0  0  0  0  0  0  0  0  0  0  0  0
   39.5440   24.6960   33.7510 N   0  0  0  0  0  0  0  0  0  0  0  0
   38.1380   21.9150   34.9260 H   0  0  0  0  0  0  0  0  0  0  0  0
   41.3000   20.9800   38.2380 H   0  0  0  0  0  0  0  0  0  0  0  0
   41.2560   21.7580   37.4640 C   0  0  0  0  0  0  0  0  0  0  0  0
   42.2470   22.4810   37.2660 O   0  0  0  0  0  0  0  0  0  0  0  0
   40.0270   21.8180   36.7840 N   0  0  0  0  0  0  0  0  0  0  0  0
   39.2270   21.1950   36.9800 H   0  0  0  0  0  0  0  0  0  0  0  0
   41.5190   25.8720   34.5460 C   0  0  0  0  0  0  0  0  0  0  0  0
   42.6090   25.6730   35.3660 F   0  0  0  0  0  0  0  0  0  0  0  0
   40.8820   27.0490   34.9430 F   0  0  0  0  0  0  0  0  0  0  0  0
   41.8770   26.0550   33.2280 F   0  0  0  0  0  0  0  0  0  0  0  0
  1  6  1  0  0  0  0
  2  3  1  0  0  0  0
  2  1  2  0  0  0  0
  3  4  2  0  0  0  0
  4  5  1  0  0  0  0
  5 24  1  0  0  0  0
  6  5  2  0  0  0  0
  7  2  1  0  0  0  0
  8  3  1  0  0  0  0
  9  1  1  0  0  0  0
  9 10  1  0  0  0  0
 10 11  1  0  0  0  0
 10 15  1  0  0  0  0
 11 18  1  0  0  0  0
 12 11  1  0  0  0  0
 13 12  1  0  0  0  0
 13 20  1  0  0  0  0
 14 13  1  0  0  0  0
 14  9  1  0  0  0  0
 16 10  1  0  0  0  0
 17 11  1  0  0  0  0
 19 12  1  0  0  0  0
 21 13  1  0  0  0  0
 22 14  1  0  0  0  0
 23 14  1  0  0  0  0
 24 25  1  0  0  0  0
 25 30  1  0  0  0  0
 25 26  2  0  0  0  0
 26 34  1  0  0  0  0
 27 26  1  0  0  0  0
 28 27  2  0  0  0  0
 29 24  2  0  0  0  0
 29 28  1  0  0  0  0
 32 31  1  0  0  0  0
 33 32  2  0  0  0  0
 34 35  1  0  0  0  0
 34 32  1  0  0  0  0
 36 28  1  0  0  0  0
 36 38  1  0  0  0  0
 36 37  1  0  0  0  0
 39 36  1  0  0  0  0
M  END
>  <minimizedAffinity>
-5.7116375

$$$$

 OpenBabel03272504363D

 39 41  0  0  0  0  0  0  0  0999 V2000
   37.9090   27.2350   33.7860 C   0  0  0  0  0  0  0  0  0  0  0  0
   38.3370   27.2980   32.4690 C   0  0  0  0  0  0  0  0  0  0  0  0
   37.6290   28.0680   31.5550 C   0  0  0  0  0  0  0  0  0  0  0  0
   36.5360   28.7330   32.0020 N   0  0  0  0  0  0  0  0  0  0  0  0
   36.1420   28.6510   33.3030 C   0  0  0  0  0  0  0  0  0  0  0  0
   36.8160   27.9110   34.1920 N   0  0  0  0  0  0  0  0  0  0  0  0
   39.2090   26.7550   32.1550 H   0  0  0  0  0  0  0  0  0  0  0  0
   37.9510   28.1230   30.5390 H   0  0  0  0  0  0  0  0  0  0  0  0
   38.5970   26.4610   34.7600 N   0  0  0  0  0  0  0  0  0  0  0  0
   39.7900   25.6830   34.4300 C   0  0  0  0  0  0  0  0  0  0  0  0
   39.8110   24.3100   35.0120 C   0  0  0  0  0  0  0  0  0  0  0  0
   39.1330   24.1070   36.2220 N   0  0  0  0  0  0  0  0  0  0  0  0
   37.8930   24.8500   36.3310 C   0  0  0  0  0  0  0  0  0  0  0  0
   38.2860   26.3060   36.1360 C   0  0  0  0  0  0  0  0  0  0  0  0
   39.9370   25.6950   33.3490 H   0  0  0  0  0  0  0  0  0  0  0  0
   40.6290   26.2540   34.8950 H   0  0  0  0  0  0  0  0  0  0  0  0
   40.8890   24.0250   35.1640 H   0  0  0  0  0  0  0  0  0  0  0  0
   39.4530   23.6050   34.2310 H   0  0  0  0  0  0  0  0  0  0  0  0
   39.6880   24.1120   37.0900 H   0  0  0  0  0  0  0  0  0  0  0  0
   37.1950   24.5420   35.5310 H   0  0  0  0  0  0  0  0  0  0  0  0
   37.4700   24.7440   37.3450 H   0  0  0  0  0  0  0  0  0  0  0  0
   39.1610   26.5660   36.7530 H   0  0  0  0  0  0  0  0  0  0  0  0
   37.4220   26.9480   36.4010 H   0  0  0  0  0  0  0  0  0  0  0  0
   34.9590   29.3850   33.7370 C   0  0  0  0  0  0  0  0  0  0  0  0
   33.8030   29.3440   32.9970 C   0  0  0  0  0  0  0  0  0  0  0  0
   32.6540   30.0190   33.3620 C   0  0  0  0  0  0  0  0  0  0  0  0
   32.7340   30.7380   34.5120 N   0  0  0  0  0  0  0  0  0  0  0  0
   33.8710   30.7760   35.2350 C   0  0  0  0  0  0  0  0  0  0  0  0
   34.9980   30.1100   34.8720 N   0  0  0  0  0  0  0  0  0  0  0  0
   33.7710   28.7610   32.0860 H   0  0  0  0  0  0  0  0  0  0  0  0
   29.3930   30.3360   32.5160 H   0  0  0  0  0  0  0  0  0  0  0  0
   30.2660   30.4070   33.1770 C   0  0  0  0  0  0  0  0  0  0  0  0
   30.1270   30.8470   34.3310 O   0  0  0  0  0  0  0  0  0  0  0  0
   31.4650   29.9680   32.5890 N   0  0  0  0  0  0  0  0  0  0  0  0
   31.5370   29.6080   31.6240 H   0  0  0  0  0  0  0  0  0  0  0  0
   33.9060   31.5740   36.4790 C   0  0  0  0  0  0  0  0  0  0  0  0
   33.0420   31.0630   37.4220 F   0  0  0  0  0  0  0  0  0  0  0  0
   33.5140   32.8810   36.1860 F   0  0  0  0  0  0  0  0  0  0  0  0
   35.2020   31.6570   36.9400 F   0  0  0  0  0  0  0  0  0  0  0  0
  1  6  1  0  0  0  0
  1  9  1  0  0  0  0
  2  1  2  0  0  0  0
  3  4  2  0  0  0  0
  3  2  1  0  0  0  0
  4  5  1  0  0  0  0
  5 24  1  0  0  0  0
  5  6  2  0  0  0  0
  7  2  1  0  0  0  0
  8  3  1  0  0  0  0
  9 14  1  0  0  0  0
 10  9  1  0  0  0  0
 10 16  1  0  0  0  0
 10 11  1  0  0  0  0
 11 17  1  0  0  0  0
 11 12  1  0  0  0  0
 12 13  1  0  0  0  0
 12 19  1  0  0  0  0
 13 21  1  0  0  0  0
 14 13  1  0  0  0  0
 14 23  1  0  0  0  0
 14 22  1  0  0  0  0
 15 10  1  0  0  0  0
 18 11  1  0  0  0  0
 20 13  1  0  0  0  0
 24 29  1  0  0  0  0
 25 26  1  0  0  0  0
 25 24  2  0  0  0  0
 26 27  2  0  0  0  0
 27 28  1  0  0  0  0
 28 36  1  0  0  0  0
 29 28  2  0  0  0  0
 30 25  1  0  0  0  0
 31 32  1  0  0  0  0
 32 33  2  0  0  0  0
 34 32  1  0  0  0  0
 34 26  1  0  0  0  0
 35 34  1  0  0  0  0
 36 39  1  0  0  0  0
 36 37  1  0  0  0  0
 38 36  1  0  0  0  0
M  END
>  <minimizedAffinity>
-5.65731049

$$$$

 OpenBabel03272504363D

 39 41  0  0  0  0  0  0  0  0999 V2000
   40.3300   24.6470   35.0480 C   0  0  0  0  0  0  0  0  0  0  0  0
   41.7140   24.7290   35.0600 C   0  0  0  0  0  0  0  0  0  0  0  0
   42.3560   25.5820   34.1700 C   0  0  0  0  0  0  0  0  0  0  0  0
   41.5880   26.3040   33.3200 N   0  0  0  0  0  0  0  0  0  0  0  0
   40.2300   26.2010   33.3350 C   0  0  0  0  0  0  0  0  0  0  0  0
   39.6000   25.3820   34.1870 N   0  0  0  0  0  0  0  0  0  0  0  0
   42.2870   24.1390   35.7500 H   0  0  0  0  0  0  0  0  0  0  0  0
   43.4210   25.6510   34.1710 H   0  0  0  0  0  0  0  0  0  0  0  0
   39.6240   23.7910   35.9370 N   0  0  0  0  0  0  0  0  0  0  0  0
   38.3790   24.2030   36.5830 C   0  0  0  0  0  0  0  0  0  0  0  0
   38.2920   23.8580   38.0310 C   0  0  0  0  0  0  0  0  0  0  0  0
   38.9880   22.7240   38.4720 N   0  0  0  0  0  0  0  0  0  0  0  0
   40.2730   22.5380   37.8260 C   0  0  0  0  0  0  0  0  0  0  0  0
   39.9620   22.4720   36.3380 C   0  0  0  0  0  0  0  0  0  0  0  0
   38.2050   25.2620   36.3810 H   0  0  0  0  0  0  0  0  0  0  0  0
   37.5880   23.6200   36.0540 H   0  0  0  0  0  0  0  0  0  0  0  0
   37.2040   23.7170   38.2790 H   0  0  0  0  0  0  0  0  0  0  0  0
   38.5870   24.7580   38.6130 H   0  0  0  0  0  0  0  0  0  0  0  0
   38.4580   21.8480   38.5830 H   0  0  0  0  0  0  0  0  0  0  0  0
   40.9290   23.4020   38.0310 H   0  0  0  0  0  0  0  0  0  0  0  0
   40.7150   21.5710   38.1230 H   0  0  0  0  0  0  0  0  0  0  0  0
   39.1200   21.7900   36.1390 H   0  0  0  0  0  0  0  0  0  0  0  0
   40.8680   22.1360   35.7980 H   0  0  0  0  0  0  0  0  0  0  0  0
   39.4440   26.9990   32.4010 C   0  0  0  0  0  0  0  0  0  0  0  0
   39.9690   27.3690   31.1870 C   0  0  0  0  0  0  0  0  0  0  0  0
   39.2690   28.1240   30.2650 C   0  0  0  0  0  0  0  0  0  0  0  0
   38.0120   28.4860   30.6330 N   0  0  0  0  0  0  0  0  0  0  0  0
   37.5010   28.1210   31.8260 C   0  0  0  0  0  0  0  0  0  0  0  0
   38.1930   27.3780   32.7290 N   0  0  0  0  0  0  0  0  0  0  0  0
   40.9740   27.0650   30.9240 H   0  0  0  0  0  0  0  0  0  0  0  0
   39.4620   29.2510   27.0800 H   0  0  0  0  0  0  0  0  0  0  0  0
   38.9570   28.9820   28.0170 C   0  0  0  0  0  0  0  0  0  0  0  0
   37.7260   29.1190   28.1120 O   0  0  0  0  0  0  0  0  0  0  0  0
   39.8240   28.5000   29.0140 N   0  0  0  0  0  0  0  0  0  0  0  0
   40.8450   28.4010   28.8940 H   0  0  0  0  0  0  0  0  0  0  0  0
   36.1280   28.5400   32.1790 C   0  0  0  0  0  0  0  0  0  0  0  0
   36.0390   28.8820   33.5100 F   0  0  0  0  0  0  0  0  0  0  0  0
   35.2570   27.4760   31.9400 F   0  0  0  0  0  0  0  0  0  0  0  0
   35.7260   29.5600   31.3440 F   0  0  0  0  0  0  0  0  0  0  0  0
  1  2  1  0  0  0  0
  1  9  1  0  0  0  0
  2  7  1  0  0  0  0
  3  8  1  0  0  0  0
  3  2  2  0  0  0  0
  4  5  2  0  0  0  0
  4  3  1  0  0  0  0
  5  6  1  0  0  0  0
  6  1  2  0  0  0  0
  9 14  1  0  0  0  0
  9 10  1  0  0  0  0
 10 11  1  0  0  0  0
 11 17  1  0  0  0  0
 11 12  1  0  0  0  0
 11 18  1  0  0  0  0
 12 19  1  0  0  0  0
 13 20  1  0  0  0  0
 13 21  1  0  0  0  0
 13 12  1  0  0  0  0
 14 13  1  0  0  0  0
 15 10  1  0  0  0  0
 16 10  1  0  0  0  0
 22 14  1  0  0  0  0
 23 14  1  0  0  0  0
 24 29  1  0  0  0  0
 24  5  1  0  0  0  0
 25 24  2  0  0  0  0
 26 27  2  0  0  0  0
 26 25  1  0  0  0  0
 27 28  1  0  0  0  0
 28 36  1  0  0  0  0
 28 29  2  0  0  0  0
 30 25  1  0  0  0  0
 31 32  1  0  0  0  0
 32 33  2  0  0  0  0
 32 34  1  0  0  0  0
 34 26  1  0  0  0  0
 35 34  1  0  0  0  0
 36 37  1  0  0  0  0
 38 36  1  0  0  0  0
 39 36  1  0  0  0  0
M  END
>  <minimizedAffinity>
-5.64054871

$$$$
