
 OpenBabel03272500523D

 41 45  0  0  1  0  0  0  0  0999 V2000
   37.8330   25.7680   35.8850 C   0  0  1  0  0  0  0  0  0  0  0  0
   38.5100   27.1810   36.0600 C   0  0  0  0  0  0  0  0  0  0  0  0
   38.3990   26.4790   34.7400 C   0  0  2  0  0  0  0  0  0  0  0  0
   36.7310   25.8100   36.1030 H   0  0  0  0  0  0  0  0  0  0  0  0
   39.4760   27.1660   36.5810 H   0  0  0  0  0  0  0  0  0  0  0  0
   37.8370   28.0350   36.1830 H   0  0  0  0  0  0  0  0  0  0  0  0
   39.3600   26.1180   34.3190 H   0  0  0  0  0  0  0  0  0  0  0  0
   40.0010   23.0000   36.6520 C   0  0  0  0  0  0  0  0  0  0  0  0
   39.2070   23.0280   37.7970 C   0  0  0  0  0  0  0  0  0  0  0  0
   38.2780   24.0820   37.6580 C   0  0  0  0  0  0  0  0  0  0  0  0
   38.5310   24.6420   36.4690 N   0  0  0  0  0  0  0  0  0  0  0  0
   39.5330   23.9880   35.9230 N   0  0  0  0  0  0  0  0  0  0  0  0
   39.2060   22.4040   38.7000 H   0  0  0  0  0  0  0  0  0  0  0  0
   37.5200   24.3870   38.3470 H   0  0  0  0  0  0  0  0  0  0  0  0
   41.5910   21.7630   35.1550 C   0  0  0  0  0  0  0  0  0  0  0  0
   41.0540   22.0530   36.4500 C   0  0  0  0  0  0  0  0  0  0  0  0
   41.5970   21.3720   37.5180 C   0  0  0  0  0  0  0  0  0  0  0  0
   42.5990   20.4760   37.2910 N   0  0  0  0  0  0  0  0  0  0  0  0
   43.0770   20.2320   36.0640 C   0  0  0  0  0  0  0  0  0  0  0  0
   42.5730   20.8790   34.9650 N   0  0  0  0  0  0  0  0  0  0  0  0
   41.1820   22.2820   34.3040 H   0  0  0  0  0  0  0  0  0  0  0  0
   41.2580   21.5230   38.5360 H   0  0  0  0  0  0  0  0  0  0  0  0
   43.8730   19.5230   35.8650 H   0  0  0  0  0  0  0  0  0  0  0  0
   37.4880   27.0450   33.6900 C   0  0  0  0  0  0  0  0  0  0  0  0
   37.3510   26.5630   32.4000 C   0  0  0  0  0  0  0  0  0  0  0  0
   36.4230   27.3290   31.7670 N   0  0  0  0  0  0  0  0  0  0  0  0
   35.9780   28.2770   32.6290 C   0  0  0  0  0  0  0  0  0  0  0  0
   36.6320   28.0970   33.7970 N   0  0  0  0  0  0  0  0  0  0  0  0
   37.8670   25.7300   31.9390 H   0  0  0  0  0  0  0  0  0  0  0  0
   36.1040   27.2060   30.7740 H   0  0  0  0  0  0  0  0  0  0  0  0
   34.9560   29.3290   32.3650 C   0  0  0  0  0  0  0  0  0  0  0  0
   35.0770   30.2260   31.3020 C   0  0  0  0  0  0  0  0  0  0  0  0
   33.5860   31.2750   31.4470 S   0  0  0  0  0  0  0  0  0  0  0  0
   33.0260   30.2890   32.9760 C   0  0  0  0  0  0  0  0  0  0  0  0
   33.8630   29.5270   33.0810 N   0  0  0  0  0  0  0  0  0  0  0  0
   35.8970   30.2490   30.5820 H   0  0  0  0  0  0  0  0  0  0  0  0
   30.0810   29.2180   34.2960 H   0  0  0  0  0  0  0  0  0  0  0  0
   31.0100   29.3210   33.7790 C   0  0  0  0  0  0  0  0  0  0  0  0
   31.3310   28.2730   33.1330 O   0  0  0  0  0  0  0  0  0  0  0  0
   31.8330   30.4840   33.7810 N   0  0  0  0  0  0  0  0  0  0  0  0
   31.5150   31.3110   34.3300 H   0  0  0  0  0  0  0  0  0  0  0  0
  1  2  1  0  0  0  0
  1  4  1  1  0  0  0
  1 11  1  0  0  0  0
  2  6  1  0  0  0  0
  2  5  1  0  0  0  0
  3  7  1  6  0  0  0
  3  1  1  0  0  0  0
  3  2  1  0  0  0  0
  8  9  1  0  0  0  0
  9 13  1  0  0  0  0
 10  9  2  0  0  0  0
 10 14  1  0  0  0  0
 11 10  1  0  0  0  0
 12 11  1  0  0  0  0
 12  8  2  0  0  0  0
 15 16  1  0  0  0  0
 16  8  1  0  0  0  0
 16 17  2  0  0  0  0
 17 22  1  0  0  0  0
 18 17  1  0  0  0  0
 19 18  2  0  0  0  0
 20 15  2  0  0  0  0
 20 19  1  0  0  0  0
 21 15  1  0  0  0  0
 23 19  1  0  0  0  0
 24 28  1  0  0  0  0
 24  3  1  0  0  0  0
 25 24  2  0  0  0  0
 26 25  1  0  0  0  0
 26 27  1  0  0  0  0
 27 28  2  0  0  0  0
 29 25  1  0  0  0  0
 30 26  1  0  0  0  0
 31 27  1  0  0  0  0
 31 35  1  0  0  0  0
 32 33  1  0  0  0  0
 32 31  2  0  0  0  0
 33 34  1  0  0  0  0
 34 35  2  0  0  0  0
 34 40  1  0  0  0  0
 36 32  1  0  0  0  0
 38 40  1  0  0  0  0
 38 37  1  0  0  0  0
 39 38  2  0  0  0  0
 40 41  1  0  0  0  0
M  END
>  <minimizedAffinity>
-6.06159115

$$$$

 OpenBabel03272500523D

 41 45  0  0  1  0  0  0  0  0999 V2000
   34.9660   29.3240   34.4200 C   0  0  1  0  0  0  0  0  0  0  0  0
   34.8490   29.4830   32.8550 C   0  0  0  0  0  0  0  0  0  0  0  0
   36.1140   29.0780   33.5500 C   0  0  2  0  0  0  0  0  0  0  0  0
   34.3330   28.4740   34.7950 H   0  0  0  0  0  0  0  0  0  0  0  0
   34.7520   30.5190   32.5050 H   0  0  0  0  0  0  0  0  0  0  0  0
   34.3430   28.6750   32.3170 H   0  0  0  0  0  0  0  0  0  0  0  0
   36.9250   29.8350   33.5240 H   0  0  0  0  0  0  0  0  0  0  0  0
   33.9560   32.2540   36.2490 C   0  0  0  0  0  0  0  0  0  0  0  0
   35.3410   32.3330   36.3850 C   0  0  0  0  0  0  0  0  0  0  0  0
   35.9090   31.2310   35.7080 C   0  0  0  0  0  0  0  0  0  0  0  0
   34.8810   30.5420   35.1990 N   0  0  0  0  0  0  0  0  0  0  0  0
   33.7730   31.1660   35.5350 N   0  0  0  0  0  0  0  0  0  0  0  0
   35.9840   33.0610   36.8940 H   0  0  0  0  0  0  0  0  0  0  0  0
   36.9430   30.9800   35.6090 H   0  0  0  0  0  0  0  0  0  0  0  0
   31.6410   33.1590   36.6010 C   0  0  0  0  0  0  0  0  0  0  0  0
   33.0560   33.2130   36.8130 C   0  0  0  0  0  0  0  0  0  0  0  0
   33.5330   34.2440   37.5940 C   0  0  0  0  0  0  0  0  0  0  0  0
   32.6480   35.1420   38.1160 N   0  0  0  0  0  0  0  0  0  0  0  0
   31.3300   35.0580   37.8960 C   0  0  0  0  0  0  0  0  0  0  0  0
   30.8010   34.0530   37.1260 N   0  0  0  0  0  0  0  0  0  0  0  0
   31.2450   32.3620   35.9940 H   0  0  0  0  0  0  0  0  0  0  0  0
   34.5860   34.3690   37.8110 H   0  0  0  0  0  0  0  0  0  0  0  0
   30.6120   35.7620   38.3030 H   0  0  0  0  0  0  0  0  0  0  0  0
   36.6270   27.6800   33.3700 C   0  0  0  0  0  0  0  0  0  0  0  0
   36.5120   26.9240   32.2160 C   0  0  0  0  0  0  0  0  0  0  0  0
   37.1130   25.7260   32.4430 N   0  0  0  0  0  0  0  0  0  0  0  0
   37.6010   25.7150   33.7080 C   0  0  0  0  0  0  0  0  0  0  0  0
   37.3000   26.9080   34.2650 N   0  0  0  0  0  0  0  0  0  0  0  0
   36.0380   27.1980   31.2810 H   0  0  0  0  0  0  0  0  0  0  0  0
   37.1870   24.9390   31.7500 H   0  0  0  0  0  0  0  0  0  0  0  0
   38.3400   24.6090   34.3810 C   0  0  0  0  0  0  0  0  0  0  0  0
   39.5500   24.1200   33.8860 C   0  0  0  0  0  0  0  0  0  0  0  0
   40.0000   22.7980   35.0660 S   0  0  0  0  0  0  0  0  0  0  0  0
   38.4200   23.1390   36.0700 C   0  0  0  0  0  0  0  0  0  0  0  0
   37.9460   23.9860   35.4780 N   0  0  0  0  0  0  0  0  0  0  0  0
   40.0620   24.4840   32.9930 H   0  0  0  0  0  0  0  0  0  0  0  0
   37.5130   23.1400   39.3480 H   0  0  0  0  0  0  0  0  0  0  0  0
   37.8330   23.3890   38.3590 C   0  0  0  0  0  0  0  0  0  0  0  0
   38.1000   24.6250   38.2260 O   0  0  0  0  0  0  0  0  0  0  0  0
   37.9620   22.4720   37.2760 N   0  0  0  0  0  0  0  0  0  0  0  0
   37.7280   21.4710   37.4480 H   0  0  0  0  0  0  0  0  0  0  0  0
  1  4  1  1  0  0  0
  1 11  1  0  0  0  0
  2  3  1  0  0  0  0
  2  1  1  0  0  0  0
  3  7  1  1  0  0  0
  3  1  1  0  0  0  0
  5  2  1  0  0  0  0
  6  2  1  0  0  0  0
  8  9  1  0  0  0  0
  8 16  1  0  0  0  0
  9 13  1  0  0  0  0
 10  9  2  0  0  0  0
 11 12  1  0  0  0  0
 11 10  1  0  0  0  0
 12  8  2  0  0  0  0
 14 10  1  0  0  0  0
 15 16  2  0  0  0  0
 15 20  1  0  0  0  0
 16 17  1  0  0  0  0
 17 22  1  0  0  0  0
 17 18  2  0  0  0  0
 19 18  1  0  0  0  0
 19 23  1  0  0  0  0
 20 19  2  0  0  0  0
 21 15  1  0  0  0  0
 24  3  1  0  0  0  0
 24 28  1  0  0  0  0
 25 26  1  0  0  0  0
 25 24  2  0  0  0  0
 26 27  1  0  0  0  0
 27 28  2  0  0  0  0
 27 31  1  0  0  0  0
 29 25  1  0  0  0  0
 30 26  1  0  0  0  0
 31 35  1  0  0  0  0
 32 31  2  0  0  0  0
 32 33  1  0  0  0  0
 33 34  1  0  0  0  0
 34 40  1  0  0  0  0
 35 34  2  0  0  0  0
 36 32  1  0  0  0  0
 38 37  1  0  0  0  0
 39 38  2  0  0  0  0
 40 41  1  0  0  0  0
 40 38  1  0  0  0  0
M  END
>  <minimizedAffinity>
-5.99411964

$$$$

 OpenBabel03272500523D

 41 45  0  0  1  0  0  0  0  0999 V2000
   36.5800   27.7670   31.7190 C   0  0  1  0  0  0  0  0  0  0  0  0
   38.0450   27.2810   32.0410 C   0  0  0  0  0  0  0  0  0  0  0  0
   36.8170   26.5650   32.5160 C   0  0  2  0  0  0  0  0  0  0  0  0
   36.3550   27.6970   30.6200 H   0  0  0  0  0  0  0  0  0  0  0  0
   38.5920   27.9120   32.7530 H   0  0  0  0  0  0  0  0  0  0  0  0
   38.5840   26.7800   31.2310 H   0  0  0  0  0  0  0  0  0  0  0  0
   36.6390   26.6150   33.6090 H   0  0  0  0  0  0  0  0  0  0  0  0
   35.3120   30.3310   33.9040 C   0  0  0  0  0  0  0  0  0  0  0  0
   35.7110   31.0990   32.8120 C   0  0  0  0  0  0  0  0  0  0  0  0
   36.2450   30.2290   31.8370 C   0  0  0  0  0  0  0  0  0  0  0  0
   36.1550   28.9980   32.3540 N   0  0  0  0  0  0  0  0  0  0  0  0
   35.6120   29.1020   33.5470 N   0  0  0  0  0  0  0  0  0  0  0  0
   35.6700   32.1800   32.6260 H   0  0  0  0  0  0  0  0  0  0  0  0
   36.6440   30.4790   30.8780 H   0  0  0  0  0  0  0  0  0  0  0  0
   33.3480   30.6840   35.4250 C   0  0  0  0  0  0  0  0  0  0  0  0
   34.7220   30.8880   35.0820 C   0  0  0  0  0  0  0  0  0  0  0  0
   35.4740   31.6570   35.9440 C   0  0  0  0  0  0  0  0  0  0  0  0
   34.8810   32.1730   37.0580 N   0  0  0  0  0  0  0  0  0  0  0  0
   33.5910   31.9600   37.3470 C   0  0  0  0  0  0  0  0  0  0  0  0
   32.7960   31.2020   36.5240 N   0  0  0  0  0  0  0  0  0  0  0  0
   32.7390   30.0850   34.7670 H   0  0  0  0  0  0  0  0  0  0  0  0
   36.5220   31.8680   35.7700 H   0  0  0  0  0  0  0  0  0  0  0  0
   33.1040   32.3620   38.2280 H   0  0  0  0  0  0  0  0  0  0  0  0
   36.4960   25.2160   31.9420 C   0  0  0  0  0  0  0  0  0  0  0  0
   35.3330   24.8850   31.2690 C   0  0  0  0  0  0  0  0  0  0  0  0
   35.4270   23.5820   30.8930 N   0  0  0  0  0  0  0  0  0  0  0  0
   36.6200   23.0910   31.3150 C   0  0  0  0  0  0  0  0  0  0  0  0
   37.2630   24.0920   31.9530 N   0  0  0  0  0  0  0  0  0  0  0  0
   34.4790   25.5170   31.0570 H   0  0  0  0  0  0  0  0  0  0  0  0
   34.6960   23.0450   30.3630 H   0  0  0  0  0  0  0  0  0  0  0  0
   37.1470   21.7110   31.1190 C   0  0  0  0  0  0  0  0  0  0  0  0
   38.4960   21.4670   30.8520 C   0  0  0  0  0  0  0  0  0  0  0  0
   38.5860   19.6470   30.6990 S   0  0  0  0  0  0  0  0  0  0  0  0
   36.7170   19.5140   31.0340 C   0  0  0  0  0  0  0  0  0  0  0  0
   36.4260   20.6050   31.1690 N   0  0  0  0  0  0  0  0  0  0  0  0
   39.2730   22.2290   30.7650 H   0  0  0  0  0  0  0  0  0  0  0  0
   34.6320   17.3740   32.6590 H   0  0  0  0  0  0  0  0  0  0  0  0
   35.2800   18.1730   32.3690 C   0  0  0  0  0  0  0  0  0  0  0  0
   35.4580   19.0220   33.3000 O   0  0  0  0  0  0  0  0  0  0  0  0
   35.9000   18.3150   31.0950 N   0  0  0  0  0  0  0  0  0  0  0  0
   35.7150   17.5860   30.3730 H   0  0  0  0  0  0  0  0  0  0  0  0
  1  4  1  6  0  0  0
  1  2  1  0  0  0  0
  1 11  1  0  0  0  0
  1  3  1  0  0  0  0
  2  3  1  0  0  0  0
  2  5  1  0  0  0  0
  3  7  1  1  0  0  0
  6  2  1  0  0  0  0
  8 16  1  0  0  0  0
  9  8  1  0  0  0  0
 10 11  1  0  0  0  0
 10  9  2  0  0  0  0
 11 12  1  0  0  0  0
 12  8  2  0  0  0  0
 13  9  1  0  0  0  0
 14 10  1  0  0  0  0
 15 20  1  0  0  0  0
 16 15  2  0  0  0  0
 16 17  1  0  0  0  0
 17 18  2  0  0  0  0
 18 19  1  0  0  0  0
 19 23  1  0  0  0  0
 20 19  2  0  0  0  0
 21 15  1  0  0  0  0
 22 17  1  0  0  0  0
 24 28  1  0  0  0  0
 24  3  1  0  0  0  0
 25 24  2  0  0  0  0
 26 25  1  0  0  0  0
 26 27  1  0  0  0  0
 27 28  2  0  0  0  0
 29 25  1  0  0  0  0
 30 26  1  0  0  0  0
 31 35  1  0  0  0  0
 31 27  1  0  0  0  0
 32 31  2  0  0  0  0
 33 32  1  0  0  0  0
 33 34  1  0  0  0  0
 34 40  1  0  0  0  0
 34 35  2  0  0  0  0
 36 32  1  0  0  0  0
 38 37  1  0  0  0  0
 38 39  2  0  0  0  0
 40 38  1  0  0  0  0
 41 40  1  0  0  0  0
M  END
>  <minimizedAffinity>
-5.98068953

$$$$

 OpenBabel03272500523D

 41 45  0  0  1  0  0  0  0  0999 V2000
   37.7430   26.0670   35.7340 C   0  0  1  0  0  0  0  0  0  0  0  0
   38.5400   27.4240   35.8350 C   0  0  0  0  0  0  0  0  0  0  0  0
   38.3110   26.6980   34.5440 C   0  0  2  0  0  0  0  0  0  0  0  0
   36.6600   26.2060   36.0000 H   0  0  0  0  0  0  0  0  0  0  0  0
   39.5250   27.3430   36.3140 H   0  0  0  0  0  0  0  0  0  0  0  0
   37.9460   28.3340   35.9620 H   0  0  0  0  0  0  0  0  0  0  0  0
   39.2180   26.2470   34.0930 H   0  0  0  0  0  0  0  0  0  0  0  0
   39.7940   23.2230   36.5450 C   0  0  0  0  0  0  0  0  0  0  0  0
   38.9170   23.2230   37.6280 C   0  0  0  0  0  0  0  0  0  0  0  0
   38.0210   24.3020   37.4640 C   0  0  0  0  0  0  0  0  0  0  0  0
   38.3740   24.9030   36.3220 N   0  0  0  0  0  0  0  0  0  0  0  0
   39.4010   24.2500   35.8250 N   0  0  0  0  0  0  0  0  0  0  0  0
   38.8360   22.5640   38.5020 H   0  0  0  0  0  0  0  0  0  0  0  0
   37.2190   24.5970   38.1070 H   0  0  0  0  0  0  0  0  0  0  0  0
   41.4300   21.5700   37.4890 C   0  0  0  0  0  0  0  0  0  0  0  0
   40.8410   22.2620   36.3830 C   0  0  0  0  0  0  0  0  0  0  0  0
   41.3290   21.9650   35.1290 C   0  0  0  0  0  0  0  0  0  0  0  0
   42.3280   21.0440   35.0080 N   0  0  0  0  0  0  0  0  0  0  0  0
   42.8530   20.4160   36.0680 C   0  0  0  0  0  0  0  0  0  0  0  0
   42.4070   20.6730   37.3390 N   0  0  0  0  0  0  0  0  0  0  0  0
   41.0650   21.7860   38.4800 H   0  0  0  0  0  0  0  0  0  0  0  0
   40.9480   22.4350   34.2310 H   0  0  0  0  0  0  0  0  0  0  0  0
   43.6470   19.6810   35.9910 H   0  0  0  0  0  0  0  0  0  0  0  0
   37.4020   27.3090   33.5190 C   0  0  0  0  0  0  0  0  0  0  0  0
   37.4070   27.0180   32.1660 C   0  0  0  0  0  0  0  0  0  0  0  0
   36.4290   27.7590   31.5790 N   0  0  0  0  0  0  0  0  0  0  0  0
   35.8150   28.5040   32.5310 C   0  0  0  0  0  0  0  0  0  0  0  0
   36.4140   28.2240   33.7090 N   0  0  0  0  0  0  0  0  0  0  0  0
   38.0520   26.3330   31.6310 H   0  0  0  0  0  0  0  0  0  0  0  0
   36.1900   27.7540   30.5560 H   0  0  0  0  0  0  0  0  0  0  0  0
   34.6850   29.4570   32.3420 C   0  0  0  0  0  0  0  0  0  0  0  0
   33.5210   29.3860   33.1100 C   0  0  0  0  0  0  0  0  0  0  0  0
   32.4920   30.7550   32.4690 S   0  0  0  0  0  0  0  0  0  0  0  0
   33.8560   31.2130   31.2230 C   0  0  0  0  0  0  0  0  0  0  0  0
   34.6540   30.4380   31.4560 N   0  0  0  0  0  0  0  0  0  0  0  0
   33.3270   28.6580   33.8990 H   0  0  0  0  0  0  0  0  0  0  0  0
   35.1280   34.0630   29.8710 H   0  0  0  0  0  0  0  0  0  0  0  0
   34.9210   33.1950   30.4600 C   0  0  0  0  0  0  0  0  0  0  0  0
   35.7470   33.0430   31.4160 O   0  0  0  0  0  0  0  0  0  0  0  0
   33.8510   32.2820   30.2400 N   0  0  0  0  0  0  0  0  0  0  0  0
   33.2070   32.4610   29.4400 H   0  0  0  0  0  0  0  0  0  0  0  0
  1  2  1  0  0  0  0
  1  4  1  1  0  0  0
  1 11  1  0  0  0  0
  2  6  1  0  0  0  0
  2  5  1  0  0  0  0
  3  7  1  6  0  0  0
  3  1  1  0  0  0  0
  3  2  1  0  0  0  0
  8  9  1  0  0  0  0
  9 13  1  0  0  0  0
 10  9  2  0  0  0  0
 10 14  1  0  0  0  0
 11 10  1  0  0  0  0
 12 11  1  0  0  0  0
 12  8  2  0  0  0  0
 15 21  1  0  0  0  0
 16  8  1  0  0  0  0
 16 15  2  0  0  0  0
 17 16  1  0  0  0  0
 18 17  2  0  0  0  0
 18 19  1  0  0  0  0
 19 20  2  0  0  0  0
 20 15  1  0  0  0  0
 22 17  1  0  0  0  0
 23 19  1  0  0  0  0
 24 28  1  0  0  0  0
 24  3  1  0  0  0  0
 25 24  2  0  0  0  0
 26 25  1  0  0  0  0
 26 27  1  0  0  0  0
 27 28  2  0  0  0  0
 29 25  1  0  0  0  0
 30 26  1  0  0  0  0
 31 27  1  0  0  0  0
 31 32  2  0  0  0  0
 32 36  1  0  0  0  0
 33 32  1  0  0  0  0
 34 35  2  0  0  0  0
 34 33  1  0  0  0  0
 35 31  1  0  0  0  0
 37 38  1  0  0  0  0
 38 39  2  0  0  0  0
 40 38  1  0  0  0  0
 40 34  1  0  0  0  0
 41 40  1  0  0  0  0
M  END
>  <minimizedAffinity>
-5.95457029

$$$$

 OpenBabel03272500523D

 41 45  0  0  1  0  0  0  0  0999 V2000
   36.0780   26.5030   31.6940 C   0  0  1  0  0  0  0  0  0  0  0  0
   35.1480   25.4750   30.9430 C   0  0  0  0  0  0  0  0  0  0  0  0
   36.6090   25.2400   31.1840 C   0  0  2  0  0  0  0  0  0  0  0  0
   35.7840   26.6120   32.7730 H   0  0  0  0  0  0  0  0  0  0  0  0
   34.8270   25.7920   29.9420 H   0  0  0  0  0  0  0  0  0  0  0  0
   34.4780   24.8740   31.5660 H   0  0  0  0  0  0  0  0  0  0  0  0
   37.2430   25.2650   30.2750 H   0  0  0  0  0  0  0  0  0  0  0  0
   37.2270   29.1260   29.5130 C   0  0  0  0  0  0  0  0  0  0  0  0
   36.3950   29.8490   30.3670 C   0  0  0  0  0  0  0  0  0  0  0  0
   35.8480   28.9500   31.3080 C   0  0  0  0  0  0  0  0  0  0  0  0
   36.3520   27.7470   31.0040 N   0  0  0  0  0  0  0  0  0  0  0  0
   37.1410   27.8940   29.9630 N   0  0  0  0  0  0  0  0  0  0  0  0
   36.1340   30.9140   30.4020 H   0  0  0  0  0  0  0  0  0  0  0  0
   35.1710   29.1630   32.1070 H   0  0  0  0  0  0  0  0  0  0  0  0
   39.0620   29.0750   27.8020 C   0  0  0  0  0  0  0  0  0  0  0  0
   37.9510   29.7210   28.4320 C   0  0  0  0  0  0  0  0  0  0  0  0
   37.5970   30.9640   27.9540 C   0  0  0  0  0  0  0  0  0  0  0  0
   38.3080   31.5040   26.9230 N   0  0  0  0  0  0  0  0  0  0  0  0
   39.3410   30.8680   26.3570 C   0  0  0  0  0  0  0  0  0  0  0  0
   39.7380   29.6290   26.7930 N   0  0  0  0  0  0  0  0  0  0  0  0
   39.3580   28.1020   28.1580 H   0  0  0  0  0  0  0  0  0  0  0  0
   36.7710   31.5310   28.3660 H   0  0  0  0  0  0  0  0  0  0  0  0
   39.9180   31.2810   25.5360 H   0  0  0  0  0  0  0  0  0  0  0  0
   37.0230   24.1640   32.1450 C   0  0  0  0  0  0  0  0  0  0  0  0
   36.6150   22.8430   32.0950 C   0  0  0  0  0  0  0  0  0  0  0  0
   37.2180   22.1840   33.1210 N   0  0  0  0  0  0  0  0  0  0  0  0
   37.9920   23.0610   33.8080 C   0  0  0  0  0  0  0  0  0  0  0  0
   37.8660   24.2630   33.2070 N   0  0  0  0  0  0  0  0  0  0  0  0
   35.9410   22.3760   31.3870 H   0  0  0  0  0  0  0  0  0  0  0  0
   37.1030   21.1630   33.3420 H   0  0  0  0  0  0  0  0  0  0  0  0
   38.8360   22.7750   35.0020 C   0  0  0  0  0  0  0  0  0  0  0  0
   40.1560   22.3350   34.8860 C   0  0  0  0  0  0  0  0  0  0  0  0
   40.7030   22.1400   36.6200 S   0  0  0  0  0  0  0  0  0  0  0  0
   38.9940   22.7070   37.2360 C   0  0  0  0  0  0  0  0  0  0  0  0
   38.4450   22.8970   36.2590 N   0  0  0  0  0  0  0  0  0  0  0  0
   40.6860   22.1640   33.9480 H   0  0  0  0  0  0  0  0  0  0  0  0
   37.7730   24.5450   39.8240 H   0  0  0  0  0  0  0  0  0  0  0  0
   38.1440   24.1890   38.8870 C   0  0  0  0  0  0  0  0  0  0  0  0
   38.2080   25.1050   38.0060 O   0  0  0  0  0  0  0  0  0  0  0  0
   38.5370   22.8490   38.6070 N   0  0  0  0  0  0  0  0  0  0  0  0
   38.4610   22.1440   39.3720 H   0  0  0  0  0  0  0  0  0  0  0  0
  1  4  1  1  0  0  0
  2  3  1  0  0  0  0
  2  6  1  0  0  0  0
  2  1  1  0  0  0  0
  3  7  1  6  0  0  0
  3  1  1  0  0  0  0
  3 24  1  0  0  0  0
  5  2  1  0  0  0  0
  8 12  2  0  0  0  0
  8  9  1  0  0  0  0
  9 13  1  0  0  0  0
  9 10  2  0  0  0  0
 10 14  1  0  0  0  0
 11 10  1  0  0  0  0
 11  1  1  0  0  0  0
 12 11  1  0  0  0  0
 15 21  1  0  0  0  0
 15 16  1  0  0  0  0
 16  8  1  0  0  0  0
 17 22  1  0  0  0  0
 17 16  2  0  0  0  0
 18 17  1  0  0  0  0
 19 20  1  0  0  0  0
 19 18  2  0  0  0  0
 20 15  2  0  0  0  0
 23 19  1  0  0  0  0
 24 28  1  0  0  0  0
 25 24  2  0  0  0  0
 25 26  1  0  0  0  0
 26 30  1  0  0  0  0
 26 27  1  0  0  0  0
 27 31  1  0  0  0  0
 28 27  2  0  0  0  0
 29 25  1  0  0  0  0
 31 35  1  0  0  0  0
 32 31  2  0  0  0  0
 32 33  1  0  0  0  0
 33 34  1  0  0  0  0
 34 40  1  0  0  0  0
 35 34  2  0  0  0  0
 36 32  1  0  0  0  0
 38 37  1  0  0  0  0
 39 38  2  0  0  0  0
 40 38  1  0  0  0  0
 40 41  1  0  0  0  0
M  END
>  <minimizedAffinity>
-5.8704958

$$$$

 OpenBabel03272500523D

 41 45  0  0  1  0  0  0  0  0999 V2000
   37.4440   26.8180   32.9880 C   0  0  1  0  0  0  0  0  0  0  0  0
   38.9840   26.9270   33.3100 C   0  0  0  0  0  0  0  0  0  0  0  0
   38.0190   26.1500   34.1540 C   0  0  2  0  0  0  0  0  0  0  0  0
   37.2630   26.2560   32.0310 H   0  0  0  0  0  0  0  0  0  0  0  0
   39.3110   27.9140   33.6620 H   0  0  0  0  0  0  0  0  0  0  0  0
   39.6570   26.3160   32.7010 H   0  0  0  0  0  0  0  0  0  0  0  0
   37.8220   26.5800   35.1570 H   0  0  0  0  0  0  0  0  0  0  0  0
   35.5740   29.6580   34.1670 C   0  0  0  0  0  0  0  0  0  0  0  0
   35.5190   29.8690   32.7910 C   0  0  0  0  0  0  0  0  0  0  0  0
   36.2210   28.8190   32.1600 C   0  0  0  0  0  0  0  0  0  0  0  0
   36.6660   28.0290   33.1440 N   0  0  0  0  0  0  0  0  0  0  0  0
   36.2710   28.5490   34.2850 N   0  0  0  0  0  0  0  0  0  0  0  0
   35.0510   30.6600   32.1920 H   0  0  0  0  0  0  0  0  0  0  0  0
   36.3780   28.6670   31.1130 H   0  0  0  0  0  0  0  0  0  0  0  0
   35.7240   31.4140   35.9540 C   0  0  0  0  0  0  0  0  0  0  0  0
   34.9630   30.5330   35.1210 C   0  0  0  0  0  0  0  0  0  0  0  0
   33.5940   30.5540   35.2730 C   0  0  0  0  0  0  0  0  0  0  0  0
   33.0440   31.3990   36.1910 N   0  0  0  0  0  0  0  0  0  0  0  0
   33.7880   32.2110   36.9530 C   0  0  0  0  0  0  0  0  0  0  0  0
   35.1560   32.2300   36.8440 N   0  0  0  0  0  0  0  0  0  0  0  0
   36.7970   31.4150   35.8530 H   0  0  0  0  0  0  0  0  0  0  0  0
   32.9350   29.9240   34.6890 H   0  0  0  0  0  0  0  0  0  0  0  0
   33.3680   32.8890   37.6870 H   0  0  0  0  0  0  0  0  0  0  0  0
   38.1200   24.6530   34.1800 C   0  0  0  0  0  0  0  0  0  0  0  0
   38.2090   23.8740   35.3210 C   0  0  0  0  0  0  0  0  0  0  0  0
   38.2650   22.5720   34.9300 N   0  0  0  0  0  0  0  0  0  0  0  0
   38.2130   22.5200   33.5760 C   0  0  0  0  0  0  0  0  0  0  0  0
   38.1260   23.7910   33.1280 N   0  0  0  0  0  0  0  0  0  0  0  0
   38.2320   24.1990   36.3530 H   0  0  0  0  0  0  0  0  0  0  0  0
   38.3360   21.7450   35.5730 H   0  0  0  0  0  0  0  0  0  0  0  0
   38.2400   21.3010   32.7180 C   0  0  0  0  0  0  0  0  0  0  0  0
   39.4370   20.6840   32.3490 C   0  0  0  0  0  0  0  0  0  0  0  0
   38.8980   19.2740   31.3170 S   0  0  0  0  0  0  0  0  0  0  0  0
   37.0780   19.7710   31.5660 C   0  0  0  0  0  0  0  0  0  0  0  0
   37.1760   20.6920   32.2250 N   0  0  0  0  0  0  0  0  0  0  0  0
   40.4360   21.0140   32.6400 H   0  0  0  0  0  0  0  0  0  0  0  0
   34.0990   18.1760   31.9490 H   0  0  0  0  0  0  0  0  0  0  0  0
   35.0320   18.6800   32.0830 C   0  0  0  0  0  0  0  0  0  0  0  0
   35.3210   18.8570   33.3090 O   0  0  0  0  0  0  0  0  0  0  0  0
   35.8910   19.1230   31.0370 N   0  0  0  0  0  0  0  0  0  0  0  0
   35.5980   18.9480   30.0520 H   0  0  0  0  0  0  0  0  0  0  0  0
  1  4  1  6  0  0  0
  1 11  1  0  0  0  0
  1  2  1  0  0  0  0
  1  3  1  0  0  0  0
  2  5  1  0  0  0  0
  2  3  1  0  0  0  0
  3 24  1  0  0  0  0
  3  7  1  1  0  0  0
  6  2  1  0  0  0  0
  8 12  2  0  0  0  0
  8 16  1  0  0  0  0
  9  8  1  0  0  0  0
 10  9  2  0  0  0  0
 10 11  1  0  0  0  0
 11 12  1  0  0  0  0
 13  9  1  0  0  0  0
 14 10  1  0  0  0  0
 15 20  1  0  0  0  0
 16 17  1  0  0  0  0
 16 15  2  0  0  0  0
 17 18  2  0  0  0  0
 18 19  1  0  0  0  0
 19 23  1  0  0  0  0
 20 19  2  0  0  0  0
 21 15  1  0  0  0  0
 22 17  1  0  0  0  0
 24 25  2  0  0  0  0
 25 29  1  0  0  0  0
 26 25  1  0  0  0  0
 26 30  1  0  0  0  0
 27 26  1  0  0  0  0
 28 27  2  0  0  0  0
 28 24  1  0  0  0  0
 31 27  1  0  0  0  0
 32 36  1  0  0  0  0
 32 31  2  0  0  0  0
 33 34  1  0  0  0  0
 33 32  1  0  0  0  0
 34 35  2  0  0  0  0
 35 31  1  0  0  0  0
 37 38  1  0  0  0  0
 38 39  2  0  0  0  0
 40 34  1  0  0  0  0
 40 38  1  0  0  0  0
 41 40  1  0  0  0  0
M  END
>  <minimizedAffinity>
-5.68096066

$$$$

 OpenBabel03272500523D

 41 45  0  0  1  0  0  0  0  0999 V2000
   36.7530   27.0540   32.3120 C   0  0  1  0  0  0  0  0  0  0  0  0
   37.8190   27.8000   31.4210 C   0  0  0  0  0  0  0  0  0  0  0  0
   36.3960   28.2510   31.5540 C   0  0  2  0  0  0  0  0  0  0  0  0
   37.0120   27.1170   33.4040 H   0  0  0  0  0  0  0  0  0  0  0  0
   38.1140   27.2610   30.5110 H   0  0  0  0  0  0  0  0  0  0  0  0
   38.5490   28.4220   31.9480 H   0  0  0  0  0  0  0  0  0  0  0  0
   35.7780   28.1300   30.6410 H   0  0  0  0  0  0  0  0  0  0  0  0
   36.3610   23.5460   31.6050 C   0  0  0  0  0  0  0  0  0  0  0  0
   35.2740   24.0710   30.9080 C   0  0  0  0  0  0  0  0  0  0  0  0
   35.2780   25.4720   31.0830 C   0  0  0  0  0  0  0  0  0  0  0  0
   36.3360   25.7440   31.8570 N   0  0  0  0  0  0  0  0  0  0  0  0
   36.9320   24.6050   32.1350 N   0  0  0  0  0  0  0  0  0  0  0  0
   34.4950   23.5920   30.3020 H   0  0  0  0  0  0  0  0  0  0  0  0
   34.5890   26.1880   30.6880 H   0  0  0  0  0  0  0  0  0  0  0  0
   35.8360   21.1610   31.0270 C   0  0  0  0  0  0  0  0  0  0  0  0
   36.6660   22.1490   31.6470 C   0  0  0  0  0  0  0  0  0  0  0  0
   37.7930   21.7000   32.3000 C   0  0  0  0  0  0  0  0  0  0  0  0
   38.0550   20.3620   32.3220 N   0  0  0  0  0  0  0  0  0  0  0  0
   37.2550   19.4660   31.7290 C   0  0  0  0  0  0  0  0  0  0  0  0
   36.1200   19.8580   31.0650 N   0  0  0  0  0  0  0  0  0  0  0  0
   34.9490   21.4890   30.5100 H   0  0  0  0  0  0  0  0  0  0  0  0
   38.4820   22.3700   32.7980 H   0  0  0  0  0  0  0  0  0  0  0  0
   37.4480   18.3990   31.7360 H   0  0  0  0  0  0  0  0  0  0  0  0
   36.1050   29.5330   32.2790 C   0  0  0  0  0  0  0  0  0  0  0  0
   36.3080   30.8050   31.7740 C   0  0  0  0  0  0  0  0  0  0  0  0
   35.9080   31.6960   32.7210 N   0  0  0  0  0  0  0  0  0  0  0  0
   35.4610   31.0110   33.8030 C   0  0  0  0  0  0  0  0  0  0  0  0
   35.5850   29.6950   33.5260 N   0  0  0  0  0  0  0  0  0  0  0  0
   36.7080   31.0860   30.8080 H   0  0  0  0  0  0  0  0  0  0  0  0
   35.9400   32.7410   32.6280 H   0  0  0  0  0  0  0  0  0  0  0  0
   34.9230   31.5790   35.0720 C   0  0  0  0  0  0  0  0  0  0  0  0
   35.4870   32.7050   35.6740 C   0  0  0  0  0  0  0  0  0  0  0  0
   34.4640   32.9570   37.1690 S   0  0  0  0  0  0  0  0  0  0  0  0
   33.4050   31.4430   36.7130 C   0  0  0  0  0  0  0  0  0  0  0  0
   33.8940   31.0990   35.7470 N   0  0  0  0  0  0  0  0  0  0  0  0
   36.3440   33.2660   35.2940 H   0  0  0  0  0  0  0  0  0  0  0  0
   30.1320   30.5450   36.9390 H   0  0  0  0  0  0  0  0  0  0  0  0
   31.0930   30.8980   36.6330 C   0  0  0  0  0  0  0  0  0  0  0  0
   31.0950   31.3430   35.4410 O   0  0  0  0  0  0  0  0  0  0  0  0
   32.2710   30.8930   37.4340 N   0  0  0  0  0  0  0  0  0  0  0  0
   32.2040   30.5140   38.4040 H   0  0  0  0  0  0  0  0  0  0  0  0
  1  4  1  1  0  0  0
  2  3  1  0  0  0  0
  2  6  1  0  0  0  0
  2  1  1  0  0  0  0
  3  7  1  6  0  0  0
  3 24  1  0  0  0  0
  3  1  1  0  0  0  0
  5  2  1  0  0  0  0
  8 16  1  0  0  0  0
  8 12  2  0  0  0  0
  9 10  2  0  0  0  0
  9  8  1  0  0  0  0
 10 11  1  0  0  0  0
 11 12  1  0  0  0  0
 11  1  1  0  0  0  0
 13  9  1  0  0  0  0
 14 10  1  0  0  0  0
 15 20  2  0  0  0  0
 15 16  1  0  0  0  0
 16 17  2  0  0  0  0
 17 18  1  0  0  0  0
 17 22  1  0  0  0  0
 19 23  1  0  0  0  0
 19 18  2  0  0  0  0
 20 19  1  0  0  0  0
 21 15  1  0  0  0  0
 24 28  1  0  0  0  0
 25 24  2  0  0  0  0
 25 26  1  0  0  0  0
 26 27  1  0  0  0  0
 27 31  1  0  0  0  0
 28 27  2  0  0  0  0
 29 25  1  0  0  0  0
 30 26  1  0  0  0  0
 31 32  2  0  0  0  0
 31 35  1  0  0  0  0
 32 33  1  0  0  0  0
 34 33  1  0  0  0  0
 34 40  1  0  0  0  0
 35 34  2  0  0  0  0
 36 32  1  0  0  0  0
 38 37  1  0  0  0  0
 38 40  1  0  0  0  0
 39 38  2  0  0  0  0
 40 41  1  0  0  0  0
M  END
>  <minimizedAffinity>
-5.65982866

$$$$

 OpenBabel03272500523D

 41 45  0  0  1  0  0  0  0  0999 V2000
   38.2690   26.6800   34.5900 C   0  0  1  0  0  0  0  0  0  0  0  0
   38.6680   27.2130   36.0200 C   0  0  0  0  0  0  0  0  0  0  0  0
   37.8300   25.9890   35.8010 C   0  0  2  0  0  0  0  0  0  0  0  0
   39.1690   26.3260   34.0170 H   0  0  0  0  0  0  0  0  0  0  0  0
   38.1680   28.1430   36.3190 H   0  0  0  0  0  0  0  0  0  0  0  0
   39.6930   27.0140   36.3480 H   0  0  0  0  0  0  0  0  0  0  0  0
   36.7680   26.0870   36.1070 H   0  0  0  0  0  0  0  0  0  0  0  0
   35.6450   28.8570   33.4380 C   0  0  0  0  0  0  0  0  0  0  0  0
   36.2700   28.5490   32.2310 C   0  0  0  0  0  0  0  0  0  0  0  0
   37.3490   27.6810   32.5070 C   0  0  0  0  0  0  0  0  0  0  0  0
   37.3430   27.4970   33.8330 N   0  0  0  0  0  0  0  0  0  0  0  0
   36.3450   28.1930   34.3310 N   0  0  0  0  0  0  0  0  0  0  0  0
   36.0580   28.8580   31.2000 H   0  0  0  0  0  0  0  0  0  0  0  0
   38.0410   27.2490   31.8170 H   0  0  0  0  0  0  0  0  0  0  0  0
   33.3220   29.5180   32.7550 C   0  0  0  0  0  0  0  0  0  0  0  0
   34.5050   29.7170   33.5350 C   0  0  0  0  0  0  0  0  0  0  0  0
   34.5110   30.7900   34.4010 C   0  0  0  0  0  0  0  0  0  0  0  0
   33.4090   31.5900   34.4690 N   0  0  0  0  0  0  0  0  0  0  0  0
   32.3190   31.3710   33.7230 C   0  0  0  0  0  0  0  0  0  0  0  0
   32.2590   30.3200   32.8440 N   0  0  0  0  0  0  0  0  0  0  0  0
   33.2940   28.6860   32.0700 H   0  0  0  0  0  0  0  0  0  0  0  0
   35.3590   31.0210   35.0320 H   0  0  0  0  0  0  0  0  0  0  0  0
   31.4340   31.9970   33.7640 H   0  0  0  0  0  0  0  0  0  0  0  0
   38.4040   24.6450   36.1410 C   0  0  0  0  0  0  0  0  0  0  0  0
   37.7380   23.6320   36.8090 C   0  0  0  0  0  0  0  0  0  0  0  0
   38.5860   22.5730   36.9090 N   0  0  0  0  0  0  0  0  0  0  0  0
   39.7630   22.9000   36.3200 C   0  0  0  0  0  0  0  0  0  0  0  0
   39.6440   24.1620   35.8570 N   0  0  0  0  0  0  0  0  0  0  0  0
   36.7270   23.6390   37.1970 H   0  0  0  0  0  0  0  0  0  0  0  0
   38.3630   21.6540   37.3660 H   0  0  0  0  0  0  0  0  0  0  0  0
   40.9760   22.0430   36.1910 C   0  0  0  0  0  0  0  0  0  0  0  0
   41.5070   21.3450   37.2780 C   0  0  0  0  0  0  0  0  0  0  0  0
   42.9570   20.4830   36.5740 S   0  0  0  0  0  0  0  0  0  0  0  0
   42.5910   21.2360   34.8650 C   0  0  0  0  0  0  0  0  0  0  0  0
   41.6620   21.8560   35.0770 N   0  0  0  0  0  0  0  0  0  0  0  0
   41.1050   21.3520   38.2930 H   0  0  0  0  0  0  0  0  0  0  0  0
   42.8120   20.2480   31.6180 H   0  0  0  0  0  0  0  0  0  0  0  0
   42.5020   20.4800   32.6140 C   0  0  0  0  0  0  0  0  0  0  0  0
   41.2810   20.1910   32.8260 O   0  0  0  0  0  0  0  0  0  0  0  0
   43.3260   21.0490   33.6260 N   0  0  0  0  0  0  0  0  0  0  0  0
   44.3190   21.2630   33.3900 H   0  0  0  0  0  0  0  0  0  0  0  0
  1  4  1  6  0  0  0
  1  3  1  0  0  0  0
  1  2  1  0  0  0  0
  2  5  1  0  0  0  0
  2  6  1  0  0  0  0
  3  2  1  0  0  0  0
  3  7  1  1  0  0  0
  3 24  1  0  0  0  0
  8 16  1  0  0  0  0
  8 12  2  0  0  0  0
  9 10  2  0  0  0  0
  9  8  1  0  0  0  0
 10 11  1  0  0  0  0
 11 12  1  0  0  0  0
 11  1  1  0  0  0  0
 13  9  1  0  0  0  0
 14 10  1  0  0  0  0
 15 20  2  0  0  0  0
 15 16  1  0  0  0  0
 16 17  2  0  0  0  0
 17 18  1  0  0  0  0
 17 22  1  0  0  0  0
 19 23  1  0  0  0  0
 19 18  2  0  0  0  0
 20 19  1  0  0  0  0
 21 15  1  0  0  0  0
 24 25  2  0  0  0  0
 25 26  1  0  0  0  0
 25 29  1  0  0  0  0
 26 30  1  0  0  0  0
 27 26  1  0  0  0  0
 28 24  1  0  0  0  0
 28 27  2  0  0  0  0
 31 27  1  0  0  0  0
 31 32  2  0  0  0  0
 32 36  1  0  0  0  0
 33 32  1  0  0  0  0
 34 35  2  0  0  0  0
 34 33  1  0  0  0  0
 35 31  1  0  0  0  0
 37 38  1  0  0  0  0
 38 39  2  0  0  0  0
 38 40  1  0  0  0  0
 40 34  1  0  0  0  0
 41 40  1  0  0  0  0
M  END
>  <minimizedAffinity>
-5.61159706

$$$$

 OpenBabel03272500523D

 41 45  0  0  1  0  0  0  0  0999 V2000
   37.6990   26.0990   34.8410 C   0  0  1  0  0  0  0  0  0  0  0  0
   38.3690   27.3940   35.4420 C   0  0  0  0  0  0  0  0  0  0  0  0
   37.8560   27.3090   34.0360 C   0  0  2  0  0  0  0  0  0  0  0  0
   36.7240   25.8670   35.3490 H   0  0  0  0  0  0  0  0  0  0  0  0
   39.4510   27.3160   35.6100 H   0  0  0  0  0  0  0  0  0  0  0  0
   37.7540   27.9950   36.1190 H   0  0  0  0  0  0  0  0  0  0  0  0
   38.6390   27.3200   33.2500 H   0  0  0  0  0  0  0  0  0  0  0  0
   39.9680   23.3210   35.1300 C   0  0  0  0  0  0  0  0  0  0  0  0
   39.7200   23.3070   33.7580 C   0  0  0  0  0  0  0  0  0  0  0  0
   38.8260   24.3600   33.4660 C   0  0  0  0  0  0  0  0  0  0  0  0
   38.5690   24.9600   34.6340 N   0  0  0  0  0  0  0  0  0  0  0  0
   39.2480   24.3290   35.5670 N   0  0  0  0  0  0  0  0  0  0  0  0
   40.0880   22.6550   32.9560 H   0  0  0  0  0  0  0  0  0  0  0  0
   38.4250   24.6390   32.5150 H   0  0  0  0  0  0  0  0  0  0  0  0
   41.8200   21.6280   35.0700 C   0  0  0  0  0  0  0  0  0  0  0  0
   40.8360   22.3870   35.7800 C   0  0  0  0  0  0  0  0  0  0  0  0
   40.7480   22.1820   37.1400 C   0  0  0  0  0  0  0  0  0  0  0  0
   41.5900   21.2850   37.7290 N   0  0  0  0  0  0  0  0  0  0  0  0
   42.5000   20.5930   37.0320 C   0  0  0  0  0  0  0  0  0  0  0  0
   42.6300   20.7560   35.6760 N   0  0  0  0  0  0  0  0  0  0  0  0
   41.9070   21.7700   34.0060 H   0  0  0  0  0  0  0  0  0  0  0  0
   40.0360   22.7090   37.7620 H   0  0  0  0  0  0  0  0  0  0  0  0
   43.1770   19.8760   37.4830 H   0  0  0  0  0  0  0  0  0  0  0  0
   36.6470   28.1120   33.6530 C   0  0  0  0  0  0  0  0  0  0  0  0
   36.3480   28.5540   32.3770 C   0  0  0  0  0  0  0  0  0  0  0  0
   35.1670   29.2270   32.4370 N   0  0  0  0  0  0  0  0  0  0  0  0
   34.7240   29.2150   33.7190 C   0  0  0  0  0  0  0  0  0  0  0  0
   35.6310   28.5350   34.4520 N   0  0  0  0  0  0  0  0  0  0  0  0
   36.9190   28.4120   31.4680 H   0  0  0  0  0  0  0  0  0  0  0  0
   34.6810   29.6800   31.6240 H   0  0  0  0  0  0  0  0  0  0  0  0
   33.4710   29.8270   34.2460 C   0  0  0  0  0  0  0  0  0  0  0  0
   32.6780   30.6730   33.4680 C   0  0  0  0  0  0  0  0  0  0  0  0
   31.3030   31.1290   34.5850 S   0  0  0  0  0  0  0  0  0  0  0  0
   32.0560   30.0600   35.9680 C   0  0  0  0  0  0  0  0  0  0  0  0
   32.9880   29.6480   35.4630 N   0  0  0  0  0  0  0  0  0  0  0  0
   32.8830   30.9620   32.4350 H   0  0  0  0  0  0  0  0  0  0  0  0
   30.9030   28.0580   38.4640 H   0  0  0  0  0  0  0  0  0  0  0  0
   31.2820   28.4670   37.5520 C   0  0  0  0  0  0  0  0  0  0  0  0
   31.4800   27.5800   36.6620 O   0  0  0  0  0  0  0  0  0  0  0  0
   31.5500   29.8450   37.3110 N   0  0  0  0  0  0  0  0  0  0  0  0
   31.3660   30.5240   38.0820 H   0  0  0  0  0  0  0  0  0  0  0  0
  1  4  1  1  0  0  0
  1  2  1  0  0  0  0
  2  5  1  0  0  0  0
  2  6  1  0  0  0  0
  3  7  1  6  0  0  0
  3  1  1  0  0  0  0
  3  2  1  0  0  0  0
  8 12  2  0  0  0  0
  8 16  1  0  0  0  0
  9  8  1  0  0  0  0
 10  9  2  0  0  0  0
 10 11  1  0  0  0  0
 11  1  1  0  0  0  0
 11 12  1  0  0  0  0
 13  9  1  0  0  0  0
 14 10  1  0  0  0  0
 15 20  2  0  0  0  0
 15 16  1  0  0  0  0
 16 17  2  0  0  0  0
 17 18  1  0  0  0  0
 17 22  1  0  0  0  0
 19 23  1  0  0  0  0
 19 18  2  0  0  0  0
 20 19  1  0  0  0  0
 21 15  1  0  0  0  0
 24  3  1  0  0  0  0
 24 28  1  0  0  0  0
 25 26  1  0  0  0  0
 25 24  2  0  0  0  0
 26 27  1  0  0  0  0
 27 31  1  0  0  0  0
 27 28  2  0  0  0  0
 29 25  1  0  0  0  0
 30 26  1  0  0  0  0
 31 35  1  0  0  0  0
 32 31  2  0  0  0  0
 32 33  1  0  0  0  0
 33 34  1  0  0  0  0
 34 40  1  0  0  0  0
 35 34  2  0  0  0  0
 36 32  1  0  0  0  0
 38 37  1  0  0  0  0
 39 38  2  0  0  0  0
 40 38  1  0  0  0  0
 40 41  1  0  0  0  0
M  END
>  <minimizedAffinity>
-5.59687996

$$$$
