
 OpenBabel03262520523D

 44 47  0  0  1  0  0  0  0  0999 V2000
   38.3210   26.8840   35.8220 C   0  0  0  0  0  0  0  0  0  0  0  0
   37.9180   27.4110   36.7190 H   0  0  0  0  0  0  0  0  0  0  0  0
   39.4400   26.8590   35.7940 H   0  0  0  0  0  0  0  0  0  0  0  0
   36.4760   27.9960   34.5100 C   0  0  1  0  0  0  0  0  0  0  0  0
   37.0100   26.9400   33.5730 C   0  0  0  0  0  0  0  0  0  0  0  0
   37.8800   27.5760   34.5830 C   0  0  2  0  0  0  0  0  0  0  0  0
   35.7700   27.6340   35.2870 H   0  0  0  0  0  0  0  0  0  0  0  0
   36.7180   25.8760   33.7410 H   0  0  0  0  0  0  0  0  0  0  0  0
   37.1040   27.1810   32.4970 H   0  0  0  0  0  0  0  0  0  0  0  0
   38.6000   28.3210   34.1300 H   0  0  0  0  0  0  0  0  0  0  0  0
   36.0480   29.2740   33.8660 C   0  0  0  0  0  0  0  0  0  0  0  0
   35.4050   29.0380   32.9690 H   0  0  0  0  0  0  0  0  0  0  0  0
   36.9220   29.8130   33.4700 H   0  0  0  0  0  0  0  0  0  0  0  0
   35.1910   31.8250   36.4780 C   0  0  0  0  0  0  0  0  0  0  0  0
   35.9370   31.0050   35.5760 C   0  0  0  0  0  0  0  0  0  0  0  0
   35.2510   30.1130   34.7930 C   0  0  0  0  0  0  0  0  0  0  0  0
   33.9170   30.0520   34.9080 N   0  0  0  0  0  0  0  0  0  0  0  0
   33.2280   30.8230   35.7550 C   0  0  0  0  0  0  0  0  0  0  0  0
   33.8730   31.7010   36.5300 N   0  0  0  0  0  0  0  0  0  0  0  0
   35.8100   32.4980   37.0540 H   0  0  0  0  0  0  0  0  0  0  0  0
   37.0270   31.0810   35.5050 H   0  0  0  0  0  0  0  0  0  0  0  0
   32.1520   30.7950   35.8700 H   0  0  0  0  0  0  0  0  0  0  0  0
   37.8270   25.4610   35.9450 C   0  0  0  0  0  0  0  0  0  0  0  0
   37.2400   25.3180   36.8650 H   0  0  0  0  0  0  0  0  0  0  0  0
   37.2060   25.2060   35.0600 H   0  0  0  0  0  0  0  0  0  0  0  0
   40.0490   24.7630   35.1200 C   0  0  0  0  0  0  0  0  0  0  0  0
   39.0210   24.5610   36.0280 C   0  0  0  0  0  0  0  0  0  0  0  0
   39.1310   23.5500   36.9700 C   0  0  0  0  0  0  0  0  0  0  0  0
   40.2370   22.7410   37.0260 C   0  0  0  0  0  0  0  0  0  0  0  0
   40.5540   21.7140   37.8400 N   0  0  0  0  0  0  0  0  0  0  0  0
   41.7620   21.2770   37.4500 C   0  0  0  0  0  0  0  0  0  0  0  0
   42.2670   22.0000   36.3760 C   0  0  0  0  0  0  0  0  0  0  0  0
   41.2630   22.9320   36.1270 C   0  0  0  0  0  0  0  0  0  0  0  0
   41.1580   23.9270   35.1990 C   0  0  0  0  0  0  0  0  0  0  0  0
   40.0770   25.5140   34.3450 H   0  0  0  0  0  0  0  0  0  0  0  0
   38.3220   23.4090   37.6680 H   0  0  0  0  0  0  0  0  0  0  0  0
   39.9850   21.3250   38.6230 H   0  0  0  0  0  0  0  0  0  0  0  0
   42.3020   20.4550   37.9060 H   0  0  0  0  0  0  0  0  0  0  0  0
   43.2020   21.8510   35.8830 H   0  0  0  0  0  0  0  0  0  0  0  0
   43.9540   24.7830   33.3050 H   0  0  0  0  0  0  0  0  0  0  0  0
   43.3260   24.9880   34.1730 C   0  0  0  0  0  0  0  0  0  0  0  0
   43.6040   25.9240   34.9370 O   0  0  0  0  0  0  0  0  0  0  0  0
   42.2410   24.0960   34.2840 N   0  0  0  0  0  0  0  0  0  0  0  0
   42.0460   23.3180   33.6150 H   0  0  0  0  0  0  0  0  0  0  0  0
  1 23  1  0  0  0  0
  1  2  1  0  0  0  0
  3  1  1  0  0  0  0
  4  6  1  0  0  0  0
  4  7  1  1  0  0  0
  5  8  1  0  0  0  0
  5  4  1  0  0  0  0
  5  6  1  0  0  0  0
  6 10  1  6  0  0  0
  6  1  1  0  0  0  0
  9  5  1  0  0  0  0
 11  4  1  0  0  0  0
 11 16  1  0  0  0  0
 12 11  1  0  0  0  0
 13 11  1  0  0  0  0
 14 19  1  0  0  0  0
 14 20  1  0  0  0  0
 15 14  2  0  0  0  0
 16 17  2  0  0  0  0
 16 15  1  0  0  0  0
 17 18  1  0  0  0  0
 18 22  1  0  0  0  0
 18 19  2  0  0  0  0
 21 15  1  0  0  0  0
 23 27  1  0  0  0  0
 23 24  1  0  0  0  0
 25 23  1  0  0  0  0
 26 34  2  0  0  0  0
 26 27  1  0  0  0  0
 27 28  2  0  0  0  0
 28 29  1  0  0  0  0
 28 36  1  0  0  0  0
 29 30  1  0  0  0  0
 30 37  1  0  0  0  0
 31 30  1  0  0  0  0
 31 38  1  0  0  0  0
 32 31  2  0  0  0  0
 33 32  1  0  0  0  0
 33 29  2  0  0  0  0
 34 33  1  0  0  0  0
 35 26  1  0  0  0  0
 39 32  1  0  0  0  0
 40 41  1  0  0  0  0
 41 43  1  0  0  0  0
 41 42  2  0  0  0  0
 43 34  1  0  0  0  0
 44 43  1  0  0  0  0
M  END
>  <minimizedAffinity>
-5.85488462

$$$$

 OpenBabel03262520523D

 44 47  0  0  1  0  0  0  0  0999 V2000
   36.2970   27.7310   33.4470 C   0  0  0  0  0  0  0  0  0  0  0  0
   35.5170   27.5520   34.2240 H   0  0  0  0  0  0  0  0  0  0  0  0
   36.1150   27.1570   32.5030 H   0  0  0  0  0  0  0  0  0  0  0  0
   37.6590   26.2160   34.9330 C   0  0  1  0  0  0  0  0  0  0  0  0
   38.1050   27.6060   35.3170 C   0  0  0  0  0  0  0  0  0  0  0  0
   37.6280   27.3060   33.9510 C   0  0  2  0  0  0  0  0  0  0  0  0
   36.7020   25.8780   35.3840 H   0  0  0  0  0  0  0  0  0  0  0  0
   37.4400   28.2210   35.9700 H   0  0  0  0  0  0  0  0  0  0  0  0
   39.1760   27.7830   35.5290 H   0  0  0  0  0  0  0  0  0  0  0  0
   38.4700   27.2600   33.1970 H   0  0  0  0  0  0  0  0  0  0  0  0
   38.7250   25.1690   34.9460 C   0  0  0  0  0  0  0  0  0  0  0  0
   39.7290   25.6640   34.8000 H   0  0  0  0  0  0  0  0  0  0  0  0
   38.6020   24.4900   34.0890 H   0  0  0  0  0  0  0  0  0  0  0  0
   39.8060   22.7940   37.6390 C   0  0  0  0  0  0  0  0  0  0  0  0
   39.7540   23.5130   36.4050 C   0  0  0  0  0  0  0  0  0  0  0  0
   38.7560   24.4370   36.2350 C   0  0  0  0  0  0  0  0  0  0  0  0
   37.8780   24.6240   37.2300 N   0  0  0  0  0  0  0  0  0  0  0  0
   37.9340   23.9470   38.3810 C   0  0  0  0  0  0  0  0  0  0  0  0
   38.8980   23.0400   38.5730 N   0  0  0  0  0  0  0  0  0  0  0  0
   40.6210   22.0880   37.6880 H   0  0  0  0  0  0  0  0  0  0  0  0
   40.4880   23.3370   35.6120 H   0  0  0  0  0  0  0  0  0  0  0  0
   37.2400   24.0770   39.2010 H   0  0  0  0  0  0  0  0  0  0  0  0
   36.2010   29.2040   33.1210 C   0  0  0  0  0  0  0  0  0  0  0  0
   37.1880   29.6920   33.1760 H   0  0  0  0  0  0  0  0  0  0  0  0
   35.7750   29.3330   32.1030 H   0  0  0  0  0  0  0  0  0  0  0  0
   34.0040   29.4290   34.2270 C   0  0  0  0  0  0  0  0  0  0  0  0
   35.3220   29.8510   34.1470 C   0  0  0  0  0  0  0  0  0  0  0  0
   35.7760   30.8390   35.0050 C   0  0  0  0  0  0  0  0  0  0  0  0
   34.9500   31.4130   35.9370 C   0  0  0  0  0  0  0  0  0  0  0  0
   35.1700   32.3740   36.8570 N   0  0  0  0  0  0  0  0  0  0  0  0
   34.0090   32.5530   37.5070 C   0  0  0  0  0  0  0  0  0  0  0  0
   33.0020   31.7210   37.0330 C   0  0  0  0  0  0  0  0  0  0  0  0
   33.6380   31.0020   36.0250 C   0  0  0  0  0  0  0  0  0  0  0  0
   33.1880   30.0280   35.1820 C   0  0  0  0  0  0  0  0  0  0  0  0
   33.5380   28.6700   33.6160 H   0  0  0  0  0  0  0  0  0  0  0  0
   36.8040   31.1530   34.9280 H   0  0  0  0  0  0  0  0  0  0  0  0
   36.0610   32.8850   37.0410 H   0  0  0  0  0  0  0  0  0  0  0  0
   33.8510   33.2610   38.3130 H   0  0  0  0  0  0  0  0  0  0  0  0
   31.9930   31.6700   37.3790 H   0  0  0  0  0  0  0  0  0  0  0  0
   30.0640   28.6080   35.7830 H   0  0  0  0  0  0  0  0  0  0  0  0
   31.1450   28.5610   35.9250 C   0  0  0  0  0  0  0  0  0  0  0  0
   31.6490   27.6360   36.5790 O   0  0  0  0  0  0  0  0  0  0  0  0
   31.8230   29.6280   35.3010 N   0  0  0  0  0  0  0  0  0  0  0  0
   31.3550   30.3880   34.7590 H   0  0  0  0  0  0  0  0  0  0  0  0
  1  6  1  0  0  0  0
  1  2  1  0  0  0  0
  3  1  1  0  0  0  0
  4 11  1  0  0  0  0
  4  5  1  0  0  0  0
  4  7  1  1  0  0  0
  5  9  1  0  0  0  0
  5  8  1  0  0  0  0
  6 10  1  6  0  0  0
  6  4  1  0  0  0  0
  6  5  1  0  0  0  0
 11 16  1  0  0  0  0
 12 11  1  0  0  0  0
 13 11  1  0  0  0  0
 14 20  1  0  0  0  0
 14 19  1  0  0  0  0
 15 14  2  0  0  0  0
 16 15  1  0  0  0  0
 16 17  2  0  0  0  0
 17 18  1  0  0  0  0
 18 19  2  0  0  0  0
 18 22  1  0  0  0  0
 21 15  1  0  0  0  0
 23 24  1  0  0  0  0
 23  1  1  0  0  0  0
 23 27  1  0  0  0  0
 25 23  1  0  0  0  0
 26 34  1  0  0  0  0
 27 26  2  0  0  0  0
 27 28  1  0  0  0  0
 28 29  2  0  0  0  0
 29 33  1  0  0  0  0
 29 30  1  0  0  0  0
 30 37  1  0  0  0  0
 30 31  1  0  0  0  0
 31 38  1  0  0  0  0
 32 39  1  0  0  0  0
 32 31  2  0  0  0  0
 33 32  1  0  0  0  0
 34 43  1  0  0  0  0
 34 33  2  0  0  0  0
 35 26  1  0  0  0  0
 36 28  1  0  0  0  0
 40 41  1  0  0  0  0
 41 42  2  0  0  0  0
 43 41  1  0  0  0  0
 44 43  1  0  0  0  0
M  END
>  <minimizedAffinity>
-5.82382154

$$$$

 OpenBabel03262520523D

 44 47  0  0  1  0  0  0  0  0999 V2000
   35.8110   31.9220   35.7410 C   0  0  0  0  0  0  0  0  0  0  0  0
   36.4840   31.0340   35.7820 H   0  0  0  0  0  0  0  0  0  0  0  0
   36.3630   32.8940   35.8000 H   0  0  0  0  0  0  0  0  0  0  0  0
   33.4460   31.6980   36.5880 C   0  0  1  0  0  0  0  0  0  0  0  0
   33.9270   33.0010   37.1790 C   0  0  0  0  0  0  0  0  0  0  0  0
   34.8670   31.9000   36.8890 C   0  0  2  0  0  0  0  0  0  0  0  0
   33.1130   31.7460   35.5300 H   0  0  0  0  0  0  0  0  0  0  0  0
   33.9720   33.9030   36.5220 H   0  0  0  0  0  0  0  0  0  0  0  0
   33.6370   33.2550   38.2160 H   0  0  0  0  0  0  0  0  0  0  0  0
   35.2120   31.3650   37.8240 H   0  0  0  0  0  0  0  0  0  0  0  0
   32.5420   30.8890   37.4590 C   0  0  0  0  0  0  0  0  0  0  0  0
   31.7000   31.5440   37.8280 H   0  0  0  0  0  0  0  0  0  0  0  0
   33.0780   30.5590   38.3620 H   0  0  0  0  0  0  0  0  0  0  0  0
   31.2970   28.7760   34.6220 C   0  0  0  0  0  0  0  0  0  0  0  0
   31.8670   29.8610   35.3570 C   0  0  0  0  0  0  0  0  0  0  0  0
   31.9470   29.7490   36.7210 C   0  0  0  0  0  0  0  0  0  0  0  0
   31.4880   28.6310   37.3010 N   0  0  0  0  0  0  0  0  0  0  0  0
   30.9560   27.6210   36.6050 C   0  0  0  0  0  0  0  0  0  0  0  0
   30.8670   27.7050   35.2730 N   0  0  0  0  0  0  0  0  0  0  0  0
   31.2750   28.9470   33.5560 H   0  0  0  0  0  0  0  0  0  0  0  0
   32.2340   30.7610   34.8520 H   0  0  0  0  0  0  0  0  0  0  0  0
   30.5780   26.7080   37.0460 H   0  0  0  0  0  0  0  0  0  0  0  0
   35.1400   31.8490   34.3890 C   0  0  0  0  0  0  0  0  0  0  0  0
   34.0440   31.8050   34.4870 H   0  0  0  0  0  0  0  0  0  0  0  0
   35.4270   32.7340   33.7830 H   0  0  0  0  0  0  0  0  0  0  0  0
   35.9280   29.5110   34.5250 C   0  0  0  0  0  0  0  0  0  0  0  0
   35.5830   30.5850   33.7190 C   0  0  0  0  0  0  0  0  0  0  0  0
   35.6560   30.4540   32.3410 C   0  0  0  0  0  0  0  0  0  0  0  0
   36.0640   29.2850   31.7530 C   0  0  0  0  0  0  0  0  0  0  0  0
   36.2100   28.9380   30.4580 N   0  0  0  0  0  0  0  0  0  0  0  0
   36.6400   27.6660   30.4510 C   0  0  0  0  0  0  0  0  0  0  0  0
   36.7870   27.1480   31.7320 C   0  0  0  0  0  0  0  0  0  0  0  0
   36.4100   28.2120   32.5450 C   0  0  0  0  0  0  0  0  0  0  0  0
   36.3380   28.3370   33.9020 C   0  0  0  0  0  0  0  0  0  0  0  0
   35.9110   29.4930   35.6050 H   0  0  0  0  0  0  0  0  0  0  0  0
   35.3830   31.3000   31.7310 H   0  0  0  0  0  0  0  0  0  0  0  0
   36.0280   29.5280   29.6170 H   0  0  0  0  0  0  0  0  0  0  0  0
   36.8540   27.0880   29.5580 H   0  0  0  0  0  0  0  0  0  0  0  0
   37.1140   26.1650   31.9950 H   0  0  0  0  0  0  0  0  0  0  0  0
   37.7110   25.8750   35.9490 H   0  0  0  0  0  0  0  0  0  0  0  0
   37.8080   26.8630   35.4980 C   0  0  0  0  0  0  0  0  0  0  0  0
   38.8130   27.5540   35.7200 O   0  0  0  0  0  0  0  0  0  0  0  0
   36.7040   27.2050   34.6920 N   0  0  0  0  0  0  0  0  0  0  0  0
   35.8760   26.5890   34.5330 H   0  0  0  0  0  0  0  0  0  0  0  0
  1  2  1  0  0  0  0
  1  3  1  0  0  0  0
  1  6  1  0  0  0  0
  4  7  1  6  0  0  0
  4  6  1  0  0  0  0
  4  5  1  0  0  0  0
  4 11  1  0  0  0  0
  5  9  1  0  0  0  0
  6  5  1  0  0  0  0
  6 10  1  1  0  0  0
  8  5  1  0  0  0  0
 11 12  1  0  0  0  0
 11 13  1  0  0  0  0
 14 19  2  0  0  0  0
 14 15  1  0  0  0  0
 15 16  2  0  0  0  0
 16 17  1  0  0  0  0
 16 11  1  0  0  0  0
 18 22  1  0  0  0  0
 18 17  2  0  0  0  0
 19 18  1  0  0  0  0
 20 14  1  0  0  0  0
 21 15  1  0  0  0  0
 23 24  1  0  0  0  0
 23  1  1  0  0  0  0
 25 23  1  0  0  0  0
 26 35  1  0  0  0  0
 27 23  1  0  0  0  0
 27 26  2  0  0  0  0
 28 27  1  0  0  0  0
 29 28  2  0  0  0  0
 29 33  1  0  0  0  0
 30 29  1  0  0  0  0
 31 30  1  0  0  0  0
 31 32  2  0  0  0  0
 32 39  1  0  0  0  0
 32 33  1  0  0  0  0
 33 34  2  0  0  0  0
 34 26  1  0  0  0  0
 34 43  1  0  0  0  0
 36 28  1  0  0  0  0
 37 30  1  0  0  0  0
 38 31  1  0  0  0  0
 41 42  2  0  0  0  0
 41 40  1  0  0  0  0
 43 41  1  0  0  0  0
 44 43  1  0  0  0  0
M  END
>  <minimizedAffinity>
-5.80839634

$$$$

 OpenBabel03262520523D

 44 47  0  0  1  0  0  0  0  0999 V2000
   36.9710   26.9700   33.6170 C   0  0  0  0  0  0  0  0  0  0  0  0
   37.7540   26.4770   32.9930 H   0  0  0  0  0  0  0  0  0  0  0  0
   36.0340   26.3630   33.7040 H   0  0  0  0  0  0  0  0  0  0  0  0
   35.5110   29.0250   33.6740 C   0  0  1  0  0  0  0  0  0  0  0  0
   35.3120   28.4710   32.2850 C   0  0  0  0  0  0  0  0  0  0  0  0
   36.5810   28.2700   33.0130 C   0  0  2  0  0  0  0  0  0  0  0  0
   34.9260   28.5290   34.4770 H   0  0  0  0  0  0  0  0  0  0  0  0
   34.6490   27.5820   32.1520 H   0  0  0  0  0  0  0  0  0  0  0  0
   35.2380   29.1760   31.4350 H   0  0  0  0  0  0  0  0  0  0  0  0
   37.4170   28.9220   32.6170 H   0  0  0  0  0  0  0  0  0  0  0  0
   35.5200   30.5150   33.7800 C   0  0  0  0  0  0  0  0  0  0  0  0
   34.9840   30.9510   32.8870 H   0  0  0  0  0  0  0  0  0  0  0  0
   36.5510   30.8950   33.7210 H   0  0  0  0  0  0  0  0  0  0  0  0
   34.8680   32.2860   37.0210 C   0  0  0  0  0  0  0  0  0  0  0  0
   35.5170   31.8230   35.8340 C   0  0  0  0  0  0  0  0  0  0  0  0
   34.8250   30.9810   35.0040 C   0  0  0  0  0  0  0  0  0  0  0  0
   33.5750   30.6310   35.3410 N   0  0  0  0  0  0  0  0  0  0  0  0
   32.9770   31.0690   36.4530 C   0  0  0  0  0  0  0  0  0  0  0  0
   33.6300   31.8910   37.2800 N   0  0  0  0  0  0  0  0  0  0  0  0
   35.4840   32.9440   37.6150 H   0  0  0  0  0  0  0  0  0  0  0  0
   36.5380   32.1290   35.5870 H   0  0  0  0  0  0  0  0  0  0  0  0
   31.9700   30.8030   36.7500 H   0  0  0  0  0  0  0  0  0  0  0  0
   37.5790   27.0870   34.9960 C   0  0  0  0  0  0  0  0  0  0  0  0
   37.7870   28.1380   35.2540 H   0  0  0  0  0  0  0  0  0  0  0  0
   36.8880   26.6460   35.7450 H   0  0  0  0  0  0  0  0  0  0  0  0
   38.8700   24.9970   35.2590 C   0  0  0  0  0  0  0  0  0  0  0  0
   38.8870   26.3570   34.9910 C   0  0  0  0  0  0  0  0  0  0  0  0
   40.0940   26.9870   34.7290 C   0  0  0  0  0  0  0  0  0  0  0  0
   41.2770   26.2950   34.7290 C   0  0  0  0  0  0  0  0  0  0  0  0
   42.5460   26.6920   34.5070 N   0  0  0  0  0  0  0  0  0  0  0  0
   43.3160   25.5990   34.6330 C   0  0  0  0  0  0  0  0  0  0  0  0
   42.5770   24.4630   34.9400 C   0  0  0  0  0  0  0  0  0  0  0  0
   41.2720   24.9430   34.9950 C   0  0  0  0  0  0  0  0  0  0  0  0
   40.0860   24.3200   35.2520 C   0  0  0  0  0  0  0  0  0  0  0  0
   37.9970   24.4000   35.4750 H   0  0  0  0  0  0  0  0  0  0  0  0
   40.0860   28.0450   34.5230 H   0  0  0  0  0  0  0  0  0  0  0  0
   42.8800   27.6540   34.2800 H   0  0  0  0  0  0  0  0  0  0  0  0
   44.3940   25.5810   34.5130 H   0  0  0  0  0  0  0  0  0  0  0  0
   42.9510   23.4740   35.0910 H   0  0  0  0  0  0  0  0  0  0  0  0
   40.2240   21.0580   36.4670 H   0  0  0  0  0  0  0  0  0  0  0  0
   40.2440   22.1270   36.6820 C   0  0  0  0  0  0  0  0  0  0  0  0
   40.3670   22.5260   37.8500 O   0  0  0  0  0  0  0  0  0  0  0  0
   40.1190   22.9180   35.5230 N   0  0  0  0  0  0  0  0  0  0  0  0
   40.0170   22.5370   34.5560 H   0  0  0  0  0  0  0  0  0  0  0  0
  1  3  1  0  0  0  0
  1 23  1  0  0  0  0
  2  1  1  0  0  0  0
  4 11  1  0  0  0  0
  4  7  1  1  0  0  0
  5  6  1  0  0  0  0
  5  4  1  0  0  0  0
  6 10  1  6  0  0  0
  6  1  1  0  0  0  0
  6  4  1  0  0  0  0
  8  5  1  0  0  0  0
  9  5  1  0  0  0  0
 11 16  1  0  0  0  0
 12 11  1  0  0  0  0
 13 11  1  0  0  0  0
 14 19  1  0  0  0  0
 14 20  1  0  0  0  0
 15 14  2  0  0  0  0
 16 17  2  0  0  0  0
 16 15  1  0  0  0  0
 17 18  1  0  0  0  0
 18 22  1  0  0  0  0
 18 19  2  0  0  0  0
 21 15  1  0  0  0  0
 23 24  1  0  0  0  0
 23 25  1  0  0  0  0
 26 35  1  0  0  0  0
 27 23  1  0  0  0  0
 27 26  2  0  0  0  0
 28 27  1  0  0  0  0
 29 28  2  0  0  0  0
 29 33  1  0  0  0  0
 30 31  1  0  0  0  0
 30 29  1  0  0  0  0
 31 32  2  0  0  0  0
 32 33  1  0  0  0  0
 32 39  1  0  0  0  0
 33 34  2  0  0  0  0
 34 26  1  0  0  0  0
 34 43  1  0  0  0  0
 36 28  1  0  0  0  0
 37 30  1  0  0  0  0
 38 31  1  0  0  0  0
 40 41  1  0  0  0  0
 41 42  2  0  0  0  0
 43 41  1  0  0  0  0
 44 43  1  0  0  0  0
M  END
>  <minimizedAffinity>
-5.69512367

$$$$

 OpenBabel03262520523D

 44 47  0  0  1  0  0  0  0  0999 V2000
   35.7980   31.8440   35.4490 C   0  0  0  0  0  0  0  0  0  0  0  0
   36.6140   31.0870   35.5160 H   0  0  0  0  0  0  0  0  0  0  0  0
   36.1800   32.8930   35.3600 H   0  0  0  0  0  0  0  0  0  0  0  0
   33.5040   31.7940   36.4940 C   0  0  1  0  0  0  0  0  0  0  0  0
   34.1880   32.9610   37.1640 C   0  0  0  0  0  0  0  0  0  0  0  0
   34.9600   31.8000   36.6750 C   0  0  2  0  0  0  0  0  0  0  0  0
   33.0910   31.9970   35.4830 H   0  0  0  0  0  0  0  0  0  0  0  0
   34.2880   33.9200   36.6010 H   0  0  0  0  0  0  0  0  0  0  0  0
   34.0200   33.1290   38.2450 H   0  0  0  0  0  0  0  0  0  0  0  0
   35.3140   31.1290   37.5130 H   0  0  0  0  0  0  0  0  0  0  0  0
   32.5840   30.9990   37.3630 C   0  0  0  0  0  0  0  0  0  0  0  0
   31.7490   31.6670   37.7240 H   0  0  0  0  0  0  0  0  0  0  0  0
   33.1110   30.6670   38.2700 H   0  0  0  0  0  0  0  0  0  0  0  0
   30.9860   27.6780   36.6740 C   0  0  0  0  0  0  0  0  0  0  0  0
   31.5730   28.7840   37.3630 C   0  0  0  0  0  0  0  0  0  0  0  0
   31.9790   29.8650   36.6250 C   0  0  0  0  0  0  0  0  0  0  0  0
   31.8080   29.8350   35.2950 N   0  0  0  0  0  0  0  0  0  0  0  0
   31.2590   28.7950   34.6600 C   0  0  0  0  0  0  0  0  0  0  0  0
   30.8540   27.7290   35.3560 N   0  0  0  0  0  0  0  0  0  0  0  0
   30.6950   26.8710   37.3310 H   0  0  0  0  0  0  0  0  0  0  0  0
   31.6970   28.7770   38.4500 H   0  0  0  0  0  0  0  0  0  0  0  0
   31.1090   28.7440   33.5890 H   0  0  0  0  0  0  0  0  0  0  0  0
   35.0520   31.5110   34.1770 C   0  0  0  0  0  0  0  0  0  0  0  0
   33.9770   31.3650   34.3700 H   0  0  0  0  0  0  0  0  0  0  0  0
   35.1920   32.3290   33.4390 H   0  0  0  0  0  0  0  0  0  0  0  0
   35.6850   30.0750   32.2690 C   0  0  0  0  0  0  0  0  0  0  0  0
   35.5930   30.2200   33.6450 C   0  0  0  0  0  0  0  0  0  0  0  0
   36.0000   29.1830   34.4690 C   0  0  0  0  0  0  0  0  0  0  0  0
   36.4940   28.0120   33.9560 C   0  0  0  0  0  0  0  0  0  0  0  0
   36.9400   26.8900   34.5560 N   0  0  0  0  0  0  0  0  0  0  0  0
   37.3070   26.0520   33.5720 C   0  0  0  0  0  0  0  0  0  0  0  0
   37.1120   26.5980   32.3100 C   0  0  0  0  0  0  0  0  0  0  0  0
   36.5890   27.8570   32.5900 C   0  0  0  0  0  0  0  0  0  0  0  0
   36.1890   28.8760   31.7750 C   0  0  0  0  0  0  0  0  0  0  0  0
   35.4010   30.8090   31.5300 H   0  0  0  0  0  0  0  0  0  0  0  0
   35.9220   29.3150   35.5360 H   0  0  0  0  0  0  0  0  0  0  0  0
   36.9970   26.6960   35.5790 H   0  0  0  0  0  0  0  0  0  0  0  0
   37.7120   25.0580   33.7230 H   0  0  0  0  0  0  0  0  0  0  0  0
   37.3240   26.1370   31.3700 H   0  0  0  0  0  0  0  0  0  0  0  0
   36.9870   28.6390   28.3920 H   0  0  0  0  0  0  0  0  0  0  0  0
   37.2870   28.9480   29.3950 C   0  0  0  0  0  0  0  0  0  0  0  0
   38.3960   29.4710   29.5800 O   0  0  0  0  0  0  0  0  0  0  0  0
   36.3020   28.6800   30.3660 N   0  0  0  0  0  0  0  0  0  0  0  0
   35.3790   28.2360   30.1630 H   0  0  0  0  0  0  0  0  0  0  0  0
  1  2  1  0  0  0  0
  1  6  1  0  0  0  0
  3  1  1  0  0  0  0
  4  7  1  6  0  0  0
  4  6  1  0  0  0  0
  4  5  1  0  0  0  0
  4 11  1  0  0  0  0
  5  9  1  0  0  0  0
  6  5  1  0  0  0  0
  6 10  1  1  0  0  0
  8  5  1  0  0  0  0
 11 12  1  0  0  0  0
 11 13  1  0  0  0  0
 14 20  1  0  0  0  0
 14 15  1  0  0  0  0
 15 21  1  0  0  0  0
 16 11  1  0  0  0  0
 16 15  2  0  0  0  0
 17 16  1  0  0  0  0
 18 17  2  0  0  0  0
 18 19  1  0  0  0  0
 19 14  2  0  0  0  0
 22 18  1  0  0  0  0
 23 24  1  0  0  0  0
 23  1  1  0  0  0  0
 25 23  1  0  0  0  0
 26 27  1  0  0  0  0
 27 23  1  0  0  0  0
 27 28  2  0  0  0  0
 28 36  1  0  0  0  0
 29 28  1  0  0  0  0
 29 30  1  0  0  0  0
 30 37  1  0  0  0  0
 31 38  1  0  0  0  0
 31 30  1  0  0  0  0
 32 33  1  0  0  0  0
 32 31  2  0  0  0  0
 33 29  2  0  0  0  0
 34 26  2  0  0  0  0
 34 33  1  0  0  0  0
 35 26  1  0  0  0  0
 39 32  1  0  0  0  0
 40 41  1  0  0  0  0
 41 42  2  0  0  0  0
 41 43  1  0  0  0  0
 43 34  1  0  0  0  0
 44 43  1  0  0  0  0
M  END
>  <minimizedAffinity>
-5.69444799

$$$$

 OpenBabel03262520523D

 44 47  0  0  1  0  0  0  0  0999 V2000
   35.8850   22.1320   31.5420 C   0  0  0  0  0  0  0  0  0  0  0  0
   35.2150   22.9760   31.2560 H   0  0  0  0  0  0  0  0  0  0  0  0
   35.9260   21.3230   30.7690 H   0  0  0  0  0  0  0  0  0  0  0  0
   36.4140   20.9690   33.7170 C   0  0  1  0  0  0  0  0  0  0  0  0
   35.4450   20.0390   33.0280 C   0  0  0  0  0  0  0  0  0  0  0  0
   35.4010   21.4970   32.7960 C   0  0  2  0  0  0  0  0  0  0  0  0
   37.4670   20.9050   33.3720 H   0  0  0  0  0  0  0  0  0  0  0  0
   35.8190   19.3960   32.1960 H   0  0  0  0  0  0  0  0  0  0  0  0
   34.6740   19.5280   33.6350 H   0  0  0  0  0  0  0  0  0  0  0  0
   34.5300   21.9950   33.3180 H   0  0  0  0  0  0  0  0  0  0  0  0
   36.2800   21.0570   35.2020 C   0  0  0  0  0  0  0  0  0  0  0  0
   36.4480   20.0350   35.6490 H   0  0  0  0  0  0  0  0  0  0  0  0
   35.2500   21.3340   35.4750 H   0  0  0  0  0  0  0  0  0  0  0  0
   39.4850   22.9330   35.7250 C   0  0  0  0  0  0  0  0  0  0  0  0
   38.5050   22.0470   35.1790 C   0  0  0  0  0  0  0  0  0  0  0  0
   37.2780   21.9840   35.7870 C   0  0  0  0  0  0  0  0  0  0  0  0
   37.0540   22.7540   36.8610 N   0  0  0  0  0  0  0  0  0  0  0  0
   37.9770   23.5800   37.3650 C   0  0  0  0  0  0  0  0  0  0  0  0
   39.1820   23.6600   36.7900 N   0  0  0  0  0  0  0  0  0  0  0  0
   40.4200   22.9200   35.1850 H   0  0  0  0  0  0  0  0  0  0  0  0
   38.7200   21.4320   34.3000 H   0  0  0  0  0  0  0  0  0  0  0  0
   37.8240   24.2120   38.2300 H   0  0  0  0  0  0  0  0  0  0  0  0
   37.2650   22.7410   31.6510 C   0  0  0  0  0  0  0  0  0  0  0  0
   37.8170   22.3310   32.5110 H   0  0  0  0  0  0  0  0  0  0  0  0
   37.8310   22.5480   30.7150 H   0  0  0  0  0  0  0  0  0  0  0  0
   37.3400   24.7000   33.1550 C   0  0  0  0  0  0  0  0  0  0  0  0
   37.1060   24.2130   31.8780 C   0  0  0  0  0  0  0  0  0  0  0  0
   36.7390   25.0900   30.8700 C   0  0  0  0  0  0  0  0  0  0  0  0
   36.6020   26.4340   31.1040 C   0  0  0  0  0  0  0  0  0  0  0  0
   36.2610   27.4540   30.2910 N   0  0  0  0  0  0  0  0  0  0  0  0
   36.2810   28.5650   31.0450 C   0  0  0  0  0  0  0  0  0  0  0  0
   36.6320   28.3060   32.3640 C   0  0  0  0  0  0  0  0  0  0  0  0
   36.8320   26.9280   32.3690 C   0  0  0  0  0  0  0  0  0  0  0  0
   37.1940   26.0670   33.3650 C   0  0  0  0  0  0  0  0  0  0  0  0
   37.6290   24.1170   34.0170 H   0  0  0  0  0  0  0  0  0  0  0  0
   36.5620   24.6930   29.8830 H   0  0  0  0  0  0  0  0  0  0  0  0
   36.0270   27.4060   29.2760 H   0  0  0  0  0  0  0  0  0  0  0  0
   36.0520   29.5630   30.6860 H   0  0  0  0  0  0  0  0  0  0  0  0
   36.7190   29.0150   33.1580 H   0  0  0  0  0  0  0  0  0  0  0  0
   38.3140   27.3930   36.3860 H   0  0  0  0  0  0  0  0  0  0  0  0
   38.5610   27.0120   35.3940 C   0  0  0  0  0  0  0  0  0  0  0  0
   39.7420   26.9650   35.0200 O   0  0  0  0  0  0  0  0  0  0  0  0
   37.4230   26.6150   34.6630 N   0  0  0  0  0  0  0  0  0  0  0  0
   36.4430   26.6730   35.0190 H   0  0  0  0  0  0  0  0  0  0  0  0
  1 23  1  0  0  0  0
  1  6  1  0  0  0  0
  2  1  1  0  0  0  0
  3  1  1  0  0  0  0
  4  7  1  6  0  0  0
  4 11  1  0  0  0  0
  5  9  1  0  0  0  0
  5  4  1  0  0  0  0
  6  5  1  0  0  0  0
  6 10  1  1  0  0  0
  6  4  1  0  0  0  0
  8  5  1  0  0  0  0
 11 13  1  0  0  0  0
 11 12  1  0  0  0  0
 11 16  1  0  0  0  0
 14 19  1  0  0  0  0
 15 14  2  0  0  0  0
 15 16  1  0  0  0  0
 16 17  2  0  0  0  0
 17 18  1  0  0  0  0
 18 22  1  0  0  0  0
 19 18  2  0  0  0  0
 20 14  1  0  0  0  0
 21 15  1  0  0  0  0
 23 27  1  0  0  0  0
 23 24  1  0  0  0  0
 25 23  1  0  0  0  0
 26 34  1  0  0  0  0
 26 35  1  0  0  0  0
 27 26  2  0  0  0  0
 28 29  2  0  0  0  0
 28 27  1  0  0  0  0
 29 33  1  0  0  0  0
 30 31  1  0  0  0  0
 30 29  1  0  0  0  0
 31 32  2  0  0  0  0
 32 33  1  0  0  0  0
 32 39  1  0  0  0  0
 33 34  2  0  0  0  0
 34 43  1  0  0  0  0
 36 28  1  0  0  0  0
 37 30  1  0  0  0  0
 38 31  1  0  0  0  0
 41 40  1  0  0  0  0
 42 41  2  0  0  0  0
 43 44  1  0  0  0  0
 43 41  1  0  0  0  0
M  END
>  <minimizedAffinity>
-5.53508711

$$$$

 OpenBabel03262520523D

 44 47  0  0  1  0  0  0  0  0999 V2000
   36.3090   28.3930   34.5700 C   0  0  0  0  0  0  0  0  0  0  0  0
   36.6180   29.2030   35.2730 H   0  0  0  0  0  0  0  0  0  0  0  0
   35.4580   27.7790   34.9580 H   0  0  0  0  0  0  0  0  0  0  0  0
   37.6260   26.3770   35.3190 C   0  0  1  0  0  0  0  0  0  0  0  0
   38.6660   27.4600   35.1670 C   0  0  0  0  0  0  0  0  0  0  0  0
   37.4400   27.4570   34.3430 C   0  0  2  0  0  0  0  0  0  0  0  0
   37.0410   26.4040   36.2620 H   0  0  0  0  0  0  0  0  0  0  0  0
   38.7500   28.2390   35.9620 H   0  0  0  0  0  0  0  0  0  0  0  0
   39.6510   27.1960   34.7370 H   0  0  0  0  0  0  0  0  0  0  0  0
   37.6340   27.1400   33.2750 H   0  0  0  0  0  0  0  0  0  0  0  0
   38.0630   25.0020   34.9300 C   0  0  0  0  0  0  0  0  0  0  0  0
   38.8920   25.0810   34.1680 H   0  0  0  0  0  0  0  0  0  0  0  0
   37.2440   24.4710   34.4230 H   0  0  0  0  0  0  0  0  0  0  0  0
   38.4030   23.6830   38.4240 C   0  0  0  0  0  0  0  0  0  0  0  0
   37.9240   24.4040   37.2870 C   0  0  0  0  0  0  0  0  0  0  0  0
   38.5800   24.2440   36.0940 C   0  0  0  0  0  0  0  0  0  0  0  0
   39.6380   23.4210   36.0490 N   0  0  0  0  0  0  0  0  0  0  0  0
   40.0790   22.7510   37.1190 C   0  0  0  0  0  0  0  0  0  0  0  0
   39.4560   22.8900   38.2940 N   0  0  0  0  0  0  0  0  0  0  0  0
   37.8280   23.8670   39.3200 H   0  0  0  0  0  0  0  0  0  0  0  0
   37.0560   25.0680   37.3570 H   0  0  0  0  0  0  0  0  0  0  0  0
   40.9290   22.0810   37.1120 H   0  0  0  0  0  0  0  0  0  0  0  0
   35.8380   29.1080   33.3240 C   0  0  0  0  0  0  0  0  0  0  0  0
   36.4000   30.0400   33.1610 H   0  0  0  0  0  0  0  0  0  0  0  0
   35.9570   28.4390   32.4460 H   0  0  0  0  0  0  0  0  0  0  0  0
   33.8520   29.3100   34.7790 C   0  0  0  0  0  0  0  0  0  0  0  0
   34.3990   29.4770   33.5160 C   0  0  0  0  0  0  0  0  0  0  0  0
   33.6110   29.9720   32.4900 C   0  0  0  0  0  0  0  0  0  0  0  0
   32.2960   30.3040   32.6940 C   0  0  0  0  0  0  0  0  0  0  0  0
   31.3570   30.7930   31.8590 N   0  0  0  0  0  0  0  0  0  0  0  0
   30.2360   30.9320   32.5860 C   0  0  0  0  0  0  0  0  0  0  0  0
   30.4090   30.5400   33.9070 C   0  0  0  0  0  0  0  0  0  0  0  0
   31.7420   30.1420   33.9440 C   0  0  0  0  0  0  0  0  0  0  0  0
   32.5160   29.6540   34.9570 C   0  0  0  0  0  0  0  0  0  0  0  0
   34.3640   28.9350   35.6530 H   0  0  0  0  0  0  0  0  0  0  0  0
   34.0550   30.0950   31.5160 H   0  0  0  0  0  0  0  0  0  0  0  0
   31.4640   31.0240   30.8470 H   0  0  0  0  0  0  0  0  0  0  0  0
   29.2920   31.3060   32.2050 H   0  0  0  0  0  0  0  0  0  0  0  0
   29.6750   30.5540   34.6830 H   0  0  0  0  0  0  0  0  0  0  0  0
   31.0170   28.7130   37.9580 H   0  0  0  0  0  0  0  0  0  0  0  0
   31.4200   28.4110   36.9900 C   0  0  0  0  0  0  0  0  0  0  0  0
   31.4150   27.2170   36.6580 O   0  0  0  0  0  0  0  0  0  0  0  0
   31.9080   29.4990   36.2400 N   0  0  0  0  0  0  0  0  0  0  0  0
   31.8920   30.4930   36.5620 H   0  0  0  0  0  0  0  0  0  0  0  0
  1  3  1  0  0  0  0
  1  2  1  0  0  0  0
  4  7  1  1  0  0  0
  5  4  1  0  0  0  0
  5  8  1  0  0  0  0
  6 10  1  6  0  0  0
  6  1  1  0  0  0  0
  6  5  1  0  0  0  0
  6  4  1  0  0  0  0
  9  5  1  0  0  0  0
 11  4  1  0  0  0  0
 11 16  1  0  0  0  0
 12 11  1  0  0  0  0
 13 11  1  0  0  0  0
 14 20  1  0  0  0  0
 15 21  1  0  0  0  0
 15 14  2  0  0  0  0
 16 15  1  0  0  0  0
 17 16  2  0  0  0  0
 17 18  1  0  0  0  0
 18 19  2  0  0  0  0
 19 14  1  0  0  0  0
 22 18  1  0  0  0  0
 23 27  1  0  0  0  0
 23  1  1  0  0  0  0
 24 23  1  0  0  0  0
 25 23  1  0  0  0  0
 26 34  1  0  0  0  0
 26 35  1  0  0  0  0
 27 26  2  0  0  0  0
 28 29  2  0  0  0  0
 28 27  1  0  0  0  0
 29 33  1  0  0  0  0
 30 31  1  0  0  0  0
 30 29  1  0  0  0  0
 31 32  2  0  0  0  0
 32 33  1  0  0  0  0
 32 39  1  0  0  0  0
 33 34  2  0  0  0  0
 34 43  1  0  0  0  0
 36 28  1  0  0  0  0
 37 30  1  0  0  0  0
 38 31  1  0  0  0  0
 41 40  1  0  0  0  0
 42 41  2  0  0  0  0
 43 44  1  0  0  0  0
 43 41  1  0  0  0  0
M  END
>  <minimizedAffinity>
-5.5228157

$$$$

 OpenBabel03262520523D

 44 47  0  0  1  0  0  0  0  0999 V2000
   35.9070   31.3140   35.3230 C   0  0  0  0  0  0  0  0  0  0  0  0
   36.7670   30.6450   35.5650 H   0  0  0  0  0  0  0  0  0  0  0  0
   36.2270   32.3260   34.9650 H   0  0  0  0  0  0  0  0  0  0  0  0
   33.6250   31.6490   36.3440 C   0  0  1  0  0  0  0  0  0  0  0  0
   34.4280   32.8270   36.8410 C   0  0  0  0  0  0  0  0  0  0  0  0
   35.0760   31.5360   36.5350 C   0  0  2  0  0  0  0  0  0  0  0  0
   33.2300   31.7420   35.3100 H   0  0  0  0  0  0  0  0  0  0  0  0
   34.6200   33.6780   36.1440 H   0  0  0  0  0  0  0  0  0  0  0  0
   34.2840   33.1680   37.8840 H   0  0  0  0  0  0  0  0  0  0  0  0
   35.3660   30.9620   37.4660 H   0  0  0  0  0  0  0  0  0  0  0  0
   32.6360   31.0870   37.3110 C   0  0  0  0  0  0  0  0  0  0  0  0
   31.8220   31.8480   37.4910 H   0  0  0  0  0  0  0  0  0  0  0  0
   33.1110   30.9250   38.2900 H   0  0  0  0  0  0  0  0  0  0  0  0
   31.1800   28.6010   34.9110 C   0  0  0  0  0  0  0  0  0  0  0  0
   31.7890   29.7810   35.4380 C   0  0  0  0  0  0  0  0  0  0  0  0
   32.0030   29.8520   36.7900 C   0  0  0  0  0  0  0  0  0  0  0  0
   31.6330   28.8140   37.5530 N   0  0  0  0  0  0  0  0  0  0  0  0
   31.0630   27.7130   37.0510 C   0  0  0  0  0  0  0  0  0  0  0  0
   30.8440   27.6200   35.7350 N   0  0  0  0  0  0  0  0  0  0  0  0
   31.0490   28.6290   33.8390 H   0  0  0  0  0  0  0  0  0  0  0  0
   32.0800   30.6120   34.7860 H   0  0  0  0  0  0  0  0  0  0  0  0
   30.7550   26.8610   37.6420 H   0  0  0  0  0  0  0  0  0  0  0  0
   35.1780   30.6290   34.1900 C   0  0  0  0  0  0  0  0  0  0  0  0
   34.1200   30.4550   34.4420 H   0  0  0  0  0  0  0  0  0  0  0  0
   35.2480   31.2520   33.2730 H   0  0  0  0  0  0  0  0  0  0  0  0
   35.7010   28.7200   32.7120 C   0  0  0  0  0  0  0  0  0  0  0  0
   35.8150   29.2920   33.9700 C   0  0  0  0  0  0  0  0  0  0  0  0
   36.5040   28.6180   34.9650 C   0  0  0  0  0  0  0  0  0  0  0  0
   37.0790   27.3940   34.7370 C   0  0  0  0  0  0  0  0  0  0  0  0
   37.7820   26.5720   35.5410 N   0  0  0  0  0  0  0  0  0  0  0  0
   38.1060   25.5000   34.8000 C   0  0  0  0  0  0  0  0  0  0  0  0
   37.6270   25.5890   33.4990 C   0  0  0  0  0  0  0  0  0  0  0  0
   36.9710   26.8170   33.4910 C   0  0  0  0  0  0  0  0  0  0  0  0
   36.2940   27.4780   32.5070 C   0  0  0  0  0  0  0  0  0  0  0  0
   35.1920   29.1470   31.8600 H   0  0  0  0  0  0  0  0  0  0  0  0
   36.5820   29.0780   35.9370 H   0  0  0  0  0  0  0  0  0  0  0  0
   38.0340   26.7240   36.5420 H   0  0  0  0  0  0  0  0  0  0  0  0
   38.6770   24.6490   35.1550 H   0  0  0  0  0  0  0  0  0  0  0  0
   37.7490   24.8710   32.7170 H   0  0  0  0  0  0  0  0  0  0  0  0
   35.7080   25.5780   29.6460 H   0  0  0  0  0  0  0  0  0  0  0  0
   35.5080   25.7410   30.7060 C   0  0  0  0  0  0  0  0  0  0  0  0
   34.7360   24.9880   31.3180 O   0  0  0  0  0  0  0  0  0  0  0  0
   36.2030   26.8500   31.2280 N   0  0  0  0  0  0  0  0  0  0  0  0
   36.8450   27.4590   30.6730 H   0  0  0  0  0  0  0  0  0  0  0  0
  1  2  1  0  0  0  0
  1  6  1  0  0  0  0
  3  1  1  0  0  0  0
  4  7  1  6  0  0  0
  4  6  1  0  0  0  0
  4  5  1  0  0  0  0
  4 11  1  0  0  0  0
  5  9  1  0  0  0  0
  6  5  1  0  0  0  0
  6 10  1  1  0  0  0
  8  5  1  0  0  0  0
 11 12  1  0  0  0  0
 11 13  1  0  0  0  0
 14 15  2  0  0  0  0
 14 19  1  0  0  0  0
 15 16  1  0  0  0  0
 16 11  1  0  0  0  0
 16 17  2  0  0  0  0
 18 17  1  0  0  0  0
 18 22  1  0  0  0  0
 19 18  2  0  0  0  0
 20 14  1  0  0  0  0
 21 15  1  0  0  0  0
 23 24  1  0  0  0  0
 23  1  1  0  0  0  0
 25 23  1  0  0  0  0
 26 27  1  0  0  0  0
 27 23  1  0  0  0  0
 27 28  2  0  0  0  0
 28 36  1  0  0  0  0
 29 28  1  0  0  0  0
 29 30  1  0  0  0  0
 30 37  1  0  0  0  0
 31 38  1  0  0  0  0
 31 30  1  0  0  0  0
 32 31  2  0  0  0  0
 33 32  1  0  0  0  0
 33 29  2  0  0  0  0
 34 26  2  0  0  0  0
 34 33  1  0  0  0  0
 35 26  1  0  0  0  0
 39 32  1  0  0  0  0
 40 41  1  0  0  0  0
 41 43  1  0  0  0  0
 41 42  2  0  0  0  0
 43 34  1  0  0  0  0
 44 43  1  0  0  0  0
M  END
>  <minimizedAffinity>
-5.50636721

$$$$

 OpenBabel03262520523D

 44 47  0  0  1  0  0  0  0  0999 V2000
   37.9840   27.3480   35.1580 C   0  0  0  0  0  0  0  0  0  0  0  0
   37.8610   26.5550   35.9320 H   0  0  0  0  0  0  0  0  0  0  0  0
   38.2220   28.3520   35.5940 H   0  0  0  0  0  0  0  0  0  0  0  0
   36.8440   27.9350   32.9870 C   0  0  1  0  0  0  0  0  0  0  0  0
   36.1760   28.8260   34.0060 C   0  0  0  0  0  0  0  0  0  0  0  0
   36.7250   27.5090   34.3850 C   0  0  2  0  0  0  0  0  0  0  0  0
   37.8310   28.2850   32.6180 H   0  0  0  0  0  0  0  0  0  0  0  0
   36.7200   29.7330   34.3640 H   0  0  0  0  0  0  0  0  0  0  0  0
   35.0850   28.9970   33.9310 H   0  0  0  0  0  0  0  0  0  0  0  0
   35.9190   26.7330   34.5550 H   0  0  0  0  0  0  0  0  0  0  0  0
   35.9560   27.4140   31.9040 C   0  0  0  0  0  0  0  0  0  0  0  0
   36.0590   28.0720   30.9930 H   0  0  0  0  0  0  0  0  0  0  0  0
   34.9010   27.4900   32.2080 H   0  0  0  0  0  0  0  0  0  0  0  0
   38.0060   24.4830   30.7750 C   0  0  0  0  0  0  0  0  0  0  0  0
   37.6270   25.8080   31.1540 C   0  0  0  0  0  0  0  0  0  0  0  0
   36.3240   26.0310   31.5150 C   0  0  0  0  0  0  0  0  0  0  0  0
   35.4670   25.0000   31.4950 N   0  0  0  0  0  0  0  0  0  0  0  0
   35.8310   23.7640   31.1380 C   0  0  0  0  0  0  0  0  0  0  0  0
   37.0970   23.5200   30.7820 N   0  0  0  0  0  0  0  0  0  0  0  0
   39.0490   24.3970   30.5070 H   0  0  0  0  0  0  0  0  0  0  0  0
   38.3520   26.6280   31.1610 H   0  0  0  0  0  0  0  0  0  0  0  0
   35.1620   22.9140   31.1130 H   0  0  0  0  0  0  0  0  0  0  0  0
   39.1680   26.9100   34.3270 C   0  0  0  0  0  0  0  0  0  0  0  0
   38.8660   26.6720   33.2950 H   0  0  0  0  0  0  0  0  0  0  0  0
   39.9340   27.7150   34.3170 H   0  0  0  0  0  0  0  0  0  0  0  0
   38.9000   24.9240   35.7700 C   0  0  0  0  0  0  0  0  0  0  0  0
   39.7250   25.6600   34.9340 C   0  0  0  0  0  0  0  0  0  0  0  0
   41.0160   25.2200   34.6900 C   0  0  0  0  0  0  0  0  0  0  0  0
   41.5000   24.0700   35.2580 C   0  0  0  0  0  0  0  0  0  0  0  0
   42.7010   23.4630   35.1650 N   0  0  0  0  0  0  0  0  0  0  0  0
   42.6320   22.3620   35.9310 C   0  0  0  0  0  0  0  0  0  0  0  0
   41.3930   22.2190   36.5430 C   0  0  0  0  0  0  0  0  0  0  0  0
   40.6890   23.3310   36.0910 C   0  0  0  0  0  0  0  0  0  0  0  0
   39.4170   23.7610   36.3330 C   0  0  0  0  0  0  0  0  0  0  0  0
   37.8810   25.1640   36.0340 H   0  0  0  0  0  0  0  0  0  0  0  0
   41.6420   25.8050   34.0360 H   0  0  0  0  0  0  0  0  0  0  0  0
   43.5290   23.7730   34.6110 H   0  0  0  0  0  0  0  0  0  0  0  0
   43.4390   21.6510   36.0700 H   0  0  0  0  0  0  0  0  0  0  0  0
   41.0860   21.4320   37.1980 H   0  0  0  0  0  0  0  0  0  0  0  0
   37.3450   22.3270   38.7390 H   0  0  0  0  0  0  0  0  0  0  0  0
   37.8340   23.2230   38.3530 C   0  0  0  0  0  0  0  0  0  0  0  0
   37.6780   24.3120   38.9240 O   0  0  0  0  0  0  0  0  0  0  0  0
   38.6050   22.9710   37.2010 N   0  0  0  0  0  0  0  0  0  0  0  0
   38.7070   22.0330   36.7530 H   0  0  0  0  0  0  0  0  0  0  0  0
  1  3  1  0  0  0  0
  1  2  1  0  0  0  0
  4  7  1  6  0  0  0
  4  5  1  0  0  0  0
  4  6  1  0  0  0  0
  5  8  1  0  0  0  0
  5  6  1  0  0  0  0
  6 10  1  1  0  0  0
  6  1  1  0  0  0  0
  9  5  1  0  0  0  0
 11 13  1  0  0  0  0
 11  4  1  0  0  0  0
 12 11  1  0  0  0  0
 14 19  2  0  0  0  0
 14 15  1  0  0  0  0
 15 21  1  0  0  0  0
 15 16  2  0  0  0  0
 16 11  1  0  0  0  0
 17 16  1  0  0  0  0
 18 17  2  0  0  0  0
 19 18  1  0  0  0  0
 20 14  1  0  0  0  0
 22 18  1  0  0  0  0
 23 27  1  0  0  0  0
 23  1  1  0  0  0  0
 24 23  1  0  0  0  0
 25 23  1  0  0  0  0
 26 35  1  0  0  0  0
 26 34  1  0  0  0  0
 27 26  2  0  0  0  0
 28 27  1  0  0  0  0
 28 29  2  0  0  0  0
 29 33  1  0  0  0  0
 30 29  1  0  0  0  0
 30 31  1  0  0  0  0
 31 38  1  0  0  0  0
 31 32  2  0  0  0  0
 32 39  1  0  0  0  0
 33 34  2  0  0  0  0
 33 32  1  0  0  0  0
 34 43  1  0  0  0  0
 36 28  1  0  0  0  0
 37 30  1  0  0  0  0
 41 40  1  0  0  0  0
 41 42  2  0  0  0  0
 43 41  1  0  0  0  0
 44 43  1  0  0  0  0
M  END
>  <minimizedAffinity>
-5.47507429

$$$$
