
 OpenBabel03272500413D

 36 38  0  0  1  0  0  0  0  0999 V2000
   38.4200   27.0970   34.3280 C   0  0  1  0  0  0  0  0  0  0  0  0
   38.7720   27.2230   35.7110 C   0  0  0  0  0  0  0  0  0  0  0  0
   38.1840   25.9430   35.1940 C   0  0  2  0  0  0  0  0  0  0  0  0
   39.1900   27.2600   33.5950 H   0  0  0  0  0  0  0  0  0  0  0  0
   38.1180   27.8380   36.3890 H   0  0  0  0  0  0  0  0  0  0  0  0
   39.8150   27.2600   36.0230 H   0  0  0  0  0  0  0  0  0  0  0  0
   37.1580   25.7140   35.5300 H   0  0  0  0  0  0  0  0  0  0  0  0
   37.1440   27.6890   33.7470 C   0  0  0  0  0  0  0  0  0  0  0  0
   36.7490   27.2590   32.4890 C   0  0  0  0  0  0  0  0  0  0  0  0
   35.5890   27.8310   31.9940 C   0  0  0  0  0  0  0  0  0  0  0  0
   34.9190   28.7560   32.7420 N   0  0  0  0  0  0  0  0  0  0  0  0
   35.3270   29.1590   33.9710 C   0  0  0  0  0  0  0  0  0  0  0  0
   36.4630   28.6100   34.4780 N   0  0  0  0  0  0  0  0  0  0  0  0
   37.2900   26.5350   31.9220 H   0  0  0  0  0  0  0  0  0  0  0  0
   35.1780   27.5790   31.0260 H   0  0  0  0  0  0  0  0  0  0  0  0
   34.1560   31.7210   36.0470 H   0  0  0  0  0  0  0  0  0  0  0  0
   34.9620   31.1100   35.6510 C   0  0  0  0  0  0  0  0  0  0  0  0
   36.2250   31.0330   35.8180 O   0  0  0  0  0  0  0  0  0  0  0  0
   34.5820   30.1280   34.7000 N   0  0  0  0  0  0  0  0  0  0  0  0
   33.6250   29.9190   34.3340 H   0  0  0  0  0  0  0  0  0  0  0  0
   38.9740   23.9350   36.4170 C   0  0  2  0  0  0  0  0  0  0  0  0
   39.0560   24.7270   35.1860 C   0  0  1  0  0  0  0  0  0  0  0  0
   38.5840   23.8100   34.1090 C   0  0  0  0  0  0  0  0  0  0  0  0
   37.7940   22.8250   34.7080 O   0  0  0  0  0  0  0  0  0  0  0  0
   38.5330   22.5060   35.8020 C   0  0  0  0  0  0  0  0  0  0  0  0
   39.7830   23.5390   36.9930 H   0  0  0  0  0  0  0  0  0  0  0  0
   40.0990   25.1030   34.9780 H   0  0  0  0  0  0  0  0  0  0  0  0
   39.5110   23.2210   33.8750 H   0  0  0  0  0  0  0  0  0  0  0  0
   38.2850   24.1690   33.1590 H   0  0  0  0  0  0  0  0  0  0  0  0
   39.5250   22.1360   35.4140 H   0  0  0  0  0  0  0  0  0  0  0  0
   38.1560   21.8770   36.5660 H   0  0  0  0  0  0  0  0  0  0  0  0
   37.8370   24.2380   37.1480 O   0  0  0  0  0  0  0  0  0  0  0  0
   37.8290   24.1900   38.4190 C   0  0  0  0  0  0  0  0  0  0  0  0
   38.5820   24.8280   38.9820 H   0  0  0  0  0  0  0  0  0  0  0  0
   37.7610   23.1780   38.9270 H   0  0  0  0  0  0  0  0  0  0  0  0
   36.8220   24.6410   38.8070 H   0  0  0  0  0  0  0  0  0  0  0  0
  1  4  1  6  0  0  0
  1  3  1  0  0  0  0
  1  2  1  0  0  0  0
  2  6  1  0  0  0  0
  2  5  1  0  0  0  0
  3  7  1  1  0  0  0
  3  2  1  0  0  0  0
  8  1  1  0  0  0  0
  8 13  1  0  0  0  0
  9  8  2  0  0  0  0
 10  9  1  0  0  0  0
 10 11  2  0  0  0  0
 11 12  1  0  0  0  0
 12 13  2  0  0  0  0
 12 19  1  0  0  0  0
 14  9  1  0  0  0  0
 15 10  1  0  0  0  0
 17 18  2  0  0  0  0
 17 16  1  0  0  0  0
 19 17  1  0  0  0  0
 20 19  1  0  0  0  0
 21 26  1  1  0  0  0
 21 32  1  0  0  0  0
 22 27  1  6  0  0  0
 22  3  1  0  0  0  0
 22 21  1  0  0  0  0
 23 24  1  0  0  0  0
 23 22  1  0  0  0  0
 24 25  1  0  0  0  0
 25 21  1  0  0  0  0
 25 31  1  0  0  0  0
 28 23  1  0  0  0  0
 29 23  1  0  0  0  0
 30 25  1  0  0  0  0
 32 33  1  0  0  0  0
 33 36  1  0  0  0  0
 33 35  1  0  0  0  0
 33 34  1  0  0  0  0
M  END
>  <minimizedAffinity>
-5.11029673

$$$$

 OpenBabel03272500413D

 36 38  0  0  1  0  0  0  0  0999 V2000
   39.6930   24.9940   34.2680 C   0  0  1  0  0  0  0  0  0  0  0  0
   39.8200   24.2240   33.0650 C   0  0  0  0  0  0  0  0  0  0  0  0
   38.5690   25.0080   33.3330 C   0  0  2  0  0  0  0  0  0  0  0  0
   40.4340   25.7480   34.4630 H   0  0  0  0  0  0  0  0  0  0  0  0
   39.7320   23.1040   33.1200 H   0  0  0  0  0  0  0  0  0  0  0  0
   40.5000   24.5320   32.2720 H   0  0  0  0  0  0  0  0  0  0  0  0
   37.6660   24.4140   33.5570 H   0  0  0  0  0  0  0  0  0  0  0  0
   39.3540   24.3670   35.6130 C   0  0  0  0  0  0  0  0  0  0  0  0
   38.3020   24.9130   36.3310 C   0  0  0  0  0  0  0  0  0  0  0  0
   38.0350   24.3210   37.5540 C   0  0  0  0  0  0  0  0  0  0  0  0
   38.7950   23.2680   37.9740 N   0  0  0  0  0  0  0  0  0  0  0  0
   39.8200   22.7510   37.2510 C   0  0  0  0  0  0  0  0  0  0  0  0
   40.0990   23.3160   36.0470 N   0  0  0  0  0  0  0  0  0  0  0  0
   37.7230   25.7390   35.9820 H   0  0  0  0  0  0  0  0  0  0  0  0
   37.2410   24.6560   38.2060 H   0  0  0  0  0  0  0  0  0  0  0  0
   42.2240   20.3480   38.0800 H   0  0  0  0  0  0  0  0  0  0  0  0
   41.9240   21.2550   37.5650 C   0  0  0  0  0  0  0  0  0  0  0  0
   42.4870   22.1080   36.7990 O   0  0  0  0  0  0  0  0  0  0  0  0
   40.5730   21.6500   37.7470 N   0  0  0  0  0  0  0  0  0  0  0  0
   39.8330   21.1780   38.3150 H   0  0  0  0  0  0  0  0  0  0  0  0
   37.1170   25.9520   31.5590 C   0  0  2  0  0  0  0  0  0  0  0  0
   38.2680   26.1690   32.4400 C   0  0  1  0  0  0  0  0  0  0  0  0
   37.8860   27.3360   33.2870 C   0  0  0  0  0  0  0  0  0  0  0  0
   36.4900   27.4140   33.2950 O   0  0  0  0  0  0  0  0  0  0  0  0
   36.1960   27.2110   31.9850 C   0  0  0  0  0  0  0  0  0  0  0  0
   37.0530   26.1470   30.5090 H   0  0  0  0  0  0  0  0  0  0  0  0
   39.2210   26.3690   31.8710 H   0  0  0  0  0  0  0  0  0  0  0  0
   38.1400   28.2060   32.6250 H   0  0  0  0  0  0  0  0  0  0  0  0
   38.3960   27.5660   34.1860 H   0  0  0  0  0  0  0  0  0  0  0  0
   36.7060   28.0410   31.4160 H   0  0  0  0  0  0  0  0  0  0  0  0
   35.2000   27.0680   31.6540 H   0  0  0  0  0  0  0  0  0  0  0  0
   36.3180   24.9130   32.0040 O   0  0  0  0  0  0  0  0  0  0  0  0
   35.3280   24.4940   31.3240 C   0  0  0  0  0  0  0  0  0  0  0  0
   35.5250   24.1290   30.2650 H   0  0  0  0  0  0  0  0  0  0  0  0
   34.3680   25.0970   31.3270 H   0  0  0  0  0  0  0  0  0  0  0  0
   34.9160   23.5180   31.8200 H   0  0  0  0  0  0  0  0  0  0  0  0
  1  4  1  1  0  0  0
  1  8  1  0  0  0  0
  2  5  1  0  0  0  0
  2  3  1  0  0  0  0
  2  1  1  0  0  0  0
  3  7  1  1  0  0  0
  3  1  1  0  0  0  0
  6  2  1  0  0  0  0
  8 13  2  0  0  0  0
  8  9  1  0  0  0  0
  9 10  2  0  0  0  0
 10 11  1  0  0  0  0
 10 15  1  0  0  0  0
 12 19  1  0  0  0  0
 12 11  2  0  0  0  0
 13 12  1  0  0  0  0
 14  9  1  0  0  0  0
 17 19  1  0  0  0  0
 17 16  1  0  0  0  0
 18 17  2  0  0  0  0
 19 20  1  0  0  0  0
 21 26  1  6  0  0  0
 21 25  1  0  0  0  0
 21 32  1  0  0  0  0
 21 22  1  0  0  0  0
 22 27  1  6  0  0  0
 22 23  1  0  0  0  0
 22  3  1  0  0  0  0
 23 24  1  0  0  0  0
 23 29  1  0  0  0  0
 25 24  1  0  0  0  0
 28 23  1  0  0  0  0
 30 25  1  0  0  0  0
 31 25  1  0  0  0  0
 33 35  1  0  0  0  0
 33 36  1  0  0  0  0
 33 32  1  0  0  0  0
 34 33  1  0  0  0  0
M  END
>  <minimizedAffinity>
-5.0035696

$$$$

 OpenBabel03272500413D

 36 38  0  0  1  0  0  0  0  0999 V2000
   38.5770   25.9060   35.3110 C   0  0  1  0  0  0  0  0  0  0  0  0
   38.5460   27.3170   35.5570 C   0  0  0  0  0  0  0  0  0  0  0  0
   39.8250   26.6490   35.1430 C   0  0  2  0  0  0  0  0  0  0  0  0
   37.9090   25.5100   34.5680 H   0  0  0  0  0  0  0  0  0  0  0  0
   38.4940   27.6870   36.6180 H   0  0  0  0  0  0  0  0  0  0  0  0
   38.0360   27.9940   34.8740 H   0  0  0  0  0  0  0  0  0  0  0  0
   40.6070   26.5830   35.9190 H   0  0  0  0  0  0  0  0  0  0  0  0
   38.6320   24.8770   36.4310 C   0  0  0  0  0  0  0  0  0  0  0  0
   37.8380   25.0970   37.5470 C   0  0  0  0  0  0  0  0  0  0  0  0
   37.9270   24.1430   38.5470 C   0  0  0  0  0  0  0  0  0  0  0  0
   38.7620   23.0750   38.3890 N   0  0  0  0  0  0  0  0  0  0  0  0
   39.5290   22.8830   37.2870 C   0  0  0  0  0  0  0  0  0  0  0  0
   39.4570   23.8060   36.2920 N   0  0  0  0  0  0  0  0  0  0  0  0
   37.1930   25.9410   37.6480 H   0  0  0  0  0  0  0  0  0  0  0  0
   37.3580   24.2020   39.4650 H   0  0  0  0  0  0  0  0  0  0  0  0
   42.0400   20.5380   36.6240 H   0  0  0  0  0  0  0  0  0  0  0  0
   41.6150   21.5320   36.5220 C   0  0  0  0  0  0  0  0  0  0  0  0
   41.9440   22.6180   35.9360 O   0  0  0  0  0  0  0  0  0  0  0  0
   40.3790   21.7470   37.1850 N   0  0  0  0  0  0  0  0  0  0  0  0
   39.8280   21.0680   37.7590 H   0  0  0  0  0  0  0  0  0  0  0  0
   41.8510   26.8740   33.7310 C   0  0  2  0  0  0  0  0  0  0  0  0
   40.3920   26.9970   33.8030 C   0  0  1  0  0  0  0  0  0  0  0  0
   39.8760   26.0200   32.8010 C   0  0  0  0  0  0  0  0  0  0  0  0
   40.8700   25.0590   32.5960 O   0  0  0  0  0  0  0  0  0  0  0  0
   41.9840   25.8310   32.5030 C   0  0  0  0  0  0  0  0  0  0  0  0
   42.5450   27.5790   33.3240 H   0  0  0  0  0  0  0  0  0  0  0  0
   40.0300   28.0420   33.5830 H   0  0  0  0  0  0  0  0  0  0  0  0
   39.9470   26.6020   31.8430 H   0  0  0  0  0  0  0  0  0  0  0  0
   38.8700   25.6930   32.8050 H   0  0  0  0  0  0  0  0  0  0  0  0
   41.8160   26.5210   31.6270 H   0  0  0  0  0  0  0  0  0  0  0  0
   42.9550   25.4070   32.4830 H   0  0  0  0  0  0  0  0  0  0  0  0
   42.3520   26.0950   34.7600 O   0  0  0  0  0  0  0  0  0  0  0  0
   43.5620   25.7030   34.7690 C   0  0  0  0  0  0  0  0  0  0  0  0
   44.3800   26.4910   34.7240 H   0  0  0  0  0  0  0  0  0  0  0  0
   43.8600   24.8340   34.1040 H   0  0  0  0  0  0  0  0  0  0  0  0
   43.7900   25.2080   35.8040 H   0  0  0  0  0  0  0  0  0  0  0  0
  1  4  1  6  0  0  0
  1  2  1  0  0  0  0
  1  8  1  0  0  0  0
  2  5  1  0  0  0  0
  3  1  1  0  0  0  0
  3  2  1  0  0  0  0
  3  7  1  1  0  0  0
  6  2  1  0  0  0  0
  8  9  1  0  0  0  0
  9 14  1  0  0  0  0
  9 10  2  0  0  0  0
 10 15  1  0  0  0  0
 11 10  1  0  0  0  0
 12 11  2  0  0  0  0
 13  8  2  0  0  0  0
 13 12  1  0  0  0  0
 17 16  1  0  0  0  0
 17 19  1  0  0  0  0
 18 17  2  0  0  0  0
 19 12  1  0  0  0  0
 19 20  1  0  0  0  0
 21 26  1  6  0  0  0
 21 22  1  0  0  0  0
 21 32  1  0  0  0  0
 22 27  1  6  0  0  0
 22  3  1  0  0  0  0
 23 29  1  0  0  0  0
 23 22  1  0  0  0  0
 24 23  1  0  0  0  0
 25 24  1  0  0  0  0
 25 21  1  0  0  0  0
 28 23  1  0  0  0  0
 30 25  1  0  0  0  0
 31 25  1  0  0  0  0
 32 33  1  0  0  0  0
 33 36  1  0  0  0  0
 34 33  1  0  0  0  0
 35 33  1  0  0  0  0
M  END
>  <minimizedAffinity>
-4.95398188

$$$$

 OpenBabel03272500413D

 36 38  0  0  1  0  0  0  0  0999 V2000
   38.7760   26.5350   34.1710 C   0  0  1  0  0  0  0  0  0  0  0  0
   38.6730   26.8410   35.5670 C   0  0  0  0  0  0  0  0  0  0  0  0
   38.6420   25.4150   35.1010 C   0  0  2  0  0  0  0  0  0  0  0  0
   39.6420   26.8870   33.6400 H   0  0  0  0  0  0  0  0  0  0  0  0
   37.7100   27.2610   35.9670 H   0  0  0  0  0  0  0  0  0  0  0  0
   39.5320   27.2170   36.1220 H   0  0  0  0  0  0  0  0  0  0  0  0
   37.6710   24.8990   35.1970 H   0  0  0  0  0  0  0  0  0  0  0  0
   37.6020   26.6690   33.2120 C   0  0  0  0  0  0  0  0  0  0  0  0
   36.9840   27.9070   33.1180 C   0  0  0  0  0  0  0  0  0  0  0  0
   35.9130   27.9820   32.2440 C   0  0  0  0  0  0  0  0  0  0  0  0
   35.5340   26.8720   31.5440 N   0  0  0  0  0  0  0  0  0  0  0  0
   36.1550   25.6720   31.6540 C   0  0  0  0  0  0  0  0  0  0  0  0
   37.2100   25.5750   32.5060 N   0  0  0  0  0  0  0  0  0  0  0  0
   37.2990   28.7600   33.6760 H   0  0  0  0  0  0  0  0  0  0  0  0
   35.3510   28.8910   32.0830 H   0  0  0  0  0  0  0  0  0  0  0  0
   35.3120   22.5300   30.3650 H   0  0  0  0  0  0  0  0  0  0  0  0
   35.7340   23.1570   31.1450 C   0  0  0  0  0  0  0  0  0  0  0  0
   36.2760   22.9670   32.2850 O   0  0  0  0  0  0  0  0  0  0  0  0
   35.7090   24.5530   30.8960 N   0  0  0  0  0  0  0  0  0  0  0  0
   35.3350   25.0530   30.0570 H   0  0  0  0  0  0  0  0  0  0  0  0
   39.5080   23.6690   36.6340 C   0  0  2  0  0  0  0  0  0  0  0  0
   39.7870   24.5310   35.4820 C   0  0  1  0  0  0  0  0  0  0  0  0
   40.0560   23.5900   34.3560 C   0  0  0  0  0  0  0  0  0  0  0  0
   39.4500   22.3700   34.6700 O   0  0  0  0  0  0  0  0  0  0  0  0
   39.7940   22.2200   35.9750 C   0  0  0  0  0  0  0  0  0  0  0  0
   40.1280   23.5020   37.4890 H   0  0  0  0  0  0  0  0  0  0  0  0
   40.6600   25.2240   35.6560 H   0  0  0  0  0  0  0  0  0  0  0  0
   41.1370   23.3330   34.5140 H   0  0  0  0  0  0  0  0  0  0  0  0
   40.0320   23.9050   33.3460 H   0  0  0  0  0  0  0  0  0  0  0  0
   40.9210   22.2010   36.0030 H   0  0  0  0  0  0  0  0  0  0  0  0
   39.3780   21.4530   36.5760 H   0  0  0  0  0  0  0  0  0  0  0  0
   38.1490   23.5550   36.8740 O   0  0  0  0  0  0  0  0  0  0  0  0
   37.6910   23.3920   38.0490 C   0  0  0  0  0  0  0  0  0  0  0  0
   37.9490   24.1700   38.8360 H   0  0  0  0  0  0  0  0  0  0  0  0
   37.7560   22.3630   38.5220 H   0  0  0  0  0  0  0  0  0  0  0  0
   36.5260   23.4890   38.0160 H   0  0  0  0  0  0  0  0  0  0  0  0
  1  4  1  6  0  0  0
  1  3  1  0  0  0  0
  1  2  1  0  0  0  0
  2  5  1  0  0  0  0
  2  6  1  0  0  0  0
  3  7  1  1  0  0  0
  3 22  1  0  0  0  0
  3  2  1  0  0  0  0
  8  1  1  0  0  0  0
  9  8  1  0  0  0  0
  9 14  1  0  0  0  0
 10  9  2  0  0  0  0
 11 12  2  0  0  0  0
 11 10  1  0  0  0  0
 12 13  1  0  0  0  0
 13  8  2  0  0  0  0
 15 10  1  0  0  0  0
 16 17  1  0  0  0  0
 17 18  2  0  0  0  0
 19 17  1  0  0  0  0
 19 12  1  0  0  0  0
 20 19  1  0  0  0  0
 21 32  1  0  0  0  0
 21 26  1  1  0  0  0
 22 27  1  1  0  0  0
 22 21  1  0  0  0  0
 23 28  1  0  0  0  0
 23 24  1  0  0  0  0
 23 22  1  0  0  0  0
 24 25  1  0  0  0  0
 25 30  1  0  0  0  0
 25 31  1  0  0  0  0
 25 21  1  0  0  0  0
 29 23  1  0  0  0  0
 32 33  1  0  0  0  0
 33 35  1  0  0  0  0
 33 34  1  0  0  0  0
 36 33  1  0  0  0  0
M  END
>  <minimizedAffinity>
-4.70754099

$$$$

 OpenBabel03272500413D

 36 38  0  0  1  0  0  0  0  0999 V2000
   38.4410   26.4530   34.3120 C   0  0  1  0  0  0  0  0  0  0  0  0
   39.6430   27.0520   33.8110 C   0  0  0  0  0  0  0  0  0  0  0  0
   38.5080   26.7400   32.8800 C   0  0  2  0  0  0  0  0  0  0  0  0
   37.9100   26.9670   35.0920 H   0  0  0  0  0  0  0  0  0  0  0  0
   40.5670   26.4210   33.7050 H   0  0  0  0  0  0  0  0  0  0  0  0
   39.8910   28.0870   34.0420 H   0  0  0  0  0  0  0  0  0  0  0  0
   38.6830   25.9150   32.1670 H   0  0  0  0  0  0  0  0  0  0  0  0
   38.3340   24.9680   34.6280 C   0  0  0  0  0  0  0  0  0  0  0  0
   38.0030   24.1110   33.5890 C   0  0  0  0  0  0  0  0  0  0  0  0
   37.9040   22.7700   33.9220 C   0  0  0  0  0  0  0  0  0  0  0  0
   38.1300   22.3760   35.2090 N   0  0  0  0  0  0  0  0  0  0  0  0
   38.4530   23.2350   36.2080 C   0  0  0  0  0  0  0  0  0  0  0  0
   38.5560   24.5560   35.9040 N   0  0  0  0  0  0  0  0  0  0  0  0
   37.8300   24.4440   32.5900 H   0  0  0  0  0  0  0  0  0  0  0  0
   37.6530   22.0050   33.2010 H   0  0  0  0  0  0  0  0  0  0  0  0
   38.7480   22.7300   39.6580 H   0  0  0  0  0  0  0  0  0  0  0  0
   38.4840   23.3490   38.8050 C   0  0  0  0  0  0  0  0  0  0  0  0
   38.0240   24.5270   38.6320 O   0  0  0  0  0  0  0  0  0  0  0  0
   38.6750   22.7580   37.5300 N   0  0  0  0  0  0  0  0  0  0  0  0
   39.0380   21.8030   37.3090 H   0  0  0  0  0  0  0  0  0  0  0  0
   38.1670   28.1200   30.8490 C   0  0  2  0  0  0  0  0  0  0  0  0
   37.7880   27.8870   32.2460 C   0  0  1  0  0  0  0  0  0  0  0  0
   36.3320   27.5690   32.1980 C   0  0  0  0  0  0  0  0  0  0  0  0
   36.0390   27.1130   30.9100 O   0  0  0  0  0  0  0  0  0  0  0  0
   36.7170   28.0040   30.1420 C   0  0  0  0  0  0  0  0  0  0  0  0
   38.4160   29.0520   30.3870 H   0  0  0  0  0  0  0  0  0  0  0  0
   37.9930   28.7770   32.9080 H   0  0  0  0  0  0  0  0  0  0  0  0
   35.8660   28.5900   32.1700 H   0  0  0  0  0  0  0  0  0  0  0  0
   35.8340   27.1050   33.0090 H   0  0  0  0  0  0  0  0  0  0  0  0
   36.2880   29.0190   30.3860 H   0  0  0  0  0  0  0  0  0  0  0  0
   36.8260   27.8700   29.0970 H   0  0  0  0  0  0  0  0  0  0  0  0
   38.7890   27.0150   30.2940 O   0  0  0  0  0  0  0  0  0  0  0  0
   39.4060   27.0840   29.1830 C   0  0  0  0  0  0  0  0  0  0  0  0
   40.2530   27.8350   29.0890 H   0  0  0  0  0  0  0  0  0  0  0  0
   38.8020   27.0970   28.2230 H   0  0  0  0  0  0  0  0  0  0  0  0
   39.9800   26.0800   29.0070 H   0  0  0  0  0  0  0  0  0  0  0  0
  1  8  1  0  0  0  0
  1  4  1  1  0  0  0
  2  6  1  0  0  0  0
  2  1  1  0  0  0  0
  3  7  1  6  0  0  0
  3  2  1  0  0  0  0
  3  1  1  0  0  0  0
  5  2  1  0  0  0  0
  8 13  1  0  0  0  0
  9 10  1  0  0  0  0
  9  8  2  0  0  0  0
 10 11  2  0  0  0  0
 11 12  1  0  0  0  0
 12 19  1  0  0  0  0
 13 12  2  0  0  0  0
 14  9  1  0  0  0  0
 15 10  1  0  0  0  0
 17 16  1  0  0  0  0
 18 17  2  0  0  0  0
 19 17  1  0  0  0  0
 20 19  1  0  0  0  0
 21 26  1  6  0  0  0
 21 22  1  0  0  0  0
 22  3  1  0  0  0  0
 22 27  1  1  0  0  0
 23 22  1  0  0  0  0
 23 29  1  0  0  0  0
 24 23  1  0  0  0  0
 25 30  1  0  0  0  0
 25 21  1  0  0  0  0
 25 24  1  0  0  0  0
 28 23  1  0  0  0  0
 31 25  1  0  0  0  0
 32 21  1  0  0  0  0
 33 32  1  0  0  0  0
 34 33  1  0  0  0  0
 35 33  1  0  0  0  0
 36 33  1  0  0  0  0
M  END
>  <minimizedAffinity>
-4.6631341

$$$$

 OpenBabel03272500413D

 36 38  0  0  1  0  0  0  0  0999 V2000
   38.7780   23.3030   33.8880 C   0  0  1  0  0  0  0  0  0  0  0  0
   37.6290   22.7760   33.2130 C   0  0  0  0  0  0  0  0  0  0  0  0
   37.7480   24.2510   33.4650 C   0  0  2  0  0  0  0  0  0  0  0  0
   39.7460   23.1060   33.4640 H   0  0  0  0  0  0  0  0  0  0  0  0
   36.8490   22.2260   33.8070 H   0  0  0  0  0  0  0  0  0  0  0  0
   37.7050   22.3860   32.1990 H   0  0  0  0  0  0  0  0  0  0  0  0
   37.0520   24.6690   34.2130 H   0  0  0  0  0  0  0  0  0  0  0  0
   38.9490   23.2300   35.3990 C   0  0  0  0  0  0  0  0  0  0  0  0
   38.1550   24.0570   36.1780 C   0  0  0  0  0  0  0  0  0  0  0  0
   38.3510   23.9670   37.5460 C   0  0  0  0  0  0  0  0  0  0  0  0
   39.2830   23.1000   38.0390 N   0  0  0  0  0  0  0  0  0  0  0  0
   40.0480   22.3000   37.2540 C   0  0  0  0  0  0  0  0  0  0  0  0
   39.8720   22.3720   35.9080 N   0  0  0  0  0  0  0  0  0  0  0  0
   37.4330   24.7280   35.7690 H   0  0  0  0  0  0  0  0  0  0  0  0
   37.7930   24.5590   38.2580 H   0  0  0  0  0  0  0  0  0  0  0  0
   42.7640   20.2400   38.0410 H   0  0  0  0  0  0  0  0  0  0  0  0
   42.2430   20.9120   37.3660 C   0  0  0  0  0  0  0  0  0  0  0  0
   42.4570   21.3940   36.2030 O   0  0  0  0  0  0  0  0  0  0  0  0
   41.0030   21.4180   37.8320 N   0  0  0  0  0  0  0  0  0  0  0  0
   40.5290   21.2260   38.7440 H   0  0  0  0  0  0  0  0  0  0  0  0
   37.2430   26.4490   32.4350 C   0  0  2  0  0  0  0  0  0  0  0  0
   37.9060   25.1510   32.2810 C   0  0  1  0  0  0  0  0  0  0  0  0
   39.3530   25.4780   32.1220 C   0  0  0  0  0  0  0  0  0  0  0  0
   39.5660   26.7400   32.6840 O   0  0  0  0  0  0  0  0  0  0  0  0
   38.5030   27.4370   32.2080 C   0  0  0  0  0  0  0  0  0  0  0  0
   36.6110   26.9460   31.7300 H   0  0  0  0  0  0  0  0  0  0  0  0
   37.5180   24.5640   31.4000 H   0  0  0  0  0  0  0  0  0  0  0  0
   39.4230   25.7220   31.0280 H   0  0  0  0  0  0  0  0  0  0  0  0
   40.1090   24.7480   32.2510 H   0  0  0  0  0  0  0  0  0  0  0  0
   38.5860   27.4070   31.0840 H   0  0  0  0  0  0  0  0  0  0  0  0
   38.2740   28.4110   32.5550 H   0  0  0  0  0  0  0  0  0  0  0  0
   36.9600   26.7270   33.7620 O   0  0  0  0  0  0  0  0  0  0  0  0
   36.6260   27.8950   34.1410 C   0  0  0  0  0  0  0  0  0  0  0  0
   35.7160   28.3730   33.6590 H   0  0  0  0  0  0  0  0  0  0  0  0
   37.4330   28.6840   34.2550 H   0  0  0  0  0  0  0  0  0  0  0  0
   36.2830   27.8440   35.2580 H   0  0  0  0  0  0  0  0  0  0  0  0
  1  4  1  6  0  0  0
  1  8  1  0  0  0  0
  2  3  1  0  0  0  0
  2  5  1  0  0  0  0
  2  1  1  0  0  0  0
  3  1  1  0  0  0  0
  3  7  1  1  0  0  0
  6  2  1  0  0  0  0
  8 13  2  0  0  0  0
  8  9  1  0  0  0  0
  9 10  2  0  0  0  0
 10 11  1  0  0  0  0
 10 15  1  0  0  0  0
 12 19  1  0  0  0  0
 12 11  2  0  0  0  0
 13 12  1  0  0  0  0
 14  9  1  0  0  0  0
 17 19  1  0  0  0  0
 17 16  1  0  0  0  0
 18 17  2  0  0  0  0
 19 20  1  0  0  0  0
 21 26  1  6  0  0  0
 21 32  1  0  0  0  0
 22 27  1  6  0  0  0
 22 21  1  0  0  0  0
 22  3  1  0  0  0  0
 23 29  1  0  0  0  0
 23 22  1  0  0  0  0
 23 24  1  0  0  0  0
 25 21  1  0  0  0  0
 25 31  1  0  0  0  0
 25 24  1  0  0  0  0
 28 23  1  0  0  0  0
 30 25  1  0  0  0  0
 32 33  1  0  0  0  0
 33 35  1  0  0  0  0
 33 36  1  0  0  0  0
 34 33  1  0  0  0  0
M  END
>  <minimizedAffinity>
-4.65059519

$$$$

 OpenBabel03272500413D

 36 38  0  0  1  0  0  0  0  0999 V2000
   38.1880   23.9540   34.3490 C   0  0  1  0  0  0  0  0  0  0  0  0
   39.2170   24.2690   33.4030 C   0  0  0  0  0  0  0  0  0  0  0  0
   38.6540   22.8800   33.4740 C   0  0  2  0  0  0  0  0  0  0  0  0
   37.2780   24.5250   34.3120 H   0  0  0  0  0  0  0  0  0  0  0  0
   40.2740   24.4020   33.7650 H   0  0  0  0  0  0  0  0  0  0  0  0
   39.0100   24.9000   32.5400 H   0  0  0  0  0  0  0  0  0  0  0  0
   39.3320   22.1050   33.8740 H   0  0  0  0  0  0  0  0  0  0  0  0
   38.4770   23.7020   35.8230 C   0  0  0  0  0  0  0  0  0  0  0  0
   37.7330   24.4090   36.7550 C   0  0  0  0  0  0  0  0  0  0  0  0
   38.0350   24.1590   38.0830 C   0  0  0  0  0  0  0  0  0  0  0  0
   39.0150   23.2610   38.3940 N   0  0  0  0  0  0  0  0  0  0  0  0
   39.7290   22.5820   37.4620 C   0  0  0  0  0  0  0  0  0  0  0  0
   39.4490   22.8120   36.1520 N   0  0  0  0  0  0  0  0  0  0  0  0
   36.9710   25.1070   36.4870 H   0  0  0  0  0  0  0  0  0  0  0  0
   37.5250   24.6470   38.9020 H   0  0  0  0  0  0  0  0  0  0  0  0
   42.5290   20.5080   37.7850 H   0  0  0  0  0  0  0  0  0  0  0  0
   41.9470   21.2440   37.2380 C   0  0  0  0  0  0  0  0  0  0  0  0
   42.0640   21.8690   36.1310 O   0  0  0  0  0  0  0  0  0  0  0  0
   40.7390   21.6600   37.8540 N   0  0  0  0  0  0  0  0  0  0  0  0
   40.3400   21.3470   38.7690 H   0  0  0  0  0  0  0  0  0  0  0  0
   38.4950   21.2610   31.6020 C   0  0  2  0  0  0  0  0  0  0  0  0
   37.8670   22.3850   32.3030 C   0  0  1  0  0  0  0  0  0  0  0  0
   36.5660   21.8480   32.7960 C   0  0  0  0  0  0  0  0  0  0  0  0
   36.6830   20.4580   32.8750 O   0  0  0  0  0  0  0  0  0  0  0  0
   37.3070   20.1680   31.7030 C   0  0  0  0  0  0  0  0  0  0  0  0
   38.6340   21.1440   30.5490 H   0  0  0  0  0  0  0  0  0  0  0  0
   37.7150   23.2830   31.6380 H   0  0  0  0  0  0  0  0  0  0  0  0
   35.9070   21.9520   31.8930 H   0  0  0  0  0  0  0  0  0  0  0  0
   36.0090   22.3380   33.5530 H   0  0  0  0  0  0  0  0  0  0  0  0
   36.6230   20.5330   30.8850 H   0  0  0  0  0  0  0  0  0  0  0  0
   37.6800   19.1990   31.4960 H   0  0  0  0  0  0  0  0  0  0  0  0
   39.4550   20.6400   32.3850 O   0  0  0  0  0  0  0  0  0  0  0  0
   40.1060   19.6310   31.9650 C   0  0  0  0  0  0  0  0  0  0  0  0
   40.7010   19.7420   31.0030 H   0  0  0  0  0  0  0  0  0  0  0  0
   39.5990   18.6160   31.9630 H   0  0  0  0  0  0  0  0  0  0  0  0
   40.9600   19.3910   32.7270 H   0  0  0  0  0  0  0  0  0  0  0  0
  1  4  1  6  0  0  0
  1  8  1  0  0  0  0
  2  3  1  0  0  0  0
  2  5  1  0  0  0  0
  2  1  1  0  0  0  0
  3  7  1  1  0  0  0
  3  1  1  0  0  0  0
  6  2  1  0  0  0  0
  8 13  2  0  0  0  0
  8  9  1  0  0  0  0
  9 10  2  0  0  0  0
 10 11  1  0  0  0  0
 10 15  1  0  0  0  0
 12 19  1  0  0  0  0
 12 11  2  0  0  0  0
 13 12  1  0  0  0  0
 14  9  1  0  0  0  0
 17 16  1  0  0  0  0
 17 19  1  0  0  0  0
 18 17  2  0  0  0  0
 19 20  1  0  0  0  0
 21 26  1  6  0  0  0
 21 25  1  0  0  0  0
 21 22  1  0  0  0  0
 21 32  1  0  0  0  0
 22 27  1  6  0  0  0
 22 23  1  0  0  0  0
 22  3  1  0  0  0  0
 23 24  1  0  0  0  0
 23 29  1  0  0  0  0
 25 24  1  0  0  0  0
 28 23  1  0  0  0  0
 30 25  1  0  0  0  0
 31 25  1  0  0  0  0
 33 32  1  0  0  0  0
 33 36  1  0  0  0  0
 34 33  1  0  0  0  0
 35 33  1  0  0  0  0
M  END
>  <minimizedAffinity>
-4.59806967

$$$$

 OpenBabel03272500413D

 36 38  0  0  1  0  0  0  0  0999 V2000
   37.8800   26.0490   35.7310 C   0  0  1  0  0  0  0  0  0  0  0  0
   38.4000   27.3760   35.8760 C   0  0  0  0  0  0  0  0  0  0  0  0
   38.6920   26.5810   34.6380 C   0  0  2  0  0  0  0  0  0  0  0  0
   36.8150   25.9160   35.7930 H   0  0  0  0  0  0  0  0  0  0  0  0
   39.2640   27.5530   36.5750 H   0  0  0  0  0  0  0  0  0  0  0  0
   37.7440   28.2440   35.8280 H   0  0  0  0  0  0  0  0  0  0  0  0
   39.7360   26.2410   34.5190 H   0  0  0  0  0  0  0  0  0  0  0  0
   38.5040   24.8420   36.4170 C   0  0  0  0  0  0  0  0  0  0  0  0
   38.0230   24.4930   37.6700 C   0  0  0  0  0  0  0  0  0  0  0  0
   38.6260   23.3970   38.2630 C   0  0  0  0  0  0  0  0  0  0  0  0
   39.6280   22.7410   37.6080 N   0  0  0  0  0  0  0  0  0  0  0  0
   40.0800   23.1020   36.3810 C   0  0  0  0  0  0  0  0  0  0  0  0
   39.5020   24.1760   35.7790 N   0  0  0  0  0  0  0  0  0  0  0  0
   37.2390   25.0230   38.1630 H   0  0  0  0  0  0  0  0  0  0  0  0
   38.3390   23.0270   39.2380 H   0  0  0  0  0  0  0  0  0  0  0  0
   42.8180   21.9660   34.5230 H   0  0  0  0  0  0  0  0  0  0  0  0
   42.1440   22.7560   34.8380 C   0  0  0  0  0  0  0  0  0  0  0  0
   42.0090   24.0020   34.5930 O   0  0  0  0  0  0  0  0  0  0  0  0
   41.1290   22.3750   35.7530 N   0  0  0  0  0  0  0  0  0  0  0  0
   40.9500   21.4290   36.1620 H   0  0  0  0  0  0  0  0  0  0  0  0
   39.0660   27.0830   32.2390 C   0  0  2  0  0  0  0  0  0  0  0  0
   38.1080   27.0590   33.3470 C   0  0  1  0  0  0  0  0  0  0  0  0
   37.0520   26.0970   32.9170 C   0  0  0  0  0  0  0  0  0  0  0  0
   37.6150   25.2500   31.9580 O   0  0  0  0  0  0  0  0  0  0  0  0
   38.2980   26.1310   31.1820 C   0  0  0  0  0  0  0  0  0  0  0  0
   39.2350   27.8740   31.5390 H   0  0  0  0  0  0  0  0  0  0  0  0
   37.6720   28.0750   33.5690 H   0  0  0  0  0  0  0  0  0  0  0  0
   36.3940   26.7380   32.2710 H   0  0  0  0  0  0  0  0  0  0  0  0
   36.3670   25.6740   33.6050 H   0  0  0  0  0  0  0  0  0  0  0  0
   37.5320   26.8510   30.7750 H   0  0  0  0  0  0  0  0  0  0  0  0
   38.9650   25.8050   30.4260 H   0  0  0  0  0  0  0  0  0  0  0  0
   40.1760   26.2980   32.5020 O   0  0  0  0  0  0  0  0  0  0  0  0
   41.0660   26.0840   31.6190 C   0  0  0  0  0  0  0  0  0  0  0  0
   41.5860   26.9820   31.1570 H   0  0  0  0  0  0  0  0  0  0  0  0
   40.8540   25.3280   30.8010 H   0  0  0  0  0  0  0  0  0  0  0  0
   41.9710   25.5380   32.1210 H   0  0  0  0  0  0  0  0  0  0  0  0
  1  4  1  6  0  0  0
  1  2  1  0  0  0  0
  1  8  1  0  0  0  0
  2  5  1  0  0  0  0
  3  7  1  6  0  0  0
  3  1  1  0  0  0  0
  3  2  1  0  0  0  0
  6  2  1  0  0  0  0
  8  9  1  0  0  0  0
  9 14  1  0  0  0  0
  9 10  2  0  0  0  0
 10 15  1  0  0  0  0
 11 10  1  0  0  0  0
 12 11  2  0  0  0  0
 13 12  1  0  0  0  0
 13  8  2  0  0  0  0
 16 17  1  0  0  0  0
 17 19  1  0  0  0  0
 18 17  2  0  0  0  0
 19 20  1  0  0  0  0
 19 12  1  0  0  0  0
 21 26  1  6  0  0  0
 21 32  1  0  0  0  0
 21 22  1  0  0  0  0
 22 27  1  1  0  0  0
 22  3  1  0  0  0  0
 23 22  1  0  0  0  0
 23 29  1  0  0  0  0
 24 23  1  0  0  0  0
 25 24  1  0  0  0  0
 25 21  1  0  0  0  0
 28 23  1  0  0  0  0
 30 25  1  0  0  0  0
 31 25  1  0  0  0  0
 33 36  1  0  0  0  0
 33 32  1  0  0  0  0
 34 33  1  0  0  0  0
 35 33  1  0  0  0  0
M  END
>  <minimizedAffinity>
-4.59562063

$$$$

 OpenBabel03272500413D

 36 38  0  0  1  0  0  0  0  0999 V2000
   39.3070   26.4460   33.8000 C   0  0  1  0  0  0  0  0  0  0  0  0
   40.2020   26.7260   34.8830 C   0  0  0  0  0  0  0  0  0  0  0  0
   39.1480   25.6670   35.0270 C   0  0  2  0  0  0  0  0  0  0  0  0
   39.7320   26.1610   32.8550 H   0  0  0  0  0  0  0  0  0  0  0  0
   40.0570   27.6640   35.4860 H   0  0  0  0  0  0  0  0  0  0  0  0
   41.2530   26.4470   34.8270 H   0  0  0  0  0  0  0  0  0  0  0  0
   38.3200   25.9020   35.7190 H   0  0  0  0  0  0  0  0  0  0  0  0
   38.1040   27.3240   33.4800 C   0  0  0  0  0  0  0  0  0  0  0  0
   37.1520   27.4980   34.4730 C   0  0  0  0  0  0  0  0  0  0  0  0
   36.0700   28.2940   34.1380 C   0  0  0  0  0  0  0  0  0  0  0  0
   35.9980   28.8440   32.8900 N   0  0  0  0  0  0  0  0  0  0  0  0
   36.9440   28.6590   31.9360 C   0  0  0  0  0  0  0  0  0  0  0  0
   38.0160   27.8820   32.2440 N   0  0  0  0  0  0  0  0  0  0  0  0
   37.2300   27.0560   35.4410 H   0  0  0  0  0  0  0  0  0  0  0  0
   35.2620   28.5050   34.8250 H   0  0  0  0  0  0  0  0  0  0  0  0
   36.9910   29.5500   28.5530 H   0  0  0  0  0  0  0  0  0  0  0  0
   37.2460   28.8730   29.3630 C   0  0  0  0  0  0  0  0  0  0  0  0
   37.8670   27.7630   29.4710 O   0  0  0  0  0  0  0  0  0  0  0  0
   36.8080   29.2620   30.6550 N   0  0  0  0  0  0  0  0  0  0  0  0
   36.2710   30.1170   30.9240 H   0  0  0  0  0  0  0  0  0  0  0  0
   39.2660   23.6350   36.4430 C   0  0  2  0  0  0  0  0  0  0  0  0
   39.5980   24.2470   35.1530 C   0  0  1  0  0  0  0  0  0  0  0  0
   38.8690   23.4250   34.1430 C   0  0  0  0  0  0  0  0  0  0  0  0
   37.8080   22.7930   34.7970 O   0  0  0  0  0  0  0  0  0  0  0  0
   38.4060   22.3630   35.9380 C   0  0  0  0  0  0  0  0  0  0  0  0
   39.9080   23.0620   37.0780 H   0  0  0  0  0  0  0  0  0  0  0  0
   40.7070   24.2600   34.9490 H   0  0  0  0  0  0  0  0  0  0  0  0
   39.5680   22.5590   33.9910 H   0  0  0  0  0  0  0  0  0  0  0  0
   38.7030   23.7700   33.1560 H   0  0  0  0  0  0  0  0  0  0  0  0
   39.2350   21.6690   35.6170 H   0  0  0  0  0  0  0  0  0  0  0  0
   37.8470   21.9540   36.7400 H   0  0  0  0  0  0  0  0  0  0  0  0
   38.2760   24.3410   37.1060 O   0  0  0  0  0  0  0  0  0  0  0  0
   37.8910   24.0130   38.2740 C   0  0  0  0  0  0  0  0  0  0  0  0
   38.6700   23.9730   39.1000 H   0  0  0  0  0  0  0  0  0  0  0  0
   37.1940   23.1270   38.3900 H   0  0  0  0  0  0  0  0  0  0  0  0
   37.1770   24.8440   38.6830 H   0  0  0  0  0  0  0  0  0  0  0  0
  1  4  1  6  0  0  0
  1  2  1  0  0  0  0
  1  3  1  0  0  0  0
  2  3  1  0  0  0  0
  2  5  1  0  0  0  0
  3 22  1  0  0  0  0
  3  7  1  1  0  0  0
  6  2  1  0  0  0  0
  8  1  1  0  0  0  0
  8  9  1  0  0  0  0
  9 14  1  0  0  0  0
 10  9  2  0  0  0  0
 10 15  1  0  0  0  0
 11 10  1  0  0  0  0
 12 13  1  0  0  0  0
 12 11  2  0  0  0  0
 13  8  2  0  0  0  0
 16 17  1  0  0  0  0
 17 18  2  0  0  0  0
 17 19  1  0  0  0  0
 19 20  1  0  0  0  0
 19 12  1  0  0  0  0
 21 26  1  1  0  0  0
 21 32  1  0  0  0  0
 22 27  1  6  0  0  0
 22 21  1  0  0  0  0
 23 24  1  0  0  0  0
 23 22  1  0  0  0  0
 24 25  1  0  0  0  0
 25 21  1  0  0  0  0
 25 31  1  0  0  0  0
 28 23  1  0  0  0  0
 29 23  1  0  0  0  0
 30 25  1  0  0  0  0
 32 33  1  0  0  0  0
 33 35  1  0  0  0  0
 33 36  1  0  0  0  0
 33 34  1  0  0  0  0
M  END
>  <minimizedAffinity>
-4.5317564

$$$$
