
 OpenBabel03272509303D

 35 37  0  0  1  0  0  0  0  0999 V2000
   36.4210   30.8840   48.8210 C   0  0  2  0  0  0  0  0  0  0  0  0
   37.0640   31.5520   49.9940 C   0  0  0  0  0  0  0  0  0  0  0  0
   37.6060   30.5720   51.0120 C   0  0  0  0  0  0  0  0  0  0  0  0
   36.5130   29.6220   51.4890 C   0  0  0  0  0  0  0  0  0  0  0  0
   35.5250   29.2360   50.4180 C   0  0  0  0  0  0  0  0  0  0  0  0
   36.2110   29.4220   49.0510 C   0  0  1  0  0  0  0  0  0  0  0  0
   35.4020   31.3110   48.5590 H   0  0  0  0  0  0  0  0  0  0  0  0
   36.1980   32.0570   50.5430 H   0  0  0  0  0  0  0  0  0  0  0  0
   37.7560   32.3460   49.7920 H   0  0  0  0  0  0  0  0  0  0  0  0
   37.9270   31.1610   51.8890 H   0  0  0  0  0  0  0  0  0  0  0  0
   38.4330   29.9610   50.6460 H   0  0  0  0  0  0  0  0  0  0  0  0
   35.9850   30.0420   52.3780 H   0  0  0  0  0  0  0  0  0  0  0  0
   36.9830   28.6770   51.8320 H   0  0  0  0  0  0  0  0  0  0  0  0
   35.2640   28.1520   50.4700 H   0  0  0  0  0  0  0  0  0  0  0  0
   34.5810   29.7930   50.4660 H   0  0  0  0  0  0  0  0  0  0  0  0
   37.1310   28.9220   49.2290 H   0  0  0  0  0  0  0  0  0  0  0  0
   34.2540   28.8550   47.5380 C   0  0  0  0  0  0  0  0  0  0  0  0
   33.3370   29.6760   47.8430 O   0  0  0  0  0  0  0  0  0  0  0  0
   35.5990   28.7290   47.9780 N   0  0  0  0  0  0  0  0  0  0  0  0
   36.1650   28.0260   47.4000 H   0  0  0  0  0  0  0  0  0  0  0  0
   33.7600   27.9220   46.5710 N   0  0  0  0  0  0  0  0  0  0  0  0
   32.8750   26.7860   46.6480 C   0  0  0  0  0  2  0  0  0  0  0  0
   31.8340   26.9280   45.5660 C   0  0  0  0  0  2  0  0  0  0  0  0
   32.6130   27.6750   44.5080 C   0  0  0  0  0  2  0  0  0  0  0  0
   33.9580   27.7640   45.1490 C   0  0  0  0  0  3  0  0  0  0  0  0
   34.5540   28.6340   44.8080 H   0  0  0  0  0  0  0  0  0  0  0  0
   37.2320   31.0600   47.5890 C   0  0  0  0  0  0  0  0  0  0  0  0
   38.5550   31.4660   47.7870 C   0  0  0  0  0  0  0  0  0  0  0  0
   39.3480   31.6380   46.6470 C   0  0  0  0  0  0  0  0  0  0  0  0
   38.7840   31.3980   45.4130 N   0  0  0  0  0  0  0  0  0  0  0  0
   37.4820   31.0010   45.2710 C   0  0  0  0  0  0  0  0  0  0  0  0
   36.7250   30.8390   46.3680 N   0  0  0  0  0  0  0  0  0  0  0  0
   39.1290   31.6770   48.6680 H   0  0  0  0  0  0  0  0  0  0  0  0
   40.3760   31.9430   46.6330 H   0  0  0  0  0  0  0  0  0  0  0  0
   37.1750   30.8520   44.2610 H   0  0  0  0  0  0  0  0  0  0  0  0
  1  7  1  6  0  0  0
  1  6  1  0  0  0  0
  1  2  1  0  0  0  0
  2  8  1  0  0  0  0
  2  3  1  0  0  0  0
  3  4  1  0  0  0  0
  3 10  1  0  0  0  0
  4 13  1  0  0  0  0
  4 12  1  0  0  0  0
  5 15  1  0  0  0  0
  5 14  1  0  0  0  0
  5  4  1  0  0  0  0
  6 16  1  1  0  0  0
  6  5  1  0  0  0  0
  9  2  1  0  0  0  0
 11  3  1  0  0  0  0
 17 18  2  0  0  0  0
 17 19  1  0  0  0  0
 19  6  1  0  0  0  0
 20 19  1  0  0  0  0
 21 22  1  0  0  0  0
 21 17  1  0  0  0  0
 23 22  1  0  0  0  0
 24 25  1  0  0  0  0
 24 23  1  0  0  0  0
 25 21  1  0  0  0  0
 26 25  1  0  0  0  0
 27 28  1  0  0  0  0
 27  1  1  0  0  0  0
 28 33  1  0  0  0  0
 29 28  2  0  0  0  0
 30 29  1  0  0  0  0
 31 30  2  0  0  0  0
 31 32  1  0  0  0  0
 32 27  2  0  0  0  0
 34 29  1  0  0  0  0
 35 31  1  0  0  0  0
M  END
>  <minimizedAffinity>
-5.11075926

>  <minimizedRMSD>
1.94410455

$$$$
