
 OpenBabel03272509293D

 35 37  0  0  1  0  0  0  0  0999 V2000
   36.4720   30.7950   48.8410 C   0  0  2  0  0  0  0  0  0  0  0  0
   37.3960   31.5150   49.7700 C   0  0  0  0  0  0  0  0  0  0  0  0
   38.0640   30.5990   50.7720 C   0  0  0  0  0  0  0  0  0  0  0  0
   37.0280   29.8180   51.5710 C   0  0  0  0  0  0  0  0  0  0  0  0
   35.8100   29.4220   50.7760 C   0  0  0  0  0  0  0  0  0  0  0  0
   36.2050   29.3930   49.2870 C   0  0  1  0  0  0  0  0  0  0  0  0
   35.4560   31.2910   48.7380 H   0  0  0  0  0  0  0  0  0  0  0  0
   36.7060   32.1590   50.4150 H   0  0  0  0  0  0  0  0  0  0  0  0
   38.0890   32.2110   49.3360 H   0  0  0  0  0  0  0  0  0  0  0  0
   38.6060   31.2420   51.4870 H   0  0  0  0  0  0  0  0  0  0  0  0
   38.7470   29.8730   50.3250 H   0  0  0  0  0  0  0  0  0  0  0  0
   36.7320   30.3790   52.4900 H   0  0  0  0  0  0  0  0  0  0  0  0
   37.4860   28.8720   51.9280 H   0  0  0  0  0  0  0  0  0  0  0  0
   35.4840   28.3800   51.0120 H   0  0  0  0  0  0  0  0  0  0  0  0
   34.9420   30.0720   50.9430 H   0  0  0  0  0  0  0  0  0  0  0  0
   37.1010   28.8260   49.3380 H   0  0  0  0  0  0  0  0  0  0  0  0
   33.9850   28.2970   48.7330 C   0  0  0  0  0  0  0  0  0  0  0  0
   33.1900   28.6460   49.6570 O   0  0  0  0  0  0  0  0  0  0  0  0
   35.3300   28.6560   48.4520 N   0  0  0  0  0  0  0  0  0  0  0  0
   35.6660   28.3100   47.4950 H   0  0  0  0  0  0  0  0  0  0  0  0
   33.3260   27.3740   47.8590 N   0  0  0  0  0  0  0  0  0  0  0  0
   33.5920   26.0100   47.4700 C   0  0  0  0  0  2  0  0  0  0  0  0
   32.3170   25.2210   47.6310 C   0  0  0  0  0  2  0  0  0  0  0  0
   31.2770   26.2840   47.3570 C   0  0  0  0  0  2  0  0  0  0  0  0
   32.1430   27.4570   47.0330 C   0  0  0  0  0  3  0  0  0  0  0  0
   31.6660   28.4330   47.2480 H   0  0  0  0  0  0  0  0  0  0  0  0
   37.0160   30.7590   47.4590 C   0  0  0  0  0  0  0  0  0  0  0  0
   38.3940   30.9660   47.3450 C   0  0  0  0  0  0  0  0  0  0  0  0
   38.9400   30.9350   46.0570 C   0  0  0  0  0  0  0  0  0  0  0  0
   38.0970   30.7030   44.9920 N   0  0  0  0  0  0  0  0  0  0  0  0
   36.7530   30.5040   45.1560 C   0  0  0  0  0  0  0  0  0  0  0  0
   36.2340   30.5370   46.3940 N   0  0  0  0  0  0  0  0  0  0  0  0
   39.1670   31.1460   48.0660 H   0  0  0  0  0  0  0  0  0  0  0  0
   39.9730   31.0760   45.8060 H   0  0  0  0  0  0  0  0  0  0  0  0
   36.2200   30.3360   44.2490 H   0  0  0  0  0  0  0  0  0  0  0  0
  1  7  1  6  0  0  0
  1  6  1  0  0  0  0
  1  2  1  0  0  0  0
  2  8  1  0  0  0  0
  2  3  1  0  0  0  0
  3 10  1  0  0  0  0
  3  4  1  0  0  0  0
  4 13  1  0  0  0  0
  4 12  1  0  0  0  0
  5 15  1  0  0  0  0
  5 14  1  0  0  0  0
  5  4  1  0  0  0  0
  6 16  1  6  0  0  0
  6  5  1  0  0  0  0
  9  2  1  0  0  0  0
 11  3  1  0  0  0  0
 17 18  2  0  0  0  0
 19 17  1  0  0  0  0
 19  6  1  0  0  0  0
 20 19  1  0  0  0  0
 21 17  1  0  0  0  0
 22 23  1  0  0  0  0
 22 21  1  0  0  0  0
 24 23  1  0  0  0  0
 25 26  1  0  0  0  0
 25 24  1  0  0  0  0
 25 21  1  0  0  0  0
 27  1  1  0  0  0  0
 28 27  1  0  0  0  0
 28 33  1  0  0  0  0
 29 28  2  0  0  0  0
 30 31  2  0  0  0  0
 30 29  1  0  0  0  0
 31 32  1  0  0  0  0
 32 27  2  0  0  0  0
 34 29  1  0  0  0  0
 35 31  1  0  0  0  0
M  END
>  <minimizedAffinity>
-6.05224657

>  <minimizedRMSD>
0.902927101

$$$$
