
 OpenBabel03262522143D

 42 45  0  0  1  0  0  0  0  0999 V2000
   40.5670   33.1960   45.2010 S   0  0  0  0  0  0  0  0  0  0  0  0
   37.7880   31.7930   47.6560 C   0  0  0  0  0  0  0  0  0  0  0  0
   37.9600   32.5250   48.8310 C   0  0  0  0  0  0  0  0  0  0  0  0
   38.9460   33.4940   48.9310 C   0  0  0  0  0  0  0  0  0  0  0  0
   39.7300   33.6790   47.8040 C   0  0  0  0  0  0  0  0  0  0  0  0
   39.5340   32.9480   46.6750 C   0  0  0  0  0  0  0  0  0  0  0  0
   38.5770   32.0040   46.5720 N   0  0  0  0  0  0  0  0  0  0  0  0
   37.3290   32.3540   49.6910 H   0  0  0  0  0  0  0  0  0  0  0  0
   39.1140   34.0790   49.8130 H   0  0  0  0  0  0  0  0  0  0  0  0
   40.5290   34.4130   47.7800 H   0  0  0  0  0  0  0  0  0  0  0  0
   36.7370   30.8050   47.6380 C   0  0  0  0  0  0  0  0  0  0  0  0
   36.2720   30.3870   46.5800 O   0  0  0  0  0  0  0  0  0  0  0  0
   37.0560   29.6380   49.7900 C   0  0  0  0  0  0  0  0  0  0  0  0
   36.1670   30.2430   48.8760 C   0  0  0  0  0  0  0  0  0  0  0  0
   34.7930   30.2940   49.1600 C   0  0  0  0  0  0  0  0  0  0  0  0
   34.3540   29.7460   50.3350 N   0  0  0  0  0  0  0  0  0  0  0  0
   35.2310   29.1680   51.2020 C   0  0  0  0  0  0  0  0  0  0  0  0
   36.5280   29.1200   50.9310 N   0  0  0  0  0  0  0  0  0  0  0  0
   38.1120   29.5740   49.6170 H   0  0  0  0  0  0  0  0  0  0  0  0
   34.1580   30.7590   48.4470 H   0  0  0  0  0  0  0  0  0  0  0  0
   34.7390   28.7810   52.0820 H   0  0  0  0  0  0  0  0  0  0  0  0
   39.4720   32.9620   43.7810 C   0  0  0  0  0  0  0  0  0  0  0  0
   39.4980   33.8790   43.1460 H   0  0  0  0  0  0  0  0  0  0  0  0
   38.4230   32.7360   44.0550 H   0  0  0  0  0  0  0  0  0  0  0  0
   39.0730   29.7390   42.3580 C   0  0  1  0  0  0  0  0  0  0  0  0
   38.9350   31.2320   42.0750 C   0  0  0  0  0  0  0  0  0  0  0  0
   39.9980   31.7850   42.9800 C   0  0  2  0  0  0  0  0  0  0  0  0
   40.4580   30.7740   43.7820 O   0  0  0  0  0  0  0  0  0  0  0  0
   39.5010   29.7590   43.7990 C   0  0  0  0  0  0  0  0  0  0  0  0
   39.8200   29.2660   41.7170 H   0  0  0  0  0  0  0  0  0  0  0  0
   39.0710   31.4920   41.0170 H   0  0  0  0  0  0  0  0  0  0  0  0
   37.9500   31.5420   42.4980 H   0  0  0  0  0  0  0  0  0  0  0  0
   40.8460   32.1730   42.3520 H   0  0  0  0  0  0  0  0  0  0  0  0
   38.6610   29.9550   44.4700 H   0  0  0  0  0  0  0  0  0  0  0  0
   40.0740   28.8360   44.0860 H   0  0  0  0  0  0  0  0  0  0  0  0
   37.8440   29.0940   42.1880 O   0  0  0  0  0  0  0  0  0  0  0  0
   39.1340   27.6930   40.0080 H   0  0  0  0  0  0  0  0  0  0  0  0
   39.1820   27.5010   41.0430 N   0  0  0  0  0  0  0  0  0  0  0  0
   39.2530   26.0400   41.1920 C   0  0  0  0  0  0  0  0  0  0  0  0
   39.0130   25.9740   42.7070 C   0  0  0  0  0  0  0  0  0  0  0  0
   37.6970   26.7560   42.7480 C   0  0  0  0  0  0  0  0  0  0  0  0
   37.9510   27.8180   41.7060 C   0  0  1  0  0  0  0  0  0  0  0  0
  1  6  1  0  0  0  0
  2  3  1  0  0  0  0
  3  4  2  0  0  0  0
  3  8  1  0  0  0  0
  4  9  1  0  0  0  0
  5  4  1  0  0  0  0
  6  5  2  0  0  0  0
  7  6  1  0  0  0  0
  7  2  2  0  0  0  0
 10  5  1  0  0  0  0
 11  2  1  0  0  0  0
 11 14  1  0  0  0  0
 12 11  2  0  0  0  0
 13 18  1  0  0  0  0
 14 15  1  0  0  0  0
 14 13  2  0  0  0  0
 15 16  2  0  0  0  0
 16 17  1  0  0  0  0
 17 21  1  0  0  0  0
 18 17  2  0  0  0  0
 19 13  1  0  0  0  0
 20 15  1  0  0  0  0
 22 24  1  0  0  0  0
 22  1  1  0  0  0  0
 23 22  1  0  0  0  0
 25 30  1  6  0  0  0
 25 29  1  0  0  0  0
 26 25  1  0  0  0  0
 26 32  1  0  0  0  0
 26 27  1  0  0  0  0
 27 33  1  6  0  0  0
 27 22  1  0  0  0  0
 27 28  1  0  0  0  0
 28 29  1  0  0  0  0
 29 35  1  0  0  0  0
 29 34  1  0  0  0  0
 31 26  1  0  0  0  0
 36 25  1  0  0  0  0
 37 38  1  0  0  0  0
 38 39  1  0  0  0  0
 38 42  1  0  0  0  0
 39 40  1  0  0  0  0
 40 41  1  0  0  0  0
 42 36  1  1  0  0  0
 42 41  1  0  0  0  0
M  END
>  <minimizedAffinity>
-5.40361023

>  <minimizedRMSD>
0.552619517

$$$$
