
 OpenBabel03272500563D

 32 35  0  0  1  0  0  0  0  0999 V2000
   38.1710   31.8420   47.4180 C   0  0  0  0  0  0  0  0  0  0  0  0
   38.7570   32.6420   48.3550 C   0  0  0  0  0  0  0  0  0  0  0  0
   38.3170   32.6740   49.6770 C   0  0  0  0  0  0  0  0  0  0  0  0
   37.2000   31.8160   50.0290 C   0  0  0  0  0  0  0  0  0  0  0  0
   36.6600   31.0400   49.0460 C   0  0  0  0  0  0  0  0  0  0  0  0
   37.0890   31.0200   47.7810 C   0  0  0  0  0  0  0  0  0  0  0  0
   39.6010   33.3010   48.1270 H   0  0  0  0  0  0  0  0  0  0  0  0
   38.8140   33.3280   50.3910 H   0  0  0  0  0  0  0  0  0  0  0  0
   36.9650   31.9370   51.0710 H   0  0  0  0  0  0  0  0  0  0  0  0
   35.8780   30.4800   49.5310 H   0  0  0  0  0  0  0  0  0  0  0  0
   40.0070   31.2360   45.9150 C   0  0  0  0  0  0  0  0  0  0  0  0
   38.7620   31.9010   46.0970 C   0  0  0  0  0  0  0  0  0  0  0  0
   38.2760   32.5140   44.9710 C   0  0  0  0  0  0  0  0  0  0  0  0
   38.9500   32.4650   43.8160 N   0  0  0  0  0  0  0  0  0  0  0  0
   40.0970   31.8470   43.6620 C   0  0  0  0  0  0  0  0  0  0  0  0
   40.6170   31.2370   44.7140 N   0  0  0  0  0  0  0  0  0  0  0  0
   40.4720   30.7190   46.7570 H   0  0  0  0  0  0  0  0  0  0  0  0
   37.3180   33.0130   45.1540 H   0  0  0  0  0  0  0  0  0  0  0  0
   40.5600   31.8680   42.6830 H   0  0  0  0  0  0  0  0  0  0  0  0
   35.0480   30.0810   47.1120 C   0  0  0  0  0  0  0  0  0  0  0  0
   34.5530   30.5880   48.1880 O   0  0  0  0  0  0  0  0  0  0  0  0
   36.4890   30.2360   46.8280 N   0  0  0  0  0  0  0  0  0  0  0  0
   36.9260   29.7910   46.0050 H   0  0  0  0  0  0  0  0  0  0  0  0
   34.2460   29.3800   46.1980 O   0  0  0  0  0  0  0  0  0  0  0  0
   32.9240   29.6400   46.0060 C   0  0  1  0  0  0  0  0  0  0  0  0
   32.6040   30.8230   45.6890 O   0  0  0  0  0  0  0  0  0  0  0  0
   31.5550   29.9090   45.8070 N   0  0  1  0  0  0  0  0  0  0  0  0
   30.7820   30.8400   45.0300 C   0  0  0  0  0  0  0  0  0  0  0  0
   29.6770   29.9650   44.4620 C   0  0  0  0  0  0  0  0  0  0  0  0
   29.4840   28.8380   45.4450 C   0  0  0  0  0  0  0  0  0  0  0  0
   30.5080   29.1330   46.4960 C   0  0  0  0  0  0  0  0  0  0  0  0
   30.9330   28.2210   46.9610 H   0  0  0  0  0  0  0  0  0  0  0  0
  1  6  2  0  0  0  0
  1  2  1  0  0  0  0
  2  3  2  0  0  0  0
  3  4  1  0  0  0  0
  3  8  1  0  0  0  0
  4  9  1  0  0  0  0
  5 10  1  0  0  0  0
  5  4  2  0  0  0  0
  6  5  1  0  0  0  0
  7  2  1  0  0  0  0
 11 12  1  0  0  0  0
 11 17  1  0  0  0  0
 12  1  1  0  0  0  0
 13 18  1  0  0  0  0
 13 12  2  0  0  0  0
 14 13  1  0  0  0  0
 15 14  2  0  0  0  0
 15 16  1  0  0  0  0
 16 11  2  0  0  0  0
 19 15  1  0  0  0  0
 20 21  2  0  0  0  0
 22 20  1  0  0  0  0
 22  6  1  0  0  0  0
 23 22  1  0  0  0  0
 24 20  1  0  0  0  0
 25 24  1  6  0  0  0
 26 27  1  0  0  0  0
 26 25  1  0  0  0  0
 27 28  1  6  0  0  0
 27 25  1  0  0  0  0
 27 31  1  0  0  0  0
 29 28  1  0  0  0  0
 29 30  1  0  0  0  0
 30 31  1  0  0  0  0
 31 32  1  0  0  0  0
M  END
>  <minimizedAffinity>
-5.81607199

>  <minimizedRMSD>
0.824204504

$$$$
