
 OpenBabel03272506363D

 20 21  0  0  1  0  0  0  0  0999 V2000
   37.8870   30.7430   47.1520 C   0  0  0  0  0  0  0  0  0  0  0  0
   39.1120   30.5540   46.4850 C   0  0  0  0  0  0  0  0  0  0  0  0
   39.1180   30.5140   45.0930 C   0  0  0  0  0  0  0  0  0  0  0  0
   37.9180   30.6610   44.4370 N   0  0  0  0  0  0  0  0  0  0  0  0
   36.7550   30.8410   45.1160 C   0  0  0  0  0  0  0  0  0  0  0  0
   36.7420   30.8810   46.4610 N   0  0  0  0  0  0  0  0  0  0  0  0
   34.5730   29.9540   44.7520 C   0  0  0  0  0  0  0  0  0  0  0  0
   34.7070   28.9910   45.5710 O   0  0  0  0  0  0  0  0  0  0  0  0
   35.5220   30.9910   44.4010 N   0  0  0  0  0  0  0  0  0  0  0  0
   40.0600   30.4370   46.9560 H   0  0  0  0  0  0  0  0  0  0  0  0
   39.9970   30.3760   44.5120 H   0  0  0  0  0  0  0  0  0  0  0  0
   33.5810   29.8880   44.3220 H   0  0  0  0  0  0  0  0  0  0  0  0
   35.2110   31.6840   43.7070 H   0  0  0  0  0  0  0  0  0  0  0  0
   38.0400   30.7610   48.5160 O   0  0  0  0  0  0  0  0  0  0  0  0
   35.0660   31.1000   49.3230 H   0  0  0  0  0  0  0  0  0  0  0  0
   35.8860   30.4790   49.2360 N   0  0  0  0  0  0  0  0  0  0  0  0
   35.8920   29.3200   50.0720 C   0  0  0  0  0  2  0  0  0  0  0  0
   37.2740   29.2220   50.6940 C   0  0  0  0  0  2  0  0  0  0  0  0
   37.5860   30.7180   50.8310 C   0  0  0  0  0  2  0  0  0  0  0  0
   37.1320   31.2060   49.4700 C   0  0  1  0  0  3  0  0  0  0  0  0
  1 14  1  0  0  0  0
  2 10  1  0  0  0  0
  2  1  1  0  0  0  0
  3  2  2  0  0  0  0
  4  3  1  0  0  0  0
  4  5  2  0  0  0  0
  5  6  1  0  0  0  0
  6  1  2  0  0  0  0
  7  8  2  0  0  0  0
  9  7  1  0  0  0  0
  9  5  1  0  0  0  0
 11  3  1  0  0  0  0
 12  7  1  0  0  0  0
 13  9  1  0  0  0  0
 16 15  1  0  0  0  0
 16 20  1  0  0  0  0
 16 17  1  0  0  0  0
 17 18  1  0  0  0  0
 18 19  1  0  0  0  0
 20 14  1  6  0  0  0
 20 19  1  0  0  0  0
M  END
>  <minimizedAffinity>
-4.21803188

>  <minimizedRMSD>
4.29265165

$$$$
