
 OpenBabel03272509303D

 35 37  0  0  1  0  0  0  0  0999 V2000
   36.5240   30.8330   48.8550 C   0  0  2  0  0  0  0  0  0  0  0  0
   37.4350   31.5450   49.8030 C   0  0  0  0  0  0  0  0  0  0  0  0
   38.0880   30.6190   50.8060 C   0  0  0  0  0  0  0  0  0  0  0  0
   37.0400   29.8310   51.5840 C   0  0  0  0  0  0  0  0  0  0  0  0
   35.8340   29.4430   50.7680 C   0  0  0  0  0  0  0  0  0  0  0  0
   36.2500   29.4280   49.2850 C   0  0  1  0  0  0  0  0  0  0  0  0
   35.5090   31.3310   48.7420 H   0  0  0  0  0  0  0  0  0  0  0  0
   36.7360   32.1830   50.4440 H   0  0  0  0  0  0  0  0  0  0  0  0
   38.1340   32.2440   49.3860 H   0  0  0  0  0  0  0  0  0  0  0  0
   38.6200   31.2560   51.5350 H   0  0  0  0  0  0  0  0  0  0  0  0
   38.7770   29.8980   50.3630 H   0  0  0  0  0  0  0  0  0  0  0  0
   36.7320   30.3850   52.5030 H   0  0  0  0  0  0  0  0  0  0  0  0
   37.4940   28.8820   51.9390 H   0  0  0  0  0  0  0  0  0  0  0  0
   35.5050   28.4000   50.9910 H   0  0  0  0  0  0  0  0  0  0  0  0
   34.9630   30.0920   50.9280 H   0  0  0  0  0  0  0  0  0  0  0  0
   37.1450   28.8600   49.3440 H   0  0  0  0  0  0  0  0  0  0  0  0
   34.0500   28.3050   48.7050 C   0  0  0  0  0  0  0  0  0  0  0  0
   33.2510   28.6110   49.6410 O   0  0  0  0  0  0  0  0  0  0  0  0
   35.3870   28.6990   48.4310 N   0  0  0  0  0  0  0  0  0  0  0  0
   35.7260   28.3880   47.4630 H   0  0  0  0  0  0  0  0  0  0  0  0
   33.4060   27.3950   47.8060 N   0  0  0  0  0  0  0  0  0  0  0  0
   33.5240   25.9760   47.5740 C   0  0  0  0  0  2  0  0  0  0  0  0
   32.1370   25.3850   47.5770 C   0  0  0  0  0  2  0  0  0  0  0  0
   31.3220   26.5440   47.0500 C   0  0  0  0  0  2  0  0  0  0  0  0
   32.3940   27.5520   46.7870 C   0  0  0  0  0  3  0  0  0  0  0  0
   32.0380   28.6000   46.8440 H   0  0  0  0  0  0  0  0  0  0  0  0
   37.0880   30.8090   47.4810 C   0  0  0  0  0  0  0  0  0  0  0  0
   38.4620   31.0420   47.3860 C   0  0  0  0  0  0  0  0  0  0  0  0
   39.0270   31.0230   46.1060 C   0  0  0  0  0  0  0  0  0  0  0  0
   38.2040   30.7770   45.0290 N   0  0  0  0  0  0  0  0  0  0  0  0
   36.8610   30.5540   45.1740 C   0  0  0  0  0  0  0  0  0  0  0  0
   36.3250   30.5750   46.4050 N   0  0  0  0  0  0  0  0  0  0  0  0
   39.2220   31.2340   48.1180 H   0  0  0  0  0  0  0  0  0  0  0  0
   40.0600   31.1830   45.8690 H   0  0  0  0  0  0  0  0  0  0  0  0
   36.3430   30.3770   44.2590 H   0  0  0  0  0  0  0  0  0  0  0  0
  1  7  1  6  0  0  0
  1  6  1  0  0  0  0
  1  2  1  0  0  0  0
  2  8  1  0  0  0  0
  2  3  1  0  0  0  0
  3 10  1  0  0  0  0
  3  4  1  0  0  0  0
  4 13  1  0  0  0  0
  4 12  1  0  0  0  0
  5 15  1  0  0  0  0
  5 14  1  0  0  0  0
  5  4  1  0  0  0  0
  6 16  1  6  0  0  0
  6  5  1  0  0  0  0
  9  2  1  0  0  0  0
 11  3  1  0  0  0  0
 17 18  2  0  0  0  0
 19 17  1  0  0  0  0
 19  6  1  0  0  0  0
 20 19  1  0  0  0  0
 21 17  1  0  0  0  0
 22 23  1  0  0  0  0
 22 21  1  0  0  0  0
 24 23  1  0  0  0  0
 25 26  1  0  0  0  0
 25 24  1  0  0  0  0
 25 21  1  0  0  0  0
 27  1  1  0  0  0  0
 28 27  1  0  0  0  0
 28 33  1  0  0  0  0
 29 28  2  0  0  0  0
 30 31  2  0  0  0  0
 30 29  1  0  0  0  0
 31 32  1  0  0  0  0
 32 27  2  0  0  0  0
 34 29  1  0  0  0  0
 35 31  1  0  0  0  0
M  END
>  <minimizedAffinity>
-6.02337885

>  <minimizedRMSD>
0.961420774

$$$$
