
 OpenBabel03272506363D

 20 21  0  0  1  0  0  0  0  0999 V2000
   37.6090   31.1340   47.6210 C   0  0  0  0  0  0  0  0  0  0  0  0
   38.6460   32.0360   47.3170 C   0  0  0  0  0  0  0  0  0  0  0  0
   38.5840   32.7510   46.1230 C   0  0  0  0  0  0  0  0  0  0  0  0
   37.5050   32.5370   45.2970 N   0  0  0  0  0  0  0  0  0  0  0  0
   36.5230   31.6570   45.6250 C   0  0  0  0  0  0  0  0  0  0  0  0
   36.5760   30.9630   46.7770 N   0  0  0  0  0  0  0  0  0  0  0  0
   35.3220   30.0820   44.3000 C   0  0  0  0  0  0  0  0  0  0  0  0
   36.0710   29.0970   44.5930 O   0  0  0  0  0  0  0  0  0  0  0  0
   35.4120   31.4580   44.7410 N   0  0  0  0  0  0  0  0  0  0  0  0
   39.4960   32.2300   47.9290 H   0  0  0  0  0  0  0  0  0  0  0  0
   39.3220   33.4510   45.8170 H   0  0  0  0  0  0  0  0  0  0  0  0
   34.5520   29.7230   43.6270 H   0  0  0  0  0  0  0  0  0  0  0  0
   34.6970   32.1050   44.3810 H   0  0  0  0  0  0  0  0  0  0  0  0
   37.8080   30.5070   48.8260 O   0  0  0  0  0  0  0  0  0  0  0  0
   37.5550   28.4310   51.1150 H   0  0  0  0  0  0  0  0  0  0  0  0
   37.3930   29.3950   50.7820 N   0  0  0  0  0  0  0  0  0  0  0  0
   36.3560   30.1230   51.4440 C   0  0  0  0  0  2  0  0  0  0  0  0
   35.5190   30.7930   50.3690 C   0  0  0  0  0  2  0  0  0  0  0  0
   35.6290   29.7230   49.2740 C   0  0  0  0  0  2  0  0  0  0  0  0
   37.1120   29.4230   49.3470 C   0  0  1  0  0  3  0  0  0  0  0  0
  1 14  1  0  0  0  0
  2  1  1  0  0  0  0
  2 10  1  0  0  0  0
  3  2  2  0  0  0  0
  4  5  2  0  0  0  0
  4  3  1  0  0  0  0
  5  6  1  0  0  0  0
  6  1  2  0  0  0  0
  7  8  2  0  0  0  0
  7  9  1  0  0  0  0
  9  5  1  0  0  0  0
 11  3  1  0  0  0  0
 12  7  1  0  0  0  0
 13  9  1  0  0  0  0
 16 15  1  0  0  0  0
 16 17  1  0  0  0  0
 18 17  1  0  0  0  0
 19 20  1  0  0  0  0
 19 18  1  0  0  0  0
 20 14  1  6  0  0  0
 20 16  1  0  0  0  0
M  END
>  <minimizedAffinity>
-1.27059948

>  <minimizedRMSD>
4.18043566

$$$$
