
 OpenBabel03272509303D

 35 37  0  0  1  0  0  0  0  0999 V2000
   36.3120   30.6740   49.0110 C   0  0  2  0  0  0  0  0  0  0  0  0
   37.2410   31.4630   49.8770 C   0  0  0  0  0  0  0  0  0  0  0  0
   38.0180   30.6050   50.8520 C   0  0  0  0  0  0  0  0  0  0  0  0
   37.0770   29.7770   51.7190 C   0  0  0  0  0  0  0  0  0  0  0  0
   35.8440   29.2960   50.9990 C   0  0  0  0  0  0  0  0  0  0  0  0
   36.1560   29.2660   49.4910 C   0  0  1  0  0  0  0  0  0  0  0  0
   35.2640   31.1060   48.9590 H   0  0  0  0  0  0  0  0  0  0  0  0
   36.5510   32.0760   50.5510 H   0  0  0  0  0  0  0  0  0  0  0  0
   37.8650   32.1920   49.3960 H   0  0  0  0  0  0  0  0  0  0  0  0
   38.5590   31.2920   51.5270 H   0  0  0  0  0  0  0  0  0  0  0  0
   38.7180   29.9150   50.3770 H   0  0  0  0  0  0  0  0  0  0  0  0
   36.8000   30.3360   52.6450 H   0  0  0  0  0  0  0  0  0  0  0  0
   37.6120   28.8670   52.0620 H   0  0  0  0  0  0  0  0  0  0  0  0
   35.5950   28.2410   51.2680 H   0  0  0  0  0  0  0  0  0  0  0  0
   34.9480   29.8960   51.2060 H   0  0  0  0  0  0  0  0  0  0  0  0
   37.0860   28.7550   49.4990 H   0  0  0  0  0  0  0  0  0  0  0  0
   33.8850   28.2970   48.9070 C   0  0  0  0  0  0  0  0  0  0  0  0
   33.0540   28.8970   49.6540 O   0  0  0  0  0  0  0  0  0  0  0  0
   35.2820   28.4640   48.7170 N   0  0  0  0  0  0  0  0  0  0  0  0
   35.6620   27.9040   47.8850 H   0  0  0  0  0  0  0  0  0  0  0  0
   33.2070   27.2860   48.1540 N   0  0  0  0  0  0  0  0  0  0  0  0
   31.9130   26.6580   48.2710 C   0  0  0  0  0  2  0  0  0  0  0  0
   31.2480   26.6990   46.9180 C   0  0  0  0  0  2  0  0  0  0  0  0
   32.4480   26.6340   46.0000 C   0  0  0  0  0  2  0  0  0  0  0  0
   33.5610   26.5080   46.9900 C   0  0  0  0  0  3  0  0  0  0  0  0
   34.5270   26.9010   46.6200 H   0  0  0  0  0  0  0  0  0  0  0  0
   36.7800   30.6470   47.6020 C   0  0  0  0  0  0  0  0  0  0  0  0
   38.1470   30.8680   47.4130 C   0  0  0  0  0  0  0  0  0  0  0  0
   38.6220   30.8460   46.0970 C   0  0  0  0  0  0  0  0  0  0  0  0
   37.7240   30.6090   45.0790 N   0  0  0  0  0  0  0  0  0  0  0  0
   36.3930   30.3970   45.3160 C   0  0  0  0  0  0  0  0  0  0  0  0
   35.9430   30.4200   46.5810 N   0  0  0  0  0  0  0  0  0  0  0  0
   38.9570   31.0530   48.0910 H   0  0  0  0  0  0  0  0  0  0  0  0
   39.6380   30.9980   45.7900 H   0  0  0  0  0  0  0  0  0  0  0  0
   35.8120   30.2260   44.4390 H   0  0  0  0  0  0  0  0  0  0  0  0
  1  7  1  1  0  0  0
  1  6  1  0  0  0  0
  1  2  1  0  0  0  0
  2  8  1  0  0  0  0
  2  3  1  0  0  0  0
  3 10  1  0  0  0  0
  3  4  1  0  0  0  0
  4 13  1  0  0  0  0
  4 12  1  0  0  0  0
  5 15  1  0  0  0  0
  5 14  1  0  0  0  0
  5  4  1  0  0  0  0
  6 16  1  6  0  0  0
  6  5  1  0  0  0  0
  9  2  1  0  0  0  0
 11  3  1  0  0  0  0
 17 18  2  0  0  0  0
 19 17  1  0  0  0  0
 19  6  1  0  0  0  0
 20 19  1  0  0  0  0
 21 22  1  0  0  0  0
 21 17  1  0  0  0  0
 23 22  1  0  0  0  0
 24 23  1  0  0  0  0
 24 25  1  0  0  0  0
 25 21  1  0  0  0  0
 26 25  1  0  0  0  0
 27  1  1  0  0  0  0
 28 27  1  0  0  0  0
 28 33  1  0  0  0  0
 29 28  2  0  0  0  0
 30 31  2  0  0  0  0
 30 29  1  0  0  0  0
 31 32  1  0  0  0  0
 32 27  2  0  0  0  0
 34 29  1  0  0  0  0
 35 31  1  0  0  0  0
M  END
>  <minimizedAffinity>
-5.86620474

>  <minimizedRMSD>
0.620108664

$$$$
