
 OpenBabel03272506363D

 20 21  0  0  1  0  0  0  0  0999 V2000
   37.2270   30.8330   46.9630 C   0  0  0  0  0  0  0  0  0  0  0  0
   38.3510   31.3550   46.2950 C   0  0  0  0  0  0  0  0  0  0  0  0
   38.2400   31.6720   44.9430 C   0  0  0  0  0  0  0  0  0  0  0  0
   37.0300   31.4560   44.3260 N   0  0  0  0  0  0  0  0  0  0  0  0
   35.9670   30.9490   45.0040 C   0  0  0  0  0  0  0  0  0  0  0  0
   36.0670   30.6410   46.3090 N   0  0  0  0  0  0  0  0  0  0  0  0
   34.3230   29.3450   44.3690 C   0  0  0  0  0  0  0  0  0  0  0  0
   34.9210   28.3580   44.9030 O   0  0  0  0  0  0  0  0  0  0  0  0
   34.7200   30.7370   44.3290 N   0  0  0  0  0  0  0  0  0  0  0  0
   39.3030   31.5360   46.7370 H   0  0  0  0  0  0  0  0  0  0  0  0
   39.0370   32.0710   44.3650 H   0  0  0  0  0  0  0  0  0  0  0  0
   33.4110   28.9750   43.9170 H   0  0  0  0  0  0  0  0  0  0  0  0
   34.0860   31.3830   43.8400 H   0  0  0  0  0  0  0  0  0  0  0  0
   37.4880   30.5700   48.2840 O   0  0  0  0  0  0  0  0  0  0  0  0
   37.8580   28.1630   50.2010 H   0  0  0  0  0  0  0  0  0  0  0  0
   37.8930   29.1850   50.0590 N   0  0  0  0  0  0  0  0  0  0  0  0
   37.7640   29.9890   51.2330 C   0  0  0  0  0  2  0  0  0  0  0  0
   36.7730   31.0950   50.9140 C   0  0  0  0  0  2  0  0  0  0  0  0
   35.8470   30.3230   49.9620 C   0  0  0  0  0  2  0  0  0  0  0  0
   36.8800   29.6240   49.1010 C   0  0  1  0  0  3  0  0  0  0  0  0
  1 14  1  0  0  0  0
  2 10  1  0  0  0  0
  2  1  2  0  0  0  0
  3  2  1  0  0  0  0
  4  3  2  0  0  0  0
  4  5  1  0  0  0  0
  5  6  2  0  0  0  0
  6  1  1  0  0  0  0
  7  8  2  0  0  0  0
  9  7  1  0  0  0  0
  9  5  1  0  0  0  0
 11  3  1  0  0  0  0
 12  7  1  0  0  0  0
 13  9  1  0  0  0  0
 16 15  1  0  0  0  0
 16 17  1  0  0  0  0
 18 17  1  0  0  0  0
 19 18  1  0  0  0  0
 20 14  1  6  0  0  0
 20 19  1  0  0  0  0
 20 16  1  0  0  0  0
M  END
>  <minimizedAffinity>
-3.12973881

>  <minimizedRMSD>
4.40928841

$$$$
