
 OpenBabel03262522153D

 42 45  0  0  1  0  0  0  0  0999 V2000
   40.5660   33.1940   45.1970 S   0  0  0  0  0  0  0  0  0  0  0  0
   37.7880   31.7910   47.6530 C   0  0  0  0  0  0  0  0  0  0  0  0
   37.9600   32.5230   48.8280 C   0  0  0  0  0  0  0  0  0  0  0  0
   38.9460   33.4920   48.9270 C   0  0  0  0  0  0  0  0  0  0  0  0
   39.7300   33.6770   47.8000 C   0  0  0  0  0  0  0  0  0  0  0  0
   39.5330   32.9460   46.6710 C   0  0  0  0  0  0  0  0  0  0  0  0
   38.5760   32.0020   46.5680 N   0  0  0  0  0  0  0  0  0  0  0  0
   37.3300   32.3520   49.6890 H   0  0  0  0  0  0  0  0  0  0  0  0
   39.1150   34.0780   49.8090 H   0  0  0  0  0  0  0  0  0  0  0  0
   40.5290   34.4110   47.7760 H   0  0  0  0  0  0  0  0  0  0  0  0
   36.7370   30.8030   47.6360 C   0  0  0  0  0  0  0  0  0  0  0  0
   36.2720   30.3850   46.5780 O   0  0  0  0  0  0  0  0  0  0  0  0
   37.0550   29.6330   49.7870 C   0  0  0  0  0  0  0  0  0  0  0  0
   36.1670   30.2420   48.8750 C   0  0  0  0  0  0  0  0  0  0  0  0
   34.7930   30.2980   49.1600 C   0  0  0  0  0  0  0  0  0  0  0  0
   34.3540   29.7510   50.3360 N   0  0  0  0  0  0  0  0  0  0  0  0
   35.2300   29.1680   51.2010 C   0  0  0  0  0  0  0  0  0  0  0  0
   36.5260   29.1170   50.9290 N   0  0  0  0  0  0  0  0  0  0  0  0
   38.1100   29.5660   49.6120 H   0  0  0  0  0  0  0  0  0  0  0  0
   34.1580   30.7650   48.4480 H   0  0  0  0  0  0  0  0  0  0  0  0
   34.7370   28.7830   52.0820 H   0  0  0  0  0  0  0  0  0  0  0  0
   39.4690   32.9610   43.7770 C   0  0  0  0  0  0  0  0  0  0  0  0
   39.4950   33.8800   43.1440 H   0  0  0  0  0  0  0  0  0  0  0  0
   38.4200   32.7350   44.0520 H   0  0  0  0  0  0  0  0  0  0  0  0
   39.0710   29.7390   42.3550 C   0  0  1  0  0  0  0  0  0  0  0  0
   38.9290   31.2310   42.0720 C   0  0  0  0  0  0  0  0  0  0  0  0
   39.9950   31.7860   42.9740 C   0  0  2  0  0  0  0  0  0  0  0  0
   40.4590   30.7750   43.7750 O   0  0  0  0  0  0  0  0  0  0  0  0
   39.5030   29.7590   43.7950 C   0  0  0  0  0  0  0  0  0  0  0  0
   39.8170   29.2670   41.7120 H   0  0  0  0  0  0  0  0  0  0  0  0
   39.0620   31.4920   41.0140 H   0  0  0  0  0  0  0  0  0  0  0  0
   37.9450   31.5400   42.4990 H   0  0  0  0  0  0  0  0  0  0  0  0
   40.8400   32.1750   42.3440 H   0  0  0  0  0  0  0  0  0  0  0  0
   38.6650   29.9530   44.4680 H   0  0  0  0  0  0  0  0  0  0  0  0
   40.0790   28.8360   44.0800 H   0  0  0  0  0  0  0  0  0  0  0  0
   37.8430   29.0920   42.1880 O   0  0  0  0  0  0  0  0  0  0  0  0
   39.1310   27.6910   40.0090 H   0  0  0  0  0  0  0  0  0  0  0  0
   39.1800   27.4990   41.0430 N   0  0  0  0  0  0  0  0  0  0  0  0
   39.2510   26.0380   41.1930 C   0  0  0  0  0  2  0  0  0  0  0  0
   39.0130   25.9720   42.7090 C   0  0  0  0  0  2  0  0  0  0  0  0
   37.6970   26.7520   42.7490 C   0  0  0  0  0  2  0  0  0  0  0  0
   37.9500   27.8150   41.7060 C   0  0  1  0  0  3  0  0  0  0  0  0
  1  6  1  0  0  0  0
  2  3  1  0  0  0  0
  3  4  2  0  0  0  0
  3  8  1  0  0  0  0
  4  9  1  0  0  0  0
  5  4  1  0  0  0  0
  6  5  2  0  0  0  0
  7  6  1  0  0  0  0
  7  2  2  0  0  0  0
 10  5  1  0  0  0  0
 11  2  1  0  0  0  0
 11 14  1  0  0  0  0
 12 11  2  0  0  0  0
 13 18  1  0  0  0  0
 14 15  1  0  0  0  0
 14 13  2  0  0  0  0
 15 16  2  0  0  0  0
 16 17  1  0  0  0  0
 17 21  1  0  0  0  0
 18 17  2  0  0  0  0
 19 13  1  0  0  0  0
 20 15  1  0  0  0  0
 22 24  1  0  0  0  0
 22  1  1  0  0  0  0
 23 22  1  0  0  0  0
 25 30  1  6  0  0  0
 25 29  1  0  0  0  0
 26 25  1  0  0  0  0
 26 32  1  0  0  0  0
 26 27  1  0  0  0  0
 27 33  1  6  0  0  0
 27 28  1  0  0  0  0
 27 22  1  0  0  0  0
 28 29  1  0  0  0  0
 29 35  1  0  0  0  0
 29 34  1  0  0  0  0
 31 26  1  0  0  0  0
 36 25  1  0  0  0  0
 37 38  1  0  0  0  0
 38 39  1  0  0  0  0
 38 42  1  0  0  0  0
 39 40  1  0  0  0  0
 40 41  1  0  0  0  0
 42 36  1  1  0  0  0
 42 41  1  0  0  0  0
M  END
>  <minimizedAffinity>
-5.39629269

>  <minimizedRMSD>
0.619632721

$$$$
