
 OpenBabel03272509303D

 35 37  0  0  1  0  0  0  0  0999 V2000
   36.3800   30.7230   48.8820 C   0  0  2  0  0  0  0  0  0  0  0  0
   37.2850   31.5050   49.7780 C   0  0  0  0  0  0  0  0  0  0  0  0
   38.0180   30.6420   50.7830 C   0  0  0  0  0  0  0  0  0  0  0  0
   37.0370   29.8270   51.6180 C   0  0  0  0  0  0  0  0  0  0  0  0
   35.8250   29.3560   50.8550 C   0  0  0  0  0  0  0  0  0  0  0  0
   36.1910   29.3190   49.3600 C   0  0  1  0  0  0  0  0  0  0  0  0
   35.3380   31.1660   48.7910 H   0  0  0  0  0  0  0  0  0  0  0  0
   36.5770   32.1270   50.4260 H   0  0  0  0  0  0  0  0  0  0  0  0
   37.9330   32.2260   49.3180 H   0  0  0  0  0  0  0  0  0  0  0  0
   38.5410   31.3250   51.4750 H   0  0  0  0  0  0  0  0  0  0  0  0
   38.7270   29.9430   50.3350 H   0  0  0  0  0  0  0  0  0  0  0  0
   36.7320   30.3910   52.5320 H   0  0  0  0  0  0  0  0  0  0  0  0
   37.5490   28.9110   51.9820 H   0  0  0  0  0  0  0  0  0  0  0  0
   35.5560   28.3050   51.1170 H   0  0  0  0  0  0  0  0  0  0  0  0
   34.9290   29.9660   51.0280 H   0  0  0  0  0  0  0  0  0  0  0  0
   37.1150   28.7980   49.4020 H   0  0  0  0  0  0  0  0  0  0  0  0
   33.9750   28.2110   48.8100 C   0  0  0  0  0  0  0  0  0  0  0  0
   33.1500   28.6530   49.6660 O   0  0  0  0  0  0  0  0  0  0  0  0
   35.3370   28.5230   48.5560 N   0  0  0  0  0  0  0  0  0  0  0  0
   35.7050   28.0890   47.6480 H   0  0  0  0  0  0  0  0  0  0  0  0
   33.3360   27.2240   47.9940 N   0  0  0  0  0  0  0  0  0  0  0  0
   32.0550   27.1590   47.3330 C   0  0  0  0  0  2  0  0  0  0  0  0
   32.2870   26.7440   45.9020 C   0  0  0  0  0  2  0  0  0  0  0  0
   33.5230   25.8850   46.0410 C   0  0  0  0  0  2  0  0  0  0  0  0
   33.7290   25.9170   47.5200 C   0  0  0  0  0  3  0  0  0  0  0  0
   34.7850   25.7680   47.8230 H   0  0  0  0  0  0  0  0  0  0  0  0
   36.8970   30.6870   47.4910 C   0  0  0  0  0  0  0  0  0  0  0  0
   38.2750   30.8810   47.3510 C   0  0  0  0  0  0  0  0  0  0  0  0
   38.7970   30.8490   46.0540 C   0  0  0  0  0  0  0  0  0  0  0  0
   37.9310   30.6310   45.0030 N   0  0  0  0  0  0  0  0  0  0  0  0
   36.5890   30.4460   45.1920 C   0  0  0  0  0  0  0  0  0  0  0  0
   36.0930   30.4780   46.4390 N   0  0  0  0  0  0  0  0  0  0  0  0
   39.0630   31.0480   48.0590 H   0  0  0  0  0  0  0  0  0  0  0  0
   39.8260   30.9800   45.7830 H   0  0  0  0  0  0  0  0  0  0  0  0
   36.0360   30.2870   44.2940 H   0  0  0  0  0  0  0  0  0  0  0  0
  1  7  1  6  0  0  0
  1  6  1  0  0  0  0
  1  2  1  0  0  0  0
  2  8  1  0  0  0  0
  2  3  1  0  0  0  0
  3 10  1  0  0  0  0
  3  4  1  0  0  0  0
  4 13  1  0  0  0  0
  4 12  1  0  0  0  0
  5 15  1  0  0  0  0
  5 14  1  0  0  0  0
  5  4  1  0  0  0  0
  6 16  1  6  0  0  0
  6  5  1  0  0  0  0
  9  2  1  0  0  0  0
 11  3  1  0  0  0  0
 17 18  2  0  0  0  0
 19 17  1  0  0  0  0
 19  6  1  0  0  0  0
 20 19  1  0  0  0  0
 21 17  1  0  0  0  0
 22 21  1  0  0  0  0
 23 24  1  0  0  0  0
 23 22  1  0  0  0  0
 24 25  1  0  0  0  0
 25 26  1  0  0  0  0
 25 21  1  0  0  0  0
 27  1  1  0  0  0  0
 28 27  1  0  0  0  0
 28 33  1  0  0  0  0
 29 28  2  0  0  0  0
 30 31  2  0  0  0  0
 30 29  1  0  0  0  0
 31 32  1  0  0  0  0
 32 27  2  0  0  0  0
 34 29  1  0  0  0  0
 35 31  1  0  0  0  0
M  END
>  <minimizedAffinity>
-5.97056389

>  <minimizedRMSD>
0.77641362

$$$$
