
 OpenBabel03262522153D

 42 45  0  0  1  0  0  0  0  0999 V2000
   40.6510   33.0280   45.2420 S   0  0  0  0  0  0  0  0  0  0  0  0
   37.7800   31.7640   47.6660 C   0  0  0  0  0  0  0  0  0  0  0  0
   37.9320   32.5350   48.8180 C   0  0  0  0  0  0  0  0  0  0  0  0
   38.9330   33.4890   48.9110 C   0  0  0  0  0  0  0  0  0  0  0  0
   39.7510   33.6190   47.8010 C   0  0  0  0  0  0  0  0  0  0  0  0
   39.5730   32.8520   46.6940 C   0  0  0  0  0  0  0  0  0  0  0  0
   38.6010   31.9210   46.5970 N   0  0  0  0  0  0  0  0  0  0  0  0
   37.2750   32.4060   49.6660 H   0  0  0  0  0  0  0  0  0  0  0  0
   39.0870   34.1030   49.7760 H   0  0  0  0  0  0  0  0  0  0  0  0
   40.5640   34.3380   47.7740 H   0  0  0  0  0  0  0  0  0  0  0  0
   36.7120   30.7940   47.6540 C   0  0  0  0  0  0  0  0  0  0  0  0
   36.2280   30.3910   46.5980 O   0  0  0  0  0  0  0  0  0  0  0  0
   37.0380   29.6340   49.8090 C   0  0  0  0  0  0  0  0  0  0  0  0
   36.1460   30.2340   48.8950 C   0  0  0  0  0  0  0  0  0  0  0  0
   34.7710   30.2830   49.1810 C   0  0  0  0  0  0  0  0  0  0  0  0
   34.3370   29.7370   50.3590 N   0  0  0  0  0  0  0  0  0  0  0  0
   35.2170   29.1630   51.2260 C   0  0  0  0  0  0  0  0  0  0  0  0
   36.5130   29.1190   50.9530 N   0  0  0  0  0  0  0  0  0  0  0  0
   38.0940   29.5730   49.6340 H   0  0  0  0  0  0  0  0  0  0  0  0
   34.1340   30.7430   48.4670 H   0  0  0  0  0  0  0  0  0  0  0  0
   34.7270   28.7780   52.1080 H   0  0  0  0  0  0  0  0  0  0  0  0
   39.5610   32.9430   43.8000 C   0  0  0  0  0  0  0  0  0  0  0  0
   39.7070   33.8600   43.1800 H   0  0  0  0  0  0  0  0  0  0  0  0
   38.4880   32.8390   44.0540 H   0  0  0  0  0  0  0  0  0  0  0  0
   38.8420   29.7640   42.4070 C   0  0  1  0  0  0  0  0  0  0  0  0
   38.8260   31.2620   42.1200 C   0  0  0  0  0  0  0  0  0  0  0  0
   39.9590   31.7230   42.9900 C   0  0  2  0  0  0  0  0  0  0  0  0
   40.3540   30.6790   43.7840 O   0  0  0  0  0  0  0  0  0  0  0  0
   39.3140   29.7510   43.8350 C   0  0  0  0  0  0  0  0  0  0  0  0
   39.5260   29.2260   41.7470 H   0  0  0  0  0  0  0  0  0  0  0  0
   38.9520   31.5070   41.0580 H   0  0  0  0  0  0  0  0  0  0  0  0
   37.8840   31.6570   42.5710 H   0  0  0  0  0  0  0  0  0  0  0  0
   40.8190   32.0350   42.3360 H   0  0  0  0  0  0  0  0  0  0  0  0
   38.5140   30.0200   44.5290 H   0  0  0  0  0  0  0  0  0  0  0  0
   39.8130   28.7820   44.1090 H   0  0  0  0  0  0  0  0  0  0  0  0
   37.5580   29.2270   42.2770 O   0  0  0  0  0  0  0  0  0  0  0  0
   35.6010   27.2860   41.3950 H   0  0  0  0  0  0  0  0  0  0  0  0
   36.3530   27.7720   40.8390 N   0  0  0  0  0  0  0  0  0  0  0  0
   36.8410   26.7950   39.8550 C   0  0  0  0  0  2  0  0  0  0  0  0
   38.0810   27.5710   39.3870 C   0  0  0  0  0  2  0  0  0  0  0  0
   38.7320   27.7730   40.7570 C   0  0  0  0  0  2  0  0  0  0  0  0
   37.5240   28.0240   41.6260 C   0  0  1  0  0  3  0  0  0  0  0  0
  1  6  1  0  0  0  0
  2  3  1  0  0  0  0
  3  4  2  0  0  0  0
  3  8  1  0  0  0  0
  4  9  1  0  0  0  0
  5  4  1  0  0  0  0
  6  5  2  0  0  0  0
  7  6  1  0  0  0  0
  7  2  2  0  0  0  0
 10  5  1  0  0  0  0
 11  2  1  0  0  0  0
 11 14  1  0  0  0  0
 12 11  2  0  0  0  0
 13 18  1  0  0  0  0
 14 15  1  0  0  0  0
 14 13  2  0  0  0  0
 15 16  2  0  0  0  0
 16 17  1  0  0  0  0
 17 21  1  0  0  0  0
 18 17  2  0  0  0  0
 19 13  1  0  0  0  0
 20 15  1  0  0  0  0
 22 24  1  0  0  0  0
 22  1  1  0  0  0  0
 23 22  1  0  0  0  0
 25 30  1  6  0  0  0
 25 29  1  0  0  0  0
 26 25  1  0  0  0  0
 26 32  1  0  0  0  0
 26 27  1  0  0  0  0
 27 33  1  6  0  0  0
 27 28  1  0  0  0  0
 27 22  1  0  0  0  0
 28 29  1  0  0  0  0
 29 35  1  0  0  0  0
 29 34  1  0  0  0  0
 31 26  1  0  0  0  0
 36 25  1  0  0  0  0
 38 37  1  0  0  0  0
 38 42  1  0  0  0  0
 39 38  1  0  0  0  0
 40 39  1  0  0  0  0
 40 41  1  0  0  0  0
 41 42  1  0  0  0  0
 42 36  1  6  0  0  0
M  END
>  <minimizedAffinity>
-5.0818882

>  <minimizedRMSD>
0.311494499

$$$$
