
 OpenBabel03272506363D

 20 21  0  0  1  0  0  0  0  0999 V2000
   38.4520   22.3080   34.6980 C   0  0  0  0  0  0  0  0  0  0  0  0
   39.5500   22.7680   33.9460 C   0  0  0  0  0  0  0  0  0  0  0  0
   40.6950   23.1850   34.6190 C   0  0  0  0  0  0  0  0  0  0  0  0
   40.6950   23.1280   35.9930 N   0  0  0  0  0  0  0  0  0  0  0  0
   39.6150   22.6780   36.6850 C   0  0  0  0  0  0  0  0  0  0  0  0
   38.5050   22.2730   36.0410 N   0  0  0  0  0  0  0  0  0  0  0  0
   38.6100   23.4540   38.7010 C   0  0  0  0  0  0  0  0  0  0  0  0
   37.7310   24.1660   38.1200 O   0  0  0  0  0  0  0  0  0  0  0  0
   39.6480   22.6310   38.1170 N   0  0  0  0  0  0  0  0  0  0  0  0
   39.5890   22.8270   32.8830 H   0  0  0  0  0  0  0  0  0  0  0  0
   41.5670   23.5450   34.1300 H   0  0  0  0  0  0  0  0  0  0  0  0
   38.4650   23.5560   39.7700 H   0  0  0  0  0  0  0  0  0  0  0  0
   40.2630   22.1300   38.7730 H   0  0  0  0  0  0  0  0  0  0  0  0
   37.4010   21.9320   33.8990 O   0  0  0  0  0  0  0  0  0  0  0  0
   37.9990   20.0170   31.5360 H   0  0  0  0  0  0  0  0  0  0  0  0
   37.3610   20.2980   32.2970 N   0  0  0  0  0  0  0  0  0  0  0  0
   35.9920   19.9180   32.1450 C   0  0  0  0  0  2  0  0  0  0  0  0
   35.1480   21.1340   32.4880 C   0  0  0  0  0  2  0  0  0  0  0  0
   36.0830   22.2340   31.9650 C   0  0  0  0  0  2  0  0  0  0  0  0
   37.4030   21.7410   32.5220 C   0  0  1  0  0  3  0  0  0  0  0  0
  1  6  1  0  0  0  0
  2  3  1  0  0  0  0
  2  1  2  0  0  0  0
  3  4  2  0  0  0  0
  4  5  1  0  0  0  0
  5  9  1  0  0  0  0
  6  5  2  0  0  0  0
  7 12  1  0  0  0  0
  8  7  2  0  0  0  0
  9  7  1  0  0  0  0
  9 13  1  0  0  0  0
 10  2  1  0  0  0  0
 11  3  1  0  0  0  0
 14  1  1  0  0  0  0
 15 16  1  0  0  0  0
 16 20  1  0  0  0  0
 17 16  1  0  0  0  0
 17 18  1  0  0  0  0
 19 18  1  0  0  0  0
 19 20  1  0  0  0  0
 20 14  1  1  0  0  0
M  END
>  <minimizedAffinity>
-4.35952425

$$$$

 OpenBabel03272506363D

 20 21  0  0  1  0  0  0  0  0999 V2000
   38.3780   25.8360   35.4190 C   0  0  0  0  0  0  0  0  0  0  0  0
   39.6250   26.4590   35.2150 C   0  0  0  0  0  0  0  0  0  0  0  0
   39.8610   27.1060   34.0050 C   0  0  0  0  0  0  0  0  0  0  0  0
   38.8580   27.1030   33.0640 N   0  0  0  0  0  0  0  0  0  0  0  0
   37.6680   26.4890   33.2960 C   0  0  0  0  0  0  0  0  0  0  0  0
   37.4330   25.8630   34.4630 N   0  0  0  0  0  0  0  0  0  0  0  0
   36.2830   25.1650   31.8790 C   0  0  0  0  0  0  0  0  0  0  0  0
   36.7450   24.0510   32.2830 O   0  0  0  0  0  0  0  0  0  0  0  0
   36.6440   26.5050   32.2930 N   0  0  0  0  0  0  0  0  0  0  0  0
   40.4250   26.4840   35.9180 H   0  0  0  0  0  0  0  0  0  0  0  0
   40.7710   27.6020   33.7690 H   0  0  0  0  0  0  0  0  0  0  0  0
   35.5280   24.9580   31.1300 H   0  0  0  0  0  0  0  0  0  0  0  0
   36.1430   27.2790   31.8350 H   0  0  0  0  0  0  0  0  0  0  0  0
   38.2940   25.2430   36.6540 O   0  0  0  0  0  0  0  0  0  0  0  0
   37.1040   22.5610   35.6560 H   0  0  0  0  0  0  0  0  0  0  0  0
   37.9410   23.1090   35.9060 N   0  0  0  0  0  0  0  0  0  0  0  0
   39.1000   22.3590   36.2740 C   0  0  0  0  0  2  0  0  0  0  0  0
   39.6690   22.9970   37.5290 C   0  0  0  0  0  2  0  0  0  0  0  0
   38.3580   23.4510   38.1870 C   0  0  0  0  0  2  0  0  0  0  0  0
   37.6580   24.0530   36.9850 C   0  0  1  0  0  3  0  0  0  0  0  0
  1 14  1  0  0  0  0
  2  1  1  0  0  0  0
  2 10  1  0  0  0  0
  3  2  2  0  0  0  0
  4  5  2  0  0  0  0
  4  3  1  0  0  0  0
  5  6  1  0  0  0  0
  6  1  2  0  0  0  0
  7  8  2  0  0  0  0
  7  9  1  0  0  0  0
  9  5  1  0  0  0  0
 11  3  1  0  0  0  0
 12  7  1  0  0  0  0
 13  9  1  0  0  0  0
 15 16  1  0  0  0  0
 16 17  1  0  0  0  0
 16 20  1  0  0  0  0
 17 18  1  0  0  0  0
 18 19  1  0  0  0  0
 20 14  1  6  0  0  0
 20 19  1  0  0  0  0
M  END
>  <minimizedAffinity>
-4.31645489

$$$$

 OpenBabel03272506363D

 20 21  0  0  1  0  0  0  0  0999 V2000
   37.4240   21.8980   34.3680 C   0  0  0  0  0  0  0  0  0  0  0  0
   36.3980   20.9640   34.6060 C   0  0  0  0  0  0  0  0  0  0  0  0
   35.4550   20.7350   33.6070 C   0  0  0  0  0  0  0  0  0  0  0  0
   35.5740   21.4400   32.4330 N   0  0  0  0  0  0  0  0  0  0  0  0
   36.5780   22.3350   32.2390 C   0  0  0  0  0  0  0  0  0  0  0  0
   37.4930   22.5600   33.2000 N   0  0  0  0  0  0  0  0  0  0  0  0
   36.5870   24.4830   31.2080 C   0  0  0  0  0  0  0  0  0  0  0  0
   36.4470   25.1280   32.2950 O   0  0  0  0  0  0  0  0  0  0  0  0
   36.6730   23.0520   31.0020 N   0  0  0  0  0  0  0  0  0  0  0  0
   36.2720   20.3990   35.5000 H   0  0  0  0  0  0  0  0  0  0  0  0
   34.6500   20.0480   33.7040 H   0  0  0  0  0  0  0  0  0  0  0  0
   36.6370   25.2030   30.4000 H   0  0  0  0  0  0  0  0  0  0  0  0
   36.7860   22.7330   30.0300 H   0  0  0  0  0  0  0  0  0  0  0  0
   38.2740   22.0150   35.4400 O   0  0  0  0  0  0  0  0  0  0  0  0
   38.3720   23.0490   38.3600 H   0  0  0  0  0  0  0  0  0  0  0  0
   38.8540   22.5730   37.5810 N   0  0  0  0  0  0  0  0  0  0  0  0
   40.2820   22.5950   37.6180 C   0  0  0  0  0  2  0  0  0  0  0  0
   40.7610   22.9630   36.2240 C   0  0  0  0  0  2  0  0  0  0  0  0
   39.6240   23.9120   35.8190 C   0  0  0  0  0  2  0  0  0  0  0  0
   38.4310   23.1050   36.2880 C   0  0  1  0  0  3  0  0  0  0  0  0
  1  2  1  0  0  0  0
  1 14  1  0  0  0  0
  2 10  1  0  0  0  0
  3 11  1  0  0  0  0
  3  2  2  0  0  0  0
  4  3  1  0  0  0  0
  5  4  2  0  0  0  0
  5  6  1  0  0  0  0
  6  1  2  0  0  0  0
  7  8  2  0  0  0  0
  9  7  1  0  0  0  0
  9  5  1  0  0  0  0
 12  7  1  0  0  0  0
 13  9  1  0  0  0  0
 16 17  1  0  0  0  0
 16 15  1  0  0  0  0
 18 17  1  0  0  0  0
 19 18  1  0  0  0  0
 19 20  1  0  0  0  0
 20 14  1  6  0  0  0
 20 16  1  0  0  0  0
M  END
>  <minimizedAffinity>
-4.23662615

$$$$

 OpenBabel03272506363D

 20 21  0  0  1  0  0  0  0  0999 V2000
   36.5430   28.1660   32.7730 C   0  0  0  0  0  0  0  0  0  0  0  0
   35.8050   29.3370   33.0260 C   0  0  0  0  0  0  0  0  0  0  0  0
   35.4650   30.1600   31.9550 C   0  0  0  0  0  0  0  0  0  0  0  0
   35.8710   29.7830   30.6970 N   0  0  0  0  0  0  0  0  0  0  0  0
   36.5840   28.6450   30.4910 C   0  0  0  0  0  0  0  0  0  0  0  0
   36.9160   27.8450   31.5210 N   0  0  0  0  0  0  0  0  0  0  0  0
   38.4320   28.1890   29.0580 C   0  0  0  0  0  0  0  0  0  0  0  0
   39.3160   28.3810   29.9530 O   0  0  0  0  0  0  0  0  0  0  0  0
   36.9910   28.2820   29.1660 N   0  0  0  0  0  0  0  0  0  0  0  0
   35.4720   29.6620   33.9850 H   0  0  0  0  0  0  0  0  0  0  0  0
   34.9090   31.0600   32.0580 H   0  0  0  0  0  0  0  0  0  0  0  0
   38.9440   27.9280   28.1390 H   0  0  0  0  0  0  0  0  0  0  0  0
   36.4520   28.0860   28.3110 H   0  0  0  0  0  0  0  0  0  0  0  0
   36.8020   27.4600   33.9220 O   0  0  0  0  0  0  0  0  0  0  0  0
   39.3390   25.8880   33.0860 H   0  0  0  0  0  0  0  0  0  0  0  0
   38.9200   26.6340   33.6640 N   0  0  0  0  0  0  0  0  0  0  0  0
   39.6390   26.9970   34.8430 C   0  0  0  0  0  2  0  0  0  0  0  0
   38.6300   27.0840   35.9750 C   0  0  0  0  0  2  0  0  0  0  0  0
   37.6700   25.9710   35.5320 C   0  0  0  0  0  2  0  0  0  0  0  0
   37.5530   26.2990   34.0570 C   0  0  1  0  0  3  0  0  0  0  0  0
  1  2  1  0  0  0  0
  1 14  1  0  0  0  0
  2 10  1  0  0  0  0
  3 11  1  0  0  0  0
  3  2  2  0  0  0  0
  4  3  1  0  0  0  0
  5  4  2  0  0  0  0
  5  6  1  0  0  0  0
  6  1  2  0  0  0  0
  7  9  1  0  0  0  0
  7  8  2  0  0  0  0
  9  5  1  0  0  0  0
 12  7  1  0  0  0  0
 13  9  1  0  0  0  0
 15 16  1  0  0  0  0
 16 20  1  0  0  0  0
 16 17  1  0  0  0  0
 17 18  1  0  0  0  0
 19 18  1  0  0  0  0
 20 14  1  1  0  0  0
 20 19  1  0  0  0  0
M  END
>  <minimizedAffinity>
-4.15722561

$$$$

 OpenBabel03272506363D

 20 21  0  0  1  0  0  0  0  0999 V2000
   40.9320   24.1270   35.5970 C   0  0  0  0  0  0  0  0  0  0  0  0
   42.0840   23.4060   35.9660 C   0  0  0  0  0  0  0  0  0  0  0  0
   41.9650   22.3900   36.9120 C   0  0  0  0  0  0  0  0  0  0  0  0
   40.7200   22.1440   37.4410 N   0  0  0  0  0  0  0  0  0  0  0  0
   39.6300   22.8620   37.0610 C   0  0  0  0  0  0  0  0  0  0  0  0
   39.7380   23.8440   36.1480 N   0  0  0  0  0  0  0  0  0  0  0  0
   37.8060   23.7290   38.3240 C   0  0  0  0  0  0  0  0  0  0  0  0
   38.3110   24.8880   38.4670 O   0  0  0  0  0  0  0  0  0  0  0  0
   38.3470   22.5780   37.6340 N   0  0  0  0  0  0  0  0  0  0  0  0
   43.0630   23.5660   35.5790 H   0  0  0  0  0  0  0  0  0  0  0  0
   42.7810   21.7980   37.2450 H   0  0  0  0  0  0  0  0  0  0  0  0
   36.8450   23.7230   38.8260 H   0  0  0  0  0  0  0  0  0  0  0  0
   37.7710   21.7250   37.6370 H   0  0  0  0  0  0  0  0  0  0  0  0
   41.2050   25.0910   34.6590 O   0  0  0  0  0  0  0  0  0  0  0  0
   42.8520   27.6670   35.1690 H   0  0  0  0  0  0  0  0  0  0  0  0
   42.5350   26.9460   34.5020 N   0  0  0  0  0  0  0  0  0  0  0  0
   42.5470   27.3160   33.1220 C   0  0  0  0  0  2  0  0  0  0  0  0
   41.2250   26.8660   32.5260 C   0  0  0  0  0  2  0  0  0  0  0  0
   40.3210   27.0790   33.7480 C   0  0  0  0  0  2  0  0  0  0  0  0
   41.1930   26.4710   34.8270 C   0  0  1  0  0  3  0  0  0  0  0  0
  1  2  2  0  0  0  0
  1  6  1  0  0  0  0
  2  3  1  0  0  0  0
  3 11  1  0  0  0  0
  3  4  2  0  0  0  0
  5  4  1  0  0  0  0
  5  9  1  0  0  0  0
  6  5  2  0  0  0  0
  7  8  2  0  0  0  0
  7 12  1  0  0  0  0
  9 13  1  0  0  0  0
  9  7  1  0  0  0  0
 10  2  1  0  0  0  0
 14  1  1  0  0  0  0
 16 20  1  0  0  0  0
 16 15  1  0  0  0  0
 17 16  1  0  0  0  0
 18 17  1  0  0  0  0
 18 19  1  0  0  0  0
 19 20  1  0  0  0  0
 20 14  1  6  0  0  0
M  END
>  <minimizedAffinity>
-4.15597343

$$$$

 OpenBabel03272506363D

 20 21  0  0  1  0  0  0  0  0999 V2000
   37.3710   21.8320   34.5210 C   0  0  0  0  0  0  0  0  0  0  0  0
   36.3200   20.9170   34.7190 C   0  0  0  0  0  0  0  0  0  0  0  0
   35.4480   20.6590   33.6640 C   0  0  0  0  0  0  0  0  0  0  0  0
   35.6600   21.3170   32.4750 N   0  0  0  0  0  0  0  0  0  0  0  0
   36.6860   22.1950   32.3210 C   0  0  0  0  0  0  0  0  0  0  0  0
   37.5320   22.4480   33.3360 N   0  0  0  0  0  0  0  0  0  0  0  0
   36.7950   24.3020   31.2140 C   0  0  0  0  0  0  0  0  0  0  0  0
   36.5860   24.9890   32.2630 O   0  0  0  0  0  0  0  0  0  0  0  0
   36.8780   22.8630   31.0680 N   0  0  0  0  0  0  0  0  0  0  0  0
   36.1230   20.3880   35.6220 H   0  0  0  0  0  0  0  0  0  0  0  0
   34.6300   19.9840   33.7270 H   0  0  0  0  0  0  0  0  0  0  0  0
   36.9120   24.9900   30.3850 H   0  0  0  0  0  0  0  0  0  0  0  0
   37.0570   22.5060   30.1200 H   0  0  0  0  0  0  0  0  0  0  0  0
   38.1440   21.9810   35.6460 O   0  0  0  0  0  0  0  0  0  0  0  0
   39.1440   24.8670   35.1150 H   0  0  0  0  0  0  0  0  0  0  0  0
   38.5020   24.2410   35.6260 N   0  0  0  0  0  0  0  0  0  0  0  0
   37.9860   24.7400   36.8620 C   0  0  0  0  0  2  0  0  0  0  0  0
   38.1100   23.6220   37.8830 C   0  0  0  0  0  2  0  0  0  0  0  0
   39.4050   22.9710   37.3760 C   0  0  0  0  0  2  0  0  0  0  0  0
   39.1180   22.9430   35.8890 C   0  0  1  0  0  3  0  0  0  0  0  0
  1  2  1  0  0  0  0
  1 14  1  0  0  0  0
  2 10  1  0  0  0  0
  3 11  1  0  0  0  0
  3  2  2  0  0  0  0
  4  3  1  0  0  0  0
  5  4  2  0  0  0  0
  5  6  1  0  0  0  0
  6  1  2  0  0  0  0
  7  8  2  0  0  0  0
  9  7  1  0  0  0  0
  9  5  1  0  0  0  0
 12  7  1  0  0  0  0
 13  9  1  0  0  0  0
 15 16  1  0  0  0  0
 16 20  1  0  0  0  0
 16 17  1  0  0  0  0
 17 18  1  0  0  0  0
 19 18  1  0  0  0  0
 20 14  1  1  0  0  0
 20 19  1  0  0  0  0
M  END
>  <minimizedAffinity>
-4.12798452

$$$$

 OpenBabel03272506363D

 20 21  0  0  1  0  0  0  0  0999 V2000
   37.7970   23.0060   33.5570 C   0  0  0  0  0  0  0  0  0  0  0  0
   37.0250   21.8480   33.3450 C   0  0  0  0  0  0  0  0  0  0  0  0
   36.2930   21.7380   32.1660 C   0  0  0  0  0  0  0  0  0  0  0  0
   36.3610   22.7730   31.2630 N   0  0  0  0  0  0  0  0  0  0  0  0
   37.1180   23.8760   31.5030 C   0  0  0  0  0  0  0  0  0  0  0  0
   37.8280   23.9890   32.6400 N   0  0  0  0  0  0  0  0  0  0  0  0
   36.6940   26.1860   31.1000 C   0  0  0  0  0  0  0  0  0  0  0  0
   36.2700   26.4270   32.2740 O   0  0  0  0  0  0  0  0  0  0  0  0
   37.1660   24.9370   30.5400 N   0  0  0  0  0  0  0  0  0  0  0  0
   36.9460   21.0270   34.0180 H   0  0  0  0  0  0  0  0  0  0  0  0
   35.6850   20.8990   31.9260 H   0  0  0  0  0  0  0  0  0  0  0  0
   36.6500   27.1100   30.5350 H   0  0  0  0  0  0  0  0  0  0  0  0
   37.4680   24.9580   29.5570 H   0  0  0  0  0  0  0  0  0  0  0  0
   38.4610   22.9710   34.7580 O   0  0  0  0  0  0  0  0  0  0  0  0
   39.5390   20.9540   36.8510 H   0  0  0  0  0  0  0  0  0  0  0  0
   39.4550   21.9340   36.5400 N   0  0  0  0  0  0  0  0  0  0  0  0
   39.6050   22.9310   37.5520 C   0  0  0  0  0  2  0  0  0  0  0  0
   38.4840   23.9390   37.3590 C   0  0  0  0  0  2  0  0  0  0  0  0
   37.3870   22.9890   36.8590 C   0  0  0  0  0  2  0  0  0  0  0  0
   38.1830   22.1720   35.8620 C   0  0  1  0  0  3  0  0  0  0  0  0
  1 14  1  0  0  0  0
  2  1  1  0  0  0  0
  2 10  1  0  0  0  0
  3  2  2  0  0  0  0
  4  5  2  0  0  0  0
  4  3  1  0  0  0  0
  5  6  1  0  0  0  0
  6  1  2  0  0  0  0
  7  8  2  0  0  0  0
  9  7  1  0  0  0  0
  9  5  1  0  0  0  0
 11  3  1  0  0  0  0
 12  7  1  0  0  0  0
 13  9  1  0  0  0  0
 16 15  1  0  0  0  0
 16 17  1  0  0  0  0
 18 17  1  0  0  0  0
 19 18  1  0  0  0  0
 20 14  1  6  0  0  0
 20 16  1  0  0  0  0
 20 19  1  0  0  0  0
M  END
>  <minimizedAffinity>
-4.09536934

$$$$

 OpenBabel03272506363D

 20 21  0  0  1  0  0  0  0  0999 V2000
   37.3150   22.2990   33.4820 C   0  0  0  0  0  0  0  0  0  0  0  0
   37.5580   23.2300   32.4540 C   0  0  0  0  0  0  0  0  0  0  0  0
   36.7660   23.1860   31.3090 C   0  0  0  0  0  0  0  0  0  0  0  0
   35.7810   22.2280   31.2410 N   0  0  0  0  0  0  0  0  0  0  0  0
   35.5760   21.3460   32.2540 C   0  0  0  0  0  0  0  0  0  0  0  0
   36.3370   21.3830   33.3630 N   0  0  0  0  0  0  0  0  0  0  0  0
   35.0740   19.0170   32.2270 C   0  0  0  0  0  0  0  0  0  0  0  0
   36.2810   18.6420   32.3680 O   0  0  0  0  0  0  0  0  0  0  0  0
   34.5410   20.3610   32.1500 N   0  0  0  0  0  0  0  0  0  0  0  0
   38.3090   23.9850   32.4690 H   0  0  0  0  0  0  0  0  0  0  0  0
   36.8810   23.8500   30.4880 H   0  0  0  0  0  0  0  0  0  0  0  0
   34.4560   18.1280   32.1690 H   0  0  0  0  0  0  0  0  0  0  0  0
   33.5220   20.4460   32.0340 H   0  0  0  0  0  0  0  0  0  0  0  0
   38.1710   22.4660   34.5420 O   0  0  0  0  0  0  0  0  0  0  0  0
   39.3280   20.9910   37.0100 H   0  0  0  0  0  0  0  0  0  0  0  0
   39.3090   21.8410   36.4260 N   0  0  0  0  0  0  0  0  0  0  0  0
   39.7300   23.0500   37.0600 C   0  0  0  0  0  2  0  0  0  0  0  0
   38.7160   24.1220   36.7010 C   0  0  0  0  0  2  0  0  0  0  0  0
   37.4510   23.2530   36.6460 C   0  0  0  0  0  2  0  0  0  0  0  0
   37.9820   22.0710   35.8610 C   0  0  1  0  0  3  0  0  0  0  0  0
  1 14  1  0  0  0  0
  2 10  1  0  0  0  0
  2  1  2  0  0  0  0
  3  2  1  0  0  0  0
  4  3  2  0  0  0  0
  4  5  1  0  0  0  0
  5  6  2  0  0  0  0
  6  1  1  0  0  0  0
  7  8  2  0  0  0  0
  9  7  1  0  0  0  0
  9  5  1  0  0  0  0
 11  3  1  0  0  0  0
 12  7  1  0  0  0  0
 13  9  1  0  0  0  0
 16 15  1  0  0  0  0
 16 17  1  0  0  0  0
 18 17  1  0  0  0  0
 19 18  1  0  0  0  0
 20 14  1  6  0  0  0
 20 16  1  0  0  0  0
 20 19  1  0  0  0  0
M  END
>  <minimizedAffinity>
-4.04591894

$$$$

 OpenBabel03272506363D

 20 21  0  0  1  0  0  0  0  0999 V2000
   38.4650   23.8130   34.3610 C   0  0  0  0  0  0  0  0  0  0  0  0
   37.9580   22.7200   33.6330 C   0  0  0  0  0  0  0  0  0  0  0  0
   37.3180   21.6930   34.3230 C   0  0  0  0  0  0  0  0  0  0  0  0
   37.2150   21.8000   35.6900 N   0  0  0  0  0  0  0  0  0  0  0  0
   37.7170   22.8710   36.3590 C   0  0  0  0  0  0  0  0  0  0  0  0
   38.3360   23.8660   35.6990 N   0  0  0  0  0  0  0  0  0  0  0  0
   38.8850   23.0190   38.4310 C   0  0  0  0  0  0  0  0  0  0  0  0
   40.0430   23.0160   37.9050 O   0  0  0  0  0  0  0  0  0  0  0  0
   37.5910   22.9510   37.7850 N   0  0  0  0  0  0  0  0  0  0  0  0
   38.0180   22.6000   32.5760 H   0  0  0  0  0  0  0  0  0  0  0  0
   36.9070   20.8340   33.8520 H   0  0  0  0  0  0  0  0  0  0  0  0
   39.0100   23.0840   39.5050 H   0  0  0  0  0  0  0  0  0  0  0  0
   36.7670   22.9660   38.4010 H   0  0  0  0  0  0  0  0  0  0  0  0
   39.0650   24.7410   33.5470 O   0  0  0  0  0  0  0  0  0  0  0  0
   37.2770   27.1170   34.4210 H   0  0  0  0  0  0  0  0  0  0  0  0
   38.1350   26.5640   34.5710 N   0  0  0  0  0  0  0  0  0  0  0  0
   39.1980   27.2240   35.2590 C   0  0  0  0  0  2  0  0  0  0  0  0
   40.4770   26.9360   34.4910 C   0  0  0  0  0  2  0  0  0  0  0  0
   39.9020   26.8940   33.0680 C   0  0  0  0  0  2  0  0  0  0  0  0
   38.6660   26.0510   33.3110 C   0  0  1  0  0  3  0  0  0  0  0  0
  1  6  1  0  0  0  0
  2  3  1  0  0  0  0
  2  1  2  0  0  0  0
  3  4  2  0  0  0  0
  4  5  1  0  0  0  0
  5  9  1  0  0  0  0
  6  5  2  0  0  0  0
  7 12  1  0  0  0  0
  8  7  2  0  0  0  0
  9 13  1  0  0  0  0
  9  7  1  0  0  0  0
 10  2  1  0  0  0  0
 11  3  1  0  0  0  0
 14  1  1  0  0  0  0
 15 16  1  0  0  0  0
 16 17  1  0  0  0  0
 18 17  1  0  0  0  0
 19 20  1  0  0  0  0
 19 18  1  0  0  0  0
 20 14  1  1  0  0  0
 20 16  1  0  0  0  0
M  END
>  <minimizedAffinity>
-4.03397512

$$$$
