
 OpenBabel03272501293D

 17 18  0  0  0  0  0  0  0  0999 V2000
   37.3720   29.8610   51.2610 C   0  0  0  0  0  0  0  0  0  0  0  0
   38.0830   30.7970   50.5070 C   0  0  0  0  0  0  0  0  0  0  0  0
   37.3980   31.4090   49.4430 C   0  0  0  0  0  0  0  0  0  0  0  0
   36.0980   31.0640   49.2070 N   0  0  0  0  0  0  0  0  0  0  0  0
   35.4630   30.1580   49.9640 C   0  0  0  0  0  0  0  0  0  0  0  0
   36.0920   29.5650   50.9790 N   0  0  0  0  0  0  0  0  0  0  0  0
   37.8410   29.3600   52.0870 H   0  0  0  0  0  0  0  0  0  0  0  0
   39.0930   31.0160   50.7490 H   0  0  0  0  0  0  0  0  0  0  0  0
   34.4510   29.9010   49.7660 H   0  0  0  0  0  0  0  0  0  0  0  0
   38.1020   32.3920   48.6300 C   0  0  0  0  0  0  0  0  0  0  0  0
   38.2900   33.5800   48.9560 O   0  0  0  0  0  0  0  0  0  0  0  0
   38.6480   32.0490   47.3620 N   0  0  0  0  0  0  0  0  0  0  0  0
   38.1870   30.8040   46.7780 C   0  0  0  0  0  0  0  0  0  0  0  0
   39.1160   30.4450   45.6580 C   0  0  0  0  0  0  0  0  0  0  0  0
   40.2920   31.3720   45.8890 C   0  0  0  0  0  0  0  0  0  0  0  0
   39.5890   32.6100   46.4190 C   0  0  0  0  0  0  0  0  0  0  0  0
   39.0760   33.1270   45.5920 H   0  0  0  0  0  0  0  0  0  0  0  0
  1  7  1  0  0  0  0
  2  8  1  0  0  0  0
  2  1  2  0  0  0  0
  3  2  1  0  0  0  0
  4  3  2  0  0  0  0
  4  5  1  0  0  0  0
  5  6  2  0  0  0  0
  6  1  1  0  0  0  0
  9  5  1  0  0  0  0
 10 11  2  0  0  0  0
 10  3  1  0  0  0  0
 12 10  1  0  0  0  0
 13 12  1  0  0  0  0
 14 15  1  0  0  0  0
 14 13  1  0  0  0  0
 15 16  1  0  0  0  0
 16 12  1  0  0  0  0
 17 16  1  0  0  0  0
M  END
>  <minimizedAffinity>
-5.11866522

>  <minimizedRMSD>
1.85688138

$$$$
