
 OpenBabel03262522093D

 17 18  0  0  0  0  0  0  0  0999 V2000
   39.4450   23.1110   38.0770 C   0  0  0  0  0  0  0  0  0  0  0  0
   40.0100   22.5740   36.8790 C   0  0  0  0  0  0  0  0  0  0  0  0
   39.1230   22.2780   35.8310 C   0  0  0  0  0  0  0  0  0  0  0  0
   37.8000   22.5150   36.0120 N   0  0  0  0  0  0  0  0  0  0  0  0
   37.3140   23.0210   37.1540 C   0  0  0  0  0  0  0  0  0  0  0  0
   38.1060   23.3240   38.1920 N   0  0  0  0  0  0  0  0  0  0  0  0
   40.1650   23.3290   38.8710 H   0  0  0  0  0  0  0  0  0  0  0  0
   39.5420   21.8770   34.9380 H   0  0  0  0  0  0  0  0  0  0  0  0
   36.2570   23.2190   37.3210 H   0  0  0  0  0  0  0  0  0  0  0  0
   41.4580   22.3660   36.8140 C   0  0  0  0  0  0  0  0  0  0  0  0
   41.8460   21.3020   37.3250 O   0  0  0  0  0  0  0  0  0  0  0  0
   42.3900   23.2380   36.2450 N   0  0  0  0  0  0  0  0  0  0  0  0
   43.8100   23.1040   36.5090 C   0  0  0  0  0  2  0  0  0  0  0  0
   44.1480   24.5640   36.8360 C   0  0  0  0  0  2  0  0  0  0  0  0
   43.5190   25.2210   35.6100 C   0  0  0  0  0  2  0  0  0  0  0  0
   42.3170   24.3680   35.3620 C   0  0  0  0  0  3  0  0  0  0  0  0
   42.3380   23.9870   34.3040 H   0  0  0  0  0  0  0  0  0  0  0  0
  1  6  1  0  0  0  0
  1  7  1  0  0  0  0
  2  1  2  0  0  0  0
  3  4  2  0  0  0  0
  3  2  1  0  0  0  0
  4  5  1  0  0  0  0
  5  9  1  0  0  0  0
  5  6  2  0  0  0  0
  8  3  1  0  0  0  0
 10  2  1  0  0  0  0
 10 11  2  0  0  0  0
 12 13  1  0  0  0  0
 12 10  1  0  0  0  0
 13 14  1  0  0  0  0
 15 14  1  0  0  0  0
 16 15  1  0  0  0  0
 16 12  1  0  0  0  0
 17 16  1  0  0  0  0
M  END
>  <minimizedAffinity>
-3.95746374

$$$$

 OpenBabel03262522093D

 17 18  0  0  0  0  0  0  0  0999 V2000
   39.6390   23.0460   36.4690 C   0  0  0  0  0  0  0  0  0  0  0  0
   38.4330   23.6580   36.0100 C   0  0  0  0  0  0  0  0  0  0  0  0
   37.5150   24.0750   36.9880 C   0  0  0  0  0  0  0  0  0  0  0  0
   37.8220   23.8770   38.2940 N   0  0  0  0  0  0  0  0  0  0  0  0
   38.9680   23.2990   38.6800 C   0  0  0  0  0  0  0  0  0  0  0  0
   39.8850   22.8780   37.7970 N   0  0  0  0  0  0  0  0  0  0  0  0
   40.3300   22.7340   35.6810 H   0  0  0  0  0  0  0  0  0  0  0  0
   36.6150   24.5310   36.6470 H   0  0  0  0  0  0  0  0  0  0  0  0
   39.2340   23.1300   39.7210 H   0  0  0  0  0  0  0  0  0  0  0  0
   38.2250   23.8120   34.5680 C   0  0  0  0  0  0  0  0  0  0  0  0
   38.3580   22.7630   33.9170 O   0  0  0  0  0  0  0  0  0  0  0  0
   37.9020   24.9990   33.9050 N   0  0  0  0  0  0  0  0  0  0  0  0
   38.0310   25.1190   32.4660 C   0  0  0  0  0  2  0  0  0  0  0  0
   38.7750   26.4580   32.3870 C   0  0  0  0  0  2  0  0  0  0  0  0
   37.8510   27.2830   33.2800 C   0  0  0  0  0  2  0  0  0  0  0  0
   37.4200   26.2900   34.3090 C   0  0  0  0  0  3  0  0  0  0  0  0
   36.2960   26.2480   34.3440 H   0  0  0  0  0  0  0  0  0  0  0  0
  1  6  1  0  0  0  0
  2  1  2  0  0  0  0
  2  3  1  0  0  0  0
  3  4  2  0  0  0  0
  4  5  1  0  0  0  0
  5  9  1  0  0  0  0
  6  5  2  0  0  0  0
  7  1  1  0  0  0  0
  8  3  1  0  0  0  0
 10  2  1  0  0  0  0
 11 10  2  0  0  0  0
 12 16  1  0  0  0  0
 12 10  1  0  0  0  0
 13 12  1  0  0  0  0
 14 13  1  0  0  0  0
 14 15  1  0  0  0  0
 15 16  1  0  0  0  0
 16 17  1  0  0  0  0
M  END
>  <minimizedAffinity>
-3.72138667

$$$$

 OpenBabel03262522093D

 17 18  0  0  0  0  0  0  0  0999 V2000
   38.2280   24.0140   34.4200 C   0  0  0  0  0  0  0  0  0  0  0  0
   37.9830   22.6410   34.7300 C   0  0  0  0  0  0  0  0  0  0  0  0
   37.7000   22.3290   36.0700 C   0  0  0  0  0  0  0  0  0  0  0  0
   37.6740   23.3330   36.9810 N   0  0  0  0  0  0  0  0  0  0  0  0
   37.9090   24.6100   36.6440 C   0  0  0  0  0  0  0  0  0  0  0  0
   38.1860   24.9740   35.3840 N   0  0  0  0  0  0  0  0  0  0  0  0
   38.4460   24.2200   33.3690 H   0  0  0  0  0  0  0  0  0  0  0  0
   37.5180   21.3060   36.3020 H   0  0  0  0  0  0  0  0  0  0  0  0
   37.8940   25.4300   37.3580 H   0  0  0  0  0  0  0  0  0  0  0  0
   38.0420   21.6530   33.6500 C   0  0  0  0  0  0  0  0  0  0  0  0
   39.1890   21.4140   33.2370 O   0  0  0  0  0  0  0  0  0  0  0  0
   36.9510   20.9920   33.0800 N   0  0  0  0  0  0  0  0  0  0  0  0
   37.0720   20.2830   31.8200 C   0  0  0  0  0  2  0  0  0  0  0  0
   35.8320   20.8290   31.1000 C   0  0  0  0  0  2  0  0  0  0  0  0
   34.7990   20.5550   32.1910 C   0  0  0  0  0  2  0  0  0  0  0  0
   35.5760   20.7980   33.4450 C   0  0  0  0  0  3  0  0  0  0  0  0
   35.5150   19.8910   34.1060 H   0  0  0  0  0  0  0  0  0  0  0  0
  1  2  2  0  0  0  0
  1  6  1  0  0  0  0
  2  3  1  0  0  0  0
  3  8  1  0  0  0  0
  3  4  2  0  0  0  0
  5  4  1  0  0  0  0
  5  9  1  0  0  0  0
  6  5  2  0  0  0  0
  7  1  1  0  0  0  0
 10  2  1  0  0  0  0
 11 10  2  0  0  0  0
 12 16  1  0  0  0  0
 12 10  1  0  0  0  0
 13 12  1  0  0  0  0
 14 13  1  0  0  0  0
 14 15  1  0  0  0  0
 15 16  1  0  0  0  0
 16 17  1  0  0  0  0
M  END
>  <minimizedAffinity>
-3.70634007

$$$$

 OpenBabel03262522093D

 17 18  0  0  0  0  0  0  0  0999 V2000
   37.8460   24.5860   36.9290 C   0  0  0  0  0  0  0  0  0  0  0  0
   38.8330   24.1230   36.0050 C   0  0  0  0  0  0  0  0  0  0  0  0
   39.7990   23.2300   36.4970 C   0  0  0  0  0  0  0  0  0  0  0  0
   39.7420   22.8630   37.8010 N   0  0  0  0  0  0  0  0  0  0  0  0
   38.7960   23.3220   38.6330 C   0  0  0  0  0  0  0  0  0  0  0  0
   37.8460   24.1770   38.2270 N   0  0  0  0  0  0  0  0  0  0  0  0
   37.1110   25.2800   36.5130 H   0  0  0  0  0  0  0  0  0  0  0  0
   40.5350   22.8840   35.8100 H   0  0  0  0  0  0  0  0  0  0  0  0
   38.7310   23.0410   39.6820 H   0  0  0  0  0  0  0  0  0  0  0  0
   38.7810   24.5990   34.6210 C   0  0  0  0  0  0  0  0  0  0  0  0
   38.0220   23.9500   33.8840 O   0  0  0  0  0  0  0  0  0  0  0  0
   39.4930   25.6820   34.0970 N   0  0  0  0  0  0  0  0  0  0  0  0
   39.6240   25.8780   32.6660 C   0  0  0  0  0  2  0  0  0  0  0  0
   41.1330   26.1410   32.5820 C   0  0  0  0  0  2  0  0  0  0  0  0
   41.2330   27.2250   33.6510 C   0  0  0  0  0  2  0  0  0  0  0  0
   40.2170   26.7880   34.6560 C   0  0  0  0  0  3  0  0  0  0  0  0
   39.4890   27.6240   34.8430 H   0  0  0  0  0  0  0  0  0  0  0  0
  1  6  1  0  0  0  0
  2  3  1  0  0  0  0
  2  1  2  0  0  0  0
  3  4  2  0  0  0  0
  4  5  1  0  0  0  0
  5  9  1  0  0  0  0
  6  5  2  0  0  0  0
  7  1  1  0  0  0  0
  8  3  1  0  0  0  0
 10  2  1  0  0  0  0
 11 10  2  0  0  0  0
 12 10  1  0  0  0  0
 12 16  1  0  0  0  0
 13 12  1  0  0  0  0
 14 13  1  0  0  0  0
 14 15  1  0  0  0  0
 15 16  1  0  0  0  0
 16 17  1  0  0  0  0
M  END
>  <minimizedAffinity>
-3.69778442

$$$$

 OpenBabel03262522093D

 17 18  0  0  0  0  0  0  0  0999 V2000
   37.5540   23.4660   30.6270 C   0  0  0  0  0  0  0  0  0  0  0  0
   36.2410   23.6650   31.1550 C   0  0  0  0  0  0  0  0  0  0  0  0
   35.5330   22.5200   31.5550 C   0  0  0  0  0  0  0  0  0  0  0  0
   36.1260   21.3080   31.4210 N   0  0  0  0  0  0  0  0  0  0  0  0
   37.3630   21.1680   30.9220 C   0  0  0  0  0  0  0  0  0  0  0  0
   38.0910   22.2200   30.5210 N   0  0  0  0  0  0  0  0  0  0  0  0
   38.0760   24.3780   30.3260 H   0  0  0  0  0  0  0  0  0  0  0  0
   34.5540   22.6670   31.9470 H   0  0  0  0  0  0  0  0  0  0  0  0
   37.8570   20.2060   30.8050 H   0  0  0  0  0  0  0  0  0  0  0  0
   35.7170   25.0290   31.2450 C   0  0  0  0  0  0  0  0  0  0  0  0
   34.7370   25.2510   30.5140 O   0  0  0  0  0  0  0  0  0  0  0  0
   36.2180   26.0510   32.0560 N   0  0  0  0  0  0  0  0  0  0  0  0
   35.8440   27.4360   31.8440 C   0  0  0  0  0  2  0  0  0  0  0  0
   37.2330   28.0860   31.8960 C   0  0  0  0  0  2  0  0  0  0  0  0
   37.7180   27.4770   33.2090 C   0  0  0  0  0  2  0  0  0  0  0  0
   37.1100   26.1120   33.1800 C   0  0  0  0  0  3  0  0  0  0  0  0
   36.5070   25.9480   34.1140 H   0  0  0  0  0  0  0  0  0  0  0  0
  1  2  1  0  0  0  0
  2 10  1  0  0  0  0
  2  3  2  0  0  0  0
  3  8  1  0  0  0  0
  4  3  1  0  0  0  0
  5  4  2  0  0  0  0
  6  1  2  0  0  0  0
  6  5  1  0  0  0  0
  7  1  1  0  0  0  0
  9  5  1  0  0  0  0
 10 12  1  0  0  0  0
 11 10  2  0  0  0  0
 12 16  1  0  0  0  0
 13 14  1  0  0  0  0
 13 12  1  0  0  0  0
 14 15  1  0  0  0  0
 16 15  1  0  0  0  0
 16 17  1  0  0  0  0
M  END
>  <minimizedAffinity>
-3.64695048

$$$$

 OpenBabel03262522093D

 17 18  0  0  0  0  0  0  0  0999 V2000
   39.5340   22.7170   36.1900 C   0  0  0  0  0  0  0  0  0  0  0  0
   38.5540   23.5690   35.5920 C   0  0  0  0  0  0  0  0  0  0  0  0
   37.7380   24.3120   36.4610 C   0  0  0  0  0  0  0  0  0  0  0  0
   37.9230   24.1810   37.7980 N   0  0  0  0  0  0  0  0  0  0  0  0
   38.8570   23.3690   38.3150 C   0  0  0  0  0  0  0  0  0  0  0  0
   39.6670   22.6330   37.5410 N   0  0  0  0  0  0  0  0  0  0  0  0
   40.1510   22.1550   35.4840 H   0  0  0  0  0  0  0  0  0  0  0  0
   37.0080   24.9470   36.0180 H   0  0  0  0  0  0  0  0  0  0  0  0
   39.0220   23.2490   39.3840 H   0  0  0  0  0  0  0  0  0  0  0  0
   38.4590   23.6180   34.1320 C   0  0  0  0  0  0  0  0  0  0  0  0
   39.1490   24.5040   33.6020 O   0  0  0  0  0  0  0  0  0  0  0  0
   37.6830   22.7760   33.3300 N   0  0  0  0  0  0  0  0  0  0  0  0
   37.4050   23.0990   31.9440 C   0  0  0  0  0  2  0  0  0  0  0  0
   35.8910   22.8490   31.9220 C   0  0  0  0  0  2  0  0  0  0  0  0
   35.8840   21.4530   32.5390 C   0  0  0  0  0  2  0  0  0  0  0  0
   37.0030   21.5270   33.5280 C   0  0  0  0  0  3  0  0  0  0  0  0
   37.7340   20.6960   33.3310 H   0  0  0  0  0  0  0  0  0  0  0  0
  1  6  1  0  0  0  0
  2  1  2  0  0  0  0
  2  3  1  0  0  0  0
  3  4  2  0  0  0  0
  4  5  1  0  0  0  0
  5  9  1  0  0  0  0
  6  5  2  0  0  0  0
  7  1  1  0  0  0  0
  8  3  1  0  0  0  0
 10  2  1  0  0  0  0
 11 10  2  0  0  0  0
 12 16  1  0  0  0  0
 12 10  1  0  0  0  0
 13 12  1  0  0  0  0
 14 13  1  0  0  0  0
 14 15  1  0  0  0  0
 15 16  1  0  0  0  0
 17 16  1  0  0  0  0
M  END
>  <minimizedAffinity>
-3.64389014

$$$$

 OpenBabel03262522093D

 17 18  0  0  0  0  0  0  0  0999 V2000
   35.6260   24.2170   30.9760 C   0  0  0  0  0  0  0  0  0  0  0  0
   36.6900   23.9970   31.9050 C   0  0  0  0  0  0  0  0  0  0  0  0
   37.1680   25.1170   32.6060 C   0  0  0  0  0  0  0  0  0  0  0  0
   36.6010   26.3250   32.3660 N   0  0  0  0  0  0  0  0  0  0  0  0
   35.6030   26.4850   31.4850 C   0  0  0  0  0  0  0  0  0  0  0  0
   35.1020   25.4580   30.7830 N   0  0  0  0  0  0  0  0  0  0  0  0
   35.2800   23.3240   30.4480 H   0  0  0  0  0  0  0  0  0  0  0  0
   37.9600   24.9540   33.2970 H   0  0  0  0  0  0  0  0  0  0  0  0
   35.1340   27.4440   31.2770 H   0  0  0  0  0  0  0  0  0  0  0  0
   37.2130   22.6390   32.0690 C   0  0  0  0  0  0  0  0  0  0  0  0
   38.4520   22.5600   32.0330 O   0  0  0  0  0  0  0  0  0  0  0  0
   36.4520   21.4810   32.2530 N   0  0  0  0  0  0  0  0  0  0  0  0
   37.0320   20.1620   32.0860 C   0  0  0  0  0  2  0  0  0  0  0  0
   35.9530   19.5190   31.2060 C   0  0  0  0  0  2  0  0  0  0  0  0
   34.7320   19.8650   32.0550 C   0  0  0  0  0  2  0  0  0  0  0  0
   35.0880   21.2070   32.6070 C   0  0  0  0  0  3  0  0  0  0  0  0
   35.0150   21.1840   33.7290 H   0  0  0  0  0  0  0  0  0  0  0  0
  1  2  1  0  0  0  0
  2 10  1  0  0  0  0
  2  3  2  0  0  0  0
  3  8  1  0  0  0  0
  4  3  1  0  0  0  0
  5  4  2  0  0  0  0
  6  1  2  0  0  0  0
  6  5  1  0  0  0  0
  7  1  1  0  0  0  0
  9  5  1  0  0  0  0
 10 12  1  0  0  0  0
 11 10  2  0  0  0  0
 12 16  1  0  0  0  0
 13 12  1  0  0  0  0
 14 15  1  0  0  0  0
 14 13  1  0  0  0  0
 15 16  1  0  0  0  0
 16 17  1  0  0  0  0
M  END
>  <minimizedAffinity>
-3.63525748

$$$$

 OpenBabel03262522093D

 17 18  0  0  0  0  0  0  0  0999 V2000
   36.5700   23.9970   31.9320 C   0  0  0  0  0  0  0  0  0  0  0  0
   37.2490   25.1690   32.3870 C   0  0  0  0  0  0  0  0  0  0  0  0
   36.6870   26.4080   32.0400 C   0  0  0  0  0  0  0  0  0  0  0  0
   35.5480   26.4230   31.3050 N   0  0  0  0  0  0  0  0  0  0  0  0
   34.9430   25.2970   30.9000 C   0  0  0  0  0  0  0  0  0  0  0  0
   35.4290   24.0830   31.1970 N   0  0  0  0  0  0  0  0  0  0  0  0
   37.0360   23.0500   32.2200 H   0  0  0  0  0  0  0  0  0  0  0  0
   37.1930   27.2820   32.3780 H   0  0  0  0  0  0  0  0  0  0  0  0
   34.0300   25.2850   30.3100 H   0  0  0  0  0  0  0  0  0  0  0  0
   38.4740   25.0130   33.1750 C   0  0  0  0  0  0  0  0  0  0  0  0
   39.4950   24.8030   32.4990 O   0  0  0  0  0  0  0  0  0  0  0  0
   38.5700   25.0790   34.5680 N   0  0  0  0  0  0  0  0  0  0  0  0
   39.7470   24.6000   35.2670 C   0  0  0  0  0  2  0  0  0  0  0  0
   39.0710   23.7640   36.3610 C   0  0  0  0  0  2  0  0  0  0  0  0
   38.0860   24.8130   36.8710 C   0  0  0  0  0  2  0  0  0  0  0  0
   37.7190   25.5500   35.6240 C   0  0  0  0  0  3  0  0  0  0  0  0
   37.9140   26.6480   35.7650 H   0  0  0  0  0  0  0  0  0  0  0  0
  1  7  1  0  0  0  0
  1  2  1  0  0  0  0
  2 10  1  0  0  0  0
  3  8  1  0  0  0  0
  3  2  2  0  0  0  0
  4  3  1  0  0  0  0
  5  6  1  0  0  0  0
  5  4  2  0  0  0  0
  6  1  2  0  0  0  0
  9  5  1  0  0  0  0
 10 12  1  0  0  0  0
 11 10  2  0  0  0  0
 12 13  1  0  0  0  0
 12 16  1  0  0  0  0
 13 14  1  0  0  0  0
 14 15  1  0  0  0  0
 16 17  1  0  0  0  0
 16 15  1  0  0  0  0
M  END
>  <minimizedAffinity>
-3.57714009

$$$$

 OpenBabel03262522093D

 17 18  0  0  0  0  0  0  0  0999 V2000
   36.7420   26.2890   32.0300 C   0  0  0  0  0  0  0  0  0  0  0  0
   37.2490   24.9950   32.3610 C   0  0  0  0  0  0  0  0  0  0  0  0
   36.5220   23.8860   31.8980 C   0  0  0  0  0  0  0  0  0  0  0  0
   35.3980   24.1030   31.1720 N   0  0  0  0  0  0  0  0  0  0  0  0
   34.9590   25.3360   30.8830 C   0  0  0  0  0  0  0  0  0  0  0  0
   35.6050   26.4360   31.2970 N   0  0  0  0  0  0  0  0  0  0  0  0
   37.3320   27.1290   32.4070 H   0  0  0  0  0  0  0  0  0  0  0  0
   36.8990   22.9220   32.1440 H   0  0  0  0  0  0  0  0  0  0  0  0
   34.0600   25.5330   30.3040 H   0  0  0  0  0  0  0  0  0  0  0  0
   38.4770   24.9010   33.1540 C   0  0  0  0  0  0  0  0  0  0  0  0
   39.5030   24.6950   32.4860 O   0  0  0  0  0  0  0  0  0  0  0  0
   38.5710   25.0220   34.5430 N   0  0  0  0  0  0  0  0  0  0  0  0
   39.7600   24.6010   35.2590 C   0  0  0  0  0  2  0  0  0  0  0  0
   39.1060   23.7880   36.3840 C   0  0  0  0  0  2  0  0  0  0  0  0
   38.0920   24.8280   36.8550 C   0  0  0  0  0  2  0  0  0  0  0  0
   37.7070   25.5090   35.5820 C   0  0  0  0  0  3  0  0  0  0  0  0
   37.8710   26.6160   35.6830 H   0  0  0  0  0  0  0  0  0  0  0  0
  1  2  1  0  0  0  0
  1  7  1  0  0  0  0
  2 10  1  0  0  0  0
  3  8  1  0  0  0  0
  3  2  2  0  0  0  0
  4  3  1  0  0  0  0
  5  4  2  0  0  0  0
  5  6  1  0  0  0  0
  6  1  2  0  0  0  0
  9  5  1  0  0  0  0
 10 12  1  0  0  0  0
 11 10  2  0  0  0  0
 12 13  1  0  0  0  0
 12 16  1  0  0  0  0
 13 14  1  0  0  0  0
 14 15  1  0  0  0  0
 16 17  1  0  0  0  0
 16 15  1  0  0  0  0
M  END
>  <minimizedAffinity>
-3.55245686

$$$$
