
 OpenBabel03272506363D

 20 21  0  0  1  0  0  0  0  0999 V2000
   37.8760   28.5620   50.8740 C   0  0  0  0  0  0  0  0  0  0  0  0
   38.4870   29.8170   50.6960 C   0  0  0  0  0  0  0  0  0  0  0  0
   37.6820   30.9220   50.4240 C   0  0  0  0  0  0  0  0  0  0  0  0
   36.3240   30.7260   50.3410 N   0  0  0  0  0  0  0  0  0  0  0  0
   35.7700   29.4980   50.5180 C   0  0  0  0  0  0  0  0  0  0  0  0
   36.5410   28.4280   50.7820 N   0  0  0  0  0  0  0  0  0  0  0  0
   33.9900   28.4010   49.3750 C   0  0  0  0  0  0  0  0  0  0  0  0
   34.7480   27.7600   48.5800 O   0  0  0  0  0  0  0  0  0  0  0  0
   34.3490   29.3310   50.4260 N   0  0  0  0  0  0  0  0  0  0  0  0
   39.5330   30.0090   50.7520 H   0  0  0  0  0  0  0  0  0  0  0  0
   38.0610   31.9030   50.2770 H   0  0  0  0  0  0  0  0  0  0  0  0
   32.9660   28.1360   49.1420 H   0  0  0  0  0  0  0  0  0  0  0  0
   33.5730   29.7450   50.9590 H   0  0  0  0  0  0  0  0  0  0  0  0
   38.7930   27.5740   51.1350 O   0  0  0  0  0  0  0  0  0  0  0  0
   38.0030   24.5770   51.0750 H   0  0  0  0  0  0  0  0  0  0  0  0
   38.7220   25.2980   50.9070 N   0  0  0  0  0  0  0  0  0  0  0  0
   40.0790   24.8520   50.9260 C   0  0  0  0  0  2  0  0  0  0  0  0
   40.8680   25.8420   51.7650 C   0  0  0  0  0  2  0  0  0  0  0  0
   39.7830   26.2120   52.7870 C   0  0  0  0  0  2  0  0  0  0  0  0
   38.6000   26.4020   51.8580 C   0  0  1  0  0  3  0  0  0  0  0  0
  1 14  1  0  0  0  0
  2 10  1  0  0  0  0
  2  1  2  0  0  0  0
  3  2  1  0  0  0  0
  4  3  2  0  0  0  0
  4  5  1  0  0  0  0
  5  6  2  0  0  0  0
  6  1  1  0  0  0  0
  7  9  1  0  0  0  0
  8  7  2  0  0  0  0
  9  5  1  0  0  0  0
  9 13  1  0  0  0  0
 11  3  1  0  0  0  0
 12  7  1  0  0  0  0
 16 17  1  0  0  0  0
 16 15  1  0  0  0  0
 16 20  1  0  0  0  0
 17 18  1  0  0  0  0
 18 19  1  0  0  0  0
 20 14  1  6  0  0  0
 20 19  1  0  0  0  0
M  END
>  <minimizedAffinity>
1.19900274

>  <minimizedRMSD>
2.1647594

$$$$
