
 OpenBabel03272503233D

 29 31  0  0  1  0  0  0  0  0999 V2000
   37.4260   30.9450   48.4610 N   0  0  0  0  0  0  0  0  0  0  0  0
   37.8480   31.8210   47.3900 C   0  0  1  0  0  0  0  0  0  0  0  0
   38.6350   32.8720   48.1760 C   0  0  0  0  0  0  0  0  0  0  0  0
   38.4320   32.5640   49.6490 C   0  0  0  0  0  0  0  0  0  0  0  0
   38.3680   31.0470   49.5560 C   0  0  0  0  0  0  0  0  0  0  0  0
   37.0060   32.3370   46.8900 H   0  0  0  0  0  0  0  0  0  0  0  0
   39.7220   32.6990   47.9870 H   0  0  0  0  0  0  0  0  0  0  0  0
   38.3200   33.8930   47.9160 H   0  0  0  0  0  0  0  0  0  0  0  0
   39.2660   32.9080   50.2610 H   0  0  0  0  0  0  0  0  0  0  0  0
   37.4800   32.9550   50.0350 H   0  0  0  0  0  0  0  0  0  0  0  0
   39.3660   30.6340   49.3350 H   0  0  0  0  0  0  0  0  0  0  0  0
   37.9540   30.6830   50.5070 H   0  0  0  0  0  0  0  0  0  0  0  0
   36.2640   30.1210   48.4210 C   0  0  0  0  0  0  0  0  0  0  0  0
   35.2780   30.3880   47.4920 C   0  0  0  0  0  0  0  0  0  0  0  0
   34.1380   29.6060   47.3950 C   0  0  0  0  0  0  0  0  0  0  0  0
   34.0610   28.5610   48.2770 N   0  0  0  0  0  0  0  0  0  0  0  0
   35.0300   28.3040   49.1850 C   0  0  0  0  0  0  0  0  0  0  0  0
   36.1500   29.0900   49.2640 N   0  0  0  0  0  0  0  0  0  0  0  0
   35.3560   31.2090   46.8110 H   0  0  0  0  0  0  0  0  0  0  0  0
   33.3670   29.8140   46.6680 H   0  0  0  0  0  0  0  0  0  0  0  0
   34.9120   27.4730   49.8490 H   0  0  0  0  0  0  0  0  0  0  0  0
   38.6410   31.1500   46.3520 C   0  0  0  0  0  0  0  0  0  0  0  0
   39.8740   31.1960   46.6150 O   0  0  0  0  0  0  0  0  0  0  0  0
   38.2600   30.4740   45.1250 N   0  0  0  0  0  0  0  0  0  0  0  0
   38.7690   29.4040   44.2880 C   0  0  0  0  0  0  0  0  0  0  0  0
   38.1730   29.5110   42.9290 C   0  0  0  0  0  0  0  0  0  0  0  0
   37.3700   30.7650   42.9610 C   0  0  0  0  0  0  0  0  0  0  0  0
   37.0240   30.8850   44.4310 C   0  0  0  0  0  0  0  0  0  0  0  0
   36.1930   30.1740   44.6220 H   0  0  0  0  0  0  0  0  0  0  0  0
  1  5  1  0  0  0  0
  2  6  1  6  0  0  0
  2  3  1  0  0  0  0
  2  1  1  0  0  0  0
  3  4  1  0  0  0  0
  4 10  1  0  0  0  0
  4  9  1  0  0  0  0
  5  4  1  0  0  0  0
  5 12  1  0  0  0  0
  7  3  1  0  0  0  0
  8  3  1  0  0  0  0
 11  5  1  0  0  0  0
 13  1  1  0  0  0  0
 13 18  1  0  0  0  0
 14 13  2  0  0  0  0
 15 14  1  0  0  0  0
 15 16  2  0  0  0  0
 16 17  1  0  0  0  0
 17 18  2  0  0  0  0
 17 21  1  0  0  0  0
 19 14  1  0  0  0  0
 20 15  1  0  0  0  0
 22 23  2  0  0  0  0
 22  2  1  0  0  0  0
 24 22  1  0  0  0  0
 25 24  1  0  0  0  0
 26 27  1  0  0  0  0
 26 25  1  0  0  0  0
 27 28  1  0  0  0  0
 28 29  1  0  0  0  0
 28 24  1  0  0  0  0
M  END
>  <minimizedAffinity>
-5.01518917

>  <minimizedRMSD>
1.89292395

$$$$
