
 OpenBabel03272509303D

 35 37  0  0  1  0  0  0  0  0999 V2000
   36.3700   30.7000   49.0220 C   0  0  2  0  0  0  0  0  0  0  0  0
   37.3140   31.5210   49.8410 C   0  0  0  0  0  0  0  0  0  0  0  0
   38.1310   30.6950   50.8120 C   0  0  0  0  0  0  0  0  0  0  0  0
   37.2260   29.8770   51.7260 C   0  0  0  0  0  0  0  0  0  0  0  0
   35.9780   29.3640   51.0550 C   0  0  0  0  0  0  0  0  0  0  0  0
   36.2460   29.3020   49.5390 C   0  0  1  0  0  0  0  0  0  0  0  0
   35.3150   31.1180   48.9920 H   0  0  0  0  0  0  0  0  0  0  0  0
   36.6360   32.1410   50.5210 H   0  0  0  0  0  0  0  0  0  0  0  0
   37.9140   32.2450   49.3250 H   0  0  0  0  0  0  0  0  0  0  0  0
   38.6820   31.4040   51.4540 H   0  0  0  0  0  0  0  0  0  0  0  0
   38.8250   30.0020   50.3330 H   0  0  0  0  0  0  0  0  0  0  0  0
   36.9690   30.4540   52.6470 H   0  0  0  0  0  0  0  0  0  0  0  0
   37.7820   28.9810   52.0730 H   0  0  0  0  0  0  0  0  0  0  0  0
   35.7510   28.3130   51.3550 H   0  0  0  0  0  0  0  0  0  0  0  0
   35.0810   29.9580   51.2740 H   0  0  0  0  0  0  0  0  0  0  0  0
   37.1820   28.8020   49.5310 H   0  0  0  0  0  0  0  0  0  0  0  0
   33.9620   28.3290   49.0160 C   0  0  0  0  0  0  0  0  0  0  0  0
   33.1410   28.9740   49.7360 O   0  0  0  0  0  0  0  0  0  0  0  0
   35.3600   28.4720   48.8100 N   0  0  0  0  0  0  0  0  0  0  0  0
   35.7290   27.8670   48.0060 H   0  0  0  0  0  0  0  0  0  0  0  0
   33.2700   27.2880   48.3170 N   0  0  0  0  0  0  0  0  0  0  0  0
   31.8920   26.8610   48.2820 C   0  0  0  0  0  2  0  0  0  0  0  0
   31.4780   26.7320   46.8370 C   0  0  0  0  0  2  0  0  0  0  0  0
   32.7900   26.3490   46.1900 C   0  0  0  0  0  2  0  0  0  0  0  0
   33.6860   26.2690   47.3820 C   0  0  0  0  0  3  0  0  0  0  0  0
   34.7530   26.4640   47.1460 H   0  0  0  0  0  0  0  0  0  0  0  0
   36.7960   30.6450   47.6010 C   0  0  0  0  0  0  0  0  0  0  0  0
   38.1610   30.8390   47.3690 C   0  0  0  0  0  0  0  0  0  0  0  0
   38.5970   30.7900   46.0410 C   0  0  0  0  0  0  0  0  0  0  0  0
   37.6660   30.5560   45.0520 N   0  0  0  0  0  0  0  0  0  0  0  0
   36.3390   30.3720   45.3300 C   0  0  0  0  0  0  0  0  0  0  0  0
   35.9260   30.4200   46.6070 N   0  0  0  0  0  0  0  0  0  0  0  0
   38.9930   31.0170   48.0210 H   0  0  0  0  0  0  0  0  0  0  0  0
   39.6060   30.9180   45.7020 H   0  0  0  0  0  0  0  0  0  0  0  0
   35.7290   30.2000   44.4730 H   0  0  0  0  0  0  0  0  0  0  0  0
  1  7  1  1  0  0  0
  1  6  1  0  0  0  0
  1  2  1  0  0  0  0
  2  8  1  0  0  0  0
  2  3  1  0  0  0  0
  3 10  1  0  0  0  0
  3  4  1  0  0  0  0
  4 13  1  0  0  0  0
  4 12  1  0  0  0  0
  5 15  1  0  0  0  0
  5 14  1  0  0  0  0
  5  4  1  0  0  0  0
  6 16  1  6  0  0  0
  6  5  1  0  0  0  0
  9  2  1  0  0  0  0
 11  3  1  0  0  0  0
 17 18  2  0  0  0  0
 19 17  1  0  0  0  0
 19  6  1  0  0  0  0
 20 19  1  0  0  0  0
 21 17  1  0  0  0  0
 22 21  1  0  0  0  0
 23 22  1  0  0  0  0
 24 23  1  0  0  0  0
 24 25  1  0  0  0  0
 25 21  1  0  0  0  0
 26 25  1  0  0  0  0
 27  1  1  0  0  0  0
 28 27  1  0  0  0  0
 28 33  1  0  0  0  0
 29 28  2  0  0  0  0
 30 31  2  0  0  0  0
 30 29  1  0  0  0  0
 31 32  1  0  0  0  0
 32 27  2  0  0  0  0
 34 29  1  0  0  0  0
 35 31  1  0  0  0  0
M  END
>  <minimizedAffinity>
-5.95329094

>  <minimizedRMSD>
0.535937607

$$$$
