
 OpenBabel03272506363D

 20 21  0  0  1  0  0  0  0  0999 V2000
   36.6550   30.9270   47.5300 C   0  0  0  0  0  0  0  0  0  0  0  0
   37.6920   31.8000   47.1500 C   0  0  0  0  0  0  0  0  0  0  0  0
   37.6900   32.3220   45.8590 C   0  0  0  0  0  0  0  0  0  0  0  0
   36.6670   31.9550   45.0150 N   0  0  0  0  0  0  0  0  0  0  0  0
   35.6830   31.1100   45.4180 C   0  0  0  0  0  0  0  0  0  0  0  0
   35.6790   30.6020   46.6640 N   0  0  0  0  0  0  0  0  0  0  0  0
   34.5930   29.3190   44.2850 C   0  0  0  0  0  0  0  0  0  0  0  0
   35.3400   28.4110   44.7680 O   0  0  0  0  0  0  0  0  0  0  0  0
   34.6320   30.7480   44.5130 N   0  0  0  0  0  0  0  0  0  0  0  0
   38.5000   32.1070   47.7730 H   0  0  0  0  0  0  0  0  0  0  0  0
   38.4330   32.9870   45.4910 H   0  0  0  0  0  0  0  0  0  0  0  0
   33.8720   28.8410   43.6320 H   0  0  0  0  0  0  0  0  0  0  0  0
   33.9280   31.3130   44.0170 H   0  0  0  0  0  0  0  0  0  0  0  0
   36.7920   30.4970   48.8260 O   0  0  0  0  0  0  0  0  0  0  0  0
   37.2510   27.6220   49.8910 H   0  0  0  0  0  0  0  0  0  0  0  0
   37.3330   28.6390   50.0480 N   0  0  0  0  0  0  0  0  0  0  0  0
   37.4060   29.0640   51.4100 C   0  0  0  0  0  2  0  0  0  0  0  0
   36.4540   30.2370   51.5680 C   0  0  0  0  0  2  0  0  0  0  0  0
   35.3670   29.8030   50.5740 C   0  0  0  0  0  2  0  0  0  0  0  0
   36.2350   29.3650   49.4110 C   0  0  1  0  0  3  0  0  0  0  0  0
  1 14  1  0  0  0  0
  2  1  1  0  0  0  0
  2 10  1  0  0  0  0
  3  2  2  0  0  0  0
  4  5  2  0  0  0  0
  4  3  1  0  0  0  0
  5  6  1  0  0  0  0
  6  1  2  0  0  0  0
  7  9  1  0  0  0  0
  7  8  2  0  0  0  0
  9  5  1  0  0  0  0
 11  3  1  0  0  0  0
 12  7  1  0  0  0  0
 13  9  1  0  0  0  0
 15 16  1  0  0  0  0
 16 17  1  0  0  0  0
 17 18  1  0  0  0  0
 19 18  1  0  0  0  0
 20 14  1  1  0  0  0
 20 16  1  0  0  0  0
 20 19  1  0  0  0  0
M  END
>  <minimizedAffinity>
-0.92366302

>  <minimizedRMSD>
4.10814619

$$$$
