
 OpenBabel03272509293D

 35 37  0  0  1  0  0  0  0  0999 V2000
   36.5410   30.8450   48.8640 C   0  0  2  0  0  0  0  0  0  0  0  0
   37.4290   31.5690   49.8250 C   0  0  0  0  0  0  0  0  0  0  0  0
   38.0840   30.6520   50.8350 C   0  0  0  0  0  0  0  0  0  0  0  0
   37.0390   29.8460   51.5970 C   0  0  0  0  0  0  0  0  0  0  0  0
   35.8490   29.4400   50.7650 C   0  0  0  0  0  0  0  0  0  0  0  0
   36.2840   29.4350   49.2880 C   0  0  1  0  0  0  0  0  0  0  0  0
   35.5200   31.3270   48.7390 H   0  0  0  0  0  0  0  0  0  0  0  0
   36.7120   32.1950   50.4580 H   0  0  0  0  0  0  0  0  0  0  0  0
   38.1210   32.2810   49.4180 H   0  0  0  0  0  0  0  0  0  0  0  0
   38.5960   31.2950   51.5710 H   0  0  0  0  0  0  0  0  0  0  0  0
   38.7900   29.9420   50.3990 H   0  0  0  0  0  0  0  0  0  0  0  0
   36.7100   30.3930   52.5140 H   0  0  0  0  0  0  0  0  0  0  0  0
   37.5030   28.9030   51.9560 H   0  0  0  0  0  0  0  0  0  0  0  0
   35.5340   28.3910   50.9820 H   0  0  0  0  0  0  0  0  0  0  0  0
   34.9670   30.0750   50.9160 H   0  0  0  0  0  0  0  0  0  0  0  0
   37.1870   28.8810   49.3560 H   0  0  0  0  0  0  0  0  0  0  0  0
   34.1100   28.2790   48.6770 C   0  0  0  0  0  0  0  0  0  0  0  0
   33.2940   28.5710   49.6030 O   0  0  0  0  0  0  0  0  0  0  0  0
   35.4440   28.6940   48.4210 N   0  0  0  0  0  0  0  0  0  0  0  0
   35.8000   28.3900   47.4570 H   0  0  0  0  0  0  0  0  0  0  0  0
   33.4920   27.3610   47.7680 N   0  0  0  0  0  0  0  0  0  0  0  0
   32.4920   27.5030   46.7380 C   0  0  0  0  0  2  0  0  0  0  0  0
   33.0090   26.8360   45.4870 C   0  0  0  0  0  2  0  0  0  0  0  0
   33.8680   25.7400   46.0740 C   0  0  0  0  0  2  0  0  0  0  0  0
   33.6350   25.9430   47.5360 C   0  0  0  0  0  3  0  0  0  0  0  0
   34.4750   25.5950   48.1700 H   0  0  0  0  0  0  0  0  0  0  0  0
   37.1230   30.8330   47.4970 C   0  0  0  0  0  0  0  0  0  0  0  0
   38.4960   31.0840   47.4200 C   0  0  0  0  0  0  0  0  0  0  0  0
   39.0770   31.0760   46.1480 C   0  0  0  0  0  0  0  0  0  0  0  0
   38.2700   30.8240   45.0600 N   0  0  0  0  0  0  0  0  0  0  0  0
   36.9290   30.5830   45.1870 C   0  0  0  0  0  0  0  0  0  0  0  0
   36.3770   30.5920   46.4110 N   0  0  0  0  0  0  0  0  0  0  0  0
   39.2430   31.2840   48.1630 H   0  0  0  0  0  0  0  0  0  0  0  0
   40.1110   31.2510   45.9250 H   0  0  0  0  0  0  0  0  0  0  0  0
   36.4250   30.4020   44.2650 H   0  0  0  0  0  0  0  0  0  0  0  0
  1  7  1  6  0  0  0
  1  6  1  0  0  0  0
  1  2  1  0  0  0  0
  2  8  1  0  0  0  0
  2  3  1  0  0  0  0
  3 10  1  0  0  0  0
  3  4  1  0  0  0  0
  4 13  1  0  0  0  0
  4 12  1  0  0  0  0
  5 15  1  0  0  0  0
  5 14  1  0  0  0  0
  5  4  1  0  0  0  0
  6 16  1  6  0  0  0
  6  5  1  0  0  0  0
  9  2  1  0  0  0  0
 11  3  1  0  0  0  0
 17 18  2  0  0  0  0
 19 17  1  0  0  0  0
 19  6  1  0  0  0  0
 20 19  1  0  0  0  0
 21 17  1  0  0  0  0
 22 21  1  0  0  0  0
 23 24  1  0  0  0  0
 23 22  1  0  0  0  0
 24 25  1  0  0  0  0
 25 21  1  0  0  0  0
 25 26  1  0  0  0  0
 27  1  1  0  0  0  0
 28 27  1  0  0  0  0
 28 33  1  0  0  0  0
 29 28  2  0  0  0  0
 30 31  2  0  0  0  0
 30 29  1  0  0  0  0
 31 32  1  0  0  0  0
 32 27  2  0  0  0  0
 34 29  1  0  0  0  0
 35 31  1  0  0  0  0
M  END
>  <minimizedAffinity>
-5.99154568

>  <minimizedRMSD>
1.06727624

$$$$
