
 OpenBabel03272509303D

 35 37  0  0  1  0  0  0  0  0999 V2000
   36.4460   30.7620   48.8800 C   0  0  2  0  0  0  0  0  0  0  0  0
   37.3520   31.5230   49.7950 C   0  0  0  0  0  0  0  0  0  0  0  0
   38.0580   30.6390   50.8000 C   0  0  0  0  0  0  0  0  0  0  0  0
   37.0550   29.8310   51.6150 C   0  0  0  0  0  0  0  0  0  0  0  0
   35.8460   29.3860   50.8340 C   0  0  0  0  0  0  0  0  0  0  0  0
   36.2300   29.3570   49.3420 C   0  0  1  0  0  0  0  0  0  0  0  0
   35.4120   31.2220   48.7810 H   0  0  0  0  0  0  0  0  0  0  0  0
   36.6450   32.1490   50.4390 H   0  0  0  0  0  0  0  0  0  0  0  0
   38.0160   32.2370   49.3500 H   0  0  0  0  0  0  0  0  0  0  0  0
   38.5830   31.3080   51.5050 H   0  0  0  0  0  0  0  0  0  0  0  0
   38.7620   29.9330   50.3550 H   0  0  0  0  0  0  0  0  0  0  0  0
   36.7480   30.3910   52.5310 H   0  0  0  0  0  0  0  0  0  0  0  0
   37.5490   28.9050   51.9770 H   0  0  0  0  0  0  0  0  0  0  0  0
   35.5580   28.3360   51.0820 H   0  0  0  0  0  0  0  0  0  0  0  0
   34.9570   30.0080   51.0010 H   0  0  0  0  0  0  0  0  0  0  0  0
   37.1460   28.8210   49.3910 H   0  0  0  0  0  0  0  0  0  0  0  0
   34.0140   28.2610   48.7710 C   0  0  0  0  0  0  0  0  0  0  0  0
   33.1900   28.6800   49.6400 O   0  0  0  0  0  0  0  0  0  0  0  0
   35.3750   28.5820   48.5210 N   0  0  0  0  0  0  0  0  0  0  0  0
   35.7400   28.1710   47.6010 H   0  0  0  0  0  0  0  0  0  0  0  0
   33.3730   27.2960   47.9310 N   0  0  0  0  0  0  0  0  0  0  0  0
   33.8600   26.3150   46.9910 C   0  0  0  0  0  2  0  0  0  0  0  0
   33.2050   24.9940   47.3100 C   0  0  0  0  0  2  0  0  0  0  0  0
   31.8760   25.4540   47.8650 C   0  0  0  0  0  2  0  0  0  0  0  0
   31.9920   26.9350   47.7040 C   0  0  0  0  0  3  0  0  0  0  0  0
   31.3840   27.5070   48.4320 H   0  0  0  0  0  0  0  0  0  0  0  0
   36.9800   30.7310   47.4950 C   0  0  0  0  0  0  0  0  0  0  0  0
   38.3560   30.9460   47.3710 C   0  0  0  0  0  0  0  0  0  0  0  0
   38.8930   30.9200   46.0800 C   0  0  0  0  0  0  0  0  0  0  0  0
   38.0440   30.6850   45.0200 N   0  0  0  0  0  0  0  0  0  0  0  0
   36.7020   30.4790   45.1930 C   0  0  0  0  0  0  0  0  0  0  0  0
   36.1920   30.5070   46.4350 N   0  0  0  0  0  0  0  0  0  0  0  0
   39.1330   31.1280   48.0870 H   0  0  0  0  0  0  0  0  0  0  0  0
   39.9230   31.0670   45.8210 H   0  0  0  0  0  0  0  0  0  0  0  0
   36.1630   30.3100   44.2900 H   0  0  0  0  0  0  0  0  0  0  0  0
  1  7  1  6  0  0  0
  1  6  1  0  0  0  0
  1  2  1  0  0  0  0
  2  8  1  0  0  0  0
  2  3  1  0  0  0  0
  3 10  1  0  0  0  0
  3  4  1  0  0  0  0
  4 13  1  0  0  0  0
  4 12  1  0  0  0  0
  5 15  1  0  0  0  0
  5 14  1  0  0  0  0
  5  4  1  0  0  0  0
  6 16  1  6  0  0  0
  6  5  1  0  0  0  0
  9  2  1  0  0  0  0
 11  3  1  0  0  0  0
 17 18  2  0  0  0  0
 19 17  1  0  0  0  0
 19  6  1  0  0  0  0
 20 19  1  0  0  0  0
 21 17  1  0  0  0  0
 22 23  1  0  0  0  0
 22 21  1  0  0  0  0
 23 24  1  0  0  0  0
 25 24  1  0  0  0  0
 25 21  1  0  0  0  0
 25 26  1  0  0  0  0
 27  1  1  0  0  0  0
 28 27  1  0  0  0  0
 28 33  1  0  0  0  0
 29 28  2  0  0  0  0
 30 31  2  0  0  0  0
 30 29  1  0  0  0  0
 31 32  1  0  0  0  0
 32 27  2  0  0  0  0
 34 29  1  0  0  0  0
 35 31  1  0  0  0  0
M  END
>  <minimizedAffinity>
-6.12449455

>  <minimizedRMSD>
0.859655321

$$$$
