
 OpenBabel03272507433D

 38 41  0  0  0  0  0  0  0  0999 V2000
   37.0200   27.9900   32.5430 C   0  0  0  0  0  0  0  0  0  0  0  0
   37.9580   27.4640   31.6750 C   0  0  0  0  0  0  0  0  0  0  0  0
   38.0960   27.9560   30.3880 C   0  0  0  0  0  0  0  0  0  0  0  0
   37.2740   28.9990   29.9660 C   0  0  0  0  0  0  0  0  0  0  0  0
   36.3310   29.5320   30.8330 C   0  0  0  0  0  0  0  0  0  0  0  0
   36.2380   29.0030   32.1020 C   0  0  0  0  0  0  0  0  0  0  0  0
   38.8080   27.5850   29.6710 H   0  0  0  0  0  0  0  0  0  0  0  0
   37.3630   29.4010   28.9650 H   0  0  0  0  0  0  0  0  0  0  0  0
   35.7230   30.3350   30.4590 H   0  0  0  0  0  0  0  0  0  0  0  0
   35.2190   29.5870   33.0230 C   0  0  0  0  0  0  0  0  0  0  0  0
   35.3400   30.6040   33.9210 C   0  0  0  0  0  0  0  0  0  0  0  0
   34.1080   30.7670   34.5320 C   0  0  0  0  0  0  0  0  0  0  0  0
   33.2920   29.8090   33.9480 C   0  0  0  0  0  0  0  0  0  0  0  0
   33.9800   29.1230   33.0560 O   0  0  0  0  0  0  0  0  0  0  0  0
   36.2440   31.1620   34.1020 H   0  0  0  0  0  0  0  0  0  0  0  0
   33.8340   31.4840   35.3000 H   0  0  0  0  0  0  0  0  0  0  0  0
   32.2380   29.6360   34.1810 H   0  0  0  0  0  0  0  0  0  0  0  0
   36.8830   26.9530   34.8900 N   0  0  0  0  0  0  0  0  0  0  0  0
   36.9480   27.4260   33.8420 C   0  0  0  0  0  0  0  0  0  0  0  0
   38.8390   26.4260   31.9620 O   0  0  0  0  0  0  0  0  0  0  0  0
   38.6850   25.1510   31.5330 C   0  0  0  0  0  0  0  0  0  0  0  0
   38.6840   24.2390   32.6050 C   0  0  0  0  0  0  0  0  0  0  0  0
   38.5380   22.8840   32.3680 C   0  0  0  0  0  0  0  0  0  0  0  0
   38.3960   22.4850   31.0740 N   0  0  0  0  0  0  0  0  0  0  0  0
   38.3990   23.3860   30.0530 C   0  0  0  0  0  0  0  0  0  0  0  0
   38.5400   24.6740   30.2950 N   0  0  0  0  0  0  0  0  0  0  0  0
   38.5280   22.1330   33.1390 H   0  0  0  0  0  0  0  0  0  0  0  0
   38.2810   22.9710   29.0620 H   0  0  0  0  0  0  0  0  0  0  0  0
   38.6970   23.5360   34.9300 C   0  0  0  0  0  0  0  0  0  0  0  0
   38.3370   22.2850   34.8950 O   0  0  0  0  0  0  0  0  0  0  0  0
   38.8250   24.5670   33.9650 N   0  0  0  0  0  0  0  0  0  0  0  0
   39.0180   25.4920   34.4110 H   0  0  0  0  0  0  0  0  0  0  0  0
   38.9740   23.6850   36.3220 N   0  0  0  0  0  0  0  0  0  0  0  0
   38.5000   24.8420   37.0580 C   0  0  0  0  0  2  0  0  0  0  0  0
   37.7450   24.1460   38.1960 C   0  0  0  0  0  2  0  0  0  0  0  0
   38.7880   23.1380   38.6340 C   0  0  0  0  0  2  0  0  0  0  0  0
   39.6670   22.9760   37.4080 C   0  0  0  0  0  3  0  0  0  0  0  0
   39.8340   21.9160   37.1600 H   0  0  0  0  0  0  0  0  0  0  0  0
  1 19  1  0  0  0  0
  2 20  1  0  0  0  0
  2  1  2  0  0  0  0
  3  2  1  0  0  0  0
  4  3  2  0  0  0  0
  4  5  1  0  0  0  0
  5  6  2  0  0  0  0
  6  1  1  0  0  0  0
  6 10  1  0  0  0  0
  7  3  1  0  0  0  0
  8  4  1  0  0  0  0
  9  5  1  0  0  0  0
 10 14  1  0  0  0  0
 10 11  2  0  0  0  0
 11 15  1  0  0  0  0
 11 12  1  0  0  0  0
 12 16  1  0  0  0  0
 13 17  1  0  0  0  0
 13 12  2  0  0  0  0
 14 13  1  0  0  0  0
 19 18  3  0  0  0  0
 21 20  1  0  0  0  0
 21 22  1  0  0  0  0
 22 31  1  0  0  0  0
 23 22  2  0  0  0  0
 23 27  1  0  0  0  0
 24 23  1  0  0  0  0
 25 26  1  0  0  0  0
 25 24  2  0  0  0  0
 26 21  2  0  0  0  0
 28 25  1  0  0  0  0
 29 33  1  0  0  0  0
 30 29  2  0  0  0  0
 31 32  1  0  0  0  0
 31 29  1  0  0  0  0
 33 34  1  0  0  0  0
 33 37  1  0  0  0  0
 34 35  1  0  0  0  0
 35 36  1  0  0  0  0
 37 36  1  0  0  0  0
 38 37  1  0  0  0  0
M  END
>  <minimizedAffinity>
-5.63029146

$$$$

 OpenBabel03272507433D

 38 41  0  0  0  0  0  0  0  0999 V2000
   38.1180   25.2460   34.2070 C   0  0  0  0  0  0  0  0  0  0  0  0
   37.4760   26.3160   33.6120 C   0  0  0  0  0  0  0  0  0  0  0  0
   37.3270   27.5210   34.2800 C   0  0  0  0  0  0  0  0  0  0  0  0
   37.8360   27.6520   35.5710 C   0  0  0  0  0  0  0  0  0  0  0  0
   38.4820   26.5820   36.1730 C   0  0  0  0  0  0  0  0  0  0  0  0
   38.6000   25.4070   35.4620 C   0  0  0  0  0  0  0  0  0  0  0  0
   36.8370   28.3850   33.8660 H   0  0  0  0  0  0  0  0  0  0  0  0
   37.7320   28.5830   36.1120 H   0  0  0  0  0  0  0  0  0  0  0  0
   38.8560   26.7340   37.1680 H   0  0  0  0  0  0  0  0  0  0  0  0
   39.2980   24.2650   36.1220 C   0  0  0  0  0  0  0  0  0  0  0  0
   38.8610   23.4290   37.1040 C   0  0  0  0  0  0  0  0  0  0  0  0
   39.8820   22.5320   37.3720 C   0  0  0  0  0  0  0  0  0  0  0  0
   40.9060   22.8920   36.5090 C   0  0  0  0  0  0  0  0  0  0  0  0
   40.5300   23.9250   35.7790 O   0  0  0  0  0  0  0  0  0  0  0  0
   37.8910   23.4800   37.5700 H   0  0  0  0  0  0  0  0  0  0  0  0
   39.8880   21.7230   38.0970 H   0  0  0  0  0  0  0  0  0  0  0  0
   41.8830   22.4050   36.4330 H   0  0  0  0  0  0  0  0  0  0  0  0
   38.3010   23.0870   32.8270 N   0  0  0  0  0  0  0  0  0  0  0  0
   38.2250   24.0510   33.4520 C   0  0  0  0  0  0  0  0  0  0  0  0
   36.9220   26.3250   32.3360 O   0  0  0  0  0  0  0  0  0  0  0  0
   37.5040   26.8920   31.2540 C   0  0  0  0  0  0  0  0  0  0  0  0
   36.6900   27.8920   30.6890 C   0  0  0  0  0  0  0  0  0  0  0  0
   37.1130   28.5880   29.5720 C   0  0  0  0  0  0  0  0  0  0  0  0
   38.3310   28.2660   29.0560 N   0  0  0  0  0  0  0  0  0  0  0  0
   39.1020   27.2950   29.6190 C   0  0  0  0  0  0  0  0  0  0  0  0
   38.6840   26.6400   30.6840 N   0  0  0  0  0  0  0  0  0  0  0  0
   36.5430   29.3640   29.0910 H   0  0  0  0  0  0  0  0  0  0  0  0
   40.0520   27.1130   29.1360 H   0  0  0  0  0  0  0  0  0  0  0  0
   35.3170   29.4850   31.9060 C   0  0  0  0  0  0  0  0  0  0  0  0
   36.1680   30.3290   32.4130 O   0  0  0  0  0  0  0  0  0  0  0  0
   35.4230   28.2840   31.1590 N   0  0  0  0  0  0  0  0  0  0  0  0
   34.4960   27.8150   31.0460 H   0  0  0  0  0  0  0  0  0  0  0  0
   34.0870   30.0890   32.3030 N   0  0  0  0  0  0  0  0  0  0  0  0
   33.0110   29.2940   32.8640 C   0  0  0  0  0  2  0  0  0  0  0  0
   32.7740   30.0500   34.1760 C   0  0  0  0  0  2  0  0  0  0  0  0
   32.6960   31.4710   33.6570 C   0  0  0  0  0  2  0  0  0  0  0  0
   33.4520   31.4150   32.3430 C   0  0  0  0  0  3  0  0  0  0  0  0
   34.1950   32.2240   32.2630 H   0  0  0  0  0  0  0  0  0  0  0  0
  1  6  1  0  0  0  0
  2  1  2  0  0  0  0
  2  3  1  0  0  0  0
  3  4  2  0  0  0  0
  4  8  1  0  0  0  0
  4  5  1  0  0  0  0
  5  9  1  0  0  0  0
  6 10  1  0  0  0  0
  6  5  2  0  0  0  0
  7  3  1  0  0  0  0
 10 11  2  0  0  0  0
 11 12  1  0  0  0  0
 11 15  1  0  0  0  0
 12 16  1  0  0  0  0
 13 12  2  0  0  0  0
 14 10  1  0  0  0  0
 14 13  1  0  0  0  0
 17 13  1  0  0  0  0
 18 19  3  0  0  0  0
 19  1  1  0  0  0  0
 20  2  1  0  0  0  0
 21 20  1  0  0  0  0
 22 31  1  0  0  0  0
 22 21  1  0  0  0  0
 23 22  2  0  0  0  0
 24 23  1  0  0  0  0
 24 25  2  0  0  0  0
 25 26  1  0  0  0  0
 26 21  2  0  0  0  0
 27 23  1  0  0  0  0
 28 25  1  0  0  0  0
 29 33  1  0  0  0  0
 29 30  2  0  0  0  0
 31 29  1  0  0  0  0
 32 31  1  0  0  0  0
 33 37  1  0  0  0  0
 33 34  1  0  0  0  0
 34 35  1  0  0  0  0
 36 35  1  0  0  0  0
 37 36  1  0  0  0  0
 38 37  1  0  0  0  0
M  END
>  <minimizedAffinity>
-5.56111336

$$$$

 OpenBabel03272507433D

 38 41  0  0  0  0  0  0  0  0999 V2000
   33.7370   30.3030   34.7930 C   0  0  0  0  0  0  0  0  0  0  0  0
   35.0310   29.8440   34.6400 C   0  0  0  0  0  0  0  0  0  0  0  0
   36.0990   30.5080   35.2230 C   0  0  0  0  0  0  0  0  0  0  0  0
   35.8580   31.6560   35.9750 C   0  0  0  0  0  0  0  0  0  0  0  0
   34.5610   32.1210   36.1330 C   0  0  0  0  0  0  0  0  0  0  0  0
   33.5380   31.4220   35.5310 C   0  0  0  0  0  0  0  0  0  0  0  0
   37.1260   30.1960   35.1360 H   0  0  0  0  0  0  0  0  0  0  0  0
   36.6750   32.1910   36.4400 H   0  0  0  0  0  0  0  0  0  0  0  0
   34.4300   33.0090   36.7220 H   0  0  0  0  0  0  0  0  0  0  0  0
   32.1480   31.9340   35.7100 C   0  0  0  0  0  0  0  0  0  0  0  0
   31.2160   31.6100   36.6480 C   0  0  0  0  0  0  0  0  0  0  0  0
   30.0830   32.3610   36.3850 C   0  0  0  0  0  0  0  0  0  0  0  0
   30.4090   33.1180   35.2690 C   0  0  0  0  0  0  0  0  0  0  0  0
   31.6420   32.8420   34.8900 O   0  0  0  0  0  0  0  0  0  0  0  0
   31.3610   30.8940   37.4400 H   0  0  0  0  0  0  0  0  0  0  0  0
   29.1420   32.3640   36.9290 H   0  0  0  0  0  0  0  0  0  0  0  0
   29.7550   33.8370   34.7680 H   0  0  0  0  0  0  0  0  0  0  0  0
   31.8610   28.9750   33.6460 N   0  0  0  0  0  0  0  0  0  0  0  0
   32.7060   29.5620   34.1620 C   0  0  0  0  0  0  0  0  0  0  0  0
   35.4150   28.7180   33.9190 O   0  0  0  0  0  0  0  0  0  0  0  0
   36.0140   28.7540   32.7060 C   0  0  0  0  0  0  0  0  0  0  0  0
   37.2120   28.0140   32.6960 C   0  0  0  0  0  0  0  0  0  0  0  0
   37.9710   27.9310   31.5430 C   0  0  0  0  0  0  0  0  0  0  0  0
   37.5120   28.5850   30.4410 N   0  0  0  0  0  0  0  0  0  0  0  0
   36.3500   29.2940   30.4740 C   0  0  0  0  0  0  0  0  0  0  0  0
   35.6380   29.3640   31.5810 N   0  0  0  0  0  0  0  0  0  0  0  0
   38.8950   27.3840   31.4650 H   0  0  0  0  0  0  0  0  0  0  0  0
   36.0700   29.7780   29.5480 H   0  0  0  0  0  0  0  0  0  0  0  0
   37.6500   25.8980   33.8060 C   0  0  0  0  0  0  0  0  0  0  0  0
   37.0300   25.0130   33.0790 O   0  0  0  0  0  0  0  0  0  0  0  0
   37.7550   27.3120   33.7880 N   0  0  0  0  0  0  0  0  0  0  0  0
   38.2490   27.6750   34.6340 H   0  0  0  0  0  0  0  0  0  0  0  0
   38.2900   25.0480   34.7560 N   0  0  0  0  0  0  0  0  0  0  0  0
   38.2770   25.3660   36.1710 C   0  0  0  0  0  2  0  0  0  0  0  0
   37.6960   24.0640   36.7340 C   0  0  0  0  0  2  0  0  0  0  0  0
   38.5720   23.0500   36.0250 C   0  0  0  0  0  2  0  0  0  0  0  0
   39.0610   23.7960   34.7980 C   0  0  0  0  0  3  0  0  0  0  0  0
   38.9260   23.2050   33.8780 H   0  0  0  0  0  0  0  0  0  0  0  0
  1  6  1  0  0  0  0
  2  1  2  0  0  0  0
  2  3  1  0  0  0  0
  3  4  2  0  0  0  0
  4  5  1  0  0  0  0
  4  8  1  0  0  0  0
  5  9  1  0  0  0  0
  6 10  1  0  0  0  0
  6  5  2  0  0  0  0
  7  3  1  0  0  0  0
 10 11  2  0  0  0  0
 11 15  1  0  0  0  0
 12 11  1  0  0  0  0
 12 16  1  0  0  0  0
 13 12  2  0  0  0  0
 14 13  1  0  0  0  0
 14 10  1  0  0  0  0
 17 13  1  0  0  0  0
 18 19  3  0  0  0  0
 19  1  1  0  0  0  0
 20  2  1  0  0  0  0
 21 20  1  0  0  0  0
 22 21  1  0  0  0  0
 22 31  1  0  0  0  0
 23 22  2  0  0  0  0
 24 25  2  0  0  0  0
 24 23  1  0  0  0  0
 25 26  1  0  0  0  0
 26 21  2  0  0  0  0
 27 23  1  0  0  0  0
 28 25  1  0  0  0  0
 29 33  1  0  0  0  0
 30 29  2  0  0  0  0
 31 29  1  0  0  0  0
 31 32  1  0  0  0  0
 33 37  1  0  0  0  0
 33 34  1  0  0  0  0
 34 35  1  0  0  0  0
 36 35  1  0  0  0  0
 37 36  1  0  0  0  0
 38 37  1  0  0  0  0
M  END
>  <minimizedAffinity>
-5.52316523

$$$$

 OpenBabel03272507433D

 38 41  0  0  0  0  0  0  0  0999 V2000
   38.0840   25.4230   34.5420 C   0  0  0  0  0  0  0  0  0  0  0  0
   37.6380   25.8000   33.2900 C   0  0  0  0  0  0  0  0  0  0  0  0
   37.3040   24.8530   32.3360 C   0  0  0  0  0  0  0  0  0  0  0  0
   37.4200   23.5000   32.6480 C   0  0  0  0  0  0  0  0  0  0  0  0
   37.8670   23.1150   33.9040 C   0  0  0  0  0  0  0  0  0  0  0  0
   38.1860   24.1000   34.8130 C   0  0  0  0  0  0  0  0  0  0  0  0
   36.9510   25.0890   31.3460 H   0  0  0  0  0  0  0  0  0  0  0  0
   37.1650   22.7420   31.9200 H   0  0  0  0  0  0  0  0  0  0  0  0
   37.9380   22.0610   34.0940 H   0  0  0  0  0  0  0  0  0  0  0  0
   38.6650   23.6710   36.1600 C   0  0  0  0  0  0  0  0  0  0  0  0
   39.8730   23.1660   36.5330 C   0  0  0  0  0  0  0  0  0  0  0  0
   39.8200   22.9250   37.8960 C   0  0  0  0  0  0  0  0  0  0  0  0
   38.5430   23.3120   38.2760 C   0  0  0  0  0  0  0  0  0  0  0  0
   37.8800   23.7510   37.2230 O   0  0  0  0  0  0  0  0  0  0  0  0
   40.7020   22.9930   35.8660 H   0  0  0  0  0  0  0  0  0  0  0  0
   40.6020   22.5220   38.5340 H   0  0  0  0  0  0  0  0  0  0  0  0
   38.1340   23.2670   39.2890 H   0  0  0  0  0  0  0  0  0  0  0  0
   38.6740   27.3050   36.1880 N   0  0  0  0  0  0  0  0  0  0  0  0
   38.4050   26.4580   35.4570 C   0  0  0  0  0  0  0  0  0  0  0  0
   37.4750   27.1080   32.8440 O   0  0  0  0  0  0  0  0  0  0  0  0
   37.9650   27.5840   31.6750 C   0  0  0  0  0  0  0  0  0  0  0  0
   36.9850   28.2870   30.9490 C   0  0  0  0  0  0  0  0  0  0  0  0
   37.2940   28.8500   29.7250 C   0  0  0  0  0  0  0  0  0  0  0  0
   38.5660   28.6950   29.2660 N   0  0  0  0  0  0  0  0  0  0  0  0
   39.4980   28.0110   29.9860 C   0  0  0  0  0  0  0  0  0  0  0  0
   39.1870   27.4800   31.1520 N   0  0  0  0  0  0  0  0  0  0  0  0
   36.5950   29.4000   29.1190 H   0  0  0  0  0  0  0  0  0  0  0  0
   40.4790   27.9430   29.5370 H   0  0  0  0  0  0  0  0  0  0  0  0
   35.3080   29.7240   31.9620 C   0  0  0  0  0  0  0  0  0  0  0  0
   35.9780   30.7540   32.3920 O   0  0  0  0  0  0  0  0  0  0  0  0
   35.6520   28.4920   31.3510 N   0  0  0  0  0  0  0  0  0  0  0  0
   34.8270   27.8550   31.2720 H   0  0  0  0  0  0  0  0  0  0  0  0
   33.9770   30.1360   32.2700 N   0  0  0  0  0  0  0  0  0  0  0  0
   33.0380   29.2220   32.8930 C   0  0  0  0  0  2  0  0  0  0  0  0
   32.6230   30.0530   34.1120 C   0  0  0  0  0  2  0  0  0  0  0  0
   32.3150   31.3770   33.4420 C   0  0  0  0  0  2  0  0  0  0  0  0
   33.1180   31.3230   32.1560 C   0  0  0  0  0  3  0  0  0  0  0  0
   33.7090   32.2400   32.0030 H   0  0  0  0  0  0  0  0  0  0  0  0
  1  6  1  0  0  0  0
  1 19  1  0  0  0  0
  2  1  2  0  0  0  0
  3  4  2  0  0  0  0
  3  2  1  0  0  0  0
  4  5  1  0  0  0  0
  5  9  1  0  0  0  0
  5  6  2  0  0  0  0
  6 10  1  0  0  0  0
  7  3  1  0  0  0  0
  8  4  1  0  0  0  0
 10 11  2  0  0  0  0
 10 14  1  0  0  0  0
 11 12  1  0  0  0  0
 12 13  2  0  0  0  0
 12 16  1  0  0  0  0
 13 17  1  0  0  0  0
 14 13  1  0  0  0  0
 15 11  1  0  0  0  0
 19 18  3  0  0  0  0
 20  2  1  0  0  0  0
 21 20  1  0  0  0  0
 22 31  1  0  0  0  0
 22 21  2  0  0  0  0
 23 22  1  0  0  0  0
 24 23  2  0  0  0  0
 24 25  1  0  0  0  0
 25 26  2  0  0  0  0
 26 21  1  0  0  0  0
 27 23  1  0  0  0  0
 28 25  1  0  0  0  0
 29 33  1  0  0  0  0
 29 30  2  0  0  0  0
 31 29  1  0  0  0  0
 32 31  1  0  0  0  0
 33 34  1  0  0  0  0
 34 35  1  0  0  0  0
 36 35  1  0  0  0  0
 37 33  1  0  0  0  0
 37 36  1  0  0  0  0
 38 37  1  0  0  0  0
M  END
>  <minimizedAffinity>
-5.50899363

$$$$

 OpenBabel03272507433D

 38 41  0  0  0  0  0  0  0  0999 V2000
   39.4160   24.4400   35.0140 C   0  0  0  0  0  0  0  0  0  0  0  0
   38.9360   25.6270   34.4960 C   0  0  0  0  0  0  0  0  0  0  0  0
   39.7840   26.6960   34.2540 C   0  0  0  0  0  0  0  0  0  0  0  0
   41.1410   26.5660   34.5380 C   0  0  0  0  0  0  0  0  0  0  0  0
   41.6300   25.3760   35.0560 C   0  0  0  0  0  0  0  0  0  0  0  0
   40.7410   24.3460   35.2780 C   0  0  0  0  0  0  0  0  0  0  0  0
   39.4640   27.6430   33.8530 H   0  0  0  0  0  0  0  0  0  0  0  0
   41.8230   27.3860   34.3570 H   0  0  0  0  0  0  0  0  0  0  0  0
   42.6830   25.3270   35.2570 H   0  0  0  0  0  0  0  0  0  0  0  0
   41.2800   23.0720   35.8360 C   0  0  0  0  0  0  0  0  0  0  0  0
   41.2810   22.6150   37.1190 C   0  0  0  0  0  0  0  0  0  0  0  0
   41.9010   21.3770   37.1200 C   0  0  0  0  0  0  0  0  0  0  0  0
   42.2480   21.1530   35.7950 C   0  0  0  0  0  0  0  0  0  0  0  0
   41.8670   22.1780   35.0560 O   0  0  0  0  0  0  0  0  0  0  0  0
   40.8670   23.1450   37.9620 H   0  0  0  0  0  0  0  0  0  0  0  0
   42.0800   20.7200   37.9660 H   0  0  0  0  0  0  0  0  0  0  0  0
   42.7610   20.2690   35.4070 H   0  0  0  0  0  0  0  0  0  0  0  0
   37.7280   22.5440   35.4100 N   0  0  0  0  0  0  0  0  0  0  0  0
   38.4780   23.3990   35.2300 C   0  0  0  0  0  0  0  0  0  0  0  0
   37.6100   25.8950   34.1690 O   0  0  0  0  0  0  0  0  0  0  0  0
   37.2170   26.5880   33.0740 C   0  0  0  0  0  0  0  0  0  0  0  0
   36.5570   25.7620   32.1450 C   0  0  0  0  0  0  0  0  0  0  0  0
   36.0800   26.2870   30.9590 C   0  0  0  0  0  0  0  0  0  0  0  0
   36.2740   27.6170   30.7390 N   0  0  0  0  0  0  0  0  0  0  0  0
   36.9150   28.3980   31.6530 C   0  0  0  0  0  0  0  0  0  0  0  0
   37.3640   27.8810   32.7790 N   0  0  0  0  0  0  0  0  0  0  0  0
   35.5670   25.7140   30.2060 H   0  0  0  0  0  0  0  0  0  0  0  0
   37.0200   29.4400   31.3860 H   0  0  0  0  0  0  0  0  0  0  0  0
   37.2100   23.4670   31.6810 C   0  0  0  0  0  0  0  0  0  0  0  0
   38.2070   23.5730   30.8510 O   0  0  0  0  0  0  0  0  0  0  0  0
   36.3170   24.3830   32.2950 N   0  0  0  0  0  0  0  0  0  0  0  0
   35.5510   23.8920   32.8080 H   0  0  0  0  0  0  0  0  0  0  0  0
   37.1890   22.0550   31.8800 N   0  0  0  0  0  0  0  0  0  0  0  0
   35.9410   21.3160   31.8560 C   0  0  0  0  0  2  0  0  0  0  0  0
   36.2730   20.2620   30.7930 C   0  0  0  0  0  2  0  0  0  0  0  0
   37.6180   19.7840   31.3000 C   0  0  0  0  0  2  0  0  0  0  0  0
   38.1210   20.9460   32.1360 C   0  0  0  0  0  3  0  0  0  0  0  0
   39.1560   21.2180   31.8790 H   0  0  0  0  0  0  0  0  0  0  0  0
  1 19  1  0  0  0  0
  1  6  1  0  0  0  0
  2  1  2  0  0  0  0
  3  2  1  0  0  0  0
  3  4  2  0  0  0  0
  4  5  1  0  0  0  0
  5  9  1  0  0  0  0
  5  6  2  0  0  0  0
  6 10  1  0  0  0  0
  7  3  1  0  0  0  0
  8  4  1  0  0  0  0
 10 11  2  0  0  0  0
 11 12  1  0  0  0  0
 11 15  1  0  0  0  0
 12 16  1  0  0  0  0
 13 12  2  0  0  0  0
 14 13  1  0  0  0  0
 14 10  1  0  0  0  0
 17 13  1  0  0  0  0
 19 18  3  0  0  0  0
 20  2  1  0  0  0  0
 21 20  1  0  0  0  0
 22 31  1  0  0  0  0
 22 21  2  0  0  0  0
 23 22  1  0  0  0  0
 24 23  2  0  0  0  0
 24 25  1  0  0  0  0
 25 26  2  0  0  0  0
 26 21  1  0  0  0  0
 27 23  1  0  0  0  0
 28 25  1  0  0  0  0
 29 33  1  0  0  0  0
 29 31  1  0  0  0  0
 30 29  2  0  0  0  0
 31 32  1  0  0  0  0
 33 37  1  0  0  0  0
 34 33  1  0  0  0  0
 35 36  1  0  0  0  0
 35 34  1  0  0  0  0
 36 37  1  0  0  0  0
 38 37  1  0  0  0  0
M  END
>  <minimizedAffinity>
-5.47696733

$$$$

 OpenBabel03272507433D

 38 41  0  0  0  0  0  0  0  0999 V2000
   36.2690   29.1410   32.9620 C   0  0  0  0  0  0  0  0  0  0  0  0
   36.6720   28.7230   31.7080 C   0  0  0  0  0  0  0  0  0  0  0  0
   36.4940   29.5290   30.5950 C   0  0  0  0  0  0  0  0  0  0  0  0
   35.9010   30.7800   30.7470 C   0  0  0  0  0  0  0  0  0  0  0  0
   35.4950   31.2060   32.0030 C   0  0  0  0  0  0  0  0  0  0  0  0
   35.6960   30.3630   33.0750 C   0  0  0  0  0  0  0  0  0  0  0  0
   36.7880   29.2540   29.5960 H   0  0  0  0  0  0  0  0  0  0  0  0
   35.7520   31.4270   29.8930 H   0  0  0  0  0  0  0  0  0  0  0  0
   35.0440   32.1780   32.0670 H   0  0  0  0  0  0  0  0  0  0  0  0
   35.2550   30.8350   34.4210 C   0  0  0  0  0  0  0  0  0  0  0  0
   35.9560   31.4940   35.3840 C   0  0  0  0  0  0  0  0  0  0  0  0
   35.0980   31.7070   36.4500 C   0  0  0  0  0  0  0  0  0  0  0  0
   33.8920   31.1470   36.0540 C   0  0  0  0  0  0  0  0  0  0  0  0
   34.0170   30.6360   34.8430 O   0  0  0  0  0  0  0  0  0  0  0  0
   36.9910   31.7830   35.3040 H   0  0  0  0  0  0  0  0  0  0  0  0
   35.3140   32.2030   37.3920 H   0  0  0  0  0  0  0  0  0  0  0  0
   32.9710   31.1240   36.6420 H   0  0  0  0  0  0  0  0  0  0  0  0
   36.6510   27.5250   34.9220 N   0  0  0  0  0  0  0  0  0  0  0  0
   36.4880   28.2530   34.0450 C   0  0  0  0  0  0  0  0  0  0  0  0
   37.2730   27.5040   31.4110 O   0  0  0  0  0  0  0  0  0  0  0  0
   36.6050   26.3350   31.2740 C   0  0  0  0  0  0  0  0  0  0  0  0
   37.4540   25.2270   31.4590 C   0  0  0  0  0  0  0  0  0  0  0  0
   36.9550   23.9410   31.3580 C   0  0  0  0  0  0  0  0  0  0  0  0
   35.6300   23.8030   31.0780 N   0  0  0  0  0  0  0  0  0  0  0  0
   34.8270   24.8890   30.9040 C   0  0  0  0  0  0  0  0  0  0  0  0
   35.3190   26.1080   31.0030 N   0  0  0  0  0  0  0  0  0  0  0  0
   37.5460   23.0510   31.4880 H   0  0  0  0  0  0  0  0  0  0  0  0
   33.7900   24.6750   30.6850 H   0  0  0  0  0  0  0  0  0  0  0  0
   39.2550   25.0220   33.0770 C   0  0  0  0  0  0  0  0  0  0  0  0
   38.6510   24.8450   34.2170 O   0  0  0  0  0  0  0  0  0  0  0  0
   38.8290   25.2830   31.7490 N   0  0  0  0  0  0  0  0  0  0  0  0
   39.6350   25.4970   31.1200 H   0  0  0  0  0  0  0  0  0  0  0  0
   40.6150   24.8820   33.4820 N   0  0  0  0  0  0  0  0  0  0  0  0
   41.6310   25.8110   33.0210 C   0  0  0  0  0  2  0  0  0  0  0  0
   42.2100   26.2640   34.3660 C   0  0  0  0  0  2  0  0  0  0  0  0
   42.4240   24.9210   35.0340 C   0  0  0  0  0  2  0  0  0  0  0  0
   41.4520   24.0050   34.3150 C   0  0  0  0  0  3  0  0  0  0  0  0
   40.8450   23.4150   35.0200 H   0  0  0  0  0  0  0  0  0  0  0  0
  1  6  1  0  0  0  0
  1 19  1  0  0  0  0
  2  1  2  0  0  0  0
  3  4  2  0  0  0  0
  3  2  1  0  0  0  0
  4  5  1  0  0  0  0
  5  9  1  0  0  0  0
  5  6  2  0  0  0  0
  6 10  1  0  0  0  0
  7  3  1  0  0  0  0
  8  4  1  0  0  0  0
 10 14  1  0  0  0  0
 10 11  2  0  0  0  0
 11 12  1  0  0  0  0
 12 16  1  0  0  0  0
 13 12  2  0  0  0  0
 13 17  1  0  0  0  0
 14 13  1  0  0  0  0
 15 11  1  0  0  0  0
 19 18  3  0  0  0  0
 20  2  1  0  0  0  0
 21 20  1  0  0  0  0
 21 22  1  0  0  0  0
 22 31  1  0  0  0  0
 23 22  2  0  0  0  0
 23 27  1  0  0  0  0
 24 23  1  0  0  0  0
 25 26  1  0  0  0  0
 25 24  2  0  0  0  0
 26 21  2  0  0  0  0
 28 25  1  0  0  0  0
 29 33  1  0  0  0  0
 29 30  2  0  0  0  0
 31 29  1  0  0  0  0
 32 31  1  0  0  0  0
 33 37  1  0  0  0  0
 34 33  1  0  0  0  0
 34 35  1  0  0  0  0
 35 36  1  0  0  0  0
 37 38  1  0  0  0  0
 37 36  1  0  0  0  0
M  END
>  <minimizedAffinity>
-5.46358299

$$$$

 OpenBabel03272507433D

 38 41  0  0  0  0  0  0  0  0999 V2000
   37.1300   25.7070   33.1170 C   0  0  0  0  0  0  0  0  0  0  0  0
   36.3070   26.0310   32.0550 C   0  0  0  0  0  0  0  0  0  0  0  0
   36.0950   25.1380   31.0170 C   0  0  0  0  0  0  0  0  0  0  0  0
   36.7220   23.8940   31.0500 C   0  0  0  0  0  0  0  0  0  0  0  0
   37.5480   23.5630   32.1140 C   0  0  0  0  0  0  0  0  0  0  0  0
   37.7240   24.4900   33.1180 C   0  0  0  0  0  0  0  0  0  0  0  0
   35.4660   25.3370   30.1660 H   0  0  0  0  0  0  0  0  0  0  0  0
   36.5720   23.1800   30.2510 H   0  0  0  0  0  0  0  0  0  0  0  0
   38.0080   22.5920   32.0920 H   0  0  0  0  0  0  0  0  0  0  0  0
   38.6150   24.1190   34.2560 C   0  0  0  0  0  0  0  0  0  0  0  0
   39.9650   24.2440   34.3800 C   0  0  0  0  0  0  0  0  0  0  0  0
   40.3150   23.7560   35.6280 C   0  0  0  0  0  0  0  0  0  0  0  0
   39.1170   23.3540   36.2010 C   0  0  0  0  0  0  0  0  0  0  0  0
   38.1250   23.5820   35.3620 O   0  0  0  0  0  0  0  0  0  0  0  0
   40.6190   24.6510   33.6260 H   0  0  0  0  0  0  0  0  0  0  0  0
   41.3060   23.6970   36.0680 H   0  0  0  0  0  0  0  0  0  0  0  0
   38.9980   22.9130   37.1940 H   0  0  0  0  0  0  0  0  0  0  0  0
   37.4310   27.4610   34.9700 N   0  0  0  0  0  0  0  0  0  0  0  0
   37.2900   26.6810   34.1350 C   0  0  0  0  0  0  0  0  0  0  0  0
   35.6220   27.2310   31.8930 O   0  0  0  0  0  0  0  0  0  0  0  0
   36.1420   28.3360   31.3100 C   0  0  0  0  0  0  0  0  0  0  0  0
   35.3810   29.4840   31.6000 C   0  0  0  0  0  0  0  0  0  0  0  0
   35.7530   30.7150   31.0920 C   0  0  0  0  0  0  0  0  0  0  0  0
   36.8700   30.7610   30.3150 N   0  0  0  0  0  0  0  0  0  0  0  0
   37.5910   29.6370   30.0480 C   0  0  0  0  0  0  0  0  0  0  0  0
   37.2230   28.4710   30.5390 N   0  0  0  0  0  0  0  0  0  0  0  0
   35.2180   31.6310   31.2740 H   0  0  0  0  0  0  0  0  0  0  0  0
   38.4610   29.7770   29.4200 H   0  0  0  0  0  0  0  0  0  0  0  0
   34.3390   29.8720   33.7600 C   0  0  0  0  0  0  0  0  0  0  0  0
   35.3370   30.0680   34.5730 O   0  0  0  0  0  0  0  0  0  0  0  0
   34.2180   29.5220   32.3910 N   0  0  0  0  0  0  0  0  0  0  0  0
   33.2260   29.3250   32.1280 H   0  0  0  0  0  0  0  0  0  0  0  0
   33.2400   30.1100   34.6390 N   0  0  0  0  0  0  0  0  0  0  0  0
   32.0940   29.2210   34.6580 C   0  0  0  0  0  2  0  0  0  0  0  0
   32.0540   28.8670   36.1490 C   0  0  0  0  0  2  0  0  0  0  0  0
   32.1570   30.2510   36.7570 C   0  0  0  0  0  2  0  0  0  0  0  0
   32.8150   31.0740   35.6640 C   0  0  0  0  0  3  0  0  0  0  0  0
   33.6650   31.6600   36.0480 H   0  0  0  0  0  0  0  0  0  0  0  0
  1  6  1  0  0  0  0
  1 19  1  0  0  0  0
  2  1  2  0  0  0  0
  3  4  2  0  0  0  0
  3  2  1  0  0  0  0
  4  5  1  0  0  0  0
  5  6  2  0  0  0  0
  6 10  1  0  0  0  0
  7  3  1  0  0  0  0
  8  4  1  0  0  0  0
  9  5  1  0  0  0  0
 10 11  2  0  0  0  0
 10 14  1  0  0  0  0
 11 12  1  0  0  0  0
 12 16  1  0  0  0  0
 12 13  2  0  0  0  0
 13 17  1  0  0  0  0
 14 13  1  0  0  0  0
 15 11  1  0  0  0  0
 19 18  3  0  0  0  0
 20  2  1  0  0  0  0
 21 22  1  0  0  0  0
 21 20  1  0  0  0  0
 22 31  1  0  0  0  0
 23 27  1  0  0  0  0
 23 22  2  0  0  0  0
 24 23  1  0  0  0  0
 25 24  2  0  0  0  0
 25 26  1  0  0  0  0
 26 21  2  0  0  0  0
 28 25  1  0  0  0  0
 29 30  2  0  0  0  0
 29 33  1  0  0  0  0
 31 29  1  0  0  0  0
 32 31  1  0  0  0  0
 33 34  1  0  0  0  0
 33 37  1  0  0  0  0
 34 35  1  0  0  0  0
 35 36  1  0  0  0  0
 37 38  1  0  0  0  0
 37 36  1  0  0  0  0
M  END
>  <minimizedAffinity>
-5.42881632

$$$$

 OpenBabel03272507433D

 38 41  0  0  0  0  0  0  0  0999 V2000
   36.3030   28.9800   33.1630 C   0  0  0  0  0  0  0  0  0  0  0  0
   36.6460   28.4590   31.9290 C   0  0  0  0  0  0  0  0  0  0  0  0
   36.3080   29.1170   30.7570 C   0  0  0  0  0  0  0  0  0  0  0  0
   35.6140   30.3230   30.8290 C   0  0  0  0  0  0  0  0  0  0  0  0
   35.2680   30.8510   32.0640 C   0  0  0  0  0  0  0  0  0  0  0  0
   35.6280   30.1530   33.1970 C   0  0  0  0  0  0  0  0  0  0  0  0
   36.5490   28.7580   29.7710 H   0  0  0  0  0  0  0  0  0  0  0  0
   35.3390   30.8550   29.9280 H   0  0  0  0  0  0  0  0  0  0  0  0
   34.7340   31.7820   32.0650 H   0  0  0  0  0  0  0  0  0  0  0  0
   35.2500   30.7330   34.5190 C   0  0  0  0  0  0  0  0  0  0  0  0
   36.0080   31.4260   35.4130 C   0  0  0  0  0  0  0  0  0  0  0  0
   35.1940   31.7480   36.4860 C   0  0  0  0  0  0  0  0  0  0  0  0
   33.9540   31.2130   36.1650 C   0  0  0  0  0  0  0  0  0  0  0  0
   34.0190   30.6160   34.9900 O   0  0  0  0  0  0  0  0  0  0  0  0
   37.0510   31.6660   35.2830 H   0  0  0  0  0  0  0  0  0  0  0  0
   35.4590   32.2970   37.3850 H   0  0  0  0  0  0  0  0  0  0  0  0
   33.0530   31.2690   36.7810 H   0  0  0  0  0  0  0  0  0  0  0  0
   36.9950   27.6250   35.2330 N   0  0  0  0  0  0  0  0  0  0  0  0
   36.6880   28.2400   34.3090 C   0  0  0  0  0  0  0  0  0  0  0  0
   37.3340   27.2700   31.7110 O   0  0  0  0  0  0  0  0  0  0  0  0
   38.6240   27.1960   31.3050 C   0  0  0  0  0  0  0  0  0  0  0  0
   39.2790   26.0780   31.8540 C   0  0  0  0  0  0  0  0  0  0  0  0
   40.6060   25.8300   31.5560 C   0  0  0  0  0  0  0  0  0  0  0  0
   41.2350   26.7030   30.7210 N   0  0  0  0  0  0  0  0  0  0  0  0
   40.5810   27.7780   30.2010 C   0  0  0  0  0  0  0  0  0  0  0  0
   39.3150   28.0010   30.4950 N   0  0  0  0  0  0  0  0  0  0  0  0
   41.1670   24.9960   31.9400 H   0  0  0  0  0  0  0  0  0  0  0  0
   41.1670   28.4120   29.5490 H   0  0  0  0  0  0  0  0  0  0  0  0
   39.0990   25.1300   34.0840 C   0  0  0  0  0  0  0  0  0  0  0  0
   40.0150   25.7450   34.7750 O   0  0  0  0  0  0  0  0  0  0  0  0
   38.7030   25.1320   32.7220 N   0  0  0  0  0  0  0  0  0  0  0  0
   37.9960   24.3890   32.5240 H   0  0  0  0  0  0  0  0  0  0  0  0
   38.4880   24.3460   35.1070 N   0  0  0  0  0  0  0  0  0  0  0  0
   38.1720   22.9470   34.8870 C   0  0  0  0  0  2  0  0  0  0  0  0
   38.9000   22.3160   36.0790 C   0  0  0  0  0  2  0  0  0  0  0  0
   38.4050   23.2090   37.2000 C   0  0  0  0  0  2  0  0  0  0  0  0
   38.0050   24.4880   36.4890 C   0  0  0  0  0  3  0  0  0  0  0  0
   38.4290   25.3790   36.9780 H   0  0  0  0  0  0  0  0  0  0  0  0
  1  6  1  0  0  0  0
  1 19  1  0  0  0  0
  2  1  2  0  0  0  0
  3  4  2  0  0  0  0
  3  2  1  0  0  0  0
  4  5  1  0  0  0  0
  5  9  1  0  0  0  0
  5  6  2  0  0  0  0
  6 10  1  0  0  0  0
  7  3  1  0  0  0  0
  8  4  1  0  0  0  0
 10 14  1  0  0  0  0
 10 11  2  0  0  0  0
 11 12  1  0  0  0  0
 12 16  1  0  0  0  0
 13 12  2  0  0  0  0
 13 17  1  0  0  0  0
 14 13  1  0  0  0  0
 15 11  1  0  0  0  0
 19 18  3  0  0  0  0
 20  2  1  0  0  0  0
 21 20  1  0  0  0  0
 21 22  1  0  0  0  0
 22 31  1  0  0  0  0
 23 22  2  0  0  0  0
 23 27  1  0  0  0  0
 24 23  1  0  0  0  0
 25 26  1  0  0  0  0
 25 24  2  0  0  0  0
 26 21  2  0  0  0  0
 28 25  1  0  0  0  0
 29 30  2  0  0  0  0
 29 33  1  0  0  0  0
 31 29  1  0  0  0  0
 32 31  1  0  0  0  0
 33 37  1  0  0  0  0
 34 33  1  0  0  0  0
 34 35  1  0  0  0  0
 35 36  1  0  0  0  0
 37 38  1  0  0  0  0
 37 36  1  0  0  0  0
M  END
>  <minimizedAffinity>
-5.41760254

$$$$

 OpenBabel03272507433D

 38 41  0  0  0  0  0  0  0  0999 V2000
   36.8100   28.0680   32.6620 C   0  0  0  0  0  0  0  0  0  0  0  0
   37.5320   27.5580   31.6000 C   0  0  0  0  0  0  0  0  0  0  0  0
   37.4850   28.1560   30.3510 C   0  0  0  0  0  0  0  0  0  0  0  0
   36.6970   29.2900   30.1680 C   0  0  0  0  0  0  0  0  0  0  0  0
   35.9700   29.8070   31.2310 C   0  0  0  0  0  0  0  0  0  0  0  0
   36.0540   29.1710   32.4510 C   0  0  0  0  0  0  0  0  0  0  0  0
   38.0250   27.8010   29.4900 H   0  0  0  0  0  0  0  0  0  0  0  0
   36.6440   29.7740   29.2030 H   0  0  0  0  0  0  0  0  0  0  0  0
   35.3790   30.6820   31.0380 H   0  0  0  0  0  0  0  0  0  0  0  0
   35.2680   29.7390   33.5840 C   0  0  0  0  0  0  0  0  0  0  0  0
   35.6110   30.7020   34.4850 C   0  0  0  0  0  0  0  0  0  0  0  0
   34.5340   30.8740   35.3390 C   0  0  0  0  0  0  0  0  0  0  0  0
   33.5760   29.9780   34.8890 C   0  0  0  0  0  0  0  0  0  0  0  0
   34.0410   29.3180   33.8450 O   0  0  0  0  0  0  0  0  0  0  0  0
   36.5570   31.2170   34.5060 H   0  0  0  0  0  0  0  0  0  0  0  0
   34.4510   31.5580   36.1790 H   0  0  0  0  0  0  0  0  0  0  0  0
   32.5830   29.8300   35.3220 H   0  0  0  0  0  0  0  0  0  0  0  0
   36.9960   26.8320   34.9060 N   0  0  0  0  0  0  0  0  0  0  0  0
   36.9170   27.3930   33.9040 C   0  0  0  0  0  0  0  0  0  0  0  0
   38.3550   26.4370   31.6400 O   0  0  0  0  0  0  0  0  0  0  0  0
   39.1810   26.0580   30.6360 C   0  0  0  0  0  0  0  0  0  0  0  0
   38.7620   24.8490   30.0480 C   0  0  0  0  0  0  0  0  0  0  0  0
   39.4790   24.2970   29.0020 C   0  0  0  0  0  0  0  0  0  0  0  0
   40.5860   24.9670   28.5780 N   0  0  0  0  0  0  0  0  0  0  0  0
   40.9720   26.1350   29.1620 C   0  0  0  0  0  0  0  0  0  0  0  0
   40.2770   26.6480   30.1580 N   0  0  0  0  0  0  0  0  0  0  0  0
   39.2160   23.3790   28.5070 H   0  0  0  0  0  0  0  0  0  0  0  0
   41.8640   26.5910   28.7540 H   0  0  0  0  0  0  0  0  0  0  0  0
   37.8220   22.9660   31.2610 C   0  0  0  0  0  0  0  0  0  0  0  0
   38.8580   22.3180   31.7110 O   0  0  0  0  0  0  0  0  0  0  0  0
   37.6350   24.0970   30.4260 N   0  0  0  0  0  0  0  0  0  0  0  0
   36.6290   24.2360   30.1820 H   0  0  0  0  0  0  0  0  0  0  0  0
   36.7680   22.2100   31.8540 N   0  0  0  0  0  0  0  0  0  0  0  0
   35.6020   21.8210   31.0830 C   0  0  0  0  0  2  0  0  0  0  0  0
   35.6170   20.3070   31.3200 C   0  0  0  0  0  2  0  0  0  0  0  0
   35.7790   20.2710   32.8260 C   0  0  0  0  0  2  0  0  0  0  0  0
   36.4100   21.6130   33.1500 C   0  0  0  0  0  3  0  0  0  0  0  0
   37.2880   21.5060   33.8040 H   0  0  0  0  0  0  0  0  0  0  0  0
  1 19  1  0  0  0  0
  2 20  1  0  0  0  0
  2  1  2  0  0  0  0
  3  2  1  0  0  0  0
  4  3  2  0  0  0  0
  4  5  1  0  0  0  0
  5  6  2  0  0  0  0
  6  1  1  0  0  0  0
  6 10  1  0  0  0  0
  7  3  1  0  0  0  0
  8  4  1  0  0  0  0
  9  5  1  0  0  0  0
 10 14  1  0  0  0  0
 10 11  2  0  0  0  0
 11 15  1  0  0  0  0
 11 12  1  0  0  0  0
 12 16  1  0  0  0  0
 13 17  1  0  0  0  0
 13 12  2  0  0  0  0
 14 13  1  0  0  0  0
 19 18  3  0  0  0  0
 21 20  1  0  0  0  0
 22 31  1  0  0  0  0
 22 21  2  0  0  0  0
 23 22  1  0  0  0  0
 24 23  2  0  0  0  0
 24 25  1  0  0  0  0
 25 26  2  0  0  0  0
 26 21  1  0  0  0  0
 27 23  1  0  0  0  0
 28 25  1  0  0  0  0
 29 30  2  0  0  0  0
 29 33  1  0  0  0  0
 31 29  1  0  0  0  0
 32 31  1  0  0  0  0
 33 37  1  0  0  0  0
 34 35  1  0  0  0  0
 34 33  1  0  0  0  0
 35 36  1  0  0  0  0
 36 37  1  0  0  0  0
 37 38  1  0  0  0  0
M  END
>  <minimizedAffinity>
-5.381845

$$$$
