
 OpenBabel03262520103D

 33 35  0  0  1  0  0  0  0  0999 V2000
   37.3040   31.6980   48.1570 Br  0  0  0  0  0  0  0  0  0  0  0  0
   36.5660   30.8170   46.6200 C   0  0  0  0  0  0  0  0  0  0  0  0
   37.2800   30.7730   45.4420 C   0  0  0  0  0  0  0  0  0  0  0  0
   36.7040   30.1330   44.3780 C   0  0  0  0  0  0  0  0  0  0  0  0
   35.4490   29.5390   44.4440 C   0  0  0  0  0  0  0  0  0  0  0  0
   34.7760   29.6110   45.6500 C   0  0  0  0  0  0  0  0  0  0  0  0
   35.3430   30.2530   46.7340 C   0  0  0  0  0  0  0  0  0  0  0  0
   37.2930   30.1160   43.4650 H   0  0  0  0  0  0  0  0  0  0  0  0
   35.0980   29.0620   43.5400 H   0  0  0  0  0  0  0  0  0  0  0  0
   33.8210   29.1160   45.5670 H   0  0  0  0  0  0  0  0  0  0  0  0
   39.8790   33.2660   44.8370 C   0  0  0  0  0  0  0  0  0  0  0  0
   41.0850   32.5780   45.0960 C   0  0  0  0  0  0  0  0  0  0  0  0
   40.9820   31.2500   45.4780 C   0  0  0  0  0  0  0  0  0  0  0  0
   39.7440   30.6640   45.5910 N   0  0  0  0  0  0  0  0  0  0  0  0
   38.6070   31.3880   45.3260 C   0  0  0  0  0  0  0  0  0  0  0  0
   38.7010   32.6720   44.9550 N   0  0  0  0  0  0  0  0  0  0  0  0
   40.0090   34.2980   44.5430 H   0  0  0  0  0  0  0  0  0  0  0  0
   42.0790   33.0050   45.0190 H   0  0  0  0  0  0  0  0  0  0  0  0
   41.8150   30.5950   45.7090 H   0  0  0  0  0  0  0  0  0  0  0  0
   34.5120   30.2520   47.9570 C   0  0  0  0  0  0  0  0  0  0  0  0
   33.5630   30.7790   47.6600 H   0  0  0  0  0  0  0  0  0  0  0  0
   34.9620   30.8460   48.7630 H   0  0  0  0  0  0  0  0  0  0  0  0
   34.1210   28.9120   48.4460 C   0  0  0  0  0  0  0  0  0  0  0  0
   33.0020   28.8350   48.2630 H   0  0  0  0  0  0  0  0  0  0  0  0
   34.5400   28.0560   47.9410 H   0  0  0  0  0  0  0  0  0  0  0  0
   34.3080   28.7980   49.8720 N   0  0  0  0  0  0  0  0  0  0  0  0
   33.4590   28.8900   50.4360 H   0  0  0  0  0  0  0  0  0  0  0  0
   34.9760   29.8250   52.3900 H   0  0  0  0  0  0  0  0  0  0  0  0
   35.6620   29.3180   51.8160 N   0  0  0  0  0  0  0  0  0  0  0  0
   37.0090   29.8980   51.9280 C   0  0  0  0  0  0  0  0  0  0  0  0
   37.7660   29.2710   50.7700 C   0  0  0  0  0  0  0  0  0  0  0  0
   36.6790   28.6250   49.9000 C   0  0  0  0  0  0  0  0  0  0  0  0
   35.4680   29.4120   50.4000 C   0  0  1  0  0  0  0  0  0  0  0  0
  2  7  1  0  0  0  0
  2  1  1  0  0  0  0
  3  2  2  0  0  0  0
  4  5  2  0  0  0  0
  4  3  1  0  0  0  0
  5  6  1  0  0  0  0
  6  7  2  0  0  0  0
  7 20  1  0  0  0  0
  8  4  1  0  0  0  0
  9  5  1  0  0  0  0
 10  6  1  0  0  0  0
 11 16  2  0  0  0  0
 11 12  1  0  0  0  0
 12 13  2  0  0  0  0
 13 14  1  0  0  0  0
 13 19  1  0  0  0  0
 15  3  1  0  0  0  0
 15 14  2  0  0  0  0
 16 15  1  0  0  0  0
 17 11  1  0  0  0  0
 18 12  1  0  0  0  0
 20 23  1  0  0  0  0
 20 22  1  0  0  0  0
 21 20  1  0  0  0  0
 23 26  1  0  0  0  0
 24 23  1  0  0  0  0
 25 23  1  0  0  0  0
 26 27  1  0  0  0  0
 29 30  1  0  0  0  0
 29 28  1  0  0  0  0
 31 30  1  0  0  0  0
 32 33  1  0  0  0  0
 32 31  1  0  0  0  0
 33 26  1  1  0  0  0
 33 29  1  0  0  0  0
M  END
>  <minimizedAffinity>
-4.77582407

>  <minimizedRMSD>
1.42234278

$$$$
