
 OpenBabel03262520103D

 33 35  0  0  1  0  0  0  0  0999 V2000
   37.4660   31.7600   48.4660 Br  0  0  0  0  0  0  0  0  0  0  0  0
   36.5810   30.8990   46.9970 C   0  0  0  0  0  0  0  0  0  0  0  0
   37.1990   30.8260   45.7670 C   0  0  0  0  0  0  0  0  0  0  0  0
   36.5190   30.2020   44.7550 C   0  0  0  0  0  0  0  0  0  0  0  0
   35.2550   29.6510   44.9240 C   0  0  0  0  0  0  0  0  0  0  0  0
   34.6810   29.7510   46.1770 C   0  0  0  0  0  0  0  0  0  0  0  0
   35.3520   30.3770   47.2090 C   0  0  0  0  0  0  0  0  0  0  0  0
   37.0350   30.1620   43.7990 H   0  0  0  0  0  0  0  0  0  0  0  0
   34.8180   29.1830   44.0520 H   0  0  0  0  0  0  0  0  0  0  0  0
   33.7060   29.2880   46.1730 H   0  0  0  0  0  0  0  0  0  0  0  0
   39.8230   33.2180   44.9160 C   0  0  0  0  0  0  0  0  0  0  0  0
   41.0230   32.5000   45.1120 C   0  0  0  0  0  0  0  0  0  0  0  0
   40.9070   31.1870   45.5400 C   0  0  0  0  0  0  0  0  0  0  0  0
   39.6630   30.6430   45.7520 N   0  0  0  0  0  0  0  0  0  0  0  0
   38.5320   31.3950   45.5440 C   0  0  0  0  0  0  0  0  0  0  0  0
   38.6390   32.6650   45.1290 N   0  0  0  0  0  0  0  0  0  0  0  0
   39.9630   34.2370   44.5830 H   0  0  0  0  0  0  0  0  0  0  0  0
   42.0210   32.8920   44.9560 H   0  0  0  0  0  0  0  0  0  0  0  0
   41.7340   30.5120   45.7330 H   0  0  0  0  0  0  0  0  0  0  0  0
   34.6200   30.4080   48.4940 C   0  0  0  0  0  0  0  0  0  0  0  0
   33.5630   30.6770   48.2150 H   0  0  0  0  0  0  0  0  0  0  0  0
   34.9810   31.2060   49.1570 H   0  0  0  0  0  0  0  0  0  0  0  0
   34.5580   29.1160   49.2100 C   0  0  0  0  0  0  0  0  0  0  0  0
   34.2810   29.3740   50.2820 H   0  0  0  0  0  0  0  0  0  0  0  0
   33.8070   28.4080   48.8960 H   0  0  0  0  0  0  0  0  0  0  0  0
   35.8540   28.4830   49.2660 N   0  0  0  0  0  0  0  0  0  0  0  0
   35.9270   27.5850   48.7840 H   0  0  0  0  0  0  0  0  0  0  0  0
   38.5240   28.1040   50.0260 H   0  0  0  0  0  0  0  0  0  0  0  0
   37.9470   28.8490   50.4360 N   0  0  0  0  0  0  0  0  0  0  0  0
   38.2340   29.0440   51.8670 C   0  0  0  0  0  2  0  0  0  0  0  0
   37.0700   29.8930   52.3520 C   0  0  0  0  0  2  0  0  0  0  0  0
   36.0470   29.8380   51.2100 C   0  0  0  0  0  2  0  0  0  0  0  0
   36.5420   28.5790   50.4990 C   0  0  1  0  0  3  0  0  0  0  0  0
  2  7  1  0  0  0  0
  2  1  1  0  0  0  0
  3  2  2  0  0  0  0
  4  5  2  0  0  0  0
  4  3  1  0  0  0  0
  5  6  1  0  0  0  0
  6  7  2  0  0  0  0
  7 20  1  0  0  0  0
  8  4  1  0  0  0  0
  9  5  1  0  0  0  0
 10  6  1  0  0  0  0
 11 12  2  0  0  0  0
 11 16  1  0  0  0  0
 12 13  1  0  0  0  0
 13 19  1  0  0  0  0
 13 14  2  0  0  0  0
 15 14  1  0  0  0  0
 15  3  1  0  0  0  0
 16 15  2  0  0  0  0
 17 11  1  0  0  0  0
 18 12  1  0  0  0  0
 20 22  1  0  0  0  0
 20 23  1  0  0  0  0
 21 20  1  0  0  0  0
 23 26  1  0  0  0  0
 23 24  1  0  0  0  0
 25 23  1  0  0  0  0
 27 26  1  0  0  0  0
 28 29  1  0  0  0  0
 29 33  1  0  0  0  0
 29 30  1  0  0  0  0
 30 31  1  0  0  0  0
 32 31  1  0  0  0  0
 33 26  1  6  0  0  0
 33 32  1  0  0  0  0
M  END
>  <minimizedAffinity>
-4.15586424

>  <minimizedRMSD>
0.867897034

$$$$
