
 OpenBabel03272504253D

 39 42  0  0  0  0  0  0  0  0999 V2000
   35.3420   29.4490   48.3400 C   0  0  0  0  0  0  0  0  0  0  0  0
   35.1910   28.5280   49.3150 C   0  0  0  0  0  0  0  0  0  0  0  0
   34.3270   27.5140   49.1820 C   0  0  0  0  0  0  0  0  0  0  0  0
   33.5920   27.4150   48.0410 N   0  0  0  0  0  0  0  0  0  0  0  0
   33.7500   28.3270   47.0880 C   0  0  0  0  0  0  0  0  0  0  0  0
   34.6140   29.3470   47.2140 N   0  0  0  0  0  0  0  0  0  0  0  0
   35.7780   28.6110   50.2220 H   0  0  0  0  0  0  0  0  0  0  0  0
   34.2120   26.7810   49.9680 H   0  0  0  0  0  0  0  0  0  0  0  0
   37.2640   32.3020   49.6150 C   0  0  0  0  0  0  0  0  0  0  0  0
   38.0900   32.6260   48.5220 C   0  0  0  0  0  0  0  0  0  0  0  0
   37.9660   31.8520   47.3680 C   0  0  0  0  0  0  0  0  0  0  0  0
   37.0590   30.8430   47.3740 N   0  0  0  0  0  0  0  0  0  0  0  0
   36.2730   30.5560   48.4520 C   0  0  0  0  0  0  0  0  0  0  0  0
   36.3880   31.2910   49.5570 N   0  0  0  0  0  0  0  0  0  0  0  0
   37.3930   32.9200   50.4770 H   0  0  0  0  0  0  0  0  0  0  0  0
   38.8130   33.4220   48.5030 H   0  0  0  0  0  0  0  0  0  0  0  0
   38.7010   32.0250   46.1870 N   0  0  0  0  0  0  0  0  0  0  0  0
   38.2890   32.0330   44.7970 C   0  0  0  0  0  2  0  0  0  0  0  0
   39.1280   33.1650   44.2410 C   0  0  0  0  0  2  0  0  0  0  0  0
   40.4620   32.9150   44.8930 C   0  0  0  0  0  2  0  0  0  0  0  0
   40.1350   32.2460   46.2030 C   0  0  0  0  0  3  0  0  0  0  0  0
   40.3880   32.9190   47.0500 H   0  0  0  0  0  0  0  0  0  0  0  0
   31.5630   27.9150   46.0440 C   0  0  0  0  0  0  0  0  0  0  0  0
   32.9400   28.1150   45.9110 C   0  0  0  0  0  0  0  0  0  0  0  0
   33.6110   28.1000   44.7030 C   0  0  0  0  0  0  0  0  0  0  0  0
   32.9000   27.8750   43.5440 C   0  0  0  0  0  0  0  0  0  0  0  0
   31.5390   27.6670   43.5810 C   0  0  0  0  0  0  0  0  0  0  0  0
   30.9650   27.7000   44.8100 C   0  0  0  0  0  0  0  0  0  0  0  0
   34.6790   28.2610   44.6510 H   0  0  0  0  0  0  0  0  0  0  0  0
   33.4370   27.8650   42.6010 H   0  0  0  0  0  0  0  0  0  0  0  0
   30.9530   27.4860   42.6900 H   0  0  0  0  0  0  0  0  0  0  0  0
   29.8800   27.5330   44.8340 H   0  0  0  0  0  0  0  0  0  0  0  0
   30.7190   27.9510   47.4800 S   0  0  0  0  0  0  0  0  0  0  0  0
   29.9360   26.6130   47.2670 O   0  0  0  0  0  0  0  0  0  0  0  0
   29.7430   29.0940   47.3960 O   0  0  0  0  0  0  0  0  0  0  0  0
   30.5940   27.7070   49.0540 C   0  0  0  0  0  0  0  0  0  0  0  0
   30.0980   26.5280   49.6530 F   0  0  0  0  0  0  0  0  0  0  0  0
   29.4310   28.4440   49.5770 F   0  0  0  0  0  0  0  0  0  0  0  0
   31.3730   28.4450   49.9910 F   0  0  0  0  0  0  0  0  0  0  0  0
  1 13  1  0  0  0  0
  1  2  1  0  0  0  0
  2  7  1  0  0  0  0
  3  2  2  0  0  0  0
  3  8  1  0  0  0  0
  4  3  1  0  0  0  0
  5  6  1  0  0  0  0
  5  4  2  0  0  0  0
  6  1  2  0  0  0  0
  9 15  1  0  0  0  0
 10  9  2  0  0  0  0
 11 12  2  0  0  0  0
 11 10  1  0  0  0  0
 12 13  1  0  0  0  0
 13 14  2  0  0  0  0
 14  9  1  0  0  0  0
 16 10  1  0  0  0  0
 17 21  1  0  0  0  0
 17 11  1  0  0  0  0
 18 17  1  0  0  0  0
 19 18  1  0  0  0  0
 19 20  1  0  0  0  0
 20 21  1  0  0  0  0
 21 22  1  0  0  0  0
 23 33  1  0  0  0  0
 24 23  1  0  0  0  0
 24  5  1  0  0  0  0
 25 24  2  0  0  0  0
 26 27  2  0  0  0  0
 26 25  1  0  0  0  0
 27 28  1  0  0  0  0
 28 32  1  0  0  0  0
 28 23  2  0  0  0  0
 29 25  1  0  0  0  0
 30 26  1  0  0  0  0
 31 27  1  0  0  0  0
 33 36  1  0  0  0  0
 34 33  2  0  0  0  0
 35 33  2  0  0  0  0
 36 38  1  0  0  0  0
 36 37  1  0  0  0  0
 36 39  1  0  0  0  0
M  END
>  <minimizedAffinity>
-6.37180471

>  <minimizedRMSD>
0.746755064

$$$$
