
 OpenBabel03272503553D

 31 34  0  0  0  0  0  0  0  0999 V2000
   37.4420   30.2070   50.7630 C   0  0  0  0  0  0  0  0  0  0  0  0
   38.2310   31.1750   50.1170 C   0  0  0  0  0  0  0  0  0  0  0  0
   37.8100   31.5400   48.8420 C   0  0  0  0  0  0  0  0  0  0  0  0
   36.7270   30.9610   48.3530 N   0  0  0  0  0  0  0  0  0  0  0  0
   35.9680   30.0530   48.9310 C   0  0  0  0  0  0  0  0  0  0  0  0
   36.3940   29.7250   50.1430 N   0  0  0  0  0  0  0  0  0  0  0  0
   39.0860   31.5870   50.5870 H   0  0  0  0  0  0  0  0  0  0  0  0
   38.5220   32.5070   48.0870 N   0  0  0  0  0  0  0  0  0  0  0  0
   38.6070   32.5470   46.6590 C   0  0  0  0  0  0  0  0  0  0  0  0
   40.0200   33.0460   46.4130 C   0  0  0  0  0  0  0  0  0  0  0  0
   40.1460   34.1140   47.4940 C   0  0  0  0  0  0  0  0  0  0  0  0
   39.2770   33.6100   48.6220 C   0  0  0  0  0  0  0  0  0  0  0  0
   38.6540   34.4330   49.0270 H   0  0  0  0  0  0  0  0  0  0  0  0
   34.7640   29.3400   48.5230 C   0  0  0  0  0  0  0  0  0  0  0  0
   33.9780   28.6630   49.3980 N   0  0  0  0  0  0  0  0  0  0  0  0
   32.8750   28.0180   49.0180 C   0  0  0  0  0  0  0  0  0  0  0  0
   32.4340   27.9720   47.7480 N   0  0  0  0  0  0  0  0  0  0  0  0
   33.1720   28.6270   46.8260 C   0  0  0  0  0  0  0  0  0  0  0  0
   32.7250   28.5820   45.5260 C   0  0  0  0  0  0  0  0  0  0  0  0
   33.4410   29.2370   44.5350 C   0  0  0  0  0  0  0  0  0  0  0  0
   34.5870   29.9070   44.9280 C   0  0  0  0  0  0  0  0  0  0  0  0
   34.9790   29.9120   46.2430 C   0  0  0  0  0  0  0  0  0  0  0  0
   34.2970   29.2790   47.2410 C   0  0  0  0  0  0  0  0  0  0  0  0
   32.2420   27.4690   49.7390 H   0  0  0  0  0  0  0  0  0  0  0  0
   31.8140   28.0390   45.2670 H   0  0  0  0  0  0  0  0  0  0  0  0
   33.0740   29.1910   43.5190 H   0  0  0  0  0  0  0  0  0  0  0  0
   35.1030   30.3970   44.1100 H   0  0  0  0  0  0  0  0  0  0  0  0
   35.8900   30.4720   46.3780 H   0  0  0  0  0  0  0  0  0  0  0  0
   37.7690   29.7410   52.0950 N   0  0  0  0  0  0  0  0  0  0  0  0
   36.9790   29.7430   52.7890 H   0  0  0  0  0  0  0  0  0  0  0  0
   38.7070   29.4120   52.4050 H   0  0  0  0  0  0  0  0  0  0  0  0
  1 29  1  0  0  0  0
  2  7  1  0  0  0  0
  2  1  2  0  0  0  0
  3  2  1  0  0  0  0
  4  3  2  0  0  0  0
  4  5  1  0  0  0  0
  5  6  2  0  0  0  0
  6  1  1  0  0  0  0
  8 12  1  0  0  0  0
  8  3  1  0  0  0  0
  9  8  1  0  0  0  0
 10  9  1  0  0  0  0
 10 11  1  0  0  0  0
 11 12  1  0  0  0  0
 12 13  1  0  0  0  0
 14  5  1  0  0  0  0
 14 15  1  0  0  0  0
 16 15  2  0  0  0  0
 16 24  1  0  0  0  0
 17 16  1  0  0  0  0
 18 23  1  0  0  0  0
 18 17  2  0  0  0  0
 19 18  1  0  0  0  0
 20 21  1  0  0  0  0
 20 19  2  0  0  0  0
 21 22  2  0  0  0  0
 22 28  1  0  0  0  0
 22 23  1  0  0  0  0
 23 14  2  0  0  0  0
 25 19  1  0  0  0  0
 26 20  1  0  0  0  0
 27 21  1  0  0  0  0
 29 31  1  0  0  0  0
 29 30  1  0  0  0  0
M  END
>  <minimizedAffinity>
-6.58511734

>  <minimizedRMSD>
0.318975329

$$$$
