
 OpenBabel03272504253D

 39 42  0  0  0  0  0  0  0  0999 V2000
   35.6260   29.6110   48.3910 C   0  0  0  0  0  0  0  0  0  0  0  0
   35.3760   28.8160   49.4530 C   0  0  0  0  0  0  0  0  0  0  0  0
   34.5040   27.8030   49.3680 C   0  0  0  0  0  0  0  0  0  0  0  0
   33.8620   27.5770   48.1900 N   0  0  0  0  0  0  0  0  0  0  0  0
   34.1170   28.3660   47.1520 C   0  0  0  0  0  0  0  0  0  0  0  0
   34.9900   29.3840   47.2280 N   0  0  0  0  0  0  0  0  0  0  0  0
   35.8890   28.9990   50.3890 H   0  0  0  0  0  0  0  0  0  0  0  0
   34.3100   27.1710   50.2240 H   0  0  0  0  0  0  0  0  0  0  0  0
   37.5330   32.5440   49.4980 C   0  0  0  0  0  0  0  0  0  0  0  0
   38.4140   32.7590   48.4220 C   0  0  0  0  0  0  0  0  0  0  0  0
   38.3310   31.8870   47.3360 C   0  0  0  0  0  0  0  0  0  0  0  0
   37.4080   30.8920   47.3890 N   0  0  0  0  0  0  0  0  0  0  0  0
   36.5680   30.7130   48.4490 C   0  0  0  0  0  0  0  0  0  0  0  0
   36.6430   31.5430   49.4880 N   0  0  0  0  0  0  0  0  0  0  0  0
   37.6310   33.2350   50.3070 H   0  0  0  0  0  0  0  0  0  0  0  0
   39.1490   33.5410   48.3670 H   0  0  0  0  0  0  0  0  0  0  0  0
   39.1230   31.9440   46.1820 N   0  0  0  0  0  0  0  0  0  0  0  0
   40.3970   31.3280   45.8640 C   0  0  0  0  0  2  0  0  0  0  0  0
   40.1800   30.9160   44.4230 C   0  0  0  0  0  2  0  0  0  0  0  0
   39.4770   32.1200   43.8550 C   0  0  0  0  0  2  0  0  0  0  0  0
   38.7270   32.7160   45.0190 C   0  0  0  0  0  3  0  0  0  0  0  0
   37.6320   32.6040   44.8660 H   0  0  0  0  0  0  0  0  0  0  0  0
   32.0260   27.7860   45.9990 C   0  0  0  0  0  0  0  0  0  0  0  0
   33.4020   28.0240   45.9450 C   0  0  0  0  0  0  0  0  0  0  0  0
   34.1580   27.9300   44.7930 C   0  0  0  0  0  0  0  0  0  0  0  0
   33.5410   27.5810   43.6120 C   0  0  0  0  0  0  0  0  0  0  0  0
   32.1870   27.3260   43.5720 C   0  0  0  0  0  0  0  0  0  0  0  0
   31.5260   27.4440   44.7500 C   0  0  0  0  0  0  0  0  0  0  0  0
   35.2220   28.1250   44.8010 H   0  0  0  0  0  0  0  0  0  0  0  0
   34.1440   27.5090   42.7130 H   0  0  0  0  0  0  0  0  0  0  0  0
   31.6740   27.0490   42.6620 H   0  0  0  0  0  0  0  0  0  0  0  0
   30.4470   27.2390   44.7140 H   0  0  0  0  0  0  0  0  0  0  0  0
   31.0790   27.9140   47.3640 S   0  0  0  0  0  0  0  0  0  0  0  0
   30.1410   26.7000   47.0520 O   0  0  0  0  0  0  0  0  0  0  0  0
   30.2770   29.1810   47.2350 O   0  0  0  0  0  0  0  0  0  0  0  0
   30.7930   27.6630   48.9160 C   0  0  0  0  0  0  0  0  0  0  0  0
   30.2830   26.4640   49.4620 F   0  0  0  0  0  0  0  0  0  0  0  0
   29.5510   28.3520   49.3070 F   0  0  0  0  0  0  0  0  0  0  0  0
   31.4340   28.4310   49.9300 F   0  0  0  0  0  0  0  0  0  0  0  0
  1 13  1  0  0  0  0
  1  2  1  0  0  0  0
  2  7  1  0  0  0  0
  3  2  2  0  0  0  0
  3  8  1  0  0  0  0
  4  3  1  0  0  0  0
  5  6  1  0  0  0  0
  5  4  2  0  0  0  0
  6  1  2  0  0  0  0
  9 15  1  0  0  0  0
 10  9  2  0  0  0  0
 11 12  2  0  0  0  0
 11 10  1  0  0  0  0
 12 13  1  0  0  0  0
 13 14  2  0  0  0  0
 14  9  1  0  0  0  0
 16 10  1  0  0  0  0
 17 11  1  0  0  0  0
 18 17  1  0  0  0  0
 19 18  1  0  0  0  0
 20 19  1  0  0  0  0
 20 21  1  0  0  0  0
 21 17  1  0  0  0  0
 22 21  1  0  0  0  0
 23 33  1  0  0  0  0
 24 23  1  0  0  0  0
 24  5  1  0  0  0  0
 25 29  1  0  0  0  0
 25 24  2  0  0  0  0
 26 25  1  0  0  0  0
 27 26  2  0  0  0  0
 27 28  1  0  0  0  0
 28 23  2  0  0  0  0
 30 26  1  0  0  0  0
 31 27  1  0  0  0  0
 32 28  1  0  0  0  0
 33 36  1  0  0  0  0
 34 33  2  0  0  0  0
 35 33  2  0  0  0  0
 36 38  1  0  0  0  0
 36 37  1  0  0  0  0
 36 39  1  0  0  0  0
M  END
>  <minimizedAffinity>
-6.44902182

>  <minimizedRMSD>
0.559201121

$$$$
