
 OpenBabel03272504263D

 39 42  0  0  0  0  0  0  0  0999 V2000
   35.3670   29.4490   48.3320 C   0  0  0  0  0  0  0  0  0  0  0  0
   35.2120   28.5280   49.3080 C   0  0  0  0  0  0  0  0  0  0  0  0
   34.3430   27.5180   49.1730 C   0  0  0  0  0  0  0  0  0  0  0  0
   33.6080   27.4230   48.0320 N   0  0  0  0  0  0  0  0  0  0  0  0
   33.7710   28.3340   47.0790 C   0  0  0  0  0  0  0  0  0  0  0  0
   34.6390   29.3500   47.2060 N   0  0  0  0  0  0  0  0  0  0  0  0
   35.7990   28.6080   50.2140 H   0  0  0  0  0  0  0  0  0  0  0  0
   34.2250   26.7850   49.9600 H   0  0  0  0  0  0  0  0  0  0  0  0
   37.2770   32.3150   49.5960 C   0  0  0  0  0  0  0  0  0  0  0  0
   38.1330   32.6110   48.5190 C   0  0  0  0  0  0  0  0  0  0  0  0
   38.0320   31.8140   47.3780 C   0  0  0  0  0  0  0  0  0  0  0  0
   37.1170   30.8110   47.3820 N   0  0  0  0  0  0  0  0  0  0  0  0
   36.3030   30.5520   48.4450 C   0  0  0  0  0  0  0  0  0  0  0  0
   36.3950   31.3090   49.5370 N   0  0  0  0  0  0  0  0  0  0  0  0
   37.3890   32.9500   50.4490 H   0  0  0  0  0  0  0  0  0  0  0  0
   38.8610   33.4010   48.5020 H   0  0  0  0  0  0  0  0  0  0  0  0
   38.7970   31.9570   46.2130 N   0  0  0  0  0  0  0  0  0  0  0  0
   38.5710   32.7350   45.0090 C   0  0  0  0  0  0  0  0  0  0  0  0
   39.9630   33.2640   44.7290 C   0  0  0  0  0  0  0  0  0  0  0  0
   40.8180   32.0550   44.9970 C   0  0  0  0  0  0  0  0  0  0  0  0
   40.0620   31.2680   46.0370 C   0  0  0  0  0  0  0  0  0  0  0  0
   40.6160   31.2780   47.0010 H   0  0  0  0  0  0  0  0  0  0  0  0
   31.5840   27.9250   46.0350 C   0  0  0  0  0  0  0  0  0  0  0  0
   32.9600   28.1260   45.9030 C   0  0  0  0  0  0  0  0  0  0  0  0
   33.6300   28.1150   44.6940 C   0  0  0  0  0  0  0  0  0  0  0  0
   32.9200   27.8940   43.5350 C   0  0  0  0  0  0  0  0  0  0  0  0
   31.5580   27.6850   43.5710 C   0  0  0  0  0  0  0  0  0  0  0  0
   30.9850   27.7140   44.8010 C   0  0  0  0  0  0  0  0  0  0  0  0
   34.6980   28.2760   44.6420 H   0  0  0  0  0  0  0  0  0  0  0  0
   33.4560   27.8870   42.5920 H   0  0  0  0  0  0  0  0  0  0  0  0
   30.9720   27.5080   42.6800 H   0  0  0  0  0  0  0  0  0  0  0  0
   29.9000   27.5460   44.8250 H   0  0  0  0  0  0  0  0  0  0  0  0
   30.7400   27.9560   47.4720 S   0  0  0  0  0  0  0  0  0  0  0  0
   29.9580   26.6180   47.2550 O   0  0  0  0  0  0  0  0  0  0  0  0
   29.7620   29.0980   47.3910 O   0  0  0  0  0  0  0  0  0  0  0  0
   30.6160   27.7080   49.0450 C   0  0  0  0  0  0  0  0  0  0  0  0
   30.1240   26.5250   49.6410 F   0  0  0  0  0  0  0  0  0  0  0  0
   29.4510   28.4390   49.5700 F   0  0  0  0  0  0  0  0  0  0  0  0
   31.3930   28.4450   49.9840 F   0  0  0  0  0  0  0  0  0  0  0  0
  1 13  1  0  0  0  0
  1  2  1  0  0  0  0
  2  7  1  0  0  0  0
  3  2  2  0  0  0  0
  3  8  1  0  0  0  0
  4  3  1  0  0  0  0
  5  6  1  0  0  0  0
  5  4  2  0  0  0  0
  6  1  2  0  0  0  0
  9 15  1  0  0  0  0
 10  9  2  0  0  0  0
 11 12  2  0  0  0  0
 11 10  1  0  0  0  0
 12 13  1  0  0  0  0
 13 14  2  0  0  0  0
 14  9  1  0  0  0  0
 16 10  1  0  0  0  0
 17 11  1  0  0  0  0
 18 17  1  0  0  0  0
 19 20  1  0  0  0  0
 19 18  1  0  0  0  0
 20 21  1  0  0  0  0
 21 17  1  0  0  0  0
 21 22  1  0  0  0  0
 23 33  1  0  0  0  0
 24 23  1  0  0  0  0
 24  5  1  0  0  0  0
 25 24  2  0  0  0  0
 26 27  2  0  0  0  0
 26 25  1  0  0  0  0
 27 28  1  0  0  0  0
 28 32  1  0  0  0  0
 28 23  2  0  0  0  0
 29 25  1  0  0  0  0
 30 26  1  0  0  0  0
 31 27  1  0  0  0  0
 33 36  1  0  0  0  0
 34 33  2  0  0  0  0
 35 33  2  0  0  0  0
 36 38  1  0  0  0  0
 36 37  1  0  0  0  0
 36 39  1  0  0  0  0
M  END
>  <minimizedAffinity>
-6.76277781

>  <minimizedRMSD>
0.729482234

$$$$
