
 OpenBabel03272504263D

 39 42  0  0  0  0  0  0  0  0999 V2000
   35.7490   29.7590   48.3240 C   0  0  0  0  0  0  0  0  0  0  0  0
   35.5190   28.8480   49.2930 C   0  0  0  0  0  0  0  0  0  0  0  0
   34.6640   27.8350   49.1010 C   0  0  0  0  0  0  0  0  0  0  0  0
   34.0200   27.7270   47.9080 N   0  0  0  0  0  0  0  0  0  0  0  0
   34.2550   28.6290   46.9610 C   0  0  0  0  0  0  0  0  0  0  0  0
   35.1100   29.6480   47.1450 N   0  0  0  0  0  0  0  0  0  0  0  0
   36.0330   28.9370   50.2420 H   0  0  0  0  0  0  0  0  0  0  0  0
   34.4850   27.1090   49.8830 H   0  0  0  0  0  0  0  0  0  0  0  0
   37.4930   32.6970   49.6610 C   0  0  0  0  0  0  0  0  0  0  0  0
   38.4980   32.9180   48.7010 C   0  0  0  0  0  0  0  0  0  0  0  0
   38.5520   32.0480   47.6120 C   0  0  0  0  0  0  0  0  0  0  0  0
   37.6340   31.0500   47.5490 N   0  0  0  0  0  0  0  0  0  0  0  0
   36.6720   30.8640   48.4990 C   0  0  0  0  0  0  0  0  0  0  0  0
   36.6160   31.6920   49.5410 N   0  0  0  0  0  0  0  0  0  0  0  0
   37.4890   33.3860   50.4770 H   0  0  0  0  0  0  0  0  0  0  0  0
   39.2310   33.7030   48.7370 H   0  0  0  0  0  0  0  0  0  0  0  0
   39.4790   32.1110   46.5620 N   0  0  0  0  0  0  0  0  0  0  0  0
   40.2600   31.0760   45.9120 C   0  0  0  0  0  2  0  0  0  0  0  0
   40.1730   31.5030   44.4610 C   0  0  0  0  0  2  0  0  0  0  0  0
   40.3640   32.9930   44.5600 C   0  0  0  0  0  2  0  0  0  0  0  0
   39.8190   33.3650   45.9150 C   0  0  0  0  0  3  0  0  0  0  0  0
   38.8970   33.9740   45.8020 H   0  0  0  0  0  0  0  0  0  0  0  0
   32.1750   28.1090   45.7610 C   0  0  0  0  0  0  0  0  0  0  0  0
   33.5390   28.4090   45.7270 C   0  0  0  0  0  0  0  0  0  0  0  0
   34.2850   28.4890   44.5660 C   0  0  0  0  0  0  0  0  0  0  0  0
   33.6680   28.2610   43.3560 C   0  0  0  0  0  0  0  0  0  0  0  0
   32.3250   27.9580   43.2950 C   0  0  0  0  0  0  0  0  0  0  0  0
   31.6740   27.9020   44.4840 C   0  0  0  0  0  0  0  0  0  0  0  0
   35.3400   28.7250   44.5900 H   0  0  0  0  0  0  0  0  0  0  0  0
   34.2620   28.3260   42.4510 H   0  0  0  0  0  0  0  0  0  0  0  0
   31.8120   27.7730   42.3620 H   0  0  0  0  0  0  0  0  0  0  0  0
   30.6030   27.6590   44.4300 H   0  0  0  0  0  0  0  0  0  0  0  0
   31.2410   28.0280   47.1390 S   0  0  0  0  0  0  0  0  0  0  0  0
   30.4220   26.7580   46.7330 O   0  0  0  0  0  0  0  0  0  0  0  0
   30.3160   29.2170   47.1210 O   0  0  0  0  0  0  0  0  0  0  0  0
   31.0040   27.6240   48.6660 C   0  0  0  0  0  0  0  0  0  0  0  0
   30.6190   26.3400   49.1120 F   0  0  0  0  0  0  0  0  0  0  0  0
   29.7090   28.1550   49.1230 F   0  0  0  0  0  0  0  0  0  0  0  0
   31.5860   28.3620   49.7360 F   0  0  0  0  0  0  0  0  0  0  0  0
  1 13  1  0  0  0  0
  1  2  1  0  0  0  0
  2  7  1  0  0  0  0
  3  2  2  0  0  0  0
  3  8  1  0  0  0  0
  4  3  1  0  0  0  0
  5  6  1  0  0  0  0
  5  4  2  0  0  0  0
  6  1  2  0  0  0  0
  9 15  1  0  0  0  0
 10 16  1  0  0  0  0
 10  9  2  0  0  0  0
 11 10  1  0  0  0  0
 12 11  2  0  0  0  0
 12 13  1  0  0  0  0
 13 14  2  0  0  0  0
 14  9  1  0  0  0  0
 17 11  1  0  0  0  0
 18 17  1  0  0  0  0
 19 20  1  0  0  0  0
 19 18  1  0  0  0  0
 20 21  1  0  0  0  0
 21 17  1  0  0  0  0
 22 21  1  0  0  0  0
 23 33  1  0  0  0  0
 24 23  1  0  0  0  0
 24  5  1  0  0  0  0
 25 29  1  0  0  0  0
 25 24  2  0  0  0  0
 26 25  1  0  0  0  0
 27 26  2  0  0  0  0
 27 28  1  0  0  0  0
 28 23  2  0  0  0  0
 30 26  1  0  0  0  0
 31 27  1  0  0  0  0
 32 28  1  0  0  0  0
 33 36  1  0  0  0  0
 34 33  2  0  0  0  0
 35 33  2  0  0  0  0
 36 37  1  0  0  0  0
 36 38  1  0  0  0  0
 36 39  1  0  0  0  0
M  END
>  <minimizedAffinity>
-6.68703842

>  <minimizedRMSD>
0.34298113

$$$$
