
 OpenBabel03272504263D

 39 42  0  0  0  0  0  0  0  0999 V2000
   35.7610   29.7420   48.3000 C   0  0  0  0  0  0  0  0  0  0  0  0
   35.5040   28.8960   49.3200 C   0  0  0  0  0  0  0  0  0  0  0  0
   34.6340   27.8870   49.1790 C   0  0  0  0  0  0  0  0  0  0  0  0
   34.0040   27.7170   47.9850 N   0  0  0  0  0  0  0  0  0  0  0  0
   34.2660   28.5550   46.9890 C   0  0  0  0  0  0  0  0  0  0  0  0
   35.1350   29.5690   47.1210 N   0  0  0  0  0  0  0  0  0  0  0  0
   36.0070   29.0350   50.2680 H   0  0  0  0  0  0  0  0  0  0  0  0
   34.4340   27.2140   50.0010 H   0  0  0  0  0  0  0  0  0  0  0  0
   37.5880   32.6810   49.5200 C   0  0  0  0  0  0  0  0  0  0  0  0
   38.5500   32.8820   48.5130 C   0  0  0  0  0  0  0  0  0  0  0  0
   38.5470   31.9980   47.4330 C   0  0  0  0  0  0  0  0  0  0  0  0
   37.6190   31.0080   47.4250 N   0  0  0  0  0  0  0  0  0  0  0  0
   36.7000   30.8420   48.4190 C   0  0  0  0  0  0  0  0  0  0  0  0
   36.6980   31.6820   49.4520 N   0  0  0  0  0  0  0  0  0  0  0  0
   37.6260   33.3800   50.3280 H   0  0  0  0  0  0  0  0  0  0  0  0
   39.2900   33.6610   48.5070 H   0  0  0  0  0  0  0  0  0  0  0  0
   39.4260   32.0420   46.3420 N   0  0  0  0  0  0  0  0  0  0  0  0
   40.3800   31.0690   45.8430 C   0  0  0  0  0  2  0  0  0  0  0  0
   40.1860   31.2010   44.3470 C   0  0  0  0  0  2  0  0  0  0  0  0
   40.0880   32.6930   44.1730 C   0  0  0  0  0  2  0  0  0  0  0  0
   39.5060   33.1970   45.4690 C   0  0  0  0  0  3  0  0  0  0  0  0
   38.4830   33.5930   45.2980 H   0  0  0  0  0  0  0  0  0  0  0  0
   32.1960   27.9770   45.7970 C   0  0  0  0  0  0  0  0  0  0  0  0
   33.5620   28.2700   45.7610 C   0  0  0  0  0  0  0  0  0  0  0  0
   34.3200   28.2850   44.6050 C   0  0  0  0  0  0  0  0  0  0  0  0
   33.7140   27.9940   43.4020 C   0  0  0  0  0  0  0  0  0  0  0  0
   32.3710   27.6920   43.3440 C   0  0  0  0  0  0  0  0  0  0  0  0
   31.7070   27.7030   44.5270 C   0  0  0  0  0  0  0  0  0  0  0  0
   35.3750   28.5190   44.6270 H   0  0  0  0  0  0  0  0  0  0  0  0
   34.3180   28.0080   42.5010 H   0  0  0  0  0  0  0  0  0  0  0  0
   31.8670   27.4580   42.4160 H   0  0  0  0  0  0  0  0  0  0  0  0
   30.6370   27.4600   44.4750 H   0  0  0  0  0  0  0  0  0  0  0  0
   31.2480   27.9730   47.1670 S   0  0  0  0  0  0  0  0  0  0  0  0
   30.3720   26.7350   46.7820 O   0  0  0  0  0  0  0  0  0  0  0  0
   30.3810   29.2040   47.1130 O   0  0  0  0  0  0  0  0  0  0  0  0
   30.9780   27.6170   48.7010 C   0  0  0  0  0  0  0  0  0  0  0  0
   30.5630   26.3530   49.1760 F   0  0  0  0  0  0  0  0  0  0  0  0
   29.6860   28.1830   49.1200 F   0  0  0  0  0  0  0  0  0  0  0  0
   31.5560   28.3750   49.7590 F   0  0  0  0  0  0  0  0  0  0  0  0
  1 13  1  0  0  0  0
  1  2  1  0  0  0  0
  2  7  1  0  0  0  0
  3  2  2  0  0  0  0
  3  8  1  0  0  0  0
  4  3  1  0  0  0  0
  5  6  1  0  0  0  0
  5  4  2  0  0  0  0
  6  1  2  0  0  0  0
  9 15  1  0  0  0  0
 10  9  2  0  0  0  0
 11 10  1  0  0  0  0
 12 11  2  0  0  0  0
 12 13  1  0  0  0  0
 13 14  2  0  0  0  0
 14  9  1  0  0  0  0
 16 10  1  0  0  0  0
 17 11  1  0  0  0  0
 18 17  1  0  0  0  0
 19 18  1  0  0  0  0
 20 19  1  0  0  0  0
 20 21  1  0  0  0  0
 21 17  1  0  0  0  0
 22 21  1  0  0  0  0
 23 33  1  0  0  0  0
 24 23  1  0  0  0  0
 24  5  1  0  0  0  0
 25 29  1  0  0  0  0
 25 24  2  0  0  0  0
 26 25  1  0  0  0  0
 27 26  2  0  0  0  0
 27 28  1  0  0  0  0
 28 23  2  0  0  0  0
 30 26  1  0  0  0  0
 31 27  1  0  0  0  0
 32 28  1  0  0  0  0
 33 36  1  0  0  0  0
 34 33  2  0  0  0  0
 35 33  2  0  0  0  0
 36 38  1  0  0  0  0
 36 37  1  0  0  0  0
 36 39  1  0  0  0  0
M  END
>  <minimizedAffinity>
-6.53461933

>  <minimizedRMSD>
0.413035244

$$$$
