
 OpenBabel03262521503D

 29 31  0  0  1  0  0  0  0  0999 V2000
   36.9240   27.6780   34.4770 C   0  0  0  0  0  0  0  0  0  0  0  0
   36.8340   27.4670   33.0840 C   0  0  0  0  0  0  0  0  0  0  0  0
   37.2730   26.2310   32.5970 C   0  0  0  0  0  0  0  0  0  0  0  0
   37.7510   25.3220   33.4890 N   0  0  0  0  0  0  0  0  0  0  0  0
   37.8180   25.5660   34.8050 C   0  0  0  0  0  0  0  0  0  0  0  0
   37.4050   26.7430   35.2950 N   0  0  0  0  0  0  0  0  0  0  0  0
   38.3250   24.5840   35.6780 N   0  0  0  0  0  0  0  0  0  0  0  0
   37.9000   24.4770   37.0730 C   0  0  0  0  0  0  0  0  0  0  0  0
   37.3990   23.0950   37.3390 C   0  0  0  0  0  0  0  0  0  0  0  0
   37.7440   22.1040   36.4200 N   0  0  0  0  0  0  0  0  0  0  0  0
   38.9020   22.2590   35.6110 C   0  0  0  0  0  0  0  0  0  0  0  0
   39.3020   23.6180   35.2310 C   0  0  2  0  0  0  0  0  0  0  0  0
   36.5750   28.6490   34.8070 H   0  0  0  0  0  0  0  0  0  0  0  0
   36.4710   28.1350   32.3410 H   0  0  0  0  0  0  0  0  0  0  0  0
   37.2490   25.9550   31.5320 H   0  0  0  0  0  0  0  0  0  0  0  0
   37.2150   25.2920   37.3290 H   0  0  0  0  0  0  0  0  0  0  0  0
   38.8340   24.6480   37.6700 H   0  0  0  0  0  0  0  0  0  0  0  0
   36.2930   23.1560   37.4750 H   0  0  0  0  0  0  0  0  0  0  0  0
   37.7680   22.7800   38.3510 H   0  0  0  0  0  0  0  0  0  0  0  0
   37.7670   21.1620   36.8710 H   0  0  0  0  0  0  0  0  0  0  0  0
   38.7400   21.6130   34.6980 H   0  0  0  0  0  0  0  0  0  0  0  0
   39.7360   21.7700   36.1590 H   0  0  0  0  0  0  0  0  0  0  0  0
   39.3810   23.6920   34.1060 H   0  0  0  0  0  0  0  0  0  0  0  0
   40.5880   24.0190   35.7820 N   0  0  2  0  0  0  0  0  0  0  0  0
   41.4690   24.5340   34.7550 C   0  0  0  0  0  2  0  0  0  0  0  0
   42.8820   24.1410   35.1420 C   0  0  0  0  0  2  0  0  0  0  0  0
   42.7230   23.3840   36.4200 C   0  0  0  0  0  2  0  0  0  0  0  0
   41.2800   22.9090   36.3960 C   0  0  0  0  0  3  0  0  0  0  0  0
   40.9210   22.7880   37.4310 H   0  0  0  0  0  0  0  0  0  0  0  0
  1 13  1  0  0  0  0
  1  6  1  0  0  0  0
  2  1  2  0  0  0  0
  3  2  1  0  0  0  0
  3  4  2  0  0  0  0
  4  5  1  0  0  0  0
  5  6  2  0  0  0  0
  5  7  1  0  0  0  0
  7  8  1  0  0  0  0
  8 16  1  0  0  0  0
  8  9  1  0  0  0  0
  8 17  1  0  0  0  0
  9 18  1  0  0  0  0
  9 19  1  0  0  0  0
 10 20  1  0  0  0  0
 10  9  1  0  0  0  0
 11 22  1  0  0  0  0
 11 10  1  0  0  0  0
 12 23  1  6  0  0  0
 12 11  1  0  0  0  0
 12  7  1  0  0  0  0
 12 24  1  0  0  0  0
 14  2  1  0  0  0  0
 15  3  1  0  0  0  0
 21 11  1  0  0  0  0
 24 25  1  6  0  0  0
 24 28  1  0  0  0  0
 25 26  1  0  0  0  0
 26 27  1  0  0  0  0
 28 27  1  0  0  0  0
 28 29  1  0  0  0  0
M  END
>  <minimizedAffinity>
-4.72997999

$$$$

 OpenBabel03262521503D

 29 31  0  0  1  0  0  0  0  0999 V2000
   35.7130   20.7410   35.5020 C   0  0  0  0  0  0  0  0  0  0  0  0
   35.6600   20.4640   34.1190 C   0  0  0  0  0  0  0  0  0  0  0  0
   36.6160   21.0850   33.3080 C   0  0  0  0  0  0  0  0  0  0  0  0
   37.5250   21.9070   33.8990 N   0  0  0  0  0  0  0  0  0  0  0  0
   37.5370   22.1430   35.2190 C   0  0  0  0  0  0  0  0  0  0  0  0
   36.6310   21.5590   36.0160 N   0  0  0  0  0  0  0  0  0  0  0  0
   38.5030   23.0050   35.7710 N   0  0  0  0  0  0  0  0  0  0  0  0
   38.9920   22.8640   37.1410 C   0  0  0  0  0  0  0  0  0  0  0  0
   40.4810   22.7490   37.1330 C   0  0  0  0  0  0  0  0  0  0  0  0
   41.1440   23.1500   35.9730 N   0  0  0  0  0  0  0  0  0  0  0  0
   40.5330   24.0830   35.0930 C   0  0  0  0  0  0  0  0  0  0  0  0
   39.0690   24.0860   34.9980 C   0  0  2  0  0  0  0  0  0  0  0  0
   34.9540   20.2400   36.0890 H   0  0  0  0  0  0  0  0  0  0  0  0
   34.9790   19.8330   33.6020 H   0  0  0  0  0  0  0  0  0  0  0  0
   36.6730   20.9420   32.2180 H   0  0  0  0  0  0  0  0  0  0  0  0
   38.4530   22.0640   37.6610 H   0  0  0  0  0  0  0  0  0  0  0  0
   38.7020   23.8210   37.6480 H   0  0  0  0  0  0  0  0  0  0  0  0
   40.7410   21.6990   37.4080 H   0  0  0  0  0  0  0  0  0  0  0  0
   40.8810   23.3500   37.9930 H   0  0  0  0  0  0  0  0  0  0  0  0
   42.1170   23.4670   36.1850 H   0  0  0  0  0  0  0  0  0  0  0  0
   41.0050   23.9190   34.0790 H   0  0  0  0  0  0  0  0  0  0  0  0
   40.8830   25.0900   35.4090 H   0  0  0  0  0  0  0  0  0  0  0  0
   38.7560   23.9510   33.9210 H   0  0  0  0  0  0  0  0  0  0  0  0
   38.4610   25.3200   35.4730 N   0  0  2  0  0  0  0  0  0  0  0  0
   37.4050   25.7680   34.5890 C   0  0  0  0  0  2  0  0  0  0  0  0
   37.4190   27.2840   34.6090 C   0  0  0  0  0  2  0  0  0  0  0  0
   38.5340   27.6350   35.5390 C   0  0  0  0  0  2  0  0  0  0  0  0
   39.4190   26.4000   35.5450 C   0  0  0  0  0  3  0  0  0  0  0  0
   39.9550   26.3420   36.5060 H   0  0  0  0  0  0  0  0  0  0  0  0
  1  6  1  0  0  0  0
  1 13  1  0  0  0  0
  2  1  2  0  0  0  0
  3  4  2  0  0  0  0
  3  2  1  0  0  0  0
  4  5  1  0  0  0  0
  5  7  1  0  0  0  0
  5  6  2  0  0  0  0
  7  8  1  0  0  0  0
  8 17  1  0  0  0  0
  8 16  1  0  0  0  0
  9  8  1  0  0  0  0
  9 18  1  0  0  0  0
  9 19  1  0  0  0  0
 10 20  1  0  0  0  0
 10  9  1  0  0  0  0
 11 22  1  0  0  0  0
 11 10  1  0  0  0  0
 12 23  1  6  0  0  0
 12 11  1  0  0  0  0
 12 24  1  0  0  0  0
 12  7  1  0  0  0  0
 14  2  1  0  0  0  0
 15  3  1  0  0  0  0
 21 11  1  0  0  0  0
 24 25  1  6  0  0  0
 24 28  1  0  0  0  0
 25 26  1  0  0  0  0
 26 27  1  0  0  0  0
 27 28  1  0  0  0  0
 28 29  1  0  0  0  0
M  END
>  <minimizedAffinity>
-4.71414042

$$$$

 OpenBabel03262521503D

 29 31  0  0  1  0  0  0  0  0999 V2000
   42.3270   21.3630   34.2820 C   0  0  0  0  0  0  0  0  0  0  0  0
   43.1910   21.4420   35.3960 C   0  0  0  0  0  0  0  0  0  0  0  0
   42.6640   21.9890   36.5720 C   0  0  0  0  0  0  0  0  0  0  0  0
   41.3680   22.4030   36.5640 N   0  0  0  0  0  0  0  0  0  0  0  0
   40.5850   22.3100   35.4810 C   0  0  0  0  0  0  0  0  0  0  0  0
   41.0670   21.7900   34.3430 N   0  0  0  0  0  0  0  0  0  0  0  0
   39.2510   22.7580   35.5360 N   0  0  0  0  0  0  0  0  0  0  0  0
   38.1940   22.1830   34.7070 C   0  0  0  0  0  0  0  0  0  0  0  0
   37.0720   21.7180   35.5770 C   0  0  0  0  0  0  0  0  0  0  0  0
   37.0320   22.2100   36.8820 N   0  0  0  0  0  0  0  0  0  0  0  0
   37.6640   23.4440   37.1940 C   0  0  0  0  0  0  0  0  0  0  0  0
   38.8570   23.8220   36.4290 C   0  0  2  0  0  0  0  0  0  0  0  0
   42.7780   20.9350   33.3950 H   0  0  0  0  0  0  0  0  0  0  0  0
   44.2060   21.1350   35.4630 H   0  0  0  0  0  0  0  0  0  0  0  0
   43.2420   22.0980   37.5020 H   0  0  0  0  0  0  0  0  0  0  0  0
   38.6070   21.4370   34.0200 H   0  0  0  0  0  0  0  0  0  0  0  0
   37.8340   23.0330   34.0710 H   0  0  0  0  0  0  0  0  0  0  0  0
   37.0730   20.6020   35.5630 H   0  0  0  0  0  0  0  0  0  0  0  0
   36.1060   21.9830   35.0710 H   0  0  0  0  0  0  0  0  0  0  0  0
   36.0540   22.2240   37.2500 H   0  0  0  0  0  0  0  0  0  0  0  0
   37.8830   23.4160   38.3030 H   0  0  0  0  0  0  0  0  0  0  0  0
   36.8880   24.2320   37.0790 H   0  0  0  0  0  0  0  0  0  0  0  0
   39.7150   24.0250   37.1360 H   0  0  0  0  0  0  0  0  0  0  0  0
   38.6700   25.0170   35.6200 N   0  0  2  0  0  0  0  0  0  0  0  0
   39.9220   25.4760   35.0540 C   0  0  0  0  0  2  0  0  0  0  0  0
   39.8550   26.9900   34.9920 C   0  0  0  0  0  2  0  0  0  0  0  0
   38.5140   27.3280   35.5560 C   0  0  0  0  0  2  0  0  0  0  0  0
   38.1450   26.1170   36.3970 C   0  0  0  0  0  3  0  0  0  0  0  0
   37.0480   26.0310   36.4470 H   0  0  0  0  0  0  0  0  0  0  0  0
  1  6  2  0  0  0  0
  1  2  1  0  0  0  0
  2 14  1  0  0  0  0
  2  3  2  0  0  0  0
  3 15  1  0  0  0  0
  4  3  1  0  0  0  0
  5  7  1  0  0  0  0
  5  4  2  0  0  0  0
  6  5  1  0  0  0  0
  7 12  1  0  0  0  0
  8  7  1  0  0  0  0
  8  9  1  0  0  0  0
  9 10  1  0  0  0  0
 10 11  1  0  0  0  0
 10 20  1  0  0  0  0
 11 21  1  0  0  0  0
 12 23  1  1  0  0  0
 12 11  1  0  0  0  0
 13  1  1  0  0  0  0
 16  8  1  0  0  0  0
 17  8  1  0  0  0  0
 18  9  1  0  0  0  0
 19  9  1  0  0  0  0
 22 11  1  0  0  0  0
 24 25  1  1  0  0  0
 24 28  1  0  0  0  0
 24 12  1  0  0  0  0
 26 25  1  0  0  0  0
 26 27  1  0  0  0  0
 27 28  1  0  0  0  0
 28 29  1  0  0  0  0
M  END
>  <minimizedAffinity>
-4.62531424

$$$$

 OpenBabel03262521503D

 29 31  0  0  1  0  0  0  0  0999 V2000
   35.6990   23.0090   31.6090 C   0  0  0  0  0  0  0  0  0  0  0  0
   35.5020   24.3710   31.2920 C   0  0  0  0  0  0  0  0  0  0  0  0
   36.3980   25.2900   31.8510 C   0  0  0  0  0  0  0  0  0  0  0  0
   37.3890   24.8160   32.6540 N   0  0  0  0  0  0  0  0  0  0  0  0
   37.5360   23.5130   32.9280 C   0  0  0  0  0  0  0  0  0  0  0  0
   36.6910   22.6130   32.4050 N   0  0  0  0  0  0  0  0  0  0  0  0
   38.5820   23.0850   33.7680 N   0  0  0  0  0  0  0  0  0  0  0  0
   39.1950   21.7630   33.6490 C   0  0  0  0  0  0  0  0  0  0  0  0
   40.6720   21.9100   33.4750 C   0  0  0  0  0  0  0  0  0  0  0  0
   41.2340   23.1410   33.8150 N   0  0  0  0  0  0  0  0  0  0  0  0
   40.5740   23.9890   34.7450 C   0  0  0  0  0  0  0  0  0  0  0  0
   39.1100   23.9440   34.8020 C   0  0  2  0  0  0  0  0  0  0  0  0
   34.9820   22.3360   31.1560 H   0  0  0  0  0  0  0  0  0  0  0  0
   34.7520   24.7990   30.6740 H   0  0  0  0  0  0  0  0  0  0  0  0
   36.3430   26.3750   31.6730 H   0  0  0  0  0  0  0  0  0  0  0  0
   38.6810   21.1680   32.8870 H   0  0  0  0  0  0  0  0  0  0  0  0
   38.9920   21.2630   34.6320 H   0  0  0  0  0  0  0  0  0  0  0  0
   40.9190   21.6260   32.4240 H   0  0  0  0  0  0  0  0  0  0  0  0
   41.1750   21.1130   34.0850 H   0  0  0  0  0  0  0  0  0  0  0  0
   42.2330   23.0330   34.0990 H   0  0  0  0  0  0  0  0  0  0  0  0
   40.9400   25.0370   34.5320 H   0  0  0  0  0  0  0  0  0  0  0  0
   40.9900   23.7420   35.7450 H   0  0  0  0  0  0  0  0  0  0  0  0
   38.6890   24.9810   34.6470 H   0  0  0  0  0  0  0  0  0  0  0  0
   38.5960   23.4550   36.0730 N   0  0  2  0  0  0  0  0  0  0  0  0
   37.7370   24.4320   36.7110 C   0  0  0  0  0  2  0  0  0  0  0  0
   37.9330   24.2870   38.2080 C   0  0  0  0  0  2  0  0  0  0  0  0
   38.9400   23.1930   38.3490 C   0  0  0  0  0  2  0  0  0  0  0  0
   39.6580   23.1700   37.0100 C   0  0  0  0  0  3  0  0  0  0  0  0
   40.0420   22.1540   36.8220 H   0  0  0  0  0  0  0  0  0  0  0  0
  1  6  1  0  0  0  0
  2  1  2  0  0  0  0
  2  3  1  0  0  0  0
  3  4  2  0  0  0  0
  4  5  1  0  0  0  0
  5  7  1  0  0  0  0
  6  5  2  0  0  0  0
  7 12  1  0  0  0  0
  8  7  1  0  0  0  0
  8 17  1  0  0  0  0
  9  8  1  0  0  0  0
  9 10  1  0  0  0  0
  9 19  1  0  0  0  0
 10 20  1  0  0  0  0
 10 11  1  0  0  0  0
 11 12  1  0  0  0  0
 11 22  1  0  0  0  0
 12 23  1  6  0  0  0
 12 24  1  0  0  0  0
 13  1  1  0  0  0  0
 14  2  1  0  0  0  0
 15  3  1  0  0  0  0
 16  8  1  0  0  0  0
 18  9  1  0  0  0  0
 21 11  1  0  0  0  0
 24 25  1  1  0  0  0
 24 28  1  0  0  0  0
 25 26  1  0  0  0  0
 26 27  1  0  0  0  0
 28 27  1  0  0  0  0
 29 28  1  0  0  0  0
M  END
>  <minimizedAffinity>
-4.61510086

$$$$

 OpenBabel03262521503D

 29 31  0  0  1  0  0  0  0  0999 V2000
   38.1490   23.9250   38.1590 C   0  0  0  0  0  0  0  0  0  0  0  0
   39.2780   23.0790   38.2020 C   0  0  0  0  0  0  0  0  0  0  0  0
   39.9860   22.9020   37.0080 C   0  0  0  0  0  0  0  0  0  0  0  0
   39.5450   23.5500   35.8960 N   0  0  0  0  0  0  0  0  0  0  0  0
   38.4660   24.3440   35.9020 C   0  0  0  0  0  0  0  0  0  0  0  0
   37.7710   24.5290   37.0330 N   0  0  0  0  0  0  0  0  0  0  0  0
   38.0590   24.9870   34.7170 N   0  0  0  0  0  0  0  0  0  0  0  0
   37.3490   26.2650   34.7200 C   0  0  0  0  0  0  0  0  0  0  0  0
   38.0880   27.2500   33.8730 C   0  0  0  0  0  0  0  0  0  0  0  0
   39.0320   26.7410   32.9810 N   0  0  0  0  0  0  0  0  0  0  0  0
   38.9220   25.4000   32.5210 C   0  0  0  0  0  0  0  0  0  0  0  0
   38.3280   24.4080   33.4220 C   0  0  2  0  0  0  0  0  0  0  0  0
   37.6320   24.0300   39.1040 H   0  0  0  0  0  0  0  0  0  0  0  0
   39.6700   22.5490   39.0350 H   0  0  0  0  0  0  0  0  0  0  0  0
   40.8820   22.2680   36.9220 H   0  0  0  0  0  0  0  0  0  0  0  0
   37.1350   26.5830   35.7460 H   0  0  0  0  0  0  0  0  0  0  0  0
   36.3590   26.0440   34.2430 H   0  0  0  0  0  0  0  0  0  0  0  0
   38.5410   28.0100   34.5540 H   0  0  0  0  0  0  0  0  0  0  0  0
   37.3340   27.8410   33.2890 H   0  0  0  0  0  0  0  0  0  0  0  0
   39.1550   27.3750   32.1600 H   0  0  0  0  0  0  0  0  0  0  0  0
   39.9610   25.0890   32.2010 H   0  0  0  0  0  0  0  0  0  0  0  0
   38.3360   25.4390   31.5770 H   0  0  0  0  0  0  0  0  0  0  0  0
   39.0430   23.5440   33.5630 H   0  0  0  0  0  0  0  0  0  0  0  0
   37.0760   23.8550   32.9280 N   0  0  2  0  0  0  0  0  0  0  0  0
   37.1310   22.4100   32.8390 C   0  0  0  0  0  2  0  0  0  0  0  0
   36.2850   22.0040   31.6480 C   0  0  0  0  0  2  0  0  0  0  0  0
   35.7760   23.2940   31.0930 C   0  0  0  0  0  2  0  0  0  0  0  0
   36.7610   24.3340   31.6010 C   0  0  0  0  0  3  0  0  0  0  0  0
   36.2510   25.3070   31.6820 H   0  0  0  0  0  0  0  0  0  0  0  0
  1  2  1  0  0  0  0
  1 13  1  0  0  0  0
  2 14  1  0  0  0  0
  3  2  2  0  0  0  0
  4  5  2  0  0  0  0
  4  3  1  0  0  0  0
  5  6  1  0  0  0  0
  6  1  2  0  0  0  0
  7  8  1  0  0  0  0
  7  5  1  0  0  0  0
  8 16  1  0  0  0  0
  9 18  1  0  0  0  0
  9  8  1  0  0  0  0
 10  9  1  0  0  0  0
 11 10  1  0  0  0  0
 11 12  1  0  0  0  0
 12 23  1  1  0  0  0
 12  7  1  0  0  0  0
 15  3  1  0  0  0  0
 17  8  1  0  0  0  0
 19  9  1  0  0  0  0
 20 10  1  0  0  0  0
 21 11  1  0  0  0  0
 22 11  1  0  0  0  0
 24 25  1  6  0  0  0
 24 12  1  0  0  0  0
 26 25  1  0  0  0  0
 27 28  1  0  0  0  0
 27 26  1  0  0  0  0
 28 29  1  0  0  0  0
 28 24  1  0  0  0  0
M  END
>  <minimizedAffinity>
-4.55583

$$$$

 OpenBabel03262521503D

 29 31  0  0  1  0  0  0  0  0999 V2000
   42.1890   25.8370   33.8180 C   0  0  0  0  0  0  0  0  0  0  0  0
   41.4800   27.0570   33.8590 C   0  0  0  0  0  0  0  0  0  0  0  0
   40.2510   27.0580   34.5280 C   0  0  0  0  0  0  0  0  0  0  0  0
   39.8240   25.8950   35.0900 N   0  0  0  0  0  0  0  0  0  0  0  0
   40.5310   24.7580   35.0260 C   0  0  0  0  0  0  0  0  0  0  0  0
   41.7110   24.7330   34.3900 N   0  0  0  0  0  0  0  0  0  0  0  0
   40.0350   23.5860   35.6280 N   0  0  0  0  0  0  0  0  0  0  0  0
   40.9110   22.5350   36.1430 C   0  0  0  0  0  0  0  0  0  0  0  0
   40.5850   22.2700   37.5770 C   0  0  0  0  0  0  0  0  0  0  0  0
   39.3570   22.7360   38.0480 N   0  0  0  0  0  0  0  0  0  0  0  0
   38.2860   22.9550   37.1400 C   0  0  0  0  0  0  0  0  0  0  0  0
   38.6150   23.3620   35.7690 C   0  0  2  0  0  0  0  0  0  0  0  0
   43.1320   25.8840   33.2890 H   0  0  0  0  0  0  0  0  0  0  0  0
   41.7610   27.9930   33.4420 H   0  0  0  0  0  0  0  0  0  0  0  0
   39.6130   27.9500   34.6250 H   0  0  0  0  0  0  0  0  0  0  0  0
   41.9590   22.7680   35.9260 H   0  0  0  0  0  0  0  0  0  0  0  0
   40.6560   21.6270   35.5370 H   0  0  0  0  0  0  0  0  0  0  0  0
   41.4310   22.6560   38.1930 H   0  0  0  0  0  0  0  0  0  0  0  0
   40.6280   21.1600   37.7430 H   0  0  0  0  0  0  0  0  0  0  0  0
   39.0150   22.1560   38.8460 H   0  0  0  0  0  0  0  0  0  0  0  0
   37.6020   23.7070   37.6340 H   0  0  0  0  0  0  0  0  0  0  0  0
   37.6990   22.0120   37.1130 H   0  0  0  0  0  0  0  0  0  0  0  0
   38.0800   24.3240   35.5180 H   0  0  0  0  0  0  0  0  0  0  0  0
   38.2310   22.3790   34.7670 N   0  0  2  0  0  0  0  0  0  0  0  0
   37.9170   23.0070   33.5000 C   0  0  0  0  0  2  0  0  0  0  0  0
   36.8140   22.1870   32.8580 C   0  0  0  0  0  2  0  0  0  0  0  0
   36.5430   21.0930   33.8380 C   0  0  0  0  0  2  0  0  0  0  0  0
   37.0530   21.6390   35.1600 C   0  0  0  0  0  3  0  0  0  0  0  0
   37.3550   20.8000   35.8080 H   0  0  0  0  0  0  0  0  0  0  0  0
  1  2  2  0  0  0  0
  1  6  1  0  0  0  0
  2  3  1  0  0  0  0
  3 15  1  0  0  0  0
  3  4  2  0  0  0  0
  5  4  1  0  0  0  0
  5  7  1  0  0  0  0
  6  5  2  0  0  0  0
  7 12  1  0  0  0  0
  7  8  1  0  0  0  0
  8  9  1  0  0  0  0
  9 19  1  0  0  0  0
  9 10  1  0  0  0  0
  9 18  1  0  0  0  0
 10 20  1  0  0  0  0
 11 21  1  0  0  0  0
 11 10  1  0  0  0  0
 12 23  1  6  0  0  0
 12 11  1  0  0  0  0
 13  1  1  0  0  0  0
 14  2  1  0  0  0  0
 16  8  1  0  0  0  0
 17  8  1  0  0  0  0
 22 11  1  0  0  0  0
 24 25  1  6  0  0  0
 24 28  1  0  0  0  0
 24 12  1  0  0  0  0
 26 25  1  0  0  0  0
 26 27  1  0  0  0  0
 27 28  1  0  0  0  0
 28 29  1  0  0  0  0
M  END
>  <minimizedAffinity>
-4.53525782

$$$$

 OpenBabel03262521503D

 29 31  0  0  1  0  0  0  0  0999 V2000
   38.0080   24.3100   37.6770 C   0  0  0  0  0  0  0  0  0  0  0  0
   38.9510   23.3320   38.0590 C   0  0  0  0  0  0  0  0  0  0  0  0
   39.6030   22.6400   37.0310 C   0  0  0  0  0  0  0  0  0  0  0  0
   39.2870   22.9520   35.7450 N   0  0  0  0  0  0  0  0  0  0  0  0
   38.3830   23.8890   35.4290 C   0  0  0  0  0  0  0  0  0  0  0  0
   37.7460   24.5650   36.3950 N   0  0  0  0  0  0  0  0  0  0  0  0
   38.0990   24.1660   34.0780 N   0  0  0  0  0  0  0  0  0  0  0  0
   37.6520   25.4810   33.6220 C   0  0  0  0  0  0  0  0  0  0  0  0
   38.5620   25.9730   32.5430 C   0  0  0  0  0  0  0  0  0  0  0  0
   39.3810   25.0300   31.9220 N   0  0  0  0  0  0  0  0  0  0  0  0
   39.0100   23.6580   31.9200 C   0  0  0  0  0  0  0  0  0  0  0  0
   38.2410   23.1500   33.0610 C   0  0  2  0  0  0  0  0  0  0  0  0
   37.5290   24.8180   38.5040 H   0  0  0  0  0  0  0  0  0  0  0  0
   39.2390   23.0460   39.0410 H   0  0  0  0  0  0  0  0  0  0  0  0
   40.3570   21.8580   37.2090 H   0  0  0  0  0  0  0  0  0  0  0  0
   37.5110   26.1550   34.4730 H   0  0  0  0  0  0  0  0  0  0  0  0
   36.6340   25.3020   33.1870 H   0  0  0  0  0  0  0  0  0  0  0  0
   39.1580   26.8180   32.9630 H   0  0  0  0  0  0  0  0  0  0  0  0
   37.9320   26.4660   31.7550 H   0  0  0  0  0  0  0  0  0  0  0  0
   39.6190   25.3210   30.9470 H   0  0  0  0  0  0  0  0  0  0  0  0
   39.9660   23.0720   31.7800 H   0  0  0  0  0  0  0  0  0  0  0  0
   38.4340   23.4900   30.9840 H   0  0  0  0  0  0  0  0  0  0  0  0
   38.7760   22.2660   33.5180 H   0  0  0  0  0  0  0  0  0  0  0  0
   36.9010   22.7080   32.7040 N   0  0  2  0  0  0  0  0  0  0  0  0
   36.6010   21.4090   33.2710 C   0  0  0  0  0  2  0  0  0  0  0  0
   35.7050   20.6870   32.2830 C   0  0  0  0  0  2  0  0  0  0  0  0
   35.5400   21.6520   31.1540 C   0  0  0  0  0  2  0  0  0  0  0  0
   36.7400   22.5770   31.2740 C   0  0  0  0  0  3  0  0  0  0  0  0
   36.4830   23.5600   30.8490 H   0  0  0  0  0  0  0  0  0  0  0  0
  1  2  1  0  0  0  0
  1 13  1  0  0  0  0
  2 14  1  0  0  0  0
  3 15  1  0  0  0  0
  3  2  2  0  0  0  0
  4  3  1  0  0  0  0
  5  4  2  0  0  0  0
  5  6  1  0  0  0  0
  6  1  2  0  0  0  0
  7  5  1  0  0  0  0
  8  7  1  0  0  0  0
  8 16  1  0  0  0  0
  9 18  1  0  0  0  0
  9  8  1  0  0  0  0
 10  9  1  0  0  0  0
 11 10  1  0  0  0  0
 11 12  1  0  0  0  0
 12 23  1  1  0  0  0
 12  7  1  0  0  0  0
 17  8  1  0  0  0  0
 19  9  1  0  0  0  0
 20 10  1  0  0  0  0
 21 11  1  0  0  0  0
 22 11  1  0  0  0  0
 24 12  1  0  0  0  0
 24 25  1  1  0  0  0
 26 25  1  0  0  0  0
 27 28  1  0  0  0  0
 27 26  1  0  0  0  0
 28 24  1  0  0  0  0
 29 28  1  0  0  0  0
M  END
>  <minimizedAffinity>
-4.48620605

$$$$

 OpenBabel03262521503D

 29 31  0  0  1  0  0  0  0  0999 V2000
   36.1460   29.6990   30.8790 C   0  0  0  0  0  0  0  0  0  0  0  0
   37.0480   28.7340   31.3760 C   0  0  0  0  0  0  0  0  0  0  0  0
   36.7400   28.1530   32.6120 C   0  0  0  0  0  0  0  0  0  0  0  0
   35.6040   28.5510   33.2450 N   0  0  0  0  0  0  0  0  0  0  0  0
   34.7760   29.4730   32.7350 C   0  0  0  0  0  0  0  0  0  0  0  0
   35.0500   30.0450   31.5530 N   0  0  0  0  0  0  0  0  0  0  0  0
   33.6160   29.8450   33.4400 N   0  0  0  0  0  0  0  0  0  0  0  0
   32.4060   30.3190   32.7690 C   0  0  0  0  0  0  0  0  0  0  0  0
   31.2420   29.4810   33.1860 C   0  0  0  0  0  0  0  0  0  0  0  0
   31.3930   28.7060   34.3360 N   0  0  0  0  0  0  0  0  0  0  0  0
   32.3460   29.0790   35.3220 C   0  0  0  0  0  0  0  0  0  0  0  0
   33.5610   29.7720   34.8810 C   0  0  2  0  0  0  0  0  0  0  0  0
   36.4250   30.1220   29.9220 H   0  0  0  0  0  0  0  0  0  0  0  0
   37.9450   28.3830   30.9290 H   0  0  0  0  0  0  0  0  0  0  0  0
   37.3680   27.3900   33.0960 H   0  0  0  0  0  0  0  0  0  0  0  0
   32.5730   30.4030   31.6900 H   0  0  0  0  0  0  0  0  0  0  0  0
   32.2590   31.3640   33.1490 H   0  0  0  0  0  0  0  0  0  0  0  0
   30.9420   28.8570   32.3110 H   0  0  0  0  0  0  0  0  0  0  0  0
   30.3600   30.1610   33.3340 H   0  0  0  0  0  0  0  0  0  0  0  0
   30.4730   28.5320   34.7980 H   0  0  0  0  0  0  0  0  0  0  0  0
   32.6000   28.1350   35.8900 H   0  0  0  0  0  0  0  0  0  0  0  0
   31.8060   29.7150   36.0560 H   0  0  0  0  0  0  0  0  0  0  0  0
   34.4730   29.2100   35.2400 H   0  0  0  0  0  0  0  0  0  0  0  0
   33.6660   31.1330   35.3860 N   0  0  2  0  0  0  0  0  0  0  0  0
   35.0110   31.4320   35.8350 C   0  0  0  0  0  2  0  0  0  0  0  0
   34.8880   32.3800   37.0110 C   0  0  0  0  0  2  0  0  0  0  0  0
   33.4160   32.5760   37.1820 C   0  0  0  0  0  2  0  0  0  0  0  0
   32.7980   31.3560   36.5190 C   0  0  0  0  0  3  0  0  0  0  0  0
   31.7900   31.6130   36.1560 H   0  0  0  0  0  0  0  0  0  0  0  0
  1  2  2  0  0  0  0
  1  6  1  0  0  0  0
  2  3  1  0  0  0  0
  3 15  1  0  0  0  0
  3  4  2  0  0  0  0
  5  4  1  0  0  0  0
  5  7  1  0  0  0  0
  6  5  2  0  0  0  0
  7 12  1  0  0  0  0
  8 17  1  0  0  0  0
  8  9  1  0  0  0  0
  8  7  1  0  0  0  0
  9 19  1  0  0  0  0
  9 10  1  0  0  0  0
 10 20  1  0  0  0  0
 10 11  1  0  0  0  0
 11 21  1  0  0  0  0
 11 22  1  0  0  0  0
 12 23  1  1  0  0  0
 12 11  1  0  0  0  0
 12 24  1  0  0  0  0
 13  1  1  0  0  0  0
 14  2  1  0  0  0  0
 16  8  1  0  0  0  0
 18  9  1  0  0  0  0
 24 25  1  1  0  0  0
 24 28  1  0  0  0  0
 25 26  1  0  0  0  0
 26 27  1  0  0  0  0
 28 27  1  0  0  0  0
 29 28  1  0  0  0  0
M  END
>  <minimizedAffinity>
-4.38080549

$$$$

 OpenBabel03262521503D

 29 31  0  0  1  0  0  0  0  0999 V2000
   40.7430   24.1490   35.2990 C   0  0  0  0  0  0  0  0  0  0  0  0
   39.9400   23.3870   36.1750 C   0  0  0  0  0  0  0  0  0  0  0  0
   38.5740   23.3080   35.8800 C   0  0  0  0  0  0  0  0  0  0  0  0
   38.1150   23.9630   34.7800 N   0  0  0  0  0  0  0  0  0  0  0  0
   38.9150   24.6760   33.9750 C   0  0  0  0  0  0  0  0  0  0  0  0
   40.2270   24.7670   34.2370 N   0  0  0  0  0  0  0  0  0  0  0  0
   38.3790   25.3330   32.8510 N   0  0  0  0  0  0  0  0  0  0  0  0
   39.1610   25.5900   31.6430 C   0  0  0  0  0  0  0  0  0  0  0  0
   38.4540   25.0170   30.4580 C   0  0  0  0  0  0  0  0  0  0  0  0
   37.1040   24.7040   30.6120 N   0  0  0  0  0  0  0  0  0  0  0  0
   36.3320   25.3630   31.6070 C   0  0  0  0  0  0  0  0  0  0  0  0
   37.0090   25.7900   32.8350 C   0  0  2  0  0  0  0  0  0  0  0  0
   41.7920   24.1830   35.5670 H   0  0  0  0  0  0  0  0  0  0  0  0
   40.2400   22.8550   37.0450 H   0  0  0  0  0  0  0  0  0  0  0  0
   37.8540   22.7430   36.4900 H   0  0  0  0  0  0  0  0  0  0  0  0
   40.1990   25.2690   31.7820 H   0  0  0  0  0  0  0  0  0  0  0  0
   39.1850   26.7060   31.5490 H   0  0  0  0  0  0  0  0  0  0  0  0
   39.0400   24.1330   30.1090 H   0  0  0  0  0  0  0  0  0  0  0  0
   38.5530   25.7450   29.6090 H   0  0  0  0  0  0  0  0  0  0  0  0
   36.5990   24.7540   29.6990 H   0  0  0  0  0  0  0  0  0  0  0  0
   35.4630   24.6770   31.8390 H   0  0  0  0  0  0  0  0  0  0  0  0
   35.8720   26.2460   31.1140 H   0  0  0  0  0  0  0  0  0  0  0  0
   36.4810   25.3520   33.7340 H   0  0  0  0  0  0  0  0  0  0  0  0
   37.0340   27.2340   33.0090 N   0  0  2  0  0  0  0  0  0  0  0  0
   36.7260   27.6110   34.3740 C   0  0  0  0  0  2  0  0  0  0  0  0
   35.9750   28.9270   34.3150 C   0  0  0  0  0  2  0  0  0  0  0  0
   35.8860   29.2410   32.8570 C   0  0  0  0  0  2  0  0  0  0  0  0
   36.0580   27.8950   32.1730 C   0  0  0  0  0  3  0  0  0  0  0  0
   36.4890   28.0500   31.1710 H   0  0  0  0  0  0  0  0  0  0  0  0
  1 13  1  0  0  0  0
  1  2  1  0  0  0  0
  2 14  1  0  0  0  0
  3  2  2  0  0  0  0
  3 15  1  0  0  0  0
  4  3  1  0  0  0  0
  5  6  1  0  0  0  0
  5  4  2  0  0  0  0
  6  1  2  0  0  0  0
  7  5  1  0  0  0  0
  8 16  1  0  0  0  0
  8  7  1  0  0  0  0
  9 10  1  0  0  0  0
  9  8  1  0  0  0  0
 10 11  1  0  0  0  0
 11 21  1  0  0  0  0
 11 12  1  0  0  0  0
 12  7  1  0  0  0  0
 12 24  1  0  0  0  0
 12 23  1  1  0  0  0
 17  8  1  0  0  0  0
 18  9  1  0  0  0  0
 19  9  1  0  0  0  0
 20 10  1  0  0  0  0
 22 11  1  0  0  0  0
 24 25  1  1  0  0  0
 26 25  1  0  0  0  0
 27 26  1  0  0  0  0
 28 27  1  0  0  0  0
 28 24  1  0  0  0  0
 29 28  1  0  0  0  0
M  END
>  <minimizedAffinity>
-4.33323002

$$$$
