
 OpenBabel03262521483D

 29 31  0  0  1  0  0  0  0  0999 V2000
   37.2330   29.2380   50.5840 C   0  0  0  0  0  0  0  0  0  0  0  0
   37.3950   30.6030   50.9060 C   0  0  0  0  0  0  0  0  0  0  0  0
   36.6750   31.5270   50.1420 C   0  0  0  0  0  0  0  0  0  0  0  0
   35.8730   31.0550   49.1490 N   0  0  0  0  0  0  0  0  0  0  0  0
   35.7500   29.7490   48.8780 C   0  0  0  0  0  0  0  0  0  0  0  0
   36.4310   28.8440   49.5960 N   0  0  0  0  0  0  0  0  0  0  0  0
   34.9050   29.3230   47.8360 N   0  0  0  0  0  0  0  0  0  0  0  0
   34.2400   28.0210   47.8450 C   0  0  0  0  0  0  0  0  0  0  0  0
   32.7670   28.2090   47.6820 C   0  0  0  0  0  0  0  0  0  0  0  0
   32.3320   29.4430   47.1980 N   0  0  0  0  0  0  0  0  0  0  0  0
   33.2080   30.2480   46.4200 C   0  0  0  0  0  0  0  0  0  0  0  0
   34.6460   30.1650   46.6910 C   0  0  2  0  0  0  0  0  0  0  0  0
   37.8110   28.5600   51.2000 H   0  0  0  0  0  0  0  0  0  0  0  0
   38.0030   31.0300   51.6670 H   0  0  0  0  0  0  0  0  0  0  0  0
   36.7220   32.6150   50.3030 H   0  0  0  0  0  0  0  0  0  0  0  0
   34.5550   27.4350   48.7150 H   0  0  0  0  0  0  0  0  0  0  0  0
   34.6420   27.4880   46.9430 H   0  0  0  0  0  0  0  0  0  0  0  0
   32.2850   27.9610   48.6570 H   0  0  0  0  0  0  0  0  0  0  0  0
   32.3890   27.4080   46.9930 H   0  0  0  0  0  0  0  0  0  0  0  0
   31.4180   29.3530   46.7010 H   0  0  0  0  0  0  0  0  0  0  0  0
   32.8350   31.3110   46.5230 H   0  0  0  0  0  0  0  0  0  0  0  0
   33.0170   29.9830   45.3580 H   0  0  0  0  0  0  0  0  0  0  0  0
   35.0530   31.1960   46.9130 H   0  0  0  0  0  0  0  0  0  0  0  0
   35.4140   29.6270   45.5780 N   0  0  2  0  0  0  0  0  0  0  0  0
   36.5570   30.4630   45.2670 C   0  0  0  0  0  0  0  0  0  0  0  0
   36.7690   30.3880   43.7680 C   0  0  0  0  0  0  0  0  0  0  0  0
   35.6860   29.4810   43.2820 C   0  0  0  0  0  0  0  0  0  0  0  0
   34.6270   29.5460   44.3690 C   0  0  0  0  0  0  0  0  0  0  0  0
   34.0540   28.6050   44.3750 H   0  0  0  0  0  0  0  0  0  0  0  0
  1  2  1  0  0  0  0
  1 13  1  0  0  0  0
  2 14  1  0  0  0  0
  3 15  1  0  0  0  0
  3  2  2  0  0  0  0
  4  3  1  0  0  0  0
  5  4  2  0  0  0  0
  5  6  1  0  0  0  0
  6  1  2  0  0  0  0
  7  8  1  0  0  0  0
  7  5  1  0  0  0  0
  8 16  1  0  0  0  0
  9  8  1  0  0  0  0
  9 18  1  0  0  0  0
 10  9  1  0  0  0  0
 11 21  1  0  0  0  0
 11 12  1  0  0  0  0
 11 10  1  0  0  0  0
 12 23  1  1  0  0  0
 12  7  1  0  0  0  0
 17  8  1  0  0  0  0
 19  9  1  0  0  0  0
 20 10  1  0  0  0  0
 22 11  1  0  0  0  0
 24 25  1  6  0  0  0
 24 12  1  0  0  0  0
 26 25  1  0  0  0  0
 27 26  1  0  0  0  0
 27 28  1  0  0  0  0
 28 29  1  0  0  0  0
 28 24  1  0  0  0  0
M  END
>  <minimizedAffinity>
-4.53577375

>  <minimizedRMSD>
1.61857569

$$$$
