
 OpenBabel03272506083D

 41 44  0  0  0  0  0  0  0  0999 V2000
   32.8830   28.0800   48.2550 C   0  0  0  0  0  0  0  0  0  0  0  0
   32.8170   28.6360   46.9350 C   0  0  0  0  0  0  0  0  0  0  0  0
   31.0740   28.5470   46.6110 S   0  0  0  0  0  0  0  0  0  0  0  0
   30.6560   27.7830   48.2690 C   0  0  0  0  0  0  0  0  0  0  0  0
   31.7400   27.7170   48.7510 N   0  0  0  0  0  0  0  0  0  0  0  0
   29.3830   27.3700   48.8450 N   0  0  0  0  0  0  0  0  0  0  0  0
   28.3910   26.9250   47.9340 C   0  0  0  0  0  0  0  0  0  0  0  0
   27.0020   26.9110   48.4850 C   0  0  0  0  0  0  0  0  0  0  0  0
   26.9010   27.5250   49.8160 N   0  0  0  0  0  0  0  0  0  0  0  0
   27.8860   26.8370   50.6380 C   0  0  0  0  0  0  0  0  0  0  0  0
   29.2150   27.4390   50.2790 C   0  0  0  0  0  0  0  0  0  0  0  0
   33.6250   28.9910   46.3500 H   0  0  0  0  0  0  0  0  0  0  0  0
   28.3790   27.6620   47.0780 H   0  0  0  0  0  0  0  0  0  0  0  0
   28.6110   25.9490   47.4300 H   0  0  0  0  0  0  0  0  0  0  0  0
   26.2390   27.3880   47.8210 H   0  0  0  0  0  0  0  0  0  0  0  0
   26.6730   25.8530   48.6240 H   0  0  0  0  0  0  0  0  0  0  0  0
   27.2040   28.5240   49.6830 H   0  0  0  0  0  0  0  0  0  0  0  0
   27.6500   27.1120   51.6960 H   0  0  0  0  0  0  0  0  0  0  0  0
   27.8620   25.7420   50.4610 H   0  0  0  0  0  0  0  0  0  0  0  0
   30.0540   26.9950   50.8520 H   0  0  0  0  0  0  0  0  0  0  0  0
   29.1670   28.5220   50.5320 H   0  0  0  0  0  0  0  0  0  0  0  0
   34.2240   27.9620   48.9360 C   0  0  0  0  0  0  0  0  0  0  0  0
   34.3650   26.8910   49.2540 H   0  0  0  0  0  0  0  0  0  0  0  0
   35.0420   28.1290   48.1990 H   0  0  0  0  0  0  0  0  0  0  0  0
   34.3440   28.8750   50.0870 C   0  0  0  0  0  0  0  0  0  0  0  0
   33.5320   29.6260   50.1580 H   0  0  0  0  0  0  0  0  0  0  0  0
   34.2920   28.2930   51.0380 H   0  0  0  0  0  0  0  0  0  0  0  0
   37.6030   30.3120   51.1650 C   0  0  0  0  0  0  0  0  0  0  0  0
   38.1490   30.7880   49.9710 C   0  0  0  0  0  0  0  0  0  0  0  0
   37.3790   30.6000   48.8250 C   0  0  0  0  0  0  0  0  0  0  0  0
   36.1780   29.9940   48.8820 N   0  0  0  0  0  0  0  0  0  0  0  0
   35.6950   29.5480   50.0820 C   0  0  0  0  0  0  0  0  0  0  0  0
   36.4160   29.7160   51.1950 N   0  0  0  0  0  0  0  0  0  0  0  0
   38.1780   30.4430   52.0700 H   0  0  0  0  0  0  0  0  0  0  0  0
   39.1010   31.2600   49.9830 H   0  0  0  0  0  0  0  0  0  0  0  0
   37.8680   31.0580   47.5800 N   0  0  0  0  0  0  0  0  0  0  0  0
   39.0000   31.9240   47.3200 C   0  0  0  0  0  2  0  0  0  0  0  0
   39.7350   31.1650   46.2320 C   0  0  0  0  0  2  0  0  0  0  0  0
   38.6050   30.5950   45.4040 C   0  0  0  0  0  2  0  0  0  0  0  0
   37.3440   30.7590   46.2620 C   0  0  0  0  0  3  0  0  0  0  0  0
   36.6970   29.8810   46.2410 H   0  0  0  0  0  0  0  0  0  0  0  0
  1  5  1  0  0  0  0
  1 22  1  0  0  0  0
  2  1  2  0  0  0  0
  3  2  1  0  0  0  0
  3  4  1  0  0  0  0
  4  5  2  0  0  0  0
  4  6  1  0  0  0  0
  6 11  1  0  0  0  0
  7  8  1  0  0  0  0
  7  6  1  0  0  0  0
  8 16  1  0  0  0  0
  8  9  1  0  0  0  0
  9 10  1  0  0  0  0
 10 18  1  0  0  0  0
 11 21  1  0  0  0  0
 11 10  1  0  0  0  0
 11 20  1  0  0  0  0
 12  2  1  0  0  0  0
 13  7  1  0  0  0  0
 14  7  1  0  0  0  0
 15  8  1  0  0  0  0
 17  9  1  0  0  0  0
 19 10  1  0  0  0  0
 22 23  1  0  0  0  0
 22 25  1  0  0  0  0
 24 22  1  0  0  0  0
 25 26  1  0  0  0  0
 25 27  1  0  0  0  0
 28 33  1  0  0  0  0
 28 34  1  0  0  0  0
 29 35  1  0  0  0  0
 29 28  2  0  0  0  0
 30 31  2  0  0  0  0
 30 29  1  0  0  0  0
 31 32  1  0  0  0  0
 32 25  1  0  0  0  0
 32 33  2  0  0  0  0
 36 30  1  0  0  0  0
 37 36  1  0  0  0  0
 38 37  1  0  0  0  0
 39 38  1  0  0  0  0
 39 40  1  0  0  0  0
 40 36  1  0  0  0  0
 41 40  1  0  0  0  0
M  END
>  <minimizedAffinity>
-6.99026966

>  <minimizedRMSD>
1.46214581

$$$$
