
 OpenBabel03272504253D

 39 42  0  0  0  0  0  0  0  0999 V2000
   35.5890   29.6080   48.5010 C   0  0  0  0  0  0  0  0  0  0  0  0
   35.3640   28.7410   49.5110 C   0  0  0  0  0  0  0  0  0  0  0  0
   34.5220   27.7100   49.3620 C   0  0  0  0  0  0  0  0  0  0  0  0
   33.8860   27.5390   48.1720 N   0  0  0  0  0  0  0  0  0  0  0  0
   34.1170   28.3980   47.1850 C   0  0  0  0  0  0  0  0  0  0  0  0
   34.9590   29.4350   47.3250 N   0  0  0  0  0  0  0  0  0  0  0  0
   35.8720   28.8810   50.4570 H   0  0  0  0  0  0  0  0  0  0  0  0
   34.3470   27.0200   50.1760 H   0  0  0  0  0  0  0  0  0  0  0  0
   37.3050   32.6140   49.7180 C   0  0  0  0  0  0  0  0  0  0  0  0
   38.2970   32.8150   48.7410 C   0  0  0  0  0  0  0  0  0  0  0  0
   38.3530   31.9090   47.6820 C   0  0  0  0  0  0  0  0  0  0  0  0
   37.4490   30.8970   47.6630 N   0  0  0  0  0  0  0  0  0  0  0  0
   36.4990   30.7310   48.6280 C   0  0  0  0  0  0  0  0  0  0  0  0
   36.4410   31.5930   49.6420 N   0  0  0  0  0  0  0  0  0  0  0  0
   37.2990   33.3310   50.5110 H   0  0  0  0  0  0  0  0  0  0  0  0
   39.0200   33.6110   48.7430 H   0  0  0  0  0  0  0  0  0  0  0  0
   39.2680   31.9500   46.6210 N   0  0  0  0  0  0  0  0  0  0  0  0
   39.6310   30.9530   45.6320 C   0  0  0  0  0  2  0  0  0  0  0  0
   39.7500   31.8000   44.3820 C   0  0  0  0  0  2  0  0  0  0  0  0
   40.4750   33.0150   44.8960 C   0  0  0  0  0  2  0  0  0  0  0  0
   40.0660   33.1290   46.3420 C   0  0  0  0  0  3  0  0  0  0  0  0
   39.4380   34.0340   46.4910 H   0  0  0  0  0  0  0  0  0  0  0  0
   32.0340   27.8700   45.9920 C   0  0  0  0  0  0  0  0  0  0  0  0
   33.4100   28.1120   45.9590 C   0  0  0  0  0  0  0  0  0  0  0  0
   34.1750   28.0710   44.8090 C   0  0  0  0  0  0  0  0  0  0  0  0
   33.5670   27.7750   43.6090 C   0  0  0  0  0  0  0  0  0  0  0  0
   32.2140   27.5220   43.5470 C   0  0  0  0  0  0  0  0  0  0  0  0
   31.5440   27.5850   44.7250 C   0  0  0  0  0  0  0  0  0  0  0  0
   35.2390   28.2660   44.8330 H   0  0  0  0  0  0  0  0  0  0  0  0
   34.1770   27.7450   42.7120 H   0  0  0  0  0  0  0  0  0  0  0  0
   31.7080   27.2860   42.6220 H   0  0  0  0  0  0  0  0  0  0  0  0
   30.4650   27.3820   44.6710 H   0  0  0  0  0  0  0  0  0  0  0  0
   31.0780   27.9350   47.3540 S   0  0  0  0  0  0  0  0  0  0  0  0
   30.2320   26.6540   47.0470 O   0  0  0  0  0  0  0  0  0  0  0  0
   30.1850   29.1400   47.2170 O   0  0  0  0  0  0  0  0  0  0  0  0
   30.8060   27.6720   48.9070 C   0  0  0  0  0  0  0  0  0  0  0  0
   30.2980   26.4700   49.4470 F   0  0  0  0  0  0  0  0  0  0  0  0
   29.5720   28.3610   49.3170 F   0  0  0  0  0  0  0  0  0  0  0  0
   31.4620   28.4280   49.9200 F   0  0  0  0  0  0  0  0  0  0  0  0
  1 13  1  0  0  0  0
  1  2  1  0  0  0  0
  2  7  1  0  0  0  0
  3  2  2  0  0  0  0
  3  8  1  0  0  0  0
  4  3  1  0  0  0  0
  5  6  1  0  0  0  0
  5  4  2  0  0  0  0
  6  1  2  0  0  0  0
  9 15  1  0  0  0  0
 10 16  1  0  0  0  0
 10  9  2  0  0  0  0
 11 10  1  0  0  0  0
 12 11  2  0  0  0  0
 12 13  1  0  0  0  0
 13 14  2  0  0  0  0
 14  9  1  0  0  0  0
 17 11  1  0  0  0  0
 18 17  1  0  0  0  0
 19 20  1  0  0  0  0
 19 18  1  0  0  0  0
 20 21  1  0  0  0  0
 21 22  1  0  0  0  0
 21 17  1  0  0  0  0
 23 33  1  0  0  0  0
 24 23  1  0  0  0  0
 24  5  1  0  0  0  0
 25 29  1  0  0  0  0
 25 24  2  0  0  0  0
 26 25  1  0  0  0  0
 27 26  2  0  0  0  0
 27 28  1  0  0  0  0
 28 23  2  0  0  0  0
 30 26  1  0  0  0  0
 31 27  1  0  0  0  0
 32 28  1  0  0  0  0
 33 36  1  0  0  0  0
 34 33  2  0  0  0  0
 35 33  2  0  0  0  0
 36 38  1  0  0  0  0
 36 37  1  0  0  0  0
 36 39  1  0  0  0  0
M  END
>  <minimizedAffinity>
-6.57777357

>  <minimizedRMSD>
0.446834475

$$$$
