
 OpenBabel03272506083D

 41 44  0  0  0  0  0  0  0  0999 V2000
   33.4040   28.2700   48.4300 C   0  0  0  0  0  0  0  0  0  0  0  0
   33.4460   28.6320   47.0440 C   0  0  0  0  0  0  0  0  0  0  0  0
   31.7550   28.3750   46.5690 S   0  0  0  0  0  0  0  0  0  0  0  0
   31.2090   27.8210   48.2720 C   0  0  0  0  0  0  0  0  0  0  0  0
   32.2380   27.9000   48.8620 N   0  0  0  0  0  0  0  0  0  0  0  0
   29.9070   27.4020   48.7770 N   0  0  0  0  0  0  0  0  0  0  0  0
   29.0430   26.7650   47.8490 C   0  0  0  0  0  0  0  0  0  0  0  0
   27.6070   26.7290   48.2600 C   0  0  0  0  0  0  0  0  0  0  0  0
   27.3320   27.5130   49.4720 N   0  0  0  0  0  0  0  0  0  0  0  0
   28.2620   27.0170   50.4760 C   0  0  0  0  0  0  0  0  0  0  0  0
   29.5850   27.6570   50.1630 C   0  0  0  0  0  0  0  0  0  0  0  0
   34.2900   28.9600   46.4940 H   0  0  0  0  0  0  0  0  0  0  0  0
   29.0800   27.3740   46.8980 H   0  0  0  0  0  0  0  0  0  0  0  0
   29.3700   25.7480   47.5150 H   0  0  0  0  0  0  0  0  0  0  0  0
   26.8930   27.0540   47.4630 H   0  0  0  0  0  0  0  0  0  0  0  0
   27.3260   25.6800   48.5190 H   0  0  0  0  0  0  0  0  0  0  0  0
   27.5900   28.5030   49.2250 H   0  0  0  0  0  0  0  0  0  0  0  0
   27.9010   27.4190   51.4550 H   0  0  0  0  0  0  0  0  0  0  0  0
   28.3190   25.9090   50.4580 H   0  0  0  0  0  0  0  0  0  0  0  0
   30.3830   27.3570   50.8730 H   0  0  0  0  0  0  0  0  0  0  0  0
   29.4490   28.7580   50.2510 H   0  0  0  0  0  0  0  0  0  0  0  0
   34.6700   28.3440   49.2470 C   0  0  0  0  0  0  0  0  0  0  0  0
   34.6730   27.4820   49.9720 H   0  0  0  0  0  0  0  0  0  0  0  0
   35.5540   28.1470   48.6000 H   0  0  0  0  0  0  0  0  0  0  0  0
   34.8000   29.6300   49.9550 C   0  0  0  0  0  0  0  0  0  0  0  0
   33.9450   30.3200   49.8060 H   0  0  0  0  0  0  0  0  0  0  0  0
   34.8460   29.4520   51.0560 H   0  0  0  0  0  0  0  0  0  0  0  0
   38.0940   31.3500   50.1520 C   0  0  0  0  0  0  0  0  0  0  0  0
   38.4460   31.5140   48.8110 C   0  0  0  0  0  0  0  0  0  0  0  0
   37.5370   31.0270   47.8730 C   0  0  0  0  0  0  0  0  0  0  0  0
   36.3890   30.4340   48.2550 N   0  0  0  0  0  0  0  0  0  0  0  0
   36.1000   30.3020   49.5860 C   0  0  0  0  0  0  0  0  0  0  0  0
   36.9560   30.7620   50.5040 N   0  0  0  0  0  0  0  0  0  0  0  0
   38.7790   31.7180   50.9020 H   0  0  0  0  0  0  0  0  0  0  0  0
   39.3630   31.9900   48.5650 H   0  0  0  0  0  0  0  0  0  0  0  0
   37.8260   31.1590   46.4960 N   0  0  0  0  0  0  0  0  0  0  0  0
   37.1970   30.4870   45.3760 C   0  0  0  0  0  2  0  0  0  0  0  0
   36.9180   31.6430   44.4340 C   0  0  0  0  0  2  0  0  0  0  0  0
   38.1370   32.5210   44.6150 C   0  0  0  0  0  2  0  0  0  0  0  0
   38.8300   32.0030   45.8800 C   0  0  0  0  0  3  0  0  0  0  0  0
   39.1810   32.8030   46.5330 H   0  0  0  0  0  0  0  0  0  0  0  0
  1  5  1  0  0  0  0
  1 22  1  0  0  0  0
  2  1  2  0  0  0  0
  3  2  1  0  0  0  0
  3  4  1  0  0  0  0
  4  6  1  0  0  0  0
  4  5  2  0  0  0  0
  6 11  1  0  0  0  0
  7  8  1  0  0  0  0
  7  6  1  0  0  0  0
  8 16  1  0  0  0  0
  8  9  1  0  0  0  0
  9 10  1  0  0  0  0
 10 18  1  0  0  0  0
 11 21  1  0  0  0  0
 11 10  1  0  0  0  0
 11 20  1  0  0  0  0
 12  2  1  0  0  0  0
 13  7  1  0  0  0  0
 14  7  1  0  0  0  0
 15  8  1  0  0  0  0
 17  9  1  0  0  0  0
 19 10  1  0  0  0  0
 22 25  1  0  0  0  0
 22 23  1  0  0  0  0
 24 22  1  0  0  0  0
 25 27  1  0  0  0  0
 26 25  1  0  0  0  0
 28 33  1  0  0  0  0
 28 34  1  0  0  0  0
 29 28  2  0  0  0  0
 30 31  2  0  0  0  0
 30 29  1  0  0  0  0
 31 32  1  0  0  0  0
 32 25  1  0  0  0  0
 32 33  2  0  0  0  0
 35 29  1  0  0  0  0
 36 30  1  0  0  0  0
 37 36  1  0  0  0  0
 38 39  1  0  0  0  0
 38 37  1  0  0  0  0
 39 40  1  0  0  0  0
 40 36  1  0  0  0  0
 40 41  1  0  0  0  0
M  END
>  <minimizedAffinity>
-6.25619698

>  <minimizedRMSD>
1.2175653

$$$$
