
 OpenBabel03272504263D

 39 42  0  0  0  0  0  0  0  0999 V2000
   35.5630   29.6490   48.4370 C   0  0  0  0  0  0  0  0  0  0  0  0
   35.3590   28.7430   49.4170 C   0  0  0  0  0  0  0  0  0  0  0  0
   34.5210   27.7120   49.2430 C   0  0  0  0  0  0  0  0  0  0  0  0
   33.8690   27.5810   48.0560 N   0  0  0  0  0  0  0  0  0  0  0  0
   34.0800   28.4780   47.0990 C   0  0  0  0  0  0  0  0  0  0  0  0
   34.9170   29.5150   47.2650 N   0  0  0  0  0  0  0  0  0  0  0  0
   35.8790   28.8510   50.3610 H   0  0  0  0  0  0  0  0  0  0  0  0
   34.3630   26.9910   50.0330 H   0  0  0  0  0  0  0  0  0  0  0  0
   37.3740   32.5330   49.8040 C   0  0  0  0  0  0  0  0  0  0  0  0
   38.2400   32.8760   48.7490 C   0  0  0  0  0  0  0  0  0  0  0  0
   38.1800   32.1050   47.5880 C   0  0  0  0  0  0  0  0  0  0  0  0
   37.2930   31.0780   47.5520 N   0  0  0  0  0  0  0  0  0  0  0  0
   36.4670   30.7730   48.5940 C   0  0  0  0  0  0  0  0  0  0  0  0
   36.5200   31.5060   49.7050 N   0  0  0  0  0  0  0  0  0  0  0  0
   37.4530   33.1500   50.6730 H   0  0  0  0  0  0  0  0  0  0  0  0
   38.9470   33.6850   48.7640 H   0  0  0  0  0  0  0  0  0  0  0  0
   38.9630   32.2960   46.4410 N   0  0  0  0  0  0  0  0  0  0  0  0
   39.0040   31.5790   45.1810 C   0  0  0  0  0  2  0  0  0  0  0  0
   39.1540   32.7170   44.1930 C   0  0  0  0  0  2  0  0  0  0  0  0
   40.1630   33.5980   44.8820 C   0  0  0  0  0  2  0  0  0  0  0  0
   39.9470   33.3580   46.3530 C   0  0  0  0  0  3  0  0  0  0  0  0
   39.5360   34.2720   46.8330 H   0  0  0  0  0  0  0  0  0  0  0  0
   31.9850   27.9730   45.9170 C   0  0  0  0  0  0  0  0  0  0  0  0
   33.3580   28.2320   45.8730 C   0  0  0  0  0  0  0  0  0  0  0  0
   34.1050   28.2470   44.7100 C   0  0  0  0  0  0  0  0  0  0  0  0
   33.4810   27.9930   43.5090 C   0  0  0  0  0  0  0  0  0  0  0  0
   32.1300   27.7250   43.4580 C   0  0  0  0  0  0  0  0  0  0  0  0
   31.4780   27.7330   44.6470 C   0  0  0  0  0  0  0  0  0  0  0  0
   35.1660   28.4550   44.7270 H   0  0  0  0  0  0  0  0  0  0  0  0
   34.0770   28.0070   42.6030 H   0  0  0  0  0  0  0  0  0  0  0  0
   31.6120   27.5210   42.5320 H   0  0  0  0  0  0  0  0  0  0  0  0
   30.4010   27.5180   44.6020 H   0  0  0  0  0  0  0  0  0  0  0  0
   31.0490   27.9700   47.2960 S   0  0  0  0  0  0  0  0  0  0  0  0
   30.2580   26.6580   46.9790 O   0  0  0  0  0  0  0  0  0  0  0  0
   30.1010   29.1350   47.1940 O   0  0  0  0  0  0  0  0  0  0  0  0
   30.8160   27.6690   48.8470 C   0  0  0  0  0  0  0  0  0  0  0  0
   30.3400   26.4470   49.3720 F   0  0  0  0  0  0  0  0  0  0  0  0
   29.5800   28.3290   49.2990 F   0  0  0  0  0  0  0  0  0  0  0  0
   31.4810   28.4140   49.8630 F   0  0  0  0  0  0  0  0  0  0  0  0
  1 13  1  0  0  0  0
  1  2  1  0  0  0  0
  2  7  1  0  0  0  0
  3  2  2  0  0  0  0
  3  8  1  0  0  0  0
  4  3  1  0  0  0  0
  5  6  1  0  0  0  0
  5  4  2  0  0  0  0
  6  1  2  0  0  0  0
  9 15  1  0  0  0  0
 10 16  1  0  0  0  0
 10  9  2  0  0  0  0
 11 10  1  0  0  0  0
 12 11  2  0  0  0  0
 12 13  1  0  0  0  0
 13 14  2  0  0  0  0
 14  9  1  0  0  0  0
 17 11  1  0  0  0  0
 18 17  1  0  0  0  0
 19 20  1  0  0  0  0
 19 18  1  0  0  0  0
 20 21  1  0  0  0  0
 21 17  1  0  0  0  0
 21 22  1  0  0  0  0
 23 33  1  0  0  0  0
 24 23  1  0  0  0  0
 24  5  1  0  0  0  0
 25 29  1  0  0  0  0
 25 24  2  0  0  0  0
 26 25  1  0  0  0  0
 27 26  2  0  0  0  0
 27 28  1  0  0  0  0
 28 23  2  0  0  0  0
 30 26  1  0  0  0  0
 31 27  1  0  0  0  0
 32 28  1  0  0  0  0
 33 36  1  0  0  0  0
 34 33  2  0  0  0  0
 35 33  2  0  0  0  0
 36 38  1  0  0  0  0
 36 37  1  0  0  0  0
 36 39  1  0  0  0  0
M  END
>  <minimizedAffinity>
-6.59583998

>  <minimizedRMSD>
0.338909775

$$$$
