
 OpenBabel03262522533D

 30 33  0  0  0  0  0  0  0  0999 V2000
   38.5740   24.8240   35.0120 C   0  0  0  0  0  0  0  0  0  0  0  0
   38.0730   24.6130   33.7980 C   0  0  0  0  0  0  0  0  0  0  0  0
   37.3590   25.6170   33.1820 C   0  0  0  0  0  0  0  0  0  0  0  0
   37.2180   26.7760   33.8820 C   0  0  0  0  0  0  0  0  0  0  0  0
   38.1160   26.4190   35.4320 S   0  0  0  0  0  0  0  0  0  0  0  0
   38.2340   23.6390   33.2990 H   0  0  0  0  0  0  0  0  0  0  0  0
   36.9090   25.5470   32.1930 H   0  0  0  0  0  0  0  0  0  0  0  0
   36.5230   28.0100   33.5050 C   0  0  0  0  0  0  0  0  0  0  0  0
   36.2780   28.2830   32.2120 C   0  0  0  0  0  0  0  0  0  0  0  0
   35.6240   29.4540   31.9280 C   0  0  0  0  0  0  0  0  0  0  0  0
   35.2270   30.3260   32.9030 N   0  0  0  0  0  0  0  0  0  0  0  0
   35.5240   29.9520   34.1680 C   0  0  0  0  0  0  0  0  0  0  0  0
   36.1650   28.8180   34.5360 N   0  0  0  0  0  0  0  0  0  0  0  0
   36.5730   27.6220   31.3990 H   0  0  0  0  0  0  0  0  0  0  0  0
   35.3900   29.7440   30.9140 H   0  0  0  0  0  0  0  0  0  0  0  0
   35.1300   30.8320   35.2160 N   0  0  0  0  0  0  0  0  0  0  0  0
   33.8240   31.0900   35.7910 C   0  0  0  0  0  2  0  0  0  0  0  0
   33.7120   32.5560   36.0440 C   0  0  0  0  0  2  0  0  0  0  0  0
   35.1300   33.0320   36.0460 C   0  0  0  0  0  2  0  0  0  0  0  0
   35.9150   31.7380   36.0300 C   0  0  0  0  0  3  0  0  0  0  0  0
   36.0370   31.3580   37.0690 H   0  0  0  0  0  0  0  0  0  0  0  0
   39.6040   22.8360   37.8910 C   0  0  0  0  0  0  0  0  0  0  0  0
   40.7870   22.2360   37.4760 C   0  0  0  0  0  0  0  0  0  0  0  0
   41.2390   22.5220   36.1820 C   0  0  0  0  0  0  0  0  0  0  0  0
   40.5090   23.3700   35.3860 N   0  0  0  0  0  0  0  0  0  0  0  0
   39.3640   23.9150   35.8620 C   0  0  0  0  0  0  0  0  0  0  0  0
   38.9030   23.6700   37.0790 N   0  0  0  0  0  0  0  0  0  0  0  0
   39.2360   22.6280   38.8890 H   0  0  0  0  0  0  0  0  0  0  0  0
   41.3710   21.5740   38.0800 H   0  0  0  0  0  0  0  0  0  0  0  0
   42.1460   22.1100   35.7610 H   0  0  0  0  0  0  0  0  0  0  0  0
  1  5  1  0  0  0  0
  1 26  1  0  0  0  0
  2  1  2  0  0  0  0
  3  2  1  0  0  0  0
  3  4  2  0  0  0  0
  4  5  1  0  0  0  0
  6  2  1  0  0  0  0
  7  3  1  0  0  0  0
  8  4  1  0  0  0  0
  8 13  1  0  0  0  0
  9  8  2  0  0  0  0
 10  9  1  0  0  0  0
 10 11  2  0  0  0  0
 11 12  1  0  0  0  0
 12 13  2  0  0  0  0
 12 16  1  0  0  0  0
 14  9  1  0  0  0  0
 15 10  1  0  0  0  0
 16 17  1  0  0  0  0
 16 20  1  0  0  0  0
 17 18  1  0  0  0  0
 18 19  1  0  0  0  0
 20 19  1  0  0  0  0
 20 21  1  0  0  0  0
 22 28  1  0  0  0  0
 23 22  1  0  0  0  0
 23 29  1  0  0  0  0
 24 23  2  0  0  0  0
 25 26  2  0  0  0  0
 25 24  1  0  0  0  0
 26 27  1  0  0  0  0
 27 22  2  0  0  0  0
 30 24  1  0  0  0  0
M  END
>  <minimizedAffinity>
-5.56786013

$$$$

 OpenBabel03262522533D

 30 33  0  0  0  0  0  0  0  0999 V2000
   36.6270   24.0210   31.9460 C   0  0  0  0  0  0  0  0  0  0  0  0
   37.4270   24.5920   32.8430 C   0  0  0  0  0  0  0  0  0  0  0  0
   37.3660   25.9570   33.0240 C   0  0  0  0  0  0  0  0  0  0  0  0
   36.4690   26.6300   32.2530 C   0  0  0  0  0  0  0  0  0  0  0  0
   35.7110   25.2960   31.2620 S   0  0  0  0  0  0  0  0  0  0  0  0
   38.1280   23.9690   33.4290 H   0  0  0  0  0  0  0  0  0  0  0  0
   37.9750   26.5200   33.7290 H   0  0  0  0  0  0  0  0  0  0  0  0
   36.1730   28.0650   32.2110 C   0  0  0  0  0  0  0  0  0  0  0  0
   36.2200   28.7350   31.0480 C   0  0  0  0  0  0  0  0  0  0  0  0
   35.9330   30.0760   31.0800 C   0  0  0  0  0  0  0  0  0  0  0  0
   35.6100   30.7270   32.2370 N   0  0  0  0  0  0  0  0  0  0  0  0
   35.5920   29.9570   33.3480 C   0  0  0  0  0  0  0  0  0  0  0  0
   35.8620   28.6320   33.4060 N   0  0  0  0  0  0  0  0  0  0  0  0
   36.4720   28.2620   30.1000 H   0  0  0  0  0  0  0  0  0  0  0  0
   35.9490   30.6820   30.1860 H   0  0  0  0  0  0  0  0  0  0  0  0
   35.2610   30.5960   34.5770 N   0  0  0  0  0  0  0  0  0  0  0  0
   33.9830   31.0510   35.0900 C   0  0  0  0  0  2  0  0  0  0  0  0
   34.1980   32.3620   35.7680 C   0  0  0  0  0  2  0  0  0  0  0  0
   35.6690   32.3950   36.0340 C   0  0  0  0  0  2  0  0  0  0  0  0
   36.1010   30.9860   35.6910 C   0  0  0  0  0  3  0  0  0  0  0  0
   35.9520   30.3210   36.5720 H   0  0  0  0  0  0  0  0  0  0  0  0
   35.2690   20.6500   31.6450 C   0  0  0  0  0  0  0  0  0  0  0  0
   36.2390   19.9630   30.9250 C   0  0  0  0  0  0  0  0  0  0  0  0
   37.3810   20.6730   30.5370 C   0  0  0  0  0  0  0  0  0  0  0  0
   37.4990   21.9970   30.8770 N   0  0  0  0  0  0  0  0  0  0  0  0
   36.5090   22.5980   31.5790 C   0  0  0  0  0  0  0  0  0  0  0  0
   35.4130   21.9630   31.9650 N   0  0  0  0  0  0  0  0  0  0  0  0
   34.3760   20.1200   31.9550 H   0  0  0  0  0  0  0  0  0  0  0  0
   36.1680   18.9310   30.6510 H   0  0  0  0  0  0  0  0  0  0  0  0
   38.1960   20.2340   29.9750 H   0  0  0  0  0  0  0  0  0  0  0  0
  1  2  2  0  0  0  0
  2  3  1  0  0  0  0
  2  6  1  0  0  0  0
  3  7  1  0  0  0  0
  4  3  2  0  0  0  0
  5  1  1  0  0  0  0
  5  4  1  0  0  0  0
  8  4  1  0  0  0  0
  8 13  1  0  0  0  0
  9 10  1  0  0  0  0
  9  8  2  0  0  0  0
 10 11  2  0  0  0  0
 11 12  1  0  0  0  0
 12 13  2  0  0  0  0
 12 16  1  0  0  0  0
 14  9  1  0  0  0  0
 15 10  1  0  0  0  0
 16 17  1  0  0  0  0
 16 20  1  0  0  0  0
 17 18  1  0  0  0  0
 18 19  1  0  0  0  0
 20 19  1  0  0  0  0
 20 21  1  0  0  0  0
 22 28  1  0  0  0  0
 22 27  1  0  0  0  0
 23 22  2  0  0  0  0
 24 25  2  0  0  0  0
 24 23  1  0  0  0  0
 25 26  1  0  0  0  0
 26  1  1  0  0  0  0
 26 27  2  0  0  0  0
 29 23  1  0  0  0  0
 30 24  1  0  0  0  0
M  END
>  <minimizedAffinity>
-5.3887043

$$$$

 OpenBabel03262522533D

 30 33  0  0  0  0  0  0  0  0999 V2000
   38.0290   25.1710   34.8800 C   0  0  0  0  0  0  0  0  0  0  0  0
   38.0200   24.8010   33.6020 C   0  0  0  0  0  0  0  0  0  0  0  0
   37.5420   25.6790   32.6530 C   0  0  0  0  0  0  0  0  0  0  0  0
   37.1080   26.8850   33.1090 C   0  0  0  0  0  0  0  0  0  0  0  0
   37.3860   26.7580   34.9100 S   0  0  0  0  0  0  0  0  0  0  0  0
   38.3920   23.7990   33.3170 H   0  0  0  0  0  0  0  0  0  0  0  0
   37.4910   25.4750   31.5850 H   0  0  0  0  0  0  0  0  0  0  0  0
   36.5520   28.0160   32.3600 C   0  0  0  0  0  0  0  0  0  0  0  0
   37.0900   28.3820   31.1840 C   0  0  0  0  0  0  0  0  0  0  0  0
   36.5220   29.4480   30.5350 C   0  0  0  0  0  0  0  0  0  0  0  0
   35.4510   30.1280   31.0430 N   0  0  0  0  0  0  0  0  0  0  0  0
   34.9900   29.6750   32.2310 C   0  0  0  0  0  0  0  0  0  0  0  0
   35.4900   28.6340   32.9380 N   0  0  0  0  0  0  0  0  0  0  0  0
   37.9430   27.8730   30.7380 H   0  0  0  0  0  0  0  0  0  0  0  0
   36.8980   29.8010   29.5860 H   0  0  0  0  0  0  0  0  0  0  0  0
   33.8750   30.3560   32.7980 N   0  0  0  0  0  0  0  0  0  0  0  0
   32.4690   30.3220   32.4430 C   0  0  0  0  0  2  0  0  0  0  0  0
   31.9340   31.7110   32.5450 C   0  0  0  0  0  2  0  0  0  0  0  0
   32.9290   32.4200   33.4070 C   0  0  0  0  0  2  0  0  0  0  0  0
   33.8050   31.2890   33.9030 C   0  0  0  0  0  3  0  0  0  0  0  0
   33.3460   30.8250   34.8060 H   0  0  0  0  0  0  0  0  0  0  0  0
   38.1780   23.8760   38.2860 C   0  0  0  0  0  0  0  0  0  0  0  0
   39.2890   23.0420   38.2780 C   0  0  0  0  0  0  0  0  0  0  0  0
   40.0010   22.9240   37.0780 C   0  0  0  0  0  0  0  0  0  0  0  0
   39.5820   23.6240   35.9740 N   0  0  0  0  0  0  0  0  0  0  0  0
   38.4870   24.4170   36.0610 C   0  0  0  0  0  0  0  0  0  0  0  0
   37.7870   24.5560   37.1770 N   0  0  0  0  0  0  0  0  0  0  0  0
   37.6120   23.9820   39.2050 H   0  0  0  0  0  0  0  0  0  0  0  0
   39.6340   22.4880   39.1260 H   0  0  0  0  0  0  0  0  0  0  0  0
   40.8800   22.3030   36.9630 H   0  0  0  0  0  0  0  0  0  0  0  0
  1  5  1  0  0  0  0
  1 26  1  0  0  0  0
  2  1  2  0  0  0  0
  3  4  2  0  0  0  0
  3  2  1  0  0  0  0
  4  5  1  0  0  0  0
  6  2  1  0  0  0  0
  7  3  1  0  0  0  0
  8 13  1  0  0  0  0
  8  4  1  0  0  0  0
  9  8  2  0  0  0  0
 10 11  2  0  0  0  0
 10  9  1  0  0  0  0
 11 12  1  0  0  0  0
 12 16  1  0  0  0  0
 12 13  2  0  0  0  0
 14  9  1  0  0  0  0
 15 10  1  0  0  0  0
 16 20  1  0  0  0  0
 17 18  1  0  0  0  0
 17 16  1  0  0  0  0
 18 19  1  0  0  0  0
 19 20  1  0  0  0  0
 20 21  1  0  0  0  0
 22 28  1  0  0  0  0
 23 22  1  0  0  0  0
 23 29  1  0  0  0  0
 24 23  2  0  0  0  0
 25 26  2  0  0  0  0
 25 24  1  0  0  0  0
 26 27  1  0  0  0  0
 27 22  2  0  0  0  0
 30 24  1  0  0  0  0
M  END
>  <minimizedAffinity>
-5.30406284

$$$$

 OpenBabel03262522533D

 30 33  0  0  0  0  0  0  0  0999 V2000
   35.4390   29.9360   34.0440 C   0  0  0  0  0  0  0  0  0  0  0  0
   35.5210   30.2120   32.7450 C   0  0  0  0  0  0  0  0  0  0  0  0
   36.0850   29.2850   31.8960 C   0  0  0  0  0  0  0  0  0  0  0  0
   36.5240   28.1310   32.4660 C   0  0  0  0  0  0  0  0  0  0  0  0
   36.1260   28.3780   34.2310 S   0  0  0  0  0  0  0  0  0  0  0  0
   35.1390   31.1780   32.3630 H   0  0  0  0  0  0  0  0  0  0  0  0
   36.2000   29.4130   30.8200 H   0  0  0  0  0  0  0  0  0  0  0  0
   37.1610   26.9690   31.8390 C   0  0  0  0  0  0  0  0  0  0  0  0
   38.1770   27.1350   30.9740 C   0  0  0  0  0  0  0  0  0  0  0  0
   38.7270   26.0070   30.4230 C   0  0  0  0  0  0  0  0  0  0  0  0
   38.2780   24.7520   30.7240 N   0  0  0  0  0  0  0  0  0  0  0  0
   37.2540   24.7010   31.6040 C   0  0  0  0  0  0  0  0  0  0  0  0
   36.6520   25.7610   32.1940 N   0  0  0  0  0  0  0  0  0  0  0  0
   38.5700   28.1140   30.7020 H   0  0  0  0  0  0  0  0  0  0  0  0
   39.5460   26.0590   29.7210 H   0  0  0  0  0  0  0  0  0  0  0  0
   36.7530   23.4120   31.9460 N   0  0  0  0  0  0  0  0  0  0  0  0
   37.3060   22.3810   32.8040 C   0  0  0  0  0  2  0  0  0  0  0  0
   37.0670   21.0610   32.1540 C   0  0  0  0  0  2  0  0  0  0  0  0
   35.9720   21.3340   31.1720 C   0  0  0  0  0  2  0  0  0  0  0  0
   35.5380   22.7360   31.5400 C   0  0  0  0  0  3  0  0  0  0  0  0
   34.7930   22.6950   32.3670 H   0  0  0  0  0  0  0  0  0  0  0  0
   33.0590   31.3140   36.4390 C   0  0  0  0  0  0  0  0  0  0  0  0
   33.8040   32.2480   37.1480 C   0  0  0  0  0  0  0  0  0  0  0  0
   35.1490   32.4080   36.7950 C   0  0  0  0  0  0  0  0  0  0  0  0
   35.6730   31.6490   35.7790 N   0  0  0  0  0  0  0  0  0  0  0  0
   34.8830   30.7560   35.1350 C   0  0  0  0  0  0  0  0  0  0  0  0
   33.6070   30.5760   35.4380 N   0  0  0  0  0  0  0  0  0  0  0  0
   32.0160   31.1740   36.6960 H   0  0  0  0  0  0  0  0  0  0  0  0
   33.4150   32.8510   37.9420 H   0  0  0  0  0  0  0  0  0  0  0  0
   35.8160   33.1080   37.2820 H   0  0  0  0  0  0  0  0  0  0  0  0
  1  5  1  0  0  0  0
  1 26  1  0  0  0  0
  2  1  2  0  0  0  0
  3  4  2  0  0  0  0
  3  2  1  0  0  0  0
  4  5  1  0  0  0  0
  6  2  1  0  0  0  0
  7  3  1  0  0  0  0
  8 13  1  0  0  0  0
  8  4  1  0  0  0  0
  9  8  2  0  0  0  0
 10 11  2  0  0  0  0
 10  9  1  0  0  0  0
 11 12  1  0  0  0  0
 12 16  1  0  0  0  0
 12 13  2  0  0  0  0
 14  9  1  0  0  0  0
 15 10  1  0  0  0  0
 16 17  1  0  0  0  0
 18 17  1  0  0  0  0
 19 20  1  0  0  0  0
 19 18  1  0  0  0  0
 20 16  1  0  0  0  0
 20 21  1  0  0  0  0
 22 28  1  0  0  0  0
 22 23  1  0  0  0  0
 23 29  1  0  0  0  0
 24 23  2  0  0  0  0
 24 30  1  0  0  0  0
 25 24  1  0  0  0  0
 26 27  1  0  0  0  0
 26 25  2  0  0  0  0
 27 22  2  0  0  0  0
M  END
>  <minimizedAffinity>
-5.26784658

$$$$

 OpenBabel03262522533D

 30 33  0  0  0  0  0  0  0  0999 V2000
   36.5770   23.3220   31.1790 C   0  0  0  0  0  0  0  0  0  0  0  0
   37.7600   23.8700   30.9130 C   0  0  0  0  0  0  0  0  0  0  0  0
   37.8670   25.2420   30.8560 C   0  0  0  0  0  0  0  0  0  0  0  0
   36.7260   25.9470   31.0840 C   0  0  0  0  0  0  0  0  0  0  0  0
   35.4930   24.6320   31.3800 S   0  0  0  0  0  0  0  0  0  0  0  0
   38.6400   23.2210   30.7390 H   0  0  0  0  0  0  0  0  0  0  0  0
   38.7850   25.7880   30.6460 H   0  0  0  0  0  0  0  0  0  0  0  0
   36.5170   27.3980   31.0930 C   0  0  0  0  0  0  0  0  0  0  0  0
   36.9230   28.1490   30.0550 C   0  0  0  0  0  0  0  0  0  0  0  0
   36.6980   29.5000   30.1270 C   0  0  0  0  0  0  0  0  0  0  0  0
   36.0880   30.0830   31.2020 N   0  0  0  0  0  0  0  0  0  0  0  0
   35.7200   29.2350   32.1880 C   0  0  0  0  0  0  0  0  0  0  0  0
   35.9040   27.8940   32.1990 N   0  0  0  0  0  0  0  0  0  0  0  0
   37.4140   27.7320   29.1770 H   0  0  0  0  0  0  0  0  0  0  0  0
   36.9950   30.1690   29.3330 H   0  0  0  0  0  0  0  0  0  0  0  0
   35.0810   29.8020   33.3280 N   0  0  0  0  0  0  0  0  0  0  0  0
   33.7310   30.3030   33.5020 C   0  0  0  0  0  2  0  0  0  0  0  0
   33.8010   31.5420   34.3290 C   0  0  0  0  0  2  0  0  0  0  0  0
   35.1360   31.4550   34.9980 C   0  0  0  0  0  2  0  0  0  0  0  0
   35.5850   30.0490   34.6630 C   0  0  0  0  0  3  0  0  0  0  0  0
   35.1620   29.3320   35.4030 H   0  0  0  0  0  0  0  0  0  0  0  0
   36.7140   19.7000   30.7760 C   0  0  0  0  0  0  0  0  0  0  0  0
   35.6020   19.2450   31.4740 C   0  0  0  0  0  0  0  0  0  0  0  0
   34.7890   20.2020   32.0920 C   0  0  0  0  0  0  0  0  0  0  0  0
   35.1160   21.5310   31.9890 N   0  0  0  0  0  0  0  0  0  0  0  0
   36.2180   21.8970   31.2930 C   0  0  0  0  0  0  0  0  0  0  0  0
   37.0120   21.0230   30.6930 N   0  0  0  0  0  0  0  0  0  0  0  0
   37.3570   18.9760   30.2900 H   0  0  0  0  0  0  0  0  0  0  0  0
   35.3280   18.2150   31.5660 H   0  0  0  0  0  0  0  0  0  0  0  0
   33.9000   19.9560   32.6580 H   0  0  0  0  0  0  0  0  0  0  0  0
  1 26  1  0  0  0  0
  1  5  1  0  0  0  0
  2  1  2  0  0  0  0
  3  2  1  0  0  0  0
  3  4  2  0  0  0  0
  4  8  1  0  0  0  0
  4  5  1  0  0  0  0
  6  2  1  0  0  0  0
  7  3  1  0  0  0  0
  8 13  1  0  0  0  0
  9 10  1  0  0  0  0
  9  8  2  0  0  0  0
 10 11  2  0  0  0  0
 11 12  1  0  0  0  0
 12 13  2  0  0  0  0
 12 16  1  0  0  0  0
 14  9  1  0  0  0  0
 15 10  1  0  0  0  0
 16 17  1  0  0  0  0
 16 20  1  0  0  0  0
 17 18  1  0  0  0  0
 18 19  1  0  0  0  0
 20 19  1  0  0  0  0
 20 21  1  0  0  0  0
 22 23  1  0  0  0  0
 23 29  1  0  0  0  0
 23 24  2  0  0  0  0
 24 30  1  0  0  0  0
 25 24  1  0  0  0  0
 26 25  2  0  0  0  0
 27 22  2  0  0  0  0
 27 26  1  0  0  0  0
 28 22  1  0  0  0  0
M  END
>  <minimizedAffinity>
-5.18282366

$$$$

 OpenBabel03262522533D

 30 33  0  0  0  0  0  0  0  0999 V2000
   36.2800   23.7040   31.7650 C   0  0  0  0  0  0  0  0  0  0  0  0
   37.2470   24.3510   32.4110 C   0  0  0  0  0  0  0  0  0  0  0  0
   37.2720   25.7280   32.3760 C   0  0  0  0  0  0  0  0  0  0  0  0
   36.2800   26.3330   31.6670 C   0  0  0  0  0  0  0  0  0  0  0  0
   35.3080   24.9170   31.0470 S   0  0  0  0  0  0  0  0  0  0  0  0
   38.0160   23.7810   32.9640 H   0  0  0  0  0  0  0  0  0  0  0  0
   38.0160   26.3520   32.8680 H   0  0  0  0  0  0  0  0  0  0  0  0
   36.0370   27.7610   31.4440 C   0  0  0  0  0  0  0  0  0  0  0  0
   36.7410   28.4340   30.5180 C   0  0  0  0  0  0  0  0  0  0  0  0
   36.4640   29.7680   30.3600 C   0  0  0  0  0  0  0  0  0  0  0  0
   35.5150   30.4110   31.1030 N   0  0  0  0  0  0  0  0  0  0  0  0
   34.8670   29.6390   32.0050 C   0  0  0  0  0  0  0  0  0  0  0  0
   35.0770   28.3200   32.2260 N   0  0  0  0  0  0  0  0  0  0  0  0
   37.5070   27.9670   29.9000 H   0  0  0  0  0  0  0  0  0  0  0  0
   36.9870   30.3750   29.6360 H   0  0  0  0  0  0  0  0  0  0  0  0
   33.8690   30.2690   32.8030 N   0  0  0  0  0  0  0  0  0  0  0  0
   32.5240   30.6960   32.4690 C   0  0  0  0  0  2  0  0  0  0  0  0
   32.2780   32.0110   33.1290 C   0  0  0  0  0  2  0  0  0  0  0  0
   33.3180   32.0760   34.2020 C   0  0  0  0  0  2  0  0  0  0  0  0
   33.8950   30.6760   34.1930 C   0  0  0  0  0  3  0  0  0  0  0  0
   33.2720   30.0080   34.8290 H   0  0  0  0  0  0  0  0  0  0  0  0
   36.7090   20.2130   30.7990 C   0  0  0  0  0  0  0  0  0  0  0  0
   35.6570   19.5610   31.4320 C   0  0  0  0  0  0  0  0  0  0  0  0
   34.7850   20.3360   32.2040 C   0  0  0  0  0  0  0  0  0  0  0  0
   34.9960   21.6890   32.3050 N   0  0  0  0  0  0  0  0  0  0  0  0
   36.0450   22.2530   31.6600 C   0  0  0  0  0  0  0  0  0  0  0  0
   36.8920   21.5550   30.9200 N   0  0  0  0  0  0  0  0  0  0  0  0
   37.3970   19.6320   30.1960 H   0  0  0  0  0  0  0  0  0  0  0  0
   35.4730   18.5090   31.3650 H   0  0  0  0  0  0  0  0  0  0  0  0
   33.9350   19.9290   32.7360 H   0  0  0  0  0  0  0  0  0  0  0  0
  1  2  2  0  0  0  0
  2  6  1  0  0  0  0
  3  2  1  0  0  0  0
  3  7  1  0  0  0  0
  4  3  2  0  0  0  0
  5  4  1  0  0  0  0
  5  1  1  0  0  0  0
  8  4  1  0  0  0  0
  8 13  1  0  0  0  0
  9  8  2  0  0  0  0
 10  9  1  0  0  0  0
 10 11  2  0  0  0  0
 11 12  1  0  0  0  0
 12 13  2  0  0  0  0
 12 16  1  0  0  0  0
 14  9  1  0  0  0  0
 15 10  1  0  0  0  0
 16 20  1  0  0  0  0
 17 16  1  0  0  0  0
 17 18  1  0  0  0  0
 18 19  1  0  0  0  0
 20 19  1  0  0  0  0
 20 21  1  0  0  0  0
 22 27  2  0  0  0  0
 22 23  1  0  0  0  0
 23 24  2  0  0  0  0
 24 25  1  0  0  0  0
 24 30  1  0  0  0  0
 26  1  1  0  0  0  0
 26 25  2  0  0  0  0
 27 26  1  0  0  0  0
 28 22  1  0  0  0  0
 29 23  1  0  0  0  0
M  END
>  <minimizedAffinity>
-5.1127634

$$$$

 OpenBabel03262522533D

 30 33  0  0  0  0  0  0  0  0999 V2000
   37.4200   27.7170   32.7470 C   0  0  0  0  0  0  0  0  0  0  0  0
   36.7420   27.8360   33.8860 C   0  0  0  0  0  0  0  0  0  0  0  0
   37.0110   26.9680   34.9210 C   0  0  0  0  0  0  0  0  0  0  0  0
   37.9730   26.0340   34.6920 C   0  0  0  0  0  0  0  0  0  0  0  0
   38.4940   26.4040   32.9810 S   0  0  0  0  0  0  0  0  0  0  0  0
   35.9730   28.6250   33.9880 H   0  0  0  0  0  0  0  0  0  0  0  0
   36.5140   26.9800   35.8900 H   0  0  0  0  0  0  0  0  0  0  0  0
   38.4780   24.9840   35.5820 C   0  0  0  0  0  0  0  0  0  0  0  0
   37.7670   24.6040   36.6570 C   0  0  0  0  0  0  0  0  0  0  0  0
   38.2970   23.6170   37.4480 C   0  0  0  0  0  0  0  0  0  0  0  0
   39.5000   23.0290   37.1760 N   0  0  0  0  0  0  0  0  0  0  0  0
   40.1300   23.4870   36.0710 C   0  0  0  0  0  0  0  0  0  0  0  0
   39.6810   24.4550   35.2380 N   0  0  0  0  0  0  0  0  0  0  0  0
   36.8040   25.0420   36.9160 H   0  0  0  0  0  0  0  0  0  0  0  0
   37.7850   23.2580   38.3280 H   0  0  0  0  0  0  0  0  0  0  0  0
   41.3890   22.9020   35.7510 N   0  0  0  0  0  0  0  0  0  0  0  0
   41.7100   21.6080   35.1780 C   0  0  0  0  0  2  0  0  0  0  0  0
   42.9140   21.0780   35.8810 C   0  0  0  0  0  2  0  0  0  0  0  0
   43.5270   22.2880   36.5120 C   0  0  0  0  0  2  0  0  0  0  0  0
   42.7330   23.4210   35.8980 C   0  0  0  0  0  3  0  0  0  0  0  0
   43.1760   23.7030   34.9160 H   0  0  0  0  0  0  0  0  0  0  0  0
   36.4990   30.4100   30.4670 C   0  0  0  0  0  0  0  0  0  0  0  0
   37.0850   30.0420   29.2620 C   0  0  0  0  0  0  0  0  0  0  0  0
   37.8100   28.8440   29.2340 C   0  0  0  0  0  0  0  0  0  0  0  0
   37.9120   28.0910   30.3770 N   0  0  0  0  0  0  0  0  0  0  0  0
   37.3130   28.5180   31.5140 C   0  0  0  0  0  0  0  0  0  0  0  0
   36.6190   29.6440   31.5830 N   0  0  0  0  0  0  0  0  0  0  0  0
   35.9340   31.3330   30.5110 H   0  0  0  0  0  0  0  0  0  0  0  0
   37.0180   30.6120   28.3590 H   0  0  0  0  0  0  0  0  0  0  0  0
   38.3040   28.4650   28.3490 H   0  0  0  0  0  0  0  0  0  0  0  0
  1  5  1  0  0  0  0
  1  2  2  0  0  0  0
  2  6  1  0  0  0  0
  2  3  1  0  0  0  0
  3  7  1  0  0  0  0
  4  3  2  0  0  0  0
  4  8  1  0  0  0  0
  5  4  1  0  0  0  0
  8  9  1  0  0  0  0
  9 14  1  0  0  0  0
  9 10  2  0  0  0  0
 10 15  1  0  0  0  0
 11 10  1  0  0  0  0
 12 11  2  0  0  0  0
 13  8  2  0  0  0  0
 13 12  1  0  0  0  0
 16 20  1  0  0  0  0
 16 12  1  0  0  0  0
 17 16  1  0  0  0  0
 17 18  1  0  0  0  0
 18 19  1  0  0  0  0
 20 19  1  0  0  0  0
 21 20  1  0  0  0  0
 22 28  1  0  0  0  0
 22 27  1  0  0  0  0
 23 22  2  0  0  0  0
 24 23  1  0  0  0  0
 24 25  2  0  0  0  0
 25 26  1  0  0  0  0
 26 27  2  0  0  0  0
 26  1  1  0  0  0  0
 29 23  1  0  0  0  0
 30 24  1  0  0  0  0
M  END
>  <minimizedAffinity>
-5.10848856

$$$$

 OpenBabel03262522533D

 30 33  0  0  0  0  0  0  0  0999 V2000
   36.1100   28.6900   33.9830 C   0  0  0  0  0  0  0  0  0  0  0  0
   36.0360   28.1990   32.7490 C   0  0  0  0  0  0  0  0  0  0  0  0
   36.6410   26.9930   32.4700 C   0  0  0  0  0  0  0  0  0  0  0  0
   37.2820   26.3830   33.5040 C   0  0  0  0  0  0  0  0  0  0  0  0
   37.0140   27.5500   34.8840 S   0  0  0  0  0  0  0  0  0  0  0  0
   35.4940   28.7600   31.9650 H   0  0  0  0  0  0  0  0  0  0  0  0
   36.6400   26.5050   31.4960 H   0  0  0  0  0  0  0  0  0  0  0  0
   38.0100   25.1120   33.5250 C   0  0  0  0  0  0  0  0  0  0  0  0
   37.9120   24.2550   32.4940 C   0  0  0  0  0  0  0  0  0  0  0  0
   38.6190   23.0840   32.5780 C   0  0  0  0  0  0  0  0  0  0  0  0
   39.4000   22.7750   33.6570 N   0  0  0  0  0  0  0  0  0  0  0  0
   39.4260   23.7070   34.6350 C   0  0  0  0  0  0  0  0  0  0  0  0
   38.7610   24.8870   34.6340 N   0  0  0  0  0  0  0  0  0  0  0  0
   37.3040   24.4550   31.6130 H   0  0  0  0  0  0  0  0  0  0  0  0
   38.5920   22.3450   31.7900 H   0  0  0  0  0  0  0  0  0  0  0  0
   40.2270   23.4270   35.7790 N   0  0  0  0  0  0  0  0  0  0  0  0
   41.6660   23.4600   35.9560 C   0  0  0  0  0  2  0  0  0  0  0  0
   42.0570   22.2900   36.7940 C   0  0  0  0  0  2  0  0  0  0  0  0
   40.7830   21.8840   37.4640 C   0  0  0  0  0  2  0  0  0  0  0  0
   39.8470   23.0230   37.1180 C   0  0  0  0  0  3  0  0  0  0  0  0
   39.9740   23.8510   37.8500 H   0  0  0  0  0  0  0  0  0  0  0  0
   35.7060   31.6710   36.0450 C   0  0  0  0  0  0  0  0  0  0  0  0
   34.5550   32.2690   35.5450 C   0  0  0  0  0  0  0  0  0  0  0  0
   33.9060   31.6340   34.4800 C   0  0  0  0  0  0  0  0  0  0  0  0
   34.4210   30.4650   33.9780 N   0  0  0  0  0  0  0  0  0  0  0  0
   35.5490   29.9440   34.5180 C   0  0  0  0  0  0  0  0  0  0  0  0
   36.1920   30.5130   35.5250 N   0  0  0  0  0  0  0  0  0  0  0  0
   36.2240   32.1460   36.8700 H   0  0  0  0  0  0  0  0  0  0  0  0
   34.1360   33.1780   35.9220 H   0  0  0  0  0  0  0  0  0  0  0  0
   33.0040   32.0130   34.0170 H   0  0  0  0  0  0  0  0  0  0  0  0
  1 26  1  0  0  0  0
  1  5  1  0  0  0  0
  2  1  2  0  0  0  0
  3  2  1  0  0  0  0
  3  4  2  0  0  0  0
  4  8  1  0  0  0  0
  4  5  1  0  0  0  0
  6  2  1  0  0  0  0
  7  3  1  0  0  0  0
  8 13  1  0  0  0  0
  9 10  1  0  0  0  0
  9  8  2  0  0  0  0
 10 11  2  0  0  0  0
 11 12  1  0  0  0  0
 12 16  1  0  0  0  0
 13 12  2  0  0  0  0
 14  9  1  0  0  0  0
 15 10  1  0  0  0  0
 16 17  1  0  0  0  0
 16 20  1  0  0  0  0
 17 18  1  0  0  0  0
 18 19  1  0  0  0  0
 20 19  1  0  0  0  0
 20 21  1  0  0  0  0
 22 28  1  0  0  0  0
 23 29  1  0  0  0  0
 23 22  1  0  0  0  0
 24 23  2  0  0  0  0
 25 24  1  0  0  0  0
 25 26  2  0  0  0  0
 26 27  1  0  0  0  0
 27 22  2  0  0  0  0
 30 24  1  0  0  0  0
M  END
>  <minimizedAffinity>
-5.09280109

$$$$

 OpenBabel03262522533D

 30 33  0  0  0  0  0  0  0  0999 V2000
   33.8840   31.5820   35.8360 C   0  0  0  0  0  0  0  0  0  0  0  0
   33.1060   30.6210   35.3460 C   0  0  0  0  0  0  0  0  0  0  0  0
   33.6810   29.5860   34.6420 C   0  0  0  0  0  0  0  0  0  0  0  0
   35.0340   29.6280   34.5010 C   0  0  0  0  0  0  0  0  0  0  0  0
   35.4810   31.1640   35.3820 S   0  0  0  0  0  0  0  0  0  0  0  0
   32.0120   30.6630   35.5080 H   0  0  0  0  0  0  0  0  0  0  0  0
   33.1360   28.7520   34.2020 H   0  0  0  0  0  0  0  0  0  0  0  0
   35.9250   28.6890   33.8150 C   0  0  0  0  0  0  0  0  0  0  0  0
   35.8050   28.4800   32.4930 C   0  0  0  0  0  0  0  0  0  0  0  0
   36.6710   27.5880   31.9140 C   0  0  0  0  0  0  0  0  0  0  0  0
   37.6260   26.9240   32.6320 N   0  0  0  0  0  0  0  0  0  0  0  0
   37.6580   27.2090   33.9530 C   0  0  0  0  0  0  0  0  0  0  0  0
   36.8430   28.0730   34.6040 N   0  0  0  0  0  0  0  0  0  0  0  0
   35.0620   28.9840   31.8780 H   0  0  0  0  0  0  0  0  0  0  0  0
   36.6370   27.3670   30.8570 H   0  0  0  0  0  0  0  0  0  0  0  0
   38.6370   26.5380   34.7390 N   0  0  0  0  0  0  0  0  0  0  0  0
   40.0690   26.7460   34.8430 C   0  0  0  0  0  2  0  0  0  0  0  0
   40.7260   25.4090   34.9180 C   0  0  0  0  0  2  0  0  0  0  0  0
   39.6220   24.4870   35.3290 C   0  0  0  0  0  2  0  0  0  0  0  0
   38.5020   25.4430   35.6780 C   0  0  0  0  0  3  0  0  0  0  0  0
   38.6130   25.7860   36.7310 H   0  0  0  0  0  0  0  0  0  0  0  0
   34.1400   34.4440   38.0830 C   0  0  0  0  0  0  0  0  0  0  0  0
   32.8630   34.9910   38.0730 C   0  0  0  0  0  0  0  0  0  0  0  0
   31.8960   34.3630   37.2800 C   0  0  0  0  0  0  0  0  0  0  0  0
   32.2390   33.2490   36.5540 N   0  0  0  0  0  0  0  0  0  0  0  0
   33.5070   32.7760   36.6150 C   0  0  0  0  0  0  0  0  0  0  0  0
   34.4500   33.3400   37.3530 N   0  0  0  0  0  0  0  0  0  0  0  0
   34.9040   34.9140   38.6910 H   0  0  0  0  0  0  0  0  0  0  0  0
   32.5730   35.8560   38.6310 H   0  0  0  0  0  0  0  0  0  0  0  0
   30.8720   34.7060   37.2010 H   0  0  0  0  0  0  0  0  0  0  0  0
  1 26  1  0  0  0  0
  2  6  1  0  0  0  0
  2  1  2  0  0  0  0
  3  2  1  0  0  0  0
  4  3  2  0  0  0  0
  4  5  1  0  0  0  0
  5  1  1  0  0  0  0
  7  3  1  0  0  0  0
  8  4  1  0  0  0  0
  8 13  1  0  0  0  0
  9  8  2  0  0  0  0
 10  9  1  0  0  0  0
 10 11  2  0  0  0  0
 11 12  1  0  0  0  0
 12 13  2  0  0  0  0
 12 16  1  0  0  0  0
 14  9  1  0  0  0  0
 15 10  1  0  0  0  0
 16 17  1  0  0  0  0
 16 20  1  0  0  0  0
 17 18  1  0  0  0  0
 18 19  1  0  0  0  0
 19 20  1  0  0  0  0
 20 21  1  0  0  0  0
 22 28  1  0  0  0  0
 23 22  1  0  0  0  0
 23 29  1  0  0  0  0
 24 23  2  0  0  0  0
 25 26  2  0  0  0  0
 25 24  1  0  0  0  0
 26 27  1  0  0  0  0
 27 22  2  0  0  0  0
 30 24  1  0  0  0  0
M  END
>  <minimizedAffinity>
-5.08835459

$$$$
