
 OpenBabel03272508433D

 24 26  0  0  0  0  0  0  0  0999 V2000
   35.5620   29.6330   49.3430 C   0  0  0  0  0  0  0  0  0  0  0  0
   36.6870   29.5380   50.1300 C   0  0  0  0  0  0  0  0  0  0  0  0
   37.6690   30.1050   49.3290 C   0  0  0  0  0  0  0  0  0  0  0  0
   37.1190   30.5040   48.1360 C   0  0  0  0  0  0  0  0  0  0  0  0
   35.8510   30.2090   48.1670 O   0  0  0  0  0  0  0  0  0  0  0  0
   36.8180   29.1400   51.1090 H   0  0  0  0  0  0  0  0  0  0  0  0
   38.7230   30.2070   49.6300 H   0  0  0  0  0  0  0  0  0  0  0  0
   37.8580   31.1260   47.0880 N   0  0  0  0  0  0  0  0  0  0  0  0
   37.5450   31.0390   45.6700 C   0  0  0  0  0  2  0  0  0  0  0  0
   38.9300   30.8160   45.1060 C   0  0  0  0  0  2  0  0  0  0  0  0
   39.9260   31.2490   46.1600 C   0  0  0  0  0  2  0  0  0  0  0  0
   39.0480   31.9600   47.1680 C   0  0  0  0  0  3  0  0  0  0  0  0
   38.8490   32.9700   46.7570 H   0  0  0  0  0  0  0  0  0  0  0  0
   34.2220   29.1670   49.7320 C   0  0  0  0  0  0  0  0  0  0  0  0
   33.6890   29.7030   50.7340 O   0  0  0  0  0  0  0  0  0  0  0  0
   31.5830   27.0690   48.3900 C   0  0  0  0  0  0  0  0  0  0  0  0
   32.2500   26.1720   47.5660 C   0  0  0  0  0  0  0  0  0  0  0  0
   33.6340   26.2860   47.4660 C   0  0  0  0  0  0  0  0  0  0  0  0
   34.2380   27.2610   48.1770 N   0  0  0  0  0  0  0  0  0  0  0  0
   33.5550   28.1240   48.9750 C   0  0  0  0  0  0  0  0  0  0  0  0
   32.2260   28.0150   49.0710 N   0  0  0  0  0  0  0  0  0  0  0  0
   30.5130   26.9110   48.4080 H   0  0  0  0  0  0  0  0  0  0  0  0
   31.7420   25.3970   47.0060 H   0  0  0  0  0  0  0  0  0  0  0  0
   34.2350   25.6230   46.8440 H   0  0  0  0  0  0  0  0  0  0  0  0
  1 14  1  0  0  0  0
  1  2  2  0  0  0  0
  2  6  1  0  0  0  0
  3  7  1  0  0  0  0
  3  2  1  0  0  0  0
  4  5  1  0  0  0  0
  4  3  2  0  0  0  0
  5  1  1  0  0  0  0
  8 12  1  0  0  0  0
  8  4  1  0  0  0  0
  9  8  1  0  0  0  0
 10  9  1  0  0  0  0
 10 11  1  0  0  0  0
 11 12  1  0  0  0  0
 13 12  1  0  0  0  0
 14 15  2  0  0  0  0
 16 22  1  0  0  0  0
 16 21  1  0  0  0  0
 17 16  2  0  0  0  0
 18 17  1  0  0  0  0
 18 19  2  0  0  0  0
 19 20  1  0  0  0  0
 20 21  2  0  0  0  0
 20 14  1  0  0  0  0
 23 17  1  0  0  0  0
 24 18  1  0  0  0  0
M  END
>  <minimizedAffinity>
-4.99476004

>  <minimizedRMSD>
3.59293318

$$$$
