
 OpenBabel03262523413D

 29 31  0  0  1  0  0  0  0  0999 V2000
   40.0950   26.8520   33.7510 C   0  0  0  0  0  0  0  0  0  0  0  0
   40.0930   26.0900   34.9220 C   0  0  0  0  0  0  0  0  0  0  0  0
   39.1740   25.0630   35.0560 C   0  0  0  0  0  0  0  0  0  0  0  0
   38.3160   24.8600   34.0200 N   0  0  0  0  0  0  0  0  0  0  0  0
   38.3110   25.5920   32.8850 C   0  0  0  0  0  0  0  0  0  0  0  0
   39.2070   26.5940   32.7530 N   0  0  0  0  0  0  0  0  0  0  0  0
   39.1100   24.2420   36.2040 N   0  0  0  0  0  0  0  0  0  0  0  0
   38.0250   24.5090   37.1220 C   0  0  0  0  0  0  0  0  0  0  0  0
   37.9780   23.6600   38.3310 C   0  0  0  0  0  0  0  0  0  0  0  0
   38.8960   22.6340   38.4500 N   0  0  0  0  0  0  0  0  0  0  0  0
   40.1740   22.7390   37.8350 C   0  0  0  0  0  0  0  0  0  0  0  0
   40.0680   23.2120   36.3930 C   0  0  2  0  0  0  0  0  0  0  0  0
   40.7720   27.6640   33.5650 H   0  0  0  0  0  0  0  0  0  0  0  0
   40.7960   26.3380   35.6720 H   0  0  0  0  0  0  0  0  0  0  0  0
   37.5770   25.3310   32.1340 H   0  0  0  0  0  0  0  0  0  0  0  0
   37.9730   25.5940   37.3510 H   0  0  0  0  0  0  0  0  0  0  0  0
   37.0950   24.3280   36.5040 H   0  0  0  0  0  0  0  0  0  0  0  0
   38.1040   24.3440   39.2240 H   0  0  0  0  0  0  0  0  0  0  0  0
   36.9410   23.2590   38.4830 H   0  0  0  0  0  0  0  0  0  0  0  0
   38.5560   21.6570   38.5350 H   0  0  0  0  0  0  0  0  0  0  0  0
   40.8140   23.3550   38.4620 H   0  0  0  0  0  0  0  0  0  0  0  0
   40.6140   21.7240   37.8100 H   0  0  0  0  0  0  0  0  0  0  0  0
   39.5240   22.3070   35.9300 H   0  0  0  0  0  0  0  0  0  0  0  0
   41.2760   23.2580   35.6820 N   0  0  2  0  0  0  0  0  0  0  0  0
   41.3770   22.0030   34.9230 C   0  0  0  0  0  2  0  0  0  0  0  0
   42.5240   21.2220   35.4520 C   0  0  0  0  0  2  0  0  0  0  0  0
   43.4290   22.2780   35.9970 C   0  0  0  0  0  2  0  0  0  0  0  0
   42.4860   23.3840   36.4190 C   0  0  0  0  0  3  0  0  0  0  0  0
   43.0480   24.3270   36.1410 H   0  0  0  0  0  0  0  0  0  0  0  0
  1  2  1  0  0  0  0
  2  3  2  0  0  0  0
  2 14  1  0  0  0  0
  3  7  1  0  0  0  0
  4  3  1  0  0  0  0
  5  4  2  0  0  0  0
  6  5  1  0  0  0  0
  6  1  2  0  0  0  0
  7 12  1  0  0  0  0
  7  8  1  0  0  0  0
  8 16  1  0  0  0  0
  8  9  1  0  0  0  0
  9 10  1  0  0  0  0
  9 19  1  0  0  0  0
  9 18  1  0  0  0  0
 10 20  1  0  0  0  0
 11 10  1  0  0  0  0
 11 21  1  0  0  0  0
 12 23  1  6  0  0  0
 12 11  1  0  0  0  0
 13  1  1  0  0  0  0
 15  5  1  0  0  0  0
 17  8  1  0  0  0  0
 22 11  1  0  0  0  0
 24 25  1  1  0  0  0
 24 12  1  0  0  0  0
 24 28  1  0  0  0  0
 25 26  1  0  0  0  0
 26 27  1  0  0  0  0
 27 28  1  0  0  0  0
 29 28  1  0  0  0  0
M  END
>  <minimizedAffinity>
-4.76116419

$$$$

 OpenBabel03262523413D

 29 31  0  0  1  0  0  0  0  0999 V2000
   35.6570   30.0940   31.5420 C   0  0  0  0  0  0  0  0  0  0  0  0
   35.7780   28.7800   32.0030 C   0  0  0  0  0  0  0  0  0  0  0  0
   36.4930   27.8650   31.2490 C   0  0  0  0  0  0  0  0  0  0  0  0
   37.0400   28.3130   30.0860 N   0  0  0  0  0  0  0  0  0  0  0  0
   36.9280   29.5800   29.6340 C   0  0  0  0  0  0  0  0  0  0  0  0
   36.2310   30.4730   30.3690 N   0  0  0  0  0  0  0  0  0  0  0  0
   36.6680   26.5200   31.6450 N   0  0  0  0  0  0  0  0  0  0  0  0
   35.8640   25.5380   30.9530 C   0  0  0  0  0  0  0  0  0  0  0  0
   36.0370   24.1370   31.3890 C   0  0  0  0  0  0  0  0  0  0  0  0
   37.0010   23.8590   32.3400 N   0  0  0  0  0  0  0  0  0  0  0  0
   37.3640   24.8410   33.3020 C   0  0  0  0  0  0  0  0  0  0  0  0
   37.6080   26.1970   32.6590 C   0  0  2  0  0  0  0  0  0  0  0  0
   35.1220   30.8640   32.0630 H   0  0  0  0  0  0  0  0  0  0  0  0
   35.3050   28.5320   32.9150 H   0  0  0  0  0  0  0  0  0  0  0  0
   37.4090   29.8120   28.6920 H   0  0  0  0  0  0  0  0  0  0  0  0
   34.8010   25.8580   30.9310 H   0  0  0  0  0  0  0  0  0  0  0  0
   36.1870   25.6340   29.8730 H   0  0  0  0  0  0  0  0  0  0  0  0
   35.0400   23.7870   31.7930 H   0  0  0  0  0  0  0  0  0  0  0  0
   36.1810   23.4680   30.5000 H   0  0  0  0  0  0  0  0  0  0  0  0
   37.7720   23.2050   32.1050 H   0  0  0  0  0  0  0  0  0  0  0  0
   36.6170   24.8480   34.0930 H   0  0  0  0  0  0  0  0  0  0  0  0
   38.3220   24.5220   33.7560 H   0  0  0  0  0  0  0  0  0  0  0  0
   38.5430   25.9510   32.0320 H   0  0  0  0  0  0  0  0  0  0  0  0
   38.0580   27.2050   33.5250 N   0  0  2  0  0  0  0  0  0  0  0  0
   39.5230   27.0950   33.5900 C   0  0  0  0  0  2  0  0  0  0  0  0
   39.9060   26.7030   34.9700 C   0  0  0  0  0  2  0  0  0  0  0  0
   38.7860   27.2410   35.7970 C   0  0  0  0  0  2  0  0  0  0  0  0
   37.5920   27.1950   34.8680 C   0  0  0  0  0  3  0  0  0  0  0  0
   37.0270   28.1430   35.1220 H   0  0  0  0  0  0  0  0  0  0  0  0
  1  2  1  0  0  0  0
  1 13  1  0  0  0  0
  2 14  1  0  0  0  0
  3  7  1  0  0  0  0
  3  2  2  0  0  0  0
  4  3  1  0  0  0  0
  5  4  2  0  0  0  0
  5  6  1  0  0  0  0
  6  1  2  0  0  0  0
  7 12  1  0  0  0  0
  8  9  1  0  0  0  0
  8  7  1  0  0  0  0
  9 18  1  0  0  0  0
  9 10  1  0  0  0  0
 10 11  1  0  0  0  0
 11 22  1  0  0  0  0
 11 21  1  0  0  0  0
 12 23  1  6  0  0  0
 12 11  1  0  0  0  0
 12 24  1  0  0  0  0
 15  5  1  0  0  0  0
 16  8  1  0  0  0  0
 17  8  1  0  0  0  0
 19  9  1  0  0  0  0
 20 10  1  0  0  0  0
 24 25  1  1  0  0  0
 24 28  1  0  0  0  0
 25 26  1  0  0  0  0
 26 27  1  0  0  0  0
 28 29  1  0  0  0  0
 28 27  1  0  0  0  0
M  END
>  <minimizedAffinity>
-4.58557844

$$$$

 OpenBabel03262523413D

 29 31  0  0  1  0  0  0  0  0999 V2000
   38.4180   23.8350   32.4890 C   0  0  0  0  0  0  0  0  0  0  0  0
   38.7170   23.9000   33.8520 C   0  0  0  0  0  0  0  0  0  0  0  0
   38.3030   22.8730   34.6830 C   0  0  0  0  0  0  0  0  0  0  0  0
   37.6170   21.8490   34.1080 N   0  0  0  0  0  0  0  0  0  0  0  0
   37.3240   21.7780   32.7920 C   0  0  0  0  0  0  0  0  0  0  0  0
   37.7280   22.7790   31.9800 N   0  0  0  0  0  0  0  0  0  0  0  0
   38.5700   22.8590   36.0710 N   0  0  0  0  0  0  0  0  0  0  0  0
   37.4610   23.1860   36.9400 C   0  0  0  0  0  0  0  0  0  0  0  0
   37.7550   23.1900   38.3880 C   0  0  0  0  0  0  0  0  0  0  0  0
   39.0140   22.8000   38.8050 N   0  0  0  0  0  0  0  0  0  0  0  0
   40.1400   22.9900   37.9590 C   0  0  0  0  0  0  0  0  0  0  0  0
   39.8660   22.5180   36.5400 C   0  0  2  0  0  0  0  0  0  0  0  0
   38.7010   24.5850   31.7770 H   0  0  0  0  0  0  0  0  0  0  0  0
   39.2470   24.7470   34.2010 H   0  0  0  0  0  0  0  0  0  0  0  0
   36.7710   20.9090   32.4560 H   0  0  0  0  0  0  0  0  0  0  0  0
   36.9630   24.1160   36.5950 H   0  0  0  0  0  0  0  0  0  0  0  0
   36.6960   22.3830   36.7180 H   0  0  0  0  0  0  0  0  0  0  0  0
   37.5770   24.2440   38.7620 H   0  0  0  0  0  0  0  0  0  0  0  0
   36.9750   22.6060   38.9440 H   0  0  0  0  0  0  0  0  0  0  0  0
   39.1070   21.9870   39.4430 H   0  0  0  0  0  0  0  0  0  0  0  0
   40.4620   24.0260   38.0330 H   0  0  0  0  0  0  0  0  0  0  0  0
   40.9620   22.3600   38.3550 H   0  0  0  0  0  0  0  0  0  0  0  0
   39.7500   21.3870   36.7280 H   0  0  0  0  0  0  0  0  0  0  0  0
   40.9560   22.5860   35.6590 N   0  0  2  0  0  0  0  0  0  0  0  0
   41.7650   21.3790   35.8810 C   0  0  0  0  0  2  0  0  0  0  0  0
   43.0810   21.7890   36.4350 C   0  0  0  0  0  2  0  0  0  0  0  0
   43.2550   23.1720   35.9020 C   0  0  0  0  0  2  0  0  0  0  0  0
   41.8410   23.6930   35.7680 C   0  0  0  0  0  3  0  0  0  0  0  0
   41.8740   24.2980   34.8110 H   0  0  0  0  0  0  0  0  0  0  0  0
  1  2  1  0  0  0  0
  2 14  1  0  0  0  0
  2  3  2  0  0  0  0
  3  7  1  0  0  0  0
  4  3  1  0  0  0  0
  5  4  2  0  0  0  0
  6  1  2  0  0  0  0
  6  5  1  0  0  0  0
  7 12  1  0  0  0  0
  7  8  1  0  0  0  0
  8  9  1  0  0  0  0
  9 18  1  0  0  0  0
  9 10  1  0  0  0  0
  9 19  1  0  0  0  0
 10 20  1  0  0  0  0
 11 21  1  0  0  0  0
 11 22  1  0  0  0  0
 11 10  1  0  0  0  0
 12 23  1  1  0  0  0
 12 11  1  0  0  0  0
 13  1  1  0  0  0  0
 15  5  1  0  0  0  0
 16  8  1  0  0  0  0
 17  8  1  0  0  0  0
 24 28  1  0  0  0  0
 24 25  1  1  0  0  0
 24 12  1  0  0  0  0
 25 26  1  0  0  0  0
 27 26  1  0  0  0  0
 28 27  1  0  0  0  0
 29 28  1  0  0  0  0
M  END
>  <minimizedAffinity>
-4.55751038

$$$$

 OpenBabel03262523413D

 29 31  0  0  1  0  0  0  0  0999 V2000
   36.2430   28.4530   33.1420 C   0  0  0  0  0  0  0  0  0  0  0  0
   35.6350   28.9990   34.2750 C   0  0  0  0  0  0  0  0  0  0  0  0
   35.2090   30.3170   34.2430 C   0  0  0  0  0  0  0  0  0  0  0  0
   35.4160   31.0070   33.0880 N   0  0  0  0  0  0  0  0  0  0  0  0
   36.0020   30.4870   31.9890 C   0  0  0  0  0  0  0  0  0  0  0  0
   36.4180   29.2020   32.0200 N   0  0  0  0  0  0  0  0  0  0  0  0
   34.5800   30.9430   35.3430 N   0  0  0  0  0  0  0  0  0  0  0  0
   35.3920   31.8660   36.1040 C   0  0  0  0  0  0  0  0  0  0  0  0
   34.7330   32.5000   37.2660 C   0  0  0  0  0  0  0  0  0  0  0  0
   33.3920   32.2430   37.4810 N   0  0  0  0  0  0  0  0  0  0  0  0
   32.8200   31.0120   37.0590 C   0  0  0  0  0  0  0  0  0  0  0  0
   33.2190   30.6640   35.6340 C   0  0  2  0  0  0  0  0  0  0  0  0
   36.6000   27.4440   33.0830 H   0  0  0  0  0  0  0  0  0  0  0  0
   35.5310   28.3800   35.1270 H   0  0  0  0  0  0  0  0  0  0  0  0
   36.1090   31.1390   31.1330 H   0  0  0  0  0  0  0  0  0  0  0  0
   36.3670   31.4010   36.3590 H   0  0  0  0  0  0  0  0  0  0  0  0
   35.6720   32.6650   35.3540 H   0  0  0  0  0  0  0  0  0  0  0  0
   35.3010   32.1760   38.1890 H   0  0  0  0  0  0  0  0  0  0  0  0
   34.9080   33.6080   37.2540 H   0  0  0  0  0  0  0  0  0  0  0  0
   32.7190   33.0330   37.4840 H   0  0  0  0  0  0  0  0  0  0  0  0
   33.0610   30.2450   37.7910 H   0  0  0  0  0  0  0  0  0  0  0  0
   31.7190   31.1380   37.0640 H   0  0  0  0  0  0  0  0  0  0  0  0
   32.6860   31.5150   35.0680 H   0  0  0  0  0  0  0  0  0  0  0  0
   32.6260   29.5080   35.1040 N   0  0  2  0  0  0  0  0  0  0  0  0
   31.5830   29.9490   34.1660 C   0  0  0  0  0  2  0  0  0  0  0  0
   30.2610   29.5400   34.7030 C   0  0  0  0  0  2  0  0  0  0  0  0
   30.5890   28.3410   35.5300 C   0  0  0  0  0  2  0  0  0  0  0  0
   32.0030   28.6000   36.0040 C   0  0  0  0  0  3  0  0  0  0  0  0
   32.4830   27.5760   35.9640 H   0  0  0  0  0  0  0  0  0  0  0  0
  1  2  1  0  0  0  0
  2 14  1  0  0  0  0
  3  2  2  0  0  0  0
  3  7  1  0  0  0  0
  4  3  1  0  0  0  0
  5  6  1  0  0  0  0
  5  4  2  0  0  0  0
  6  1  2  0  0  0  0
  7 12  1  0  0  0  0
  7  8  1  0  0  0  0
  8 16  1  0  0  0  0
  8  9  1  0  0  0  0
  9 10  1  0  0  0  0
  9 18  1  0  0  0  0
 10 20  1  0  0  0  0
 11 22  1  0  0  0  0
 11 10  1  0  0  0  0
 11 21  1  0  0  0  0
 12 23  1  6  0  0  0
 12 11  1  0  0  0  0
 13  1  1  0  0  0  0
 15  5  1  0  0  0  0
 17  8  1  0  0  0  0
 19  9  1  0  0  0  0
 24 25  1  6  0  0  0
 24 12  1  0  0  0  0
 24 28  1  0  0  0  0
 25 26  1  0  0  0  0
 26 27  1  0  0  0  0
 27 28  1  0  0  0  0
 29 28  1  0  0  0  0
M  END
>  <minimizedAffinity>
-4.44498158

$$$$

 OpenBabel03262523413D

 29 31  0  0  1  0  0  0  0  0999 V2000
   37.7860   24.2500   37.2870 C   0  0  0  0  0  0  0  0  0  0  0  0
   38.1360   25.1030   36.2380 C   0  0  0  0  0  0  0  0  0  0  0  0
   39.2670   24.8220   35.4890 C   0  0  0  0  0  0  0  0  0  0  0  0
   39.9780   23.7130   35.8320 N   0  0  0  0  0  0  0  0  0  0  0  0
   39.6470   22.8840   36.8440 C   0  0  0  0  0  0  0  0  0  0  0  0
   38.5440   23.1570   37.5750 N   0  0  0  0  0  0  0  0  0  0  0  0
   39.6870   25.6290   34.4080 N   0  0  0  0  0  0  0  0  0  0  0  0
   40.8160   26.4970   34.6570 C   0  0  0  0  0  0  0  0  0  0  0  0
   41.2350   27.3540   33.5280 C   0  0  0  0  0  0  0  0  0  0  0  0
   40.5920   27.2010   32.3140 N   0  0  0  0  0  0  0  0  0  0  0  0
   39.2430   26.7550   32.2670 C   0  0  0  0  0  0  0  0  0  0  0  0
   39.0180   25.5450   33.1580 C   0  0  2  0  0  0  0  0  0  0  0  0
   36.9290   24.3930   37.9150 H   0  0  0  0  0  0  0  0  0  0  0  0
   37.5210   25.9450   36.0610 H   0  0  0  0  0  0  0  0  0  0  0  0
   40.2940   22.0340   37.0170 H   0  0  0  0  0  0  0  0  0  0  0  0
   40.6640   27.0640   35.6000 H   0  0  0  0  0  0  0  0  0  0  0  0
   41.6560   25.7840   34.9140 H   0  0  0  0  0  0  0  0  0  0  0  0
   41.1020   28.4290   33.8580 H   0  0  0  0  0  0  0  0  0  0  0  0
   42.3440   27.2860   33.3790 H   0  0  0  0  0  0  0  0  0  0  0  0
   41.1460   26.9350   31.4770 H   0  0  0  0  0  0  0  0  0  0  0  0
   38.5890   27.5970   32.4810 H   0  0  0  0  0  0  0  0  0  0  0  0
   39.0360   26.4340   31.2270 H   0  0  0  0  0  0  0  0  0  0  0  0
   39.6670   24.7700   32.6050 H   0  0  0  0  0  0  0  0  0  0  0  0
   37.7330   24.9830   33.1030 N   0  0  2  0  0  0  0  0  0  0  0  0
   37.8440   23.7280   32.3460 C   0  0  0  0  0  2  0  0  0  0  0  0
   37.0780   23.8710   31.0820 C   0  0  0  0  0  2  0  0  0  0  0  0
   36.0350   24.8800   31.4310 C   0  0  0  0  0  2  0  0  0  0  0  0
   36.6960   25.7370   32.4890 C   0  0  0  0  0  3  0  0  0  0  0  0
   35.8530   25.9560   33.2120 H   0  0  0  0  0  0  0  0  0  0  0  0
  1  6  1  0  0  0  0
  1 13  1  0  0  0  0
  2  1  2  0  0  0  0
  3  4  2  0  0  0  0
  3  2  1  0  0  0  0
  4  5  1  0  0  0  0
  5 15  1  0  0  0  0
  5  6  2  0  0  0  0
  7  8  1  0  0  0  0
  7  3  1  0  0  0  0
  8 17  1  0  0  0  0
  8 16  1  0  0  0  0
  9 18  1  0  0  0  0
  9  8  1  0  0  0  0
 10  9  1  0  0  0  0
 11 10  1  0  0  0  0
 11 21  1  0  0  0  0
 11 12  1  0  0  0  0
 12 23  1  6  0  0  0
 12  7  1  0  0  0  0
 14  2  1  0  0  0  0
 19  9  1  0  0  0  0
 20 10  1  0  0  0  0
 22 11  1  0  0  0  0
 24 25  1  6  0  0  0
 24 12  1  0  0  0  0
 26 27  1  0  0  0  0
 26 25  1  0  0  0  0
 27 28  1  0  0  0  0
 28 24  1  0  0  0  0
 28 29  1  0  0  0  0
M  END
>  <minimizedAffinity>
-4.42096138

$$$$

 OpenBabel03262523413D

 29 31  0  0  1  0  0  0  0  0999 V2000
   38.7290   22.4450   36.0750 C   0  0  0  0  0  0  0  0  0  0  0  0
   37.8730   22.9430   35.0890 C   0  0  0  0  0  0  0  0  0  0  0  0
   38.4070   23.3650   33.8830 C   0  0  0  0  0  0  0  0  0  0  0  0
   39.7560   23.2670   33.7340 N   0  0  0  0  0  0  0  0  0  0  0  0
   40.5900   22.7870   34.6810 C   0  0  0  0  0  0  0  0  0  0  0  0
   40.0700   22.3750   35.8580 N   0  0  0  0  0  0  0  0  0  0  0  0
   37.6110   23.8750   32.8330 N   0  0  0  0  0  0  0  0  0  0  0  0
   37.6400   25.3090   32.6460 C   0  0  0  0  0  0  0  0  0  0  0  0
   36.7870   25.8360   31.5590 C   0  0  0  0  0  0  0  0  0  0  0  0
   36.1120   24.9350   30.7580 N   0  0  0  0  0  0  0  0  0  0  0  0
   35.7200   23.6690   31.2730 C   0  0  0  0  0  0  0  0  0  0  0  0
   36.8560   22.9880   32.0200 C   0  0  2  0  0  0  0  0  0  0  0  0
   38.4000   22.0980   37.0340 H   0  0  0  0  0  0  0  0  0  0  0  0
   36.8400   22.9870   35.3100 H   0  0  0  0  0  0  0  0  0  0  0  0
   41.6450   22.7610   34.4410 H   0  0  0  0  0  0  0  0  0  0  0  0
   37.4780   25.8270   33.6150 H   0  0  0  0  0  0  0  0  0  0  0  0
   38.7230   25.5310   32.4090 H   0  0  0  0  0  0  0  0  0  0  0  0
   36.0210   26.5180   32.0370 H   0  0  0  0  0  0  0  0  0  0  0  0
   37.3710   26.5480   30.9180 H   0  0  0  0  0  0  0  0  0  0  0  0
   36.2960   24.9270   29.7360 H   0  0  0  0  0  0  0  0  0  0  0  0
   34.8120   23.7950   31.8580 H   0  0  0  0  0  0  0  0  0  0  0  0
   35.4690   23.0220   30.4100 H   0  0  0  0  0  0  0  0  0  0  0  0
   37.5850   22.8060   31.1460 H   0  0  0  0  0  0  0  0  0  0  0  0
   36.5840   21.6930   32.4860 N   0  0  2  0  0  0  0  0  0  0  0  0
   37.1610   20.7550   31.5120 C   0  0  0  0  0  2  0  0  0  0  0  0
   36.0540   20.0050   30.8670 C   0  0  0  0  0  2  0  0  0  0  0  0
   34.9830   20.0220   31.9070 C   0  0  0  0  0  2  0  0  0  0  0  0
   35.2250   21.3130   32.6590 C   0  0  0  0  0  3  0  0  0  0  0  0
   35.0020   21.0360   33.7340 H   0  0  0  0  0  0  0  0  0  0  0  0
  1 13  1  0  0  0  0
  2 14  1  0  0  0  0
  2  1  2  0  0  0  0
  3  2  1  0  0  0  0
  4  3  2  0  0  0  0
  4  5  1  0  0  0  0
  5  6  2  0  0  0  0
  6  1  1  0  0  0  0
  7  3  1  0  0  0  0
  8  7  1  0  0  0  0
  8 16  1  0  0  0  0
  9 18  1  0  0  0  0
  9  8  1  0  0  0  0
 10 11  1  0  0  0  0
 10  9  1  0  0  0  0
 11 21  1  0  0  0  0
 11 12  1  0  0  0  0
 12 23  1  6  0  0  0
 12 24  1  0  0  0  0
 12  7  1  0  0  0  0
 15  5  1  0  0  0  0
 17  8  1  0  0  0  0
 19  9  1  0  0  0  0
 20 10  1  0  0  0  0
 22 11  1  0  0  0  0
 24 25  1  6  0  0  0
 24 28  1  0  0  0  0
 26 25  1  0  0  0  0
 26 27  1  0  0  0  0
 27 28  1  0  0  0  0
 28 29  1  0  0  0  0
M  END
>  <minimizedAffinity>
-4.37274837

$$$$

 OpenBabel03262523413D

 29 31  0  0  1  0  0  0  0  0999 V2000
   36.4150   24.9520   31.1570 C   0  0  0  0  0  0  0  0  0  0  0  0
   37.6370   25.0530   31.8270 C   0  0  0  0  0  0  0  0  0  0  0  0
   37.9700   26.2450   32.4470 C   0  0  0  0  0  0  0  0  0  0  0  0
   37.0680   27.2610   32.3610 N   0  0  0  0  0  0  0  0  0  0  0  0
   35.8850   27.1720   31.7160 C   0  0  0  0  0  0  0  0  0  0  0  0
   35.5600   26.0090   31.1110 N   0  0  0  0  0  0  0  0  0  0  0  0
   39.1820   26.4280   33.1500 N   0  0  0  0  0  0  0  0  0  0  0  0
   40.2010   27.2030   32.4780 C   0  0  0  0  0  0  0  0  0  0  0  0
   41.4740   27.3710   33.2110 C   0  0  0  0  0  0  0  0  0  0  0  0
   41.5640   26.8670   34.4950 N   0  0  0  0  0  0  0  0  0  0  0  0
   40.7890   25.7390   34.8790 C   0  0  0  0  0  0  0  0  0  0  0  0
   39.3370   25.8790   34.4500 C   0  0  2  0  0  0  0  0  0  0  0  0
   36.0800   24.0670   30.6520 H   0  0  0  0  0  0  0  0  0  0  0  0
   38.2720   24.2060   31.8250 H   0  0  0  0  0  0  0  0  0  0  0  0
   35.2550   28.0520   31.7200 H   0  0  0  0  0  0  0  0  0  0  0  0
   40.3430   26.8340   31.4400 H   0  0  0  0  0  0  0  0  0  0  0  0
   39.7200   28.2160   32.3310 H   0  0  0  0  0  0  0  0  0  0  0  0
   42.2840   26.8830   32.5890 H   0  0  0  0  0  0  0  0  0  0  0  0
   41.7860   28.4480   33.2050 H   0  0  0  0  0  0  0  0  0  0  0  0
   41.7720   27.5140   35.2800 H   0  0  0  0  0  0  0  0  0  0  0  0
   41.2790   24.8380   34.5160 H   0  0  0  0  0  0  0  0  0  0  0  0
   40.7950   25.6940   35.9860 H   0  0  0  0  0  0  0  0  0  0  0  0
   39.0220   26.7680   35.1120 H   0  0  0  0  0  0  0  0  0  0  0  0
   38.4810   24.8490   34.8680 N   0  0  2  0  0  0  0  0  0  0  0  0
   37.7380   25.3530   36.0330 C   0  0  0  0  0  2  0  0  0  0  0  0
   38.1360   24.5600   37.2240 C   0  0  0  0  0  2  0  0  0  0  0  0
   38.5440   23.2500   36.6370 C   0  0  0  0  0  2  0  0  0  0  0  0
   39.0590   23.6110   35.2600 C   0  0  0  0  0  3  0  0  0  0  0  0
   38.6970   22.7560   34.6130 H   0  0  0  0  0  0  0  0  0  0  0  0
  1  2  1  0  0  0  0
  2  3  2  0  0  0  0
  3  7  1  0  0  0  0
  4  3  1  0  0  0  0
  5 15  1  0  0  0  0
  5  4  2  0  0  0  0
  6  1  2  0  0  0  0
  6  5  1  0  0  0  0
  7 12  1  0  0  0  0
  8  7  1  0  0  0  0
  8  9  1  0  0  0  0
  9 10  1  0  0  0  0
 10 11  1  0  0  0  0
 10 20  1  0  0  0  0
 11 22  1  0  0  0  0
 12 24  1  0  0  0  0
 12 11  1  0  0  0  0
 12 23  1  1  0  0  0
 13  1  1  0  0  0  0
 14  2  1  0  0  0  0
 16  8  1  0  0  0  0
 17  8  1  0  0  0  0
 18  9  1  0  0  0  0
 19  9  1  0  0  0  0
 21 11  1  0  0  0  0
 24 28  1  0  0  0  0
 24 25  1  1  0  0  0
 25 26  1  0  0  0  0
 27 26  1  0  0  0  0
 28 27  1  0  0  0  0
 29 28  1  0  0  0  0
M  END
>  <minimizedAffinity>
-4.32762671

$$$$

 OpenBabel03262523413D

 29 31  0  0  1  0  0  0  0  0999 V2000
   40.0000   23.0090   37.6440 C   0  0  0  0  0  0  0  0  0  0  0  0
   39.6090   22.8690   36.3110 C   0  0  0  0  0  0  0  0  0  0  0  0
   38.2690   22.9930   35.9840 C   0  0  0  0  0  0  0  0  0  0  0  0
   37.4040   23.2470   37.0040 N   0  0  0  0  0  0  0  0  0  0  0  0
   37.7730   23.3840   38.2950 C   0  0  0  0  0  0  0  0  0  0  0  0
   39.0800   23.2640   38.6140 N   0  0  0  0  0  0  0  0  0  0  0  0
   37.7910   22.8710   34.6600 N   0  0  0  0  0  0  0  0  0  0  0  0
   37.1250   21.6310   34.3310 C   0  0  0  0  0  0  0  0  0  0  0  0
   36.6470   21.5030   32.9380 C   0  0  0  0  0  0  0  0  0  0  0  0
   36.7850   22.5890   32.0940 N   0  0  0  0  0  0  0  0  0  0  0  0
   37.8430   23.5190   32.2880 C   0  0  0  0  0  0  0  0  0  0  0  0
   37.9620   23.9420   33.7440 C   0  0  2  0  0  0  0  0  0  0  0  0
   41.0140   22.9290   37.9820 H   0  0  0  0  0  0  0  0  0  0  0  0
   40.3600   22.6610   35.5960 H   0  0  0  0  0  0  0  0  0  0  0  0
   36.9880   23.5850   39.0130 H   0  0  0  0  0  0  0  0  0  0  0  0
   37.7370   20.7660   34.6610 H   0  0  0  0  0  0  0  0  0  0  0  0
   36.2370   21.6040   35.0320 H   0  0  0  0  0  0  0  0  0  0  0  0
   37.2000   20.6310   32.4740 H   0  0  0  0  0  0  0  0  0  0  0  0
   35.5840   21.1450   32.9230 H   0  0  0  0  0  0  0  0  0  0  0  0
   35.9380   23.0080   31.6650 H   0  0  0  0  0  0  0  0  0  0  0  0
   38.7550   23.1040   31.8660 H   0  0  0  0  0  0  0  0  0  0  0  0
   37.5950   24.4290   31.7070 H   0  0  0  0  0  0  0  0  0  0  0  0
   36.9650   24.5070   33.8660 H   0  0  0  0  0  0  0  0  0  0  0  0
   38.9240   24.9280   34.0100 N   0  0  2  0  0  0  0  0  0  0  0  0
   38.1980   26.1860   34.2410 C   0  0  0  0  0  2  0  0  0  0  0  0
   38.5400   27.1340   33.1510 C   0  0  0  0  0  2  0  0  0  0  0  0
   39.9000   26.6870   32.7280 C   0  0  0  0  0  2  0  0  0  0  0  0
   39.9010   25.2000   33.0140 C   0  0  0  0  0  3  0  0  0  0  0  0
   40.9500   25.0080   33.3930 H   0  0  0  0  0  0  0  0  0  0  0  0
  1 13  1  0  0  0  0
  1  6  1  0  0  0  0
  2  1  2  0  0  0  0
  3  2  1  0  0  0  0
  3  4  2  0  0  0  0
  4  5  1  0  0  0  0
  5  6  2  0  0  0  0
  5 15  1  0  0  0  0
  7  3  1  0  0  0  0
  8  7  1  0  0  0  0
  8 16  1  0  0  0  0
  8 17  1  0  0  0  0
  9  8  1  0  0  0  0
 10 11  1  0  0  0  0
 10  9  1  0  0  0  0
 11 12  1  0  0  0  0
 12 23  1  1  0  0  0
 12 24  1  0  0  0  0
 12  7  1  0  0  0  0
 14  2  1  0  0  0  0
 18  9  1  0  0  0  0
 19  9  1  0  0  0  0
 20 10  1  0  0  0  0
 21 11  1  0  0  0  0
 22 11  1  0  0  0  0
 24 25  1  6  0  0  0
 26 25  1  0  0  0  0
 27 28  1  0  0  0  0
 27 26  1  0  0  0  0
 28 29  1  0  0  0  0
 28 24  1  0  0  0  0
M  END
>  <minimizedAffinity>
-4.29899406

$$$$

 OpenBabel03262523413D

 29 31  0  0  1  0  0  0  0  0999 V2000
   38.5870   20.8150   32.3900 C   0  0  0  0  0  0  0  0  0  0  0  0
   38.8910   22.0580   32.9510 C   0  0  0  0  0  0  0  0  0  0  0  0
   37.8840   22.9970   33.0960 C   0  0  0  0  0  0  0  0  0  0  0  0
   36.6400   22.6410   32.6730 N   0  0  0  0  0  0  0  0  0  0  0  0
   36.3380   21.4430   32.1310 C   0  0  0  0  0  0  0  0  0  0  0  0
   37.3200   20.5270   31.9890 N   0  0  0  0  0  0  0  0  0  0  0  0
   38.1050   24.2740   33.6580 N   0  0  0  0  0  0  0  0  0  0  0  0
   38.1640   25.3810   32.7300 C   0  0  0  0  0  0  0  0  0  0  0  0
   38.4180   26.7110   33.3240 C   0  0  0  0  0  0  0  0  0  0  0  0
   38.4870   26.8120   34.7010 N   0  0  0  0  0  0  0  0  0  0  0  0
   38.9240   25.7070   35.4820 C   0  0  0  0  0  0  0  0  0  0  0  0
   38.2380   24.4160   35.0650 C   0  0  2  0  0  0  0  0  0  0  0  0
   39.3060   20.0330   32.2430 H   0  0  0  0  0  0  0  0  0  0  0  0
   39.8930   22.2380   33.2370 H   0  0  0  0  0  0  0  0  0  0  0  0
   35.3090   21.2820   31.8340 H   0  0  0  0  0  0  0  0  0  0  0  0
   38.8500   25.1430   31.8900 H   0  0  0  0  0  0  0  0  0  0  0  0
   37.1430   25.3810   32.2420 H   0  0  0  0  0  0  0  0  0  0  0  0
   39.3980   27.0850   32.9000 H   0  0  0  0  0  0  0  0  0  0  0  0
   37.6850   27.4610   32.9270 H   0  0  0  0  0  0  0  0  0  0  0  0
   37.8180   27.4320   35.1980 H   0  0  0  0  0  0  0  0  0  0  0  0
   40.0100   25.6670   35.4530 H   0  0  0  0  0  0  0  0  0  0  0  0
   38.6290   25.9050   36.5310 H   0  0  0  0  0  0  0  0  0  0  0  0
   37.1550   24.6610   35.3720 H   0  0  0  0  0  0  0  0  0  0  0  0
   38.5450   23.2900   35.8430 N   0  0  2  0  0  0  0  0  0  0  0  0
   37.5650   23.2440   36.9390 C   0  0  0  0  0  2  0  0  0  0  0  0
   38.2820   23.4610   38.2210 C   0  0  0  0  0  2  0  0  0  0  0  0
   39.6580   22.9630   37.9270 C   0  0  0  0  0  2  0  0  0  0  0  0
   39.8310   23.2180   36.4450 C   0  0  0  0  0  3  0  0  0  0  0  0
   40.4100   22.3130   36.0900 H   0  0  0  0  0  0  0  0  0  0  0  0
  1  2  1  0  0  0  0
  2  3  2  0  0  0  0
  2 14  1  0  0  0  0
  3  7  1  0  0  0  0
  4  3  1  0  0  0  0
  5  4  2  0  0  0  0
  6  5  1  0  0  0  0
  6  1  2  0  0  0  0
  7 12  1  0  0  0  0
  8  9  1  0  0  0  0
  8  7  1  0  0  0  0
  9 10  1  0  0  0  0
 10 20  1  0  0  0  0
 10 11  1  0  0  0  0
 11 22  1  0  0  0  0
 12 23  1  1  0  0  0
 12 11  1  0  0  0  0
 12 24  1  0  0  0  0
 13  1  1  0  0  0  0
 15  5  1  0  0  0  0
 16  8  1  0  0  0  0
 17  8  1  0  0  0  0
 18  9  1  0  0  0  0
 19  9  1  0  0  0  0
 21 11  1  0  0  0  0
 24 28  1  0  0  0  0
 24 25  1  1  0  0  0
 25 26  1  0  0  0  0
 27 26  1  0  0  0  0
 28 27  1  0  0  0  0
 29 28  1  0  0  0  0
M  END
>  <minimizedAffinity>
-4.24943209

$$$$
