
 OpenBabel03272502003D

 39 43  0  0  0  0  0  0  0  0999 V2000
   34.4770   28.0710   48.0530 C   0  0  0  0  0  0  0  0  0  0  0  0
   34.7340   27.0140   47.8060 H   0  0  0  0  0  0  0  0  0  0  0  0
   35.0040   28.8020   47.4400 H   0  0  0  0  0  0  0  0  0  0  0  0
   33.0010   28.1900   47.7700 C   0  0  0  0  0  0  0  0  0  0  0  0
   31.9910   27.4350   48.3320 C   0  0  0  0  0  0  0  0  0  0  0  0
   30.7740   27.8560   47.8070 C   0  0  0  0  0  0  0  0  0  0  0  0
   31.0920   28.8520   46.9450 N   0  0  0  0  0  0  0  0  0  0  0  0
   32.3980   29.0350   46.9350 N   0  0  0  0  0  0  0  0  0  0  0  0
   28.7070   29.3130   46.3330 N   0  0  0  0  0  0  0  0  0  0  0  0
   30.0340   29.4920   46.2410 C   0  0  0  0  0  0  0  0  0  0  0  0
   30.2240   30.4540   45.2960 N   0  0  0  0  0  0  0  0  0  0  0  0
   29.0420   30.8620   44.8150 C   0  0  0  0  0  0  0  0  0  0  0  0
   28.7310   31.8080   43.8550 C   0  0  0  0  0  0  0  0  0  0  0  0
   27.4450   32.0260   43.5550 N   0  0  0  0  0  0  0  0  0  0  0  0
   26.4740   31.3150   44.1990 C   0  0  0  0  0  0  0  0  0  0  0  0
   26.7880   30.3940   45.1350 N   0  0  0  0  0  0  0  0  0  0  0  0
   28.0700   30.1440   45.4640 C   0  0  0  0  0  0  0  0  0  0  0  0
   32.1640   26.6450   49.0660 H   0  0  0  0  0  0  0  0  0  0  0  0
   29.8620   27.3930   48.1160 H   0  0  0  0  0  0  0  0  0  0  0  0
   28.2340   28.6400   46.9710 H   0  0  0  0  0  0  0  0  0  0  0  0
   29.4960   32.3880   43.3270 H   0  0  0  0  0  0  0  0  0  0  0  0
   25.4060   31.4200   44.0250 H   0  0  0  0  0  0  0  0  0  0  0  0
   34.6270   28.2830   49.5310 C   0  0  0  0  0  0  0  0  0  0  0  0
   33.7510   28.8030   49.9910 H   0  0  0  0  0  0  0  0  0  0  0  0
   34.7170   27.3240   50.0560 H   0  0  0  0  0  0  0  0  0  0  0  0
   37.3260   30.1410   51.2710 C   0  0  0  0  0  0  0  0  0  0  0  0
   37.9760   30.7830   50.2050 C   0  0  0  0  0  0  0  0  0  0  0  0
   37.4730   30.5630   48.9090 C   0  0  0  0  0  0  0  0  0  0  0  0
   36.4040   29.7580   48.7540 N   0  0  0  0  0  0  0  0  0  0  0  0
   35.8040   29.1550   49.8170 C   0  0  0  0  0  0  0  0  0  0  0  0
   36.2710   29.3570   51.0290 N   0  0  0  0  0  0  0  0  0  0  0  0
   37.7300   30.3240   52.2570 H   0  0  0  0  0  0  0  0  0  0  0  0
   38.8230   31.4100   50.3990 H   0  0  0  0  0  0  0  0  0  0  0  0
   38.0840   31.1790   47.8070 N   0  0  0  0  0  0  0  0  0  0  0  0
   38.4150   30.5560   46.5410 C   0  0  0  0  0  0  0  0  0  0  0  0
   39.6460   31.2930   46.0500 C   0  0  0  0  0  0  0  0  0  0  0  0
   39.6780   32.5990   46.7830 C   0  0  0  0  0  0  0  0  0  0  0  0
   38.4990   32.5540   47.7270 C   0  0  0  0  0  0  0  0  0  0  0  0
   37.6880   33.1710   47.2580 H   0  0  0  0  0  0  0  0  0  0  0  0
  1 23  1  0  0  0  0
  2  1  1  0  0  0  0
  3  1  1  0  0  0  0
  4  1  1  0  0  0  0
  4  5  1  0  0  0  0
  5 18  1  0  0  0  0
  6 19  1  0  0  0  0
  6  5  2  0  0  0  0
  7  6  1  0  0  0  0
  8  7  1  0  0  0  0
  8  4  2  0  0  0  0
  9 20  1  0  0  0  0
 10  9  1  0  0  0  0
 10  7  1  0  0  0  0
 11 10  2  0  0  0  0
 12 11  1  0  0  0  0
 12 17  1  0  0  0  0
 13 12  2  0  0  0  0
 14 13  1  0  0  0  0
 14 15  2  0  0  0  0
 15 16  1  0  0  0  0
 16 17  2  0  0  0  0
 17  9  1  0  0  0  0
 21 13  1  0  0  0  0
 22 15  1  0  0  0  0
 23 30  1  0  0  0  0
 23 24  1  0  0  0  0
 23 25  1  0  0  0  0
 26 32  1  0  0  0  0
 27 33  1  0  0  0  0
 27 26  2  0  0  0  0
 28 27  1  0  0  0  0
 29 28  2  0  0  0  0
 29 30  1  0  0  0  0
 30 31  2  0  0  0  0
 31 26  1  0  0  0  0
 34 28  1  0  0  0  0
 35 34  1  0  0  0  0
 36 35  1  0  0  0  0
 36 37  1  0  0  0  0
 37 38  1  0  0  0  0
 38 34  1  0  0  0  0
 39 38  1  0  0  0  0
M  END
>  <minimizedAffinity>
-6.90214109

>  <minimizedRMSD>
0.291205555

$$$$
