
 OpenBabel03272508463D

 24 26  0  0  0  0  0  0  0  0999 V2000
   37.7080   26.5910   34.3340 C   0  0  0  0  0  0  0  0  0  0  0  0
   38.1140   27.5120   35.2720 C   0  0  0  0  0  0  0  0  0  0  0  0
   38.3430   26.7240   36.3930 C   0  0  0  0  0  0  0  0  0  0  0  0
   38.0750   25.4110   36.0970 C   0  0  0  0  0  0  0  0  0  0  0  0
   37.6940   25.3550   34.8530 O   0  0  0  0  0  0  0  0  0  0  0  0
   38.2380   28.5670   35.2020 H   0  0  0  0  0  0  0  0  0  0  0  0
   38.6870   27.1210   37.3610 H   0  0  0  0  0  0  0  0  0  0  0  0
   38.2090   24.3420   37.0310 N   0  0  0  0  0  0  0  0  0  0  0  0
   37.8980   24.4180   38.4490 C   0  0  0  0  0  2  0  0  0  0  0  0
   39.0920   23.6870   39.0220 C   0  0  0  0  0  2  0  0  0  0  0  0
   39.7130   22.8800   37.9020 C   0  0  0  0  0  2  0  0  0  0  0  0
   38.6680   22.9790   36.8100 C   0  0  0  0  0  3  0  0  0  0  0  0
   37.8730   22.2490   37.0670 H   0  0  0  0  0  0  0  0  0  0  0  0
   37.3370   26.9130   32.9470 C   0  0  0  0  0  0  0  0  0  0  0  0
   37.6820   28.0330   32.4980 O   0  0  0  0  0  0  0  0  0  0  0  0
   36.4320   23.8190   31.2810 C   0  0  0  0  0  0  0  0  0  0  0  0
   35.2430   24.1200   30.6290 C   0  0  0  0  0  0  0  0  0  0  0  0
   34.7380   25.4110   30.7620 C   0  0  0  0  0  0  0  0  0  0  0  0
   35.4370   26.2860   31.5150 N   0  0  0  0  0  0  0  0  0  0  0  0
   36.5990   25.9580   32.1400 C   0  0  0  0  0  0  0  0  0  0  0  0
   37.0840   24.7190   32.0130 N   0  0  0  0  0  0  0  0  0  0  0  0
   36.7520   22.7970   31.1250 H   0  0  0  0  0  0  0  0  0  0  0  0
   34.7010   23.4000   30.0300 H   0  0  0  0  0  0  0  0  0  0  0  0
   33.8130   25.7320   30.2850 H   0  0  0  0  0  0  0  0  0  0  0  0
  1  5  1  0  0  0  0
  1  2  2  0  0  0  0
  2  3  1  0  0  0  0
  3  7  1  0  0  0  0
  4  3  2  0  0  0  0
  4  8  1  0  0  0  0
  5  4  1  0  0  0  0
  6  2  1  0  0  0  0
  8  9  1  0  0  0  0
  9 10  1  0  0  0  0
 11 10  1  0  0  0  0
 12  8  1  0  0  0  0
 12 13  1  0  0  0  0
 12 11  1  0  0  0  0
 14  1  1  0  0  0  0
 15 14  2  0  0  0  0
 16 21  1  0  0  0  0
 17 18  1  0  0  0  0
 17 16  2  0  0  0  0
 18 19  2  0  0  0  0
 19 20  1  0  0  0  0
 20 14  1  0  0  0  0
 21 20  2  0  0  0  0
 22 16  1  0  0  0  0
 23 17  1  0  0  0  0
 24 18  1  0  0  0  0
M  END
>  <minimizedAffinity>
-4.9691596

$$$$

 OpenBabel03272508463D

 24 26  0  0  0  0  0  0  0  0999 V2000
   37.2400   27.2930   34.6220 C   0  0  0  0  0  0  0  0  0  0  0  0
   38.0550   27.8780   35.5640 C   0  0  0  0  0  0  0  0  0  0  0  0
   38.4490   26.7960   36.3400 C   0  0  0  0  0  0  0  0  0  0  0  0
   37.8780   25.6460   35.8540 C   0  0  0  0  0  0  0  0  0  0  0  0
   37.1550   25.9700   34.8210 O   0  0  0  0  0  0  0  0  0  0  0  0
   38.3400   28.8940   35.7020 H   0  0  0  0  0  0  0  0  0  0  0  0
   39.1190   26.8770   37.2110 H   0  0  0  0  0  0  0  0  0  0  0  0
   38.0790   24.3550   36.4250 N   0  0  0  0  0  0  0  0  0  0  0  0
   37.7640   23.9790   37.7930 C   0  0  0  0  0  2  0  0  0  0  0  0
   39.0020   23.1830   38.1420 C   0  0  0  0  0  2  0  0  0  0  0  0
   39.6730   22.7920   36.8430 C   0  0  0  0  0  2  0  0  0  0  0  0
   38.6250   23.1530   35.8110 C   0  0  0  0  0  3  0  0  0  0  0  0
   37.8780   22.3320   35.8210 H   0  0  0  0  0  0  0  0  0  0  0  0
   36.5530   28.0160   33.5410 C   0  0  0  0  0  0  0  0  0  0  0  0
   35.4710   28.5880   33.8200 O   0  0  0  0  0  0  0  0  0  0  0  0
   38.9030   27.6010   30.8070 C   0  0  0  0  0  0  0  0  0  0  0  0
   38.2310   28.1100   29.7030 C   0  0  0  0  0  0  0  0  0  0  0  0
   36.9440   28.6060   29.8970 C   0  0  0  0  0  0  0  0  0  0  0  0
   36.4340   28.5610   31.1450 N   0  0  0  0  0  0  0  0  0  0  0  0
   37.1190   28.0560   32.2040 C   0  0  0  0  0  0  0  0  0  0  0  0
   38.3540   27.5790   32.0190 N   0  0  0  0  0  0  0  0  0  0  0  0
   39.8930   27.2370   30.5680 H   0  0  0  0  0  0  0  0  0  0  0  0
   38.6630   28.1350   28.7110 H   0  0  0  0  0  0  0  0  0  0  0  0
   36.3480   29.0230   29.0860 H   0  0  0  0  0  0  0  0  0  0  0  0
  1  5  1  0  0  0  0
  1  2  2  0  0  0  0
  2  6  1  0  0  0  0
  2  3  1  0  0  0  0
  3  7  1  0  0  0  0
  4  3  2  0  0  0  0
  4  8  1  0  0  0  0
  5  4  1  0  0  0  0
  8  9  1  0  0  0  0
  9 10  1  0  0  0  0
 11 10  1  0  0  0  0
 12 13  1  0  0  0  0
 12  8  1  0  0  0  0
 12 11  1  0  0  0  0
 14 15  2  0  0  0  0
 14  1  1  0  0  0  0
 16 21  1  0  0  0  0
 17 18  1  0  0  0  0
 17 16  2  0  0  0  0
 18 19  2  0  0  0  0
 19 20  1  0  0  0  0
 20 14  1  0  0  0  0
 21 20  2  0  0  0  0
 22 16  1  0  0  0  0
 23 17  1  0  0  0  0
 24 18  1  0  0  0  0
M  END
>  <minimizedAffinity>
-4.88456202

$$$$

 OpenBabel03272508463D

 24 26  0  0  0  0  0  0  0  0999 V2000
   38.0290   25.5060   35.9610 C   0  0  0  0  0  0  0  0  0  0  0  0
   38.4060   26.7730   36.3460 C   0  0  0  0  0  0  0  0  0  0  0  0
   37.9360   27.5600   35.3030 C   0  0  0  0  0  0  0  0  0  0  0  0
   37.3200   26.7680   34.3670 C   0  0  0  0  0  0  0  0  0  0  0  0
   37.3880   25.5360   34.7840 O   0  0  0  0  0  0  0  0  0  0  0  0
   38.9240   27.1100   37.2130 H   0  0  0  0  0  0  0  0  0  0  0  0
   38.0550   28.6550   35.2590 H   0  0  0  0  0  0  0  0  0  0  0  0
   36.7280   27.2660   33.1690 N   0  0  0  0  0  0  0  0  0  0  0  0
   36.5440   26.5090   31.9430 C   0  0  0  0  0  2  0  0  0  0  0  0
   36.9760   27.5420   30.9250 C   0  0  0  0  0  2  0  0  0  0  0  0
   36.9200   28.8960   31.6000 C   0  0  0  0  0  2  0  0  0  0  0  0
   36.1890   28.5890   32.8900 C   0  0  0  0  0  3  0  0  0  0  0  0
   35.1110   28.5290   32.6340 H   0  0  0  0  0  0  0  0  0  0  0  0
   38.2920   24.2810   36.7320 C   0  0  0  0  0  0  0  0  0  0  0  0
   37.3950   23.8840   37.5160 O   0  0  0  0  0  0  0  0  0  0  0  0
   41.0150   21.9720   37.3810 C   0  0  0  0  0  0  0  0  0  0  0  0
   41.9060   22.2000   36.3410 C   0  0  0  0  0  0  0  0  0  0  0  0
   41.5700   23.1650   35.3950 C   0  0  0  0  0  0  0  0  0  0  0  0
   40.3990   23.8170   35.5510 N   0  0  0  0  0  0  0  0  0  0  0  0
   39.5480   23.5700   36.5810 C   0  0  0  0  0  0  0  0  0  0  0  0
   39.8700   22.6430   37.4890 N   0  0  0  0  0  0  0  0  0  0  0  0
   41.3530   21.2080   38.0680 H   0  0  0  0  0  0  0  0  0  0  0  0
   42.8410   21.6630   36.2380 H   0  0  0  0  0  0  0  0  0  0  0  0
   42.2120   23.4060   34.5480 H   0  0  0  0  0  0  0  0  0  0  0  0
  1  2  2  0  0  0  0
  1 14  1  0  0  0  0
  2  6  1  0  0  0  0
  3  2  1  0  0  0  0
  4  5  1  0  0  0  0
  4  3  2  0  0  0  0
  5  1  1  0  0  0  0
  7  3  1  0  0  0  0
  8  4  1  0  0  0  0
  9  8  1  0  0  0  0
 10 11  1  0  0  0  0
 10  9  1  0  0  0  0
 11 12  1  0  0  0  0
 12  8  1  0  0  0  0
 13 12  1  0  0  0  0
 14 15  2  0  0  0  0
 16 21  1  0  0  0  0
 16 22  1  0  0  0  0
 17 16  2  0  0  0  0
 18 19  2  0  0  0  0
 18 17  1  0  0  0  0
 19 20  1  0  0  0  0
 20 14  1  0  0  0  0
 20 21  2  0  0  0  0
 23 17  1  0  0  0  0
 24 18  1  0  0  0  0
M  END
>  <minimizedAffinity>
-4.84089661

$$$$

 OpenBabel03272508463D

 24 26  0  0  0  0  0  0  0  0999 V2000
   36.3530   25.4770   31.7950 C   0  0  0  0  0  0  0  0  0  0  0  0
   35.2810   25.3020   30.9510 C   0  0  0  0  0  0  0  0  0  0  0  0
   35.0960   23.9260   30.9760 C   0  0  0  0  0  0  0  0  0  0  0  0
   36.0280   23.3480   31.8020 C   0  0  0  0  0  0  0  0  0  0  0  0
   36.7740   24.3010   32.2830 O   0  0  0  0  0  0  0  0  0  0  0  0
   34.7080   26.0090   30.3990 H   0  0  0  0  0  0  0  0  0  0  0  0
   34.3110   23.4020   30.4070 H   0  0  0  0  0  0  0  0  0  0  0  0
   36.1140   21.9470   32.0480 N   0  0  0  0  0  0  0  0  0  0  0  0
   35.6260   20.9040   31.1610 C   0  0  0  0  0  2  0  0  0  0  0  0
   34.9650   19.9870   32.1670 C   0  0  0  0  0  2  0  0  0  0  0  0
   35.5210   20.3330   33.5320 C   0  0  0  0  0  2  0  0  0  0  0  0
   36.6800   21.2470   33.1920 C   0  0  0  0  0  3  0  0  0  0  0  0
   37.5170   20.5900   32.8760 H   0  0  0  0  0  0  0  0  0  0  0  0
   36.9610   26.7770   32.1220 C   0  0  0  0  0  0  0  0  0  0  0  0
   36.7590   27.7290   31.3290 O   0  0  0  0  0  0  0  0  0  0  0  0
   37.8440   27.3590   35.5940 C   0  0  0  0  0  0  0  0  0  0  0  0
   39.2280   27.2440   35.6140 C   0  0  0  0  0  0  0  0  0  0  0  0
   39.8750   26.9620   34.4140 C   0  0  0  0  0  0  0  0  0  0  0  0
   39.1160   26.8180   33.3080 N   0  0  0  0  0  0  0  0  0  0  0  0
   37.7620   26.9350   33.3220 C   0  0  0  0  0  0  0  0  0  0  0  0
   37.1400   27.2060   34.4740 N   0  0  0  0  0  0  0  0  0  0  0  0
   37.4240   27.5770   36.5660 H   0  0  0  0  0  0  0  0  0  0  0  0
   39.8160   27.3650   36.5150 H   0  0  0  0  0  0  0  0  0  0  0  0
   40.9570   26.8560   34.3410 H   0  0  0  0  0  0  0  0  0  0  0  0
  1 14  1  0  0  0  0
  1  5  1  0  0  0  0
  2  3  1  0  0  0  0
  2  1  2  0  0  0  0
  3  4  2  0  0  0  0
  4  8  1  0  0  0  0
  4  5  1  0  0  0  0
  6  2  1  0  0  0  0
  7  3  1  0  0  0  0
  8 12  1  0  0  0  0
  9  8  1  0  0  0  0
  9 10  1  0  0  0  0
 10 11  1  0  0  0  0
 12 11  1  0  0  0  0
 13 12  1  0  0  0  0
 14 20  1  0  0  0  0
 15 14  2  0  0  0  0
 16 17  1  0  0  0  0
 16 22  1  0  0  0  0
 17 23  1  0  0  0  0
 18 17  2  0  0  0  0
 19 20  2  0  0  0  0
 19 18  1  0  0  0  0
 20 21  1  0  0  0  0
 21 16  2  0  0  0  0
 24 18  1  0  0  0  0
M  END
>  <minimizedAffinity>
-4.83710098

$$$$

 OpenBabel03272508463D

 24 26  0  0  0  0  0  0  0  0999 V2000
   37.2800   27.0780   34.4800 C   0  0  0  0  0  0  0  0  0  0  0  0
   37.9910   27.7740   35.4320 C   0  0  0  0  0  0  0  0  0  0  0  0
   38.3750   26.7740   36.3160 C   0  0  0  0  0  0  0  0  0  0  0  0
   37.8990   25.5630   35.8800 C   0  0  0  0  0  0  0  0  0  0  0  0
   37.2430   25.7710   34.7740 O   0  0  0  0  0  0  0  0  0  0  0  0
   38.2160   28.8110   35.5110 H   0  0  0  0  0  0  0  0  0  0  0  0
   38.9720   26.9540   37.2240 H   0  0  0  0  0  0  0  0  0  0  0  0
   38.1170   24.3300   36.5610 N   0  0  0  0  0  0  0  0  0  0  0  0
   37.7700   24.0600   37.9470 C   0  0  0  0  0  2  0  0  0  0  0  0
   39.0170   23.3310   38.3960 C   0  0  0  0  0  2  0  0  0  0  0  0
   39.7380   22.8540   37.1530 C   0  0  0  0  0  2  0  0  0  0  0  0
   38.7120   23.0970   36.0660 C   0  0  0  0  0  3  0  0  0  0  0  0
   37.9870   22.2590   36.1240 H   0  0  0  0  0  0  0  0  0  0  0  0
   36.6450   27.6820   33.2990 C   0  0  0  0  0  0  0  0  0  0  0  0
   36.7770   27.0880   32.2000 O   0  0  0  0  0  0  0  0  0  0  0  0
   34.2660   30.1400   34.5090 C   0  0  0  0  0  0  0  0  0  0  0  0
   34.4580   31.2350   33.6770 C   0  0  0  0  0  0  0  0  0  0  0  0
   35.4230   31.1320   32.6780 C   0  0  0  0  0  0  0  0  0  0  0  0
   36.1090   29.9740   32.5840 N   0  0  0  0  0  0  0  0  0  0  0  0
   35.8970   28.9200   33.4150 C   0  0  0  0  0  0  0  0  0  0  0  0
   34.9710   29.0190   34.3740 N   0  0  0  0  0  0  0  0  0  0  0  0
   33.5010   30.3050   35.2550 H   0  0  0  0  0  0  0  0  0  0  0  0
   33.8940   32.1540   33.7730 H   0  0  0  0  0  0  0  0  0  0  0  0
   35.6370   31.9430   31.9830 H   0  0  0  0  0  0  0  0  0  0  0  0
  1  5  1  0  0  0  0
  1  2  2  0  0  0  0
  2  6  1  0  0  0  0
  2  3  1  0  0  0  0
  3  7  1  0  0  0  0
  4  3  2  0  0  0  0
  4  8  1  0  0  0  0
  5  4  1  0  0  0  0
  8  9  1  0  0  0  0
  9 10  1  0  0  0  0
 11 10  1  0  0  0  0
 12 13  1  0  0  0  0
 12  8  1  0  0  0  0
 12 11  1  0  0  0  0
 14 20  1  0  0  0  0
 14  1  1  0  0  0  0
 15 14  2  0  0  0  0
 16 22  1  0  0  0  0
 17 23  1  0  0  0  0
 17 16  2  0  0  0  0
 18 17  1  0  0  0  0
 19 18  2  0  0  0  0
 19 20  1  0  0  0  0
 20 21  2  0  0  0  0
 21 16  1  0  0  0  0
 24 18  1  0  0  0  0
M  END
>  <minimizedAffinity>
-4.82262897

$$$$

 OpenBabel03272508463D

 24 26  0  0  0  0  0  0  0  0999 V2000
   37.6980   25.6590   34.4110 C   0  0  0  0  0  0  0  0  0  0  0  0
   37.8190   26.7360   35.2590 C   0  0  0  0  0  0  0  0  0  0  0  0
   37.2510   27.7680   34.5240 C   0  0  0  0  0  0  0  0  0  0  0  0
   36.8280   27.2910   33.3080 C   0  0  0  0  0  0  0  0  0  0  0  0
   37.1080   26.0200   33.2630 O   0  0  0  0  0  0  0  0  0  0  0  0
   38.2330   26.8070   36.2380 H   0  0  0  0  0  0  0  0  0  0  0  0
   37.1670   28.8050   34.8860 H   0  0  0  0  0  0  0  0  0  0  0  0
   36.1990   28.0950   32.3130 N   0  0  0  0  0  0  0  0  0  0  0  0
   36.3290   27.9130   30.8770 C   0  0  0  0  0  2  0  0  0  0  0  0
   36.5090   29.3510   30.4420 C   0  0  0  0  0  2  0  0  0  0  0  0
   36.0140   30.2330   31.5680 C   0  0  0  0  0  2  0  0  0  0  0  0
   35.3170   29.2420   32.4780 C   0  0  0  0  0  3  0  0  0  0  0  0
   34.3240   29.0420   32.0250 H   0  0  0  0  0  0  0  0  0  0  0  0
   38.1540   24.2940   34.7160 C   0  0  0  0  0  0  0  0  0  0  0  0
   38.2720   23.4920   33.7580 O   0  0  0  0  0  0  0  0  0  0  0  0
   37.7780   23.7930   38.2910 C   0  0  0  0  0  0  0  0  0  0  0  0
   38.9690   23.1890   38.6740 C   0  0  0  0  0  0  0  0  0  0  0  0
   39.9230   22.9470   37.6890 C   0  0  0  0  0  0  0  0  0  0  0  0
   39.6290   23.3150   36.4250 N   0  0  0  0  0  0  0  0  0  0  0  0
   38.4530   23.9040   36.0820 C   0  0  0  0  0  0  0  0  0  0  0  0
   37.5370   24.1370   37.0280 N   0  0  0  0  0  0  0  0  0  0  0  0
   37.0950   23.9430   39.1160 H   0  0  0  0  0  0  0  0  0  0  0  0
   39.1810   22.9030   39.6970 H   0  0  0  0  0  0  0  0  0  0  0  0
   40.8820   22.4780   37.9040 H   0  0  0  0  0  0  0  0  0  0  0  0
  1 14  1  0  0  0  0
  1  2  2  0  0  0  0
  2  6  1  0  0  0  0
  3  7  1  0  0  0  0
  3  2  1  0  0  0  0
  4  3  2  0  0  0  0
  5  4  1  0  0  0  0
  5  1  1  0  0  0  0
  8 12  1  0  0  0  0
  8  4  1  0  0  0  0
  9  8  1  0  0  0  0
 10  9  1  0  0  0  0
 10 11  1  0  0  0  0
 11 12  1  0  0  0  0
 13 12  1  0  0  0  0
 14 20  1  0  0  0  0
 15 14  2  0  0  0  0
 16 17  1  0  0  0  0
 16 22  1  0  0  0  0
 17 23  1  0  0  0  0
 18 24  1  0  0  0  0
 18 17  2  0  0  0  0
 19 18  1  0  0  0  0
 20 19  2  0  0  0  0
 20 21  1  0  0  0  0
 21 16  2  0  0  0  0
M  END
>  <minimizedAffinity>
-4.82221079

$$$$

 OpenBabel03272508463D

 24 26  0  0  0  0  0  0  0  0999 V2000
   37.9580   26.6070   34.0400 C   0  0  0  0  0  0  0  0  0  0  0  0
   38.1690   27.4770   35.0860 C   0  0  0  0  0  0  0  0  0  0  0  0
   38.3230   26.6190   36.1680 C   0  0  0  0  0  0  0  0  0  0  0  0
   38.2030   25.3180   35.7480 C   0  0  0  0  0  0  0  0  0  0  0  0
   37.9830   25.3360   34.4640 O   0  0  0  0  0  0  0  0  0  0  0  0
   38.2130   28.5400   35.1090 H   0  0  0  0  0  0  0  0  0  0  0  0
   38.5110   26.9590   37.1990 H   0  0  0  0  0  0  0  0  0  0  0  0
   38.3090   24.1890   36.6120 N   0  0  0  0  0  0  0  0  0  0  0  0
   37.7520   24.0980   37.9510 C   0  0  0  0  0  2  0  0  0  0  0  0
   38.9130   23.4570   38.6790 C   0  0  0  0  0  2  0  0  0  0  0  0
   39.8160   22.8330   37.6360 C   0  0  0  0  0  2  0  0  0  0  0  0
   38.9710   22.9130   36.3820 C   0  0  0  0  0  3  0  0  0  0  0  0
   38.2440   22.0770   36.4380 H   0  0  0  0  0  0  0  0  0  0  0  0
   37.7350   27.0130   32.6440 C   0  0  0  0  0  0  0  0  0  0  0  0
   38.3310   26.3660   31.7480 O   0  0  0  0  0  0  0  0  0  0  0  0
   34.8600   29.2260   32.7200 C   0  0  0  0  0  0  0  0  0  0  0  0
   35.1570   30.1990   31.7750 C   0  0  0  0  0  0  0  0  0  0  0  0
   36.3680   30.0970   31.0950 C   0  0  0  0  0  0  0  0  0  0  0  0
   37.1750   29.0590   31.3990 N   0  0  0  0  0  0  0  0  0  0  0  0
   36.8540   28.1230   32.3300 C   0  0  0  0  0  0  0  0  0  0  0  0
   35.6920   28.2200   32.9840 N   0  0  0  0  0  0  0  0  0  0  0  0
   33.9030   29.3810   33.2000 H   0  0  0  0  0  0  0  0  0  0  0  0
   34.4920   31.0230   31.5490 H   0  0  0  0  0  0  0  0  0  0  0  0
   36.6790   30.8170   30.3390 H   0  0  0  0  0  0  0  0  0  0  0  0
  1  5  1  0  0  0  0
  1  2  2  0  0  0  0
  2  6  1  0  0  0  0
  2  3  1  0  0  0  0
  3  7  1  0  0  0  0
  4  3  2  0  0  0  0
  4  8  1  0  0  0  0
  5  4  1  0  0  0  0
  8  9  1  0  0  0  0
  9 10  1  0  0  0  0
 11 10  1  0  0  0  0
 12 13  1  0  0  0  0
 12  8  1  0  0  0  0
 12 11  1  0  0  0  0
 14  1  1  0  0  0  0
 15 14  2  0  0  0  0
 16 21  1  0  0  0  0
 16 22  1  0  0  0  0
 17 16  2  0  0  0  0
 18 19  2  0  0  0  0
 18 17  1  0  0  0  0
 19 20  1  0  0  0  0
 20 14  1  0  0  0  0
 20 21  2  0  0  0  0
 23 17  1  0  0  0  0
 24 18  1  0  0  0  0
M  END
>  <minimizedAffinity>
-4.80284023

$$$$

 OpenBabel03272508463D

 24 26  0  0  0  0  0  0  0  0999 V2000
   38.0510   25.4720   35.9410 C   0  0  0  0  0  0  0  0  0  0  0  0
   38.2830   26.7060   36.5060 C   0  0  0  0  0  0  0  0  0  0  0  0
   37.9620   27.5780   35.4740 C   0  0  0  0  0  0  0  0  0  0  0  0
   37.5670   26.8640   34.3710 C   0  0  0  0  0  0  0  0  0  0  0  0
   37.6290   25.5990   34.6750 O   0  0  0  0  0  0  0  0  0  0  0  0
   38.6190   26.9720   37.4800 H   0  0  0  0  0  0  0  0  0  0  0  0
   38.0260   28.6750   35.5560 H   0  0  0  0  0  0  0  0  0  0  0  0
   37.1700   27.4590   33.1380 N   0  0  0  0  0  0  0  0  0  0  0  0
   36.4050   28.6880   33.0030 C   0  0  0  0  0  2  0  0  0  0  0  0
   35.4310   28.2770   31.9210 C   0  0  0  0  0  2  0  0  0  0  0  0
   36.0050   27.0590   31.2290 C   0  0  0  0  0  2  0  0  0  0  0  0
   37.4170   27.0070   31.7760 C   0  0  0  0  0  3  0  0  0  0  0  0
   38.0010   27.7620   31.2110 H   0  0  0  0  0  0  0  0  0  0  0  0
   38.2410   24.1850   36.6280 C   0  0  0  0  0  0  0  0  0  0  0  0
   37.2610   23.7090   37.2510 O   0  0  0  0  0  0  0  0  0  0  0  0
   41.5520   23.2020   35.5140 C   0  0  0  0  0  0  0  0  0  0  0  0
   41.9500   22.2460   36.4390 C   0  0  0  0  0  0  0  0  0  0  0  0
   41.0670   21.9290   37.4680 C   0  0  0  0  0  0  0  0  0  0  0  0
   39.8810   22.5720   37.5000 N   0  0  0  0  0  0  0  0  0  0  0  0
   39.5220   23.5040   36.5780 C   0  0  0  0  0  0  0  0  0  0  0  0
   40.3690   23.8090   35.5900 N   0  0  0  0  0  0  0  0  0  0  0  0
   42.2960   23.3880   34.7510 H   0  0  0  0  0  0  0  0  0  0  0  0
   42.9080   21.7440   36.3920 H   0  0  0  0  0  0  0  0  0  0  0  0
   41.2990   21.1920   38.2350 H   0  0  0  0  0  0  0  0  0  0  0  0
  1  2  2  0  0  0  0
  1 14  1  0  0  0  0
  2  6  1  0  0  0  0
  3  7  1  0  0  0  0
  3  2  1  0  0  0  0
  4  5  1  0  0  0  0
  4  3  2  0  0  0  0
  5  1  1  0  0  0  0
  8  4  1  0  0  0  0
  9  8  1  0  0  0  0
 10  9  1  0  0  0  0
 11 12  1  0  0  0  0
 11 10  1  0  0  0  0
 12  8  1  0  0  0  0
 13 12  1  0  0  0  0
 14 15  2  0  0  0  0
 16 21  2  0  0  0  0
 16 17  1  0  0  0  0
 17 18  2  0  0  0  0
 18 19  1  0  0  0  0
 18 24  1  0  0  0  0
 20 14  1  0  0  0  0
 20 19  2  0  0  0  0
 21 20  1  0  0  0  0
 22 16  1  0  0  0  0
 23 17  1  0  0  0  0
M  END
>  <minimizedAffinity>
-4.73850107

$$$$

 OpenBabel03272508463D

 24 26  0  0  0  0  0  0  0  0999 V2000
   37.7500   26.7110   34.2060 C   0  0  0  0  0  0  0  0  0  0  0  0
   38.0820   27.5210   35.2690 C   0  0  0  0  0  0  0  0  0  0  0  0
   38.3210   26.6050   36.2850 C   0  0  0  0  0  0  0  0  0  0  0  0
   38.1310   25.3300   35.8140 C   0  0  0  0  0  0  0  0  0  0  0  0
   37.7870   25.4190   34.5610 O   0  0  0  0  0  0  0  0  0  0  0  0
   38.1520   28.5800   35.3400 H   0  0  0  0  0  0  0  0  0  0  0  0
   38.6180   26.8870   37.3080 H   0  0  0  0  0  0  0  0  0  0  0  0
   38.2970   24.1560   36.6050 N   0  0  0  0  0  0  0  0  0  0  0  0
   37.6820   23.9190   37.9000 C   0  0  0  0  0  2  0  0  0  0  0  0
   38.8570   23.3330   38.6500 C   0  0  0  0  0  2  0  0  0  0  0  0
   39.8660   22.8670   37.6220 C   0  0  0  0  0  2  0  0  0  0  0  0
   39.0840   22.9630   36.3280 C   0  0  0  0  0  3  0  0  0  0  0  0
   38.4340   22.0640   36.2860 H   0  0  0  0  0  0  0  0  0  0  0  0
   37.3990   27.1940   32.8610 C   0  0  0  0  0  0  0  0  0  0  0  0
   36.1810   27.3370   32.5940 O   0  0  0  0  0  0  0  0  0  0  0  0
   39.0360   28.4720   29.8850 C   0  0  0  0  0  0  0  0  0  0  0  0
   40.3570   28.0690   30.0270 C   0  0  0  0  0  0  0  0  0  0  0  0
   40.6980   27.3440   31.1660 C   0  0  0  0  0  0  0  0  0  0  0  0
   39.7220   27.0780   32.0580 N   0  0  0  0  0  0  0  0  0  0  0  0
   38.4370   27.4880   31.8900 C   0  0  0  0  0  0  0  0  0  0  0  0
   38.1090   28.1850   30.7970 N   0  0  0  0  0  0  0  0  0  0  0  0
   38.8590   29.0290   28.9750 H   0  0  0  0  0  0  0  0  0  0  0  0
   41.1230   28.2940   29.2950 H   0  0  0  0  0  0  0  0  0  0  0  0
   41.7110   26.9890   31.3550 H   0  0  0  0  0  0  0  0  0  0  0  0
  1  5  1  0  0  0  0
  1  2  2  0  0  0  0
  2  6  1  0  0  0  0
  2  3  1  0  0  0  0
  3  7  1  0  0  0  0
  4  3  2  0  0  0  0
  4  8  1  0  0  0  0
  5  4  1  0  0  0  0
  8  9  1  0  0  0  0
  9 10  1  0  0  0  0
 11 10  1  0  0  0  0
 12  8  1  0  0  0  0
 12 11  1  0  0  0  0
 13 12  1  0  0  0  0
 14  1  1  0  0  0  0
 15 14  2  0  0  0  0
 16 17  2  0  0  0  0
 16 21  1  0  0  0  0
 17 18  1  0  0  0  0
 18 24  1  0  0  0  0
 18 19  2  0  0  0  0
 20 19  1  0  0  0  0
 20 14  1  0  0  0  0
 21 20  2  0  0  0  0
 22 16  1  0  0  0  0
 23 17  1  0  0  0  0
M  END
>  <minimizedAffinity>
-4.72096586

$$$$
