
 OpenBabel03272508433D

 24 26  0  0  0  0  0  0  0  0999 V2000
   34.5320   29.1060   48.1690 C   0  0  0  0  0  0  0  0  0  0  0  0
   34.8760   28.4150   49.3090 C   0  0  0  0  0  0  0  0  0  0  0  0
   36.1000   28.9770   49.6480 C   0  0  0  0  0  0  0  0  0  0  0  0
   36.4330   29.9460   48.7340 C   0  0  0  0  0  0  0  0  0  0  0  0
   35.4750   30.0050   47.8540 O   0  0  0  0  0  0  0  0  0  0  0  0
   34.3660   27.6420   49.8330 H   0  0  0  0  0  0  0  0  0  0  0  0
   36.6940   28.6710   50.5240 H   0  0  0  0  0  0  0  0  0  0  0  0
   37.6310   30.7170   48.7930 N   0  0  0  0  0  0  0  0  0  0  0  0
   38.2640   31.1980   50.0090 C   0  0  0  0  0  2  0  0  0  0  0  0
   38.6090   32.6100   49.5890 C   0  0  0  0  0  2  0  0  0  0  0  0
   38.5680   32.6580   48.0770 C   0  0  0  0  0  2  0  0  0  0  0  0
   38.4740   31.1930   47.7060 C   0  0  0  0  0  3  0  0  0  0  0  0
   39.4990   30.7790   47.7930 H   0  0  0  0  0  0  0  0  0  0  0  0
   33.2990   28.8910   47.3970 C   0  0  0  0  0  0  0  0  0  0  0  0
   32.4590   28.0800   47.8580 O   0  0  0  0  0  0  0  0  0  0  0  0
   32.0700   31.3520   45.0310 C   0  0  0  0  0  0  0  0  0  0  0  0
   32.6290   30.9650   43.8190 C   0  0  0  0  0  0  0  0  0  0  0  0
   33.4440   29.8360   43.8100 C   0  0  0  0  0  0  0  0  0  0  0  0
   33.6390   29.1910   44.9790 N   0  0  0  0  0  0  0  0  0  0  0  0
   33.0780   29.5970   46.1480 C   0  0  0  0  0  0  0  0  0  0  0  0
   32.2950   30.6810   46.1580 N   0  0  0  0  0  0  0  0  0  0  0  0
   31.4530   32.2370   44.9480 H   0  0  0  0  0  0  0  0  0  0  0  0
   32.4560   31.5000   42.8940 H   0  0  0  0  0  0  0  0  0  0  0  0
   33.9210   29.4640   42.9040 H   0  0  0  0  0  0  0  0  0  0  0  0
  1  2  2  0  0  0  0
  2  3  1  0  0  0  0
  2  6  1  0  0  0  0
  3  7  1  0  0  0  0
  4  8  1  0  0  0  0
  4  3  2  0  0  0  0
  5  1  1  0  0  0  0
  5  4  1  0  0  0  0
  8  9  1  0  0  0  0
 10  9  1  0  0  0  0
 11 10  1  0  0  0  0
 12 13  1  0  0  0  0
 12 11  1  0  0  0  0
 12  8  1  0  0  0  0
 14 15  2  0  0  0  0
 14  1  1  0  0  0  0
 16 21  1  0  0  0  0
 17 16  2  0  0  0  0
 18 17  1  0  0  0  0
 18 19  2  0  0  0  0
 19 20  1  0  0  0  0
 20 21  2  0  0  0  0
 20 14  1  0  0  0  0
 22 16  1  0  0  0  0
 23 17  1  0  0  0  0
 24 18  1  0  0  0  0
M  END
>  <minimizedAffinity>
-4.88220358

>  <minimizedRMSD>
2.87133861

$$$$
