
 OpenBabel03272507463D

 43 47  0  0  0  0  0  0  0  0999 V2000
   32.3100   28.1820   47.3250 N   0  0  0  0  0  0  0  0  0  0  0  0
   32.8540   27.6640   48.5350 C   0  0  0  0  0  0  0  0  0  0  0  0
   34.0630   28.3370   49.0640 C   0  0  0  0  0  0  0  0  0  0  0  0
   35.0500   28.7810   48.0800 C   0  0  0  0  0  0  0  0  0  0  0  0
   34.3980   29.2600   46.7710 C   0  0  0  0  0  0  0  0  0  0  0  0
   33.3740   28.1910   46.3580 C   0  0  0  0  0  0  0  0  0  0  0  0
   33.0810   26.5780   48.3640 H   0  0  0  0  0  0  0  0  0  0  0  0
   32.0480   27.6770   49.3000 H   0  0  0  0  0  0  0  0  0  0  0  0
   33.6170   29.2840   49.5180 H   0  0  0  0  0  0  0  0  0  0  0  0
   34.4920   27.7740   49.8870 H   0  0  0  0  0  0  0  0  0  0  0  0
   35.6900   27.9250   47.7290 H   0  0  0  0  0  0  0  0  0  0  0  0
   35.1740   29.2570   45.9880 H   0  0  0  0  0  0  0  0  0  0  0  0
   33.9130   30.2250   46.9550 H   0  0  0  0  0  0  0  0  0  0  0  0
   33.9100   27.2450   46.2470 H   0  0  0  0  0  0  0  0  0  0  0  0
   32.9760   28.5670   45.3770 H   0  0  0  0  0  0  0  0  0  0  0  0
   35.8400   30.2790   49.8550 C   0  0  0  0  0  0  0  0  0  0  0  0
   35.9020   29.9140   48.5170 C   0  0  0  0  0  0  0  0  0  0  0  0
   36.6760   30.5540   47.5860 C   0  0  0  0  0  0  0  0  0  0  0  0
   37.4460   31.6370   48.0050 C   0  0  0  0  0  0  0  0  0  0  0  0
   37.3820   32.0010   49.3370 C   0  0  0  0  0  0  0  0  0  0  0  0
   36.5980   31.3530   50.2880 C   0  0  0  0  0  0  0  0  0  0  0  0
   38.2150   33.1040   49.5750 O   0  0  0  0  0  0  0  0  0  0  0  0
   39.0630   33.1600   48.4260 C   0  0  0  0  0  0  0  0  0  0  0  0
   38.3330   32.5240   47.4040 O   0  0  0  0  0  0  0  0  0  0  0  0
   35.2810   29.8430   50.6690 H   0  0  0  0  0  0  0  0  0  0  0  0
   36.7030   30.2500   46.5680 H   0  0  0  0  0  0  0  0  0  0  0  0
   36.5980   31.6950   51.3230 H   0  0  0  0  0  0  0  0  0  0  0  0
   39.3280   34.1810   48.1290 H   0  0  0  0  0  0  0  0  0  0  0  0
   40.0260   32.6380   48.6640 H   0  0  0  0  0  0  0  0  0  0  0  0
   30.9700   28.6180   47.0820 C   0  0  0  0  0  0  0  0  0  0  0  0
   30.5400   29.3760   45.9970 C   0  0  0  0  0  0  0  0  0  0  0  0
   29.1960   29.7040   45.9320 C   0  0  0  0  0  0  0  0  0  0  0  0
   28.3680   29.2720   46.9210 N   0  0  0  0  0  0  0  0  0  0  0  0
   28.8040   28.5410   47.9580 C   0  0  0  0  0  0  0  0  0  0  0  0
   30.1010   28.2230   48.0270 N   0  0  0  0  0  0  0  0  0  0  0  0
   31.3020   29.6420   45.3010 H   0  0  0  0  0  0  0  0  0  0  0  0
   28.8780   30.2880   45.0920 H   0  0  0  0  0  0  0  0  0  0  0  0
   27.8510   28.1410   48.9400 N   0  0  0  0  0  0  0  0  0  0  0  0
   27.5640   26.7520   49.2600 C   0  0  0  0  0  2  0  0  0  0  0  0
   27.5050   26.8250   50.7720 C   0  0  0  0  0  2  0  0  0  0  0  0
   27.1670   28.2600   51.1160 C   0  0  0  0  0  2  0  0  0  0  0  0
   27.0050   28.9670   49.7860 C   0  0  0  0  0  3  0  0  0  0  0  0
   27.3900   30.0090   49.7940 H   0  0  0  0  0  0  0  0  0  0  0  0
  1  2  1  0  0  0  0
  2  3  1  0  0  0  0
  2  8  1  0  0  0  0
  3  9  1  0  0  0  0
  3 10  1  0  0  0  0
  4 17  1  0  0  0  0
  4  3  1  0  0  0  0
  5 13  1  0  0  0  0
  5  4  1  0  0  0  0
  6  5  1  0  0  0  0
  6  1  1  0  0  0  0
  7  2  1  0  0  0  0
 11  4  1  0  0  0  0
 12  5  1  0  0  0  0
 14  6  1  0  0  0  0
 15  6  1  0  0  0  0
 16 21  1  0  0  0  0
 16 25  1  0  0  0  0
 17 16  2  0  0  0  0
 18 19  2  0  0  0  0
 18 17  1  0  0  0  0
 19 20  1  0  0  0  0
 20 22  1  0  0  0  0
 20 21  2  0  0  0  0
 21 27  1  0  0  0  0
 23 29  1  0  0  0  0
 23 22  1  0  0  0  0
 24 19  1  0  0  0  0
 24 23  1  0  0  0  0
 26 18  1  0  0  0  0
 28 23  1  0  0  0  0
 30  1  1  0  0  0  0
 30 35  1  0  0  0  0
 31 30  2  0  0  0  0
 32 31  1  0  0  0  0
 32 33  2  0  0  0  0
 33 34  1  0  0  0  0
 34 35  2  0  0  0  0
 34 38  1  0  0  0  0
 36 31  1  0  0  0  0
 37 32  1  0  0  0  0
 38 39  1  0  0  0  0
 38 42  1  0  0  0  0
 39 40  1  0  0  0  0
 40 41  1  0  0  0  0
 42 43  1  0  0  0  0
 42 41  1  0  0  0  0
M  END
>  <minimizedAffinity>
-7.71924782

>  <minimizedRMSD>
0.51555258

$$$$
