
 OpenBabel03262523403D

 29 31  0  0  1  0  0  0  0  0999 V2000
   38.5650   28.3040   43.1550 C   0  0  0  0  0  0  0  0  0  0  0  0
   39.0250   29.2710   44.0520 C   0  0  0  0  0  0  0  0  0  0  0  0
   38.5180   30.5570   43.9760 C   0  0  0  0  0  0  0  0  0  0  0  0
   37.5870   30.8000   43.0130 N   0  0  0  0  0  0  0  0  0  0  0  0
   37.1370   29.8720   42.1430 C   0  0  0  0  0  0  0  0  0  0  0  0
   37.6310   28.6170   42.2170 N   0  0  0  0  0  0  0  0  0  0  0  0
   38.9260   31.5910   44.8490 N   0  0  0  0  0  0  0  0  0  0  0  0
   39.8320   32.5740   44.2980 C   0  0  0  0  0  0  0  0  0  0  0  0
   40.2710   33.6400   45.2230 C   0  0  0  0  0  0  0  0  0  0  0  0
   39.7230   33.6740   46.4920 N   0  0  0  0  0  0  0  0  0  0  0  0
   39.2810   32.4760   47.1160 C   0  0  0  0  0  0  0  0  0  0  0  0
   38.4310   31.6330   46.1790 C   0  0  2  0  0  0  0  0  0  0  0  0
   38.9040   27.2860   43.1460 H   0  0  0  0  0  0  0  0  0  0  0  0
   39.7590   28.9810   44.7560 H   0  0  0  0  0  0  0  0  0  0  0  0
   36.3940   30.1910   41.4230 H   0  0  0  0  0  0  0  0  0  0  0  0
   40.6780   32.0710   43.7830 H   0  0  0  0  0  0  0  0  0  0  0  0
   39.2470   33.0370   43.4470 H   0  0  0  0  0  0  0  0  0  0  0  0
   41.3930   33.5460   45.3320 H   0  0  0  0  0  0  0  0  0  0  0  0
   40.1610   34.6450   44.7370 H   0  0  0  0  0  0  0  0  0  0  0  0
   39.1980   34.5170   46.7950 H   0  0  0  0  0  0  0  0  0  0  0  0
   40.1440   31.9570   47.5270 H   0  0  0  0  0  0  0  0  0  0  0  0
   38.6330   32.7640   47.9670 H   0  0  0  0  0  0  0  0  0  0  0  0
   37.5190   32.3290   46.0610 H   0  0  0  0  0  0  0  0  0  0  0  0
   37.8770   30.4730   46.7420 N   0  0  2  0  0  0  0  0  0  0  0  0
   36.4340   30.5030   46.4600 C   0  0  0  0  0  0  0  0  0  0  0  0
   35.7050   30.6380   47.7470 C   0  0  0  0  0  0  0  0  0  0  0  0
   36.6410   30.0200   48.7320 C   0  0  0  0  0  0  0  0  0  0  0  0
   38.0120   30.2770   48.1440 C   0  0  0  0  0  0  0  0  0  0  0  0
   38.5800   29.3270   48.3810 H   0  0  0  0  0  0  0  0  0  0  0  0
  1  2  1  0  0  0  0
  2 14  1  0  0  0  0
  3  2  2  0  0  0  0
  3  7  1  0  0  0  0
  4  3  1  0  0  0  0
  5  6  1  0  0  0  0
  5  4  2  0  0  0  0
  6  1  2  0  0  0  0
  7 12  1  0  0  0  0
  8  7  1  0  0  0  0
  8  9  1  0  0  0  0
  9 18  1  0  0  0  0
  9 10  1  0  0  0  0
 10 20  1  0  0  0  0
 10 11  1  0  0  0  0
 11 21  1  0  0  0  0
 11 22  1  0  0  0  0
 12 23  1  6  0  0  0
 12 24  1  0  0  0  0
 12 11  1  0  0  0  0
 13  1  1  0  0  0  0
 15  5  1  0  0  0  0
 16  8  1  0  0  0  0
 17  8  1  0  0  0  0
 19  9  1  0  0  0  0
 24 25  1  1  0  0  0
 24 28  1  0  0  0  0
 25 26  1  0  0  0  0
 26 27  1  0  0  0  0
 28 29  1  0  0  0  0
 28 27  1  0  0  0  0
M  END
>  <minimizedAffinity>
-4.4297781

>  <minimizedRMSD>
5.73065138

$$$$
