
 OpenBabel03272508433D

 24 26  0  0  0  0  0  0  0  0999 V2000
   35.4430   29.7430   49.7260 C   0  0  0  0  0  0  0  0  0  0  0  0
   36.6240   29.1380   50.0920 C   0  0  0  0  0  0  0  0  0  0  0  0
   37.5780   30.0570   49.6730 C   0  0  0  0  0  0  0  0  0  0  0  0
   36.9590   31.1360   49.0940 C   0  0  0  0  0  0  0  0  0  0  0  0
   35.6740   30.9250   49.1370 O   0  0  0  0  0  0  0  0  0  0  0  0
   36.8090   28.2080   50.5740 H   0  0  0  0  0  0  0  0  0  0  0  0
   38.6630   29.9140   49.7990 H   0  0  0  0  0  0  0  0  0  0  0  0
   37.6540   32.2600   48.5580 N   0  0  0  0  0  0  0  0  0  0  0  0
   38.2610   32.3240   47.2390 C   0  0  0  0  0  2  0  0  0  0  0  0
   39.5740   32.9910   47.5840 C   0  0  0  0  0  2  0  0  0  0  0  0
   39.4080   33.6500   48.9360 C   0  0  0  0  0  2  0  0  0  0  0  0
   37.9150   33.5560   49.1650 C   0  0  0  0  0  3  0  0  0  0  0  0
   37.4530   34.3700   48.5700 H   0  0  0  0  0  0  0  0  0  0  0  0
   34.1050   29.1740   49.9490 C   0  0  0  0  0  0  0  0  0  0  0  0
   33.4680   29.5640   50.9580 O   0  0  0  0  0  0  0  0  0  0  0  0
   31.7040   27.0650   48.2300 C   0  0  0  0  0  0  0  0  0  0  0  0
   32.4690   26.3660   47.3050 C   0  0  0  0  0  0  0  0  0  0  0  0
   33.8370   26.6220   47.2670 C   0  0  0  0  0  0  0  0  0  0  0  0
   34.3320   27.5310   48.1330 N   0  0  0  0  0  0  0  0  0  0  0  0
   33.5550   28.1990   49.0260 C   0  0  0  0  0  0  0  0  0  0  0  0
   32.2410   27.9540   49.0620 N   0  0  0  0  0  0  0  0  0  0  0  0
   30.6540   26.8080   48.1910 H   0  0  0  0  0  0  0  0  0  0  0  0
   32.0480   25.6400   46.6210 H   0  0  0  0  0  0  0  0  0  0  0  0
   34.5100   26.1180   46.5730 H   0  0  0  0  0  0  0  0  0  0  0  0
  1 14  1  0  0  0  0
  1  2  2  0  0  0  0
  2  6  1  0  0  0  0
  3  7  1  0  0  0  0
  3  2  1  0  0  0  0
  4  5  1  0  0  0  0
  4  3  2  0  0  0  0
  5  1  1  0  0  0  0
  8  4  1  0  0  0  0
  8 12  1  0  0  0  0
  9 10  1  0  0  0  0
  9  8  1  0  0  0  0
 10 11  1  0  0  0  0
 11 12  1  0  0  0  0
 13 12  1  0  0  0  0
 14 15  2  0  0  0  0
 16 21  1  0  0  0  0
 17 16  2  0  0  0  0
 18 17  1  0  0  0  0
 18 19  2  0  0  0  0
 19 20  1  0  0  0  0
 20 21  2  0  0  0  0
 20 14  1  0  0  0  0
 22 16  1  0  0  0  0
 23 17  1  0  0  0  0
 24 18  1  0  0  0  0
M  END
>  <minimizedAffinity>
-4.88724279

>  <minimizedRMSD>
2.79760551

$$$$
