
 OpenBabel03272508433D

 24 26  0  0  0  0  0  0  0  0999 V2000
   34.6400   28.6980   48.4270 C   0  0  0  0  0  0  0  0  0  0  0  0
   34.8130   28.4720   49.7730 C   0  0  0  0  0  0  0  0  0  0  0  0
   35.9690   29.1880   50.0550 C   0  0  0  0  0  0  0  0  0  0  0  0
   36.4290   29.7940   48.9120 C   0  0  0  0  0  0  0  0  0  0  0  0
   35.6130   29.4840   47.9450 O   0  0  0  0  0  0  0  0  0  0  0  0
   34.2360   27.9030   50.4620 H   0  0  0  0  0  0  0  0  0  0  0  0
   36.4270   29.2450   51.0550 H   0  0  0  0  0  0  0  0  0  0  0  0
   37.5990   30.6060   48.8580 N   0  0  0  0  0  0  0  0  0  0  0  0
   38.2740   31.1920   50.0040 C   0  0  0  0  0  2  0  0  0  0  0  0
   38.5460   32.5800   49.4710 C   0  0  0  0  0  2  0  0  0  0  0  0
   38.4320   32.5200   47.9630 C   0  0  0  0  0  2  0  0  0  0  0  0
   38.3720   31.0300   47.6990 C   0  0  0  0  0  3  0  0  0  0  0  0
   39.4150   30.6560   47.7620 H   0  0  0  0  0  0  0  0  0  0  0  0
   33.5370   28.1540   47.6190 C   0  0  0  0  0  0  0  0  0  0  0  0
   33.1100   27.0100   47.9140 O   0  0  0  0  0  0  0  0  0  0  0  0
   32.0980   28.9530   44.3850 C   0  0  0  0  0  0  0  0  0  0  0  0
   31.9100   30.3280   44.4300 C   0  0  0  0  0  0  0  0  0  0  0  0
   32.2830   30.9990   45.5920 C   0  0  0  0  0  0  0  0  0  0  0  0
   32.8040   30.2690   46.6000 N   0  0  0  0  0  0  0  0  0  0  0  0
   32.9750   28.9230   46.5240 C   0  0  0  0  0  0  0  0  0  0  0  0
   32.6170   28.2780   45.4090 N   0  0  0  0  0  0  0  0  0  0  0  0
   31.7810   28.5130   43.4490 H   0  0  0  0  0  0  0  0  0  0  0  0
   31.4890   30.8920   43.6060 H   0  0  0  0  0  0  0  0  0  0  0  0
   32.1700   32.0760   45.7100 H   0  0  0  0  0  0  0  0  0  0  0  0
  1  2  2  0  0  0  0
  2  3  1  0  0  0  0
  2  6  1  0  0  0  0
  3  7  1  0  0  0  0
  4  3  2  0  0  0  0
  5  1  1  0  0  0  0
  5  4  1  0  0  0  0
  8  4  1  0  0  0  0
  8  9  1  0  0  0  0
 10  9  1  0  0  0  0
 11 10  1  0  0  0  0
 12 13  1  0  0  0  0
 12 11  1  0  0  0  0
 12  8  1  0  0  0  0
 14 15  2  0  0  0  0
 14  1  1  0  0  0  0
 16 17  2  0  0  0  0
 16 21  1  0  0  0  0
 17 18  1  0  0  0  0
 18 24  1  0  0  0  0
 18 19  2  0  0  0  0
 20 19  1  0  0  0  0
 20 14  1  0  0  0  0
 21 20  2  0  0  0  0
 22 16  1  0  0  0  0
 23 17  1  0  0  0  0
M  END
>  <minimizedAffinity>
-4.79652739

>  <minimizedRMSD>
3.07214451

$$$$
