
 OpenBabel03272508433D

 24 26  0  0  0  0  0  0  0  0999 V2000
   34.5250   29.0200   48.2170 C   0  0  0  0  0  0  0  0  0  0  0  0
   34.8700   28.3800   49.3850 C   0  0  0  0  0  0  0  0  0  0  0  0
   36.0890   28.9640   49.7040 C   0  0  0  0  0  0  0  0  0  0  0  0
   36.4170   29.8970   48.7520 C   0  0  0  0  0  0  0  0  0  0  0  0
   35.4620   29.9130   47.8670 O   0  0  0  0  0  0  0  0  0  0  0  0
   34.3640   27.6250   49.9400 H   0  0  0  0  0  0  0  0  0  0  0  0
   36.6820   28.6990   50.5930 H   0  0  0  0  0  0  0  0  0  0  0  0
   37.6090   30.6790   48.7820 N   0  0  0  0  0  0  0  0  0  0  0  0
   38.2530   31.1890   49.9810 C   0  0  0  0  0  2  0  0  0  0  0  0
   38.5810   32.5950   49.5280 C   0  0  0  0  0  2  0  0  0  0  0  0
   38.5240   32.6110   48.0170 C   0  0  0  0  0  2  0  0  0  0  0  0
   38.4370   31.1370   47.6760 C   0  0  0  0  0  3  0  0  0  0  0  0
   39.4670   30.7330   47.7610 H   0  0  0  0  0  0  0  0  0  0  0  0
   33.2950   28.7640   47.4510 C   0  0  0  0  0  0  0  0  0  0  0  0
   32.4590   27.9680   47.9430 O   0  0  0  0  0  0  0  0  0  0  0  0
   32.2180   31.2180   45.0040 C   0  0  0  0  0  0  0  0  0  0  0  0
   32.6290   30.6860   43.7880 C   0  0  0  0  0  0  0  0  0  0  0  0
   33.2890   29.4600   43.8040 C   0  0  0  0  0  0  0  0  0  0  0  0
   33.4870   28.8680   45.0010 N   0  0  0  0  0  0  0  0  0  0  0  0
   33.0730   29.4160   46.1730 C   0  0  0  0  0  0  0  0  0  0  0  0
   32.4390   30.5930   46.1580 N   0  0  0  0  0  0  0  0  0  0  0  0
   31.7150   32.1700   44.9000 H   0  0  0  0  0  0  0  0  0  0  0  0
   32.4570   31.1810   42.8410 H   0  0  0  0  0  0  0  0  0  0  0  0
   33.6450   28.9730   42.8970 H   0  0  0  0  0  0  0  0  0  0  0  0
  1  2  2  0  0  0  0
  2  3  1  0  0  0  0
  2  6  1  0  0  0  0
  3  7  1  0  0  0  0
  4  8  1  0  0  0  0
  4  3  2  0  0  0  0
  5  1  1  0  0  0  0
  5  4  1  0  0  0  0
  8  9  1  0  0  0  0
 10  9  1  0  0  0  0
 11 10  1  0  0  0  0
 12 13  1  0  0  0  0
 12 11  1  0  0  0  0
 12  8  1  0  0  0  0
 14 15  2  0  0  0  0
 14  1  1  0  0  0  0
 16 21  1  0  0  0  0
 17 18  1  0  0  0  0
 17 16  2  0  0  0  0
 18 19  2  0  0  0  0
 19 20  1  0  0  0  0
 20 14  1  0  0  0  0
 21 20  2  0  0  0  0
 22 16  1  0  0  0  0
 23 17  1  0  0  0  0
 24 18  1  0  0  0  0
M  END
>  <minimizedAffinity>
-4.88588095

>  <minimizedRMSD>
2.92807031

$$$$
