
 OpenBabel03272506573D

 25 27  0  0  0  0  0  0  0  0999 V2000
   39.8940   30.8490   44.5430 C   0  0  0  0  0  0  0  0  0  0  0  0
   40.4030   32.1230   44.3470 C   0  0  0  0  0  0  0  0  0  0  0  0
   40.3300   33.1920   45.2010 C   0  0  0  0  0  0  0  0  0  0  0  0
   39.6730   32.9370   46.3730 N   0  0  0  0  0  0  0  0  0  0  0  0
   39.1550   31.6940   46.6080 C   0  0  0  0  0  0  0  0  0  0  0  0
   39.2680   30.6940   45.7180 N   0  0  0  0  0  0  0  0  0  0  0  0
   40.9260   32.3220   43.4090 H   0  0  0  0  0  0  0  0  0  0  0  0
   40.7540   34.1420   44.9660 H   0  0  0  0  0  0  0  0  0  0  0  0
   38.4680   31.4330   47.8370 N   0  0  0  0  0  0  0  0  0  0  0  0
   37.6070   30.3060   48.1410 C   0  0  0  0  0  0  0  0  0  0  0  0
   37.6050   30.1660   49.6260 C   0  0  0  0  0  0  0  0  0  0  0  0
   38.3340   31.3610   50.1990 C   0  0  0  0  0  0  0  0  0  0  0  0
   38.5210   32.2820   49.0240 C   0  0  0  0  0  0  0  0  0  0  0  0
   39.5010   32.7880   49.0640 H   0  0  0  0  0  0  0  0  0  0  0  0
   39.2390   27.7920   42.7200 C   0  0  0  0  0  0  0  0  0  0  0  0
   40.2020   27.7570   41.6970 C   0  0  0  0  0  0  0  0  0  0  0  0
   41.1020   28.8550   41.6650 C   0  0  0  0  0  0  0  0  0  0  0  0
   40.9950   29.8450   42.5850 N   0  0  0  0  0  0  0  0  0  0  0  0
   40.0490   29.8060   43.5300 C   0  0  0  0  0  0  0  0  0  0  0  0
   39.1370   28.7870   43.6370 N   0  0  0  0  0  0  0  0  0  0  0  0
   38.5700   26.9460   42.7180 H   0  0  0  0  0  0  0  0  0  0  0  0
   41.8600   28.8740   40.8980 H   0  0  0  0  0  0  0  0  0  0  0  0
   40.2670   26.7030   40.7660 N   0  0  0  0  0  0  0  0  0  0  0  0
   39.9330   27.0400   39.8150 H   0  0  0  0  0  0  0  0  0  0  0  0
   40.6400   25.9110   41.3570 H   0  0  0  0  0  0  0  0  0  0  0  0
  1  6  1  0  0  0  0
  2  1  2  0  0  0  0
  2  3  1  0  0  0  0
  3  4  2  0  0  0  0
  4  5  1  0  0  0  0
  5  9  1  0  0  0  0
  6  5  2  0  0  0  0
  7  2  1  0  0  0  0
  8  3  1  0  0  0  0
  9 10  1  0  0  0  0
  9 13  1  0  0  0  0
 10 11  1  0  0  0  0
 11 12  1  0  0  0  0
 13 14  1  0  0  0  0
 13 12  1  0  0  0  0
 15 20  1  0  0  0  0
 16 15  2  0  0  0  0
 17 16  1  0  0  0  0
 17 18  2  0  0  0  0
 18 19  1  0  0  0  0
 19 20  2  0  0  0  0
 19  1  1  0  0  0  0
 21 15  1  0  0  0  0
 22 17  1  0  0  0  0
 23 25  1  0  0  0  0
 23 16  1  0  0  0  0
 24 23  1  0  0  0  0
M  END
>  <minimizedAffinity>
-5.86720181

>  <minimizedRMSD>
6.26834917

$$$$
