
 OpenBabel03272502033D

 39 43  0  0  0  0  0  0  0  0999 V2000
   35.9580   22.4010   31.2530 C   0  0  0  0  0  0  0  0  0  0  0  0
   35.0710   22.4380   31.9290 H   0  0  0  0  0  0  0  0  0  0  0  0
   35.7250   22.0550   30.2460 H   0  0  0  0  0  0  0  0  0  0  0  0
   36.4400   23.8260   31.1660 C   0  0  0  0  0  0  0  0  0  0  0  0
   37.6750   24.2530   30.7200 C   0  0  0  0  0  0  0  0  0  0  0  0
   37.7240   25.6410   30.7970 C   0  0  0  0  0  0  0  0  0  0  0  0
   36.5140   26.0050   31.2860 N   0  0  0  0  0  0  0  0  0  0  0  0
   35.7750   24.9330   31.4960 N   0  0  0  0  0  0  0  0  0  0  0  0
   37.0240   28.4560   31.1880 N   0  0  0  0  0  0  0  0  0  0  0  0
   36.2590   27.3910   31.4780 C   0  0  0  0  0  0  0  0  0  0  0  0
   35.1140   27.8830   32.0300 N   0  0  0  0  0  0  0  0  0  0  0  0
   35.1690   29.2210   32.0770 C   0  0  0  0  0  0  0  0  0  0  0  0
   34.2570   30.1490   32.5460 C   0  0  0  0  0  0  0  0  0  0  0  0
   34.5650   31.4500   32.4770 N   0  0  0  0  0  0  0  0  0  0  0  0
   35.7650   31.8300   31.9490 C   0  0  0  0  0  0  0  0  0  0  0  0
   36.6490   30.9160   31.4940 N   0  0  0  0  0  0  0  0  0  0  0  0
   36.3760   29.5970   31.5470 C   0  0  0  0  0  0  0  0  0  0  0  0
   38.4590   23.5760   30.3730 H   0  0  0  0  0  0  0  0  0  0  0  0
   38.6030   26.1690   30.4960 H   0  0  0  0  0  0  0  0  0  0  0  0
   37.9690   28.4160   30.7540 H   0  0  0  0  0  0  0  0  0  0  0  0
   33.2890   29.8640   32.9730 H   0  0  0  0  0  0  0  0  0  0  0  0
   36.1050   32.8580   31.8500 H   0  0  0  0  0  0  0  0  0  0  0  0
   37.0610   21.6370   31.9270 C   0  0  0  0  0  0  0  0  0  0  0  0
   37.1890   20.6030   31.5230 H   0  0  0  0  0  0  0  0  0  0  0  0
   38.0260   22.1380   31.7840 H   0  0  0  0  0  0  0  0  0  0  0  0
   35.5240   20.5720   35.1310 C   0  0  0  0  0  0  0  0  0  0  0  0
   36.3250   21.2320   36.0760 C   0  0  0  0  0  0  0  0  0  0  0  0
   37.3790   22.0300   35.5920 C   0  0  0  0  0  0  0  0  0  0  0  0
   37.5660   22.1230   34.2620 N   0  0  0  0  0  0  0  0  0  0  0  0
   36.7640   21.4650   33.3790 C   0  0  0  0  0  0  0  0  0  0  0  0
   35.7800   20.7180   33.8270 N   0  0  0  0  0  0  0  0  0  0  0  0
   34.7210   19.9640   35.5260 H   0  0  0  0  0  0  0  0  0  0  0  0
   36.1210   21.1130   37.1210 H   0  0  0  0  0  0  0  0  0  0  0  0
   38.2110   22.7110   36.4920 N   0  0  0  0  0  0  0  0  0  0  0  0
   39.6580   22.7910   36.4420 C   0  0  0  0  0  2  0  0  0  0  0  0
   40.0950   22.9100   37.8890 C   0  0  0  0  0  2  0  0  0  0  0  0
   38.8980   23.3840   38.6550 C   0  0  0  0  0  2  0  0  0  0  0  0
   37.7830   23.4640   37.6390 C   0  0  0  0  0  3  0  0  0  0  0  0
   37.6730   24.5470   37.3670 H   0  0  0  0  0  0  0  0  0  0  0  0
  1 23  1  0  0  0  0
  1  2  1  0  0  0  0
  3  1  1  0  0  0  0
  4  1  1  0  0  0  0
  4  8  2  0  0  0  0
  5  6  2  0  0  0  0
  5  4  1  0  0  0  0
  6  7  1  0  0  0  0
  7 10  1  0  0  0  0
  7  8  1  0  0  0  0
  9 10  1  0  0  0  0
  9 17  1  0  0  0  0
 10 11  2  0  0  0  0
 11 12  1  0  0  0  0
 12 13  1  0  0  0  0
 13 21  1  0  0  0  0
 14 13  2  0  0  0  0
 15 14  1  0  0  0  0
 16 17  1  0  0  0  0
 16 15  2  0  0  0  0
 17 12  2  0  0  0  0
 18  5  1  0  0  0  0
 19  6  1  0  0  0  0
 20  9  1  0  0  0  0
 22 15  1  0  0  0  0
 23 30  1  0  0  0  0
 24 23  1  0  0  0  0
 25 23  1  0  0  0  0
 26 32  1  0  0  0  0
 26 27  1  0  0  0  0
 27 33  1  0  0  0  0
 28 27  2  0  0  0  0
 28 34  1  0  0  0  0
 29 28  1  0  0  0  0
 30 31  1  0  0  0  0
 30 29  2  0  0  0  0
 31 26  2  0  0  0  0
 34 38  1  0  0  0  0
 35 34  1  0  0  0  0
 35 36  1  0  0  0  0
 36 37  1  0  0  0  0
 38 37  1  0  0  0  0
 39 38  1  0  0  0  0
M  END
>  <minimizedAffinity>
-6.40772057

$$$$

 OpenBabel03272502033D

 39 43  0  0  0  0  0  0  0  0999 V2000
   35.9530   26.6250   30.7730 C   0  0  0  0  0  0  0  0  0  0  0  0
   35.2790   27.2220   30.1150 H   0  0  0  0  0  0  0  0  0  0  0  0
   36.9560   26.4960   30.3670 H   0  0  0  0  0  0  0  0  0  0  0  0
   36.0570   27.4210   32.0480 C   0  0  0  0  0  0  0  0  0  0  0  0
   36.8750   27.1480   33.1260 C   0  0  0  0  0  0  0  0  0  0  0  0
   36.6720   28.1210   34.1000 C   0  0  0  0  0  0  0  0  0  0  0  0
   35.7380   28.9500   33.5740 N   0  0  0  0  0  0  0  0  0  0  0  0
   35.3890   28.5280   32.3740 N   0  0  0  0  0  0  0  0  0  0  0  0
   35.7500   30.4920   35.5480 N   0  0  0  0  0  0  0  0  0  0  0  0
   35.3170   30.0640   34.3520 C   0  0  0  0  0  0  0  0  0  0  0  0
   34.3350   30.9290   33.9710 N   0  0  0  0  0  0  0  0  0  0  0  0
   34.1670   31.8700   34.9090 C   0  0  0  0  0  0  0  0  0  0  0  0
   33.3000   32.9460   34.9680 C   0  0  0  0  0  0  0  0  0  0  0  0
   33.3370   33.7480   36.0400 N   0  0  0  0  0  0  0  0  0  0  0  0
   34.2230   33.4870   37.0450 C   0  0  0  0  0  0  0  0  0  0  0  0
   35.0650   32.4340   36.9780 N   0  0  0  0  0  0  0  0  0  0  0  0
   35.0580   31.6030   35.9170 C   0  0  0  0  0  0  0  0  0  0  0  0
   37.5550   26.2950   33.1680 H   0  0  0  0  0  0  0  0  0  0  0  0
   37.2150   28.0880   35.0190 H   0  0  0  0  0  0  0  0  0  0  0  0
   36.5010   30.0420   36.1110 H   0  0  0  0  0  0  0  0  0  0  0  0
   32.5820   33.1720   34.1720 H   0  0  0  0  0  0  0  0  0  0  0  0
   34.3280   34.0780   37.9520 H   0  0  0  0  0  0  0  0  0  0  0  0
   35.2690   25.3420   31.1470 C   0  0  0  0  0  0  0  0  0  0  0  0
   34.9130   25.3280   32.2060 H   0  0  0  0  0  0  0  0  0  0  0  0
   34.3770   25.1810   30.5280 H   0  0  0  0  0  0  0  0  0  0  0  0
   38.3110   23.2950   30.5870 C   0  0  0  0  0  0  0  0  0  0  0  0
   37.8420   21.9960   30.8400 C   0  0  0  0  0  0  0  0  0  0  0  0
   36.4890   21.8510   31.1980 C   0  0  0  0  0  0  0  0  0  0  0  0
   35.7160   22.9500   31.2800 N   0  0  0  0  0  0  0  0  0  0  0  0
   36.2120   24.1930   31.0260 C   0  0  0  0  0  0  0  0  0  0  0  0
   37.4760   24.3330   30.6920 N   0  0  0  0  0  0  0  0  0  0  0  0
   39.3540   23.3820   30.3140 H   0  0  0  0  0  0  0  0  0  0  0  0
   38.5120   21.1640   30.7570 H   0  0  0  0  0  0  0  0  0  0  0  0
   35.9680   20.5760   31.4620 N   0  0  0  0  0  0  0  0  0  0  0  0
   35.1100   20.2040   32.5700 C   0  0  0  0  0  2  0  0  0  0  0  0
   35.4500   18.7550   32.8610 C   0  0  0  0  0  2  0  0  0  0  0  0
   36.1060   18.2180   31.6260 C   0  0  0  0  0  2  0  0  0  0  0  0
   36.1870   19.3910   30.6780 C   0  0  0  0  0  3  0  0  0  0  0  0
   35.3540   19.2640   29.9370 H   0  0  0  0  0  0  0  0  0  0  0  0
  1 23  1  0  0  0  0
  1  4  1  0  0  0  0
  2  1  1  0  0  0  0
  3  1  1  0  0  0  0
  4  8  2  0  0  0  0
  4  5  1  0  0  0  0
  5 18  1  0  0  0  0
  5  6  2  0  0  0  0
  6 19  1  0  0  0  0
  7  6  1  0  0  0  0
  7 10  1  0  0  0  0
  8  7  1  0  0  0  0
  9 17  1  0  0  0  0
  9 20  1  0  0  0  0
 10  9  1  0  0  0  0
 11 10  2  0  0  0  0
 11 12  1  0  0  0  0
 12 13  2  0  0  0  0
 12 17  1  0  0  0  0
 13 14  1  0  0  0  0
 14 15  2  0  0  0  0
 15 22  1  0  0  0  0
 16 15  1  0  0  0  0
 17 16  2  0  0  0  0
 21 13  1  0  0  0  0
 23 24  1  0  0  0  0
 25 23  1  0  0  0  0
 26 31  2  0  0  0  0
 26 27  1  0  0  0  0
 27 28  2  0  0  0  0
 28 29  1  0  0  0  0
 28 34  1  0  0  0  0
 30 23  1  0  0  0  0
 30 29  2  0  0  0  0
 31 30  1  0  0  0  0
 32 26  1  0  0  0  0
 33 27  1  0  0  0  0
 34 35  1  0  0  0  0
 35 36  1  0  0  0  0
 37 36  1  0  0  0  0
 38 34  1  0  0  0  0
 38 37  1  0  0  0  0
 39 38  1  0  0  0  0
M  END
>  <minimizedAffinity>
-6.2859211

$$$$

 OpenBabel03272502033D

 39 43  0  0  0  0  0  0  0  0999 V2000
   37.4360   26.4410   35.2800 C   0  0  0  0  0  0  0  0  0  0  0  0
   36.3670   26.1420   35.1690 H   0  0  0  0  0  0  0  0  0  0  0  0
   37.5790   27.3350   35.8870 H   0  0  0  0  0  0  0  0  0  0  0  0
   38.0940   25.2810   35.9830 C   0  0  0  0  0  0  0  0  0  0  0  0
   37.6810   24.6880   37.1590 C   0  0  0  0  0  0  0  0  0  0  0  0
   38.5560   23.6530   37.4690 C   0  0  0  0  0  0  0  0  0  0  0  0
   39.4680   23.6560   36.4680 N   0  0  0  0  0  0  0  0  0  0  0  0
   39.1840   24.6130   35.6060 N   0  0  0  0  0  0  0  0  0  0  0  0
   40.7240   21.6880   37.3770 N   0  0  0  0  0  0  0  0  0  0  0  0
   40.5110   22.6890   36.5090 C   0  0  0  0  0  0  0  0  0  0  0  0
   41.5290   22.6320   35.6050 N   0  0  0  0  0  0  0  0  0  0  0  0
   42.3510   21.6180   35.9070 C   0  0  0  0  0  0  0  0  0  0  0  0
   43.5050   21.1720   35.2880 C   0  0  0  0  0  0  0  0  0  0  0  0
   44.1490   20.1170   35.8040 N   0  0  0  0  0  0  0  0  0  0  0  0
   43.6550   19.5090   36.9220 C   0  0  0  0  0  0  0  0  0  0  0  0
   42.5280   19.9530   37.5180 N   0  0  0  0  0  0  0  0  0  0  0  0
   41.8520   21.0120   37.0300 C   0  0  0  0  0  0  0  0  0  0  0  0
   36.8030   25.0120   37.7230 H   0  0  0  0  0  0  0  0  0  0  0  0
   38.4090   23.0660   38.3500 H   0  0  0  0  0  0  0  0  0  0  0  0
   40.1190   21.4630   38.1930 H   0  0  0  0  0  0  0  0  0  0  0  0
   43.9170   21.6470   34.3910 H   0  0  0  0  0  0  0  0  0  0  0  0
   44.1040   18.6500   37.4140 H   0  0  0  0  0  0  0  0  0  0  0  0
   38.0720   26.5100   33.9220 C   0  0  0  0  0  0  0  0  0  0  0  0
   38.2450   27.5570   33.5710 H   0  0  0  0  0  0  0  0  0  0  0  0
   39.0580   26.0280   33.9280 H   0  0  0  0  0  0  0  0  0  0  0  0
   35.5460   26.0060   31.2520 C   0  0  0  0  0  0  0  0  0  0  0  0
   35.6080   24.6190   31.0470 C   0  0  0  0  0  0  0  0  0  0  0  0
   36.5170   23.8850   31.8310 C   0  0  0  0  0  0  0  0  0  0  0  0
   37.2760   24.5380   32.7310 N   0  0  0  0  0  0  0  0  0  0  0  0
   37.1840   25.8870   32.8980 C   0  0  0  0  0  0  0  0  0  0  0  0
   36.3370   26.5770   32.1670 N   0  0  0  0  0  0  0  0  0  0  0  0
   34.8410   26.5500   30.6390 H   0  0  0  0  0  0  0  0  0  0  0  0
   34.9750   24.1620   30.3130 H   0  0  0  0  0  0  0  0  0  0  0  0
   36.6200   22.4950   31.6670 N   0  0  0  0  0  0  0  0  0  0  0  0
   37.8430   21.7230   31.5800 C   0  0  0  0  0  2  0  0  0  0  0  0
   37.5020   20.5440   30.6890 C   0  0  0  0  0  2  0  0  0  0  0  0
   36.0090   20.4200   30.7060 C   0  0  0  0  0  2  0  0  0  0  0  0
   35.5240   21.5720   31.5550 C   0  0  0  0  0  3  0  0  0  0  0  0
   35.2790   21.1460   32.5640 H   0  0  0  0  0  0  0  0  0  0  0  0
  1  3  1  0  0  0  0
  1  4  1  0  0  0  0
  2  1  1  0  0  0  0
  4  5  1  0  0  0  0
  5  6  2  0  0  0  0
  5 18  1  0  0  0  0
  6 19  1  0  0  0  0
  7 10  1  0  0  0  0
  7  6  1  0  0  0  0
  8  4  2  0  0  0  0
  8  7  1  0  0  0  0
  9 20  1  0  0  0  0
 10  9  1  0  0  0  0
 11 12  1  0  0  0  0
 11 10  2  0  0  0  0
 12 17  1  0  0  0  0
 13 14  1  0  0  0  0
 13 12  2  0  0  0  0
 14 15  2  0  0  0  0
 15 22  1  0  0  0  0
 15 16  1  0  0  0  0
 17  9  1  0  0  0  0
 17 16  2  0  0  0  0
 21 13  1  0  0  0  0
 23 25  1  0  0  0  0
 23  1  1  0  0  0  0
 24 23  1  0  0  0  0
 26 31  1  0  0  0  0
 27 26  2  0  0  0  0
 27 28  1  0  0  0  0
 28 29  2  0  0  0  0
 29 30  1  0  0  0  0
 30 23  1  0  0  0  0
 31 30  2  0  0  0  0
 32 26  1  0  0  0  0
 33 27  1  0  0  0  0
 34 28  1  0  0  0  0
 35 34  1  0  0  0  0
 36 37  1  0  0  0  0
 36 35  1  0  0  0  0
 37 38  1  0  0  0  0
 38 34  1  0  0  0  0
 38 39  1  0  0  0  0
M  END
>  <minimizedAffinity>
-6.28336382

$$$$

 OpenBabel03272502033D

 39 43  0  0  0  0  0  0  0  0999 V2000
   35.6230   28.2670   31.6520 C   0  0  0  0  0  0  0  0  0  0  0  0
   35.0680   27.6980   30.8690 H   0  0  0  0  0  0  0  0  0  0  0  0
   35.0030   28.5610   32.4980 H   0  0  0  0  0  0  0  0  0  0  0  0
   36.6810   27.3150   32.1470 C   0  0  0  0  0  0  0  0  0  0  0  0
   37.7470   26.8180   31.4240 C   0  0  0  0  0  0  0  0  0  0  0  0
   38.4880   25.9730   32.2430 C   0  0  0  0  0  0  0  0  0  0  0  0
   37.8440   25.9890   33.4340 N   0  0  0  0  0  0  0  0  0  0  0  0
   36.7900   26.7790   33.3630 N   0  0  0  0  0  0  0  0  0  0  0  0
   39.4950   24.4630   34.5390 N   0  0  0  0  0  0  0  0  0  0  0  0
   38.3780   25.2050   34.4950 C   0  0  0  0  0  0  0  0  0  0  0  0
   37.7870   25.0780   35.7160 N   0  0  0  0  0  0  0  0  0  0  0  0
   38.5240   24.2780   36.4980 C   0  0  0  0  0  0  0  0  0  0  0  0
   38.3330   23.8580   37.8020 C   0  0  0  0  0  0  0  0  0  0  0  0
   39.2370   23.0430   38.3580 N   0  0  0  0  0  0  0  0  0  0  0  0
   40.3210   22.6450   37.6310 C   0  0  0  0  0  0  0  0  0  0  0  0
   40.4990   23.0600   36.3590 N   0  0  0  0  0  0  0  0  0  0  0  0
   39.6110   23.8800   35.7630 C   0  0  0  0  0  0  0  0  0  0  0  0
   37.9390   27.0720   30.3790 H   0  0  0  0  0  0  0  0  0  0  0  0
   39.3610   25.4840   31.8660 H   0  0  0  0  0  0  0  0  0  0  0  0
   40.1730   24.3510   33.7570 H   0  0  0  0  0  0  0  0  0  0  0  0
   37.4690   24.1660   38.4020 H   0  0  0  0  0  0  0  0  0  0  0  0
   41.1070   21.9870   37.9930 H   0  0  0  0  0  0  0  0  0  0  0  0
   36.3640   29.4010   31.0060 C   0  0  0  0  0  0  0  0  0  0  0  0
   37.4570   29.2000   30.8880 H   0  0  0  0  0  0  0  0  0  0  0  0
   35.9820   29.5910   29.9950 H   0  0  0  0  0  0  0  0  0  0  0  0
   36.6580   32.8900   32.2300 C   0  0  0  0  0  0  0  0  0  0  0  0
   36.0390   32.8140   33.4880 C   0  0  0  0  0  0  0  0  0  0  0  0
   35.5330   31.5640   33.8890 C   0  0  0  0  0  0  0  0  0  0  0  0
   35.6640   30.5120   33.0590 N   0  0  0  0  0  0  0  0  0  0  0  0
   36.2730   30.6300   31.8470 C   0  0  0  0  0  0  0  0  0  0  0  0
   36.7460   31.7960   31.4680 N   0  0  0  0  0  0  0  0  0  0  0  0
   37.0390   33.8610   31.9430 H   0  0  0  0  0  0  0  0  0  0  0  0
   35.9670   33.6920   34.0990 H   0  0  0  0  0  0  0  0  0  0  0  0
   34.9040   31.4310   35.1360 N   0  0  0  0  0  0  0  0  0  0  0  0
   33.6630   30.7330   35.4090 C   0  0  0  0  0  2  0  0  0  0  0  0
   33.0430   31.4740   36.5780 C   0  0  0  0  0  2  0  0  0  0  0  0
   34.1550   32.2360   37.2320 C   0  0  0  0  0  2  0  0  0  0  0  0
   35.3750   31.9660   36.3840 C   0  0  0  0  0  3  0  0  0  0  0  0
   35.9790   31.1910   36.9280 H   0  0  0  0  0  0  0  0  0  0  0  0
  1  4  1  0  0  0  0
  1  3  1  0  0  0  0
  2  1  1  0  0  0  0
  4  8  2  0  0  0  0
  5  4  1  0  0  0  0
  5  6  2  0  0  0  0
  6  7  1  0  0  0  0
  7 10  1  0  0  0  0
  8  7  1  0  0  0  0
  9 17  1  0  0  0  0
 10  9  1  0  0  0  0
 10 11  2  0  0  0  0
 11 12  1  0  0  0  0
 12 13  1  0  0  0  0
 13 14  2  0  0  0  0
 13 21  1  0  0  0  0
 15 22  1  0  0  0  0
 15 14  1  0  0  0  0
 16 15  2  0  0  0  0
 17 16  1  0  0  0  0
 17 12  2  0  0  0  0
 18  5  1  0  0  0  0
 19  6  1  0  0  0  0
 20  9  1  0  0  0  0
 23  1  1  0  0  0  0
 23 30  1  0  0  0  0
 24 23  1  0  0  0  0
 25 23  1  0  0  0  0
 26 27  1  0  0  0  0
 27 28  2  0  0  0  0
 27 33  1  0  0  0  0
 28 34  1  0  0  0  0
 29 28  1  0  0  0  0
 30 29  2  0  0  0  0
 31 30  1  0  0  0  0
 31 26  2  0  0  0  0
 32 26  1  0  0  0  0
 34 35  1  0  0  0  0
 34 38  1  0  0  0  0
 35 36  1  0  0  0  0
 36 37  1  0  0  0  0
 38 39  1  0  0  0  0
 38 37  1  0  0  0  0
M  END
>  <minimizedAffinity>
-6.26293898

$$$$

 OpenBabel03272502033D

 39 43  0  0  0  0  0  0  0  0999 V2000
   37.0890   27.5630   31.6710 C   0  0  0  0  0  0  0  0  0  0  0  0
   38.1370   27.5090   31.2920 H   0  0  0  0  0  0  0  0  0  0  0  0
   36.4660   28.2750   31.1310 H   0  0  0  0  0  0  0  0  0  0  0  0
   36.5260   26.1810   31.4550 C   0  0  0  0  0  0  0  0  0  0  0  0
   35.2180   25.8630   31.1490 C   0  0  0  0  0  0  0  0  0  0  0  0
   35.1100   24.4810   31.0310 C   0  0  0  0  0  0  0  0  0  0  0  0
   36.3590   24.0120   31.2700 N   0  0  0  0  0  0  0  0  0  0  0  0
   37.1750   25.0180   31.5150 N   0  0  0  0  0  0  0  0  0  0  0  0
   35.7140   21.6200   30.9000 N   0  0  0  0  0  0  0  0  0  0  0  0
   36.5670   22.6060   31.2190 C   0  0  0  0  0  0  0  0  0  0  0  0
   37.7540   22.0040   31.5090 N   0  0  0  0  0  0  0  0  0  0  0  0
   37.6380   20.6760   31.3720 C   0  0  0  0  0  0  0  0  0  0  0  0
   38.5610   19.6620   31.5550 C   0  0  0  0  0  0  0  0  0  0  0  0
   38.1780   18.3950   31.3470 N   0  0  0  0  0  0  0  0  0  0  0  0
   36.8950   18.1350   30.9630 C   0  0  0  0  0  0  0  0  0  0  0  0
   36.0030   19.1320   30.7870 N   0  0  0  0  0  0  0  0  0  0  0  0
   36.3480   20.4190   30.9860 C   0  0  0  0  0  0  0  0  0  0  0  0
   34.4280   26.6060   31.0280 H   0  0  0  0  0  0  0  0  0  0  0  0
   34.1700   24.0300   30.7970 H   0  0  0  0  0  0  0  0  0  0  0  0
   34.7190   21.7520   30.6280 H   0  0  0  0  0  0  0  0  0  0  0  0
   39.5940   19.8510   31.8630 H   0  0  0  0  0  0  0  0  0  0  0  0
   36.4920   17.1430   30.7710 H   0  0  0  0  0  0  0  0  0  0  0  0
   37.1130   27.7660   33.1580 C   0  0  0  0  0  0  0  0  0  0  0  0
   37.1850   28.8420   33.4520 H   0  0  0  0  0  0  0  0  0  0  0  0
   36.1900   27.3890   33.6180 H   0  0  0  0  0  0  0  0  0  0  0  0
   40.6070   26.8180   33.9650 C   0  0  0  0  0  0  0  0  0  0  0  0
   40.4250   25.8170   34.9330 C   0  0  0  0  0  0  0  0  0  0  0  0
   39.1030   25.4890   35.2880 C   0  0  0  0  0  0  0  0  0  0  0  0
   38.0870   26.1410   34.6910 N   0  0  0  0  0  0  0  0  0  0  0  0
   38.3100   27.1060   33.7560 C   0  0  0  0  0  0  0  0  0  0  0  0
   39.5430   27.4160   33.4220 N   0  0  0  0  0  0  0  0  0  0  0  0
   41.6300   27.0530   33.7080 H   0  0  0  0  0  0  0  0  0  0  0  0
   41.2780   25.3380   35.3700 H   0  0  0  0  0  0  0  0  0  0  0  0
   38.8630   24.4970   36.2500 N   0  0  0  0  0  0  0  0  0  0  0  0
   37.9220   24.5690   37.3510 C   0  0  0  0  0  2  0  0  0  0  0  0
   38.5360   23.7230   38.4490 C   0  0  0  0  0  2  0  0  0  0  0  0
   39.5290   22.8210   37.7830 C   0  0  0  0  0  2  0  0  0  0  0  0
   39.5090   23.2150   36.3250 C   0  0  0  0  0  3  0  0  0  0  0  0
   38.8900   22.4440   35.7930 H   0  0  0  0  0  0  0  0  0  0  0  0
  1 23  1  0  0  0  0
  2  1  1  0  0  0  0
  3  1  1  0  0  0  0
  4  8  2  0  0  0  0
  4  1  1  0  0  0  0
  5  4  1  0  0  0  0
  6  5  2  0  0  0  0
  6  7  1  0  0  0  0
  7  8  1  0  0  0  0
  9 17  1  0  0  0  0
  9 10  1  0  0  0  0
 10  7  1  0  0  0  0
 10 11  2  0  0  0  0
 12 11  1  0  0  0  0
 12 13  1  0  0  0  0
 13 21  1  0  0  0  0
 14 13  2  0  0  0  0
 15 14  1  0  0  0  0
 16 15  2  0  0  0  0
 16 17  1  0  0  0  0
 17 12  2  0  0  0  0
 18  5  1  0  0  0  0
 19  6  1  0  0  0  0
 20  9  1  0  0  0  0
 22 15  1  0  0  0  0
 23 24  1  0  0  0  0
 23 25  1  0  0  0  0
 23 30  1  0  0  0  0
 26 27  1  0  0  0  0
 27 28  2  0  0  0  0
 27 33  1  0  0  0  0
 28 34  1  0  0  0  0
 29 28  1  0  0  0  0
 30 29  2  0  0  0  0
 31 30  1  0  0  0  0
 31 26  2  0  0  0  0
 32 26  1  0  0  0  0
 34 38  1  0  0  0  0
 34 35  1  0  0  0  0
 35 36  1  0  0  0  0
 37 36  1  0  0  0  0
 38 37  1  0  0  0  0
 39 38  1  0  0  0  0
M  END
>  <minimizedAffinity>
-6.2126503

$$$$

 OpenBabel03272502033D

 39 43  0  0  0  0  0  0  0  0999 V2000
   35.5810   29.1540   31.9310 C   0  0  0  0  0  0  0  0  0  0  0  0
   35.7020   29.2190   30.8240 H   0  0  0  0  0  0  0  0  0  0  0  0
   34.5980   28.8020   32.2430 H   0  0  0  0  0  0  0  0  0  0  0  0
   36.6100   28.1460   32.3770 C   0  0  0  0  0  0  0  0  0  0  0  0
   37.7160   27.7280   31.6650 C   0  0  0  0  0  0  0  0  0  0  0  0
   38.4090   26.7920   32.4250 C   0  0  0  0  0  0  0  0  0  0  0  0
   37.6970   26.6780   33.5720 N   0  0  0  0  0  0  0  0  0  0  0  0
   36.6480   27.4770   33.5290 N   0  0  0  0  0  0  0  0  0  0  0  0
   39.2820   25.0290   34.5920 N   0  0  0  0  0  0  0  0  0  0  0  0
   38.1680   25.7770   34.5660 C   0  0  0  0  0  0  0  0  0  0  0  0
   37.5080   25.5170   35.7300 N   0  0  0  0  0  0  0  0  0  0  0  0
   38.1980   24.6300   36.4580 C   0  0  0  0  0  0  0  0  0  0  0  0
   37.9320   24.0680   37.6940 C   0  0  0  0  0  0  0  0  0  0  0  0
   38.8030   23.1900   38.2060 N   0  0  0  0  0  0  0  0  0  0  0  0
   39.9280   22.8700   37.5030 C   0  0  0  0  0  0  0  0  0  0  0  0
   40.1790   23.4240   36.2980 N   0  0  0  0  0  0  0  0  0  0  0  0
   39.3260   24.3110   35.7470 C   0  0  0  0  0  0  0  0  0  0  0  0
   37.9680   28.0960   30.6690 H   0  0  0  0  0  0  0  0  0  0  0  0
   39.3020   26.3430   32.0480 H   0  0  0  0  0  0  0  0  0  0  0  0
   40.0040   25.0000   33.8430 H   0  0  0  0  0  0  0  0  0  0  0  0
   37.0350   24.3120   38.2730 H   0  0  0  0  0  0  0  0  0  0  0  0
   40.6920   22.1710   37.8340 H   0  0  0  0  0  0  0  0  0  0  0  0
   35.9930   30.4590   32.5490 C   0  0  0  0  0  0  0  0  0  0  0  0
   37.0680   30.4780   32.8560 H   0  0  0  0  0  0  0  0  0  0  0  0
   35.8680   31.2840   31.8380 H   0  0  0  0  0  0  0  0  0  0  0  0
   34.8540   31.8410   35.7980 C   0  0  0  0  0  0  0  0  0  0  0  0
   33.7020   31.0810   36.0540 C   0  0  0  0  0  0  0  0  0  0  0  0
   33.3400   30.1080   35.1040 C   0  0  0  0  0  0  0  0  0  0  0  0
   34.1070   29.9530   34.0070 N   0  0  0  0  0  0  0  0  0  0  0  0
   35.2170   30.7130   33.7980 C   0  0  0  0  0  0  0  0  0  0  0  0
   35.5580   31.6230   34.6830 N   0  0  0  0  0  0  0  0  0  0  0  0
   35.1130   32.5820   36.5410 H   0  0  0  0  0  0  0  0  0  0  0  0
   33.1370   31.2560   36.9470 H   0  0  0  0  0  0  0  0  0  0  0  0
   32.1980   29.3200   35.3080 N   0  0  0  0  0  0  0  0  0  0  0  0
   31.1800   29.0010   34.3270 C   0  0  0  0  0  2  0  0  0  0  0  0
   29.9000   28.8450   35.1260 C   0  0  0  0  0  2  0  0  0  0  0  0
   30.3140   28.5940   36.5430 C   0  0  0  0  0  2  0  0  0  0  0  0
   31.8220   28.6770   36.5380 C   0  0  0  0  0  3  0  0  0  0  0  0
   32.2010   27.6200   36.5480 H   0  0  0  0  0  0  0  0  0  0  0  0
  1  3  1  0  0  0  0
  1  4  1  0  0  0  0
  1 23  1  0  0  0  0
  2  1  1  0  0  0  0
  4  8  2  0  0  0  0
  5  4  1  0  0  0  0
  5  6  2  0  0  0  0
  6  7  1  0  0  0  0
  7 10  1  0  0  0  0
  8  7  1  0  0  0  0
  9 17  1  0  0  0  0
 10  9  1  0  0  0  0
 10 11  2  0  0  0  0
 11 12  1  0  0  0  0
 12 13  1  0  0  0  0
 13 14  2  0  0  0  0
 13 21  1  0  0  0  0
 15 22  1  0  0  0  0
 15 14  1  0  0  0  0
 16 15  2  0  0  0  0
 17 16  1  0  0  0  0
 17 12  2  0  0  0  0
 18  5  1  0  0  0  0
 19  6  1  0  0  0  0
 20  9  1  0  0  0  0
 23 24  1  0  0  0  0
 23 30  1  0  0  0  0
 25 23  1  0  0  0  0
 26 27  1  0  0  0  0
 26 32  1  0  0  0  0
 27 33  1  0  0  0  0
 28 34  1  0  0  0  0
 28 27  2  0  0  0  0
 29 28  1  0  0  0  0
 30 29  2  0  0  0  0
 30 31  1  0  0  0  0
 31 26  2  0  0  0  0
 34 38  1  0  0  0  0
 35 36  1  0  0  0  0
 35 34  1  0  0  0  0
 36 37  1  0  0  0  0
 38 37  1  0  0  0  0
 38 39  1  0  0  0  0
M  END
>  <minimizedAffinity>
-6.15233469

$$$$

 OpenBabel03272502033D

 39 43  0  0  0  0  0  0  0  0999 V2000
   37.3450   27.9280   31.3620 C   0  0  0  0  0  0  0  0  0  0  0  0
   37.4020   28.1500   32.4540 H   0  0  0  0  0  0  0  0  0  0  0  0
   38.3180   27.8770   30.8750 H   0  0  0  0  0  0  0  0  0  0  0  0
   36.6970   26.5700   31.2730 C   0  0  0  0  0  0  0  0  0  0  0  0
   35.3620   26.3070   31.0450 C   0  0  0  0  0  0  0  0  0  0  0  0
   35.1720   24.9290   31.0370 C   0  0  0  0  0  0  0  0  0  0  0  0
   36.4020   24.4070   31.2600 N   0  0  0  0  0  0  0  0  0  0  0  0
   37.2830   25.3790   31.3960 N   0  0  0  0  0  0  0  0  0  0  0  0
   35.6110   22.0360   31.0980 N   0  0  0  0  0  0  0  0  0  0  0  0
   36.5300   22.9910   31.3070 C   0  0  0  0  0  0  0  0  0  0  0  0
   37.6940   22.3430   31.5950 N   0  0  0  0  0  0  0  0  0  0  0  0
   37.4990   21.0180   31.5630 C   0  0  0  0  0  0  0  0  0  0  0  0
   38.3710   19.9680   31.7850 C   0  0  0  0  0  0  0  0  0  0  0  0
   37.9100   18.7140   31.6900 N   0  0  0  0  0  0  0  0  0  0  0  0
   36.5990   18.5010   31.3770 C   0  0  0  0  0  0  0  0  0  0  0  0
   35.7560   19.5330   31.1620 N   0  0  0  0  0  0  0  0  0  0  0  0
   36.1800   20.8100   31.2500 C   0  0  0  0  0  0  0  0  0  0  0  0
   34.6090   27.0850   30.9010 H   0  0  0  0  0  0  0  0  0  0  0  0
   34.1990   24.5180   30.8750 H   0  0  0  0  0  0  0  0  0  0  0  0
   34.6130   22.2050   30.8570 H   0  0  0  0  0  0  0  0  0  0  0  0
   39.4260   20.1190   32.0370 H   0  0  0  0  0  0  0  0  0  0  0  0
   36.1330   17.5240   31.2770 H   0  0  0  0  0  0  0  0  0  0  0  0
   36.3820   28.8820   30.7150 C   0  0  0  0  0  0  0  0  0  0  0  0
   36.6790   29.1680   29.6760 H   0  0  0  0  0  0  0  0  0  0  0  0
   35.3850   28.4320   30.6300 H   0  0  0  0  0  0  0  0  0  0  0  0
   36.6770   32.4500   31.6880 C   0  0  0  0  0  0  0  0  0  0  0  0
   36.1560   32.4430   32.9920 C   0  0  0  0  0  0  0  0  0  0  0  0
   35.7140   31.2120   33.5100 C   0  0  0  0  0  0  0  0  0  0  0  0
   35.8100   30.1100   32.7410 N   0  0  0  0  0  0  0  0  0  0  0  0
   36.3230   30.1610   31.4800 C   0  0  0  0  0  0  0  0  0  0  0  0
   36.7360   31.3100   30.9920 N   0  0  0  0  0  0  0  0  0  0  0  0
   37.0110   33.4070   31.3110 H   0  0  0  0  0  0  0  0  0  0  0  0
   36.1080   33.3580   33.5490 H   0  0  0  0  0  0  0  0  0  0  0  0
   35.1840   31.1480   34.8070 N   0  0  0  0  0  0  0  0  0  0  0  0
   33.9860   30.4430   35.2180 C   0  0  0  0  0  2  0  0  0  0  0  0
   33.4370   31.2470   36.3810 C   0  0  0  0  0  2  0  0  0  0  0  0
   34.5740   32.0730   36.8980 C   0  0  0  0  0  2  0  0  0  0  0  0
   35.7340   31.7730   35.9780 C   0  0  0  0  0  3  0  0  0  0  0  0
   36.3970   31.0490   36.5230 H   0  0  0  0  0  0  0  0  0  0  0  0
  1  2  1  0  0  0  0
  3  1  1  0  0  0  0
  4  1  1  0  0  0  0
  4  8  2  0  0  0  0
  5  4  1  0  0  0  0
  6  5  2  0  0  0  0
  6  7  1  0  0  0  0
  7 10  1  0  0  0  0
  7  8  1  0  0  0  0
  9 17  1  0  0  0  0
  9 10  1  0  0  0  0
 10 11  2  0  0  0  0
 12 11  1  0  0  0  0
 12 13  1  0  0  0  0
 13 21  1  0  0  0  0
 14 13  2  0  0  0  0
 15 14  1  0  0  0  0
 16 17  1  0  0  0  0
 16 15  2  0  0  0  0
 17 12  2  0  0  0  0
 18  5  1  0  0  0  0
 19  6  1  0  0  0  0
 20  9  1  0  0  0  0
 22 15  1  0  0  0  0
 23  1  1  0  0  0  0
 23 30  1  0  0  0  0
 24 23  1  0  0  0  0
 25 23  1  0  0  0  0
 26 27  1  0  0  0  0
 27 28  2  0  0  0  0
 27 33  1  0  0  0  0
 28 34  1  0  0  0  0
 29 28  1  0  0  0  0
 30 29  2  0  0  0  0
 31 30  1  0  0  0  0
 31 26  2  0  0  0  0
 32 26  1  0  0  0  0
 34 35  1  0  0  0  0
 34 38  1  0  0  0  0
 35 36  1  0  0  0  0
 36 37  1  0  0  0  0
 38 39  1  0  0  0  0
 38 37  1  0  0  0  0
M  END
>  <minimizedAffinity>
-6.00609493

$$$$

 OpenBabel03272502033D

 39 43  0  0  0  0  0  0  0  0999 V2000
   35.9300   29.3330   32.0880 C   0  0  0  0  0  0  0  0  0  0  0  0
   36.3410   30.2400   32.5920 H   0  0  0  0  0  0  0  0  0  0  0  0
   35.9420   29.3950   31.0000 H   0  0  0  0  0  0  0  0  0  0  0  0
   36.8410   28.2080   32.5080 C   0  0  0  0  0  0  0  0  0  0  0  0
   37.8130   27.6020   31.7370 C   0  0  0  0  0  0  0  0  0  0  0  0
   38.4310   26.6110   32.4930 C   0  0  0  0  0  0  0  0  0  0  0  0
   37.8100   26.6550   33.6970 N   0  0  0  0  0  0  0  0  0  0  0  0
   36.8840   27.5940   33.6900 N   0  0  0  0  0  0  0  0  0  0  0  0
   39.2300   24.8410   34.6830 N   0  0  0  0  0  0  0  0  0  0  0  0
   38.2340   25.7400   34.7020 C   0  0  0  0  0  0  0  0  0  0  0  0
   37.6460   25.6320   35.9260 N   0  0  0  0  0  0  0  0  0  0  0  0
   38.2650   24.6890   36.6480 C   0  0  0  0  0  0  0  0  0  0  0  0
   38.0290   24.2290   37.9310 C   0  0  0  0  0  0  0  0  0  0  0  0
   38.8090   23.2580   38.4230 N   0  0  0  0  0  0  0  0  0  0  0  0
   39.8130   22.7470   37.6530 C   0  0  0  0  0  0  0  0  0  0  0  0
   40.0350   23.2030   36.4020 N   0  0  0  0  0  0  0  0  0  0  0  0
   39.2720   24.1780   35.8700 C   0  0  0  0  0  0  0  0  0  0  0  0
   38.0280   27.8840   30.7040 H   0  0  0  0  0  0  0  0  0  0  0  0
   39.2160   26.0210   32.0730 H   0  0  0  0  0  0  0  0  0  0  0  0
   39.8730   24.6750   33.8820 H   0  0  0  0  0  0  0  0  0  0  0  0
   37.2280   24.6260   38.5640 H   0  0  0  0  0  0  0  0  0  0  0  0
   40.4970   21.9610   37.9630 H   0  0  0  0  0  0  0  0  0  0  0  0
   34.5860   29.0100   32.6730 C   0  0  0  0  0  0  0  0  0  0  0  0
   33.7490   29.1300   31.9410 H   0  0  0  0  0  0  0  0  0  0  0  0
   34.5460   27.9650   33.0060 H   0  0  0  0  0  0  0  0  0  0  0  0
   33.1140   30.4970   35.7350 C   0  0  0  0  0  0  0  0  0  0  0  0
   33.7820   31.7290   35.8150 C   0  0  0  0  0  0  0  0  0  0  0  0
   34.7260   32.0230   34.8130 C   0  0  0  0  0  0  0  0  0  0  0  0
   34.9420   31.1210   33.8370 N   0  0  0  0  0  0  0  0  0  0  0  0
   34.2700   29.9370   33.7980 C   0  0  0  0  0  0  0  0  0  0  0  0
   33.3880   29.6580   34.7320 N   0  0  0  0  0  0  0  0  0  0  0  0
   32.3930   30.2930   36.5150 H   0  0  0  0  0  0  0  0  0  0  0  0
   33.5630   32.4020   36.6200 H   0  0  0  0  0  0  0  0  0  0  0  0
   35.4240   33.2400   34.8440 N   0  0  0  0  0  0  0  0  0  0  0  0
   36.8450   33.4280   34.6300 C   0  0  0  0  0  2  0  0  0  0  0  0
   37.2140   34.6320   35.4750 C   0  0  0  0  0  2  0  0  0  0  0  0
   35.9370   35.3700   35.7400 C   0  0  0  0  0  2  0  0  0  0  0  0
   34.8550   34.5360   35.0940 C   0  0  0  0  0  3  0  0  0  0  0  0
   34.6010   35.0360   34.1220 H   0  0  0  0  0  0  0  0  0  0  0  0
  1  4  1  0  0  0  0
  1  2  1  0  0  0  0
  1 23  1  0  0  0  0
  3  1  1  0  0  0  0
  4  8  2  0  0  0  0
  5  6  2  0  0  0  0
  5  4  1  0  0  0  0
  6  7  1  0  0  0  0
  7 10  1  0  0  0  0
  8  7  1  0  0  0  0
  9 10  1  0  0  0  0
  9 17  1  0  0  0  0
 10 11  2  0  0  0  0
 11 12  1  0  0  0  0
 12 13  1  0  0  0  0
 13 14  2  0  0  0  0
 13 21  1  0  0  0  0
 15 22  1  0  0  0  0
 15 14  1  0  0  0  0
 16 15  2  0  0  0  0
 17 16  1  0  0  0  0
 17 12  2  0  0  0  0
 18  5  1  0  0  0  0
 19  6  1  0  0  0  0
 20  9  1  0  0  0  0
 23 25  1  0  0  0  0
 23 30  1  0  0  0  0
 24 23  1  0  0  0  0
 26 27  1  0  0  0  0
 26 32  1  0  0  0  0
 27 33  1  0  0  0  0
 28 34  1  0  0  0  0
 28 27  2  0  0  0  0
 29 28  1  0  0  0  0
 30 29  2  0  0  0  0
 30 31  1  0  0  0  0
 31 26  2  0  0  0  0
 34 38  1  0  0  0  0
 35 34  1  0  0  0  0
 35 36  1  0  0  0  0
 36 37  1  0  0  0  0
 38 37  1  0  0  0  0
 39 38  1  0  0  0  0
M  END
>  <minimizedAffinity>
-5.97512245

$$$$

 OpenBabel03272502033D

 39 43  0  0  0  0  0  0  0  0999 V2000
   36.8540   25.7830   32.1850 C   0  0  0  0  0  0  0  0  0  0  0  0
   36.8390   25.4550   33.2510 H   0  0  0  0  0  0  0  0  0  0  0  0
   36.1350   25.2580   31.5570 H   0  0  0  0  0  0  0  0  0  0  0  0
   36.4770   27.2420   32.2210 C   0  0  0  0  0  0  0  0  0  0  0  0
   36.3180   28.0790   31.1360 C   0  0  0  0  0  0  0  0  0  0  0  0
   35.9680   29.3450   31.5940 C   0  0  0  0  0  0  0  0  0  0  0  0
   35.9280   29.2280   32.9430 N   0  0  0  0  0  0  0  0  0  0  0  0
   36.2270   27.9920   33.2950 N   0  0  0  0  0  0  0  0  0  0  0  0
   35.2300   31.6070   33.2990 N   0  0  0  0  0  0  0  0  0  0  0  0
   35.5910   30.3800   33.7060 C   0  0  0  0  0  0  0  0  0  0  0  0
   35.5860   30.4140   35.0690 N   0  0  0  0  0  0  0  0  0  0  0  0
   35.2280   31.6330   35.4930 C   0  0  0  0  0  0  0  0  0  0  0  0
   35.0830   32.1410   36.7720 C   0  0  0  0  0  0  0  0  0  0  0  0
   34.7090   33.4180   36.9210 N   0  0  0  0  0  0  0  0  0  0  0  0
   34.4790   34.1850   35.8160 C   0  0  0  0  0  0  0  0  0  0  0  0
   34.6230   33.6800   34.5730 N   0  0  0  0  0  0  0  0  0  0  0  0
   35.0000   32.4000   34.3800 C   0  0  0  0  0  0  0  0  0  0  0  0
   36.4550   27.7600   30.1010 H   0  0  0  0  0  0  0  0  0  0  0  0
   35.8000   30.1430   30.9040 H   0  0  0  0  0  0  0  0  0  0  0  0
   35.1380   31.9080   32.3070 H   0  0  0  0  0  0  0  0  0  0  0  0
   35.2630   31.5410   37.6700 H   0  0  0  0  0  0  0  0  0  0  0  0
   34.1730   35.2280   35.8350 H   0  0  0  0  0  0  0  0  0  0  0  0
   38.2660   25.7390   31.6760 C   0  0  0  0  0  0  0  0  0  0  0  0
   38.4400   24.9170   30.9380 H   0  0  0  0  0  0  0  0  0  0  0  0
   38.5220   26.6700   31.1560 H   0  0  0  0  0  0  0  0  0  0  0  0
   41.3420   25.5130   33.7360 C   0  0  0  0  0  0  0  0  0  0  0  0
   40.8580   24.9520   34.9280 C   0  0  0  0  0  0  0  0  0  0  0  0
   39.4830   24.6630   35.0000 C   0  0  0  0  0  0  0  0  0  0  0  0
   38.7040   24.9340   33.9340 N   0  0  0  0  0  0  0  0  0  0  0  0
   39.2160   25.4790   32.7950 C   0  0  0  0  0  0  0  0  0  0  0  0
   40.5010   25.7510   32.7250 N   0  0  0  0  0  0  0  0  0  0  0  0
   42.4020   25.7270   33.7040 H   0  0  0  0  0  0  0  0  0  0  0  0
   41.5330   24.7630   35.7390 H   0  0  0  0  0  0  0  0  0  0  0  0
   38.9440   24.1030   36.1670 N   0  0  0  0  0  0  0  0  0  0  0  0
   37.7230   24.5050   36.8370 C   0  0  0  0  0  2  0  0  0  0  0  0
   37.9660   24.2130   38.3050 C   0  0  0  0  0  2  0  0  0  0  0  0
   39.0870   23.2220   38.3590 C   0  0  0  0  0  2  0  0  0  0  0  0
   39.5070   23.0170   36.9230 C   0  0  0  0  0  3  0  0  0  0  0  0
   39.0540   22.0450   36.5910 H   0  0  0  0  0  0  0  0  0  0  0  0
  1  4  1  0  0  0  0
  1  2  1  0  0  0  0
  3  1  1  0  0  0  0
  4  8  2  0  0  0  0
  5  6  2  0  0  0  0
  5  4  1  0  0  0  0
  6  7  1  0  0  0  0
  7  8  1  0  0  0  0
  7 10  1  0  0  0  0
  9 10  1  0  0  0  0
  9 17  1  0  0  0  0
 10 11  2  0  0  0  0
 11 12  1  0  0  0  0
 12 13  1  0  0  0  0
 13 14  2  0  0  0  0
 13 21  1  0  0  0  0
 15 22  1  0  0  0  0
 15 14  1  0  0  0  0
 16 15  2  0  0  0  0
 17 16  1  0  0  0  0
 17 12  2  0  0  0  0
 18  5  1  0  0  0  0
 19  6  1  0  0  0  0
 20  9  1  0  0  0  0
 23  1  1  0  0  0  0
 23 30  1  0  0  0  0
 24 23  1  0  0  0  0
 25 23  1  0  0  0  0
 26 27  1  0  0  0  0
 27 28  2  0  0  0  0
 27 33  1  0  0  0  0
 28 34  1  0  0  0  0
 29 28  1  0  0  0  0
 30 29  2  0  0  0  0
 31 30  1  0  0  0  0
 31 26  2  0  0  0  0
 32 26  1  0  0  0  0
 34 35  1  0  0  0  0
 34 38  1  0  0  0  0
 35 36  1  0  0  0  0
 36 37  1  0  0  0  0
 38 37  1  0  0  0  0
 39 38  1  0  0  0  0
M  END
>  <minimizedAffinity>
-5.90750027

$$$$
