
 OpenBabel03272508433D

 24 26  0  0  0  0  0  0  0  0999 V2000
   37.9280   31.5910   49.0660 C   0  0  0  0  0  0  0  0  0  0  0  0
   38.2500   32.8870   49.4010 C   0  0  0  0  0  0  0  0  0  0  0  0
   39.0360   33.2910   48.3290 C   0  0  0  0  0  0  0  0  0  0  0  0
   39.1520   32.2640   47.4270 C   0  0  0  0  0  0  0  0  0  0  0  0
   38.4780   31.2510   47.8920 O   0  0  0  0  0  0  0  0  0  0  0  0
   37.9870   33.4710   50.2510 H   0  0  0  0  0  0  0  0  0  0  0  0
   39.4860   34.2930   48.2420 H   0  0  0  0  0  0  0  0  0  0  0  0
   39.8940   32.3510   46.2120 N   0  0  0  0  0  0  0  0  0  0  0  0
   39.9810   33.5250   45.3610 C   0  0  0  0  0  0  0  0  0  0  0  0
   39.8220   32.8810   44.0010 C   0  0  0  0  0  0  0  0  0  0  0  0
   40.1190   31.4050   44.1600 C   0  0  0  0  0  0  0  0  0  0  0  0
   40.7060   31.3370   45.5550 C   0  0  0  0  0  0  0  0  0  0  0  0
   41.7600   31.6720   45.4700 H   0  0  0  0  0  0  0  0  0  0  0  0
   37.0950   30.6960   49.8830 C   0  0  0  0  0  0  0  0  0  0  0  0
   37.3970   30.5650   51.0940 O   0  0  0  0  0  0  0  0  0  0  0  0
   34.5950   28.1360   49.2780 C   0  0  0  0  0  0  0  0  0  0  0  0
   33.8480   28.6370   48.2190 C   0  0  0  0  0  0  0  0  0  0  0  0
   34.2070   29.8780   47.6990 C   0  0  0  0  0  0  0  0  0  0  0  0
   35.2570   30.5140   48.2580 N   0  0  0  0  0  0  0  0  0  0  0  0
   35.9670   29.9960   49.2950 C   0  0  0  0  0  0  0  0  0  0  0  0
   35.6230   28.8050   49.7940 N   0  0  0  0  0  0  0  0  0  0  0  0
   34.2480   27.1710   49.6200 H   0  0  0  0  0  0  0  0  0  0  0  0
   33.0090   28.1060   47.7870 H   0  0  0  0  0  0  0  0  0  0  0  0
   33.6750   30.3430   46.8690 H   0  0  0  0  0  0  0  0  0  0  0  0
  1  2  2  0  0  0  0
  1 14  1  0  0  0  0
  2  6  1  0  0  0  0
  3  2  1  0  0  0  0
  4  5  1  0  0  0  0
  4  3  2  0  0  0  0
  5  1  1  0  0  0  0
  7  3  1  0  0  0  0
  8  4  1  0  0  0  0
  9  8  1  0  0  0  0
 10 11  1  0  0  0  0
 10  9  1  0  0  0  0
 11 12  1  0  0  0  0
 12  8  1  0  0  0  0
 13 12  1  0  0  0  0
 14 15  2  0  0  0  0
 16 22  1  0  0  0  0
 16 21  1  0  0  0  0
 17 16  2  0  0  0  0
 18 17  1  0  0  0  0
 18 19  2  0  0  0  0
 19 20  1  0  0  0  0
 20 21  2  0  0  0  0
 20 14  1  0  0  0  0
 23 17  1  0  0  0  0
 24 18  1  0  0  0  0
M  END
>  <minimizedAffinity>
-5.86016369

>  <minimizedRMSD>
3.34410334

$$$$
