
 OpenBabel03272507493D

 43 47  0  0  0  0  0  0  0  0999 V2000
   37.1710   24.6120   31.6060 N   0  0  0  0  0  0  0  0  0  0  0  0
   38.2070   25.4420   31.0910 C   0  0  0  0  0  0  0  0  0  0  0  0
   37.9880   26.9050   31.1650 C   0  0  0  0  0  0  0  0  0  0  0  0
   36.6280   27.3790   30.9090 C   0  0  0  0  0  0  0  0  0  0  0  0
   35.5590   26.4000   31.4280 C   0  0  0  0  0  0  0  0  0  0  0  0
   35.9560   24.9980   30.9410 C   0  0  0  0  0  0  0  0  0  0  0  0
   38.3720   25.1480   30.0200 H   0  0  0  0  0  0  0  0  0  0  0  0
   39.1490   25.1730   31.6170 H   0  0  0  0  0  0  0  0  0  0  0  0
   38.1940   27.1110   32.2680 H   0  0  0  0  0  0  0  0  0  0  0  0
   38.7480   27.4410   30.6050 H   0  0  0  0  0  0  0  0  0  0  0  0
   36.4080   27.4100   29.8060 H   0  0  0  0  0  0  0  0  0  0  0  0
   34.6100   26.6410   30.9220 H   0  0  0  0  0  0  0  0  0  0  0  0
   35.5410   26.4510   32.5210 H   0  0  0  0  0  0  0  0  0  0  0  0
   36.0120   25.0300   29.8500 H   0  0  0  0  0  0  0  0  0  0  0  0
   35.1160   24.3430   31.3000 H   0  0  0  0  0  0  0  0  0  0  0  0
   36.4020   29.8160   30.7490 C   0  0  0  0  0  0  0  0  0  0  0  0
   36.2900   28.6790   31.5370 C   0  0  0  0  0  0  0  0  0  0  0  0
   35.9180   28.6980   32.8550 C   0  0  0  0  0  0  0  0  0  0  0  0
   35.6360   29.9300   33.4410 C   0  0  0  0  0  0  0  0  0  0  0  0
   35.7490   31.0620   32.6560 C   0  0  0  0  0  0  0  0  0  0  0  0
   36.1260   31.0490   31.3150 C   0  0  0  0  0  0  0  0  0  0  0  0
   35.4310   32.2030   33.4070 O   0  0  0  0  0  0  0  0  0  0  0  0
   34.7660   31.6890   34.5630 C   0  0  0  0  0  0  0  0  0  0  0  0
   35.2390   30.3710   34.6990 O   0  0  0  0  0  0  0  0  0  0  0  0
   36.6720   29.9170   29.7090 H   0  0  0  0  0  0  0  0  0  0  0  0
   35.8410   27.8090   33.4330 H   0  0  0  0  0  0  0  0  0  0  0  0
   36.1940   31.9820   30.7560 H   0  0  0  0  0  0  0  0  0  0  0  0
   34.9670   32.2650   35.4730 H   0  0  0  0  0  0  0  0  0  0  0  0
   33.6590   31.7400   34.3930 H   0  0  0  0  0  0  0  0  0  0  0  0
   37.2810   23.5830   32.5930 C   0  0  0  0  0  0  0  0  0  0  0  0
   36.6680   22.3340   32.5450 C   0  0  0  0  0  0  0  0  0  0  0  0
   36.8930   21.4650   33.6000 C   0  0  0  0  0  0  0  0  0  0  0  0
   37.6960   21.8700   34.6220 N   0  0  0  0  0  0  0  0  0  0  0  0
   38.2760   23.0790   34.6470 C   0  0  0  0  0  0  0  0  0  0  0  0
   38.0620   23.9230   33.6330 N   0  0  0  0  0  0  0  0  0  0  0  0
   36.0680   22.1570   31.6820 H   0  0  0  0  0  0  0  0  0  0  0  0
   36.4170   20.5080   33.5510 H   0  0  0  0  0  0  0  0  0  0  0  0
   39.0980   23.4010   35.7670 N   0  0  0  0  0  0  0  0  0  0  0  0
   38.5700   23.7350   37.0790 C   0  0  0  0  0  2  0  0  0  0  0  0
   39.5120   22.9450   37.9650 C   0  0  0  0  0  2  0  0  0  0  0  0
   40.7830   22.7480   37.1640 C   0  0  0  0  0  2  0  0  0  0  0  0
   40.5470   23.4650   35.8510 C   0  0  0  0  0  3  0  0  0  0  0  0
   40.9950   22.9400   34.9800 H   0  0  0  0  0  0  0  0  0  0  0  0
  1 30  1  0  0  0  0
  2  3  1  0  0  0  0
  2  1  1  0  0  0  0
  2  8  1  0  0  0  0
  3  9  1  0  0  0  0
  4  3  1  0  0  0  0
  4  5  1  0  0  0  0
  4 17  1  0  0  0  0
  5 13  1  0  0  0  0
  6 15  1  0  0  0  0
  6  5  1  0  0  0  0
  6  1  1  0  0  0  0
  7  2  1  0  0  0  0
 10  3  1  0  0  0  0
 11  4  1  0  0  0  0
 12  5  1  0  0  0  0
 14  6  1  0  0  0  0
 16 21  2  0  0  0  0
 16 17  1  0  0  0  0
 17 18  2  0  0  0  0
 18 26  1  0  0  0  0
 18 19  1  0  0  0  0
 19 24  1  0  0  0  0
 20 22  1  0  0  0  0
 20 19  2  0  0  0  0
 21 20  1  0  0  0  0
 22 23  1  0  0  0  0
 23 24  1  0  0  0  0
 23 28  1  0  0  0  0
 25 16  1  0  0  0  0
 27 21  1  0  0  0  0
 29 23  1  0  0  0  0
 30 35  1  0  0  0  0
 31 30  2  0  0  0  0
 31 32  1  0  0  0  0
 32 33  2  0  0  0  0
 33 34  1  0  0  0  0
 34 38  1  0  0  0  0
 35 34  2  0  0  0  0
 36 31  1  0  0  0  0
 37 32  1  0  0  0  0
 38 42  1  0  0  0  0
 38 39  1  0  0  0  0
 39 40  1  0  0  0  0
 41 40  1  0  0  0  0
 42 41  1  0  0  0  0
 43 42  1  0  0  0  0
M  END
>  <minimizedAffinity>
-6.1814189

$$$$

 OpenBabel03272507493D

 43 47  0  0  0  0  0  0  0  0999 V2000
   36.8780   27.5570   31.5780 N   0  0  0  0  0  0  0  0  0  0  0  0
   36.5210   26.2250   31.2200 C   0  0  0  0  0  0  0  0  0  0  0  0
   36.8140   25.1660   32.2130 C   0  0  0  0  0  0  0  0  0  0  0  0
   38.0670   25.2940   32.9580 C   0  0  0  0  0  0  0  0  0  0  0  0
   38.4290   26.7620   33.2490 C   0  0  0  0  0  0  0  0  0  0  0  0
   38.2710   27.5360   31.9310 C   0  0  0  0  0  0  0  0  0  0  0  0
   37.0460   25.9840   30.2580 H   0  0  0  0  0  0  0  0  0  0  0  0
   35.4370   26.2210   30.9710 H   0  0  0  0  0  0  0  0  0  0  0  0
   35.9760   25.3250   32.9710 H   0  0  0  0  0  0  0  0  0  0  0  0
   36.6610   24.1800   31.7870 H   0  0  0  0  0  0  0  0  0  0  0  0
   38.9440   24.9500   32.3440 H   0  0  0  0  0  0  0  0  0  0  0  0
   39.5020   26.8010   33.4980 H   0  0  0  0  0  0  0  0  0  0  0  0
   37.7480   27.1430   34.0180 H   0  0  0  0  0  0  0  0  0  0  0  0
   38.9310   27.0710   31.1940 H   0  0  0  0  0  0  0  0  0  0  0  0
   38.6000   28.5780   32.1930 H   0  0  0  0  0  0  0  0  0  0  0  0
   38.1000   23.2430   34.3020 C   0  0  0  0  0  0  0  0  0  0  0  0
   38.0760   24.6300   34.2840 C   0  0  0  0  0  0  0  0  0  0  0  0
   38.0320   25.4070   35.4110 C   0  0  0  0  0  0  0  0  0  0  0  0
   38.0080   24.7680   36.6490 C   0  0  0  0  0  0  0  0  0  0  0  0
   38.0300   23.3860   36.6660 C   0  0  0  0  0  0  0  0  0  0  0  0
   38.0760   22.5910   35.5230 C   0  0  0  0  0  0  0  0  0  0  0  0
   37.9990   22.9200   37.9880 O   0  0  0  0  0  0  0  0  0  0  0  0
   38.3310   24.0660   38.7730 C   0  0  0  0  0  0  0  0  0  0  0  0
   37.9660   25.1700   37.9800 O   0  0  0  0  0  0  0  0  0  0  0  0
   38.1470   22.5380   33.4850 H   0  0  0  0  0  0  0  0  0  0  0  0
   38.0160   26.4690   35.3660 H   0  0  0  0  0  0  0  0  0  0  0  0
   38.0920   21.5050   35.6120 H   0  0  0  0  0  0  0  0  0  0  0  0
   37.8130   24.0990   39.7390 H   0  0  0  0  0  0  0  0  0  0  0  0
   39.4280   24.0390   39.0040 H   0  0  0  0  0  0  0  0  0  0  0  0
   36.0390   28.7150   31.5960 C   0  0  0  0  0  0  0  0  0  0  0  0
   36.2370   29.8800   30.8600 C   0  0  0  0  0  0  0  0  0  0  0  0
   35.3130   30.9000   31.0090 C   0  0  0  0  0  0  0  0  0  0  0  0
   34.2650   30.7170   31.8570 N   0  0  0  0  0  0  0  0  0  0  0  0
   34.0930   29.5850   32.5560 C   0  0  0  0  0  0  0  0  0  0  0  0
   34.9830   28.5960   32.4180 N   0  0  0  0  0  0  0  0  0  0  0  0
   37.1010   29.8800   30.2370 H   0  0  0  0  0  0  0  0  0  0  0  0
   35.4760   31.7910   30.4370 H   0  0  0  0  0  0  0  0  0  0  0  0
   32.9610   29.4980   33.4180 N   0  0  0  0  0  0  0  0  0  0  0  0
   32.8690   30.1850   34.6950 C   0  0  0  0  0  2  0  0  0  0  0  0
   31.4460   30.7010   34.6290 C   0  0  0  0  0  2  0  0  0  0  0  0
   30.7090   29.7950   33.6660 C   0  0  0  0  0  2  0  0  0  0  0  0
   31.7240   28.7570   33.2320 C   0  0  0  0  0  3  0  0  0  0  0  0
   31.6200   28.4640   32.1650 H   0  0  0  0  0  0  0  0  0  0  0  0
  1 30  1  0  0  0  0
  1  6  1  0  0  0  0
  2  1  1  0  0  0  0
  2  3  1  0  0  0  0
  3  4  1  0  0  0  0
  3  9  1  0  0  0  0
  4  5  1  0  0  0  0
  4 17  1  0  0  0  0
  5 12  1  0  0  0  0
  5 13  1  0  0  0  0
  6 15  1  0  0  0  0
  6  5  1  0  0  0  0
  7  2  1  0  0  0  0
  8  2  1  0  0  0  0
 10  3  1  0  0  0  0
 11  4  1  0  0  0  0
 14  6  1  0  0  0  0
 16 21  1  0  0  0  0
 17 16  2  0  0  0  0
 17 18  1  0  0  0  0
 18 19  2  0  0  0  0
 19 20  1  0  0  0  0
 19 24  1  0  0  0  0
 20 22  1  0  0  0  0
 21 27  1  0  0  0  0
 21 20  2  0  0  0  0
 22 23  1  0  0  0  0
 23 29  1  0  0  0  0
 23 28  1  0  0  0  0
 24 23  1  0  0  0  0
 25 16  1  0  0  0  0
 26 18  1  0  0  0  0
 30 35  1  0  0  0  0
 31 32  1  0  0  0  0
 31 30  2  0  0  0  0
 32 33  2  0  0  0  0
 33 34  1  0  0  0  0
 34 38  1  0  0  0  0
 35 34  2  0  0  0  0
 36 31  1  0  0  0  0
 37 32  1  0  0  0  0
 38 39  1  0  0  0  0
 40 39  1  0  0  0  0
 41 40  1  0  0  0  0
 42 38  1  0  0  0  0
 42 41  1  0  0  0  0
 43 42  1  0  0  0  0
M  END
>  <minimizedAffinity>
-6.16642332

$$$$

 OpenBabel03272507493D

 43 47  0  0  0  0  0  0  0  0999 V2000
   36.7690   27.2280   32.6290 N   0  0  0  0  0  0  0  0  0  0  0  0
   37.3970   27.3630   33.9000 C   0  0  0  0  0  0  0  0  0  0  0  0
   36.8070   28.3500   34.8340 C   0  0  0  0  0  0  0  0  0  0  0  0
   36.3210   29.5990   34.2460 C   0  0  0  0  0  0  0  0  0  0  0  0
   35.7200   29.3920   32.8440 C   0  0  0  0  0  0  0  0  0  0  0  0
   36.7190   28.5410   32.0460 C   0  0  0  0  0  0  0  0  0  0  0  0
   38.4730   27.6240   33.7180 H   0  0  0  0  0  0  0  0  0  0  0  0
   37.4170   26.3580   34.3760 H   0  0  0  0  0  0  0  0  0  0  0  0
   35.8840   27.7920   35.2040 H   0  0  0  0  0  0  0  0  0  0  0  0
   37.4460   28.4970   35.6990 H   0  0  0  0  0  0  0  0  0  0  0  0
   37.1670   30.3100   34.0410 H   0  0  0  0  0  0  0  0  0  0  0  0
   35.6890   30.3740   32.3440 H   0  0  0  0  0  0  0  0  0  0  0  0
   34.7580   28.8800   32.9490 H   0  0  0  0  0  0  0  0  0  0  0  0
   37.6720   29.0780   32.0280 H   0  0  0  0  0  0  0  0  0  0  0  0
   36.2560   28.4720   31.0240 H   0  0  0  0  0  0  0  0  0  0  0  0
   35.6450   31.2730   35.9070 C   0  0  0  0  0  0  0  0  0  0  0  0
   35.2540   30.2800   35.0200 C   0  0  0  0  0  0  0  0  0  0  0  0
   33.9560   29.8800   34.8460 C   0  0  0  0  0  0  0  0  0  0  0  0
   32.9690   30.5060   35.6040 C   0  0  0  0  0  0  0  0  0  0  0  0
   33.3590   31.4940   36.4880 C   0  0  0  0  0  0  0  0  0  0  0  0
   34.6770   31.9050   36.6680 C   0  0  0  0  0  0  0  0  0  0  0  0
   32.2410   32.0070   37.1610 O   0  0  0  0  0  0  0  0  0  0  0  0
   31.1270   31.5560   36.3890 C   0  0  0  0  0  0  0  0  0  0  0  0
   31.5870   30.4030   35.7260 O   0  0  0  0  0  0  0  0  0  0  0  0
   36.6270   31.6730   36.1140 H   0  0  0  0  0  0  0  0  0  0  0  0
   33.6870   29.1160   34.1580 H   0  0  0  0  0  0  0  0  0  0  0  0
   34.9130   32.6930   37.3840 H   0  0  0  0  0  0  0  0  0  0  0  0
   30.2420   31.3250   36.9930 H   0  0  0  0  0  0  0  0  0  0  0  0
   30.8240   32.3730   35.6840 H   0  0  0  0  0  0  0  0  0  0  0  0
   36.2710   26.0340   32.0190 C   0  0  0  0  0  0  0  0  0  0  0  0
   35.2150   25.9550   31.1160 C   0  0  0  0  0  0  0  0  0  0  0  0
   34.8750   24.7040   30.6300 C   0  0  0  0  0  0  0  0  0  0  0  0
   35.5830   23.6220   31.0530 N   0  0  0  0  0  0  0  0  0  0  0  0
   36.5990   23.7220   31.9240 C   0  0  0  0  0  0  0  0  0  0  0  0
   36.9310   24.9260   32.3990 N   0  0  0  0  0  0  0  0  0  0  0  0
   34.7540   26.8860   30.8770 H   0  0  0  0  0  0  0  0  0  0  0  0
   34.0610   24.6570   29.9360 H   0  0  0  0  0  0  0  0  0  0  0  0
   37.2740   22.5240   32.3010 N   0  0  0  0  0  0  0  0  0  0  0  0
   36.7150   21.5410   33.2150 C   0  0  0  0  0  2  0  0  0  0  0  0
   37.0770   20.2580   32.4950 C   0  0  0  0  0  2  0  0  0  0  0  0
   38.2690   20.5830   31.6190 C   0  0  0  0  0  2  0  0  0  0  0  0
   38.5810   22.0400   31.8900 C   0  0  0  0  0  3  0  0  0  0  0  0
   38.9140   22.5910   30.9840 H   0  0  0  0  0  0  0  0  0  0  0  0
  1  2  1  0  0  0  0
  2  8  1  0  0  0  0
  2  3  1  0  0  0  0
  3  9  1  0  0  0  0
  3 10  1  0  0  0  0
  4  3  1  0  0  0  0
  4 17  1  0  0  0  0
  5 13  1  0  0  0  0
  5  4  1  0  0  0  0
  6  1  1  0  0  0  0
  6  5  1  0  0  0  0
  7  2  1  0  0  0  0
 11  4  1  0  0  0  0
 12  5  1  0  0  0  0
 14  6  1  0  0  0  0
 15  6  1  0  0  0  0
 16 25  1  0  0  0  0
 16 21  1  0  0  0  0
 17 16  2  0  0  0  0
 18 17  1  0  0  0  0
 18 19  2  0  0  0  0
 19 24  1  0  0  0  0
 19 20  1  0  0  0  0
 20 21  2  0  0  0  0
 20 22  1  0  0  0  0
 21 27  1  0  0  0  0
 23 28  1  0  0  0  0
 23 22  1  0  0  0  0
 24 23  1  0  0  0  0
 26 18  1  0  0  0  0
 29 23  1  0  0  0  0
 30 35  1  0  0  0  0
 30  1  1  0  0  0  0
 31 30  2  0  0  0  0
 32 33  2  0  0  0  0
 32 31  1  0  0  0  0
 33 34  1  0  0  0  0
 34 38  1  0  0  0  0
 34 35  2  0  0  0  0
 36 31  1  0  0  0  0
 37 32  1  0  0  0  0
 38 39  1  0  0  0  0
 40 39  1  0  0  0  0
 41 42  1  0  0  0  0
 41 40  1  0  0  0  0
 42 38  1  0  0  0  0
 43 42  1  0  0  0  0
M  END
>  <minimizedAffinity>
-6.0502739

$$$$

 OpenBabel03272507493D

 43 47  0  0  0  0  0  0  0  0999 V2000
   37.6130   27.2410   31.6200 N   0  0  0  0  0  0  0  0  0  0  0  0
   37.0890   25.9270   31.4620 C   0  0  0  0  0  0  0  0  0  0  0  0
   37.4750   24.9280   32.4860 C   0  0  0  0  0  0  0  0  0  0  0  0
   38.8500   24.9930   32.9800 C   0  0  0  0  0  0  0  0  0  0  0  0
   39.3770   26.4370   33.0580 C   0  0  0  0  0  0  0  0  0  0  0  0
   39.0410   27.1130   31.7200 C   0  0  0  0  0  0  0  0  0  0  0  0
   37.4050   25.5580   30.4500 H   0  0  0  0  0  0  0  0  0  0  0  0
   35.9810   26.0080   31.4120 H   0  0  0  0  0  0  0  0  0  0  0  0
   36.8080   25.2280   33.3620 H   0  0  0  0  0  0  0  0  0  0  0  0
   37.1660   23.9300   32.1920 H   0  0  0  0  0  0  0  0  0  0  0  0
   39.5670   24.5160   32.2560 H   0  0  0  0  0  0  0  0  0  0  0  0
   40.4780   26.3910   33.1080 H   0  0  0  0  0  0  0  0  0  0  0  0
   38.8840   26.9440   33.8950 H   0  0  0  0  0  0  0  0  0  0  0  0
   39.5130   26.5290   30.9260 H   0  0  0  0  0  0  0  0  0  0  0  0
   39.4960   28.1370   31.8160 H   0  0  0  0  0  0  0  0  0  0  0  0
   40.2010   23.6940   34.5630 C   0  0  0  0  0  0  0  0  0  0  0  0
   39.0520   24.4410   34.3420 C   0  0  0  0  0  0  0  0  0  0  0  0
   38.0940   24.6680   35.2940 C   0  0  0  0  0  0  0  0  0  0  0  0
   38.2820   24.1140   36.5590 C   0  0  0  0  0  0  0  0  0  0  0  0
   39.4250   23.3690   36.7780 C   0  0  0  0  0  0  0  0  0  0  0  0
   40.4020   23.1360   35.8140 C   0  0  0  0  0  0  0  0  0  0  0  0
   39.4440   22.8930   38.0970 O   0  0  0  0  0  0  0  0  0  0  0  0
   38.4620   23.6830   38.7710 C   0  0  0  0  0  0  0  0  0  0  0  0
   37.5800   24.1060   37.7600 O   0  0  0  0  0  0  0  0  0  0  0  0
   41.0190   23.4640   33.8970 H   0  0  0  0  0  0  0  0  0  0  0  0
   37.2250   25.2450   35.0950 H   0  0  0  0  0  0  0  0  0  0  0  0
   41.2810   22.5380   36.0580 H   0  0  0  0  0  0  0  0  0  0  0  0
   37.9200   23.1330   39.5490 H   0  0  0  0  0  0  0  0  0  0  0  0
   38.9770   24.5350   39.2850 H   0  0  0  0  0  0  0  0  0  0  0  0
   36.8880   28.4730   31.6730 C   0  0  0  0  0  0  0  0  0  0  0  0
   36.7790   29.4040   30.6440 C   0  0  0  0  0  0  0  0  0  0  0  0
   36.0310   30.5440   30.8830 C   0  0  0  0  0  0  0  0  0  0  0  0
   35.4420   30.6980   32.0990 N   0  0  0  0  0  0  0  0  0  0  0  0
   35.5600   29.7870   33.0780 C   0  0  0  0  0  0  0  0  0  0  0  0
   36.2820   28.6850   32.8540 N   0  0  0  0  0  0  0  0  0  0  0  0
   37.2940   29.1480   29.7470 H   0  0  0  0  0  0  0  0  0  0  0  0
   35.9550   31.2520   30.0830 H   0  0  0  0  0  0  0  0  0  0  0  0
   34.9020   30.0490   34.3150 N   0  0  0  0  0  0  0  0  0  0  0  0
   35.3800   31.0140   35.2900 C   0  0  0  0  0  2  0  0  0  0  0  0
   34.0780   31.6850   35.6770 C   0  0  0  0  0  2  0  0  0  0  0  0
   32.9790   30.6880   35.3710 C   0  0  0  0  0  2  0  0  0  0  0  0
   33.6870   29.4550   34.8500 C   0  0  0  0  0  3  0  0  0  0  0  0
   33.1310   28.9430   34.0350 H   0  0  0  0  0  0  0  0  0  0  0  0
  1 30  1  0  0  0  0
  1  6  1  0  0  0  0
  2  1  1  0  0  0  0
  2  3  1  0  0  0  0
  3  4  1  0  0  0  0
  3  9  1  0  0  0  0
  4  5  1  0  0  0  0
  4 17  1  0  0  0  0
  5 12  1  0  0  0  0
  5 13  1  0  0  0  0
  6 15  1  0  0  0  0
  6  5  1  0  0  0  0
  7  2  1  0  0  0  0
  8  2  1  0  0  0  0
 10  3  1  0  0  0  0
 11  4  1  0  0  0  0
 14  6  1  0  0  0  0
 16 21  1  0  0  0  0
 17 16  2  0  0  0  0
 17 18  1  0  0  0  0
 18 19  2  0  0  0  0
 19 20  1  0  0  0  0
 19 24  1  0  0  0  0
 20 22  1  0  0  0  0
 21 27  1  0  0  0  0
 21 20  2  0  0  0  0
 22 23  1  0  0  0  0
 23 29  1  0  0  0  0
 23 28  1  0  0  0  0
 24 23  1  0  0  0  0
 25 16  1  0  0  0  0
 26 18  1  0  0  0  0
 30 35  1  0  0  0  0
 31 32  1  0  0  0  0
 31 30  2  0  0  0  0
 32 33  2  0  0  0  0
 33 34  1  0  0  0  0
 34 38  1  0  0  0  0
 35 34  2  0  0  0  0
 36 31  1  0  0  0  0
 37 32  1  0  0  0  0
 38 42  1  0  0  0  0
 38 39  1  0  0  0  0
 39 40  1  0  0  0  0
 41 40  1  0  0  0  0
 42 41  1  0  0  0  0
 43 42  1  0  0  0  0
M  END
>  <minimizedAffinity>
-6.0468564

$$$$

 OpenBabel03272507493D

 43 47  0  0  0  0  0  0  0  0999 V2000
   38.9040   24.8750   34.4190 N   0  0  0  0  0  0  0  0  0  0  0  0
   38.0260   25.3100   35.4530 C   0  0  0  0  0  0  0  0  0  0  0  0
   37.1300   26.4450   35.1330 C   0  0  0  0  0  0  0  0  0  0  0  0
   37.6930   27.5130   34.3080 C   0  0  0  0  0  0  0  0  0  0  0  0
   38.6870   26.9810   33.2590 C   0  0  0  0  0  0  0  0  0  0  0  0
   39.6460   26.0280   33.9880 C   0  0  0  0  0  0  0  0  0  0  0  0
   38.6590   25.5780   36.3410 H   0  0  0  0  0  0  0  0  0  0  0  0
   37.4250   24.4330   35.7770 H   0  0  0  0  0  0  0  0  0  0  0  0
   36.3340   25.9350   34.4940 H   0  0  0  0  0  0  0  0  0  0  0  0
   36.6250   26.8050   36.0240 H   0  0  0  0  0  0  0  0  0  0  0  0
   38.3370   28.2040   34.9180 H   0  0  0  0  0  0  0  0  0  0  0  0
   39.3020   27.8300   32.9180 H   0  0  0  0  0  0  0  0  0  0  0  0
   38.1240   26.4580   32.4790 H   0  0  0  0  0  0  0  0  0  0  0  0
   40.1310   26.5950   34.7880 H   0  0  0  0  0  0  0  0  0  0  0  0
   40.3740   25.7200   33.1900 H   0  0  0  0  0  0  0  0  0  0  0  0
   36.8830   28.3670   32.1550 C   0  0  0  0  0  0  0  0  0  0  0  0
   36.6990   28.2910   33.5290 C   0  0  0  0  0  0  0  0  0  0  0  0
   35.6780   28.9130   34.1970 C   0  0  0  0  0  0  0  0  0  0  0  0
   34.7710   29.6680   33.4560 C   0  0  0  0  0  0  0  0  0  0  0  0
   34.9560   29.7440   32.0890 C   0  0  0  0  0  0  0  0  0  0  0  0
   35.9920   29.1130   31.4040 C   0  0  0  0  0  0  0  0  0  0  0  0
   33.9570   30.5410   31.5110 O   0  0  0  0  0  0  0  0  0  0  0  0
   32.9540   30.6380   32.5240 C   0  0  0  0  0  0  0  0  0  0  0  0
   33.6390   30.4250   33.7360 O   0  0  0  0  0  0  0  0  0  0  0  0
   37.6360   27.9130   31.5290 H   0  0  0  0  0  0  0  0  0  0  0  0
   35.5630   28.8360   35.2510 H   0  0  0  0  0  0  0  0  0  0  0  0
   36.0760   29.2170   30.3220 H   0  0  0  0  0  0  0  0  0  0  0  0
   32.4400   31.6060   32.5380 H   0  0  0  0  0  0  0  0  0  0  0  0
   32.1680   29.8640   32.3270 H   0  0  0  0  0  0  0  0  0  0  0  0
   39.0460   23.5550   33.8870 C   0  0  0  0  0  0  0  0  0  0  0  0
   40.2470   22.8890   33.6630 C   0  0  0  0  0  0  0  0  0  0  0  0
   40.1850   21.6080   33.1390 C   0  0  0  0  0  0  0  0  0  0  0  0
   38.9650   21.0680   32.8730 N   0  0  0  0  0  0  0  0  0  0  0  0
   37.8190   21.7290   33.0980 C   0  0  0  0  0  0  0  0  0  0  0  0
   37.8720   22.9660   33.6020 N   0  0  0  0  0  0  0  0  0  0  0  0
   41.1240   23.4370   33.9190 H   0  0  0  0  0  0  0  0  0  0  0  0
   41.1150   21.1060   32.9700 H   0  0  0  0  0  0  0  0  0  0  0  0
   36.5950   21.0690   32.7830 N   0  0  0  0  0  0  0  0  0  0  0  0
   36.1090   20.8860   31.4250 C   0  0  0  0  0  2  0  0  0  0  0  0
   35.6310   19.4500   31.4950 C   0  0  0  0  0  2  0  0  0  0  0  0
   35.3370   19.1700   32.9540 C   0  0  0  0  0  2  0  0  0  0  0  0
   35.6210   20.4690   33.6790 C   0  0  0  0  0  3  0  0  0  0  0  0
   36.0780   20.3190   34.6810 H   0  0  0  0  0  0  0  0  0  0  0  0
  1  2  1  0  0  0  0
  2  8  1  0  0  0  0
  2  7  1  0  0  0  0
  3  2  1  0  0  0  0
  3 10  1  0  0  0  0
  4 11  1  0  0  0  0
  4  3  1  0  0  0  0
  5  6  1  0  0  0  0
  5  4  1  0  0  0  0
  6  1  1  0  0  0  0
  6 14  1  0  0  0  0
  9  3  1  0  0  0  0
 12  5  1  0  0  0  0
 13  5  1  0  0  0  0
 15  6  1  0  0  0  0
 16 17  1  0  0  0  0
 17 18  2  0  0  0  0
 17  4  1  0  0  0  0
 18 26  1  0  0  0  0
 19 24  1  0  0  0  0
 19 18  1  0  0  0  0
 20 19  2  0  0  0  0
 21 20  1  0  0  0  0
 21 16  2  0  0  0  0
 22 20  1  0  0  0  0
 22 23  1  0  0  0  0
 23 28  1  0  0  0  0
 23 24  1  0  0  0  0
 25 16  1  0  0  0  0
 27 21  1  0  0  0  0
 29 23  1  0  0  0  0
 30  1  1  0  0  0  0
 31 30  1  0  0  0  0
 31 36  1  0  0  0  0
 32 31  2  0  0  0  0
 33 34  2  0  0  0  0
 33 32  1  0  0  0  0
 34 35  1  0  0  0  0
 35 30  2  0  0  0  0
 37 32  1  0  0  0  0
 38 34  1  0  0  0  0
 38 42  1  0  0  0  0
 39 40  1  0  0  0  0
 39 38  1  0  0  0  0
 40 41  1  0  0  0  0
 41 42  1  0  0  0  0
 42 43  1  0  0  0  0
M  END
>  <minimizedAffinity>
-5.96742964

$$$$

 OpenBabel03272507493D

 43 47  0  0  0  0  0  0  0  0999 V2000
   38.1970   26.6280   33.5050 N   0  0  0  0  0  0  0  0  0  0  0  0
   37.8600   27.1940   32.2430 C   0  0  0  0  0  0  0  0  0  0  0  0
   37.1330   28.4850   32.2650 C   0  0  0  0  0  0  0  0  0  0  0  0
   36.1240   28.6520   33.3100 C   0  0  0  0  0  0  0  0  0  0  0  0
   36.5200   27.9550   34.6240 C   0  0  0  0  0  0  0  0  0  0  0  0
   36.9790   26.5350   34.2620 C   0  0  0  0  0  0  0  0  0  0  0  0
   37.2470   26.4350   31.6870 H   0  0  0  0  0  0  0  0  0  0  0  0
   38.7990   27.2970   31.6570 H   0  0  0  0  0  0  0  0  0  0  0  0
   37.9740   29.2160   32.5130 H   0  0  0  0  0  0  0  0  0  0  0  0
   36.7800   28.7490   31.2730 H   0  0  0  0  0  0  0  0  0  0  0  0
   35.1670   28.1270   33.0400 H   0  0  0  0  0  0  0  0  0  0  0  0
   35.6070   27.8350   35.2300 H   0  0  0  0  0  0  0  0  0  0  0  0
   37.3290   28.5270   35.0920 H   0  0  0  0  0  0  0  0  0  0  0  0
   36.1490   26.0400   33.7490 H   0  0  0  0  0  0  0  0  0  0  0  0
   37.1990   26.0620   35.2570 H   0  0  0  0  0  0  0  0  0  0  0  0
   35.7170   30.9840   32.6680 C   0  0  0  0  0  0  0  0  0  0  0  0
   35.8490   30.0580   33.6930 C   0  0  0  0  0  0  0  0  0  0  0  0
   35.7670   30.3750   35.0230 C   0  0  0  0  0  0  0  0  0  0  0  0
   35.5410   31.7060   35.3680 C   0  0  0  0  0  0  0  0  0  0  0  0
   35.4120   32.6280   34.3470 C   0  0  0  0  0  0  0  0  0  0  0  0
   35.4930   32.3110   32.9930 C   0  0  0  0  0  0  0  0  0  0  0  0
   35.1920   33.9070   34.8780 O   0  0  0  0  0  0  0  0  0  0  0  0
   34.8240   33.6660   36.2370 C   0  0  0  0  0  0  0  0  0  0  0  0
   35.3950   32.4200   36.5530 O   0  0  0  0  0  0  0  0  0  0  0  0
   35.7510   30.8460   31.5980 H   0  0  0  0  0  0  0  0  0  0  0  0
   35.8710   29.6430   35.7860 H   0  0  0  0  0  0  0  0  0  0  0  0
   35.3810   33.0920   32.2400 H   0  0  0  0  0  0  0  0  0  0  0  0
   35.1790   34.4380   36.9290 H   0  0  0  0  0  0  0  0  0  0  0  0
   33.7050   33.6640   36.3110 H   0  0  0  0  0  0  0  0  0  0  0  0
   39.4890   26.2180   33.9660 C   0  0  0  0  0  0  0  0  0  0  0  0
   40.6620   26.9610   33.8750 C   0  0  0  0  0  0  0  0  0  0  0  0
   41.8220   26.3960   34.3790 C   0  0  0  0  0  0  0  0  0  0  0  0
   41.7590   25.1550   34.9340 N   0  0  0  0  0  0  0  0  0  0  0  0
   40.6150   24.4580   35.0110 C   0  0  0  0  0  0  0  0  0  0  0  0
   39.4930   24.9970   34.5250 N   0  0  0  0  0  0  0  0  0  0  0  0
   40.5590   27.9170   33.4160 H   0  0  0  0  0  0  0  0  0  0  0  0
   42.7180   26.9770   34.3030 H   0  0  0  0  0  0  0  0  0  0  0  0
   40.6610   23.1650   35.6120 N   0  0  0  0  0  0  0  0  0  0  0  0
   41.2170   21.9940   34.9550 C   0  0  0  0  0  2  0  0  0  0  0  0
   42.0040   21.3840   36.0970 C   0  0  0  0  0  2  0  0  0  0  0  0
   41.3630   21.8900   37.3730 C   0  0  0  0  0  2  0  0  0  0  0  0
   40.1980   22.7490   36.9250 C   0  0  0  0  0  3  0  0  0  0  0  0
   40.0430   23.6430   37.5670 H   0  0  0  0  0  0  0  0  0  0  0  0
  1 30  1  0  0  0  0
  1  6  1  0  0  0  0
  2  3  1  0  0  0  0
  2  1  1  0  0  0  0
  3  9  1  0  0  0  0
  3  4  1  0  0  0  0
  4 17  1  0  0  0  0
  4  5  1  0  0  0  0
  5 13  1  0  0  0  0
  5 12  1  0  0  0  0
  6  5  1  0  0  0  0
  6 15  1  0  0  0  0
  7  2  1  0  0  0  0
  8  2  1  0  0  0  0
 10  3  1  0  0  0  0
 11  4  1  0  0  0  0
 14  6  1  0  0  0  0
 16 21  2  0  0  0  0
 16 17  1  0  0  0  0
 17 18  2  0  0  0  0
 18 19  1  0  0  0  0
 18 26  1  0  0  0  0
 19 24  1  0  0  0  0
 20 22  1  0  0  0  0
 20 19  2  0  0  0  0
 21 20  1  0  0  0  0
 22 23  1  0  0  0  0
 23 29  1  0  0  0  0
 23 24  1  0  0  0  0
 23 28  1  0  0  0  0
 25 16  1  0  0  0  0
 27 21  1  0  0  0  0
 30 35  1  0  0  0  0
 31 30  2  0  0  0  0
 31 32  1  0  0  0  0
 32 33  2  0  0  0  0
 33 34  1  0  0  0  0
 34 38  1  0  0  0  0
 35 34  2  0  0  0  0
 36 31  1  0  0  0  0
 37 32  1  0  0  0  0
 38 42  1  0  0  0  0
 39 38  1  0  0  0  0
 39 40  1  0  0  0  0
 40 41  1  0  0  0  0
 42 41  1  0  0  0  0
 42 43  1  0  0  0  0
M  END
>  <minimizedAffinity>
-5.96355009

$$$$

 OpenBabel03272507493D

 43 47  0  0  0  0  0  0  0  0999 V2000
   37.1370   25.6420   31.5750 N   0  0  0  0  0  0  0  0  0  0  0  0
   38.1190   26.5650   31.1160 C   0  0  0  0  0  0  0  0  0  0  0  0
   37.8750   27.9970   31.4060 C   0  0  0  0  0  0  0  0  0  0  0  0
   36.4920   28.4600   31.3020 C   0  0  0  0  0  0  0  0  0  0  0  0
   35.4800   27.3890   31.7450 C   0  0  0  0  0  0  0  0  0  0  0  0
   35.8730   26.0790   31.0460 C   0  0  0  0  0  0  0  0  0  0  0  0
   38.2210   26.4240   30.0070 H   0  0  0  0  0  0  0  0  0  0  0  0
   39.0990   26.2540   31.5410 H   0  0  0  0  0  0  0  0  0  0  0  0
   38.1480   28.0560   32.5120 H   0  0  0  0  0  0  0  0  0  0  0  0
   38.5850   28.6270   30.8790 H   0  0  0  0  0  0  0  0  0  0  0  0
   36.2000   28.6360   30.2300 H   0  0  0  0  0  0  0  0  0  0  0  0
   34.4940   27.6670   31.3370 H   0  0  0  0  0  0  0  0  0  0  0  0
   35.5320   27.2890   32.8350 H   0  0  0  0  0  0  0  0  0  0  0  0
   35.8580   26.2610   29.9680 H   0  0  0  0  0  0  0  0  0  0  0  0
   35.0730   25.3560   31.3620 H   0  0  0  0  0  0  0  0  0  0  0  0
   36.3810   30.8980   31.5510 C   0  0  0  0  0  0  0  0  0  0  0  0
   36.1680   29.6520   32.1230 C   0  0  0  0  0  0  0  0  0  0  0  0
   35.7090   29.4670   33.4010 C   0  0  0  0  0  0  0  0  0  0  0  0
   35.4410   30.5970   34.1720 C   0  0  0  0  0  0  0  0  0  0  0  0
   35.6550   31.8370   33.6010 C   0  0  0  0  0  0  0  0  0  0  0  0
   36.1210   32.0300   32.3030 C   0  0  0  0  0  0  0  0  0  0  0  0
   35.3360   32.8500   34.5180 O   0  0  0  0  0  0  0  0  0  0  0  0
   34.5740   32.1850   35.5260 C   0  0  0  0  0  0  0  0  0  0  0  0
   34.9790   30.8390   35.4610 O   0  0  0  0  0  0  0  0  0  0  0  0
   36.7250   31.1580   30.5610 H   0  0  0  0  0  0  0  0  0  0  0  0
   35.5550   28.5000   33.8120 H   0  0  0  0  0  0  0  0  0  0  0  0
   36.2660   33.0400   31.9180 H   0  0  0  0  0  0  0  0  0  0  0  0
   34.7370   32.5870   36.5320 H   0  0  0  0  0  0  0  0  0  0  0  0
   33.4840   32.3230   35.3030 H   0  0  0  0  0  0  0  0  0  0  0  0
   37.3330   24.4910   32.4020 C   0  0  0  0  0  0  0  0  0  0  0  0
   38.0130   24.4630   33.6160 C   0  0  0  0  0  0  0  0  0  0  0  0
   38.1000   23.2490   34.2770 C   0  0  0  0  0  0  0  0  0  0  0  0
   37.5200   22.1540   33.7150 N   0  0  0  0  0  0  0  0  0  0  0  0
   36.8690   22.2050   32.5430 C   0  0  0  0  0  0  0  0  0  0  0  0
   36.7820   23.3730   31.8990 N   0  0  0  0  0  0  0  0  0  0  0  0
   38.4150   25.3980   33.9320 H   0  0  0  0  0  0  0  0  0  0  0  0
   38.6260   23.2400   35.2090 H   0  0  0  0  0  0  0  0  0  0  0  0
   36.2980   20.9970   32.0440 N   0  0  0  0  0  0  0  0  0  0  0  0
   37.0810   19.9260   31.4500 C   0  0  0  0  0  2  0  0  0  0  0  0
   36.4270   18.7190   32.0920 C   0  0  0  0  0  2  0  0  0  0  0  0
   35.0280   19.1490   32.4800 C   0  0  0  0  0  2  0  0  0  0  0  0
   34.9050   20.5850   32.0160 C   0  0  0  0  0  3  0  0  0  0  0  0
   34.3140   21.2200   32.7110 H   0  0  0  0  0  0  0  0  0  0  0  0
  1 30  1  0  0  0  0
  2  3  1  0  0  0  0
  2  8  1  0  0  0  0
  2  1  1  0  0  0  0
  3  9  1  0  0  0  0
  4  3  1  0  0  0  0
  4  5  1  0  0  0  0
  4 17  1  0  0  0  0
  5 13  1  0  0  0  0
  6 15  1  0  0  0  0
  6  1  1  0  0  0  0
  6  5  1  0  0  0  0
  7  2  1  0  0  0  0
 10  3  1  0  0  0  0
 11  4  1  0  0  0  0
 12  5  1  0  0  0  0
 14  6  1  0  0  0  0
 16 17  2  0  0  0  0
 16 21  1  0  0  0  0
 17 18  1  0  0  0  0
 18 26  1  0  0  0  0
 18 19  2  0  0  0  0
 19 24  1  0  0  0  0
 20 19  1  0  0  0  0
 20 22  1  0  0  0  0
 21 20  2  0  0  0  0
 22 23  1  0  0  0  0
 23 28  1  0  0  0  0
 24 23  1  0  0  0  0
 25 16  1  0  0  0  0
 27 21  1  0  0  0  0
 29 23  1  0  0  0  0
 30 31  1  0  0  0  0
 31 36  1  0  0  0  0
 31 32  2  0  0  0  0
 32 37  1  0  0  0  0
 33 32  1  0  0  0  0
 34 33  2  0  0  0  0
 35 30  2  0  0  0  0
 35 34  1  0  0  0  0
 38 34  1  0  0  0  0
 39 38  1  0  0  0  0
 39 40  1  0  0  0  0
 40 41  1  0  0  0  0
 42 38  1  0  0  0  0
 42 41  1  0  0  0  0
 42 43  1  0  0  0  0
M  END
>  <minimizedAffinity>
-5.92750263

$$$$

 OpenBabel03272507493D

 43 47  0  0  0  0  0  0  0  0999 V2000
   36.5260   27.8670   33.6130 N   0  0  0  0  0  0  0  0  0  0  0  0
   36.9550   27.2600   34.8270 C   0  0  0  0  0  0  0  0  0  0  0  0
   38.3950   26.9280   34.9340 C   0  0  0  0  0  0  0  0  0  0  0  0
   39.0420   26.4220   33.7240 C   0  0  0  0  0  0  0  0  0  0  0  0
   38.4810   27.0670   32.4440 C   0  0  0  0  0  0  0  0  0  0  0  0
   36.9490   27.0060   32.5430 C   0  0  0  0  0  0  0  0  0  0  0  0
   36.3500   26.3260   34.9690 H   0  0  0  0  0  0  0  0  0  0  0  0
   36.6590   27.9310   35.6630 H   0  0  0  0  0  0  0  0  0  0  0  0
   38.8520   27.9550   35.1330 H   0  0  0  0  0  0  0  0  0  0  0  0
   38.5920   26.3280   35.8160 H   0  0  0  0  0  0  0  0  0  0  0  0
   38.8110   25.3330   33.5630 H   0  0  0  0  0  0  0  0  0  0  0  0
   38.7570   26.4230   31.5940 H   0  0  0  0  0  0  0  0  0  0  0  0
   38.8340   28.1020   32.3910 H   0  0  0  0  0  0  0  0  0  0  0  0
   36.6660   25.9550   32.6510 H   0  0  0  0  0  0  0  0  0  0  0  0
   36.6010   27.4360   31.5640 H   0  0  0  0  0  0  0  0  0  0  0  0
   40.9690   27.5230   32.6790 C   0  0  0  0  0  0  0  0  0  0  0  0
   40.5060   26.6520   33.6550 C   0  0  0  0  0  0  0  0  0  0  0  0
   41.3210   25.9800   34.5270 C   0  0  0  0  0  0  0  0  0  0  0  0
   42.6960   26.1810   34.4280 C   0  0  0  0  0  0  0  0  0  0  0  0
   43.1560   27.0480   33.4550 C   0  0  0  0  0  0  0  0  0  0  0  0
   42.3320   27.7340   32.5660 C   0  0  0  0  0  0  0  0  0  0  0  0
   44.5560   27.1250   33.5020 O   0  0  0  0  0  0  0  0  0  0  0  0
   44.8970   26.5660   34.7710 C   0  0  0  0  0  0  0  0  0  0  0  0
   43.8240   25.7140   35.0930 O   0  0  0  0  0  0  0  0  0  0  0  0
   40.4230   28.1090   31.9550 H   0  0  0  0  0  0  0  0  0  0  0  0
   40.9370   25.3190   35.2650 H   0  0  0  0  0  0  0  0  0  0  0  0
   42.7650   28.4040   31.8230 H   0  0  0  0  0  0  0  0  0  0  0  0
   45.8410   26.0080   34.7620 H   0  0  0  0  0  0  0  0  0  0  0  0
   45.0290   27.4000   35.5080 H   0  0  0  0  0  0  0  0  0  0  0  0
   35.8090   29.0950   33.4510 C   0  0  0  0  0  0  0  0  0  0  0  0
   35.0130   29.4400   32.3630 C   0  0  0  0  0  0  0  0  0  0  0  0
   34.3960   30.6790   32.3840 C   0  0  0  0  0  0  0  0  0  0  0  0
   34.5930   31.4910   33.4580 N   0  0  0  0  0  0  0  0  0  0  0  0
   35.3650   31.1370   34.4970 C   0  0  0  0  0  0  0  0  0  0  0  0
   35.9650   29.9420   34.4820 N   0  0  0  0  0  0  0  0  0  0  0  0
   34.9510   28.7040   31.5950 H   0  0  0  0  0  0  0  0  0  0  0  0
   33.7860   30.9330   31.5410 H   0  0  0  0  0  0  0  0  0  0  0  0
   35.5040   32.0640   35.5710 N   0  0  0  0  0  0  0  0  0  0  0  0
   36.3250   33.2610   35.4960 C   0  0  0  0  0  2  0  0  0  0  0  0
   35.4030   34.2690   36.1520 C   0  0  0  0  0  2  0  0  0  0  0  0
   34.4660   33.4740   37.0390 C   0  0  0  0  0  2  0  0  0  0  0  0
   34.9020   32.0310   36.8940 C   0  0  0  0  0  3  0  0  0  0  0  0
   34.0520   31.3150   36.8990 H   0  0  0  0  0  0  0  0  0  0  0  0
  1  2  1  0  0  0  0
  2  3  1  0  0  0  0
  2  7  1  0  0  0  0
  2  8  1  0  0  0  0
  3  9  1  0  0  0  0
  3 10  1  0  0  0  0
  4  3  1  0  0  0  0
  5  6  1  0  0  0  0
  5  4  1  0  0  0  0
  6 14  1  0  0  0  0
  6  1  1  0  0  0  0
 11  4  1  0  0  0  0
 12  5  1  0  0  0  0
 13  5  1  0  0  0  0
 15  6  1  0  0  0  0
 16 17  1  0  0  0  0
 17  4  1  0  0  0  0
 17 18  2  0  0  0  0
 18 26  1  0  0  0  0
 19 18  1  0  0  0  0
 19 24  1  0  0  0  0
 20 22  1  0  0  0  0
 20 19  2  0  0  0  0
 21 16  2  0  0  0  0
 21 20  1  0  0  0  0
 22 23  1  0  0  0  0
 23 24  1  0  0  0  0
 23 29  1  0  0  0  0
 25 16  1  0  0  0  0
 27 21  1  0  0  0  0
 28 23  1  0  0  0  0
 30  1  1  0  0  0  0
 30 35  1  0  0  0  0
 31 32  1  0  0  0  0
 31 30  2  0  0  0  0
 32 33  2  0  0  0  0
 33 34  1  0  0  0  0
 34 38  1  0  0  0  0
 35 34  2  0  0  0  0
 36 31  1  0  0  0  0
 37 32  1  0  0  0  0
 38 42  1  0  0  0  0
 39 38  1  0  0  0  0
 39 40  1  0  0  0  0
 40 41  1  0  0  0  0
 42 43  1  0  0  0  0
 42 41  1  0  0  0  0
M  END
>  <minimizedAffinity>
-5.83334684

$$$$

 OpenBabel03272507493D

 43 47  0  0  0  0  0  0  0  0999 V2000
   38.0880   26.6150   32.7590 N   0  0  0  0  0  0  0  0  0  0  0  0
   39.2720   27.1110   32.1430 C   0  0  0  0  0  0  0  0  0  0  0  0
   40.5600   26.6870   32.7380 C   0  0  0  0  0  0  0  0  0  0  0  0
   40.6110   26.5970   34.1980 C   0  0  0  0  0  0  0  0  0  0  0  0
   39.2760   26.1230   34.8020 C   0  0  0  0  0  0  0  0  0  0  0  0
   38.1640   26.9610   34.1520 C   0  0  0  0  0  0  0  0  0  0  0  0
   39.2120   28.2320   32.1530 H   0  0  0  0  0  0  0  0  0  0  0  0
   39.2390   26.8260   31.0690 H   0  0  0  0  0  0  0  0  0  0  0  0
   40.6510   25.6180   32.3500 H   0  0  0  0  0  0  0  0  0  0  0  0
   41.3880   27.2410   32.3090 H   0  0  0  0  0  0  0  0  0  0  0  0
   40.7380   27.6110   34.6650 H   0  0  0  0  0  0  0  0  0  0  0  0
   39.2770   26.3940   35.8700 H   0  0  0  0  0  0  0  0  0  0  0  0
   39.1520   25.0580   34.5810 H   0  0  0  0  0  0  0  0  0  0  0  0
   38.3780   28.0130   34.3600 H   0  0  0  0  0  0  0  0  0  0  0  0
   37.2300   26.6120   34.6700 H   0  0  0  0  0  0  0  0  0  0  0  0
   42.9220   26.1270   34.8700 C   0  0  0  0  0  0  0  0  0  0  0  0
   41.6250   25.6540   34.7310 C   0  0  0  0  0  0  0  0  0  0  0  0
   41.2430   24.3730   35.0280 C   0  0  0  0  0  0  0  0  0  0  0  0
   42.2130   23.4900   35.4960 C   0  0  0  0  0  0  0  0  0  0  0  0
   43.5050   23.9610   35.6330 C   0  0  0  0  0  0  0  0  0  0  0  0
   43.8990   25.2620   35.3340 C   0  0  0  0  0  0  0  0  0  0  0  0
   44.3410   22.9410   36.1110 O   0  0  0  0  0  0  0  0  0  0  0  0
   43.4390   21.9500   36.6080 C   0  0  0  0  0  0  0  0  0  0  0  0
   42.2430   22.1590   35.8970 O   0  0  0  0  0  0  0  0  0  0  0  0
   43.3280   27.1090   34.6810 H   0  0  0  0  0  0  0  0  0  0  0  0
   40.2400   24.0410   34.9110 H   0  0  0  0  0  0  0  0  0  0  0  0
   44.9380   25.5650   35.4670 H   0  0  0  0  0  0  0  0  0  0  0  0
   43.7970   20.9240   36.4650 H   0  0  0  0  0  0  0  0  0  0  0  0
   43.3210   22.0940   37.7130 H   0  0  0  0  0  0  0  0  0  0  0  0
   37.0090   25.9060   32.1420 C   0  0  0  0  0  0  0  0  0  0  0  0
   35.9130   26.4790   31.5030 C   0  0  0  0  0  0  0  0  0  0  0  0
   34.9650   25.6260   30.9630 C   0  0  0  0  0  0  0  0  0  0  0  0
   35.1490   24.2830   31.0800 N   0  0  0  0  0  0  0  0  0  0  0  0
   36.2140   23.7530   31.7010 C   0  0  0  0  0  0  0  0  0  0  0  0
   37.1320   24.5710   32.2260 N   0  0  0  0  0  0  0  0  0  0  0  0
   35.9040   27.5440   31.4880 H   0  0  0  0  0  0  0  0  0  0  0  0
   34.1270   26.0790   30.4730 H   0  0  0  0  0  0  0  0  0  0  0  0
   36.3080   22.3320   31.7680 N   0  0  0  0  0  0  0  0  0  0  0  0
   35.5040   21.5160   32.6620 C   0  0  0  0  0  2  0  0  0  0  0  0
   35.1200   20.3840   31.7310 C   0  0  0  0  0  2  0  0  0  0  0  0
   36.1800   20.3440   30.6500 C   0  0  0  0  0  2  0  0  0  0  0  0
   37.1660   21.4340   31.0120 C   0  0  0  0  0  3  0  0  0  0  0  0
   37.5750   21.9660   30.1260 H   0  0  0  0  0  0  0  0  0  0  0  0
  1  6  1  0  0  0  0
  2  7  1  0  0  0  0
  2  3  1  0  0  0  0
  2  1  1  0  0  0  0
  3  4  1  0  0  0  0
  4 11  1  0  0  0  0
  4 17  1  0  0  0  0
  4  5  1  0  0  0  0
  5 12  1  0  0  0  0
  6 14  1  0  0  0  0
  6 15  1  0  0  0  0
  6  5  1  0  0  0  0
  8  2  1  0  0  0  0
  9  3  1  0  0  0  0
 10  3  1  0  0  0  0
 13  5  1  0  0  0  0
 16 21  1  0  0  0  0
 17 16  2  0  0  0  0
 17 18  1  0  0  0  0
 18 19  2  0  0  0  0
 19 20  1  0  0  0  0
 19 24  1  0  0  0  0
 20 22  1  0  0  0  0
 21 27  1  0  0  0  0
 21 20  2  0  0  0  0
 22 23  1  0  0  0  0
 23 29  1  0  0  0  0
 24 23  1  0  0  0  0
 25 16  1  0  0  0  0
 26 18  1  0  0  0  0
 28 23  1  0  0  0  0
 30 35  1  0  0  0  0
 30  1  1  0  0  0  0
 31 30  2  0  0  0  0
 32 33  2  0  0  0  0
 32 31  1  0  0  0  0
 33 34  1  0  0  0  0
 34 38  1  0  0  0  0
 34 35  2  0  0  0  0
 36 31  1  0  0  0  0
 37 32  1  0  0  0  0
 38 39  1  0  0  0  0
 40 39  1  0  0  0  0
 41 42  1  0  0  0  0
 41 40  1  0  0  0  0
 42 38  1  0  0  0  0
 43 42  1  0  0  0  0
M  END
>  <minimizedAffinity>
-5.8158741

$$$$
