
 OpenBabel03272504493D

 24 26  0  0  0  0  0  0  0  0999 V2000
   37.3410   25.9990   33.1020 C   0  0  0  0  0  0  0  0  0  0  0  0
   37.0050   27.3180   33.4800 C   0  0  0  0  0  0  0  0  0  0  0  0
   37.2180   27.6850   34.8020 C   0  0  0  0  0  0  0  0  0  0  0  0
   37.7390   26.7420   35.6370 N   0  0  0  0  0  0  0  0  0  0  0  0
   38.0490   25.5010   35.2610 C   0  0  0  0  0  0  0  0  0  0  0  0
   37.8470   25.1330   33.9850 N   0  0  0  0  0  0  0  0  0  0  0  0
   37.1810   25.7060   32.0900 H   0  0  0  0  0  0  0  0  0  0  0  0
   36.9900   28.6760   35.1750 H   0  0  0  0  0  0  0  0  0  0  0  0
   38.6010   24.5560   36.2190 C   0  0  0  0  0  0  0  0  0  0  0  0
   38.0260   24.4270   37.4740 C   0  0  0  0  0  0  0  0  0  0  0  0
   38.5080   23.5490   38.4190 C   0  0  0  0  0  0  0  0  0  0  0  0
   39.6070   22.8070   38.0270 C   0  0  0  0  0  0  0  0  0  0  0  0
   40.2100   22.9120   36.7740 C   0  0  0  0  0  0  0  0  0  0  0  0
   39.6640   23.8110   35.8970 N   0  0  0  0  0  0  0  0  0  0  0  0
   37.1680   25.0520   37.6870 H   0  0  0  0  0  0  0  0  0  0  0  0
   38.0690   23.4380   39.4000 H   0  0  0  0  0  0  0  0  0  0  0  0
   40.0100   22.1060   38.7510 H   0  0  0  0  0  0  0  0  0  0  0  0
   41.0600   22.3220   36.5050 H   0  0  0  0  0  0  0  0  0  0  0  0
   36.4650   28.2530   32.5560 N   0  0  0  0  0  0  0  0  0  0  0  0
   37.0340   28.5860   31.2630 C   0  0  0  0  0  2  0  0  0  0  0  0
   36.1170   29.6630   30.7210 C   0  0  0  0  0  2  0  0  0  0  0  0
   35.6280   30.3000   32.0050 C   0  0  0  0  0  2  0  0  0  0  0  0
   35.2560   29.0210   32.7670 C   0  0  0  0  0  3  0  0  0  0  0  0
   34.4340   28.5330   32.1810 H   0  0  0  0  0  0  0  0  0  0  0  0
  1  2  2  0  0  0  0
  1  6  1  0  0  0  0
  2  3  1  0  0  0  0
  3  8  1  0  0  0  0
  3  4  2  0  0  0  0
  5  4  1  0  0  0  0
  5  9  1  0  0  0  0
  6  5  2  0  0  0  0
  7  1  1  0  0  0  0
  9 10  1  0  0  0  0
 10 15  1  0  0  0  0
 10 11  2  0  0  0  0
 11 16  1  0  0  0  0
 12 11  1  0  0  0  0
 12 17  1  0  0  0  0
 13 12  2  0  0  0  0
 14  9  2  0  0  0  0
 14 13  1  0  0  0  0
 18 13  1  0  0  0  0
 19 23  1  0  0  0  0
 19  2  1  0  0  0  0
 20 19  1  0  0  0  0
 21 20  1  0  0  0  0
 21 22  1  0  0  0  0
 22 23  1  0  0  0  0
 24 23  1  0  0  0  0
M  END
>  <minimizedAffinity>
-4.83668423

$$$$

 OpenBabel03272504493D

 24 26  0  0  0  0  0  0  0  0999 V2000
   37.1810   25.3880   32.2600 C   0  0  0  0  0  0  0  0  0  0  0  0
   36.2260   26.2120   31.6230 C   0  0  0  0  0  0  0  0  0  0  0  0
   35.1780   25.5920   30.9580 C   0  0  0  0  0  0  0  0  0  0  0  0
   35.1490   24.2290   30.9710 N   0  0  0  0  0  0  0  0  0  0  0  0
   36.0600   23.4680   31.5790 C   0  0  0  0  0  0  0  0  0  0  0  0
   37.0790   24.0570   32.2260 N   0  0  0  0  0  0  0  0  0  0  0  0
   37.9900   25.8540   32.7740 H   0  0  0  0  0  0  0  0  0  0  0  0
   34.4040   26.1480   30.4450 H   0  0  0  0  0  0  0  0  0  0  0  0
   35.9510   22.0180   31.5440 C   0  0  0  0  0  0  0  0  0  0  0  0
   34.9740   21.3780   32.2920 C   0  0  0  0  0  0  0  0  0  0  0  0
   34.8270   20.0090   32.2960 C   0  0  0  0  0  0  0  0  0  0  0  0
   35.7240   19.3180   31.5030 C   0  0  0  0  0  0  0  0  0  0  0  0
   36.7180   19.9290   30.7390 C   0  0  0  0  0  0  0  0  0  0  0  0
   36.7920   21.2950   30.7950 N   0  0  0  0  0  0  0  0  0  0  0  0
   34.3190   22.0070   32.8820 H   0  0  0  0  0  0  0  0  0  0  0  0
   34.0700   19.4990   32.8730 H   0  0  0  0  0  0  0  0  0  0  0  0
   35.6330   18.2370   31.4860 H   0  0  0  0  0  0  0  0  0  0  0  0
   37.3960   19.3630   30.1360 H   0  0  0  0  0  0  0  0  0  0  0  0
   36.3180   27.6310   31.6490 N   0  0  0  0  0  0  0  0  0  0  0  0
   35.3760   28.5250   32.2950 C   0  0  0  0  0  2  0  0  0  0  0  0
   35.8990   29.9100   31.9730 C   0  0  0  0  0  2  0  0  0  0  0  0
   36.5820   29.6590   30.6440 C   0  0  0  0  0  2  0  0  0  0  0  0
   37.3740   28.4020   31.0290 C   0  0  0  0  0  3  0  0  0  0  0  0
   38.0890   28.7150   31.8350 H   0  0  0  0  0  0  0  0  0  0  0  0
  1  7  1  0  0  0  0
  2 19  1  0  0  0  0
  2  1  2  0  0  0  0
  3  4  2  0  0  0  0
  3  2  1  0  0  0  0
  4  5  1  0  0  0  0
  5  6  2  0  0  0  0
  6  1  1  0  0  0  0
  8  3  1  0  0  0  0
  9  5  1  0  0  0  0
  9 10  1  0  0  0  0
 10 11  2  0  0  0  0
 10 15  1  0  0  0  0
 11 16  1  0  0  0  0
 12 11  1  0  0  0  0
 13 14  1  0  0  0  0
 13 12  2  0  0  0  0
 14  9  2  0  0  0  0
 17 12  1  0  0  0  0
 18 13  1  0  0  0  0
 19 20  1  0  0  0  0
 21 20  1  0  0  0  0
 22 23  1  0  0  0  0
 22 21  1  0  0  0  0
 23 19  1  0  0  0  0
 23 24  1  0  0  0  0
M  END
>  <minimizedAffinity>
-4.6602149

$$$$

 OpenBabel03272504493D

 24 26  0  0  0  0  0  0  0  0999 V2000
   37.9080   26.5760   35.6450 C   0  0  0  0  0  0  0  0  0  0  0  0
   38.0680   25.1910   35.4200 C   0  0  0  0  0  0  0  0  0  0  0  0
   37.9310   24.7280   34.1190 C   0  0  0  0  0  0  0  0  0  0  0  0
   37.6530   25.6490   33.1540 N   0  0  0  0  0  0  0  0  0  0  0  0
   37.5060   26.9540   33.3860 C   0  0  0  0  0  0  0  0  0  0  0  0
   37.6360   27.4140   34.6410 N   0  0  0  0  0  0  0  0  0  0  0  0
   38.0110   26.9430   36.6410 H   0  0  0  0  0  0  0  0  0  0  0  0
   38.0380   23.6820   33.8590 H   0  0  0  0  0  0  0  0  0  0  0  0
   37.2110   27.8690   32.2950 C   0  0  0  0  0  0  0  0  0  0  0  0
   37.9400   27.8010   31.1170 C   0  0  0  0  0  0  0  0  0  0  0  0
   37.7030   28.6420   30.0540 C   0  0  0  0  0  0  0  0  0  0  0  0
   36.6880   29.5610   30.2440 C   0  0  0  0  0  0  0  0  0  0  0  0
   35.9350   29.6570   31.4140 C   0  0  0  0  0  0  0  0  0  0  0  0
   36.2400   28.7800   32.4210 N   0  0  0  0  0  0  0  0  0  0  0  0
   38.7160   27.0470   31.0640 H   0  0  0  0  0  0  0  0  0  0  0  0
   38.2630   28.5990   29.1300 H   0  0  0  0  0  0  0  0  0  0  0  0
   36.4770   30.2380   29.4230 H   0  0  0  0  0  0  0  0  0  0  0  0
   35.1560   30.3800   31.5270 H   0  0  0  0  0  0  0  0  0  0  0  0
   38.3570   24.2840   36.4760 N   0  0  0  0  0  0  0  0  0  0  0  0
   38.0090   24.4740   37.8710 C   0  0  0  0  0  2  0  0  0  0  0  0
   38.5940   23.2640   38.5680 C   0  0  0  0  0  2  0  0  0  0  0  0
   39.7730   22.9530   37.6680 C   0  0  0  0  0  2  0  0  0  0  0  0
   39.0500   23.0230   36.3160 C   0  0  0  0  0  3  0  0  0  0  0  0
   38.2820   22.2060   36.3260 H   0  0  0  0  0  0  0  0  0  0  0  0
  1  7  1  0  0  0  0
  2  1  1  0  0  0  0
  2 19  1  0  0  0  0
  3  2  2  0  0  0  0
  4  5  2  0  0  0  0
  4  3  1  0  0  0  0
  5  6  1  0  0  0  0
  6  1  2  0  0  0  0
  8  3  1  0  0  0  0
  9 14  1  0  0  0  0
  9  5  1  0  0  0  0
 10  9  2  0  0  0  0
 11 12  2  0  0  0  0
 11 10  1  0  0  0  0
 12 13  1  0  0  0  0
 13 18  1  0  0  0  0
 13 14  2  0  0  0  0
 15 10  1  0  0  0  0
 16 11  1  0  0  0  0
 17 12  1  0  0  0  0
 19 20  1  0  0  0  0
 20 21  1  0  0  0  0
 22 21  1  0  0  0  0
 23 24  1  0  0  0  0
 23 19  1  0  0  0  0
 23 22  1  0  0  0  0
M  END
>  <minimizedAffinity>
-4.65024519

$$$$

 OpenBabel03272504493D

 24 26  0  0  0  0  0  0  0  0999 V2000
   37.7770   26.5570   35.6440 C   0  0  0  0  0  0  0  0  0  0  0  0
   38.0560   25.1910   35.4160 C   0  0  0  0  0  0  0  0  0  0  0  0
   38.0500   24.7420   34.1020 C   0  0  0  0  0  0  0  0  0  0  0  0
   37.7760   25.6570   33.1300 N   0  0  0  0  0  0  0  0  0  0  0  0
   37.5150   26.9430   33.3660 C   0  0  0  0  0  0  0  0  0  0  0  0
   37.5170   27.3900   34.6330 N   0  0  0  0  0  0  0  0  0  0  0  0
   37.7780   26.9130   36.6490 H   0  0  0  0  0  0  0  0  0  0  0  0
   38.2540   23.7120   33.8380 H   0  0  0  0  0  0  0  0  0  0  0  0
   37.2330   27.8530   32.2670 C   0  0  0  0  0  0  0  0  0  0  0  0
   36.2710   28.8420   32.4160 C   0  0  0  0  0  0  0  0  0  0  0  0
   35.9640   29.7290   31.4090 C   0  0  0  0  0  0  0  0  0  0  0  0
   36.6820   29.5630   30.2390 C   0  0  0  0  0  0  0  0  0  0  0  0
   37.6540   28.5800   30.0550 C   0  0  0  0  0  0  0  0  0  0  0  0
   37.8950   27.7410   31.1100 N   0  0  0  0  0  0  0  0  0  0  0  0
   35.7620   28.8910   33.3700 H   0  0  0  0  0  0  0  0  0  0  0  0
   35.2180   30.5040   31.5120 H   0  0  0  0  0  0  0  0  0  0  0  0
   36.4620   30.2470   29.4260 H   0  0  0  0  0  0  0  0  0  0  0  0
   38.1900   28.4810   29.1350 H   0  0  0  0  0  0  0  0  0  0  0  0
   38.3340   24.2900   36.4790 N   0  0  0  0  0  0  0  0  0  0  0  0
   38.0180   24.5110   37.8770 C   0  0  0  0  0  2  0  0  0  0  0  0
   38.5750   23.2910   38.5810 C   0  0  0  0  0  2  0  0  0  0  0  0
   39.7250   22.9280   37.6650 C   0  0  0  0  0  2  0  0  0  0  0  0
   38.9810   23.0040   36.3240 C   0  0  0  0  0  3  0  0  0  0  0  0
   38.1850   22.2140   36.3610 H   0  0  0  0  0  0  0  0  0  0  0  0
  1  7  1  0  0  0  0
  2  1  1  0  0  0  0
  2 19  1  0  0  0  0
  3  2  2  0  0  0  0
  4  5  2  0  0  0  0
  4  3  1  0  0  0  0
  5  6  1  0  0  0  0
  6  1  2  0  0  0  0
  8  3  1  0  0  0  0
  9 10  1  0  0  0  0
  9  5  1  0  0  0  0
 10 15  1  0  0  0  0
 11 16  1  0  0  0  0
 11 10  2  0  0  0  0
 12 11  1  0  0  0  0
 13 12  2  0  0  0  0
 13 14  1  0  0  0  0
 14  9  2  0  0  0  0
 17 12  1  0  0  0  0
 18 13  1  0  0  0  0
 19 20  1  0  0  0  0
 20 21  1  0  0  0  0
 22 21  1  0  0  0  0
 23 24  1  0  0  0  0
 23 19  1  0  0  0  0
 23 22  1  0  0  0  0
M  END
>  <minimizedAffinity>
-4.64969015

$$$$

 OpenBabel03272504493D

 24 26  0  0  0  0  0  0  0  0999 V2000
   38.0330   26.9090   35.8720 C   0  0  0  0  0  0  0  0  0  0  0  0
   38.1350   25.5160   35.6590 C   0  0  0  0  0  0  0  0  0  0  0  0
   37.8010   25.0290   34.4020 C   0  0  0  0  0  0  0  0  0  0  0  0
   37.4010   25.9360   33.4660 N   0  0  0  0  0  0  0  0  0  0  0  0
   37.3120   27.2480   33.6870 C   0  0  0  0  0  0  0  0  0  0  0  0
   37.6320   27.7310   34.8980 N   0  0  0  0  0  0  0  0  0  0  0  0
   38.2870   27.2940   36.8320 H   0  0  0  0  0  0  0  0  0  0  0  0
   37.8510   23.9760   34.1540 H   0  0  0  0  0  0  0  0  0  0  0  0
   36.8760   28.1460   32.6290 C   0  0  0  0  0  0  0  0  0  0  0  0
   37.5550   28.1730   31.4200 C   0  0  0  0  0  0  0  0  0  0  0  0
   37.1860   29.0040   30.3860 C   0  0  0  0  0  0  0  0  0  0  0  0
   36.0900   29.8080   30.6390 C   0  0  0  0  0  0  0  0  0  0  0  0
   35.3850   29.8060   31.8420 C   0  0  0  0  0  0  0  0  0  0  0  0
   35.8220   28.9480   32.8160 N   0  0  0  0  0  0  0  0  0  0  0  0
   38.4020   27.5060   31.3180 H   0  0  0  0  0  0  0  0  0  0  0  0
   37.7060   29.0350   29.4390 H   0  0  0  0  0  0  0  0  0  0  0  0
   35.7750   30.4740   29.8430 H   0  0  0  0  0  0  0  0  0  0  0  0
   34.5410   30.4430   32.0030 H   0  0  0  0  0  0  0  0  0  0  0  0
   38.5600   24.6260   36.6820 N   0  0  0  0  0  0  0  0  0  0  0  0
   39.5090   23.5410   36.5150 C   0  0  0  0  0  2  0  0  0  0  0  0
   39.5580   22.8790   37.8770 C   0  0  0  0  0  2  0  0  0  0  0  0
   38.1630   23.1710   38.3910 C   0  0  0  0  0  2  0  0  0  0  0  0
   38.1050   24.6680   38.0550 C   0  0  0  0  0  3  0  0  0  0  0  0
   38.9080   25.1580   38.6670 H   0  0  0  0  0  0  0  0  0  0  0  0
  1  7  1  0  0  0  0
  2  1  1  0  0  0  0
  2 19  1  0  0  0  0
  3  2  2  0  0  0  0
  4  5  2  0  0  0  0
  4  3  1  0  0  0  0
  5  6  1  0  0  0  0
  6  1  2  0  0  0  0
  8  3  1  0  0  0  0
  9 14  1  0  0  0  0
  9  5  1  0  0  0  0
 10  9  2  0  0  0  0
 11 12  2  0  0  0  0
 11 10  1  0  0  0  0
 12 13  1  0  0  0  0
 13 18  1  0  0  0  0
 13 14  2  0  0  0  0
 15 10  1  0  0  0  0
 16 11  1  0  0  0  0
 17 12  1  0  0  0  0
 19 23  1  0  0  0  0
 20 19  1  0  0  0  0
 20 21  1  0  0  0  0
 21 22  1  0  0  0  0
 23 22  1  0  0  0  0
 23 24  1  0  0  0  0
M  END
>  <minimizedAffinity>
-4.55429459

$$$$

 OpenBabel03272504493D

 24 26  0  0  0  0  0  0  0  0999 V2000
   37.1220   24.3960   32.4620 C   0  0  0  0  0  0  0  0  0  0  0  0
   36.1510   23.5530   31.8770 C   0  0  0  0  0  0  0  0  0  0  0  0
   35.1990   24.1380   31.0540 C   0  0  0  0  0  0  0  0  0  0  0  0
   35.2740   25.4870   30.8710 N   0  0  0  0  0  0  0  0  0  0  0  0
   36.1980   26.2670   31.4330 C   0  0  0  0  0  0  0  0  0  0  0  0
   37.1250   25.7120   32.2320 N   0  0  0  0  0  0  0  0  0  0  0  0
   37.8580   23.9580   33.0960 H   0  0  0  0  0  0  0  0  0  0  0  0
   34.4210   23.5650   30.5650 H   0  0  0  0  0  0  0  0  0  0  0  0
   36.2060   27.6990   31.1840 C   0  0  0  0  0  0  0  0  0  0  0  0
   36.9620   28.2170   30.1430 C   0  0  0  0  0  0  0  0  0  0  0  0
   37.0060   29.5640   29.8630 C   0  0  0  0  0  0  0  0  0  0  0  0
   36.2430   30.3640   30.6940 C   0  0  0  0  0  0  0  0  0  0  0  0
   35.4720   29.8770   31.7490 C   0  0  0  0  0  0  0  0  0  0  0  0
   35.4870   28.5230   31.9550 N   0  0  0  0  0  0  0  0  0  0  0  0
   37.5270   27.5100   29.5490 H   0  0  0  0  0  0  0  0  0  0  0  0
   37.5910   29.9810   29.0550 H   0  0  0  0  0  0  0  0  0  0  0  0
   36.2570   31.4310   30.4990 H   0  0  0  0  0  0  0  0  0  0  0  0
   34.8930   30.5250   32.3720 H   0  0  0  0  0  0  0  0  0  0  0  0
   36.1310   22.1500   32.1100 N   0  0  0  0  0  0  0  0  0  0  0  0
   35.6220   21.1500   31.1910 C   0  0  0  0  0  2  0  0  0  0  0  0
   35.7780   19.8440   31.9420 C   0  0  0  0  0  2  0  0  0  0  0  0
   35.6500   20.3170   33.3760 C   0  0  0  0  0  2  0  0  0  0  0  0
   36.6200   21.5050   33.3100 C   0  0  0  0  0  3  0  0  0  0  0  0
   37.6300   21.0750   33.0800 H   0  0  0  0  0  0  0  0  0  0  0  0
  1  7  1  0  0  0  0
  2 19  1  0  0  0  0
  2  1  2  0  0  0  0
  3  2  1  0  0  0  0
  4  3  2  0  0  0  0
  4  5  1  0  0  0  0
  5  6  2  0  0  0  0
  6  1  1  0  0  0  0
  8  3  1  0  0  0  0
  9  5  1  0  0  0  0
  9 14  1  0  0  0  0
 10  9  2  0  0  0  0
 11 10  1  0  0  0  0
 11 12  2  0  0  0  0
 12 13  1  0  0  0  0
 13 14  2  0  0  0  0
 13 18  1  0  0  0  0
 15 10  1  0  0  0  0
 16 11  1  0  0  0  0
 17 12  1  0  0  0  0
 19 23  1  0  0  0  0
 20 21  1  0  0  0  0
 20 19  1  0  0  0  0
 21 22  1  0  0  0  0
 23 22  1  0  0  0  0
 24 23  1  0  0  0  0
M  END
>  <minimizedAffinity>
-4.49150944

$$$$

 OpenBabel03272504493D

 24 26  0  0  0  0  0  0  0  0999 V2000
   37.1240   26.9430   34.6420 C   0  0  0  0  0  0  0  0  0  0  0  0
   37.5010   26.9920   33.2810 C   0  0  0  0  0  0  0  0  0  0  0  0
   38.4770   26.1040   32.8490 C   0  0  0  0  0  0  0  0  0  0  0  0
   38.9990   25.2490   33.7740 N   0  0  0  0  0  0  0  0  0  0  0  0
   38.6300   25.2180   35.0550 C   0  0  0  0  0  0  0  0  0  0  0  0
   37.6860   26.0720   35.4850 N   0  0  0  0  0  0  0  0  0  0  0  0
   36.3760   27.6190   34.9850 H   0  0  0  0  0  0  0  0  0  0  0  0
   38.8240   26.0740   31.8240 H   0  0  0  0  0  0  0  0  0  0  0  0
   39.2380   24.2710   35.9760 C   0  0  0  0  0  0  0  0  0  0  0  0
   40.4550   23.6830   35.6610 C   0  0  0  0  0  0  0  0  0  0  0  0
   41.0750   22.7810   36.4950 C   0  0  0  0  0  0  0  0  0  0  0  0
   40.3980   22.5010   37.6670 C   0  0  0  0  0  0  0  0  0  0  0  0
   39.1750   23.0730   38.0150 C   0  0  0  0  0  0  0  0  0  0  0  0
   38.6310   23.9610   37.1260 N   0  0  0  0  0  0  0  0  0  0  0  0
   40.9060   23.9660   34.7180 H   0  0  0  0  0  0  0  0  0  0  0  0
   42.0220   22.3160   36.2620 H   0  0  0  0  0  0  0  0  0  0  0  0
   40.8620   21.7930   38.3460 H   0  0  0  0  0  0  0  0  0  0  0  0
   38.6790   22.8340   38.9320 H   0  0  0  0  0  0  0  0  0  0  0  0
   36.9150   27.9110   32.3690 N   0  0  0  0  0  0  0  0  0  0  0  0
   37.4520   28.2670   31.0690 C   0  0  0  0  0  2  0  0  0  0  0  0
   36.4900   29.3140   30.5460 C   0  0  0  0  0  2  0  0  0  0  0  0
   36.0000   29.9300   31.8400 C   0  0  0  0  0  2  0  0  0  0  0  0
   35.6840   28.6360   32.6030 C   0  0  0  0  0  3  0  0  0  0  0  0
   34.8700   28.1220   32.0270 H   0  0  0  0  0  0  0  0  0  0  0  0
  1  7  1  0  0  0  0
  1  6  1  0  0  0  0
  2  1  2  0  0  0  0
  3  2  1  0  0  0  0
  3  4  2  0  0  0  0
  4  5  1  0  0  0  0
  5  6  2  0  0  0  0
  5  9  1  0  0  0  0
  8  3  1  0  0  0  0
  9 14  1  0  0  0  0
 10  9  2  0  0  0  0
 10 11  1  0  0  0  0
 11 12  2  0  0  0  0
 12 13  1  0  0  0  0
 12 17  1  0  0  0  0
 13 18  1  0  0  0  0
 14 13  2  0  0  0  0
 15 10  1  0  0  0  0
 16 11  1  0  0  0  0
 19 23  1  0  0  0  0
 19  2  1  0  0  0  0
 20 19  1  0  0  0  0
 21 20  1  0  0  0  0
 21 22  1  0  0  0  0
 22 23  1  0  0  0  0
 24 23  1  0  0  0  0
M  END
>  <minimizedAffinity>
-4.45505142

$$$$

 OpenBabel03272504493D

 24 26  0  0  0  0  0  0  0  0999 V2000
   38.5330   26.0900   36.0380 C   0  0  0  0  0  0  0  0  0  0  0  0
   38.8120   24.8730   35.3780 C   0  0  0  0  0  0  0  0  0  0  0  0
   38.3250   24.7110   34.0870 C   0  0  0  0  0  0  0  0  0  0  0  0
   37.6140   25.7450   33.5540 N   0  0  0  0  0  0  0  0  0  0  0  0
   37.3610   26.8870   34.1940 C   0  0  0  0  0  0  0  0  0  0  0  0
   37.8270   27.0550   35.4430 N   0  0  0  0  0  0  0  0  0  0  0  0
   38.9020   26.2250   37.0290 H   0  0  0  0  0  0  0  0  0  0  0  0
   38.4930   23.8110   33.5110 H   0  0  0  0  0  0  0  0  0  0  0  0
   36.5940   27.9400   33.5490 C   0  0  0  0  0  0  0  0  0  0  0  0
   35.9300   28.8850   34.3190 C   0  0  0  0  0  0  0  0  0  0  0  0
   35.1890   29.9020   33.7600 C   0  0  0  0  0  0  0  0  0  0  0  0
   35.1520   29.9130   32.3780 C   0  0  0  0  0  0  0  0  0  0  0  0
   35.8060   28.9800   31.5740 C   0  0  0  0  0  0  0  0  0  0  0  0
   36.5210   28.0030   32.2150 N   0  0  0  0  0  0  0  0  0  0  0  0
   36.0190   28.7900   35.3940 H   0  0  0  0  0  0  0  0  0  0  0  0
   34.6680   30.6440   34.3480 H   0  0  0  0  0  0  0  0  0  0  0  0
   34.5760   30.7040   31.9090 H   0  0  0  0  0  0  0  0  0  0  0  0
   35.7560   29.0200   30.5070 H   0  0  0  0  0  0  0  0  0  0  0  0
   39.5620   23.8340   35.9940 N   0  0  0  0  0  0  0  0  0  0  0  0
   39.2680   23.2310   37.2810 C   0  0  0  0  0  2  0  0  0  0  0  0
   40.3920   22.2390   37.4910 C   0  0  0  0  0  2  0  0  0  0  0  0
   41.5130   22.9020   36.7160 C   0  0  0  0  0  2  0  0  0  0  0  0
   40.7410   23.2170   35.4260 C   0  0  0  0  0  3  0  0  0  0  0  0
   40.4360   22.2280   34.9930 H   0  0  0  0  0  0  0  0  0  0  0  0
  1  7  1  0  0  0  0
  2 19  1  0  0  0  0
  2  1  2  0  0  0  0
  3  2  1  0  0  0  0
  4  3  2  0  0  0  0
  4  5  1  0  0  0  0
  5  6  2  0  0  0  0
  6  1  1  0  0  0  0
  8  3  1  0  0  0  0
  9  5  1  0  0  0  0
  9 10  1  0  0  0  0
 10 15  1  0  0  0  0
 11 10  2  0  0  0  0
 11 16  1  0  0  0  0
 12 11  1  0  0  0  0
 13 14  1  0  0  0  0
 13 12  2  0  0  0  0
 14  9  2  0  0  0  0
 17 12  1  0  0  0  0
 18 13  1  0  0  0  0
 19 20  1  0  0  0  0
 20 21  1  0  0  0  0
 22 21  1  0  0  0  0
 23 19  1  0  0  0  0
 23 22  1  0  0  0  0
 24 23  1  0  0  0  0
M  END
>  <minimizedAffinity>
-4.43499947

$$$$

 OpenBabel03272504493D

 24 26  0  0  0  0  0  0  0  0999 V2000
   38.1570   25.2440   36.0470 C   0  0  0  0  0  0  0  0  0  0  0  0
   39.2520   24.6410   35.3900 C   0  0  0  0  0  0  0  0  0  0  0  0
   39.5710   25.0920   34.1160 C   0  0  0  0  0  0  0  0  0  0  0  0
   38.8000   26.0890   33.5950 N   0  0  0  0  0  0  0  0  0  0  0  0
   37.7690   26.6460   34.2320 C   0  0  0  0  0  0  0  0  0  0  0  0
   37.4510   26.2180   35.4650 N   0  0  0  0  0  0  0  0  0  0  0  0
   37.9040   24.9060   37.0250 H   0  0  0  0  0  0  0  0  0  0  0  0
   40.3940   24.6850   33.5430 H   0  0  0  0  0  0  0  0  0  0  0  0
   36.9990   27.7070   33.6010 C   0  0  0  0  0  0  0  0  0  0  0  0
   37.1660   27.9750   32.2510 C   0  0  0  0  0  0  0  0  0  0  0  0
   36.4640   28.9670   31.6040 C   0  0  0  0  0  0  0  0  0  0  0  0
   35.5820   29.6770   32.3970 C   0  0  0  0  0  0  0  0  0  0  0  0
   35.3890   29.4340   33.7570 C   0  0  0  0  0  0  0  0  0  0  0  0
   36.1300   28.4280   34.3180 N   0  0  0  0  0  0  0  0  0  0  0  0
   37.8820   27.3650   31.7150 H   0  0  0  0  0  0  0  0  0  0  0  0
   36.5840   29.1860   30.5520 H   0  0  0  0  0  0  0  0  0  0  0  0
   35.0130   30.4650   31.9150 H   0  0  0  0  0  0  0  0  0  0  0  0
   34.6970   30.0030   34.3400 H   0  0  0  0  0  0  0  0  0  0  0  0
   40.0150   23.6040   35.9930 N   0  0  0  0  0  0  0  0  0  0  0  0
   39.6750   22.9110   37.2210 C   0  0  0  0  0  2  0  0  0  0  0  0
   40.8340   21.9620   37.4450 C   0  0  0  0  0  2  0  0  0  0  0  0
   41.9640   22.7240   36.7830 C   0  0  0  0  0  2  0  0  0  0  0  0
   41.2580   23.0790   35.4670 C   0  0  0  0  0  3  0  0  0  0  0  0
   41.0300   22.1050   34.9580 H   0  0  0  0  0  0  0  0  0  0  0  0
  1  7  1  0  0  0  0
  2 19  1  0  0  0  0
  2  1  2  0  0  0  0
  3  2  1  0  0  0  0
  4  3  2  0  0  0  0
  4  5  1  0  0  0  0
  5  6  2  0  0  0  0
  6  1  1  0  0  0  0
  8  3  1  0  0  0  0
  9  5  1  0  0  0  0
  9 14  1  0  0  0  0
 10  9  2  0  0  0  0
 11 10  1  0  0  0  0
 11 12  2  0  0  0  0
 12 13  1  0  0  0  0
 13 14  2  0  0  0  0
 13 18  1  0  0  0  0
 15 10  1  0  0  0  0
 16 11  1  0  0  0  0
 17 12  1  0  0  0  0
 19 20  1  0  0  0  0
 20 21  1  0  0  0  0
 22 21  1  0  0  0  0
 23 19  1  0  0  0  0
 23 22  1  0  0  0  0
 24 23  1  0  0  0  0
M  END
>  <minimizedAffinity>
-4.43340969

$$$$
