
 OpenBabel03272510193D

 33 36  0  0  0  0  0  0  0  0999 V2000
   37.4040   29.1920   50.8530 Br  0  0  0  0  0  0  0  0  0  0  0  0
   36.0020   29.2740   49.5590 C   0  0  0  0  0  0  0  0  0  0  0  0
   36.0010   30.2680   48.5800 C   0  0  0  0  0  0  0  0  0  0  0  0
   34.9550   30.2610   47.6820 C   0  0  0  0  0  0  0  0  0  0  0  0
   33.9280   29.3310   47.7050 C   0  0  0  0  0  0  0  0  0  0  0  0
   33.9640   28.3750   48.6750 C   0  0  0  0  0  0  0  0  0  0  0  0
   34.9970   28.3580   49.5870 C   0  0  0  0  0  0  0  0  0  0  0  0
   34.8980   31.0150   46.8910 H   0  0  0  0  0  0  0  0  0  0  0  0
   33.2100   27.6030   48.7790 H   0  0  0  0  0  0  0  0  0  0  0  0
   35.0220   27.5940   50.3570 H   0  0  0  0  0  0  0  0  0  0  0  0
   32.8360   29.3430   46.7470 C   0  0  0  0  0  0  0  0  0  0  0  0
   32.0560   28.2380   46.4440 C   0  0  0  0  0  0  0  0  0  0  0  0
   31.0200   28.2770   45.5250 C   0  0  0  0  0  0  0  0  0  0  0  0
   30.7550   29.4250   44.9010 N   0  0  0  0  0  0  0  0  0  0  0  0
   31.5050   30.5170   45.1830 C   0  0  0  0  0  0  0  0  0  0  0  0
   32.4920   30.4420   46.0710 N   0  0  0  0  0  0  0  0  0  0  0  0
   32.2700   27.2960   46.9540 H   0  0  0  0  0  0  0  0  0  0  0  0
   30.4500   27.3760   45.3350 H   0  0  0  0  0  0  0  0  0  0  0  0
   31.2160   31.7390   44.5130 N   0  0  0  0  0  0  0  0  0  0  0  0
   32.2260   32.6290   43.9180 C   0  0  0  0  0  2  0  0  0  0  0  0
   31.5150   33.9630   43.7590 C   0  0  0  0  0  2  0  0  0  0  0  0
   30.1260   33.4560   43.3490 C   0  0  0  0  0  2  0  0  0  0  0  0
   29.9100   32.3250   44.2930 C   0  0  0  0  0  3  0  0  0  0  0  0
   29.1760   31.6270   43.8630 H   0  0  0  0  0  0  0  0  0  0  0  0
   38.0020   33.1790   49.4650 C   0  0  0  0  0  0  0  0  0  0  0  0
   39.0340   33.1760   48.4670 C   0  0  0  0  0  0  0  0  0  0  0  0
   39.0150   32.1670   47.5100 C   0  0  0  0  0  0  0  0  0  0  0  0
   38.0190   31.2290   47.5630 N   0  0  0  0  0  0  0  0  0  0  0  0
   37.0570   31.2610   48.5210 C   0  0  0  0  0  0  0  0  0  0  0  0
   37.0510   32.2380   49.4700 N   0  0  0  0  0  0  0  0  0  0  0  0
   37.9450   33.9250   50.2410 H   0  0  0  0  0  0  0  0  0  0  0  0
   39.7730   33.9660   48.5180 H   0  0  0  0  0  0  0  0  0  0  0  0
   39.7740   32.1550   46.7670 H   0  0  0  0  0  0  0  0  0  0  0  0
  2  7  1  0  0  0  0
  2  1  1  0  0  0  0
  3  2  2  0  0  0  0
  4  5  2  0  0  0  0
  4  3  1  0  0  0  0
  5  6  1  0  0  0  0
  6  9  1  0  0  0  0
  6  7  2  0  0  0  0
  7 10  1  0  0  0  0
  8  4  1  0  0  0  0
 11  5  1  0  0  0  0
 12 11  1  0  0  0  0
 12 17  1  0  0  0  0
 13 12  2  0  0  0  0
 14 15  2  0  0  0  0
 14 13  1  0  0  0  0
 15 16  1  0  0  0  0
 16 11  2  0  0  0  0
 18 13  1  0  0  0  0
 19 15  1  0  0  0  0
 20 19  1  0  0  0  0
 21 20  1  0  0  0  0
 22 21  1  0  0  0  0
 22 23  1  0  0  0  0
 23 19  1  0  0  0  0
 24 23  1  0  0  0  0
 25 30  1  0  0  0  0
 25 31  1  0  0  0  0
 26 32  1  0  0  0  0
 26 25  2  0  0  0  0
 27 28  2  0  0  0  0
 27 26  1  0  0  0  0
 28 29  1  0  0  0  0
 29  3  1  0  0  0  0
 29 30  2  0  0  0  0
 33 27  1  0  0  0  0
M  END
>  <minimizedAffinity>
-6.70018816

>  <minimizedRMSD>
0.21786052

$$$$
