
 OpenBabel03272504473D

 24 26  0  0  0  0  0  0  0  0999 V2000
   35.6900   29.8700   49.6390 C   0  0  0  0  0  0  0  0  0  0  0  0
   36.1520   30.5910   48.5160 C   0  0  0  0  0  0  0  0  0  0  0  0
   35.6160   30.2690   47.2760 C   0  0  0  0  0  0  0  0  0  0  0  0
   34.6800   29.2790   47.2380 N   0  0  0  0  0  0  0  0  0  0  0  0
   34.2570   28.6090   48.3110 C   0  0  0  0  0  0  0  0  0  0  0  0
   34.7680   28.9110   49.5160 N   0  0  0  0  0  0  0  0  0  0  0  0
   36.0950   30.1080   50.5960 H   0  0  0  0  0  0  0  0  0  0  0  0
   35.9140   30.7730   46.3650 H   0  0  0  0  0  0  0  0  0  0  0  0
   33.2520   27.5650   48.1800 C   0  0  0  0  0  0  0  0  0  0  0  0
   33.5760   26.3660   47.5630 C   0  0  0  0  0  0  0  0  0  0  0  0
   32.6650   25.3460   47.4120 C   0  0  0  0  0  0  0  0  0  0  0  0
   31.4040   25.6020   47.9180 C   0  0  0  0  0  0  0  0  0  0  0  0
   31.0450   26.7950   48.5440 C   0  0  0  0  0  0  0  0  0  0  0  0
   32.0150   27.7560   48.6500 N   0  0  0  0  0  0  0  0  0  0  0  0
   34.5900   26.2610   47.1980 H   0  0  0  0  0  0  0  0  0  0  0  0
   32.9040   24.4060   46.9330 H   0  0  0  0  0  0  0  0  0  0  0  0
   30.6640   24.8160   47.8140 H   0  0  0  0  0  0  0  0  0  0  0  0
   30.0590   26.9590   48.9240 H   0  0  0  0  0  0  0  0  0  0  0  0
   37.1330   31.6140   48.6270 N   0  0  0  0  0  0  0  0  0  0  0  0
   38.1460   31.9240   47.6360 C   0  0  0  0  0  0  0  0  0  0  0  0
   38.9560   33.0360   48.2680 C   0  0  0  0  0  0  0  0  0  0  0  0
   38.7900   32.7150   49.7400 C   0  0  0  0  0  0  0  0  0  0  0  0
   37.2690   32.5090   49.7570 C   0  0  0  0  0  0  0  0  0  0  0  0
   36.8140   33.4940   49.4710 H   0  0  0  0  0  0  0  0  0  0  0  0
  1  7  1  0  0  0  0
  2 19  1  0  0  0  0
  2  1  2  0  0  0  0
  3  2  1  0  0  0  0
  4  3  2  0  0  0  0
  4  5  1  0  0  0  0
  5  6  2  0  0  0  0
  6  1  1  0  0  0  0
  8  3  1  0  0  0  0
  9  5  1  0  0  0  0
  9 14  1  0  0  0  0
 10  9  2  0  0  0  0
 11 10  1  0  0  0  0
 11 12  2  0  0  0  0
 12 13  1  0  0  0  0
 13 14  2  0  0  0  0
 13 18  1  0  0  0  0
 15 10  1  0  0  0  0
 16 11  1  0  0  0  0
 17 12  1  0  0  0  0
 19 23  1  0  0  0  0
 20 21  1  0  0  0  0
 20 19  1  0  0  0  0
 21 22  1  0  0  0  0
 22 23  1  0  0  0  0
 24 23  1  0  0  0  0
M  END
>  <minimizedAffinity>
-4.79482174

>  <minimizedRMSD>
3.95824313

$$$$
