
 OpenBabel03272510183D

 33 36  0  0  0  0  0  0  0  0999 V2000
   37.4470   29.1750   50.8200 Br  0  0  0  0  0  0  0  0  0  0  0  0
   36.0310   29.2930   49.5450 C   0  0  0  0  0  0  0  0  0  0  0  0
   36.0220   30.3100   48.5900 C   0  0  0  0  0  0  0  0  0  0  0  0
   34.9650   30.3280   47.7040 C   0  0  0  0  0  0  0  0  0  0  0  0
   33.9340   29.4020   47.7190 C   0  0  0  0  0  0  0  0  0  0  0  0
   33.9780   28.4230   48.6650 C   0  0  0  0  0  0  0  0  0  0  0  0
   35.0220   28.3810   49.5640 C   0  0  0  0  0  0  0  0  0  0  0  0
   34.9020   31.0990   46.9320 H   0  0  0  0  0  0  0  0  0  0  0  0
   33.2220   27.6530   48.7620 H   0  0  0  0  0  0  0  0  0  0  0  0
   35.0520   27.5990   50.3170 H   0  0  0  0  0  0  0  0  0  0  0  0
   32.8320   29.4400   46.7740 C   0  0  0  0  0  0  0  0  0  0  0  0
   31.9200   28.4100   46.6010 C   0  0  0  0  0  0  0  0  0  0  0  0
   30.8770   28.4730   45.6920 C   0  0  0  0  0  0  0  0  0  0  0  0
   30.7350   29.5710   44.9480 N   0  0  0  0  0  0  0  0  0  0  0  0
   31.6150   30.5890   45.1010 C   0  0  0  0  0  0  0  0  0  0  0  0
   32.6050   30.4930   45.9840 N   0  0  0  0  0  0  0  0  0  0  0  0
   32.0330   27.5100   47.2100 H   0  0  0  0  0  0  0  0  0  0  0  0
   30.2010   27.6310   45.6080 H   0  0  0  0  0  0  0  0  0  0  0  0
   31.4580   31.7570   44.3040 N   0  0  0  0  0  0  0  0  0  0  0  0
   32.3010   32.1050   43.1490 C   0  0  0  0  0  2  0  0  0  0  0  0
   32.0690   33.5910   42.9370 C   0  0  0  0  0  2  0  0  0  0  0  0
   30.5700   33.6550   43.2550 C   0  0  0  0  0  2  0  0  0  0  0  0
   30.4660   32.7990   44.4700 C   0  0  0  0  0  3  0  0  0  0  0  0
   29.4360   32.4220   44.5620 H   0  0  0  0  0  0  0  0  0  0  0  0
   38.0290   33.2090   49.4990 C   0  0  0  0  0  0  0  0  0  0  0  0
   39.0650   33.2070   48.5060 C   0  0  0  0  0  0  0  0  0  0  0  0
   39.0480   32.2030   47.5440 C   0  0  0  0  0  0  0  0  0  0  0  0
   38.0490   31.2680   47.5870 N   0  0  0  0  0  0  0  0  0  0  0  0
   37.0820   31.2990   48.5410 C   0  0  0  0  0  0  0  0  0  0  0  0
   37.0750   32.2710   49.4950 N   0  0  0  0  0  0  0  0  0  0  0  0
   37.9710   33.9520   50.2780 H   0  0  0  0  0  0  0  0  0  0  0  0
   39.8070   33.9940   48.5640 H   0  0  0  0  0  0  0  0  0  0  0  0
   39.8100   32.1920   46.8040 H   0  0  0  0  0  0  0  0  0  0  0  0
  2  7  1  0  0  0  0
  2  1  1  0  0  0  0
  3  2  2  0  0  0  0
  4  5  2  0  0  0  0
  4  3  1  0  0  0  0
  5  6  1  0  0  0  0
  6  9  1  0  0  0  0
  6  7  2  0  0  0  0
  7 10  1  0  0  0  0
  8  4  1  0  0  0  0
 11  5  1  0  0  0  0
 12 11  1  0  0  0  0
 12 17  1  0  0  0  0
 13 12  2  0  0  0  0
 14 15  2  0  0  0  0
 14 13  1  0  0  0  0
 15 16  1  0  0  0  0
 16 11  2  0  0  0  0
 18 13  1  0  0  0  0
 19 23  1  0  0  0  0
 19 15  1  0  0  0  0
 20 19  1  0  0  0  0
 21 20  1  0  0  0  0
 21 22  1  0  0  0  0
 22 23  1  0  0  0  0
 23 24  1  0  0  0  0
 25 31  1  0  0  0  0
 26 32  1  0  0  0  0
 26 25  2  0  0  0  0
 27 28  2  0  0  0  0
 27 26  1  0  0  0  0
 28 29  1  0  0  0  0
 29  3  1  0  0  0  0
 29 30  2  0  0  0  0
 30 25  1  0  0  0  0
 33 27  1  0  0  0  0
M  END
>  <minimizedAffinity>
-6.58531523

>  <minimizedRMSD>
0.442801058

$$$$
