
 OpenBabel03272508343D

 22 24  0  0  1  0  0  0  0  0999 V2000
   38.3990   24.7710   35.7360 C   0  0  0  0  0  0  0  0  0  0  0  0
   37.7720   24.2610   36.8420 C   0  0  0  0  0  0  0  0  0  0  0  0
   38.6540   23.3890   37.4700 C   0  0  0  0  0  0  0  0  0  0  0  0
   39.7790   23.3980   36.7290 N   0  0  0  0  0  0  0  0  0  0  0  0
   39.6350   24.2220   35.6910 N   0  0  0  0  0  0  0  0  0  0  0  0
   36.7680   24.4890   37.1780 H   0  0  0  0  0  0  0  0  0  0  0  0
   38.5030   22.8140   38.3560 H   0  0  0  0  0  0  0  0  0  0  0  0
   36.8260   27.8500   34.2420 C   0  0  0  0  0  0  0  0  0  0  0  0
   37.4280   27.0350   35.2100 C   0  0  0  0  0  0  0  0  0  0  0  0
   37.7650   25.7320   34.8270 C   0  0  0  0  0  0  0  0  0  0  0  0
   37.4940   25.3170   33.5350 N   0  0  0  0  0  0  0  0  0  0  0  0
   36.9080   26.1570   32.6410 C   0  0  0  0  0  0  0  0  0  0  0  0
   36.5800   27.4130   33.0010 N   0  0  0  0  0  0  0  0  0  0  0  0
   36.5660   28.8490   34.5300 H   0  0  0  0  0  0  0  0  0  0  0  0
   37.6440   27.3470   36.2210 H   0  0  0  0  0  0  0  0  0  0  0  0
   36.7660   25.6800   31.6810 H   0  0  0  0  0  0  0  0  0  0  0  0
   40.1170   20.9080   37.3170 H   0  0  0  0  0  0  0  0  0  0  0  0
   40.8540   21.5080   37.7850 N   0  0  0  0  0  0  0  0  0  0  0  0
   42.1320   20.8290   37.6180 C   0  0  0  0  0  2  0  0  0  0  0  0
   42.5960   21.1190   36.2000 C   0  0  0  0  0  2  0  0  0  0  0  0
   41.4930   22.0200   35.6490 C   0  0  0  0  0  2  0  0  0  0  0  0
   41.0060   22.6630   36.9480 C   0  0  1  0  0  3  0  0  0  0  0  0
  1  2  1  0  0  0  0
  2  6  1  0  0  0  0
  2  3  2  0  0  0  0
  3  7  1  0  0  0  0
  4 22  1  0  0  0  0
  4  3  1  0  0  0  0
  5  1  2  0  0  0  0
  5  4  1  0  0  0  0
  8 14  1  0  0  0  0
  8  9  1  0  0  0  0
  9 15  1  0  0  0  0
 10  9  2  0  0  0  0
 10  1  1  0  0  0  0
 11 10  1  0  0  0  0
 12 13  1  0  0  0  0
 12 11  2  0  0  0  0
 13  8  2  0  0  0  0
 16 12  1  0  0  0  0
 17 18  1  0  0  0  0
 19 18  1  0  0  0  0
 20 19  1  0  0  0  0
 21 20  1  0  0  0  0
 22 21  1  6  0  0  0
 22 18  1  0  0  0  0
M  END
>  <minimizedAffinity>
-4.73355436

$$$$

 OpenBabel03272508343D

 22 24  0  0  1  0  0  0  0  0999 V2000
   37.4980   27.0620   34.1950 C   0  0  0  0  0  0  0  0  0  0  0  0
   37.9180   27.7920   35.2760 C   0  0  0  0  0  0  0  0  0  0  0  0
   38.2610   26.9000   36.2860 C   0  0  0  0  0  0  0  0  0  0  0  0
   38.0400   25.6680   35.7890 N   0  0  0  0  0  0  0  0  0  0  0  0
   37.5840   25.7560   34.5390 N   0  0  0  0  0  0  0  0  0  0  0  0
   37.9770   28.8710   35.3440 H   0  0  0  0  0  0  0  0  0  0  0  0
   38.6260   27.1140   37.2650 H   0  0  0  0  0  0  0  0  0  0  0  0
   35.8150   29.2330   31.6180 C   0  0  0  0  0  0  0  0  0  0  0  0
   36.1530   28.7430   32.8860 C   0  0  0  0  0  0  0  0  0  0  0  0
   37.0570   27.6750   32.9370 C   0  0  0  0  0  0  0  0  0  0  0  0
   37.5660   27.1650   31.7570 N   0  0  0  0  0  0  0  0  0  0  0  0
   37.2000   27.6860   30.5560 C   0  0  0  0  0  0  0  0  0  0  0  0
   36.3300   28.7130   30.4970 N   0  0  0  0  0  0  0  0  0  0  0  0
   35.1230   30.0500   31.5730 H   0  0  0  0  0  0  0  0  0  0  0  0
   35.7620   29.1310   33.8140 H   0  0  0  0  0  0  0  0  0  0  0  0
   37.6860   27.1760   29.7350 H   0  0  0  0  0  0  0  0  0  0  0  0
   40.2030   24.6210   36.7280 H   0  0  0  0  0  0  0  0  0  0  0  0
   39.5710   23.8750   36.3190 N   0  0  0  0  0  0  0  0  0  0  0  0
   39.5600   22.7590   37.2540 C   0  0  0  0  0  2  0  0  0  0  0  0
   38.6120   23.1430   38.3780 C   0  0  0  0  0  2  0  0  0  0  0  0
   38.1050   24.5190   37.9520 C   0  0  0  0  0  2  0  0  0  0  0  0
   38.2370   24.3890   36.4340 C   0  0  1  0  0  3  0  0  0  0  0  0
  1  5  2  0  0  0  0
  1  2  1  0  0  0  0
  2  6  1  0  0  0  0
  2  3  2  0  0  0  0
  3  7  1  0  0  0  0
  4  3  1  0  0  0  0
  5  4  1  0  0  0  0
  8  9  1  0  0  0  0
  9 10  2  0  0  0  0
  9 15  1  0  0  0  0
 10  1  1  0  0  0  0
 11 10  1  0  0  0  0
 12 11  2  0  0  0  0
 13 12  1  0  0  0  0
 13  8  2  0  0  0  0
 14  8  1  0  0  0  0
 16 12  1  0  0  0  0
 18 22  1  0  0  0  0
 18 17  1  0  0  0  0
 18 19  1  0  0  0  0
 19 20  1  0  0  0  0
 21 20  1  0  0  0  0
 22  4  1  6  0  0  0
 22 21  1  0  0  0  0
M  END
>  <minimizedAffinity>
-4.59475994

$$$$

 OpenBabel03272508343D

 22 24  0  0  1  0  0  0  0  0999 V2000
   38.1650   25.8440   35.6050 C   0  0  0  0  0  0  0  0  0  0  0  0
   38.1640   27.1320   36.0710 C   0  0  0  0  0  0  0  0  0  0  0  0
   37.6010   27.9410   35.0900 C   0  0  0  0  0  0  0  0  0  0  0  0
   37.2830   27.1240   34.0690 N   0  0  0  0  0  0  0  0  0  0  0  0
   37.6150   25.8690   34.3680 N   0  0  0  0  0  0  0  0  0  0  0  0
   38.5320   27.4720   37.0310 H   0  0  0  0  0  0  0  0  0  0  0  0
   37.4420   28.9960   35.1100 H   0  0  0  0  0  0  0  0  0  0  0  0
   38.7580   23.2350   38.2550 C   0  0  0  0  0  0  0  0  0  0  0  0
   38.1660   24.3360   37.6220 C   0  0  0  0  0  0  0  0  0  0  0  0
   38.6860   24.7120   36.3790 C   0  0  0  0  0  0  0  0  0  0  0  0
   39.7380   23.9930   35.8410 N   0  0  0  0  0  0  0  0  0  0  0  0
   40.2690   22.9330   36.5050 C   0  0  0  0  0  0  0  0  0  0  0  0
   39.7760   22.5630   37.7030 N   0  0  0  0  0  0  0  0  0  0  0  0
   38.3640   22.9420   39.2080 H   0  0  0  0  0  0  0  0  0  0  0  0
   37.3450   24.9050   38.0310 H   0  0  0  0  0  0  0  0  0  0  0  0
   41.0820   22.4820   35.9510 H   0  0  0  0  0  0  0  0  0  0  0  0
   36.8790   29.4430   33.0100 H   0  0  0  0  0  0  0  0  0  0  0  0
   36.0930   28.7760   32.7650 N   0  0  0  0  0  0  0  0  0  0  0  0
   35.8050   28.9520   31.3490 C   0  0  0  0  0  2  0  0  0  0  0  0
   36.8770   28.1890   30.5880 C   0  0  0  0  0  2  0  0  0  0  0  0
   37.7250   27.5770   31.7010 C   0  0  0  0  0  2  0  0  0  0  0  0
   36.6700   27.4640   32.8030 C   0  0  1  0  0  3  0  0  0  0  0  0
  1  2  1  0  0  0  0
  1 10  1  0  0  0  0
  2  6  1  0  0  0  0
  3  7  1  0  0  0  0
  3  2  2  0  0  0  0
  4  5  1  0  0  0  0
  4  3  1  0  0  0  0
  5  1  2  0  0  0  0
  8 14  1  0  0  0  0
  9 15  1  0  0  0  0
  9  8  2  0  0  0  0
 10  9  1  0  0  0  0
 11 10  2  0  0  0  0
 11 12  1  0  0  0  0
 12 13  2  0  0  0  0
 13  8  1  0  0  0  0
 16 12  1  0  0  0  0
 18 22  1  0  0  0  0
 18 17  1  0  0  0  0
 19 18  1  0  0  0  0
 20 19  1  0  0  0  0
 20 21  1  0  0  0  0
 22 21  1  6  0  0  0
 22  4  1  0  0  0  0
M  END
>  <minimizedAffinity>
-4.47101498

$$$$

 OpenBabel03272508343D

 22 24  0  0  1  0  0  0  0  0999 V2000
   36.3600   23.6060   31.9410 C   0  0  0  0  0  0  0  0  0  0  0  0
   35.7470   24.5880   31.2090 C   0  0  0  0  0  0  0  0  0  0  0  0
   36.1700   25.8170   31.7050 C   0  0  0  0  0  0  0  0  0  0  0  0
   37.0180   25.5420   32.7140 N   0  0  0  0  0  0  0  0  0  0  0  0
   37.1380   24.2220   32.8620 N   0  0  0  0  0  0  0  0  0  0  0  0
   35.0560   24.4470   30.3880 H   0  0  0  0  0  0  0  0  0  0  0  0
   35.8960   26.7950   31.3770 H   0  0  0  0  0  0  0  0  0  0  0  0
   35.0170   20.0880   31.9540 C   0  0  0  0  0  0  0  0  0  0  0  0
   35.1020   21.4490   32.2730 C   0  0  0  0  0  0  0  0  0  0  0  0
   36.1500   22.1750   31.6960 C   0  0  0  0  0  0  0  0  0  0  0  0
   37.0360   21.5280   30.8520 N   0  0  0  0  0  0  0  0  0  0  0  0
   36.8990   20.2030   30.5820 C   0  0  0  0  0  0  0  0  0  0  0  0
   35.8940   19.4950   31.1330 N   0  0  0  0  0  0  0  0  0  0  0  0
   34.2160   19.5260   32.3940 H   0  0  0  0  0  0  0  0  0  0  0  0
   34.4180   21.9660   32.9290 H   0  0  0  0  0  0  0  0  0  0  0  0
   37.6690   19.8520   29.9090 H   0  0  0  0  0  0  0  0  0  0  0  0
   36.9460   25.8090   35.2790 H   0  0  0  0  0  0  0  0  0  0  0  0
   37.0820   26.7480   34.8080 N   0  0  0  0  0  0  0  0  0  0  0  0
   38.1120   27.4590   35.5510 C   0  0  0  0  0  2  0  0  0  0  0  0
   39.4460   26.8850   35.1030 C   0  0  0  0  0  2  0  0  0  0  0  0
   39.0460   25.8500   34.0540 C   0  0  0  0  0  2  0  0  0  0  0  0
   37.7360   26.4670   33.5630 C   0  0  1  0  0  3  0  0  0  0  0  0
  1  5  2  0  0  0  0
  2  3  2  0  0  0  0
  2  1  1  0  0  0  0
  3  4  1  0  0  0  0
  4  5  1  0  0  0  0
  6  2  1  0  0  0  0
  7  3  1  0  0  0  0
  8  9  1  0  0  0  0
  8 14  1  0  0  0  0
  9 15  1  0  0  0  0
 10  1  1  0  0  0  0
 10  9  2  0  0  0  0
 11 10  1  0  0  0  0
 12 11  2  0  0  0  0
 12 13  1  0  0  0  0
 13  8  2  0  0  0  0
 16 12  1  0  0  0  0
 18 17  1  0  0  0  0
 18 19  1  0  0  0  0
 20 19  1  0  0  0  0
 21 20  1  0  0  0  0
 22  4  1  6  0  0  0
 22 21  1  0  0  0  0
 22 18  1  0  0  0  0
M  END
>  <minimizedAffinity>
-4.46970844

$$$$

 OpenBabel03272508343D

 22 24  0  0  1  0  0  0  0  0999 V2000
   37.8550   22.6280   34.8720 C   0  0  0  0  0  0  0  0  0  0  0  0
   38.0900   23.4380   33.7930 C   0  0  0  0  0  0  0  0  0  0  0  0
   37.5150   22.8410   32.6760 C   0  0  0  0  0  0  0  0  0  0  0  0
   36.9550   21.6970   33.1120 N   0  0  0  0  0  0  0  0  0  0  0  0
   37.1530   21.5610   34.4230 N   0  0  0  0  0  0  0  0  0  0  0  0
   38.6260   24.3790   33.7950 H   0  0  0  0  0  0  0  0  0  0  0  0
   37.5030   23.1900   31.6680 H   0  0  0  0  0  0  0  0  0  0  0  0
   39.8720   22.8880   38.0420 C   0  0  0  0  0  0  0  0  0  0  0  0
   39.5530   22.5150   36.7290 C   0  0  0  0  0  0  0  0  0  0  0  0
   38.3190   22.9440   36.2270 C   0  0  0  0  0  0  0  0  0  0  0  0
   37.4890   23.7020   37.0330 N   0  0  0  0  0  0  0  0  0  0  0  0
   37.8570   24.0310   38.2990 C   0  0  0  0  0  0  0  0  0  0  0  0
   39.0420   23.6230   38.7920 N   0  0  0  0  0  0  0  0  0  0  0  0
   40.8160   22.5620   38.4320 H   0  0  0  0  0  0  0  0  0  0  0  0
   40.1920   21.9240   36.0910 H   0  0  0  0  0  0  0  0  0  0  0  0
   37.0990   24.6240   38.7940 H   0  0  0  0  0  0  0  0  0  0  0  0
   37.7720   19.4460   32.1500 H   0  0  0  0  0  0  0  0  0  0  0  0
   37.0580   19.8910   31.5070 N   0  0  0  0  0  0  0  0  0  0  0  0
   36.1430   18.8410   31.0840 C   0  0  0  0  0  2  0  0  0  0  0  0
   35.1740   18.6190   32.2340 C   0  0  0  0  0  2  0  0  0  0  0  0
   35.6250   19.6450   33.2720 C   0  0  0  0  0  2  0  0  0  0  0  0
   36.2290   20.7040   32.3500 C   0  0  1  0  0  3  0  0  0  0  0  0
  1 10  1  0  0  0  0
  2  6  1  0  0  0  0
  2  1  1  0  0  0  0
  3  4  1  0  0  0  0
  3  2  2  0  0  0  0
  4  5  1  0  0  0  0
  5  1  2  0  0  0  0
  7  3  1  0  0  0  0
  8 14  1  0  0  0  0
  8 13  1  0  0  0  0
  9  8  2  0  0  0  0
 10  9  1  0  0  0  0
 10 11  2  0  0  0  0
 11 12  1  0  0  0  0
 12 13  2  0  0  0  0
 12 16  1  0  0  0  0
 15  9  1  0  0  0  0
 18 17  1  0  0  0  0
 18 22  1  0  0  0  0
 19 18  1  0  0  0  0
 19 20  1  0  0  0  0
 20 21  1  0  0  0  0
 22  4  1  1  0  0  0
 22 21  1  0  0  0  0
M  END
>  <minimizedAffinity>
-4.46906996

$$$$

 OpenBabel03272508343D

 22 24  0  0  1  0  0  0  0  0999 V2000
   38.0020   25.1140   34.8530 C   0  0  0  0  0  0  0  0  0  0  0  0
   37.9040   24.5700   33.5990 C   0  0  0  0  0  0  0  0  0  0  0  0
   37.4120   25.5510   32.7450 C   0  0  0  0  0  0  0  0  0  0  0  0
   37.2280   26.6490   33.5020 N   0  0  0  0  0  0  0  0  0  0  0  0
   37.5790   26.3970   34.7630 N   0  0  0  0  0  0  0  0  0  0  0  0
   38.1620   23.5580   33.3120 H   0  0  0  0  0  0  0  0  0  0  0  0
   37.2080   25.4800   31.7000 H   0  0  0  0  0  0  0  0  0  0  0  0
   39.9670   22.8710   37.1530 C   0  0  0  0  0  0  0  0  0  0  0  0
   39.6110   23.5290   35.9680 C   0  0  0  0  0  0  0  0  0  0  0  0
   38.4890   24.3650   36.0160 C   0  0  0  0  0  0  0  0  0  0  0  0
   37.7980   24.5010   37.2060 N   0  0  0  0  0  0  0  0  0  0  0  0
   38.1960   23.8350   38.3230 C   0  0  0  0  0  0  0  0  0  0  0  0
   39.2740   23.0280   38.2870 N   0  0  0  0  0  0  0  0  0  0  0  0
   40.8260   22.2300   37.1220 H   0  0  0  0  0  0  0  0  0  0  0  0
   40.1410   23.4310   35.0330 H   0  0  0  0  0  0  0  0  0  0  0  0
   37.5520   24.0490   39.1650 H   0  0  0  0  0  0  0  0  0  0  0  0
   34.8950   27.3140   32.6210 H   0  0  0  0  0  0  0  0  0  0  0  0
   35.6510   27.8940   32.1580 N   0  0  0  0  0  0  0  0  0  0  0  0
   35.1850   29.2730   32.1380 C   0  0  0  0  0  2  0  0  0  0  0  0
   35.4160   29.8310   33.5330 C   0  0  0  0  0  2  0  0  0  0  0  0
   36.0640   28.6630   34.2730 C   0  0  0  0  0  2  0  0  0  0  0  0
   36.7330   27.9470   33.0990 C   0  0  1  0  0  3  0  0  0  0  0  0
  1 10  1  0  0  0  0
  2  1  1  0  0  0  0
  3  4  1  0  0  0  0
  3  2  2  0  0  0  0
  4  5  1  0  0  0  0
  5  1  2  0  0  0  0
  6  2  1  0  0  0  0
  7  3  1  0  0  0  0
  8 13  1  0  0  0  0
  9 10  1  0  0  0  0
  9  8  2  0  0  0  0
 10 11  2  0  0  0  0
 11 12  1  0  0  0  0
 12 16  1  0  0  0  0
 13 12  2  0  0  0  0
 14  8  1  0  0  0  0
 15  9  1  0  0  0  0
 18 17  1  0  0  0  0
 18 22  1  0  0  0  0
 19 18  1  0  0  0  0
 19 20  1  0  0  0  0
 20 21  1  0  0  0  0
 22  4  1  1  0  0  0
 22 21  1  0  0  0  0
M  END
>  <minimizedAffinity>
-4.43864822

$$$$

 OpenBabel03272508343D

 22 24  0  0  1  0  0  0  0  0999 V2000
   37.0710   25.0070   32.6850 C   0  0  0  0  0  0  0  0  0  0  0  0
   36.2270   25.5910   31.7770 C   0  0  0  0  0  0  0  0  0  0  0  0
   35.5770   24.5760   31.0830 C   0  0  0  0  0  0  0  0  0  0  0  0
   36.0450   23.4190   31.5890 N   0  0  0  0  0  0  0  0  0  0  0  0
   36.9380   23.6670   32.5470 N   0  0  0  0  0  0  0  0  0  0  0  0
   36.0830   26.6530   31.6190 H   0  0  0  0  0  0  0  0  0  0  0  0
   34.8540   24.6630   30.3040 H   0  0  0  0  0  0  0  0  0  0  0  0
   39.9300   26.9020   34.2400 C   0  0  0  0  0  0  0  0  0  0  0  0
   39.2270   26.1700   33.2740 C   0  0  0  0  0  0  0  0  0  0  0  0
   37.9230   25.7770   33.5980 C   0  0  0  0  0  0  0  0  0  0  0  0
   37.3990   26.1240   34.8310 N   0  0  0  0  0  0  0  0  0  0  0  0
   38.1340   26.8370   35.7250 C   0  0  0  0  0  0  0  0  0  0  0  0
   39.3900   27.2190   35.4230 N   0  0  0  0  0  0  0  0  0  0  0  0
   40.9300   27.2050   33.9970 H   0  0  0  0  0  0  0  0  0  0  0  0
   39.6240   25.8920   32.3100 H   0  0  0  0  0  0  0  0  0  0  0  0
   37.5810   27.0250   36.6350 H   0  0  0  0  0  0  0  0  0  0  0  0
   37.4180   21.2450   31.8060 H   0  0  0  0  0  0  0  0  0  0  0  0
   36.8180   21.2250   30.9330 N   0  0  0  0  0  0  0  0  0  0  0  0
   36.2120   19.9030   30.8570 C   0  0  0  0  0  2  0  0  0  0  0  0
   35.0430   19.9050   31.8290 C   0  0  0  0  0  2  0  0  0  0  0  0
   35.0600   21.3240   32.3920 C   0  0  0  0  0  2  0  0  0  0  0  0
   35.6920   22.0670   31.2150 C   0  0  1  0  0  3  0  0  0  0  0  0
  1 10  1  0  0  0  0
  2  1  1  0  0  0  0
  3  4  1  0  0  0  0
  3  2  2  0  0  0  0
  4  5  1  0  0  0  0
  5  1  2  0  0  0  0
  6  2  1  0  0  0  0
  7  3  1  0  0  0  0
  8 13  1  0  0  0  0
  9 10  1  0  0  0  0
  9  8  2  0  0  0  0
 10 11  2  0  0  0  0
 11 12  1  0  0  0  0
 12 16  1  0  0  0  0
 13 12  2  0  0  0  0
 14  8  1  0  0  0  0
 15  9  1  0  0  0  0
 18 22  1  0  0  0  0
 18 17  1  0  0  0  0
 19 18  1  0  0  0  0
 19 20  1  0  0  0  0
 20 21  1  0  0  0  0
 22  4  1  1  0  0  0
 22 21  1  0  0  0  0
M  END
>  <minimizedAffinity>
-4.41984987

$$$$

 OpenBabel03272508343D

 22 24  0  0  1  0  0  0  0  0999 V2000
   37.4170   26.1240   33.4430 C   0  0  0  0  0  0  0  0  0  0  0  0
   37.7030   24.8880   32.9250 C   0  0  0  0  0  0  0  0  0  0  0  0
   38.1500   24.0810   33.9650 C   0  0  0  0  0  0  0  0  0  0  0  0
   38.1220   24.8470   35.0720 N   0  0  0  0  0  0  0  0  0  0  0  0
   37.6850   26.0700   34.7690 N   0  0  0  0  0  0  0  0  0  0  0  0
   37.6010   24.5820   31.8910 H   0  0  0  0  0  0  0  0  0  0  0  0
   38.4610   23.0600   33.9280 H   0  0  0  0  0  0  0  0  0  0  0  0
   35.8510   29.3480   32.2900 C   0  0  0  0  0  0  0  0  0  0  0  0
   36.2810   28.3560   33.1810 C   0  0  0  0  0  0  0  0  0  0  0  0
   36.9170   27.2370   32.6310 C   0  0  0  0  0  0  0  0  0  0  0  0
   37.0890   27.1640   31.2600 N   0  0  0  0  0  0  0  0  0  0  0  0
   36.6490   28.1620   30.4480 C   0  0  0  0  0  0  0  0  0  0  0  0
   36.0360   29.2430   30.9680 N   0  0  0  0  0  0  0  0  0  0  0  0
   35.3630   30.2080   32.7060 H   0  0  0  0  0  0  0  0  0  0  0  0
   36.1520   28.4010   34.2520 H   0  0  0  0  0  0  0  0  0  0  0  0
   36.8610   27.9520   29.4080 H   0  0  0  0  0  0  0  0  0  0  0  0
   37.1260   23.0350   36.6160 H   0  0  0  0  0  0  0  0  0  0  0  0
   37.4300   23.8820   37.1770 N   0  0  0  0  0  0  0  0  0  0  0  0
   38.1250   23.3900   38.3580 C   0  0  0  0  0  2  0  0  0  0  0  0
   39.5270   23.0090   37.9110 C   0  0  0  0  0  2  0  0  0  0  0  0
   39.5280   23.3650   36.4260 C   0  0  0  0  0  2  0  0  0  0  0  0
   38.4900   24.4880   36.4240 C   0  0  1  0  0  3  0  0  0  0  0  0
  1  5  2  0  0  0  0
  2  1  1  0  0  0  0
  2  3  2  0  0  0  0
  3  4  1  0  0  0  0
  5  4  1  0  0  0  0
  6  2  1  0  0  0  0
  7  3  1  0  0  0  0
  8 14  1  0  0  0  0
  8  9  1  0  0  0  0
  9 15  1  0  0  0  0
 10  9  2  0  0  0  0
 10  1  1  0  0  0  0
 11 10  1  0  0  0  0
 12 13  1  0  0  0  0
 12 11  2  0  0  0  0
 13  8  2  0  0  0  0
 16 12  1  0  0  0  0
 17 18  1  0  0  0  0
 18 19  1  0  0  0  0
 20 19  1  0  0  0  0
 21 20  1  0  0  0  0
 22  4  1  6  0  0  0
 22 21  1  0  0  0  0
 22 18  1  0  0  0  0
M  END
>  <minimizedAffinity>
-4.38174486

$$$$

 OpenBabel03272508343D

 22 24  0  0  1  0  0  0  0  0999 V2000
   38.1900   24.5900   34.5270 C   0  0  0  0  0  0  0  0  0  0  0  0
   37.9630   23.7400   33.4760 C   0  0  0  0  0  0  0  0  0  0  0  0
   37.7240   24.5130   32.3450 C   0  0  0  0  0  0  0  0  0  0  0  0
   37.8120   25.7960   32.7440 N   0  0  0  0  0  0  0  0  0  0  0  0
   38.0910   25.8510   34.0460 N   0  0  0  0  0  0  0  0  0  0  0  0
   37.9670   22.6580   33.5080 H   0  0  0  0  0  0  0  0  0  0  0  0
   37.5100   24.1880   31.3520 H   0  0  0  0  0  0  0  0  0  0  0  0
   38.1150   23.9910   38.2440 C   0  0  0  0  0  0  0  0  0  0  0  0
   37.7280   24.5110   37.0020 C   0  0  0  0  0  0  0  0  0  0  0  0
   38.4800   24.1230   35.8870 C   0  0  0  0  0  0  0  0  0  0  0  0
   39.5460   23.2590   36.0590 N   0  0  0  0  0  0  0  0  0  0  0  0
   39.8700   22.7880   37.2920 C   0  0  0  0  0  0  0  0  0  0  0  0
   39.1540   23.1560   38.3710 N   0  0  0  0  0  0  0  0  0  0  0  0
   37.5430   24.2850   39.1020 H   0  0  0  0  0  0  0  0  0  0  0  0
   36.8990   25.1860   36.8540 H   0  0  0  0  0  0  0  0  0  0  0  0
   40.7250   22.1270   37.2540 H   0  0  0  0  0  0  0  0  0  0  0  0
   36.1890   26.2660   30.7920 H   0  0  0  0  0  0  0  0  0  0  0  0
   37.1120   26.7660   30.6430 N   0  0  0  0  0  0  0  0  0  0  0  0
   36.8030   28.1140   30.1870 C   0  0  0  0  0  2  0  0  0  0  0  0
   36.4120   28.9110   31.4200 C   0  0  0  0  0  2  0  0  0  0  0  0
   36.5680   27.8990   32.5540 C   0  0  0  0  0  2  0  0  0  0  0  0
   37.6470   26.9960   31.9530 C   0  0  1  0  0  3  0  0  0  0  0  0
  1 10  1  0  0  0  0
  2  6  1  0  0  0  0
  2  1  1  0  0  0  0
  3  4  1  0  0  0  0
  3  2  2  0  0  0  0
  4  5  1  0  0  0  0
  5  1  2  0  0  0  0
  7  3  1  0  0  0  0
  8 13  1  0  0  0  0
  8 14  1  0  0  0  0
  9  8  2  0  0  0  0
 10 11  2  0  0  0  0
 10  9  1  0  0  0  0
 11 12  1  0  0  0  0
 12 13  2  0  0  0  0
 15  9  1  0  0  0  0
 16 12  1  0  0  0  0
 18 17  1  0  0  0  0
 18 22  1  0  0  0  0
 19 18  1  0  0  0  0
 19 20  1  0  0  0  0
 20 21  1  0  0  0  0
 22 21  1  1  0  0  0
 22  4  1  0  0  0  0
M  END
>  <minimizedAffinity>
-4.36371088

$$$$
