
 OpenBabel03272508323D

 42 46  0  0  1  0  0  0  0  0999 V2000
   37.5660   25.7160   31.4050 N   0  0  0  0  0  0  0  0  0  0  0  0
   36.7340   26.7010   30.7470 C   0  0  0  0  0  0  0  0  0  0  0  0
   37.4020   28.0230   30.6200 C   0  0  0  0  0  0  0  0  0  0  0  0
   38.8340   27.8750   30.6850 N   0  0  0  0  0  0  0  0  0  0  0  0
   39.1540   27.4590   32.0470 C   0  0  0  0  0  0  0  0  0  0  0  0
   38.8280   26.0000   32.1140 C   0  0  1  0  0  0  0  0  0  0  0  0
   35.8210   26.8210   31.3780 H   0  0  0  0  0  0  0  0  0  0  0  0
   36.3490   26.3200   29.7740 H   0  0  0  0  0  0  0  0  0  0  0  0
   37.1000   28.4480   29.6310 H   0  0  0  0  0  0  0  0  0  0  0  0
   37.0980   28.6930   31.4430 H   0  0  0  0  0  0  0  0  0  0  0  0
   39.2200   27.2300   29.9730 H   0  0  0  0  0  0  0  0  0  0  0  0
   38.4200   28.0020   32.7140 H   0  0  0  0  0  0  0  0  0  0  0  0
   40.1860   27.6570   32.3180 H   0  0  0  0  0  0  0  0  0  0  0  0
   39.6030   25.4350   31.5470 H   0  0  0  0  0  0  0  0  0  0  0  0
   37.8800   25.8680   34.4610 C   0  0  0  0  0  0  0  0  0  0  0  0
   38.8180   25.4820   33.4980 C   0  0  0  0  0  0  0  0  0  0  0  0
   39.7740   24.5310   33.8000 C   0  0  0  0  0  0  0  0  0  0  0  0
   39.7590   23.9870   35.0640 C   0  0  0  0  0  0  0  0  0  0  0  0
   38.8050   24.3870   36.0300 C   0  0  0  0  0  0  0  0  0  0  0  0
   37.8320   25.3540   35.7400 C   0  0  0  0  0  0  0  0  0  0  0  0
   39.0170   23.6800   37.2290 O   0  0  0  0  0  0  0  0  0  0  0  0
   39.8200   22.5780   36.8940 C   0  0  0  0  0  0  0  0  0  0  0  0
   40.5210   23.0240   35.7310 O   0  0  0  0  0  0  0  0  0  0  0  0
   37.1460   26.6160   34.1990 H   0  0  0  0  0  0  0  0  0  0  0  0
   40.6210   24.1350   33.3000 H   0  0  0  0  0  0  0  0  0  0  0  0
   37.1050   25.6630   36.4730 H   0  0  0  0  0  0  0  0  0  0  0  0
   40.4920   22.2500   37.6850 H   0  0  0  0  0  0  0  0  0  0  0  0
   39.1590   21.7500   36.5100 H   0  0  0  0  0  0  0  0  0  0  0  0
   35.8740   23.9710   31.8510 C   0  0  0  0  0  0  0  0  0  0  0  0
   37.1470   24.3490   31.3690 C   0  0  0  0  0  0  0  0  0  0  0  0
   37.9470   23.3500   30.8530 C   0  0  0  0  0  0  0  0  0  0  0  0
   37.4750   22.0600   30.8310 N   0  0  0  0  0  0  0  0  0  0  0  0
   36.2590   21.7560   31.3000 C   0  0  0  0  0  0  0  0  0  0  0  0
   35.4470   22.6920   31.8110 N   0  0  0  0  0  0  0  0  0  0  0  0
   35.2260   24.7350   32.2630 H   0  0  0  0  0  0  0  0  0  0  0  0
   38.9110   23.6200   30.4870 H   0  0  0  0  0  0  0  0  0  0  0  0
   35.8100   20.4090   31.2570 N   0  0  0  0  0  0  0  0  0  0  0  0
   36.3540   19.2940   30.5070 C   0  0  0  0  0  2  0  0  0  0  0  0
   36.2680   18.1350   31.5020 C   0  0  0  0  0  2  0  0  0  0  0  0
   35.3560   18.6190   32.6190 C   0  0  0  0  0  2  0  0  0  0  0  0
   34.6870   19.8200   31.9620 C   0  0  0  0  0  3  0  0  0  0  0  0
   34.2110   20.5010   32.6780 H   0  0  0  0  0  0  0  0  0  0  0  0
  1  6  1  0  0  0  0
  2  7  1  0  0  0  0
  2  1  1  0  0  0  0
  3  4  1  0  0  0  0
  3  2  1  0  0  0  0
  3 10  1  0  0  0  0
  4  5  1  0  0  0  0
  5  6  1  0  0  0  0
  5 13  1  0  0  0  0
  5 12  1  0  0  0  0
  6 14  1  6  0  0  0
  6 16  1  0  0  0  0
  8  2  1  0  0  0  0
  9  3  1  0  0  0  0
 11  4  1  0  0  0  0
 15 20  1  0  0  0  0
 16 17  1  0  0  0  0
 16 15  2  0  0  0  0
 17 18  2  0  0  0  0
 18 23  1  0  0  0  0
 18 19  1  0  0  0  0
 19 21  1  0  0  0  0
 20 19  2  0  0  0  0
 20 26  1  0  0  0  0
 22 21  1  0  0  0  0
 22 27  1  0  0  0  0
 23 22  1  0  0  0  0
 24 15  1  0  0  0  0
 25 17  1  0  0  0  0
 28 22  1  0  0  0  0
 29 35  1  0  0  0  0
 30  1  1  0  0  0  0
 30 29  2  0  0  0  0
 31 30  1  0  0  0  0
 32 31  2  0  0  0  0
 32 33  1  0  0  0  0
 33 34  2  0  0  0  0
 34 29  1  0  0  0  0
 36 31  1  0  0  0  0
 37 33  1  0  0  0  0
 37 41  1  0  0  0  0
 38 37  1  0  0  0  0
 38 39  1  0  0  0  0
 39 40  1  0  0  0  0
 41 40  1  0  0  0  0
 41 42  1  0  0  0  0
M  END
>  <minimizedAffinity>
-5.98279619

$$$$

 OpenBabel03272508323D

 42 46  0  0  1  0  0  0  0  0999 V2000
   40.2920   24.9610   33.4670 N   0  0  0  0  0  0  0  0  0  0  0  0
   41.6270   24.5330   33.1030 C   0  0  0  0  0  0  0  0  0  0  0  0
   42.6770   25.4780   33.5640 C   0  0  0  0  0  0  0  0  0  0  0  0
   42.1980   26.2680   34.6710 N   0  0  0  0  0  0  0  0  0  0  0  0
   41.1570   27.1440   34.1440 C   0  0  0  0  0  0  0  0  0  0  0  0
   39.9370   26.2890   34.0030 C   0  0  1  0  0  0  0  0  0  0  0  0
   41.6530   24.4850   31.9880 H   0  0  0  0  0  0  0  0  0  0  0  0
   41.8180   23.4860   33.4290 H   0  0  0  0  0  0  0  0  0  0  0  0
   43.5550   24.8620   33.8800 H   0  0  0  0  0  0  0  0  0  0  0  0
   42.9570   26.1730   32.7550 H   0  0  0  0  0  0  0  0  0  0  0  0
   41.8700   25.7050   35.4750 H   0  0  0  0  0  0  0  0  0  0  0  0
   41.4940   27.4290   33.1020 H   0  0  0  0  0  0  0  0  0  0  0  0
   40.9740   28.0100   34.7720 H   0  0  0  0  0  0  0  0  0  0  0  0
   39.5270   26.0820   35.0180 H   0  0  0  0  0  0  0  0  0  0  0  0
   37.6060   27.2470   33.7240 C   0  0  0  0  0  0  0  0  0  0  0  0
   38.8720   26.9410   33.2130 C   0  0  0  0  0  0  0  0  0  0  0  0
   39.2020   27.2940   31.9180 C   0  0  0  0  0  0  0  0  0  0  0  0
   38.2530   27.9530   31.1710 C   0  0  0  0  0  0  0  0  0  0  0  0
   36.9760   28.2560   31.7010 C   0  0  0  0  0  0  0  0  0  0  0  0
   36.6230   27.9010   33.0100 C   0  0  0  0  0  0  0  0  0  0  0  0
   36.2050   28.9240   30.7310 O   0  0  0  0  0  0  0  0  0  0  0  0
   37.1130   29.3860   29.7640 C   0  0  0  0  0  0  0  0  0  0  0  0
   38.2050   28.4720   29.8740 O   0  0  0  0  0  0  0  0  0  0  0  0
   37.3730   26.9570   34.7380 H   0  0  0  0  0  0  0  0  0  0  0  0
   40.0310   27.1140   31.2810 H   0  0  0  0  0  0  0  0  0  0  0  0
   35.6520   28.1270   33.4170 H   0  0  0  0  0  0  0  0  0  0  0  0
   36.7120   29.4360   28.7530 H   0  0  0  0  0  0  0  0  0  0  0  0
   37.5460   30.3680   30.1110 H   0  0  0  0  0  0  0  0  0  0  0  0
   38.6360   23.3970   34.4270 C   0  0  0  0  0  0  0  0  0  0  0  0
   39.2190   24.0290   33.3060 C   0  0  0  0  0  0  0  0  0  0  0  0
   38.6980   23.7190   32.0660 C   0  0  0  0  0  0  0  0  0  0  0  0
   37.6550   22.8290   31.9840 N   0  0  0  0  0  0  0  0  0  0  0  0
   37.1380   22.2590   33.0780 C   0  0  0  0  0  0  0  0  0  0  0  0
   37.6120   22.5280   34.3030 N   0  0  0  0  0  0  0  0  0  0  0  0
   39.0270   23.6200   35.4120 H   0  0  0  0  0  0  0  0  0  0  0  0
   39.1290   24.1870   31.2110 H   0  0  0  0  0  0  0  0  0  0  0  0
   36.0580   21.3450   32.9470 N   0  0  0  0  0  0  0  0  0  0  0  0
   35.1940   21.1180   31.8060 C   0  0  0  0  0  2  0  0  0  0  0  0
   35.0430   19.5950   31.7850 C   0  0  0  0  0  2  0  0  0  0  0  0
   35.5570   19.1130   33.1330 C   0  0  0  0  0  2  0  0  0  0  0  0
   35.5570   20.4090   33.9360 C   0  0  0  0  0  3  0  0  0  0  0  0
   36.1680   20.3590   34.8450 H   0  0  0  0  0  0  0  0  0  0  0  0
  1  6  1  0  0  0  0
  2  8  1  0  0  0  0
  2  1  1  0  0  0  0
  2  3  1  0  0  0  0
  3  9  1  0  0  0  0
  3  4  1  0  0  0  0
  4 11  1  0  0  0  0
  5  4  1  0  0  0  0
  5 13  1  0  0  0  0
  6  5  1  0  0  0  0
  6 14  1  1  0  0  0
  7  2  1  0  0  0  0
 10  3  1  0  0  0  0
 12  5  1  0  0  0  0
 15 24  1  0  0  0  0
 16 15  1  0  0  0  0
 16  6  1  0  0  0  0
 17 16  2  0  0  0  0
 18 19  2  0  0  0  0
 18 17  1  0  0  0  0
 19 20  1  0  0  0  0
 20 26  1  0  0  0  0
 20 15  2  0  0  0  0
 21 19  1  0  0  0  0
 22 23  1  0  0  0  0
 22 28  1  0  0  0  0
 22 21  1  0  0  0  0
 23 18  1  0  0  0  0
 25 17  1  0  0  0  0
 27 22  1  0  0  0  0
 29 35  1  0  0  0  0
 30  1  1  0  0  0  0
 30 29  2  0  0  0  0
 31 30  1  0  0  0  0
 32 31  2  0  0  0  0
 32 33  1  0  0  0  0
 33 34  2  0  0  0  0
 34 29  1  0  0  0  0
 36 31  1  0  0  0  0
 37 33  1  0  0  0  0
 37 41  1  0  0  0  0
 38 37  1  0  0  0  0
 39 38  1  0  0  0  0
 39 40  1  0  0  0  0
 40 41  1  0  0  0  0
 41 42  1  0  0  0  0
M  END
>  <minimizedAffinity>
-5.85972071

$$$$

 OpenBabel03272508323D

 42 46  0  0  1  0  0  0  0  0999 V2000
   37.8090   25.9970   32.6940 N   0  0  0  0  0  0  0  0  0  0  0  0
   38.1580   27.3760   32.4210 C   0  0  0  0  0  0  0  0  0  0  0  0
   37.1010   28.0930   31.6590 C   0  0  0  0  0  0  0  0  0  0  0  0
   35.8240   27.4500   31.8360 N   0  0  0  0  0  0  0  0  0  0  0  0
   35.9080   26.1550   31.1670 C   0  0  0  0  0  0  0  0  0  0  0  0
   36.6760   25.2670   32.0950 C   0  0  1  0  0  0  0  0  0  0  0  0
   39.0890   27.3540   31.8060 H   0  0  0  0  0  0  0  0  0  0  0  0
   38.4540   27.9100   33.3520 H   0  0  0  0  0  0  0  0  0  0  0  0
   37.0670   29.1380   32.0550 H   0  0  0  0  0  0  0  0  0  0  0  0
   37.3300   28.0910   30.5800 H   0  0  0  0  0  0  0  0  0  0  0  0
   35.5320   27.3650   32.8250 H   0  0  0  0  0  0  0  0  0  0  0  0
   36.5480   26.3240   30.2500 H   0  0  0  0  0  0  0  0  0  0  0  0
   34.9340   25.7420   30.9230 H   0  0  0  0  0  0  0  0  0  0  0  0
   36.0240   25.0020   32.9580 H   0  0  0  0  0  0  0  0  0  0  0  0
   38.2200   23.9060   30.6140 C   0  0  0  0  0  0  0  0  0  0  0  0
   37.1040   24.0070   31.4520 C   0  0  0  0  0  0  0  0  0  0  0  0
   36.3620   22.8830   31.7610 C   0  0  0  0  0  0  0  0  0  0  0  0
   36.7650   21.6820   31.2240 C   0  0  0  0  0  0  0  0  0  0  0  0
   37.8950   21.5930   30.3770 C   0  0  0  0  0  0  0  0  0  0  0  0
   38.6550   22.7240   30.0500 C   0  0  0  0  0  0  0  0  0  0  0  0
   38.0790   20.2590   29.9680 O   0  0  0  0  0  0  0  0  0  0  0  0
   37.3310   19.4720   30.8580 C   0  0  0  0  0  0  0  0  0  0  0  0
   36.3060   20.3640   31.3030 O   0  0  0  0  0  0  0  0  0  0  0  0
   38.7790   24.8000   30.3870 H   0  0  0  0  0  0  0  0  0  0  0  0
   35.4560   22.7030   32.2830 H   0  0  0  0  0  0  0  0  0  0  0  0
   39.5150   22.6620   29.4040 H   0  0  0  0  0  0  0  0  0  0  0  0
   36.9280   18.5580   30.4260 H   0  0  0  0  0  0  0  0  0  0  0  0
   37.9460   19.2840   31.7840 H   0  0  0  0  0  0  0  0  0  0  0  0
   40.0270   25.3530   33.5750 C   0  0  0  0  0  0  0  0  0  0  0  0
   38.6170   25.2710   33.6250 C   0  0  0  0  0  0  0  0  0  0  0  0
   38.0660   24.4810   34.6130 C   0  0  0  0  0  0  0  0  0  0  0  0
   38.9000   23.8250   35.4860 N   0  0  0  0  0  0  0  0  0  0  0  0
   40.2310   23.9380   35.3960 C   0  0  0  0  0  0  0  0  0  0  0  0
   40.8110   24.6940   34.4530 N   0  0  0  0  0  0  0  0  0  0  0  0
   40.4860   25.9650   32.8080 H   0  0  0  0  0  0  0  0  0  0  0  0
   37.0040   24.4080   34.6620 H   0  0  0  0  0  0  0  0  0  0  0  0
   41.0560   23.2440   36.3210 N   0  0  0  0  0  0  0  0  0  0  0  0
   40.6870   22.6230   37.5780 C   0  0  0  0  0  2  0  0  0  0  0  0
   41.4920   21.3210   37.5670 C   0  0  0  0  0  2  0  0  0  0  0  0
   42.5180   21.4810   36.4570 C   0  0  0  0  0  2  0  0  0  0  0  0
   42.4800   22.9880   36.2270 C   0  0  0  0  0  3  0  0  0  0  0  0
   42.9220   23.2950   35.2710 H   0  0  0  0  0  0  0  0  0  0  0  0
  1 30  1  0  0  0  0
  2  1  1  0  0  0  0
  2  8  1  0  0  0  0
  3  4  1  0  0  0  0
  3  9  1  0  0  0  0
  3  2  1  0  0  0  0
  4 11  1  0  0  0  0
  5  4  1  0  0  0  0
  5  6  1  0  0  0  0
  6  1  1  0  0  0  0
  6 14  1  1  0  0  0
  7  2  1  0  0  0  0
 10  3  1  0  0  0  0
 12  5  1  0  0  0  0
 13  5  1  0  0  0  0
 15 16  1  0  0  0  0
 16 17  2  0  0  0  0
 16  6  1  0  0  0  0
 17 25  1  0  0  0  0
 18 23  1  0  0  0  0
 18 17  1  0  0  0  0
 19 18  2  0  0  0  0
 20 19  1  0  0  0  0
 20 15  2  0  0  0  0
 21 19  1  0  0  0  0
 21 22  1  0  0  0  0
 22 23  1  0  0  0  0
 22 28  1  0  0  0  0
 24 15  1  0  0  0  0
 26 20  1  0  0  0  0
 27 22  1  0  0  0  0
 29 30  2  0  0  0  0
 29 34  1  0  0  0  0
 30 31  1  0  0  0  0
 31 36  1  0  0  0  0
 31 32  2  0  0  0  0
 33 32  1  0  0  0  0
 33 37  1  0  0  0  0
 34 33  2  0  0  0  0
 35 29  1  0  0  0  0
 37 38  1  0  0  0  0
 39 38  1  0  0  0  0
 40 39  1  0  0  0  0
 41 37  1  0  0  0  0
 41 40  1  0  0  0  0
 42 41  1  0  0  0  0
M  END
>  <minimizedAffinity>
-5.58936834

$$$$

 OpenBabel03272508323D

 42 46  0  0  1  0  0  0  0  0999 V2000
   36.1880   28.3420   31.7040 N   0  0  0  0  0  0  0  0  0  0  0  0
   35.7800   29.0730   32.8860 C   0  0  0  0  0  0  0  0  0  0  0  0
   35.4960   30.5050   32.6030 C   0  0  0  0  0  0  0  0  0  0  0  0
   35.1800   30.6930   31.2100 N   0  0  0  0  0  0  0  0  0  0  0  0
   36.4060   30.4340   30.4620 C   0  0  0  0  0  0  0  0  0  0  0  0
   36.5440   28.9450   30.4060 C   0  0  1  0  0  0  0  0  0  0  0  0
   36.6300   29.0130   33.6080 H   0  0  0  0  0  0  0  0  0  0  0  0
   34.9390   28.5630   33.4070 H   0  0  0  0  0  0  0  0  0  0  0  0
   34.6240   30.7950   33.2400 H   0  0  0  0  0  0  0  0  0  0  0  0
   36.3750   31.1290   32.8340 H   0  0  0  0  0  0  0  0  0  0  0  0
   34.3870   30.1160   30.8790 H   0  0  0  0  0  0  0  0  0  0  0  0
   37.2480   30.8290   31.1060 H   0  0  0  0  0  0  0  0  0  0  0  0
   36.3990   30.8780   29.4710 H   0  0  0  0  0  0  0  0  0  0  0  0
   35.7880   28.5430   29.6930 H   0  0  0  0  0  0  0  0  0  0  0  0
   38.9380   28.2110   30.7980 C   0  0  0  0  0  0  0  0  0  0  0  0
   37.8770   28.5130   29.9380 C   0  0  0  0  0  0  0  0  0  0  0  0
   38.0260   28.3660   28.5720 C   0  0  0  0  0  0  0  0  0  0  0  0
   39.2370   27.9120   28.1050 C   0  0  0  0  0  0  0  0  0  0  0  0
   40.3030   27.6110   28.9850 C   0  0  0  0  0  0  0  0  0  0  0  0
   40.1710   27.7590   30.3730 C   0  0  0  0  0  0  0  0  0  0  0  0
   41.4200   27.1740   28.2480 O   0  0  0  0  0  0  0  0  0  0  0  0
   40.9350   26.8240   26.9780 C   0  0  0  0  0  0  0  0  0  0  0  0
   39.7620   27.6290   26.8400 O   0  0  0  0  0  0  0  0  0  0  0  0
   38.7960   28.3380   31.8610 H   0  0  0  0  0  0  0  0  0  0  0  0
   37.4300   28.5960   27.7250 H   0  0  0  0  0  0  0  0  0  0  0  0
   40.9800   27.5330   31.0470 H   0  0  0  0  0  0  0  0  0  0  0  0
   41.6430   26.9770   26.1650 H   0  0  0  0  0  0  0  0  0  0  0  0
   40.5360   25.7700   27.0180 H   0  0  0  0  0  0  0  0  0  0  0  0
   35.5880   26.1080   30.8330 C   0  0  0  0  0  0  0  0  0  0  0  0
   36.2510   26.9150   31.7850 C   0  0  0  0  0  0  0  0  0  0  0  0
   36.9640   26.2670   32.7720 C   0  0  0  0  0  0  0  0  0  0  0  0
   36.9980   24.8940   32.7810 N   0  0  0  0  0  0  0  0  0  0  0  0
   36.3530   24.1760   31.8530 C   0  0  0  0  0  0  0  0  0  0  0  0
   35.6470   24.7610   30.8760 N   0  0  0  0  0  0  0  0  0  0  0  0
   35.0180   26.5900   30.0480 H   0  0  0  0  0  0  0  0  0  0  0  0
   37.4680   26.8630   33.4990 H   0  0  0  0  0  0  0  0  0  0  0  0
   36.4160   22.7580   31.8990 N   0  0  0  0  0  0  0  0  0  0  0  0
   37.3250   21.9120   32.6480 C   0  0  0  0  0  2  0  0  0  0  0  0
   36.4150   20.7900   33.1520 C   0  0  0  0  0  2  0  0  0  0  0  0
   35.1280   20.9130   32.3510 C   0  0  0  0  0  2  0  0  0  0  0  0
   35.5750   21.8050   31.1990 C   0  0  0  0  0  3  0  0  0  0  0  0
   34.7410   22.2680   30.6560 H   0  0  0  0  0  0  0  0  0  0  0  0
  1 30  1  0  0  0  0
  1  2  1  0  0  0  0
  2  8  1  0  0  0  0
  2  7  1  0  0  0  0
  3 10  1  0  0  0  0
  3  2  1  0  0  0  0
  3  9  1  0  0  0  0
  4  3  1  0  0  0  0
  5 12  1  0  0  0  0
  5  4  1  0  0  0  0
  6 14  1  6  0  0  0
  6  5  1  0  0  0  0
  6  1  1  0  0  0  0
 11  4  1  0  0  0  0
 13  5  1  0  0  0  0
 15 24  1  0  0  0  0
 16  6  1  0  0  0  0
 16 15  2  0  0  0  0
 17 16  1  0  0  0  0
 18 17  2  0  0  0  0
 18 19  1  0  0  0  0
 19 20  2  0  0  0  0
 20 15  1  0  0  0  0
 20 26  1  0  0  0  0
 21 19  1  0  0  0  0
 22 28  1  0  0  0  0
 22 21  1  0  0  0  0
 23 22  1  0  0  0  0
 23 18  1  0  0  0  0
 25 17  1  0  0  0  0
 27 22  1  0  0  0  0
 29 34  2  0  0  0  0
 29 30  1  0  0  0  0
 30 31  2  0  0  0  0
 31 32  1  0  0  0  0
 31 36  1  0  0  0  0
 33 37  1  0  0  0  0
 33 32  2  0  0  0  0
 34 33  1  0  0  0  0
 35 29  1  0  0  0  0
 37 38  1  0  0  0  0
 38 39  1  0  0  0  0
 40 39  1  0  0  0  0
 41 37  1  0  0  0  0
 41 40  1  0  0  0  0
 42 41  1  0  0  0  0
M  END
>  <minimizedAffinity>
-5.46422863

$$$$

 OpenBabel03272508323D

 42 46  0  0  1  0  0  0  0  0999 V2000
   37.2700   25.4100   32.0100 N   0  0  0  0  0  0  0  0  0  0  0  0
   36.0730   26.1470   31.6590 C   0  0  0  0  0  0  0  0  0  0  0  0
   36.1930   27.6010   31.9450 C   0  0  0  0  0  0  0  0  0  0  0  0
   37.5790   27.9960   31.9890 N   0  0  0  0  0  0  0  0  0  0  0  0
   38.1590   27.3670   33.1710 C   0  0  0  0  0  0  0  0  0  0  0  0
   38.4010   25.9390   32.7950 C   0  0  1  0  0  0  0  0  0  0  0  0
   35.2460   25.7280   32.2810 H   0  0  0  0  0  0  0  0  0  0  0  0
   35.7640   25.9400   30.6100 H   0  0  0  0  0  0  0  0  0  0  0  0
   35.6630   28.1400   31.1220 H   0  0  0  0  0  0  0  0  0  0  0  0
   35.7460   27.8440   32.9240 H   0  0  0  0  0  0  0  0  0  0  0  0
   38.1040   27.7750   31.1250 H   0  0  0  0  0  0  0  0  0  0  0  0
   37.3450   27.3790   33.9560 H   0  0  0  0  0  0  0  0  0  0  0  0
   39.0680   27.8570   33.5080 H   0  0  0  0  0  0  0  0  0  0  0  0
   39.2700   25.8950   32.0990 H   0  0  0  0  0  0  0  0  0  0  0  0
   39.8740   24.3100   34.0610 C   0  0  0  0  0  0  0  0  0  0  0  0
   38.7150   25.0880   33.9610 C   0  0  0  0  0  0  0  0  0  0  0  0
   37.8140   25.1300   35.0070 C   0  0  0  0  0  0  0  0  0  0  0  0
   38.1030   24.3920   36.1320 C   0  0  0  0  0  0  0  0  0  0  0  0
   39.2780   23.6090   36.2200 C   0  0  0  0  0  0  0  0  0  0  0  0
   40.2000   23.5510   35.1660 C   0  0  0  0  0  0  0  0  0  0  0  0
   39.3240   22.9580   37.4680 O   0  0  0  0  0  0  0  0  0  0  0  0
   38.4110   23.6350   38.2930 C   0  0  0  0  0  0  0  0  0  0  0  0
   37.4760   24.1870   37.3640 O   0  0  0  0  0  0  0  0  0  0  0  0
   40.5600   24.2920   33.2270 H   0  0  0  0  0  0  0  0  0  0  0  0
   36.8530   25.5560   35.1520 H   0  0  0  0  0  0  0  0  0  0  0  0
   41.0950   22.9540   35.2270 H   0  0  0  0  0  0  0  0  0  0  0  0
   37.9330   23.0110   39.0460 H   0  0  0  0  0  0  0  0  0  0  0  0
   38.9200   24.5390   38.7340 H   0  0  0  0  0  0  0  0  0  0  0  0
   38.3930   23.6790   30.6490 C   0  0  0  0  0  0  0  0  0  0  0  0
   37.3810   24.0560   31.5600 C   0  0  0  0  0  0  0  0  0  0  0  0
   36.5280   23.0660   32.0000 C   0  0  0  0  0  0  0  0  0  0  0  0
   36.7020   21.7820   31.5430 N   0  0  0  0  0  0  0  0  0  0  0  0
   37.6780   21.4770   30.6800 C   0  0  0  0  0  0  0  0  0  0  0  0
   38.5300   22.4060   30.2240 N   0  0  0  0  0  0  0  0  0  0  0  0
   39.0750   24.4370   30.2860 H   0  0  0  0  0  0  0  0  0  0  0  0
   35.7580   23.3360   32.6860 H   0  0  0  0  0  0  0  0  0  0  0  0
   37.8230   20.1360   30.2340 N   0  0  0  0  0  0  0  0  0  0  0  0
   37.2430   18.9280   30.7850 C   0  0  0  0  0  2  0  0  0  0  0  0
   36.8410   18.1380   29.5370 C   0  0  0  0  0  2  0  0  0  0  0  0
   37.5470   18.8190   28.3750 C   0  0  0  0  0  2  0  0  0  0  0  0
   38.5950   19.6510   29.1060 C   0  0  0  0  0  3  0  0  0  0  0  0
   39.0260   20.4500   28.4890 H   0  0  0  0  0  0  0  0  0  0  0  0
  1  6  1  0  0  0  0
  2  3  1  0  0  0  0
  2  1  1  0  0  0  0
  2  7  1  0  0  0  0
  3  4  1  0  0  0  0
  3 10  1  0  0  0  0
  4  5  1  0  0  0  0
  5 13  1  0  0  0  0
  5 12  1  0  0  0  0
  6 14  1  6  0  0  0
  6  5  1  0  0  0  0
  6 16  1  0  0  0  0
  8  2  1  0  0  0  0
  9  3  1  0  0  0  0
 11  4  1  0  0  0  0
 15 20  1  0  0  0  0
 16 15  2  0  0  0  0
 16 17  1  0  0  0  0
 17 25  1  0  0  0  0
 17 18  2  0  0  0  0
 18 19  1  0  0  0  0
 18 23  1  0  0  0  0
 19 21  1  0  0  0  0
 20 26  1  0  0  0  0
 20 19  2  0  0  0  0
 21 22  1  0  0  0  0
 22 28  1  0  0  0  0
 22 27  1  0  0  0  0
 23 22  1  0  0  0  0
 24 15  1  0  0  0  0
 29 30  1  0  0  0  0
 30 31  2  0  0  0  0
 30  1  1  0  0  0  0
 31 36  1  0  0  0  0
 32 31  1  0  0  0  0
 33 32  2  0  0  0  0
 34 29  2  0  0  0  0
 34 33  1  0  0  0  0
 35 29  1  0  0  0  0
 37 33  1  0  0  0  0
 37 38  1  0  0  0  0
 39 38  1  0  0  0  0
 40 41  1  0  0  0  0
 40 39  1  0  0  0  0
 41 37  1  0  0  0  0
 42 41  1  0  0  0  0
M  END
>  <minimizedAffinity>
-5.454772

$$$$

 OpenBabel03272508323D

 42 46  0  0  1  0  0  0  0  0999 V2000
   39.4960   24.9100   32.3310 N   0  0  0  0  0  0  0  0  0  0  0  0
   39.1620   26.1340   31.6330 C   0  0  0  0  0  0  0  0  0  0  0  0
   40.2120   27.1770   31.7730 C   0  0  0  0  0  0  0  0  0  0  0  0
   41.4840   26.5770   32.0910 N   0  0  0  0  0  0  0  0  0  0  0  0
   41.3660   26.0280   33.4370 C   0  0  0  0  0  0  0  0  0  0  0  0
   40.6040   24.7480   33.2910 C   0  0  1  0  0  0  0  0  0  0  0  0
   38.2170   26.5150   32.0900 H   0  0  0  0  0  0  0  0  0  0  0  0
   38.8950   25.9340   30.5710 H   0  0  0  0  0  0  0  0  0  0  0  0
   40.2710   27.7140   30.7930 H   0  0  0  0  0  0  0  0  0  0  0  0
   39.9600   27.8760   32.5880 H   0  0  0  0  0  0  0  0  0  0  0  0
   41.7960   25.8700   31.4020 H   0  0  0  0  0  0  0  0  0  0  0  0
   40.7090   26.7510   34.0070 H   0  0  0  0  0  0  0  0  0  0  0  0
   42.3270   25.8750   33.9170 H   0  0  0  0  0  0  0  0  0  0  0  0
   41.2710   23.9870   32.8240 H   0  0  0  0  0  0  0  0  0  0  0  0
   40.6490   23.0340   35.1580 C   0  0  0  0  0  0  0  0  0  0  0  0
   40.1440   24.2070   34.5860 C   0  0  0  0  0  0  0  0  0  0  0  0
   39.1980   24.9570   35.2590 C   0  0  0  0  0  0  0  0  0  0  0  0
   38.7870   24.5120   36.4940 C   0  0  0  0  0  0  0  0  0  0  0  0
   39.3050   23.3240   37.0610 C   0  0  0  0  0  0  0  0  0  0  0  0
   40.2610   22.5490   36.3900 C   0  0  0  0  0  0  0  0  0  0  0  0
   38.7150   23.1000   38.3200 O   0  0  0  0  0  0  0  0  0  0  0  0
   38.1490   24.3260   38.7070 C   0  0  0  0  0  0  0  0  0  0  0  0
   37.8900   24.9770   37.4610 O   0  0  0  0  0  0  0  0  0  0  0  0
   41.3840   22.4660   34.6100 H   0  0  0  0  0  0  0  0  0  0  0  0
   38.6110   25.8090   35.0230 H   0  0  0  0  0  0  0  0  0  0  0  0
   40.6560   21.6420   36.8160 H   0  0  0  0  0  0  0  0  0  0  0  0
   37.2570   24.2380   39.3240 H   0  0  0  0  0  0  0  0  0  0  0  0
   38.9490   24.9620   39.1820 H   0  0  0  0  0  0  0  0  0  0  0  0
   37.3200   23.7380   32.3910 C   0  0  0  0  0  0  0  0  0  0  0  0
   38.6970   23.7510   32.0740 C   0  0  0  0  0  0  0  0  0  0  0  0
   39.2220   22.6120   31.4990 C   0  0  0  0  0  0  0  0  0  0  0  0
   38.3950   21.5410   31.2630 N   0  0  0  0  0  0  0  0  0  0  0  0
   37.0960   21.5810   31.5810 C   0  0  0  0  0  0  0  0  0  0  0  0
   36.5420   22.6650   32.1420 N   0  0  0  0  0  0  0  0  0  0  0  0
   36.8830   24.6180   32.8460 H   0  0  0  0  0  0  0  0  0  0  0  0
   40.2600   22.6060   31.2560 H   0  0  0  0  0  0  0  0  0  0  0  0
   36.2760   20.4510   31.3180 N   0  0  0  0  0  0  0  0  0  0  0  0
   36.5520   19.3060   30.4730 C   0  0  0  0  0  2  0  0  0  0  0  0
   36.0050   18.1340   31.2920 C   0  0  0  0  0  2  0  0  0  0  0  0
   35.1490   18.7590   32.3820 C   0  0  0  0  0  2  0  0  0  0  0  0
   34.9520   20.1700   31.8390 C   0  0  0  0  0  3  0  0  0  0  0  0
   34.6150   20.8870   32.5970 H   0  0  0  0  0  0  0  0  0  0  0  0
  1  6  1  0  0  0  0
  2  3  1  0  0  0  0
  2  7  1  0  0  0  0
  2  1  1  0  0  0  0
  3  4  1  0  0  0  0
  3 10  1  0  0  0  0
  4  5  1  0  0  0  0
  5 13  1  0  0  0  0
  5 12  1  0  0  0  0
  6 14  1  6  0  0  0
  6  5  1  0  0  0  0
  6 16  1  0  0  0  0
  8  2  1  0  0  0  0
  9  3  1  0  0  0  0
 11  4  1  0  0  0  0
 15 20  1  0  0  0  0
 16 15  2  0  0  0  0
 16 17  1  0  0  0  0
 17 18  2  0  0  0  0
 18 19  1  0  0  0  0
 18 23  1  0  0  0  0
 19 21  1  0  0  0  0
 20 26  1  0  0  0  0
 20 19  2  0  0  0  0
 21 22  1  0  0  0  0
 22 28  1  0  0  0  0
 22 27  1  0  0  0  0
 23 22  1  0  0  0  0
 24 15  1  0  0  0  0
 25 17  1  0  0  0  0
 29 35  1  0  0  0  0
 30  1  1  0  0  0  0
 30 29  2  0  0  0  0
 31 30  1  0  0  0  0
 32 31  2  0  0  0  0
 32 33  1  0  0  0  0
 33 34  2  0  0  0  0
 34 29  1  0  0  0  0
 36 31  1  0  0  0  0
 37 33  1  0  0  0  0
 37 41  1  0  0  0  0
 38 39  1  0  0  0  0
 38 37  1  0  0  0  0
 39 40  1  0  0  0  0
 41 40  1  0  0  0  0
 41 42  1  0  0  0  0
M  END
>  <minimizedAffinity>
-5.42287874

$$$$

 OpenBabel03272508323D

 42 46  0  0  1  0  0  0  0  0999 V2000
   35.8790   30.5600   32.7100 N   0  0  0  0  0  0  0  0  0  0  0  0
   36.3790   31.4610   31.6930 C   0  0  0  0  0  0  0  0  0  0  0  0
   36.3220   32.8860   32.1130 C   0  0  0  0  0  0  0  0  0  0  0  0
   36.2960   32.9910   33.5500 N   0  0  0  0  0  0  0  0  0  0  0  0
   35.0120   32.4540   33.9890 C   0  0  0  0  0  0  0  0  0  0  0  0
   35.1510   30.9650   33.9280 C   0  0  1  0  0  0  0  0  0  0  0  0
   35.7260   31.3260   30.7970 H   0  0  0  0  0  0  0  0  0  0  0  0
   37.3920   31.1570   31.3460 H   0  0  0  0  0  0  0  0  0  0  0  0
   37.2370   33.3830   31.7050 H   0  0  0  0  0  0  0  0  0  0  0  0
   35.4090   33.3690   31.7270 H   0  0  0  0  0  0  0  0  0  0  0  0
   37.0980   32.5300   34.0170 H   0  0  0  0  0  0  0  0  0  0  0  0
   34.2650   32.7580   33.1960 H   0  0  0  0  0  0  0  0  0  0  0  0
   34.7280   32.7940   34.9800 H   0  0  0  0  0  0  0  0  0  0  0  0
   35.8030   30.6320   34.7680 H   0  0  0  0  0  0  0  0  0  0  0  0
   32.9420   30.1260   33.0110 C   0  0  0  0  0  0  0  0  0  0  0  0
   33.8560   30.2660   34.0600 C   0  0  0  0  0  0  0  0  0  0  0  0
   33.5950   29.6940   35.2910 C   0  0  0  0  0  0  0  0  0  0  0  0
   32.4220   28.9880   35.4330 C   0  0  0  0  0  0  0  0  0  0  0  0
   31.5050   28.8540   34.3640 C   0  0  0  0  0  0  0  0  0  0  0  0
   31.7530   29.4330   33.1110 C   0  0  0  0  0  0  0  0  0  0  0  0
   30.3970   28.0930   34.7800 O   0  0  0  0  0  0  0  0  0  0  0  0
   30.7990   27.4280   35.9490 C   0  0  0  0  0  0  0  0  0  0  0  0
   31.8210   28.2770   36.4760 O   0  0  0  0  0  0  0  0  0  0  0  0
   33.1690   30.5860   32.0610 H   0  0  0  0  0  0  0  0  0  0  0  0
   34.0620   29.7190   36.2430 H   0  0  0  0  0  0  0  0  0  0  0  0
   31.0570   29.3360   32.2950 H   0  0  0  0  0  0  0  0  0  0  0  0
   29.9990   27.2460   36.6650 H   0  0  0  0  0  0  0  0  0  0  0  0
   31.3500   26.4880   35.6620 H   0  0  0  0  0  0  0  0  0  0  0  0
   35.8390   28.5310   31.3000 C   0  0  0  0  0  0  0  0  0  0  0  0
   36.1060   29.1580   32.5370 C   0  0  0  0  0  0  0  0  0  0  0  0
   36.6050   28.3660   33.5500 C   0  0  0  0  0  0  0  0  0  0  0  0
   36.8180   27.0300   33.3110 N   0  0  0  0  0  0  0  0  0  0  0  0
   36.5490   26.4850   32.1190 C   0  0  0  0  0  0  0  0  0  0  0  0
   36.0620   27.2150   31.1050 N   0  0  0  0  0  0  0  0  0  0  0  0
   35.4440   29.1290   30.4870 H   0  0  0  0  0  0  0  0  0  0  0  0
   36.8100   28.8250   34.4900 H   0  0  0  0  0  0  0  0  0  0  0  0
   36.7850   25.1000   31.9140 N   0  0  0  0  0  0  0  0  0  0  0  0
   37.5610   24.1810   32.7230 C   0  0  0  0  0  2  0  0  0  0  0  0
   36.7060   22.9120   32.7210 C   0  0  0  0  0  2  0  0  0  0  0  0
   35.6790   23.1100   31.6170 C   0  0  0  0  0  2  0  0  0  0  0  0
   36.2990   24.2620   30.8340 C   0  0  0  0  0  3  0  0  0  0  0  0
   35.5890   24.7690   30.1680 H   0  0  0  0  0  0  0  0  0  0  0  0
  1  6  1  0  0  0  0
  2  3  1  0  0  0  0
  2  1  1  0  0  0  0
  3  4  1  0  0  0  0
  4  5  1  0  0  0  0
  4 11  1  0  0  0  0
  5 13  1  0  0  0  0
  6  5  1  0  0  0  0
  6 16  1  0  0  0  0
  6 14  1  1  0  0  0
  7  2  1  0  0  0  0
  8  2  1  0  0  0  0
  9  3  1  0  0  0  0
 10  3  1  0  0  0  0
 12  5  1  0  0  0  0
 15 20  2  0  0  0  0
 15 16  1  0  0  0  0
 16 17  2  0  0  0  0
 17 18  1  0  0  0  0
 17 25  1  0  0  0  0
 18 23  1  0  0  0  0
 19 21  1  0  0  0  0
 19 18  2  0  0  0  0
 20 19  1  0  0  0  0
 21 22  1  0  0  0  0
 22 23  1  0  0  0  0
 22 27  1  0  0  0  0
 24 15  1  0  0  0  0
 26 20  1  0  0  0  0
 28 22  1  0  0  0  0
 29 30  1  0  0  0  0
 30  1  1  0  0  0  0
 30 31  2  0  0  0  0
 31 36  1  0  0  0  0
 32 31  1  0  0  0  0
 33 32  2  0  0  0  0
 34 29  2  0  0  0  0
 34 33  1  0  0  0  0
 35 29  1  0  0  0  0
 37 33  1  0  0  0  0
 37 38  1  0  0  0  0
 39 38  1  0  0  0  0
 40 39  1  0  0  0  0
 41 40  1  0  0  0  0
 41 37  1  0  0  0  0
 42 41  1  0  0  0  0
M  END
>  <minimizedAffinity>
-5.41508293

$$$$

 OpenBabel03272508323D

 42 46  0  0  1  0  0  0  0  0999 V2000
   38.4700   24.3000   34.8620 N   0  0  0  0  0  0  0  0  0  0  0  0
   37.7590   23.0410   34.7600 C   0  0  0  0  0  0  0  0  0  0  0  0
   38.3730   21.9690   35.5860 C   0  0  0  0  0  0  0  0  0  0  0  0
   39.1560   22.5380   36.6540 N   0  0  0  0  0  0  0  0  0  0  0  0
   40.3050   23.1900   36.0340 C   0  0  0  0  0  0  0  0  0  0  0  0
   39.7920   24.4860   35.4890 C   0  0  1  0  0  0  0  0  0  0  0  0
   37.8040   22.7360   33.6870 H   0  0  0  0  0  0  0  0  0  0  0  0
   36.6730   23.1730   34.9650 H   0  0  0  0  0  0  0  0  0  0  0  0
   37.5340   21.3590   36.0040 H   0  0  0  0  0  0  0  0  0  0  0  0
   39.0460   21.3440   34.9760 H   0  0  0  0  0  0  0  0  0  0  0  0
   38.6230   23.1780   37.2690 H   0  0  0  0  0  0  0  0  0  0  0  0
   40.5880   22.5390   35.1530 H   0  0  0  0  0  0  0  0  0  0  0  0
   41.1300   23.3380   36.7230 H   0  0  0  0  0  0  0  0  0  0  0  0
   39.6040   25.1820   36.3390 H   0  0  0  0  0  0  0  0  0  0  0  0
   41.1110   26.4900   34.6690 C   0  0  0  0  0  0  0  0  0  0  0  0
   40.7530   25.1410   34.5770 C   0  0  0  0  0  0  0  0  0  0  0  0
   41.3420   24.3290   33.6270 C   0  0  0  0  0  0  0  0  0  0  0  0
   42.2830   24.8930   32.7970 C   0  0  0  0  0  0  0  0  0  0  0  0
   42.6360   26.2590   32.9000 C   0  0  0  0  0  0  0  0  0  0  0  0
   42.0440   27.0980   33.8550 C   0  0  0  0  0  0  0  0  0  0  0  0
   43.6110   26.5730   31.9350 O   0  0  0  0  0  0  0  0  0  0  0  0
   44.1480   25.3470   31.5120 C   0  0  0  0  0  0  0  0  0  0  0  0
   43.0870   24.4210   31.7540 O   0  0  0  0  0  0  0  0  0  0  0  0
   40.6320   27.1030   35.4190 H   0  0  0  0  0  0  0  0  0  0  0  0
   41.1960   23.3300   33.3000 H   0  0  0  0  0  0  0  0  0  0  0  0
   42.3070   28.1390   33.9360 H   0  0  0  0  0  0  0  0  0  0  0  0
   44.4850   25.3330   30.4770 H   0  0  0  0  0  0  0  0  0  0  0  0
   44.9520   25.0320   32.2370 H   0  0  0  0  0  0  0  0  0  0  0  0
   37.6290   25.5910   32.9290 C   0  0  0  0  0  0  0  0  0  0  0  0
   37.8480   25.4680   34.3200 C   0  0  0  0  0  0  0  0  0  0  0  0
   37.4240   26.5100   35.1190 C   0  0  0  0  0  0  0  0  0  0  0  0
   36.8170   27.5960   34.5350 N   0  0  0  0  0  0  0  0  0  0  0  0
   36.6320   27.6610   33.2110 C   0  0  0  0  0  0  0  0  0  0  0  0
   37.0280   26.6740   32.3950 N   0  0  0  0  0  0  0  0  0  0  0  0
   37.9540   24.7880   32.2790 H   0  0  0  0  0  0  0  0  0  0  0  0
   37.5840   26.4330   36.1700 H   0  0  0  0  0  0  0  0  0  0  0  0
   35.9990   28.8010   32.6490 N   0  0  0  0  0  0  0  0  0  0  0  0
   35.2330   29.8360   33.3160 C   0  0  0  0  0  2  0  0  0  0  0  0
   35.6970   31.1150   32.6160 C   0  0  0  0  0  2  0  0  0  0  0  0
   36.4370   30.6550   31.3690 C   0  0  0  0  0  2  0  0  0  0  0  0
   35.9670   29.2090   31.2580 C   0  0  0  0  0  3  0  0  0  0  0  0
   36.5990   28.5950   30.6040 H   0  0  0  0  0  0  0  0  0  0  0  0
  1  6  1  0  0  0  0
  2  1  1  0  0  0  0
  2  8  1  0  0  0  0
  2  3  1  0  0  0  0
  3  9  1  0  0  0  0
  3  4  1  0  0  0  0
  4 11  1  0  0  0  0
  5  4  1  0  0  0  0
  5 13  1  0  0  0  0
  6  5  1  0  0  0  0
  6 14  1  1  0  0  0
  7  2  1  0  0  0  0
 10  3  1  0  0  0  0
 12  5  1  0  0  0  0
 15 24  1  0  0  0  0
 16 15  1  0  0  0  0
 16  6  1  0  0  0  0
 17 16  2  0  0  0  0
 18 19  2  0  0  0  0
 18 17  1  0  0  0  0
 19 20  1  0  0  0  0
 20 26  1  0  0  0  0
 20 15  2  0  0  0  0
 21 19  1  0  0  0  0
 22 23  1  0  0  0  0
 22 21  1  0  0  0  0
 22 28  1  0  0  0  0
 23 18  1  0  0  0  0
 25 17  1  0  0  0  0
 27 22  1  0  0  0  0
 29 30  1  0  0  0  0
 30  1  1  0  0  0  0
 30 31  2  0  0  0  0
 31 36  1  0  0  0  0
 32 31  1  0  0  0  0
 33 32  2  0  0  0  0
 34 29  2  0  0  0  0
 34 33  1  0  0  0  0
 35 29  1  0  0  0  0
 37 33  1  0  0  0  0
 37 38  1  0  0  0  0
 39 38  1  0  0  0  0
 40 39  1  0  0  0  0
 41 40  1  0  0  0  0
 41 37  1  0  0  0  0
 42 41  1  0  0  0  0
M  END
>  <minimizedAffinity>
-5.35277319

$$$$

 OpenBabel03272508323D

 42 46  0  0  1  0  0  0  0  0999 V2000
   38.5000   24.3320   34.8810 N   0  0  0  0  0  0  0  0  0  0  0  0
   38.0980   24.8390   36.1770 C   0  0  0  0  0  0  0  0  0  0  0  0
   38.5130   23.9490   37.2940 C   0  0  0  0  0  0  0  0  0  0  0  0
   39.6250   23.1220   36.8960 N   0  0  0  0  0  0  0  0  0  0  0  0
   39.1210   22.1940   35.8890 C   0  0  0  0  0  0  0  0  0  0  0  0
   39.0300   22.9810   34.6190 C   0  0  1  0  0  0  0  0  0  0  0  0
   36.9840   24.9010   36.1640 H   0  0  0  0  0  0  0  0  0  0  0  0
   38.4310   25.8910   36.3210 H   0  0  0  0  0  0  0  0  0  0  0  0
   38.8080   24.6110   38.1450 H   0  0  0  0  0  0  0  0  0  0  0  0
   37.6870   23.2800   37.5860 H   0  0  0  0  0  0  0  0  0  0  0  0
   40.4460   23.6570   36.5650 H   0  0  0  0  0  0  0  0  0  0  0  0
   38.0650   21.9400   36.2070 H   0  0  0  0  0  0  0  0  0  0  0  0
   39.7440   21.3130   35.7770 H   0  0  0  0  0  0  0  0  0  0  0  0
   40.0610   23.1530   34.2320 H   0  0  0  0  0  0  0  0  0  0  0  0
   38.7620   22.0410   32.2800 C   0  0  0  0  0  0  0  0  0  0  0  0
   38.2670   22.2780   33.5670 C   0  0  0  0  0  0  0  0  0  0  0  0
   37.0220   21.8030   33.9310 C   0  0  0  0  0  0  0  0  0  0  0  0
   36.3060   21.0950   32.9930 C   0  0  0  0  0  0  0  0  0  0  0  0
   36.8170   20.8640   31.6940 C   0  0  0  0  0  0  0  0  0  0  0  0
   38.0770   21.3430   31.3070 C   0  0  0  0  0  0  0  0  0  0  0  0
   35.8860   20.1240   30.9410 O   0  0  0  0  0  0  0  0  0  0  0  0
   34.9960   19.5600   31.8690 C   0  0  0  0  0  0  0  0  0  0  0  0
   35.0600   20.4620   32.9760 O   0  0  0  0  0  0  0  0  0  0  0  0
   39.7360   22.4270   32.0210 H   0  0  0  0  0  0  0  0  0  0  0  0
   36.3990   21.9100   34.7830 H   0  0  0  0  0  0  0  0  0  0  0  0
   38.4690   21.1720   30.3190 H   0  0  0  0  0  0  0  0  0  0  0  0
   33.9810   19.4260   31.5000 H   0  0  0  0  0  0  0  0  0  0  0  0
   35.4450   18.6070   32.2710 H   0  0  0  0  0  0  0  0  0  0  0  0
   39.4990   25.4590   32.9210 C   0  0  0  0  0  0  0  0  0  0  0  0
   38.3850   25.2040   33.7530 C   0  0  0  0  0  0  0  0  0  0  0  0
   37.1950   25.8150   33.4180 C   0  0  0  0  0  0  0  0  0  0  0  0
   37.1490   26.6270   32.3100 N   0  0  0  0  0  0  0  0  0  0  0  0
   38.2340   26.8340   31.5540 C   0  0  0  0  0  0  0  0  0  0  0  0
   39.4120   26.2620   31.8410 N   0  0  0  0  0  0  0  0  0  0  0  0
   40.4460   24.9930   33.1630 H   0  0  0  0  0  0  0  0  0  0  0  0
   36.3470   25.6340   34.0380 H   0  0  0  0  0  0  0  0  0  0  0  0
   38.1420   27.6790   30.4160 N   0  0  0  0  0  0  0  0  0  0  0  0
   36.9550   28.1630   29.7380 C   0  0  0  0  0  2  0  0  0  0  0  0
   37.3080   29.6180   29.4210 C   0  0  0  0  0  2  0  0  0  0  0  0
   38.8090   29.7340   29.6420 C   0  0  0  0  0  2  0  0  0  0  0  0
   39.2250   28.2680   29.6530 C   0  0  0  0  0  3  0  0  0  0  0  0
   40.2170   28.0990   30.0910 H   0  0  0  0  0  0  0  0  0  0  0  0
  1  2  1  0  0  0  0
  2  8  1  0  0  0  0
  2  3  1  0  0  0  0
  3 10  1  0  0  0  0
  3  9  1  0  0  0  0
  4  3  1  0  0  0  0
  5 12  1  0  0  0  0
  5  4  1  0  0  0  0
  6 14  1  6  0  0  0
  6  1  1  0  0  0  0
  6  5  1  0  0  0  0
  7  2  1  0  0  0  0
 11  4  1  0  0  0  0
 13  5  1  0  0  0  0
 15 16  1  0  0  0  0
 16 17  2  0  0  0  0
 16  6  1  0  0  0  0
 17 25  1  0  0  0  0
 18 17  1  0  0  0  0
 19 18  2  0  0  0  0
 20 19  1  0  0  0  0
 20 15  2  0  0  0  0
 21 19  1  0  0  0  0
 21 22  1  0  0  0  0
 22 28  1  0  0  0  0
 22 23  1  0  0  0  0
 23 18  1  0  0  0  0
 24 15  1  0  0  0  0
 26 20  1  0  0  0  0
 27 22  1  0  0  0  0
 29 35  1  0  0  0  0
 29 30  1  0  0  0  0
 30  1  1  0  0  0  0
 31 30  2  0  0  0  0
 31 36  1  0  0  0  0
 32 31  1  0  0  0  0
 33 34  1  0  0  0  0
 33 32  2  0  0  0  0
 34 29  2  0  0  0  0
 37 33  1  0  0  0  0
 38 37  1  0  0  0  0
 39 40  1  0  0  0  0
 39 38  1  0  0  0  0
 40 41  1  0  0  0  0
 41 42  1  0  0  0  0
 41 37  1  0  0  0  0
M  END
>  <minimizedAffinity>
-5.3384366

$$$$
