
 OpenBabel03272500133D

 18 19  0  0  0  0  0  0  0  0999 V2000
   38.0690   24.9950   36.2580 C   0  0  0  0  0  0  0  0  0  0  0  0
   38.1510   23.7620   36.9310 C   0  0  0  0  0  0  0  0  0  0  0  0
   38.1530   22.5930   36.1730 C   0  0  0  0  0  0  0  0  0  0  0  0
   38.0740   22.7110   34.8050 N   0  0  0  0  0  0  0  0  0  0  0  0
   37.9960   23.8990   34.2010 C   0  0  0  0  0  0  0  0  0  0  0  0
   37.9930   25.0340   34.9090 N   0  0  0  0  0  0  0  0  0  0  0  0
   38.0610   25.9460   36.7630 H   0  0  0  0  0  0  0  0  0  0  0  0
   38.2170   21.6440   36.6880 H   0  0  0  0  0  0  0  0  0  0  0  0
   37.9170   23.9290   32.7810 N   0  0  0  0  0  0  0  0  0  0  0  0
   38.9190   24.6020   31.9510 C   0  0  0  0  0  2  0  0  0  0  0  0
   38.3040   24.6780   30.5680 C   0  0  0  0  0  2  0  0  0  0  0  0
   36.8240   24.4500   30.8490 C   0  0  0  0  0  2  0  0  0  0  0  0
   36.9150   23.3490   31.9070 C   0  0  0  0  0  3  0  0  0  0  0  0
   37.3160   22.4360   31.4610 H   0  0  0  0  0  0  0  0  0  0  0  0
   38.2330   23.7710   38.4220 C   0  0  0  0  0  0  0  0  0  0  0  0
   37.3660   22.8370   38.9780 F   0  0  0  0  0  0  0  0  0  0  0  0
   39.5180   23.3970   38.7780 F   0  0  0  0  0  0  0  0  0  0  0  0
   37.9660   25.0030   38.9660 F   0  0  0  0  0  0  0  0  0  0  0  0
  1  7  1  0  0  0  0
  1  2  1  0  0  0  0
  2 15  1  0  0  0  0
  3  8  1  0  0  0  0
  3  2  2  0  0  0  0
  4  3  1  0  0  0  0
  5  4  2  0  0  0  0
  5  6  1  0  0  0  0
  6  1  2  0  0  0  0
  9  5  1  0  0  0  0
 10  9  1  0  0  0  0
 11 12  1  0  0  0  0
 11 10  1  0  0  0  0
 12 13  1  0  0  0  0
 13  9  1  0  0  0  0
 14 13  1  0  0  0  0
 15 17  1  0  0  0  0
 15 18  1  0  0  0  0
 15 16  1  0  0  0  0
M  END
>  <minimizedAffinity>
-4.79121542

$$$$

 OpenBabel03272500133D

 18 19  0  0  0  0  0  0  0  0999 V2000
   38.1400   22.8810   36.1360 C   0  0  0  0  0  0  0  0  0  0  0  0
   38.1690   24.0050   36.9810 C   0  0  0  0  0  0  0  0  0  0  0  0
   38.1480   25.2710   36.4000 C   0  0  0  0  0  0  0  0  0  0  0  0
   38.1010   25.3510   35.0280 N   0  0  0  0  0  0  0  0  0  0  0  0
   38.0760   24.2610   34.2570 C   0  0  0  0  0  0  0  0  0  0  0  0
   38.0940   23.0360   34.7940 N   0  0  0  0  0  0  0  0  0  0  0  0
   38.1530   21.8670   36.4980 H   0  0  0  0  0  0  0  0  0  0  0  0
   38.1700   26.1380   37.0480 H   0  0  0  0  0  0  0  0  0  0  0  0
   38.0270   24.4360   32.8460 N   0  0  0  0  0  0  0  0  0  0  0  0
   36.9280   23.9180   32.0270 C   0  0  0  0  0  2  0  0  0  0  0  0
   37.4150   24.0260   30.5950 C   0  0  0  0  0  2  0  0  0  0  0  0
   38.9220   24.1690   30.7660 C   0  0  0  0  0  2  0  0  0  0  0  0
   38.9710   25.1070   31.9730 C   0  0  0  0  0  3  0  0  0  0  0  0
   38.5700   26.0860   31.7000 H   0  0  0  0  0  0  0  0  0  0  0  0
   38.2200   23.7830   38.4570 C   0  0  0  0  0  0  0  0  0  0  0  0
   39.4960   23.4120   38.8650 F   0  0  0  0  0  0  0  0  0  0  0  0
   37.9270   24.9870   39.0760 F   0  0  0  0  0  0  0  0  0  0  0  0
   37.3230   22.8360   38.8880 F   0  0  0  0  0  0  0  0  0  0  0  0
  1  7  1  0  0  0  0
  1  2  1  0  0  0  0
  2 15  1  0  0  0  0
  3  2  2  0  0  0  0
  3  8  1  0  0  0  0
  4  3  1  0  0  0  0
  5  6  1  0  0  0  0
  5  4  2  0  0  0  0
  6  1  2  0  0  0  0
  9  5  1  0  0  0  0
 10  9  1  0  0  0  0
 11 12  1  0  0  0  0
 11 10  1  0  0  0  0
 12 13  1  0  0  0  0
 13  9  1  0  0  0  0
 14 13  1  0  0  0  0
 15 16  1  0  0  0  0
 15 18  1  0  0  0  0
 15 17  1  0  0  0  0
M  END
>  <minimizedAffinity>
-4.78450632

$$$$

 OpenBabel03272500133D

 18 19  0  0  0  0  0  0  0  0999 V2000
   38.1630   23.6610   35.8130 C   0  0  0  0  0  0  0  0  0  0  0  0
   38.1870   24.4720   36.9610 C   0  0  0  0  0  0  0  0  0  0  0  0
   38.0920   25.8520   36.8000 C   0  0  0  0  0  0  0  0  0  0  0  0
   37.9780   26.3460   35.5210 N   0  0  0  0  0  0  0  0  0  0  0  0
   37.9580   25.5450   34.4540 C   0  0  0  0  0  0  0  0  0  0  0  0
   38.0480   24.2170   34.5860 N   0  0  0  0  0  0  0  0  0  0  0  0
   38.2300   22.5870   35.8440 H   0  0  0  0  0  0  0  0  0  0  0  0
   38.1110   26.4790   37.6820 H   0  0  0  0  0  0  0  0  0  0  0  0
   37.8370   26.1410   33.1670 N   0  0  0  0  0  0  0  0  0  0  0  0
   36.7220   25.8450   32.2650 C   0  0  0  0  0  2  0  0  0  0  0  0
   37.1370   26.4100   30.9210 C   0  0  0  0  0  2  0  0  0  0  0  0
   38.6440   26.5700   31.0780 C   0  0  0  0  0  2  0  0  0  0  0  0
   38.7130   27.0940   32.5140 C   0  0  0  0  0  3  0  0  0  0  0  0
   38.2640   28.0880   32.5690 H   0  0  0  0  0  0  0  0  0  0  0  0
   38.3160   23.8110   38.2950 C   0  0  0  0  0  0  0  0  0  0  0  0
   39.5530   23.1910   38.4310 F   0  0  0  0  0  0  0  0  0  0  0  0
   38.2450   24.7980   39.2650 F   0  0  0  0  0  0  0  0  0  0  0  0
   37.3270   22.8870   38.5320 F   0  0  0  0  0  0  0  0  0  0  0  0
  1  7  1  0  0  0  0
  1  2  1  0  0  0  0
  2 15  1  0  0  0  0
  3  2  2  0  0  0  0
  3  8  1  0  0  0  0
  4  3  1  0  0  0  0
  5  6  1  0  0  0  0
  5  4  2  0  0  0  0
  6  1  2  0  0  0  0
  9  5  1  0  0  0  0
 10  9  1  0  0  0  0
 11 12  1  0  0  0  0
 11 10  1  0  0  0  0
 12 13  1  0  0  0  0
 13 14  1  0  0  0  0
 13  9  1  0  0  0  0
 15 16  1  0  0  0  0
 15 18  1  0  0  0  0
 15 17  1  0  0  0  0
M  END
>  <minimizedAffinity>
-4.50911379

$$$$

 OpenBabel03272500133D

 18 19  0  0  0  0  0  0  0  0999 V2000
   36.5520   23.6110   31.9220 C   0  0  0  0  0  0  0  0  0  0  0  0
   36.5920   22.2540   32.2900 C   0  0  0  0  0  0  0  0  0  0  0  0
   37.2820   21.9030   33.4490 C   0  0  0  0  0  0  0  0  0  0  0  0
   37.8870   22.9060   34.1690 N   0  0  0  0  0  0  0  0  0  0  0  0
   37.8280   24.1840   33.7880 C   0  0  0  0  0  0  0  0  0  0  0  0
   37.1710   24.5440   32.6800 N   0  0  0  0  0  0  0  0  0  0  0  0
   36.0430   23.9730   31.0450 H   0  0  0  0  0  0  0  0  0  0  0  0
   37.3150   20.8590   33.7340 H   0  0  0  0  0  0  0  0  0  0  0  0
   38.4830   25.1570   34.5930 N   0  0  0  0  0  0  0  0  0  0  0  0
   37.7660   26.2690   35.2230 C   0  0  0  0  0  2  0  0  0  0  0  0
   38.8460   27.2210   35.6960 C   0  0  0  0  0  2  0  0  0  0  0  0
   40.0580   26.7800   34.8840 C   0  0  0  0  0  2  0  0  0  0  0  0
   39.8870   25.2610   34.9440 C   0  0  0  0  0  3  0  0  0  0  0  0
   40.0250   24.9110   35.9690 H   0  0  0  0  0  0  0  0  0  0  0  0
   35.8940   21.2610   31.4200 C   0  0  0  0  0  0  0  0  0  0  0  0
   35.0150   20.4770   32.1590 F   0  0  0  0  0  0  0  0  0  0  0  0
   35.1350   21.9660   30.4990 F   0  0  0  0  0  0  0  0  0  0  0  0
   36.7600   20.4400   30.7420 F   0  0  0  0  0  0  0  0  0  0  0  0
  1  2  2  0  0  0  0
  1  6  1  0  0  0  0
  2  3  1  0  0  0  0
  3  8  1  0  0  0  0
  3  4  2  0  0  0  0
  5  4  1  0  0  0  0
  5  9  1  0  0  0  0
  6  5  2  0  0  0  0
  7  1  1  0  0  0  0
  9 13  1  0  0  0  0
  9 10  1  0  0  0  0
 10 11  1  0  0  0  0
 12 13  1  0  0  0  0
 12 11  1  0  0  0  0
 13 14  1  0  0  0  0
 15 16  1  0  0  0  0
 15  2  1  0  0  0  0
 17 15  1  0  0  0  0
 18 15  1  0  0  0  0
M  END
>  <minimizedAffinity>
-4.35318184

$$$$

 OpenBabel03272500133D

 18 19  0  0  0  0  0  0  0  0999 V2000
   37.7880   25.0090   33.2250 C   0  0  0  0  0  0  0  0  0  0  0  0
   37.3130   24.0200   32.3450 C   0  0  0  0  0  0  0  0  0  0  0  0
   37.2880   22.6990   32.7860 C   0  0  0  0  0  0  0  0  0  0  0  0
   37.7280   22.4350   34.0610 N   0  0  0  0  0  0  0  0  0  0  0  0
   38.1720   23.4010   34.8690 C   0  0  0  0  0  0  0  0  0  0  0  0
   38.2060   24.6760   34.4660 N   0  0  0  0  0  0  0  0  0  0  0  0
   37.8420   26.0540   32.9680 H   0  0  0  0  0  0  0  0  0  0  0  0
   36.9240   21.9350   32.1100 H   0  0  0  0  0  0  0  0  0  0  0  0
   38.6100   23.0400   36.1730 N   0  0  0  0  0  0  0  0  0  0  0  0
   37.9900   23.5750   37.3880 C   0  0  0  0  0  2  0  0  0  0  0  0
   38.9360   23.2070   38.5130 C   0  0  0  0  0  2  0  0  0  0  0  0
   40.2300   22.8960   37.7710 C   0  0  0  0  0  2  0  0  0  0  0  0
   39.6750   22.1370   36.5650 C   0  0  0  0  0  3  0  0  0  0  0  0
   39.2390   21.1890   36.8890 H   0  0  0  0  0  0  0  0  0  0  0  0
   36.8630   24.4370   30.9830 C   0  0  0  0  0  0  0  0  0  0  0  0
   35.5470   24.0540   30.7490 F   0  0  0  0  0  0  0  0  0  0  0  0
   36.9000   25.8220   30.9310 F   0  0  0  0  0  0  0  0  0  0  0  0
   37.6560   23.9380   29.9800 F   0  0  0  0  0  0  0  0  0  0  0  0
  1  6  1  0  0  0  0
  2  3  1  0  0  0  0
  2  1  2  0  0  0  0
  3  4  2  0  0  0  0
  4  5  1  0  0  0  0
  5  9  1  0  0  0  0
  6  5  2  0  0  0  0
  7  1  1  0  0  0  0
  8  3  1  0  0  0  0
  9 13  1  0  0  0  0
  9 10  1  0  0  0  0
 10 11  1  0  0  0  0
 12 11  1  0  0  0  0
 13 14  1  0  0  0  0
 13 12  1  0  0  0  0
 15  2  1  0  0  0  0
 16 15  1  0  0  0  0
 17 15  1  0  0  0  0
 18 15  1  0  0  0  0
M  END
>  <minimizedAffinity>
-4.33860064

$$$$

 OpenBabel03272500133D

 18 19  0  0  0  0  0  0  0  0999 V2000
   37.2530   22.1930   33.1760 C   0  0  0  0  0  0  0  0  0  0  0  0
   37.1250   23.3540   32.3930 C   0  0  0  0  0  0  0  0  0  0  0  0
   37.5410   24.5680   32.9350 C   0  0  0  0  0  0  0  0  0  0  0  0
   38.0550   24.5630   34.2100 N   0  0  0  0  0  0  0  0  0  0  0  0
   38.1610   23.4400   34.9250 C   0  0  0  0  0  0  0  0  0  0  0  0
   37.7680   22.2640   34.4240 N   0  0  0  0  0  0  0  0  0  0  0  0
   36.9580   21.2140   32.8380 H   0  0  0  0  0  0  0  0  0  0  0  0
   37.4430   25.4630   32.3340 H   0  0  0  0  0  0  0  0  0  0  0  0
   38.7040   23.5260   36.2360 N   0  0  0  0  0  0  0  0  0  0  0  0
   39.9160   22.8050   36.6350 C   0  0  0  0  0  2  0  0  0  0  0  0
   39.9580   22.9050   38.1470 C   0  0  0  0  0  2  0  0  0  0  0  0
   38.5240   23.2810   38.4960 C   0  0  0  0  0  2  0  0  0  0  0  0
   38.2260   24.2820   37.3790 C   0  0  0  0  0  3  0  0  0  0  0  0
   38.8460   25.1730   37.5020 H   0  0  0  0  0  0  0  0  0  0  0  0
   36.5490   23.2250   31.0200 C   0  0  0  0  0  0  0  0  0  0  0  0
   36.2670   21.8970   30.7170 F   0  0  0  0  0  0  0  0  0  0  0  0
   35.3470   23.9130   31.0000 F   0  0  0  0  0  0  0  0  0  0  0  0
   37.3680   23.7380   30.0450 F   0  0  0  0  0  0  0  0  0  0  0  0
  1  6  1  0  0  0  0
  2  3  1  0  0  0  0
  2  1  2  0  0  0  0
  3  4  2  0  0  0  0
  4  5  1  0  0  0  0
  5  9  1  0  0  0  0
  6  5  2  0  0  0  0
  7  1  1  0  0  0  0
  8  3  1  0  0  0  0
  9 10  1  0  0  0  0
  9 13  1  0  0  0  0
 10 11  1  0  0  0  0
 11 12  1  0  0  0  0
 13 14  1  0  0  0  0
 13 12  1  0  0  0  0
 15  2  1  0  0  0  0
 16 15  1  0  0  0  0
 17 15  1  0  0  0  0
 18 15  1  0  0  0  0
M  END
>  <minimizedAffinity>
-4.33201981

$$$$

 OpenBabel03272500133D

 18 19  0  0  0  0  0  0  0  0999 V2000
   39.9440   23.8220   34.9080 C   0  0  0  0  0  0  0  0  0  0  0  0
   39.5520   23.6680   36.2500 C   0  0  0  0  0  0  0  0  0  0  0  0
   38.4100   24.3370   36.6870 C   0  0  0  0  0  0  0  0  0  0  0  0
   37.7290   25.1130   35.7790 N   0  0  0  0  0  0  0  0  0  0  0  0
   38.1330   25.2360   34.5120 C   0  0  0  0  0  0  0  0  0  0  0  0
   39.2250   24.6030   34.0710 N   0  0  0  0  0  0  0  0  0  0  0  0
   40.8110   23.3430   34.4850 H   0  0  0  0  0  0  0  0  0  0  0  0
   38.1070   24.2200   37.7190 H   0  0  0  0  0  0  0  0  0  0  0  0
   37.3680   26.0590   33.6400 N   0  0  0  0  0  0  0  0  0  0  0  0
   36.7360   25.5430   32.4230 C   0  0  0  0  0  2  0  0  0  0  0  0
   36.3160   26.7720   31.6410 C   0  0  0  0  0  2  0  0  0  0  0  0
   37.1590   27.8730   32.2730 C   0  0  0  0  0  2  0  0  0  0  0  0
   37.0650   27.4740   33.7470 C   0  0  0  0  0  3  0  0  0  0  0  0
   36.0380   27.5930   34.1000 H   0  0  0  0  0  0  0  0  0  0  0  0
   40.3800   22.7960   37.1360 C   0  0  0  0  0  0  0  0  0  0  0  0
   41.7220   23.1550   37.0830 F   0  0  0  0  0  0  0  0  0  0  0  0
   39.9550   22.9940   38.4400 F   0  0  0  0  0  0  0  0  0  0  0  0
   40.2650   21.4610   36.8330 F   0  0  0  0  0  0  0  0  0  0  0  0
  1  2  1  0  0  0  0
  2  3  2  0  0  0  0
  2 15  1  0  0  0  0
  3  8  1  0  0  0  0
  4  3  1  0  0  0  0
  5  4  2  0  0  0  0
  6  5  1  0  0  0  0
  6  1  2  0  0  0  0
  7  1  1  0  0  0  0
  9 13  1  0  0  0  0
  9  5  1  0  0  0  0
 10  9  1  0  0  0  0
 11 12  1  0  0  0  0
 11 10  1  0  0  0  0
 12 13  1  0  0  0  0
 13 14  1  0  0  0  0
 15 17  1  0  0  0  0
 16 15  1  0  0  0  0
 18 15  1  0  0  0  0
M  END
>  <minimizedAffinity>
-4.33038378

$$$$

 OpenBabel03272500133D

 18 19  0  0  0  0  0  0  0  0999 V2000
   38.8450   23.3560   36.2160 C   0  0  0  0  0  0  0  0  0  0  0  0
   40.0620   22.6620   36.0990 C   0  0  0  0  0  0  0  0  0  0  0  0
   40.4100   22.1390   34.8550 C   0  0  0  0  0  0  0  0  0  0  0  0
   39.5390   22.3300   33.8080 N   0  0  0  0  0  0  0  0  0  0  0  0
   38.3900   22.9940   33.9580 C   0  0  0  0  0  0  0  0  0  0  0  0
   38.0370   23.5050   35.1420 N   0  0  0  0  0  0  0  0  0  0  0  0
   38.4970   23.7930   37.1370 H   0  0  0  0  0  0  0  0  0  0  0  0
   41.3460   21.6040   34.7630 H   0  0  0  0  0  0  0  0  0  0  0  0
   37.5480   23.1450   32.8210 N   0  0  0  0  0  0  0  0  0  0  0  0
   37.1730   24.4580   32.2890 C   0  0  0  0  0  2  0  0  0  0  0  0
   36.0420   24.1850   31.3170 C   0  0  0  0  0  2  0  0  0  0  0  0
   35.5760   22.7950   31.7320 C   0  0  0  0  0  2  0  0  0  0  0  0
   36.9240   22.1250   32.0000 C   0  0  0  0  0  3  0  0  0  0  0  0
   37.4840   22.0260   31.0670 H   0  0  0  0  0  0  0  0  0  0  0  0
   40.9200   22.5230   37.3140 C   0  0  0  0  0  0  0  0  0  0  0  0
   42.0940   23.2580   37.1880 F   0  0  0  0  0  0  0  0  0  0  0  0
   40.2210   23.0520   38.3880 F   0  0  0  0  0  0  0  0  0  0  0  0
   41.2410   21.2180   37.5970 F   0  0  0  0  0  0  0  0  0  0  0  0
  1  7  1  0  0  0  0
  2  1  1  0  0  0  0
  2 15  1  0  0  0  0
  3  2  2  0  0  0  0
  4  5  2  0  0  0  0
  4  3  1  0  0  0  0
  5  6  1  0  0  0  0
  6  1  2  0  0  0  0
  8  3  1  0  0  0  0
  9  5  1  0  0  0  0
 10  9  1  0  0  0  0
 11 12  1  0  0  0  0
 11 10  1  0  0  0  0
 12 13  1  0  0  0  0
 13  9  1  0  0  0  0
 14 13  1  0  0  0  0
 15 18  1  0  0  0  0
 15 17  1  0  0  0  0
 16 15  1  0  0  0  0
M  END
>  <minimizedAffinity>
-4.29947138

$$$$

 OpenBabel03272500133D

 18 19  0  0  0  0  0  0  0  0999 V2000
   38.6550   26.9880   34.2180 C   0  0  0  0  0  0  0  0  0  0  0  0
   38.1020   26.5020   33.0200 C   0  0  0  0  0  0  0  0  0  0  0  0
   37.7250   25.1620   32.9610 C   0  0  0  0  0  0  0  0  0  0  0  0
   37.9150   24.3880   34.0810 N   0  0  0  0  0  0  0  0  0  0  0  0
   38.4440   24.8850   35.2020 C   0  0  0  0  0  0  0  0  0  0  0  0
   38.8130   26.1670   35.2810 N   0  0  0  0  0  0  0  0  0  0  0  0
   38.9740   28.0080   34.3530 H   0  0  0  0  0  0  0  0  0  0  0  0
   37.2990   24.7860   32.0390 H   0  0  0  0  0  0  0  0  0  0  0  0
   38.6050   24.0120   36.3140 N   0  0  0  0  0  0  0  0  0  0  0  0
   37.9550   24.2540   37.6040 C   0  0  0  0  0  2  0  0  0  0  0  0
   38.6310   23.3050   38.5740 C   0  0  0  0  0  2  0  0  0  0  0  0
   39.9150   22.9380   37.8400 C   0  0  0  0  0  2  0  0  0  0  0  0
   39.3800   22.7900   36.4150 C   0  0  0  0  0  3  0  0  0  0  0  0
   38.7050   21.9340   36.3570 H   0  0  0  0  0  0  0  0  0  0  0  0
   37.9490   27.4480   31.8740 C   0  0  0  0  0  0  0  0  0  0  0  0
   37.1550   26.8990   30.8730 F   0  0  0  0  0  0  0  0  0  0  0  0
   37.2940   28.5760   32.3410 F   0  0  0  0  0  0  0  0  0  0  0  0
   39.1500   27.8290   31.3300 F   0  0  0  0  0  0  0  0  0  0  0  0
  1  7  1  0  0  0  0
  1  6  1  0  0  0  0
  2  1  2  0  0  0  0
  3  2  1  0  0  0  0
  3  4  2  0  0  0  0
  4  5  1  0  0  0  0
  5  6  2  0  0  0  0
  5  9  1  0  0  0  0
  8  3  1  0  0  0  0
  9 13  1  0  0  0  0
  9 10  1  0  0  0  0
 10 11  1  0  0  0  0
 12 11  1  0  0  0  0
 13 12  1  0  0  0  0
 14 13  1  0  0  0  0
 15 17  1  0  0  0  0
 15  2  1  0  0  0  0
 16 15  1  0  0  0  0
 18 15  1  0  0  0  0
M  END
>  <minimizedAffinity>
-4.27387142

$$$$
