
 OpenBabel03272509243D

 21 22  0  0  0  0  0  0  0  0999 V2000
   38.0470   30.5840   47.6020 C   0  0  0  0  0  0  0  0  0  0  0  0
   39.0040   30.0520   47.4070 H   0  0  0  0  0  0  0  0  0  0  0  0
   37.2820   30.3780   46.8410 H   0  0  0  0  0  0  0  0  0  0  0  0
   37.3970   30.2680   51.3420 C   0  0  0  0  0  0  0  0  0  0  0  0
   38.0170   30.6520   50.1560 C   0  0  0  0  0  0  0  0  0  0  0  0
   37.4850   30.2350   48.9490 C   0  0  0  0  0  0  0  0  0  0  0  0
   36.3560   29.4490   48.9550 N   0  0  0  0  0  0  0  0  0  0  0  0
   35.7890   29.1000   50.1260 C   0  0  0  0  0  0  0  0  0  0  0  0
   36.2890   29.4970   51.3130 N   0  0  0  0  0  0  0  0  0  0  0  0
   37.7830   30.5750   52.2910 H   0  0  0  0  0  0  0  0  0  0  0  0
   38.8880   31.2600   50.1660 H   0  0  0  0  0  0  0  0  0  0  0  0
   34.8990   28.4700   49.9710 H   0  0  0  0  0  0  0  0  0  0  0  0
   38.4280   32.0640   47.6030 C   0  0  0  0  0  0  0  0  0  0  0  0
   39.2790   32.2780   48.2570 H   0  0  0  0  0  0  0  0  0  0  0  0
   37.5240   32.6290   47.9060 H   0  0  0  0  0  0  0  0  0  0  0  0
   38.7460   32.4500   46.2140 N   0  0  0  0  0  0  0  0  0  0  0  0
   40.0060   33.1660   46.1770 C   0  0  0  0  0  0  0  0  0  0  0  0
   40.9200   32.4280   45.2280 C   0  0  0  0  0  0  0  0  0  0  0  0
   39.9570   31.5530   44.4310 C   0  0  0  0  0  0  0  0  0  0  0  0
   38.8950   31.2330   45.4680 C   0  0  0  0  0  0  0  0  0  0  0  0
   39.2850   30.4490   46.1520 H   0  0  0  0  0  0  0  0  0  0  0  0
  1 13  1  0  0  0  0
  1  6  1  0  0  0  0
  2  1  1  0  0  0  0
  3  1  1  0  0  0  0
  4 10  1  0  0  0  0
  5 11  1  0  0  0  0
  5  4  2  0  0  0  0
  6  7  2  0  0  0  0
  6  5  1  0  0  0  0
  7  8  1  0  0  0  0
  8  9  2  0  0  0  0
  9  4  1  0  0  0  0
 12  8  1  0  0  0  0
 13 15  1  0  0  0  0
 13 14  1  0  0  0  0
 16 13  1  0  0  0  0
 17 16  1  0  0  0  0
 18 17  1  0  0  0  0
 19 18  1  0  0  0  0
 19 20  1  0  0  0  0
 20 21  1  0  0  0  0
 20 16  1  0  0  0  0
M  END
>  <minimizedAffinity>
-4.68089437

>  <minimizedRMSD>
1.74991488

$$$$
