
 OpenBabel03272508363D

 41 44  0  0  1  0  0  0  0  0999 V2000
   40.4840   31.8950   44.4390 C   0  0  0  0  0  0  0  0  0  0  0  0
   40.4540   30.8380   44.7660 H   0  0  0  0  0  0  0  0  0  0  0  0
   41.6040   32.1150   44.4650 H   0  0  0  0  0  0  0  0  0  0  0  0
   40.1060   32.0840   43.1120 N   0  0  0  0  0  0  0  0  0  0  0  0
   39.3070   33.2190   42.8240 C   0  0  0  0  0  0  0  0  0  0  0  0
   37.9600   32.9730   42.2820 C   0  0  0  0  0  0  0  0  0  0  0  0
   38.0070   31.9760   41.2660 O   0  0  0  0  0  0  0  0  0  0  0  0
   38.4480   30.8160   41.8880 C   0  0  0  0  0  0  0  0  0  0  0  0
   39.8860   31.0250   42.2280 C   0  0  2  0  0  0  0  0  0  0  0  0
   39.8780   33.5760   41.8890 H   0  0  0  0  0  0  0  0  0  0  0  0
   39.4170   34.1060   43.4230 H   0  0  0  0  0  0  0  0  0  0  0  0
   37.7480   33.9070   41.6150 H   0  0  0  0  0  0  0  0  0  0  0  0
   37.0750   32.8780   42.8060 H   0  0  0  0  0  0  0  0  0  0  0  0
   37.8000   30.4260   42.6690 H   0  0  0  0  0  0  0  0  0  0  0  0
   38.4050   30.0330   41.0680 H   0  0  0  0  0  0  0  0  0  0  0  0
   40.3020   31.4300   41.2410 H   0  0  0  0  0  0  0  0  0  0  0  0
   40.6600   29.8260   42.4140 N   0  0  2  0  0  0  0  0  0  0  0  0
   41.5110   29.5930   41.2580 C   0  0  0  0  0  0  0  0  0  0  0  0
   41.3260   28.2000   40.7860 C   0  0  0  0  0  0  0  0  0  0  0  0
   40.0600   27.7360   41.4040 C   0  0  0  0  0  0  0  0  0  0  0  0
   39.8570   28.6420   42.5830 C   0  0  0  0  0  0  0  0  0  0  0  0
   40.1610   28.0580   43.4760 H   0  0  0  0  0  0  0  0  0  0  0  0
   39.8590   32.7230   45.4630 C   0  0  0  0  0  0  0  0  0  0  0  0
   40.6330   33.0320   46.2280 H   0  0  0  0  0  0  0  0  0  0  0  0
   39.3490   33.6530   45.2260 H   0  0  0  0  0  0  0  0  0  0  0  0
   37.8080   30.9540   47.8180 C   0  0  0  0  0  0  0  0  0  0  0  0
   37.0840   30.8140   46.6630 C   0  0  0  0  0  0  0  0  0  0  0  0
   37.7680   31.4560   45.6480 C   0  0  0  0  0  0  0  0  0  0  0  0
   38.8720   31.9580   46.2180 N   0  0  0  0  0  0  0  0  0  0  0  0
   38.8910   31.6530   47.5200 N   0  0  0  0  0  0  0  0  0  0  0  0
   36.1220   30.2720   46.5960 H   0  0  0  0  0  0  0  0  0  0  0  0
   37.2700   31.4060   44.7060 H   0  0  0  0  0  0  0  0  0  0  0  0
   37.4170   30.1980   51.4880 C   0  0  0  0  0  0  0  0  0  0  0  0
   37.9500   30.7180   50.3220 C   0  0  0  0  0  0  0  0  0  0  0  0
   37.3640   30.4420   49.0960 C   0  0  0  0  0  0  0  0  0  0  0  0
   36.2720   29.6480   49.1700 N   0  0  0  0  0  0  0  0  0  0  0  0
   35.7540   29.1420   50.3090 C   0  0  0  0  0  0  0  0  0  0  0  0
   36.3400   29.4270   51.4630 N   0  0  0  0  0  0  0  0  0  0  0  0
   37.9180   30.4500   52.4040 H   0  0  0  0  0  0  0  0  0  0  0  0
   38.8330   31.3530   50.3130 H   0  0  0  0  0  0  0  0  0  0  0  0
   34.8590   28.5130   50.1940 H   0  0  0  0  0  0  0  0  0  0  0  0
  1  3  1  0  0  0  0
  1  2  1  0  0  0  0
  1 23  1  0  0  0  0
  4  1  1  0  0  0  0
  5  4  1  0  0  0  0
  5 11  1  0  0  0  0
  6 13  1  0  0  0  0
  6  5  1  0  0  0  0
  7  8  1  0  0  0  0
  7  6  1  0  0  0  0
  8  9  1  0  0  0  0
  8 14  1  0  0  0  0
  9 16  1  6  0  0  0
  9 17  1  0  0  0  0
  9  4  1  0  0  0  0
 10  5  1  0  0  0  0
 12  6  1  0  0  0  0
 15  8  1  0  0  0  0
 17 18  1  6  0  0  0
 17 21  1  0  0  0  0
 19 18  1  0  0  0  0
 19 20  1  0  0  0  0
 20 21  1  0  0  0  0
 21 22  1  0  0  0  0
 23 29  1  0  0  0  0
 23 24  1  0  0  0  0
 25 23  1  0  0  0  0
 26 35  1  0  0  0  0
 27 26  1  0  0  0  0
 28 29  1  0  0  0  0
 28 27  2  0  0  0  0
 29 30  1  0  0  0  0
 30 26  2  0  0  0  0
 31 27  1  0  0  0  0
 32 28  1  0  0  0  0
 33 39  1  0  0  0  0
 34 33  2  0  0  0  0
 35 36  2  0  0  0  0
 35 34  1  0  0  0  0
 36 37  1  0  0  0  0
 37 38  2  0  0  0  0
 38 33  1  0  0  0  0
 40 34  1  0  0  0  0
 41 37  1  0  0  0  0
M  END
>  <minimizedAffinity>
-5.7319355

>  <minimizedRMSD>
1.26166403

$$$$
