
 OpenBabel03272507113D

 24 26  0  0  0  0  0  0  0  0999 V2000
   37.1750   27.3080   34.4540 C   0  0  0  0  0  0  0  0  0  0  0  0
   37.9380   27.9510   35.3910 C   0  0  0  0  0  0  0  0  0  0  0  0
   38.4130   26.9800   36.2910 C   0  0  0  0  0  0  0  0  0  0  0  0
   37.8890   25.7910   35.8220 C   0  0  0  0  0  0  0  0  0  0  0  0
   37.1780   26.0230   34.7560 O   0  0  0  0  0  0  0  0  0  0  0  0
   38.1920   29.0190   35.5040 H   0  0  0  0  0  0  0  0  0  0  0  0
   39.0500   27.1830   37.1530 H   0  0  0  0  0  0  0  0  0  0  0  0
   38.1440   24.5510   36.4730 N   0  0  0  0  0  0  0  0  0  0  0  0
   37.9850   24.3150   37.8950 C   0  0  0  0  0  2  0  0  0  0  0  0
   38.8920   23.1620   38.2430 C   0  0  0  0  0  2  0  0  0  0  0  0
   39.6660   22.9490   36.9650 C   0  0  0  0  0  2  0  0  0  0  0  0
   38.6000   23.2830   35.9360 C   0  0  0  0  0  3  0  0  0  0  0  0
   37.7490   22.5700   36.0220 H   0  0  0  0  0  0  0  0  0  0  0  0
   36.5320   28.0150   33.3740 C   0  0  0  0  0  0  0  0  0  0  0  0
   35.4570   28.6140   33.5970 O   0  0  0  0  0  0  0  0  0  0  0  0
   37.1650   27.9930   32.0810 C   0  0  0  0  0  0  0  0  0  0  0  0
   36.4690   28.5450   31.0150 C   0  0  0  0  0  0  0  0  0  0  0  0
   37.0630   28.5360   29.7480 C   0  0  0  0  0  0  0  0  0  0  0  0
   38.3060   27.9790   29.6370 N   0  0  0  0  0  0  0  0  0  0  0  0
   38.9600   27.4510   30.6810 C   0  0  0  0  0  0  0  0  0  0  0  0
   38.3910   27.4590   31.8930 N   0  0  0  0  0  0  0  0  0  0  0  0
   35.4980   28.9670   31.1690 H   0  0  0  0  0  0  0  0  0  0  0  0
   36.5250   28.9600   28.9370 H   0  0  0  0  0  0  0  0  0  0  0  0
   39.9400   27.0320   30.4920 H   0  0  0  0  0  0  0  0  0  0  0  0
  1  5  1  0  0  0  0
  1  2  2  0  0  0  0
  2  6  1  0  0  0  0
  2  3  1  0  0  0  0
  3  7  1  0  0  0  0
  4  3  2  0  0  0  0
  4  8  1  0  0  0  0
  5  4  1  0  0  0  0
  8  9  1  0  0  0  0
  9 10  1  0  0  0  0
 11 10  1  0  0  0  0
 12 13  1  0  0  0  0
 12  8  1  0  0  0  0
 12 11  1  0  0  0  0
 14 15  2  0  0  0  0
 14  1  1  0  0  0  0
 16 14  1  0  0  0  0
 17 22  1  0  0  0  0
 17 16  2  0  0  0  0
 18 17  1  0  0  0  0
 19 18  2  0  0  0  0
 19 20  1  0  0  0  0
 20 21  2  0  0  0  0
 21 16  1  0  0  0  0
 23 18  1  0  0  0  0
 24 20  1  0  0  0  0
M  END
>  <minimizedAffinity>
-4.91529417

$$$$

 OpenBabel03272507113D

 24 26  0  0  0  0  0  0  0  0999 V2000
   38.0140   25.4710   36.0920 C   0  0  0  0  0  0  0  0  0  0  0  0
   38.4830   26.7230   36.3830 C   0  0  0  0  0  0  0  0  0  0  0  0
   38.0620   27.5840   35.3530 C   0  0  0  0  0  0  0  0  0  0  0  0
   37.3520   26.7690   34.4930 C   0  0  0  0  0  0  0  0  0  0  0  0
   37.3460   25.5520   34.9550 O   0  0  0  0  0  0  0  0  0  0  0  0
   39.0820   27.0890   37.2340 H   0  0  0  0  0  0  0  0  0  0  0  0
   38.2800   28.6520   35.3000 H   0  0  0  0  0  0  0  0  0  0  0  0
   36.7520   27.2750   33.3050 N   0  0  0  0  0  0  0  0  0  0  0  0
   36.5520   26.5120   32.0880 C   0  0  0  0  0  2  0  0  0  0  0  0
   36.4800   27.5120   30.9610 C   0  0  0  0  0  2  0  0  0  0  0  0
   36.8470   28.8080   31.6420 C   0  0  0  0  0  2  0  0  0  0  0  0
   36.2190   28.5920   33.0070 C   0  0  0  0  0  3  0  0  0  0  0  0
   35.1170   28.4800   32.9080 H   0  0  0  0  0  0  0  0  0  0  0  0
   38.2680   24.3390   36.9500 C   0  0  0  0  0  0  0  0  0  0  0  0
   37.5410   24.1640   37.9520 O   0  0  0  0  0  0  0  0  0  0  0  0
   39.3550   23.4610   36.6050 C   0  0  0  0  0  0  0  0  0  0  0  0
   39.9550   22.7460   37.6320 C   0  0  0  0  0  0  0  0  0  0  0  0
   41.0140   21.8860   37.3230 C   0  0  0  0  0  0  0  0  0  0  0  0
   41.3970   21.8010   36.0140 N   0  0  0  0  0  0  0  0  0  0  0  0
   40.8040   22.5020   35.0380 C   0  0  0  0  0  0  0  0  0  0  0  0
   39.7910   23.3250   35.3340 N   0  0  0  0  0  0  0  0  0  0  0  0
   39.6060   22.8580   38.6380 H   0  0  0  0  0  0  0  0  0  0  0  0
   41.4680   21.3430   38.1140 H   0  0  0  0  0  0  0  0  0  0  0  0
   41.1800   22.3670   34.0320 H   0  0  0  0  0  0  0  0  0  0  0  0
  1  2  2  0  0  0  0
  1 14  1  0  0  0  0
  2  6  1  0  0  0  0
  3  2  1  0  0  0  0
  4  5  1  0  0  0  0
  4  3  2  0  0  0  0
  5  1  1  0  0  0  0
  7  3  1  0  0  0  0
  8  4  1  0  0  0  0
  9  8  1  0  0  0  0
 10 11  1  0  0  0  0
 10  9  1  0  0  0  0
 11 12  1  0  0  0  0
 12  8  1  0  0  0  0
 13 12  1  0  0  0  0
 14 15  2  0  0  0  0
 16 14  1  0  0  0  0
 16 17  1  0  0  0  0
 17 22  1  0  0  0  0
 18 17  2  0  0  0  0
 18 23  1  0  0  0  0
 19 18  1  0  0  0  0
 20 21  1  0  0  0  0
 20 19  2  0  0  0  0
 21 16  2  0  0  0  0
 24 20  1  0  0  0  0
M  END
>  <minimizedAffinity>
-4.87750292

$$$$

 OpenBabel03272507113D

 24 26  0  0  0  0  0  0  0  0999 V2000
   36.6460   25.4330   31.8650 C   0  0  0  0  0  0  0  0  0  0  0  0
   35.5460   25.3070   31.0600 C   0  0  0  0  0  0  0  0  0  0  0  0
   35.1770   23.9490   31.0570 C   0  0  0  0  0  0  0  0  0  0  0  0
   36.1050   23.3390   31.8790 C   0  0  0  0  0  0  0  0  0  0  0  0
   36.9390   24.2320   32.3280 O   0  0  0  0  0  0  0  0  0  0  0  0
   34.9840   26.0610   30.4840 H   0  0  0  0  0  0  0  0  0  0  0  0
   34.3350   23.5310   30.5050 H   0  0  0  0  0  0  0  0  0  0  0  0
   36.0710   21.9390   32.1370 N   0  0  0  0  0  0  0  0  0  0  0  0
   35.3390   20.9700   31.3450 C   0  0  0  0  0  2  0  0  0  0  0  0
   35.0680   19.7930   32.2500 C   0  0  0  0  0  2  0  0  0  0  0  0
   35.5290   20.2950   33.5960 C   0  0  0  0  0  2  0  0  0  0  0  0
   36.7070   21.1590   33.1820 C   0  0  0  0  0  3  0  0  0  0  0  0
   37.4860   20.5340   32.6900 H   0  0  0  0  0  0  0  0  0  0  0  0
   37.2880   26.7060   32.0910 C   0  0  0  0  0  0  0  0  0  0  0  0
   37.1950   27.5950   31.2170 O   0  0  0  0  0  0  0  0  0  0  0  0
   38.0080   26.8890   33.3240 C   0  0  0  0  0  0  0  0  0  0  0  0
   37.2780   27.2370   34.4510 C   0  0  0  0  0  0  0  0  0  0  0  0
   37.9560   27.4200   35.6610 C   0  0  0  0  0  0  0  0  0  0  0  0
   39.3100   27.2430   35.6590 N   0  0  0  0  0  0  0  0  0  0  0  0
   39.9970   26.9070   34.5580 C   0  0  0  0  0  0  0  0  0  0  0  0
   39.3480   26.7310   33.4010 N   0  0  0  0  0  0  0  0  0  0  0  0
   36.2160   27.3600   34.3850 H   0  0  0  0  0  0  0  0  0  0  0  0
   37.3900   27.6870   36.5190 H   0  0  0  0  0  0  0  0  0  0  0  0
   41.0680   26.7890   34.6580 H   0  0  0  0  0  0  0  0  0  0  0  0
  1 14  1  0  0  0  0
  1  5  1  0  0  0  0
  2  1  2  0  0  0  0
  3  2  1  0  0  0  0
  3  4  2  0  0  0  0
  4  8  1  0  0  0  0
  4  5  1  0  0  0  0
  6  2  1  0  0  0  0
  7  3  1  0  0  0  0
  8 12  1  0  0  0  0
  9  8  1  0  0  0  0
  9 10  1  0  0  0  0
 10 11  1  0  0  0  0
 12 11  1  0  0  0  0
 13 12  1  0  0  0  0
 14 16  1  0  0  0  0
 15 14  2  0  0  0  0
 16 21  2  0  0  0  0
 16 17  1  0  0  0  0
 17 18  2  0  0  0  0
 18 23  1  0  0  0  0
 19 18  1  0  0  0  0
 20 24  1  0  0  0  0
 20 19  2  0  0  0  0
 21 20  1  0  0  0  0
 22 17  1  0  0  0  0
M  END
>  <minimizedAffinity>
-4.79973364

$$$$

 OpenBabel03272507113D

 24 26  0  0  0  0  0  0  0  0999 V2000
   37.7580   25.7460   34.6310 C   0  0  0  0  0  0  0  0  0  0  0  0
   38.1120   26.7430   35.5000 C   0  0  0  0  0  0  0  0  0  0  0  0
   37.5090   27.9310   35.0490 C   0  0  0  0  0  0  0  0  0  0  0  0
   36.8180   27.5560   33.9130 C   0  0  0  0  0  0  0  0  0  0  0  0
   36.9870   26.2830   33.7040 O   0  0  0  0  0  0  0  0  0  0  0  0
   38.7410   26.7210   36.4050 H   0  0  0  0  0  0  0  0  0  0  0  0
   37.6030   28.9040   35.5320 H   0  0  0  0  0  0  0  0  0  0  0  0
   36.0630   28.4940   33.1520 N   0  0  0  0  0  0  0  0  0  0  0  0
   35.9330   28.4740   31.7080 C   0  0  0  0  0  2  0  0  0  0  0  0
   35.6080   29.8860   31.2870 C   0  0  0  0  0  2  0  0  0  0  0  0
   35.7700   30.6620   32.5710 C   0  0  0  0  0  2  0  0  0  0  0  0
   35.2790   29.6380   33.5780 C   0  0  0  0  0  3  0  0  0  0  0  0
   34.2120   29.3900   33.3820 H   0  0  0  0  0  0  0  0  0  0  0  0
   38.2100   24.3860   34.8020 C   0  0  0  0  0  0  0  0  0  0  0  0
   38.3490   23.6640   33.7910 O   0  0  0  0  0  0  0  0  0  0  0  0
   38.4780   23.9260   36.1390 C   0  0  0  0  0  0  0  0  0  0  0  0
   39.7160   23.3500   36.3850 C   0  0  0  0  0  0  0  0  0  0  0  0
   40.0000   22.8950   37.6770 C   0  0  0  0  0  0  0  0  0  0  0  0
   39.0320   23.0480   38.6280 N   0  0  0  0  0  0  0  0  0  0  0  0
   37.8420   23.6070   38.3680 C   0  0  0  0  0  0  0  0  0  0  0  0
   37.5700   24.0420   37.1320 N   0  0  0  0  0  0  0  0  0  0  0  0
   40.4320   23.2610   35.5940 H   0  0  0  0  0  0  0  0  0  0  0  0
   40.9500   22.4550   37.8570 H   0  0  0  0  0  0  0  0  0  0  0  0
   37.1400   23.6830   39.1880 H   0  0  0  0  0  0  0  0  0  0  0  0
  1 14  1  0  0  0  0
  1  2  2  0  0  0  0
  2  6  1  0  0  0  0
  3  2  1  0  0  0  0
  3  7  1  0  0  0  0
  4  3  2  0  0  0  0
  5  4  1  0  0  0  0
  5  1  1  0  0  0  0
  8 12  1  0  0  0  0
  8  4  1  0  0  0  0
  9  8  1  0  0  0  0
 10  9  1  0  0  0  0
 10 11  1  0  0  0  0
 11 12  1  0  0  0  0
 13 12  1  0  0  0  0
 14 16  1  0  0  0  0
 15 14  2  0  0  0  0
 16 17  2  0  0  0  0
 16 21  1  0  0  0  0
 17 18  1  0  0  0  0
 18 23  1  0  0  0  0
 18 19  2  0  0  0  0
 20 19  1  0  0  0  0
 20 24  1  0  0  0  0
 21 20  2  0  0  0  0
 22 17  1  0  0  0  0
M  END
>  <minimizedAffinity>
-4.75864506

$$$$

 OpenBabel03272507113D

 24 26  0  0  0  0  0  0  0  0999 V2000
   37.5520   26.7300   34.1470 C   0  0  0  0  0  0  0  0  0  0  0  0
   38.0160   27.5700   35.1230 C   0  0  0  0  0  0  0  0  0  0  0  0
   38.3450   26.7820   36.2400 C   0  0  0  0  0  0  0  0  0  0  0  0
   38.0490   25.4910   35.8490 C   0  0  0  0  0  0  0  0  0  0  0  0
   37.5920   25.5020   34.6300 O   0  0  0  0  0  0  0  0  0  0  0  0
   38.1450   28.6660   35.1280 H   0  0  0  0  0  0  0  0  0  0  0  0
   38.7420   27.1650   37.1810 H   0  0  0  0  0  0  0  0  0  0  0  0
   38.2470   24.3810   36.7190 N   0  0  0  0  0  0  0  0  0  0  0  0
   37.9500   24.3780   38.1380 C   0  0  0  0  0  2  0  0  0  0  0  0
   38.8270   23.3190   38.7580 C   0  0  0  0  0  2  0  0  0  0  0  0
   39.7240   22.9170   37.6130 C   0  0  0  0  0  2  0  0  0  0  0  0
   38.7620   23.0520   36.4460 C   0  0  0  0  0  3  0  0  0  0  0  0
   37.9110   22.3440   36.5670 H   0  0  0  0  0  0  0  0  0  0  0  0
   37.1240   27.2150   32.8570 C   0  0  0  0  0  0  0  0  0  0  0  0
   36.0390   27.8300   32.7720 O   0  0  0  0  0  0  0  0  0  0  0  0
   37.9760   26.9630   31.7250 C   0  0  0  0  0  0  0  0  0  0  0  0
   38.0980   25.6510   31.2910 C   0  0  0  0  0  0  0  0  0  0  0  0
   38.9200   25.3800   30.1920 C   0  0  0  0  0  0  0  0  0  0  0  0
   39.5590   26.4360   29.6050 N   0  0  0  0  0  0  0  0  0  0  0  0
   39.4270   27.6970   30.0410 C   0  0  0  0  0  0  0  0  0  0  0  0
   38.6400   27.9550   31.0930 N   0  0  0  0  0  0  0  0  0  0  0  0
   37.5690   24.8680   31.7940 H   0  0  0  0  0  0  0  0  0  0  0  0
   39.0090   24.3740   29.8650 H   0  0  0  0  0  0  0  0  0  0  0  0
   39.9740   28.4650   29.5110 H   0  0  0  0  0  0  0  0  0  0  0  0
  1  5  1  0  0  0  0
  1  2  2  0  0  0  0
  2  6  1  0  0  0  0
  2  3  1  0  0  0  0
  3  7  1  0  0  0  0
  4  3  2  0  0  0  0
  4  8  1  0  0  0  0
  5  4  1  0  0  0  0
  8  9  1  0  0  0  0
  9 10  1  0  0  0  0
 11 10  1  0  0  0  0
 12 13  1  0  0  0  0
 12  8  1  0  0  0  0
 12 11  1  0  0  0  0
 14  1  1  0  0  0  0
 15 14  2  0  0  0  0
 16 14  1  0  0  0  0
 17 16  1  0  0  0  0
 17 22  1  0  0  0  0
 18 17  2  0  0  0  0
 19 20  2  0  0  0  0
 19 18  1  0  0  0  0
 20 21  1  0  0  0  0
 21 16  2  0  0  0  0
 23 18  1  0  0  0  0
 24 20  1  0  0  0  0
M  END
>  <minimizedAffinity>
-4.6945529

$$$$

 OpenBabel03272507113D

 24 26  0  0  0  0  0  0  0  0999 V2000
   38.0790   23.7280   33.7070 C   0  0  0  0  0  0  0  0  0  0  0  0
   37.6700   24.2680   32.5180 C   0  0  0  0  0  0  0  0  0  0  0  0
   36.8520   23.3190   31.8800 C   0  0  0  0  0  0  0  0  0  0  0  0
   36.8250   22.2470   32.7510 C   0  0  0  0  0  0  0  0  0  0  0  0
   37.5470   22.5220   33.7980 O   0  0  0  0  0  0  0  0  0  0  0  0
   37.8850   25.2490   32.0610 H   0  0  0  0  0  0  0  0  0  0  0  0
   36.3720   23.4570   30.9100 H   0  0  0  0  0  0  0  0  0  0  0  0
   36.0890   21.0630   32.4590 N   0  0  0  0  0  0  0  0  0  0  0  0
   35.5700   20.1450   33.4550 C   0  0  0  0  0  2  0  0  0  0  0  0
   35.4240   18.8090   32.7710 C   0  0  0  0  0  2  0  0  0  0  0  0
   36.0770   19.0470   31.4320 C   0  0  0  0  0  2  0  0  0  0  0  0
   35.6890   20.4940   31.1860 C   0  0  0  0  0  3  0  0  0  0  0  0
   34.5820   20.5880   31.1230 H   0  0  0  0  0  0  0  0  0  0  0  0
   38.9380   24.4430   34.6190 C   0  0  0  0  0  0  0  0  0  0  0  0
   39.6720   25.3520   34.1730 O   0  0  0  0  0  0  0  0  0  0  0  0
   38.9060   24.0710   36.0090 C   0  0  0  0  0  0  0  0  0  0  0  0
   39.8720   23.1820   36.4590 C   0  0  0  0  0  0  0  0  0  0  0  0
   39.8620   22.8040   37.8060 C   0  0  0  0  0  0  0  0  0  0  0  0
   38.8920   23.3400   38.6050 N   0  0  0  0  0  0  0  0  0  0  0  0
   37.9690   24.1970   38.1500 C   0  0  0  0  0  0  0  0  0  0  0  0
   37.9780   24.5580   36.8610 N   0  0  0  0  0  0  0  0  0  0  0  0
   40.6050   22.7980   35.7800 H   0  0  0  0  0  0  0  0  0  0  0  0
   40.6040   22.1230   38.1430 H   0  0  0  0  0  0  0  0  0  0  0  0
   37.2410   24.5670   38.8610 H   0  0  0  0  0  0  0  0  0  0  0  0
  1  5  1  0  0  0  0
  1 14  1  0  0  0  0
  2  1  2  0  0  0  0
  3  2  1  0  0  0  0
  3  4  2  0  0  0  0
  4  5  1  0  0  0  0
  6  2  1  0  0  0  0
  7  3  1  0  0  0  0
  8  4  1  0  0  0  0
  8  9  1  0  0  0  0
 10  9  1  0  0  0  0
 11 10  1  0  0  0  0
 12 11  1  0  0  0  0
 12  8  1  0  0  0  0
 13 12  1  0  0  0  0
 14 16  1  0  0  0  0
 15 14  2  0  0  0  0
 16 17  2  0  0  0  0
 16 21  1  0  0  0  0
 17 18  1  0  0  0  0
 18 23  1  0  0  0  0
 18 19  2  0  0  0  0
 20 19  1  0  0  0  0
 20 24  1  0  0  0  0
 21 20  2  0  0  0  0
 22 17  1  0  0  0  0
M  END
>  <minimizedAffinity>
-4.69092751

$$$$

 OpenBabel03272507113D

 24 26  0  0  0  0  0  0  0  0999 V2000
   36.9480   25.6820   32.0430 C   0  0  0  0  0  0  0  0  0  0  0  0
   35.8140   25.6550   31.2780 C   0  0  0  0  0  0  0  0  0  0  0  0
   35.3680   24.3210   31.2270 C   0  0  0  0  0  0  0  0  0  0  0  0
   36.2890   23.6230   31.9830 C   0  0  0  0  0  0  0  0  0  0  0  0
   37.1890   24.4450   32.4390 O   0  0  0  0  0  0  0  0  0  0  0  0
   35.2740   26.4660   30.7590 H   0  0  0  0  0  0  0  0  0  0  0  0
   34.4830   23.9770   30.6910 H   0  0  0  0  0  0  0  0  0  0  0  0
   36.1850   22.2160   32.1780 N   0  0  0  0  0  0  0  0  0  0  0  0
   35.4480   21.3130   31.3140 C   0  0  0  0  0  2  0  0  0  0  0  0
   35.0890   20.1130   32.1550 C   0  0  0  0  0  2  0  0  0  0  0  0
   35.5120   20.5380   33.5400 C   0  0  0  0  0  2  0  0  0  0  0  0
   36.7420   21.3660   33.2130 C   0  0  0  0  0  3  0  0  0  0  0  0
   37.5150   20.7280   32.7270 H   0  0  0  0  0  0  0  0  0  0  0  0
   37.6680   26.9050   32.3020 C   0  0  0  0  0  0  0  0  0  0  0  0
   38.9160   26.9020   32.2160 O   0  0  0  0  0  0  0  0  0  0  0  0
   36.9080   28.0760   32.6500 C   0  0  0  0  0  0  0  0  0  0  0  0
   36.4140   28.1610   33.9440 C   0  0  0  0  0  0  0  0  0  0  0  0
   35.6710   29.2890   34.3070 C   0  0  0  0  0  0  0  0  0  0  0  0
   35.4760   30.2500   33.3550 N   0  0  0  0  0  0  0  0  0  0  0  0
   35.9620   30.1480   32.1110 C   0  0  0  0  0  0  0  0  0  0  0  0
   36.6730   29.0670   31.7640 N   0  0  0  0  0  0  0  0  0  0  0  0
   36.6030   27.3720   34.6430 H   0  0  0  0  0  0  0  0  0  0  0  0
   35.2950   29.3470   35.2990 H   0  0  0  0  0  0  0  0  0  0  0  0
   35.7540   30.9610   31.4280 H   0  0  0  0  0  0  0  0  0  0  0  0
  1 14  1  0  0  0  0
  1  5  1  0  0  0  0
  2  1  2  0  0  0  0
  3  2  1  0  0  0  0
  3  4  2  0  0  0  0
  4  8  1  0  0  0  0
  4  5  1  0  0  0  0
  6  2  1  0  0  0  0
  7  3  1  0  0  0  0
  8 12  1  0  0  0  0
  9 10  1  0  0  0  0
  9  8  1  0  0  0  0
 10 11  1  0  0  0  0
 12 11  1  0  0  0  0
 13 12  1  0  0  0  0
 14 16  1  0  0  0  0
 15 14  2  0  0  0  0
 16 17  1  0  0  0  0
 17 18  2  0  0  0  0
 17 22  1  0  0  0  0
 18 23  1  0  0  0  0
 19 18  1  0  0  0  0
 20 19  2  0  0  0  0
 21 20  1  0  0  0  0
 21 16  2  0  0  0  0
 24 20  1  0  0  0  0
M  END
>  <minimizedAffinity>
-4.62439203

$$$$

 OpenBabel03272507113D

 24 26  0  0  0  0  0  0  0  0999 V2000
   38.3980   25.5880   35.5200 C   0  0  0  0  0  0  0  0  0  0  0  0
   37.7780   24.8850   36.5180 C   0  0  0  0  0  0  0  0  0  0  0  0
   38.6050   23.7960   36.8470 C   0  0  0  0  0  0  0  0  0  0  0  0
   39.6910   23.9220   36.0020 C   0  0  0  0  0  0  0  0  0  0  0  0
   39.5340   24.9720   35.2490 O   0  0  0  0  0  0  0  0  0  0  0  0
   36.8170   25.0590   37.0320 H   0  0  0  0  0  0  0  0  0  0  0  0
   38.3830   23.0490   37.6100 H   0  0  0  0  0  0  0  0  0  0  0  0
   40.7710   22.9940   36.0270 N   0  0  0  0  0  0  0  0  0  0  0  0
   40.8020   21.7820   36.8220 C   0  0  0  0  0  2  0  0  0  0  0  0
   42.2570   21.4440   37.0330 C   0  0  0  0  0  2  0  0  0  0  0  0
   42.9640   22.6520   36.4690 C   0  0  0  0  0  2  0  0  0  0  0  0
   42.0370   23.0050   35.3190 C   0  0  0  0  0  3  0  0  0  0  0  0
   42.0050   22.1700   34.5840 H   0  0  0  0  0  0  0  0  0  0  0  0
   37.8160   26.7760   34.9440 C   0  0  0  0  0  0  0  0  0  0  0  0
   37.9040   27.8560   35.5670 O   0  0  0  0  0  0  0  0  0  0  0  0
   37.1580   26.6550   33.6690 C   0  0  0  0  0  0  0  0  0  0  0  0
   36.6010   27.8020   33.1220 C   0  0  0  0  0  0  0  0  0  0  0  0
   35.9550   27.7100   31.8850 C   0  0  0  0  0  0  0  0  0  0  0  0
   35.9140   26.4840   31.2830 N   0  0  0  0  0  0  0  0  0  0  0  0
   36.4590   25.3890   31.8290 C   0  0  0  0  0  0  0  0  0  0  0  0
   37.0770   25.4770   33.0140 N   0  0  0  0  0  0  0  0  0  0  0  0
   36.6680   28.7330   33.6460 H   0  0  0  0  0  0  0  0  0  0  0  0
   35.5300   28.5920   31.4720 H   0  0  0  0  0  0  0  0  0  0  0  0
   36.3740   24.4640   31.2750 H   0  0  0  0  0  0  0  0  0  0  0  0
  1  2  2  0  0  0  0
  2  3  1  0  0  0  0
  2  6  1  0  0  0  0
  3  7  1  0  0  0  0
  4  8  1  0  0  0  0
  4  3  2  0  0  0  0
  5  1  1  0  0  0  0
  5  4  1  0  0  0  0
  8  9  1  0  0  0  0
  9 10  1  0  0  0  0
 11 10  1  0  0  0  0
 12  8  1  0  0  0  0
 12 11  1  0  0  0  0
 13 12  1  0  0  0  0
 14  1  1  0  0  0  0
 14 15  2  0  0  0  0
 16 14  1  0  0  0  0
 17 22  1  0  0  0  0
 17 16  1  0  0  0  0
 18 17  2  0  0  0  0
 19 20  2  0  0  0  0
 19 18  1  0  0  0  0
 20 21  1  0  0  0  0
 21 16  2  0  0  0  0
 23 18  1  0  0  0  0
 24 20  1  0  0  0  0
M  END
>  <minimizedAffinity>
-4.5600996

$$$$

 OpenBabel03272507113D

 24 26  0  0  0  0  0  0  0  0999 V2000
   36.7340   25.8070   31.8760 C   0  0  0  0  0  0  0  0  0  0  0  0
   35.5890   25.7090   31.1330 C   0  0  0  0  0  0  0  0  0  0  0  0
   35.2010   24.3570   31.1280 C   0  0  0  0  0  0  0  0  0  0  0  0
   36.1640   23.7210   31.8870 C   0  0  0  0  0  0  0  0  0  0  0  0
   37.0350   24.5940   32.3030 O   0  0  0  0  0  0  0  0  0  0  0  0
   35.0070   26.4800   30.6010 H   0  0  0  0  0  0  0  0  0  0  0  0
   34.3230   23.9590   30.6180 H   0  0  0  0  0  0  0  0  0  0  0  0
   36.1250   22.3170   32.1240 N   0  0  0  0  0  0  0  0  0  0  0  0
   35.3980   21.3610   31.3110 C   0  0  0  0  0  2  0  0  0  0  0  0
   35.1160   20.1720   32.1960 C   0  0  0  0  0  2  0  0  0  0  0  0
   35.5670   20.6530   33.5530 C   0  0  0  0  0  2  0  0  0  0  0  0
   36.7510   21.5200   33.1620 C   0  0  0  0  0  3  0  0  0  0  0  0
   37.5320   20.9000   32.6670 H   0  0  0  0  0  0  0  0  0  0  0  0
   37.4050   27.0670   32.0880 C   0  0  0  0  0  0  0  0  0  0  0  0
   37.9770   27.2720   33.1800 O   0  0  0  0  0  0  0  0  0  0  0  0
   37.3810   28.0320   31.0200 C   0  0  0  0  0  0  0  0  0  0  0  0
   36.6580   29.1990   31.2240 C   0  0  0  0  0  0  0  0  0  0  0  0
   36.6190   30.1520   30.2010 C   0  0  0  0  0  0  0  0  0  0  0  0
   37.3040   29.8740   29.0510 N   0  0  0  0  0  0  0  0  0  0  0  0
   37.9950   28.7390   28.8750 C   0  0  0  0  0  0  0  0  0  0  0  0
   38.0320   27.8270   29.8540 N   0  0  0  0  0  0  0  0  0  0  0  0
   36.1440   29.3560   32.1490 H   0  0  0  0  0  0  0  0  0  0  0  0
   36.0640   31.0420   30.3640 H   0  0  0  0  0  0  0  0  0  0  0  0
   38.5040   28.6100   27.9290 H   0  0  0  0  0  0  0  0  0  0  0  0
  1 14  1  0  0  0  0
  1  5  1  0  0  0  0
  2  1  2  0  0  0  0
  3  2  1  0  0  0  0
  3  4  2  0  0  0  0
  4  8  1  0  0  0  0
  4  5  1  0  0  0  0
  6  2  1  0  0  0  0
  7  3  1  0  0  0  0
  8 12  1  0  0  0  0
  9  8  1  0  0  0  0
  9 10  1  0  0  0  0
 10 11  1  0  0  0  0
 12 11  1  0  0  0  0
 13 12  1  0  0  0  0
 14 15  2  0  0  0  0
 16 17  1  0  0  0  0
 16 14  1  0  0  0  0
 17 22  1  0  0  0  0
 18 23  1  0  0  0  0
 18 17  2  0  0  0  0
 19 18  1  0  0  0  0
 20 19  2  0  0  0  0
 20 21  1  0  0  0  0
 21 16  2  0  0  0  0
 24 20  1  0  0  0  0
M  END
>  <minimizedAffinity>
-4.53140354

$$$$
