
 OpenBabel03272508383D

 41 44  0  0  1  0  0  0  0  0999 V2000
   37.4310   25.9380   34.2770 C   0  0  0  0  0  0  0  0  0  0  0  0
   36.9440   25.0010   34.6130 H   0  0  0  0  0  0  0  0  0  0  0  0
   36.7050   26.7290   34.6670 H   0  0  0  0  0  0  0  0  0  0  0  0
   38.6390   26.2050   34.9160 N   0  0  0  0  0  0  0  0  0  0  0  0
   39.4230   27.2650   34.3970 C   0  0  0  0  0  0  0  0  0  0  0  0
   40.7550   26.9220   33.8710 C   0  0  0  0  0  0  0  0  0  0  0  0
   41.4270   26.0340   34.7600 O   0  0  0  0  0  0  0  0  0  0  0  0
   40.6590   24.8770   34.7990 C   0  0  0  0  0  0  0  0  0  0  0  0
   39.4040   25.2130   35.5340 C   0  0  2  0  0  0  0  0  0  0  0  0
   39.6860   27.7680   35.4000 H   0  0  0  0  0  0  0  0  0  0  0  0
   38.9340   28.1000   33.9260 H   0  0  0  0  0  0  0  0  0  0  0  0
   41.3900   27.8840   34.0560 H   0  0  0  0  0  0  0  0  0  0  0  0
   41.0090   26.6810   32.9000 H   0  0  0  0  0  0  0  0  0  0  0  0
   40.5590   24.3480   33.8540 H   0  0  0  0  0  0  0  0  0  0  0  0
   41.2580   24.1740   35.4560 H   0  0  0  0  0  0  0  0  0  0  0  0
   39.8140   25.7520   36.4580 H   0  0  0  0  0  0  0  0  0  0  0  0
   38.7090   24.0960   36.1170 N   0  0  2  0  0  0  0  0  0  0  0  0
   38.1130   24.4810   37.3860 C   0  0  0  0  0  2  0  0  0  0  0  0
   38.4970   23.4970   38.4260 C   0  0  0  0  0  2  0  0  0  0  0  0
   39.6570   22.7610   37.8680 C   0  0  0  0  0  2  0  0  0  0  0  0
   39.5600   22.9650   36.3850 C   0  0  0  0  0  3  0  0  0  0  0  0
   39.1420   22.0240   35.9710 H   0  0  0  0  0  0  0  0  0  0  0  0
   37.3890   25.9950   32.8210 C   0  0  0  0  0  0  0  0  0  0  0  0
   36.7200   26.8470   32.4930 H   0  0  0  0  0  0  0  0  0  0  0  0
   38.2840   26.1260   32.2200 H   0  0  0  0  0  0  0  0  0  0  0  0
   36.2170   22.7350   31.8830 C   0  0  0  0  0  0  0  0  0  0  0  0
   35.4640   23.5420   31.0710 C   0  0  0  0  0  0  0  0  0  0  0  0
   35.8160   24.8540   31.3260 C   0  0  0  0  0  0  0  0  0  0  0  0
   36.7620   24.7960   32.2730 N   0  0  0  0  0  0  0  0  0  0  0  0
   36.9990   23.5220   32.6030 N   0  0  0  0  0  0  0  0  0  0  0  0
   34.7130   23.1680   30.3500 H   0  0  0  0  0  0  0  0  0  0  0  0
   35.2700   25.5580   30.7400 H   0  0  0  0  0  0  0  0  0  0  0  0
   35.4980   19.1800   32.9040 C   0  0  0  0  0  0  0  0  0  0  0  0
   35.6240   20.5550   32.9970 C   0  0  0  0  0  0  0  0  0  0  0  0
   36.0760   21.2950   31.9160 C   0  0  0  0  0  0  0  0  0  0  0  0
   36.3640   20.5570   30.8210 N   0  0  0  0  0  0  0  0  0  0  0  0
   36.2390   19.2160   30.7310 C   0  0  0  0  0  0  0  0  0  0  0  0
   35.8040   18.5400   31.7850 N   0  0  0  0  0  0  0  0  0  0  0  0
   35.1430   18.6660   33.7770 H   0  0  0  0  0  0  0  0  0  0  0  0
   35.3810   21.1050   33.9040 H   0  0  0  0  0  0  0  0  0  0  0  0
   36.5150   18.7690   29.7650 H   0  0  0  0  0  0  0  0  0  0  0  0
  1  2  1  0  0  0  0
  1  3  1  0  0  0  0
  1  4  1  0  0  0  0
  4  9  1  0  0  0  0
  5  4  1  0  0  0  0
  5 10  1  0  0  0  0
  6 12  1  0  0  0  0
  6  5  1  0  0  0  0
  6  7  1  0  0  0  0
  7  8  1  0  0  0  0
  8 15  1  0  0  0  0
  8  9  1  0  0  0  0
  9 17  1  0  0  0  0
  9 16  1  1  0  0  0
 11  5  1  0  0  0  0
 13  6  1  0  0  0  0
 14  8  1  0  0  0  0
 17 21  1  0  0  0  0
 17 18  1  1  0  0  0
 18 19  1  0  0  0  0
 20 19  1  0  0  0  0
 21 20  1  0  0  0  0
 22 21  1  0  0  0  0
 23  1  1  0  0  0  0
 24 23  1  0  0  0  0
 25 23  1  0  0  0  0
 26 35  1  0  0  0  0
 26 30  2  0  0  0  0
 27 28  2  0  0  0  0
 27 26  1  0  0  0  0
 28 29  1  0  0  0  0
 29 30  1  0  0  0  0
 29 23  1  0  0  0  0
 31 27  1  0  0  0  0
 32 28  1  0  0  0  0
 33 34  1  0  0  0  0
 33 39  1  0  0  0  0
 34 40  1  0  0  0  0
 35 34  2  0  0  0  0
 36 35  1  0  0  0  0
 37 36  2  0  0  0  0
 37 38  1  0  0  0  0
 38 33  2  0  0  0  0
 41 37  1  0  0  0  0
M  END
>  <minimizedAffinity>
-5.51459408

$$$$

 OpenBabel03272508383D

 41 44  0  0  1  0  0  0  0  0999 V2000
   37.9000   25.8900   33.7170 C   0  0  0  0  0  0  0  0  0  0  0  0
   37.7740   24.8210   33.4530 H   0  0  0  0  0  0  0  0  0  0  0  0
   37.0040   26.0670   34.4020 H   0  0  0  0  0  0  0  0  0  0  0  0
   39.0190   26.1460   34.5060 N   0  0  0  0  0  0  0  0  0  0  0  0
   39.9810   27.0470   33.9880 C   0  0  0  0  0  0  0  0  0  0  0  0
   41.3340   26.5190   33.7400 C   0  0  0  0  0  0  0  0  0  0  0  0
   41.7640   25.7200   34.8380 O   0  0  0  0  0  0  0  0  0  0  0  0
   40.8800   24.6510   34.9030 C   0  0  0  0  0  0  0  0  0  0  0  0
   39.5710   25.1960   35.3690 C   0  0  2  0  0  0  0  0  0  0  0  0
   40.1410   27.6700   34.9440 H   0  0  0  0  0  0  0  0  0  0  0  0
   39.6620   27.8410   33.3350 H   0  0  0  0  0  0  0  0  0  0  0  0
   42.0320   27.4410   33.8980 H   0  0  0  0  0  0  0  0  0  0  0  0
   41.7050   26.1160   32.8650 H   0  0  0  0  0  0  0  0  0  0  0  0
   40.8690   23.9970   34.0340 H   0  0  0  0  0  0  0  0  0  0  0  0
   41.2940   24.0050   35.7380 H   0  0  0  0  0  0  0  0  0  0  0  0
   39.8910   25.8290   36.2680 H   0  0  0  0  0  0  0  0  0  0  0  0
   38.6810   24.2400   35.9720 N   0  0  2  0  0  0  0  0  0  0  0  0
   38.0060   24.8340   37.1160 C   0  0  0  0  0  2  0  0  0  0  0  0
   38.1470   23.9360   38.2870 C   0  0  0  0  0  2  0  0  0  0  0  0
   39.2560   23.0120   37.9490 C   0  0  0  0  0  2  0  0  0  0  0  0
   39.3460   23.0560   36.4520 C   0  0  0  0  0  3  0  0  0  0  0  0
   38.8580   22.1290   36.0860 H   0  0  0  0  0  0  0  0  0  0  0  0
   37.6950   26.6980   32.5210 C   0  0  0  0  0  0  0  0  0  0  0  0
   38.6920   27.0770   32.1440 H   0  0  0  0  0  0  0  0  0  0  0  0
   37.2180   26.3020   31.6290 H   0  0  0  0  0  0  0  0  0  0  0  0
   35.8350   29.4470   33.8840 C   0  0  0  0  0  0  0  0  0  0  0  0
   35.8980   29.7880   32.5590 C   0  0  0  0  0  0  0  0  0  0  0  0
   36.5990   28.7990   31.8950 C   0  0  0  0  0  0  0  0  0  0  0  0
   36.9310   27.9010   32.8330 N   0  0  0  0  0  0  0  0  0  0  0  0
   36.4690   28.2960   34.0240 N   0  0  0  0  0  0  0  0  0  0  0  0
   35.4520   30.7070   32.1330 H   0  0  0  0  0  0  0  0  0  0  0  0
   36.7050   28.9860   30.8500 H   0  0  0  0  0  0  0  0  0  0  0  0
   35.1510   32.0080   36.5610 C   0  0  0  0  0  0  0  0  0  0  0  0
   35.8580   31.2400   35.6530 C   0  0  0  0  0  0  0  0  0  0  0  0
   35.2110   30.2840   34.8870 C   0  0  0  0  0  0  0  0  0  0  0  0
   33.8820   30.1940   35.1180 N   0  0  0  0  0  0  0  0  0  0  0  0
   33.1940   30.9450   36.0040 C   0  0  0  0  0  0  0  0  0  0  0  0
   33.8450   31.8500   36.7200 N   0  0  0  0  0  0  0  0  0  0  0  0
   35.7110   32.7310   37.1240 H   0  0  0  0  0  0  0  0  0  0  0  0
   36.9300   31.3490   35.5040 H   0  0  0  0  0  0  0  0  0  0  0  0
   32.1140   30.7460   36.0690 H   0  0  0  0  0  0  0  0  0  0  0  0
  1  3  1  0  0  0  0
  1  4  1  0  0  0  0
  2  1  1  0  0  0  0
  4  9  1  0  0  0  0
  5  4  1  0  0  0  0
  5 10  1  0  0  0  0
  6 12  1  0  0  0  0
  6  5  1  0  0  0  0
  6  7  1  0  0  0  0
  7  8  1  0  0  0  0
  8  9  1  0  0  0  0
  8 15  1  0  0  0  0
  9 17  1  0  0  0  0
  9 16  1  1  0  0  0
 11  5  1  0  0  0  0
 13  6  1  0  0  0  0
 14  8  1  0  0  0  0
 17 21  1  0  0  0  0
 17 18  1  1  0  0  0
 18 19  1  0  0  0  0
 20 19  1  0  0  0  0
 21 20  1  0  0  0  0
 22 21  1  0  0  0  0
 23 29  1  0  0  0  0
 23  1  1  0  0  0  0
 24 23  1  0  0  0  0
 25 23  1  0  0  0  0
 26 30  2  0  0  0  0
 26 35  1  0  0  0  0
 27 26  1  0  0  0  0
 28 27  2  0  0  0  0
 28 29  1  0  0  0  0
 29 30  1  0  0  0  0
 31 27  1  0  0  0  0
 32 28  1  0  0  0  0
 33 38  1  0  0  0  0
 33 39  1  0  0  0  0
 34 33  2  0  0  0  0
 35 36  2  0  0  0  0
 35 34  1  0  0  0  0
 36 37  1  0  0  0  0
 37 41  1  0  0  0  0
 37 38  2  0  0  0  0
 40 34  1  0  0  0  0
M  END
>  <minimizedAffinity>
-5.40898371

$$$$

 OpenBabel03272508383D

 41 44  0  0  1  0  0  0  0  0999 V2000
   35.8820   28.5860   33.6550 C   0  0  0  0  0  0  0  0  0  0  0  0
   36.4410   28.7670   34.5940 H   0  0  0  0  0  0  0  0  0  0  0  0
   35.0730   27.8590   34.0030 H   0  0  0  0  0  0  0  0  0  0  0  0
   35.1920   29.7020   33.1870 N   0  0  0  0  0  0  0  0  0  0  0  0
   35.2470   29.9560   31.7940 C   0  0  0  0  0  0  0  0  0  0  0  0
   35.8690   31.2200   31.3640 C   0  0  0  0  0  0  0  0  0  0  0  0
   35.4110   32.2990   32.1720 O   0  0  0  0  0  0  0  0  0  0  0  0
   35.8360   32.0180   33.4640 C   0  0  0  0  0  0  0  0  0  0  0  0
   35.0240   30.8620   33.9470 C   0  0  2  0  0  0  0  0  0  0  0  0
   34.1270   30.1760   31.6330 H   0  0  0  0  0  0  0  0  0  0  0  0
   35.3430   29.1300   31.1110 H   0  0  0  0  0  0  0  0  0  0  0  0
   35.3170   31.4850   30.3710 H   0  0  0  0  0  0  0  0  0  0  0  0
   36.8570   31.3840   31.1120 H   0  0  0  0  0  0  0  0  0  0  0  0
   36.9130   31.9660   33.6040 H   0  0  0  0  0  0  0  0  0  0  0  0
   35.5160   32.9280   34.0610 H   0  0  0  0  0  0  0  0  0  0  0  0
   33.9630   31.1920   33.6690 H   0  0  0  0  0  0  0  0  0  0  0  0
   34.9350   30.7210   35.3760 N   0  0  2  0  0  0  0  0  0  0  0  0
   33.5700   30.9580   35.8200 C   0  0  0  0  0  2  0  0  0  0  0  0
   33.5810   31.9460   36.9260 C   0  0  0  0  0  2  0  0  0  0  0  0
   34.9070   32.6050   36.8580 C   0  0  0  0  0  2  0  0  0  0  0  0
   35.7730   31.6420   36.0990 C   0  0  0  0  0  3  0  0  0  0  0  0
   36.3980   31.1270   36.8580 H   0  0  0  0  0  0  0  0  0  0  0  0
   36.7420   27.8620   32.7270 C   0  0  0  0  0  0  0  0  0  0  0  0
   36.1340   27.5140   31.8380 H   0  0  0  0  0  0  0  0  0  0  0  0
   37.6190   28.3160   32.2740 H   0  0  0  0  0  0  0  0  0  0  0  0
   37.9930   25.1840   34.7620 C   0  0  0  0  0  0  0  0  0  0  0  0
   37.8990   24.5780   33.5370 C   0  0  0  0  0  0  0  0  0  0  0  0
   37.4220   25.5090   32.6340 C   0  0  0  0  0  0  0  0  0  0  0  0
   37.2480   26.6360   33.3360 N   0  0  0  0  0  0  0  0  0  0  0  0
   37.5930   26.4360   34.6120 N   0  0  0  0  0  0  0  0  0  0  0  0
   38.1670   23.5210   33.3460 H   0  0  0  0  0  0  0  0  0  0  0  0
   37.3080   25.1190   31.6480 H   0  0  0  0  0  0  0  0  0  0  0  0
   38.2830   23.8450   38.2720 C   0  0  0  0  0  0  0  0  0  0  0  0
   37.8120   24.5860   37.2020 C   0  0  0  0  0  0  0  0  0  0  0  0
   38.4160   24.4880   35.9590 C   0  0  0  0  0  0  0  0  0  0  0  0
   39.4610   23.6320   35.9160 N   0  0  0  0  0  0  0  0  0  0  0  0
   39.9190   22.9100   36.9600 C   0  0  0  0  0  0  0  0  0  0  0  0
   39.3170   23.0280   38.1350 N   0  0  0  0  0  0  0  0  0  0  0  0
   37.7710   23.9660   39.2080 H   0  0  0  0  0  0  0  0  0  0  0  0
   36.9660   25.2650   37.2870 H   0  0  0  0  0  0  0  0  0  0  0  0
   40.7810   22.2580   36.7550 H   0  0  0  0  0  0  0  0  0  0  0  0
  1  3  1  0  0  0  0
  1  2  1  0  0  0  0
  4  1  1  0  0  0  0
  4  9  1  0  0  0  0
  5  4  1  0  0  0  0
  6  5  1  0  0  0  0
  6  7  1  0  0  0  0
  7  8  1  0  0  0  0
  8 14  1  0  0  0  0
  8  9  1  0  0  0  0
  8 15  1  0  0  0  0
  9 16  1  6  0  0  0
  9 17  1  0  0  0  0
 10  5  1  0  0  0  0
 11  5  1  0  0  0  0
 12  6  1  0  0  0  0
 13  6  1  0  0  0  0
 17 18  1  1  0  0  0
 17 21  1  0  0  0  0
 18 19  1  0  0  0  0
 20 19  1  0  0  0  0
 21 22  1  0  0  0  0
 21 20  1  0  0  0  0
 23 29  1  0  0  0  0
 23  1  1  0  0  0  0
 24 23  1  0  0  0  0
 25 23  1  0  0  0  0
 26 35  1  0  0  0  0
 27 26  1  0  0  0  0
 28 29  1  0  0  0  0
 28 27  2  0  0  0  0
 29 30  1  0  0  0  0
 30 26  2  0  0  0  0
 31 27  1  0  0  0  0
 32 28  1  0  0  0  0
 33 39  1  0  0  0  0
 34 40  1  0  0  0  0
 34 33  2  0  0  0  0
 35 34  1  0  0  0  0
 36 35  2  0  0  0  0
 36 37  1  0  0  0  0
 37 38  2  0  0  0  0
 38 33  1  0  0  0  0
 41 37  1  0  0  0  0
M  END
>  <minimizedAffinity>
-5.30550861

$$$$

 OpenBabel03272508383D

 41 44  0  0  1  0  0  0  0  0999 V2000
   35.5920   26.5200   31.8480 C   0  0  0  0  0  0  0  0  0  0  0  0
   35.6900   25.8800   32.7470 H   0  0  0  0  0  0  0  0  0  0  0  0
   34.5980   27.0470   32.0460 H   0  0  0  0  0  0  0  0  0  0  0  0
   36.5390   27.5390   31.7770 N   0  0  0  0  0  0  0  0  0  0  0  0
   36.5300   28.3480   30.6140 C   0  0  0  0  0  0  0  0  0  0  0  0
   37.7370   28.3270   29.7710 C   0  0  0  0  0  0  0  0  0  0  0  0
   38.9080   28.4170   30.5770 O   0  0  0  0  0  0  0  0  0  0  0  0
   38.9110   27.2810   31.3760 C   0  0  0  0  0  0  0  0  0  0  0  0
   37.8030   27.4410   32.3630 C   0  0  2  0  0  0  0  0  0  0  0  0
   36.6220   29.3710   31.1360 H   0  0  0  0  0  0  0  0  0  0  0  0
   35.6010   28.5180   30.0980 H   0  0  0  0  0  0  0  0  0  0  0  0
   37.7640   29.3890   29.2870 H   0  0  0  0  0  0  0  0  0  0  0  0
   37.9330   27.7170   28.9610 H   0  0  0  0  0  0  0  0  0  0  0  0
   38.9760   26.3340   30.8460 H   0  0  0  0  0  0  0  0  0  0  0  0
   39.8870   27.3530   31.9490 H   0  0  0  0  0  0  0  0  0  0  0  0
   37.9850   28.5040   32.7460 H   0  0  0  0  0  0  0  0  0  0  0  0
   37.9260   26.6590   33.5650 N   0  0  2  0  0  0  0  0  0  0  0  0
   37.5790   27.4640   34.7260 C   0  0  0  0  0  2  0  0  0  0  0  0
   38.6550   27.3510   35.7390 C   0  0  0  0  0  2  0  0  0  0  0  0
   39.8300   26.8130   35.0130 C   0  0  0  0  0  2  0  0  0  0  0  0
   39.2560   26.1570   33.7910 C   0  0  0  0  0  3  0  0  0  0  0  0
   39.2590   25.0660   33.9980 H   0  0  0  0  0  0  0  0  0  0  0  0
   35.4020   25.6670   30.6810 C   0  0  0  0  0  0  0  0  0  0  0  0
   34.3000   25.4520   30.5430 H   0  0  0  0  0  0  0  0  0  0  0  0
   35.7330   25.9600   29.6880 H   0  0  0  0  0  0  0  0  0  0  0  0
   36.3200   22.2590   31.3350 C   0  0  0  0  0  0  0  0  0  0  0  0
   37.5250   22.8060   30.9800 C   0  0  0  0  0  0  0  0  0  0  0  0
   37.3220   24.1430   30.6970 C   0  0  0  0  0  0  0  0  0  0  0  0
   36.0140   24.3580   30.8900 N   0  0  0  0  0  0  0  0  0  0  0  0
   35.4180   23.2250   31.2730 N   0  0  0  0  0  0  0  0  0  0  0  0
   38.4750   22.2390   30.9390 H   0  0  0  0  0  0  0  0  0  0  0  0
   38.2130   24.6500   30.4010 H   0  0  0  0  0  0  0  0  0  0  0  0
   35.4180   18.9960   32.9880 C   0  0  0  0  0  0  0  0  0  0  0  0
   35.5570   20.3600   32.8040 C   0  0  0  0  0  0  0  0  0  0  0  0
   36.1500   20.8580   31.6540 C   0  0  0  0  0  0  0  0  0  0  0  0
   36.5540   19.9070   30.7820 N   0  0  0  0  0  0  0  0  0  0  0  0
   36.4160   18.5760   30.9640 C   0  0  0  0  0  0  0  0  0  0  0  0
   35.8450   18.1360   32.0750 N   0  0  0  0  0  0  0  0  0  0  0  0
   34.9510   18.6760   33.9010 H   0  0  0  0  0  0  0  0  0  0  0  0
   35.2170   21.0880   33.5380 H   0  0  0  0  0  0  0  0  0  0  0  0
   36.7980   17.9370   30.1540 H   0  0  0  0  0  0  0  0  0  0  0  0
  1  3  1  0  0  0  0
  1  2  1  0  0  0  0
  4  1  1  0  0  0  0
  4  9  1  0  0  0  0
  5 10  1  0  0  0  0
  5  4  1  0  0  0  0
  6  7  1  0  0  0  0
  6  5  1  0  0  0  0
  7  8  1  0  0  0  0
  8 15  1  0  0  0  0
  8  9  1  0  0  0  0
  9 16  1  1  0  0  0
  9 17  1  0  0  0  0
 11  5  1  0  0  0  0
 12  6  1  0  0  0  0
 13  6  1  0  0  0  0
 14  8  1  0  0  0  0
 17 21  1  0  0  0  0
 17 18  1  1  0  0  0
 18 19  1  0  0  0  0
 20 19  1  0  0  0  0
 21 22  1  0  0  0  0
 21 20  1  0  0  0  0
 23 29  1  0  0  0  0
 23  1  1  0  0  0  0
 24 23  1  0  0  0  0
 25 23  1  0  0  0  0
 26 35  1  0  0  0  0
 27 26  1  0  0  0  0
 28 29  1  0  0  0  0
 28 27  2  0  0  0  0
 29 30  1  0  0  0  0
 30 26  2  0  0  0  0
 31 27  1  0  0  0  0
 32 28  1  0  0  0  0
 33 39  1  0  0  0  0
 34 33  1  0  0  0  0
 34 40  1  0  0  0  0
 35 34  2  0  0  0  0
 36 37  2  0  0  0  0
 36 35  1  0  0  0  0
 37 38  1  0  0  0  0
 38 33  2  0  0  0  0
 41 37  1  0  0  0  0
M  END
>  <minimizedAffinity>
-5.14550781

$$$$

 OpenBabel03272508383D

 41 44  0  0  1  0  0  0  0  0999 V2000
   37.1120   24.0340   30.7710 C   0  0  0  0  0  0  0  0  0  0  0  0
   36.2480   24.1820   31.4480 H   0  0  0  0  0  0  0  0  0  0  0  0
   36.6000   23.9660   29.7530 H   0  0  0  0  0  0  0  0  0  0  0  0
   37.9550   25.1390   30.6830 N   0  0  0  0  0  0  0  0  0  0  0  0
   39.1360   24.9910   29.9150 C   0  0  0  0  0  0  0  0  0  0  0  0
   40.4210   25.1370   30.6210 C   0  0  0  0  0  0  0  0  0  0  0  0
   40.3850   26.2660   31.4880 O   0  0  0  0  0  0  0  0  0  0  0  0
   39.3970   25.9980   32.4260 C   0  0  0  0  0  0  0  0  0  0  0  0
   38.0880   26.0740   31.7130 C   0  0  2  0  0  0  0  0  0  0  0  0
   39.0700   25.9840   29.3350 H   0  0  0  0  0  0  0  0  0  0  0  0
   39.1370   24.3180   29.0750 H   0  0  0  0  0  0  0  0  0  0  0  0
   41.1460   25.5520   29.8060 H   0  0  0  0  0  0  0  0  0  0  0  0
   40.9900   24.3950   31.0580 H   0  0  0  0  0  0  0  0  0  0  0  0
   39.5730   25.1310   33.0590 H   0  0  0  0  0  0  0  0  0  0  0  0
   39.4470   26.8810   33.1360 H   0  0  0  0  0  0  0  0  0  0  0  0
   38.1920   27.0620   31.1440 H   0  0  0  0  0  0  0  0  0  0  0  0
   36.9420   26.3220   32.5460 N   0  0  2  0  0  0  0  0  0  0  0  0
   36.3970   27.6420   32.2720 C   0  0  0  0  0  2  0  0  0  0  0  0
   36.2280   28.3760   33.5490 C   0  0  0  0  0  2  0  0  0  0  0  0
   37.0590   27.6500   34.5390 C   0  0  0  0  0  2  0  0  0  0  0  0
   37.2340   26.2780   33.9560 C   0  0  0  0  0  3  0  0  0  0  0  0
   36.5300   25.6180   34.5050 H   0  0  0  0  0  0  0  0  0  0  0  0
   37.7050   22.7300   31.0430 C   0  0  0  0  0  0  0  0  0  0  0  0
   37.1010   21.9230   30.5270 H   0  0  0  0  0  0  0  0  0  0  0  0
   38.7310   22.4920   30.7760 H   0  0  0  0  0  0  0  0  0  0  0  0
   37.9670   22.3580   34.6030 C   0  0  0  0  0  0  0  0  0  0  0  0
   36.9400   21.4990   34.3110 C   0  0  0  0  0  0  0  0  0  0  0  0
   36.7250   21.5360   32.9470 C   0  0  0  0  0  0  0  0  0  0  0  0
   37.6210   22.4070   32.4640 N   0  0  0  0  0  0  0  0  0  0  0  0
   38.3640   22.8970   33.4620 N   0  0  0  0  0  0  0  0  0  0  0  0
   36.4010   20.8970   35.0680 H   0  0  0  0  0  0  0  0  0  0  0  0
   35.9310   20.8990   32.6280 H   0  0  0  0  0  0  0  0  0  0  0  0
   40.0600   22.6900   37.7170 C   0  0  0  0  0  0  0  0  0  0  0  0
   39.7190   22.3830   36.4130 C   0  0  0  0  0  0  0  0  0  0  0  0
   38.4310   22.6070   35.9510 C   0  0  0  0  0  0  0  0  0  0  0  0
   37.5950   23.1320   36.8740 N   0  0  0  0  0  0  0  0  0  0  0  0
   37.9300   23.4320   38.1460 C   0  0  0  0  0  0  0  0  0  0  0  0
   39.1700   23.2040   38.5540 N   0  0  0  0  0  0  0  0  0  0  0  0
   41.0730   22.4920   38.0130 H   0  0  0  0  0  0  0  0  0  0  0  0
   40.4290   21.9590   35.7050 H   0  0  0  0  0  0  0  0  0  0  0  0
   37.1280   23.8550   38.7690 H   0  0  0  0  0  0  0  0  0  0  0  0
  1 23  1  0  0  0  0
  1  2  1  0  0  0  0
  3  1  1  0  0  0  0
  4  1  1  0  0  0  0
  4  9  1  0  0  0  0
  5  6  1  0  0  0  0
  5  4  1  0  0  0  0
  6 13  1  0  0  0  0
  6  7  1  0  0  0  0
  7  8  1  0  0  0  0
  8 14  1  0  0  0  0
  8 15  1  0  0  0  0
  9 16  1  6  0  0  0
  9  8  1  0  0  0  0
  9 17  1  0  0  0  0
 10  5  1  0  0  0  0
 11  5  1  0  0  0  0
 12  6  1  0  0  0  0
 17 18  1  6  0  0  0
 17 21  1  0  0  0  0
 18 19  1  0  0  0  0
 19 20  1  0  0  0  0
 21 22  1  0  0  0  0
 21 20  1  0  0  0  0
 23 29  1  0  0  0  0
 24 23  1  0  0  0  0
 25 23  1  0  0  0  0
 26 35  1  0  0  0  0
 27 26  1  0  0  0  0
 27 31  1  0  0  0  0
 28 27  2  0  0  0  0
 29 28  1  0  0  0  0
 29 30  1  0  0  0  0
 30 26  2  0  0  0  0
 32 28  1  0  0  0  0
 33 39  1  0  0  0  0
 33 38  1  0  0  0  0
 34 33  2  0  0  0  0
 35 34  1  0  0  0  0
 35 36  2  0  0  0  0
 36 37  1  0  0  0  0
 37 38  2  0  0  0  0
 37 41  1  0  0  0  0
 40 34  1  0  0  0  0
M  END
>  <minimizedAffinity>
-5.03165674

$$$$

 OpenBabel03272508383D

 41 44  0  0  1  0  0  0  0  0999 V2000
   36.9830   27.3390   32.0540 C   0  0  0  0  0  0  0  0  0  0  0  0
   38.0810   27.4750   31.9990 H   0  0  0  0  0  0  0  0  0  0  0  0
   36.7790   27.5480   33.1580 H   0  0  0  0  0  0  0  0  0  0  0  0
   36.2610   28.3060   31.3590 N   0  0  0  0  0  0  0  0  0  0  0  0
   36.7400   28.6720   30.0770 C   0  0  0  0  0  0  0  0  0  0  0  0
   37.1580   30.0720   29.8900 C   0  0  0  0  0  0  0  0  0  0  0  0
   36.2040   30.9570   30.4690 O   0  0  0  0  0  0  0  0  0  0  0  0
   36.1990   30.6780   31.8300 C   0  0  0  0  0  0  0  0  0  0  0  0
   35.5670   29.3370   31.9970 C   0  0  2  0  0  0  0  0  0  0  0  0
   35.7310   28.6490   29.5220 H   0  0  0  0  0  0  0  0  0  0  0  0
   37.2630   27.9440   29.4820 H   0  0  0  0  0  0  0  0  0  0  0  0
   36.9450   30.2830   28.7620 H   0  0  0  0  0  0  0  0  0  0  0  0
   38.1030   30.4720   30.0090 H   0  0  0  0  0  0  0  0  0  0  0  0
   37.1380   30.8580   32.3490 H   0  0  0  0  0  0  0  0  0  0  0  0
   35.4850   31.4450   32.2630 H   0  0  0  0  0  0  0  0  0  0  0  0
   34.6260   29.4420   31.3530 H   0  0  0  0  0  0  0  0  0  0  0  0
   35.0160   29.0690   33.2990 N   0  0  2  0  0  0  0  0  0  0  0  0
   33.5950   29.3780   33.3160 C   0  0  0  0  0  2  0  0  0  0  0  0
   33.2980   30.2530   34.4760 C   0  0  0  0  0  2  0  0  0  0  0  0
   34.6070   30.8010   34.9060 C   0  0  0  0  0  2  0  0  0  0  0  0
   35.6220   29.8440   34.3510 C   0  0  0  0  0  3  0  0  0  0  0  0
   35.9430   29.2080   35.2020 H   0  0  0  0  0  0  0  0  0  0  0  0
   36.6700   25.9350   31.8160 C   0  0  0  0  0  0  0  0  0  0  0  0
   35.5720   25.7510   32.0170 H   0  0  0  0  0  0  0  0  0  0  0  0
   36.8380   25.4580   30.8540 H   0  0  0  0  0  0  0  0  0  0  0  0
   38.1510   24.2110   34.5940 C   0  0  0  0  0  0  0  0  0  0  0  0
   38.5860   23.4550   33.5370 C   0  0  0  0  0  0  0  0  0  0  0  0
   38.0850   24.0130   32.3760 C   0  0  0  0  0  0  0  0  0  0  0  0
   37.3720   25.0780   32.7660 N   0  0  0  0  0  0  0  0  0  0  0  0
   37.4160   25.1920   34.0980 N   0  0  0  0  0  0  0  0  0  0  0  0
   39.2260   22.5590   33.6390 H   0  0  0  0  0  0  0  0  0  0  0  0
   38.3680   23.4800   31.4970 H   0  0  0  0  0  0  0  0  0  0  0  0
   39.7650   22.9750   37.7650 C   0  0  0  0  0  0  0  0  0  0  0  0
   39.5660   23.1970   36.4150 C   0  0  0  0  0  0  0  0  0  0  0  0
   38.4480   23.8880   35.9730 C   0  0  0  0  0  0  0  0  0  0  0  0
   37.6220   24.2960   36.9620 N   0  0  0  0  0  0  0  0  0  0  0  0
   37.8180   24.0780   38.2790 C   0  0  0  0  0  0  0  0  0  0  0  0
   38.8980   23.4140   38.6660 N   0  0  0  0  0  0  0  0  0  0  0  0
   40.6500   22.4330   38.0410 H   0  0  0  0  0  0  0  0  0  0  0  0
   40.2610   22.8470   35.6540 H   0  0  0  0  0  0  0  0  0  0  0  0
   37.0480   24.4790   38.9550 H   0  0  0  0  0  0  0  0  0  0  0  0
  1  3  1  0  0  0  0
  2  1  1  0  0  0  0
  4  9  1  0  0  0  0
  4  1  1  0  0  0  0
  5  4  1  0  0  0  0
  6 13  1  0  0  0  0
  6  5  1  0  0  0  0
  6  7  1  0  0  0  0
  7  8  1  0  0  0  0
  8  9  1  0  0  0  0
  8 15  1  0  0  0  0
  8 14  1  0  0  0  0
  9 16  1  6  0  0  0
  9 17  1  0  0  0  0
 10  5  1  0  0  0  0
 11  5  1  0  0  0  0
 12  6  1  0  0  0  0
 17 18  1  6  0  0  0
 17 21  1  0  0  0  0
 18 19  1  0  0  0  0
 19 20  1  0  0  0  0
 21 20  1  0  0  0  0
 21 22  1  0  0  0  0
 23 24  1  0  0  0  0
 23  1  1  0  0  0  0
 23 29  1  0  0  0  0
 25 23  1  0  0  0  0
 26 35  1  0  0  0  0
 27 31  1  0  0  0  0
 27 26  1  0  0  0  0
 28 29  1  0  0  0  0
 28 27  2  0  0  0  0
 29 30  1  0  0  0  0
 30 26  2  0  0  0  0
 32 28  1  0  0  0  0
 33 39  1  0  0  0  0
 33 38  1  0  0  0  0
 34 33  2  0  0  0  0
 35 34  1  0  0  0  0
 35 36  2  0  0  0  0
 36 37  1  0  0  0  0
 37 38  2  0  0  0  0
 37 41  1  0  0  0  0
 40 34  1  0  0  0  0
M  END
>  <minimizedAffinity>
-4.92338324

$$$$

 OpenBabel03272508383D

 41 44  0  0  1  0  0  0  0  0999 V2000
   36.1000   26.3560   31.5680 C   0  0  0  0  0  0  0  0  0  0  0  0
   35.0890   25.9660   31.3410 H   0  0  0  0  0  0  0  0  0  0  0  0
   35.9900   26.6630   32.6630 H   0  0  0  0  0  0  0  0  0  0  0  0
   37.0950   25.3810   31.5610 N   0  0  0  0  0  0  0  0  0  0  0  0
   36.7670   24.1300   30.9810 C   0  0  0  0  0  0  0  0  0  0  0  0
   36.8050   22.9490   31.8620 C   0  0  0  0  0  0  0  0  0  0  0  0
   37.9790   22.9690   32.6680 O   0  0  0  0  0  0  0  0  0  0  0  0
   37.8810   24.1050   33.4600 C   0  0  0  0  0  0  0  0  0  0  0  0
   38.0650   25.2810   32.5600 C   0  0  2  0  0  0  0  0  0  0  0  0
   37.7260   23.9920   30.3580 H   0  0  0  0  0  0  0  0  0  0  0  0
   36.0510   24.0930   30.1780 H   0  0  0  0  0  0  0  0  0  0  0  0
   37.0850   22.0710   31.1460 H   0  0  0  0  0  0  0  0  0  0  0  0
   36.0290   22.5430   32.4080 H   0  0  0  0  0  0  0  0  0  0  0  0
   37.0380   24.1280   34.1470 H   0  0  0  0  0  0  0  0  0  0  0  0
   38.7920   24.0480   34.1330 H   0  0  0  0  0  0  0  0  0  0  0  0
   39.0000   24.9780   31.9720 H   0  0  0  0  0  0  0  0  0  0  0  0
   38.4920   26.4950   33.2040 N   0  0  2  0  0  0  0  0  0  0  0  0
   39.6950   27.0060   32.5680 C   0  0  0  0  0  2  0  0  0  0  0  0
   40.7180   27.2820   33.6050 C   0  0  0  0  0  2  0  0  0  0  0  0
   40.2700   26.5440   34.8110 C   0  0  0  0  0  2  0  0  0  0  0  0
   38.8000   26.3270   34.6010 C   0  0  0  0  0  3  0  0  0  0  0  0
   38.2850   27.0790   35.2340 H   0  0  0  0  0  0  0  0  0  0  0  0
   36.3180   27.5750   30.7980 C   0  0  0  0  0  0  0  0  0  0  0  0
   37.4130   27.6620   30.5270 H   0  0  0  0  0  0  0  0  0  0  0  0
   35.8060   27.7670   29.8600 H   0  0  0  0  0  0  0  0  0  0  0  0
   35.4510   30.0670   33.2310 C   0  0  0  0  0  0  0  0  0  0  0  0
   35.9000   30.8400   32.1930 C   0  0  0  0  0  0  0  0  0  0  0  0
   36.2740   29.9990   31.1630 C   0  0  0  0  0  0  0  0  0  0  0  0
   36.0390   28.7570   31.6080 N   0  0  0  0  0  0  0  0  0  0  0  0
   35.5450   28.8040   32.8490 N   0  0  0  0  0  0  0  0  0  0  0  0
   35.9410   31.9460   32.2160 H   0  0  0  0  0  0  0  0  0  0  0  0
   36.6480   30.5180   30.3090 H   0  0  0  0  0  0  0  0  0  0  0  0
   35.2850   31.8480   36.5460 C   0  0  0  0  0  0  0  0  0  0  0  0
   35.8150   31.3400   35.3740 C   0  0  0  0  0  0  0  0  0  0  0  0
   35.0200   30.6170   34.4980 C   0  0  0  0  0  0  0  0  0  0  0  0
   33.7370   30.4750   34.9020 N   0  0  0  0  0  0  0  0  0  0  0  0
   33.2220   30.9730   36.0460 C   0  0  0  0  0  0  0  0  0  0  0  0
   34.0110   31.6590   36.8590 N   0  0  0  0  0  0  0  0  0  0  0  0
   35.9530   32.3980   37.1820 H   0  0  0  0  0  0  0  0  0  0  0  0
   36.8570   31.4790   35.0930 H   0  0  0  0  0  0  0  0  0  0  0  0
   32.1560   30.7680   36.2240 H   0  0  0  0  0  0  0  0  0  0  0  0
  1  3  1  0  0  0  0
  2  1  1  0  0  0  0
  4  1  1  0  0  0  0
  4  9  1  0  0  0  0
  5  4  1  0  0  0  0
  5  6  1  0  0  0  0
  6 13  1  0  0  0  0
  6  7  1  0  0  0  0
  7  8  1  0  0  0  0
  8 15  1  0  0  0  0
  8 14  1  0  0  0  0
  9 16  1  6  0  0  0
  9 17  1  0  0  0  0
  9  8  1  0  0  0  0
 10  5  1  0  0  0  0
 11  5  1  0  0  0  0
 12  6  1  0  0  0  0
 17 18  1  6  0  0  0
 17 21  1  0  0  0  0
 18 19  1  0  0  0  0
 19 20  1  0  0  0  0
 21 20  1  0  0  0  0
 21 22  1  0  0  0  0
 23  1  1  0  0  0  0
 23 29  1  0  0  0  0
 24 23  1  0  0  0  0
 25 23  1  0  0  0  0
 26 35  1  0  0  0  0
 27 31  1  0  0  0  0
 27 26  1  0  0  0  0
 28 29  1  0  0  0  0
 28 27  2  0  0  0  0
 29 30  1  0  0  0  0
 30 26  2  0  0  0  0
 32 28  1  0  0  0  0
 33 38  1  0  0  0  0
 33 39  1  0  0  0  0
 34 33  2  0  0  0  0
 35 36  2  0  0  0  0
 35 34  1  0  0  0  0
 36 37  1  0  0  0  0
 37 41  1  0  0  0  0
 37 38  2  0  0  0  0
 40 34  1  0  0  0  0
M  END
>  <minimizedAffinity>
-4.92108488

$$$$

 OpenBabel03272508383D

 41 44  0  0  1  0  0  0  0  0999 V2000
   37.0230   25.2800   32.8970 C   0  0  0  0  0  0  0  0  0  0  0  0
   36.0360   25.3800   32.4060 H   0  0  0  0  0  0  0  0  0  0  0  0
   36.7260   25.1230   33.9880 H   0  0  0  0  0  0  0  0  0  0  0  0
   37.7160   24.1260   32.5380 N   0  0  0  0  0  0  0  0  0  0  0  0
   37.4160   23.5600   31.2740 C   0  0  0  0  0  0  0  0  0  0  0  0
   36.8520   22.2000   31.2630 C   0  0  0  0  0  0  0  0  0  0  0  0
   37.5650   21.3590   32.1630 O   0  0  0  0  0  0  0  0  0  0  0  0
   37.3760   21.9020   33.4270 C   0  0  0  0  0  0  0  0  0  0  0  0
   38.1460   23.1800   33.4710 C   0  0  2  0  0  0  0  0  0  0  0  0
   38.4990   23.3710   30.9280 H   0  0  0  0  0  0  0  0  0  0  0  0
   37.1050   24.2040   30.4700 H   0  0  0  0  0  0  0  0  0  0  0  0
   37.2220   21.7480   30.2530 H   0  0  0  0  0  0  0  0  0  0  0  0
   35.8550   21.9290   31.2670 H   0  0  0  0  0  0  0  0  0  0  0  0
   36.3480   21.9250   33.7800 H   0  0  0  0  0  0  0  0  0  0  0  0
   37.8970   21.1700   34.1200 H   0  0  0  0  0  0  0  0  0  0  0  0
   39.1600   22.8540   33.0490 H   0  0  0  0  0  0  0  0  0  0  0  0
   38.5000   23.6460   34.7850 N   0  0  2  0  0  0  0  0  0  0  0  0
   39.9010   24.0340   34.8220 C   0  0  0  0  0  2  0  0  0  0  0  0
   40.5610   23.3740   35.9730 C   0  0  0  0  0  2  0  0  0  0  0  0
   39.6550   22.2710   36.3730 C   0  0  0  0  0  2  0  0  0  0  0  0
   38.3160   22.6570   35.8160 C   0  0  0  0  0  3  0  0  0  0  0  0
   37.7290   23.0520   36.6710 H   0  0  0  0  0  0  0  0  0  0  0  0
   37.7190   26.5590   32.8190 C   0  0  0  0  0  0  0  0  0  0  0  0
   38.4840   26.6270   33.6500 H   0  0  0  0  0  0  0  0  0  0  0  0
   38.2730   26.8660   31.9360 H   0  0  0  0  0  0  0  0  0  0  0  0
   35.6680   29.2470   34.0240 C   0  0  0  0  0  0  0  0  0  0  0  0
   35.3320   29.2180   32.6960 C   0  0  0  0  0  0  0  0  0  0  0  0
   36.0570   28.2090   32.0920 C   0  0  0  0  0  0  0  0  0  0  0  0
   36.8000   27.6660   33.0670 N   0  0  0  0  0  0  0  0  0  0  0  0
   36.5610   28.2920   34.2240 N   0  0  0  0  0  0  0  0  0  0  0  0
   34.6010   29.9030   32.2270 H   0  0  0  0  0  0  0  0  0  0  0  0
   35.8650   28.1190   31.0470 H   0  0  0  0  0  0  0  0  0  0  0  0
   35.2440   32.0560   36.4980 C   0  0  0  0  0  0  0  0  0  0  0  0
   35.8710   31.1540   35.6580 C   0  0  0  0  0  0  0  0  0  0  0  0
   35.1300   30.2160   34.9550 C   0  0  0  0  0  0  0  0  0  0  0  0
   33.7980   30.2820   35.1760 N   0  0  0  0  0  0  0  0  0  0  0  0
   33.1890   31.1640   35.9970 C   0  0  0  0  0  0  0  0  0  0  0  0
   33.9280   32.0470   36.6520 N   0  0  0  0  0  0  0  0  0  0  0  0
   35.8750   32.7560   37.0140 H   0  0  0  0  0  0  0  0  0  0  0  0
   36.9490   31.1380   35.5140 H   0  0  0  0  0  0  0  0  0  0  0  0
   32.0940   31.0840   36.0620 H   0  0  0  0  0  0  0  0  0  0  0  0
  1  3  1  0  0  0  0
  2  1  1  0  0  0  0
  4  1  1  0  0  0  0
  4  9  1  0  0  0  0
  5  4  1  0  0  0  0
  6 13  1  0  0  0  0
  6  5  1  0  0  0  0
  6  7  1  0  0  0  0
  7  8  1  0  0  0  0
  8  9  1  0  0  0  0
  8 14  1  0  0  0  0
  8 15  1  0  0  0  0
  9 16  1  6  0  0  0
  9 17  1  0  0  0  0
 10  5  1  0  0  0  0
 11  5  1  0  0  0  0
 12  6  1  0  0  0  0
 17 18  1  6  0  0  0
 17 21  1  0  0  0  0
 18 19  1  0  0  0  0
 19 20  1  0  0  0  0
 21 20  1  0  0  0  0
 21 22  1  0  0  0  0
 23  1  1  0  0  0  0
 23 29  1  0  0  0  0
 23 24  1  0  0  0  0
 25 23  1  0  0  0  0
 26 30  2  0  0  0  0
 26 35  1  0  0  0  0
 27 26  1  0  0  0  0
 28 27  2  0  0  0  0
 28 29  1  0  0  0  0
 29 30  1  0  0  0  0
 31 27  1  0  0  0  0
 32 28  1  0  0  0  0
 33 38  1  0  0  0  0
 33 39  1  0  0  0  0
 34 33  2  0  0  0  0
 35 36  2  0  0  0  0
 35 34  1  0  0  0  0
 36 37  1  0  0  0  0
 37 41  1  0  0  0  0
 37 38  2  0  0  0  0
 40 34  1  0  0  0  0
M  END
>  <minimizedAffinity>
-4.8981204

$$$$

 OpenBabel03272508383D

 41 44  0  0  1  0  0  0  0  0999 V2000
   37.0390   25.9710   32.1260 C   0  0  0  0  0  0  0  0  0  0  0  0
   37.2240   25.6490   31.0820 H   0  0  0  0  0  0  0  0  0  0  0  0
   35.9090   26.1320   32.1220 H   0  0  0  0  0  0  0  0  0  0  0  0
   37.2620   24.9710   33.0700 N   0  0  0  0  0  0  0  0  0  0  0  0
   37.9090   25.3520   34.2720 C   0  0  0  0  0  0  0  0  0  0  0  0
   39.2130   24.7320   34.5600 C   0  0  0  0  0  0  0  0  0  0  0  0
   39.1660   23.3330   34.3000 O   0  0  0  0  0  0  0  0  0  0  0  0
   38.9090   23.2030   32.9420 C   0  0  0  0  0  0  0  0  0  0  0  0
   37.4980   23.6390   32.7220 C   0  0  2  0  0  0  0  0  0  0  0  0
   37.2140   24.7960   35.0050 H   0  0  0  0  0  0  0  0  0  0  0  0
   37.7700   26.3500   34.6520 H   0  0  0  0  0  0  0  0  0  0  0  0
   39.2620   24.7020   35.7260 H   0  0  0  0  0  0  0  0  0  0  0  0
   40.1510   25.0880   34.3150 H   0  0  0  0  0  0  0  0  0  0  0  0
   39.6680   23.6130   32.2790 H   0  0  0  0  0  0  0  0  0  0  0  0
   38.9490   22.0850   32.7610 H   0  0  0  0  0  0  0  0  0  0  0  0
   36.9480   23.0640   33.5450 H   0  0  0  0  0  0  0  0  0  0  0  0
   36.8730   23.1370   31.5280 N   0  0  2  0  0  0  0  0  0  0  0  0
   35.6090   22.4950   31.8550 C   0  0  0  0  0  2  0  0  0  0  0  0
   35.5710   21.1480   31.2370 C   0  0  0  0  0  2  0  0  0  0  0  0
   36.9770   20.8280   30.8930 C   0  0  0  0  0  2  0  0  0  0  0  0
   37.6670   22.1590   30.8300 C   0  0  0  0  0  3  0  0  0  0  0  0
   37.7700   22.4020   29.7520 H   0  0  0  0  0  0  0  0  0  0  0  0
   37.6610   27.2730   32.3340 C   0  0  0  0  0  0  0  0  0  0  0  0
   38.3960   27.2100   33.1920 H   0  0  0  0  0  0  0  0  0  0  0  0
   38.2210   27.7800   31.5530 H   0  0  0  0  0  0  0  0  0  0  0  0
   35.4740   29.6080   33.9620 C   0  0  0  0  0  0  0  0  0  0  0  0
   35.0660   29.7110   32.6580 C   0  0  0  0  0  0  0  0  0  0  0  0
   35.8340   28.8490   31.8990 C   0  0  0  0  0  0  0  0  0  0  0  0
   36.6720   28.2580   32.7610 N   0  0  0  0  0  0  0  0  0  0  0  0
   36.4510   28.7160   33.9980 N   0  0  0  0  0  0  0  0  0  0  0  0
   34.2570   30.3830   32.3130 H   0  0  0  0  0  0  0  0  0  0  0  0
   35.5900   28.8700   30.8610 H   0  0  0  0  0  0  0  0  0  0  0  0
   34.9670   32.0560   36.7790 C   0  0  0  0  0  0  0  0  0  0  0  0
   35.6150   31.3210   35.8030 C   0  0  0  0  0  0  0  0  0  0  0  0
   34.9150   30.4070   35.0310 C   0  0  0  0  0  0  0  0  0  0  0  0
   33.5990   30.3220   35.3290 N   0  0  0  0  0  0  0  0  0  0  0  0
   32.9690   31.0410   36.2810 C   0  0  0  0  0  0  0  0  0  0  0  0
   33.6690   31.9070   37.0000 N   0  0  0  0  0  0  0  0  0  0  0  0
   35.5660   32.7470   37.3420 H   0  0  0  0  0  0  0  0  0  0  0  0
   36.6790   31.4230   35.6010 H   0  0  0  0  0  0  0  0  0  0  0  0
   31.8910   30.8520   36.3950 H   0  0  0  0  0  0  0  0  0  0  0  0
  1 23  1  0  0  0  0
  1  4  1  0  0  0  0
  2  1  1  0  0  0  0
  3  1  1  0  0  0  0
  4  5  1  0  0  0  0
  5  6  1  0  0  0  0
  5 11  1  0  0  0  0
  5 10  1  0  0  0  0
  6 12  1  0  0  0  0
  7  6  1  0  0  0  0
  8  7  1  0  0  0  0
  9  8  1  0  0  0  0
  9  4  1  0  0  0  0
  9 16  1  1  0  0  0
 13  6  1  0  0  0  0
 14  8  1  0  0  0  0
 15  8  1  0  0  0  0
 17 18  1  1  0  0  0
 17  9  1  0  0  0  0
 19 18  1  0  0  0  0
 20 19  1  0  0  0  0
 21 20  1  0  0  0  0
 21 17  1  0  0  0  0
 22 21  1  0  0  0  0
 23 29  1  0  0  0  0
 23 24  1  0  0  0  0
 25 23  1  0  0  0  0
 26 30  2  0  0  0  0
 26 35  1  0  0  0  0
 27 26  1  0  0  0  0
 28 27  2  0  0  0  0
 28 29  1  0  0  0  0
 29 30  1  0  0  0  0
 31 27  1  0  0  0  0
 32 28  1  0  0  0  0
 33 38  1  0  0  0  0
 33 39  1  0  0  0  0
 34 33  2  0  0  0  0
 35 36  2  0  0  0  0
 35 34  1  0  0  0  0
 36 37  1  0  0  0  0
 37 41  1  0  0  0  0
 37 38  2  0  0  0  0
 40 34  1  0  0  0  0
M  END
>  <minimizedAffinity>
-4.83366203

$$$$
