
 OpenBabel03272510193D

 33 36  0  0  0  0  0  0  0  0999 V2000
   37.4020   29.1850   50.8480 Br  0  0  0  0  0  0  0  0  0  0  0  0
   35.9940   29.2600   49.5600 C   0  0  0  0  0  0  0  0  0  0  0  0
   35.9880   30.2490   48.5770 C   0  0  0  0  0  0  0  0  0  0  0  0
   34.9370   30.2370   47.6830 C   0  0  0  0  0  0  0  0  0  0  0  0
   33.9100   29.3070   47.7170 C   0  0  0  0  0  0  0  0  0  0  0  0
   33.9510   28.3560   48.6910 C   0  0  0  0  0  0  0  0  0  0  0  0
   34.9890   28.3440   49.5980 C   0  0  0  0  0  0  0  0  0  0  0  0
   34.8760   30.9860   46.8890 H   0  0  0  0  0  0  0  0  0  0  0  0
   33.1980   27.5850   48.8040 H   0  0  0  0  0  0  0  0  0  0  0  0
   35.0170   27.5840   50.3730 H   0  0  0  0  0  0  0  0  0  0  0  0
   32.8140   29.3140   46.7640 C   0  0  0  0  0  0  0  0  0  0  0  0
   32.0540   28.1990   46.4460 C   0  0  0  0  0  0  0  0  0  0  0  0
   31.0130   28.2340   45.5330 C   0  0  0  0  0  0  0  0  0  0  0  0
   30.7220   29.3860   44.9290 N   0  0  0  0  0  0  0  0  0  0  0  0
   31.4530   30.4880   45.2250 C   0  0  0  0  0  0  0  0  0  0  0  0
   32.4460   30.4170   46.1080 N   0  0  0  0  0  0  0  0  0  0  0  0
   32.2890   27.2530   46.9400 H   0  0  0  0  0  0  0  0  0  0  0  0
   30.4590   27.3240   45.3310 H   0  0  0  0  0  0  0  0  0  0  0  0
   31.1380   31.7140   44.5780 N   0  0  0  0  0  0  0  0  0  0  0  0
   32.1080   32.7780   44.2730 C   0  0  0  0  0  2  0  0  0  0  0  0
   31.2610   34.0150   44.0330 C   0  0  0  0  0  2  0  0  0  0  0  0
   30.0800   33.3680   43.2970 C   0  0  0  0  0  2  0  0  0  0  0  0
   29.8360   32.1420   44.1050 C   0  0  0  0  0  3  0  0  0  0  0  0
   29.3210   31.3940   43.4840 H   0  0  0  0  0  0  0  0  0  0  0  0
   37.9950   33.1630   49.4370 C   0  0  0  0  0  0  0  0  0  0  0  0
   39.0200   33.1560   48.4330 C   0  0  0  0  0  0  0  0  0  0  0  0
   38.9950   32.1440   47.4800 C   0  0  0  0  0  0  0  0  0  0  0  0
   37.9990   31.2060   47.5420 N   0  0  0  0  0  0  0  0  0  0  0  0
   37.0430   31.2410   48.5070 C   0  0  0  0  0  0  0  0  0  0  0  0
   37.0440   32.2220   49.4530 N   0  0  0  0  0  0  0  0  0  0  0  0
   37.9430   33.9120   50.2110 H   0  0  0  0  0  0  0  0  0  0  0  0
   39.7590   33.9460   48.4760 H   0  0  0  0  0  0  0  0  0  0  0  0
   39.7480   32.1290   46.7310 H   0  0  0  0  0  0  0  0  0  0  0  0
  2  7  1  0  0  0  0
  2  1  1  0  0  0  0
  3  2  2  0  0  0  0
  4  5  2  0  0  0  0
  4  3  1  0  0  0  0
  5  6  1  0  0  0  0
  6  9  1  0  0  0  0
  6  7  2  0  0  0  0
  7 10  1  0  0  0  0
  8  4  1  0  0  0  0
 11  5  1  0  0  0  0
 12 11  1  0  0  0  0
 12 17  1  0  0  0  0
 13 12  2  0  0  0  0
 14 15  2  0  0  0  0
 14 13  1  0  0  0  0
 15 16  1  0  0  0  0
 16 11  2  0  0  0  0
 18 13  1  0  0  0  0
 19 15  1  0  0  0  0
 20 19  1  0  0  0  0
 21 20  1  0  0  0  0
 22 21  1  0  0  0  0
 22 23  1  0  0  0  0
 23 19  1  0  0  0  0
 24 23  1  0  0  0  0
 25 30  1  0  0  0  0
 25 31  1  0  0  0  0
 26 32  1  0  0  0  0
 26 25  2  0  0  0  0
 27 28  2  0  0  0  0
 27 26  1  0  0  0  0
 28 29  1  0  0  0  0
 29  3  1  0  0  0  0
 29 30  2  0  0  0  0
 33 27  1  0  0  0  0
M  END
>  <minimizedAffinity>
-6.70435572

>  <minimizedRMSD>
0.179370612

$$$$
