
 OpenBabel03272510183D

 33 36  0  0  0  0  0  0  0  0999 V2000
   37.4430   29.1710   50.8090 Br  0  0  0  0  0  0  0  0  0  0  0  0
   36.0240   29.2900   49.5370 C   0  0  0  0  0  0  0  0  0  0  0  0
   36.0160   30.3060   48.5810 C   0  0  0  0  0  0  0  0  0  0  0  0
   34.9580   30.3250   47.6960 C   0  0  0  0  0  0  0  0  0  0  0  0
   33.9250   29.4010   47.7140 C   0  0  0  0  0  0  0  0  0  0  0  0
   33.9680   28.4230   48.6620 C   0  0  0  0  0  0  0  0  0  0  0  0
   35.0140   28.3800   49.5590 C   0  0  0  0  0  0  0  0  0  0  0  0
   34.8950   31.0960   46.9240 H   0  0  0  0  0  0  0  0  0  0  0  0
   33.2110   27.6550   48.7600 H   0  0  0  0  0  0  0  0  0  0  0  0
   35.0440   27.5990   50.3120 H   0  0  0  0  0  0  0  0  0  0  0  0
   32.8200   29.4410   46.7720 C   0  0  0  0  0  0  0  0  0  0  0  0
   31.8930   28.4220   46.6170 C   0  0  0  0  0  0  0  0  0  0  0  0
   30.8490   28.4860   45.7100 C   0  0  0  0  0  0  0  0  0  0  0  0
   30.7210   29.5730   44.9480 N   0  0  0  0  0  0  0  0  0  0  0  0
   31.6170   30.5810   45.0840 C   0  0  0  0  0  0  0  0  0  0  0  0
   32.6070   30.4840   45.9660 N   0  0  0  0  0  0  0  0  0  0  0  0
   31.9940   27.5300   47.2400 H   0  0  0  0  0  0  0  0  0  0  0  0
   30.1600   27.6520   45.6410 H   0  0  0  0  0  0  0  0  0  0  0  0
   31.4750   31.7380   44.2680 N   0  0  0  0  0  0  0  0  0  0  0  0
   32.0910   31.9120   42.9430 C   0  0  0  0  0  2  0  0  0  0  0  0
   32.0540   33.4100   42.6960 C   0  0  0  0  0  2  0  0  0  0  0  0
   30.6880   33.7300   43.3180 C   0  0  0  0  0  2  0  0  0  0  0  0
   30.7180   32.9350   44.5760 C   0  0  0  0  0  3  0  0  0  0  0  0
   29.6870   32.7350   44.9060 H   0  0  0  0  0  0  0  0  0  0  0  0
   38.0330   33.2010   49.4830 C   0  0  0  0  0  0  0  0  0  0  0  0
   39.0650   33.1970   48.4870 C   0  0  0  0  0  0  0  0  0  0  0  0
   39.0430   32.1930   47.5250 C   0  0  0  0  0  0  0  0  0  0  0  0
   38.0410   31.2600   47.5710 N   0  0  0  0  0  0  0  0  0  0  0  0
   37.0780   31.2930   48.5280 C   0  0  0  0  0  0  0  0  0  0  0  0
   37.0770   32.2640   49.4820 N   0  0  0  0  0  0  0  0  0  0  0  0
   37.9780   33.9430   50.2630 H   0  0  0  0  0  0  0  0  0  0  0  0
   39.8090   33.9820   48.5440 H   0  0  0  0  0  0  0  0  0  0  0  0
   39.8020   32.1800   46.7820 H   0  0  0  0  0  0  0  0  0  0  0  0
  2  7  1  0  0  0  0
  2  1  1  0  0  0  0
  3  2  2  0  0  0  0
  4  5  2  0  0  0  0
  4  3  1  0  0  0  0
  5  6  1  0  0  0  0
  6  9  1  0  0  0  0
  6  7  2  0  0  0  0
  7 10  1  0  0  0  0
  8  4  1  0  0  0  0
 11  5  1  0  0  0  0
 12 11  1  0  0  0  0
 12 17  1  0  0  0  0
 13 12  2  0  0  0  0
 14 15  2  0  0  0  0
 14 13  1  0  0  0  0
 15 16  1  0  0  0  0
 16 11  2  0  0  0  0
 18 13  1  0  0  0  0
 19 23  1  0  0  0  0
 19 15  1  0  0  0  0
 20 19  1  0  0  0  0
 21 20  1  0  0  0  0
 21 22  1  0  0  0  0
 22 23  1  0  0  0  0
 23 24  1  0  0  0  0
 25 31  1  0  0  0  0
 26 32  1  0  0  0  0
 26 25  2  0  0  0  0
 27 28  2  0  0  0  0
 27 26  1  0  0  0  0
 28 29  1  0  0  0  0
 29  3  1  0  0  0  0
 29 30  2  0  0  0  0
 30 25  1  0  0  0  0
 33 27  1  0  0  0  0
M  END
>  <minimizedAffinity>
-6.5722723

>  <minimizedRMSD>
0.467602462

$$$$
