
 OpenBabel03272510193D

 33 36  0  0  0  0  0  0  0  0999 V2000
   37.4390   29.1700   50.8060 Br  0  0  0  0  0  0  0  0  0  0  0  0
   36.0220   29.2920   49.5320 C   0  0  0  0  0  0  0  0  0  0  0  0
   36.0160   30.3090   48.5770 C   0  0  0  0  0  0  0  0  0  0  0  0
   34.9580   30.3310   47.6920 C   0  0  0  0  0  0  0  0  0  0  0  0
   33.9250   29.4070   47.7080 C   0  0  0  0  0  0  0  0  0  0  0  0
   33.9660   28.4290   48.6540 C   0  0  0  0  0  0  0  0  0  0  0  0
   35.0110   28.3830   49.5520 C   0  0  0  0  0  0  0  0  0  0  0  0
   34.8970   31.1020   46.9200 H   0  0  0  0  0  0  0  0  0  0  0  0
   33.2080   27.6600   48.7510 H   0  0  0  0  0  0  0  0  0  0  0  0
   35.0390   27.6010   50.3050 H   0  0  0  0  0  0  0  0  0  0  0  0
   32.8210   29.4490   46.7640 C   0  0  0  0  0  0  0  0  0  0  0  0
   31.8960   28.4290   46.6040 C   0  0  0  0  0  0  0  0  0  0  0  0
   30.8530   28.4960   45.6960 C   0  0  0  0  0  0  0  0  0  0  0  0
   30.7240   29.5860   44.9380 N   0  0  0  0  0  0  0  0  0  0  0  0
   31.6180   30.5940   45.0790 C   0  0  0  0  0  0  0  0  0  0  0  0
   32.6080   30.4950   45.9620 N   0  0  0  0  0  0  0  0  0  0  0  0
   31.9980   27.5350   47.2230 H   0  0  0  0  0  0  0  0  0  0  0  0
   30.1650   27.6610   45.6220 H   0  0  0  0  0  0  0  0  0  0  0  0
   31.4750   31.7540   44.2680 N   0  0  0  0  0  0  0  0  0  0  0  0
   31.8170   31.8260   42.8390 C   0  0  0  0  0  2  0  0  0  0  0  0
   31.9450   33.3130   42.5490 C   0  0  0  0  0  2  0  0  0  0  0  0
   30.8020   33.8360   43.4280 C   0  0  0  0  0  2  0  0  0  0  0  0
   30.9810   33.0520   44.6810 C   0  0  0  0  0  3  0  0  0  0  0  0
   30.0260   33.0110   45.2250 H   0  0  0  0  0  0  0  0  0  0  0  0
   38.0330   33.2020   49.4860 C   0  0  0  0  0  0  0  0  0  0  0  0
   39.0680   33.1980   48.4910 C   0  0  0  0  0  0  0  0  0  0  0  0
   39.0460   32.1950   47.5290 C   0  0  0  0  0  0  0  0  0  0  0  0
   38.0440   31.2630   47.5720 N   0  0  0  0  0  0  0  0  0  0  0  0
   37.0790   31.2950   48.5280 C   0  0  0  0  0  0  0  0  0  0  0  0
   37.0760   32.2660   49.4820 N   0  0  0  0  0  0  0  0  0  0  0  0
   37.9780   33.9440   50.2650 H   0  0  0  0  0  0  0  0  0  0  0  0
   39.8120   33.9830   48.5490 H   0  0  0  0  0  0  0  0  0  0  0  0
   39.8070   32.1820   46.7870 H   0  0  0  0  0  0  0  0  0  0  0  0
  2  7  1  0  0  0  0
  2  1  1  0  0  0  0
  3  2  2  0  0  0  0
  4  5  2  0  0  0  0
  4  3  1  0  0  0  0
  5  6  1  0  0  0  0
  6  9  1  0  0  0  0
  6  7  2  0  0  0  0
  7 10  1  0  0  0  0
  8  4  1  0  0  0  0
 11  5  1  0  0  0  0
 12 11  1  0  0  0  0
 12 17  1  0  0  0  0
 13 12  2  0  0  0  0
 14 15  2  0  0  0  0
 14 13  1  0  0  0  0
 15 16  1  0  0  0  0
 16 11  2  0  0  0  0
 18 13  1  0  0  0  0
 19 23  1  0  0  0  0
 19 15  1  0  0  0  0
 20 19  1  0  0  0  0
 21 20  1  0  0  0  0
 21 22  1  0  0  0  0
 22 23  1  0  0  0  0
 23 24  1  0  0  0  0
 25 31  1  0  0  0  0
 26 32  1  0  0  0  0
 26 25  2  0  0  0  0
 27 28  2  0  0  0  0
 27 26  1  0  0  0  0
 28 29  1  0  0  0  0
 29  3  1  0  0  0  0
 29 30  2  0  0  0  0
 30 25  1  0  0  0  0
 33 27  1  0  0  0  0
M  END
>  <minimizedAffinity>
-6.58186007

>  <minimizedRMSD>
0.466785938

$$$$
