
 OpenBabel03272510193D

 33 36  0  0  0  0  0  0  0  0999 V2000
   37.4320   29.1730   50.8070 Br  0  0  0  0  0  0  0  0  0  0  0  0
   36.0160   29.2920   49.5320 C   0  0  0  0  0  0  0  0  0  0  0  0
   36.0110   30.3060   48.5740 C   0  0  0  0  0  0  0  0  0  0  0  0
   34.9540   30.3250   47.6880 C   0  0  0  0  0  0  0  0  0  0  0  0
   33.9210   29.4020   47.7050 C   0  0  0  0  0  0  0  0  0  0  0  0
   33.9610   28.4260   48.6540 C   0  0  0  0  0  0  0  0  0  0  0  0
   35.0050   28.3830   49.5530 C   0  0  0  0  0  0  0  0  0  0  0  0
   34.8930   31.0950   46.9140 H   0  0  0  0  0  0  0  0  0  0  0  0
   33.2030   27.6580   48.7520 H   0  0  0  0  0  0  0  0  0  0  0  0
   35.0320   27.6030   50.3080 H   0  0  0  0  0  0  0  0  0  0  0  0
   32.8180   29.4410   46.7600 C   0  0  0  0  0  0  0  0  0  0  0  0
   31.8830   28.4280   46.6130 C   0  0  0  0  0  0  0  0  0  0  0  0
   30.8410   28.4920   45.7030 C   0  0  0  0  0  0  0  0  0  0  0  0
   30.7240   29.5720   44.9310 N   0  0  0  0  0  0  0  0  0  0  0  0
   31.6270   30.5740   45.0580 C   0  0  0  0  0  0  0  0  0  0  0  0
   32.6150   30.4780   45.9430 N   0  0  0  0  0  0  0  0  0  0  0  0
   31.9760   27.5410   47.2450 H   0  0  0  0  0  0  0  0  0  0  0  0
   30.1460   27.6630   45.6410 H   0  0  0  0  0  0  0  0  0  0  0  0
   31.4950   31.7240   44.2310 N   0  0  0  0  0  0  0  0  0  0  0  0
   30.7220   32.9250   44.5780 C   0  0  0  0  0  2  0  0  0  0  0  0
   30.4950   33.6340   43.2540 C   0  0  0  0  0  2  0  0  0  0  0  0
   31.8520   33.3610   42.5930 C   0  0  0  0  0  2  0  0  0  0  0  0
   32.0840   31.9280   42.9220 C   0  0  0  0  0  3  0  0  0  0  0  0
   33.1620   31.7150   42.8810 H   0  0  0  0  0  0  0  0  0  0  0  0
   38.0300   33.1980   49.4800 C   0  0  0  0  0  0  0  0  0  0  0  0
   39.0630   33.1940   48.4840 C   0  0  0  0  0  0  0  0  0  0  0  0
   39.0390   32.1920   47.5200 C   0  0  0  0  0  0  0  0  0  0  0  0
   38.0370   31.2600   47.5650 N   0  0  0  0  0  0  0  0  0  0  0  0
   37.0730   31.2920   48.5230 C   0  0  0  0  0  0  0  0  0  0  0  0
   37.0730   32.2620   49.4780 N   0  0  0  0  0  0  0  0  0  0  0  0
   37.9770   33.9390   50.2610 H   0  0  0  0  0  0  0  0  0  0  0  0
   39.8070   33.9790   48.5410 H   0  0  0  0  0  0  0  0  0  0  0  0
   39.7980   32.1790   46.7770 H   0  0  0  0  0  0  0  0  0  0  0  0
  2  7  1  0  0  0  0
  2  1  1  0  0  0  0
  3  2  2  0  0  0  0
  4  5  2  0  0  0  0
  4  3  1  0  0  0  0
  5  6  1  0  0  0  0
  6  9  1  0  0  0  0
  6  7  2  0  0  0  0
  7 10  1  0  0  0  0
  8  4  1  0  0  0  0
 11  5  1  0  0  0  0
 12 11  1  0  0  0  0
 12 17  1  0  0  0  0
 13 12  2  0  0  0  0
 14 15  2  0  0  0  0
 14 13  1  0  0  0  0
 15 16  1  0  0  0  0
 16 11  2  0  0  0  0
 18 13  1  0  0  0  0
 19 20  1  0  0  0  0
 19 15  1  0  0  0  0
 21 20  1  0  0  0  0
 22 23  1  0  0  0  0
 22 21  1  0  0  0  0
 23 19  1  0  0  0  0
 24 23  1  0  0  0  0
 25 31  1  0  0  0  0
 26 32  1  0  0  0  0
 26 25  2  0  0  0  0
 27 28  2  0  0  0  0
 27 26  1  0  0  0  0
 28 29  1  0  0  0  0
 29  3  1  0  0  0  0
 29 30  2  0  0  0  0
 30 25  1  0  0  0  0
 33 27  1  0  0  0  0
M  END
>  <minimizedAffinity>
-6.56264305

>  <minimizedRMSD>
0.48489362

$$$$
