
 OpenBabel03272508393D

 29 31  0  0  1  0  0  0  0  0999 V2000
   38.3130   26.3620   33.7880 N   0  0  0  0  0  0  0  0  0  0  0  0
   38.1680   25.0190   34.2800 C   0  0  0  0  0  0  0  0  0  0  0  0
   37.9280   24.9360   35.7410 C   0  0  2  0  0  0  0  0  0  0  0  0
   38.4960   25.9480   36.5670 N   0  0  0  0  0  0  0  0  0  0  0  0
   38.3920   27.2660   35.9660 C   0  0  0  0  0  0  0  0  0  0  0  0
   39.1410   27.1560   34.6610 C   0  0  0  0  0  0  0  0  0  0  0  0
   39.0590   24.4780   33.9170 H   0  0  0  0  0  0  0  0  0  0  0  0
   37.3080   24.5810   33.7130 H   0  0  0  0  0  0  0  0  0  0  0  0
   36.8120   25.1050   35.8490 H   0  0  0  0  0  0  0  0  0  0  0  0
   39.4230   25.7600   36.9700 H   0  0  0  0  0  0  0  0  0  0  0  0
   38.7810   28.0290   36.6470 H   0  0  0  0  0  0  0  0  0  0  0  0
   37.3170   27.4140   35.7080 H   0  0  0  0  0  0  0  0  0  0  0  0
   40.1140   26.6740   34.8800 H   0  0  0  0  0  0  0  0  0  0  0  0
   39.4010   28.1570   34.2450 H   0  0  0  0  0  0  0  0  0  0  0  0
   37.7140   26.8370   32.5920 C   0  0  0  0  0  0  0  0  0  0  0  0
   38.2900   27.7830   31.7500 C   0  0  0  0  0  0  0  0  0  0  0  0
   37.6170   28.1800   30.5980 C   0  0  0  0  0  0  0  0  0  0  0  0
   36.4050   27.6200   30.3380 N   0  0  0  0  0  0  0  0  0  0  0  0
   35.8660   26.6960   31.1830 C   0  0  0  0  0  0  0  0  0  0  0  0
   36.5020   26.3100   32.2850 N   0  0  0  0  0  0  0  0  0  0  0  0
   39.2470   28.1760   32.0260 H   0  0  0  0  0  0  0  0  0  0  0  0
   38.0640   28.9230   29.9310 H   0  0  0  0  0  0  0  0  0  0  0  0
   34.8950   26.2450   30.9780 H   0  0  0  0  0  0  0  0  0  0  0  0
   38.1640   23.7010   36.3590 N   0  0  1  0  0  0  0  0  0  0  0  0
   39.5220   23.2520   36.3710 C   0  0  0  0  0  2  0  0  0  0  0  0
   39.8480   22.7750   37.7600 C   0  0  0  0  0  2  0  0  0  0  0  0
   38.7040   23.3510   38.5880 C   0  0  0  0  0  2  0  0  0  0  0  0
   37.5890   23.3340   37.5680 C   0  0  0  0  0  3  0  0  0  0  0  0
   36.6760   23.8060   37.9010 H   0  0  0  0  0  0  0  0  0  0  0  0
  1  2  1  0  0  0  0
  1  6  1  0  0  0  0
  2  3  1  0  0  0  0
  3  9  1  1  0  0  0
  3 24  1  0  0  0  0
  3  4  1  0  0  0  0
  4 10  1  0  0  0  0
  5  4  1  0  0  0  0
  5 11  1  0  0  0  0
  6 13  1  0  0  0  0
  6  5  1  0  0  0  0
  7  2  1  0  0  0  0
  8  2  1  0  0  0  0
 12  5  1  0  0  0  0
 14  6  1  0  0  0  0
 15  1  1  0  0  0  0
 16 21  1  0  0  0  0
 16 15  2  0  0  0  0
 17 16  1  0  0  0  0
 18 17  2  0  0  0  0
 18 19  1  0  0  0  0
 19 20  2  0  0  0  0
 20 15  1  0  0  0  0
 22 17  1  0  0  0  0
 23 19  1  0  0  0  0
 24 25  1  1  0  0  0
 24 28  1  0  0  0  0
 25 26  1  0  0  0  0
 26 27  1  0  0  0  0
 28 29  1  0  0  0  0
 28 27  1  0  0  0  0
M  END
>  <minimizedAffinity>
-4.77316666

$$$$

 OpenBabel03272508393D

 29 31  0  0  1  0  0  0  0  0999 V2000
   38.0060   26.7130   33.7170 N   0  0  0  0  0  0  0  0  0  0  0  0
   37.6860   25.5620   34.5180 C   0  0  0  0  0  0  0  0  0  0  0  0
   38.7090   25.2380   35.5410 C   0  0  2  0  0  0  0  0  0  0  0  0
   40.0670   25.5580   35.2500 N   0  0  0  0  0  0  0  0  0  0  0  0
   40.1940   26.8440   34.5890 C   0  0  0  0  0  0  0  0  0  0  0  0
   39.3910   26.7080   33.3190 C   0  0  0  0  0  0  0  0  0  0  0  0
   37.4690   24.7560   33.7960 H   0  0  0  0  0  0  0  0  0  0  0  0
   36.7040   25.7950   35.0010 H   0  0  0  0  0  0  0  0  0  0  0  0
   38.4590   25.9230   36.4100 H   0  0  0  0  0  0  0  0  0  0  0  0
   40.6390   24.8220   34.8170 H   0  0  0  0  0  0  0  0  0  0  0  0
   41.2490   27.0900   34.4310 H   0  0  0  0  0  0  0  0  0  0  0  0
   39.6610   27.5850   35.2290 H   0  0  0  0  0  0  0  0  0  0  0  0
   39.6940   25.7560   32.8390 H   0  0  0  0  0  0  0  0  0  0  0  0
   39.6470   27.5010   32.5780 H   0  0  0  0  0  0  0  0  0  0  0  0
   37.0700   27.7200   33.3680 C   0  0  0  0  0  0  0  0  0  0  0  0
   36.8710   28.1900   32.0740 C   0  0  0  0  0  0  0  0  0  0  0  0
   35.9240   29.1820   31.8380 C   0  0  0  0  0  0  0  0  0  0  0  0
   35.2190   29.6610   32.8990 N   0  0  0  0  0  0  0  0  0  0  0  0
   35.4360   29.1800   34.1550 C   0  0  0  0  0  0  0  0  0  0  0  0
   36.3380   28.2320   34.3900 N   0  0  0  0  0  0  0  0  0  0  0  0
   37.4680   27.7620   31.2930 H   0  0  0  0  0  0  0  0  0  0  0  0
   35.7630   29.5560   30.8220 H   0  0  0  0  0  0  0  0  0  0  0  0
   34.8730   29.5600   35.0080 H   0  0  0  0  0  0  0  0  0  0  0  0
   38.6840   23.9470   36.0840 N   0  0  1  0  0  0  0  0  0  0  0  0
   39.9540   23.3210   36.2810 C   0  0  0  0  0  2  0  0  0  0  0  0
   39.9750   22.7200   37.6600 C   0  0  0  0  0  2  0  0  0  0  0  0
   38.7840   23.3910   38.3350 C   0  0  0  0  0  2  0  0  0  0  0  0
   37.8680   23.5850   37.1480 C   0  0  0  0  0  3  0  0  0  0  0  0
   36.9760   24.1540   37.3650 H   0  0  0  0  0  0  0  0  0  0  0  0
  1  2  1  0  0  0  0
  2  8  1  0  0  0  0
  2  3  1  0  0  0  0
  3 24  1  0  0  0  0
  3  9  1  1  0  0  0
  4  3  1  0  0  0  0
  5 12  1  0  0  0  0
  5  4  1  0  0  0  0
  6  1  1  0  0  0  0
  6  5  1  0  0  0  0
  7  2  1  0  0  0  0
 10  4  1  0  0  0  0
 11  5  1  0  0  0  0
 13  6  1  0  0  0  0
 14  6  1  0  0  0  0
 15  1  1  0  0  0  0
 15 20  1  0  0  0  0
 16 15  2  0  0  0  0
 17 16  1  0  0  0  0
 17 18  2  0  0  0  0
 18 19  1  0  0  0  0
 19 20  2  0  0  0  0
 19 23  1  0  0  0  0
 21 16  1  0  0  0  0
 22 17  1  0  0  0  0
 24 25  1  1  0  0  0
 24 28  1  0  0  0  0
 25 26  1  0  0  0  0
 26 27  1  0  0  0  0
 28 29  1  0  0  0  0
 28 27  1  0  0  0  0
M  END
>  <minimizedAffinity>
-4.57975245

$$$$

 OpenBabel03272508393D

 29 31  0  0  1  0  0  0  0  0999 V2000
   38.7660   23.2350   34.5270 N   0  0  0  0  0  0  0  0  0  0  0  0
   37.9840   24.0640   33.6500 C   0  0  0  0  0  0  0  0  0  0  0  0
   37.3200   23.3210   32.5520 C   0  0  2  0  0  0  0  0  0  0  0  0
   37.9670   22.1530   32.0530 N   0  0  0  0  0  0  0  0  0  0  0  0
   38.5510   21.3560   33.1170 C   0  0  0  0  0  0  0  0  0  0  0  0
   39.5430   22.2730   33.7880 C   0  0  0  0  0  0  0  0  0  0  0  0
   38.6640   24.8720   33.3290 H   0  0  0  0  0  0  0  0  0  0  0  0
   37.2250   24.5630   34.3040 H   0  0  0  0  0  0  0  0  0  0  0  0
   36.3730   22.9140   33.0260 H   0  0  0  0  0  0  0  0  0  0  0  0
   38.5930   22.2720   31.2470 H   0  0  0  0  0  0  0  0  0  0  0  0
   38.9880   20.4380   32.7110 H   0  0  0  0  0  0  0  0  0  0  0  0
   37.7380   21.1670   33.8560 H   0  0  0  0  0  0  0  0  0  0  0  0
   40.1520   22.7410   32.9880 H   0  0  0  0  0  0  0  0  0  0  0  0
   40.2740   21.7100   34.4140 H   0  0  0  0  0  0  0  0  0  0  0  0
   38.7660   23.3560   35.9410 C   0  0  0  0  0  0  0  0  0  0  0  0
   37.8040   24.0500   36.6680 C   0  0  0  0  0  0  0  0  0  0  0  0
   37.8960   24.1070   38.0550 C   0  0  0  0  0  0  0  0  0  0  0  0
   38.9400   23.4740   38.6550 N   0  0  0  0  0  0  0  0  0  0  0  0
   39.8670   22.8020   37.9160 C   0  0  0  0  0  0  0  0  0  0  0  0
   39.7870   22.7410   36.5900 N   0  0  0  0  0  0  0  0  0  0  0  0
   37.0130   24.5230   36.1200 H   0  0  0  0  0  0  0  0  0  0  0  0
   37.1420   24.6510   38.6330 H   0  0  0  0  0  0  0  0  0  0  0  0
   40.7050   22.2920   38.3930 H   0  0  0  0  0  0  0  0  0  0  0  0
   36.8780   24.0650   31.4510 N   0  0  1  0  0  0  0  0  0  0  0  0
   35.5090   23.8890   31.0800 C   0  0  0  0  0  2  0  0  0  0  0  0
   34.9030   25.2480   30.8580 C   0  0  0  0  0  2  0  0  0  0  0  0
   35.9230   26.1790   31.5040 C   0  0  0  0  0  2  0  0  0  0  0  0
   37.1970   25.4030   31.2600 C   0  0  0  0  0  3  0  0  0  0  0  0
   38.0710   25.8250   31.7340 H   0  0  0  0  0  0  0  0  0  0  0  0
  1 15  1  0  0  0  0
  2  8  1  0  0  0  0
  2  1  1  0  0  0  0
  3  9  1  1  0  0  0
  3  2  1  0  0  0  0
  4  3  1  0  0  0  0
  4  5  1  0  0  0  0
  5  6  1  0  0  0  0
  5 12  1  0  0  0  0
  6 14  1  0  0  0  0
  6  1  1  0  0  0  0
  7  2  1  0  0  0  0
 10  4  1  0  0  0  0
 11  5  1  0  0  0  0
 13  6  1  0  0  0  0
 15 20  2  0  0  0  0
 15 16  1  0  0  0  0
 16 17  2  0  0  0  0
 17 22  1  0  0  0  0
 17 18  1  0  0  0  0
 19 23  1  0  0  0  0
 19 18  2  0  0  0  0
 20 19  1  0  0  0  0
 21 16  1  0  0  0  0
 24 25  1  1  0  0  0
 24  3  1  0  0  0  0
 26 25  1  0  0  0  0
 26 27  1  0  0  0  0
 28 24  1  0  0  0  0
 28 27  1  0  0  0  0
 28 29  1  0  0  0  0
M  END
>  <minimizedAffinity>
-4.55687952

$$$$

 OpenBabel03272508393D

 29 31  0  0  1  0  0  0  0  0999 V2000
   38.5320   25.5350   35.0690 N   0  0  0  0  0  0  0  0  0  0  0  0
   37.8230   25.1660   33.8730 C   0  0  0  0  0  0  0  0  0  0  0  0
   38.4600   25.6480   32.6240 C   0  0  2  0  0  0  0  0  0  0  0  0
   39.1950   26.8680   32.6790 N   0  0  0  0  0  0  0  0  0  0  0  0
   39.9830   26.9760   33.8940 C   0  0  0  0  0  0  0  0  0  0  0  0
   38.9770   26.9050   35.0160 C   0  0  0  0  0  0  0  0  0  0  0  0
   36.7850   25.5030   34.0340 H   0  0  0  0  0  0  0  0  0  0  0  0
   37.7730   24.0480   33.8860 H   0  0  0  0  0  0  0  0  0  0  0  0
   39.2570   24.8720   32.4020 H   0  0  0  0  0  0  0  0  0  0  0  0
   38.6870   27.7310   32.4480 H   0  0  0  0  0  0  0  0  0  0  0  0
   40.5810   27.8930   33.8810 H   0  0  0  0  0  0  0  0  0  0  0  0
   40.6000   26.0490   33.9560 H   0  0  0  0  0  0  0  0  0  0  0  0
   38.1590   27.6100   34.7690 H   0  0  0  0  0  0  0  0  0  0  0  0
   39.4000   27.2770   35.9780 H   0  0  0  0  0  0  0  0  0  0  0  0
   38.7570   24.6560   36.1600 C   0  0  0  0  0  0  0  0  0  0  0  0
   39.7070   23.6400   36.1640 C   0  0  0  0  0  0  0  0  0  0  0  0
   39.8490   22.8320   37.2880 C   0  0  0  0  0  0  0  0  0  0  0  0
   39.0390   23.0710   38.3550 N   0  0  0  0  0  0  0  0  0  0  0  0
   38.1170   24.0740   38.3220 C   0  0  0  0  0  0  0  0  0  0  0  0
   37.9750   24.8510   37.2530 N   0  0  0  0  0  0  0  0  0  0  0  0
   40.3050   23.5160   35.2830 H   0  0  0  0  0  0  0  0  0  0  0  0
   40.5940   22.0320   37.2980 H   0  0  0  0  0  0  0  0  0  0  0  0
   37.4670   24.2690   39.1750 H   0  0  0  0  0  0  0  0  0  0  0  0
   37.6640   25.6830   31.4720 N   0  0  1  0  0  0  0  0  0  0  0  0
   36.7370   24.6060   31.3140 C   0  0  0  0  0  2  0  0  0  0  0  0
   35.4020   25.1850   30.9310 C   0  0  0  0  0  2  0  0  0  0  0  0
   35.5710   26.6630   31.2670 C   0  0  0  0  0  2  0  0  0  0  0  0
   37.0490   26.8380   31.0080 C   0  0  0  0  0  3  0  0  0  0  0  0
   37.4360   27.8080   31.2850 H   0  0  0  0  0  0  0  0  0  0  0  0
  1 15  1  0  0  0  0
  2  8  1  0  0  0  0
  2  7  1  0  0  0  0
  2  1  1  0  0  0  0
  3  9  1  6  0  0  0
  3  4  1  0  0  0  0
  3  2  1  0  0  0  0
  4  5  1  0  0  0  0
  5 12  1  0  0  0  0
  5  6  1  0  0  0  0
  6  1  1  0  0  0  0
  6 14  1  0  0  0  0
 10  4  1  0  0  0  0
 11  5  1  0  0  0  0
 13  6  1  0  0  0  0
 15 16  2  0  0  0  0
 15 20  1  0  0  0  0
 16 17  1  0  0  0  0
 17 22  1  0  0  0  0
 17 18  2  0  0  0  0
 19 18  1  0  0  0  0
 19 23  1  0  0  0  0
 20 19  2  0  0  0  0
 21 16  1  0  0  0  0
 24 25  1  1  0  0  0
 24  3  1  0  0  0  0
 26 27  1  0  0  0  0
 26 25  1  0  0  0  0
 28 27  1  0  0  0  0
 28 29  1  0  0  0  0
 28 24  1  0  0  0  0
M  END
>  <minimizedAffinity>
-4.51206732

$$$$

 OpenBabel03272508393D

 29 31  0  0  1  0  0  0  0  0999 V2000
   38.6080   25.0180   34.8340 N   0  0  0  0  0  0  0  0  0  0  0  0
   38.1840   26.3870   34.7130 C   0  0  0  0  0  0  0  0  0  0  0  0
   37.1700   26.6110   33.6550 C   0  0  2  0  0  0  0  0  0  0  0  0
   37.2040   25.7630   32.5100 N   0  0  0  0  0  0  0  0  0  0  0  0
   37.4820   24.3820   32.8620 C   0  0  0  0  0  0  0  0  0  0  0  0
   38.8270   24.4190   33.5420 C   0  0  0  0  0  0  0  0  0  0  0  0
   39.1140   26.9720   34.6070 H   0  0  0  0  0  0  0  0  0  0  0  0
   37.7760   26.6660   35.7170 H   0  0  0  0  0  0  0  0  0  0  0  0
   36.1870   26.3410   34.1520 H   0  0  0  0  0  0  0  0  0  0  0  0
   37.7460   26.0910   31.7000 H   0  0  0  0  0  0  0  0  0  0  0  0
   37.4430   23.7450   31.9720 H   0  0  0  0  0  0  0  0  0  0  0  0
   36.7360   24.0960   33.6400 H   0  0  0  0  0  0  0  0  0  0  0  0
   39.5030   25.0200   32.9020 H   0  0  0  0  0  0  0  0  0  0  0  0
   39.2970   23.4090   33.5900 H   0  0  0  0  0  0  0  0  0  0  0  0
   38.7870   24.3510   36.0740 C   0  0  0  0  0  0  0  0  0  0  0  0
   39.7770   23.4050   36.3180 C   0  0  0  0  0  0  0  0  0  0  0  0
   39.8670   22.8090   37.5730 C   0  0  0  0  0  0  0  0  0  0  0  0
   38.9680   23.1800   38.5250 N   0  0  0  0  0  0  0  0  0  0  0  0
   38.0100   24.1100   38.2550 C   0  0  0  0  0  0  0  0  0  0  0  0
   37.9170   24.6850   37.0600 N   0  0  0  0  0  0  0  0  0  0  0  0
   40.4460   23.1660   35.5150 H   0  0  0  0  0  0  0  0  0  0  0  0
   40.6430   22.0640   37.7720 H   0  0  0  0  0  0  0  0  0  0  0  0
   37.2880   24.4110   39.0150 H   0  0  0  0  0  0  0  0  0  0  0  0
   36.9940   27.9260   33.2050 N   0  0  1  0  0  0  0  0  0  0  0  0
   37.2200   28.1500   31.8110 C   0  0  0  0  0  2  0  0  0  0  0  0
   36.0810   28.9750   31.2760 C   0  0  0  0  0  2  0  0  0  0  0  0
   35.0360   28.8550   32.3800 C   0  0  0  0  0  2  0  0  0  0  0  0
   35.9280   28.7260   33.5920 C   0  0  0  0  0  3  0  0  0  0  0  0
   35.4000   28.5180   34.5120 H   0  0  0  0  0  0  0  0  0  0  0  0
  1 15  1  0  0  0  0
  2  1  1  0  0  0  0
  2  8  1  0  0  0  0
  3  9  1  1  0  0  0
  3  2  1  0  0  0  0
  4  5  1  0  0  0  0
  4  3  1  0  0  0  0
  5  6  1  0  0  0  0
  5 12  1  0  0  0  0
  6 14  1  0  0  0  0
  6  1  1  0  0  0  0
  7  2  1  0  0  0  0
 10  4  1  0  0  0  0
 11  5  1  0  0  0  0
 13  6  1  0  0  0  0
 15 16  2  0  0  0  0
 15 20  1  0  0  0  0
 16 17  1  0  0  0  0
 17 22  1  0  0  0  0
 17 18  2  0  0  0  0
 19 18  1  0  0  0  0
 19 23  1  0  0  0  0
 20 19  2  0  0  0  0
 21 16  1  0  0  0  0
 24 25  1  6  0  0  0
 24 28  1  0  0  0  0
 24  3  1  0  0  0  0
 26 25  1  0  0  0  0
 26 27  1  0  0  0  0
 27 28  1  0  0  0  0
 28 29  1  0  0  0  0
M  END
>  <minimizedAffinity>
-4.5068903

$$$$

 OpenBabel03272508393D

 29 31  0  0  1  0  0  0  0  0999 V2000
   38.5260   25.4750   35.0770 N   0  0  0  0  0  0  0  0  0  0  0  0
   37.8430   25.0910   33.8700 C   0  0  0  0  0  0  0  0  0  0  0  0
   38.4490   25.6440   32.6350 C   0  0  2  0  0  0  0  0  0  0  0  0
   39.1040   26.9060   32.7220 N   0  0  0  0  0  0  0  0  0  0  0  0
   39.8830   27.0340   33.9410 C   0  0  0  0  0  0  0  0  0  0  0  0
   38.8830   26.8710   35.0580 C   0  0  0  0  0  0  0  0  0  0  0  0
   36.7850   25.3580   34.0370 H   0  0  0  0  0  0  0  0  0  0  0  0
   37.8640   23.9730   33.8550 H   0  0  0  0  0  0  0  0  0  0  0  0
   39.2940   24.9260   32.3960 H   0  0  0  0  0  0  0  0  0  0  0  0
   38.5420   27.7410   32.5120 H   0  0  0  0  0  0  0  0  0  0  0  0
   40.4210   27.9880   33.9530 H   0  0  0  0  0  0  0  0  0  0  0  0
   40.5580   26.1470   33.9810 H   0  0  0  0  0  0  0  0  0  0  0  0
   38.0220   27.5290   34.8280 H   0  0  0  0  0  0  0  0  0  0  0  0
   39.2810   27.2450   36.0300 H   0  0  0  0  0  0  0  0  0  0  0  0
   38.8060   24.5850   36.1460 C   0  0  0  0  0  0  0  0  0  0  0  0
   38.0570   24.5030   37.3150 C   0  0  0  0  0  0  0  0  0  0  0  0
   38.4180   23.5920   38.3030 C   0  0  0  0  0  0  0  0  0  0  0  0
   39.5060   22.8060   38.0850 N   0  0  0  0  0  0  0  0  0  0  0  0
   40.2210   22.9090   36.9290 C   0  0  0  0  0  0  0  0  0  0  0  0
   39.8840   23.7760   35.9790 N   0  0  0  0  0  0  0  0  0  0  0  0
   37.2140   25.1580   37.4110 H   0  0  0  0  0  0  0  0  0  0  0  0
   37.8320   23.5230   39.2250 H   0  0  0  0  0  0  0  0  0  0  0  0
   41.0940   22.2810   36.7490 H   0  0  0  0  0  0  0  0  0  0  0  0
   37.6520   25.6570   31.4830 N   0  0  1  0  0  0  0  0  0  0  0  0
   36.7460   24.5620   31.3310 C   0  0  0  0  0  2  0  0  0  0  0  0
   35.4010   25.1140   30.9440 C   0  0  0  0  0  2  0  0  0  0  0  0
   35.5420   26.5970   31.2700 C   0  0  0  0  0  2  0  0  0  0  0  0
   37.0170   26.7970   31.0110 C   0  0  0  0  0  3  0  0  0  0  0  0
   37.3860   27.7760   31.2820 H   0  0  0  0  0  0  0  0  0  0  0  0
  1 15  1  0  0  0  0
  2  7  1  0  0  0  0
  2  1  1  0  0  0  0
  3  9  1  6  0  0  0
  3  4  1  0  0  0  0
  3  2  1  0  0  0  0
  4  5  1  0  0  0  0
  5 11  1  0  0  0  0
  5 12  1  0  0  0  0
  5  6  1  0  0  0  0
  6  1  1  0  0  0  0
  6 14  1  0  0  0  0
  8  2  1  0  0  0  0
 10  4  1  0  0  0  0
 13  6  1  0  0  0  0
 15 16  1  0  0  0  0
 16 21  1  0  0  0  0
 16 17  2  0  0  0  0
 17 22  1  0  0  0  0
 18 17  1  0  0  0  0
 19 18  2  0  0  0  0
 20 15  2  0  0  0  0
 20 19  1  0  0  0  0
 23 19  1  0  0  0  0
 24 25  1  1  0  0  0
 24  3  1  0  0  0  0
 26 27  1  0  0  0  0
 26 25  1  0  0  0  0
 28 27  1  0  0  0  0
 28 29  1  0  0  0  0
 28 24  1  0  0  0  0
M  END
>  <minimizedAffinity>
-4.49740601

$$$$

 OpenBabel03272508393D

 29 31  0  0  1  0  0  0  0  0999 V2000
   38.3790   24.9300   35.6590 N   0  0  0  0  0  0  0  0  0  0  0  0
   39.4590   24.0530   35.2970 C   0  0  0  0  0  0  0  0  0  0  0  0
   39.3370   22.6850   35.8570 C   0  0  2  0  0  0  0  0  0  0  0  0
   38.6760   22.5360   37.1110 N   0  0  0  0  0  0  0  0  0  0  0  0
   37.5060   23.3880   37.2160 C   0  0  0  0  0  0  0  0  0  0  0  0
   38.0320   24.7920   37.0510 C   0  0  0  0  0  0  0  0  0  0  0  0
   40.3800   24.5950   35.5730 H   0  0  0  0  0  0  0  0  0  0  0  0
   39.4610   24.0230   34.1780 H   0  0  0  0  0  0  0  0  0  0  0  0
   38.6470   22.1500   35.1320 H   0  0  0  0  0  0  0  0  0  0  0  0
   39.2640   22.5500   37.9540 H   0  0  0  0  0  0  0  0  0  0  0  0
   36.9860   23.2100   38.1630 H   0  0  0  0  0  0  0  0  0  0  0  0
   36.8750   23.1750   36.3210 H   0  0  0  0  0  0  0  0  0  0  0  0
   38.9090   24.8950   37.7220 H   0  0  0  0  0  0  0  0  0  0  0  0
   37.3030   25.5550   37.4100 H   0  0  0  0  0  0  0  0  0  0  0  0
   37.7410   25.8180   34.7540 C   0  0  0  0  0  0  0  0  0  0  0  0
   37.3260   27.1050   35.0790 C   0  0  0  0  0  0  0  0  0  0  0  0
   36.7100   27.8960   34.1140 C   0  0  0  0  0  0  0  0  0  0  0  0
   36.5350   27.3710   32.8710 N   0  0  0  0  0  0  0  0  0  0  0  0
   36.9530   26.1060   32.5820 C   0  0  0  0  0  0  0  0  0  0  0  0
   37.5420   25.3440   33.4970 N   0  0  0  0  0  0  0  0  0  0  0  0
   37.5000   27.4440   36.0810 H   0  0  0  0  0  0  0  0  0  0  0  0
   36.3820   28.9090   34.3630 H   0  0  0  0  0  0  0  0  0  0  0  0
   36.8150   25.6820   31.5870 H   0  0  0  0  0  0  0  0  0  0  0  0
   40.4970   21.9020   35.8920 N   0  0  1  0  0  0  0  0  0  0  0  0
   41.3460   21.9810   34.7440 C   0  0  0  0  0  2  0  0  0  0  0  0
   42.7630   22.1570   35.2170 C   0  0  0  0  0  2  0  0  0  0  0  0
   42.5810   22.5520   36.6780 C   0  0  0  0  0  2  0  0  0  0  0  0
   41.3130   21.8010   37.0110 C   0  0  0  0  0  3  0  0  0  0  0  0
   40.9160   22.0150   37.9930 H   0  0  0  0  0  0  0  0  0  0  0  0
  1  6  1  0  0  0  0
  2  7  1  0  0  0  0
  2  1  1  0  0  0  0
  2  3  1  0  0  0  0
  3  9  1  6  0  0  0
  3 24  1  0  0  0  0
  3  4  1  0  0  0  0
  4  5  1  0  0  0  0
  4 10  1  0  0  0  0
  5 11  1  0  0  0  0
  6  5  1  0  0  0  0
  6 14  1  0  0  0  0
  6 13  1  0  0  0  0
  8  2  1  0  0  0  0
 12  5  1  0  0  0  0
 15 16  1  0  0  0  0
 15  1  1  0  0  0  0
 16 21  1  0  0  0  0
 17 22  1  0  0  0  0
 17 16  2  0  0  0  0
 18 17  1  0  0  0  0
 19 18  2  0  0  0  0
 19 20  1  0  0  0  0
 20 15  2  0  0  0  0
 23 19  1  0  0  0  0
 24 25  1  6  0  0  0
 24 28  1  0  0  0  0
 25 26  1  0  0  0  0
 26 27  1  0  0  0  0
 27 28  1  0  0  0  0
 28 29  1  0  0  0  0
M  END
>  <minimizedAffinity>
-4.47413206

$$$$

 OpenBabel03272508393D

 29 31  0  0  1  0  0  0  0  0999 V2000
   37.9340   22.8950   34.4400 N   0  0  0  0  0  0  0  0  0  0  0  0
   37.2550   21.7580   33.8790 C   0  0  0  0  0  0  0  0  0  0  0  0
   37.6830   21.4220   32.5000 C   0  0  2  0  0  0  0  0  0  0  0  0
   38.1200   22.4870   31.6610 N   0  0  0  0  0  0  0  0  0  0  0  0
   38.9380   23.4480   32.3790 C   0  0  0  0  0  0  0  0  0  0  0  0
   38.0490   23.9650   33.4820 C   0  0  0  0  0  0  0  0  0  0  0  0
   36.1790   21.9720   34.0000 H   0  0  0  0  0  0  0  0  0  0  0  0
   37.4640   20.9080   34.5760 H   0  0  0  0  0  0  0  0  0  0  0  0
   38.6220   20.8010   32.6450 H   0  0  0  0  0  0  0  0  0  0  0  0
   37.4140   22.9280   31.0580 H   0  0  0  0  0  0  0  0  0  0  0  0
   39.3070   24.2220   31.6980 H   0  0  0  0  0  0  0  0  0  0  0  0
   39.7540   22.8680   32.8690 H   0  0  0  0  0  0  0  0  0  0  0  0
   37.0760   24.2330   33.0230 H   0  0  0  0  0  0  0  0  0  0  0  0
   38.4350   24.9160   33.9170 H   0  0  0  0  0  0  0  0  0  0  0  0
   38.4240   22.9470   35.7710 C   0  0  0  0  0  0  0  0  0  0  0  0
   37.7240   23.4890   36.8440 C   0  0  0  0  0  0  0  0  0  0  0  0
   38.2970   23.4900   38.1120 C   0  0  0  0  0  0  0  0  0  0  0  0
   39.5390   22.9530   38.2550 N   0  0  0  0  0  0  0  0  0  0  0  0
   40.2010   22.4290   37.1850 C   0  0  0  0  0  0  0  0  0  0  0  0
   39.6610   22.4230   35.9700 N   0  0  0  0  0  0  0  0  0  0  0  0
   36.7510   23.8930   36.6470 H   0  0  0  0  0  0  0  0  0  0  0  0
   37.7510   23.9140   38.9600 H   0  0  0  0  0  0  0  0  0  0  0  0
   41.1960   21.9970   37.2950 H   0  0  0  0  0  0  0  0  0  0  0  0
   36.8290   20.6090   31.7450 N   0  0  1  0  0  0  0  0  0  0  0  0
   36.6900   19.2570   32.1890 C   0  0  0  0  0  2  0  0  0  0  0  0
   35.2250   18.9120   32.1990 C   0  0  0  0  0  2  0  0  0  0  0  0
   34.5600   20.2810   32.1010 C   0  0  0  0  0  2  0  0  0  0  0  0
   35.5880   21.0290   31.2850 C   0  0  0  0  0  3  0  0  0  0  0  0
   35.3810   22.0840   31.1700 H   0  0  0  0  0  0  0  0  0  0  0  0
  1 15  1  0  0  0  0
  2  7  1  0  0  0  0
  2  1  1  0  0  0  0
  2  8  1  0  0  0  0
  3  9  1  1  0  0  0
  3  2  1  0  0  0  0
  4  5  1  0  0  0  0
  4  3  1  0  0  0  0
  5 12  1  0  0  0  0
  5  6  1  0  0  0  0
  6 14  1  0  0  0  0
  6  1  1  0  0  0  0
 10  4  1  0  0  0  0
 11  5  1  0  0  0  0
 13  6  1  0  0  0  0
 15 20  2  0  0  0  0
 15 16  1  0  0  0  0
 16 17  2  0  0  0  0
 17 18  1  0  0  0  0
 17 22  1  0  0  0  0
 19 23  1  0  0  0  0
 19 18  2  0  0  0  0
 20 19  1  0  0  0  0
 21 16  1  0  0  0  0
 24 25  1  1  0  0  0
 24  3  1  0  0  0  0
 25 26  1  0  0  0  0
 27 26  1  0  0  0  0
 28 24  1  0  0  0  0
 28 27  1  0  0  0  0
 29 28  1  0  0  0  0
M  END
>  <minimizedAffinity>
-4.4722805

$$$$

 OpenBabel03272508393D

 29 31  0  0  1  0  0  0  0  0999 V2000
   38.5680   23.8690   34.6220 N   0  0  0  0  0  0  0  0  0  0  0  0
   38.2950   25.1040   33.9360 C   0  0  0  0  0  0  0  0  0  0  0  0
   37.3430   24.9660   32.8080 C   0  0  2  0  0  0  0  0  0  0  0  0
   37.3230   23.7290   32.1010 N   0  0  0  0  0  0  0  0  0  0  0  0
   37.4420   22.5890   32.9920 C   0  0  0  0  0  0  0  0  0  0  0  0
   38.7630   22.7830   33.6950 C   0  0  0  0  0  0  0  0  0  0  0  0
   39.2840   25.5150   33.6720 H   0  0  0  0  0  0  0  0  0  0  0  0
   37.8880   25.7970   34.7150 H   0  0  0  0  0  0  0  0  0  0  0  0
   36.3220   25.0030   33.3010 H   0  0  0  0  0  0  0  0  0  0  0  0
   37.9210   23.6560   31.2680 H   0  0  0  0  0  0  0  0  0  0  0  0
   37.3640   21.6530   32.4290 H   0  0  0  0  0  0  0  0  0  0  0  0
   36.6470   22.7050   33.7650 H   0  0  0  0  0  0  0  0  0  0  0  0
   39.5180   23.0160   32.9170 H   0  0  0  0  0  0  0  0  0  0  0  0
   39.1220   21.8430   34.1740 H   0  0  0  0  0  0  0  0  0  0  0  0
   38.6380   23.7460   36.0340 C   0  0  0  0  0  0  0  0  0  0  0  0
   37.7740   24.3810   36.9200 C   0  0  0  0  0  0  0  0  0  0  0  0
   37.9280   24.1920   38.2900 C   0  0  0  0  0  0  0  0  0  0  0  0
   38.9330   23.3810   38.7160 N   0  0  0  0  0  0  0  0  0  0  0  0
   39.7640   22.7710   37.8240 C   0  0  0  0  0  0  0  0  0  0  0  0
   39.6240   22.9460   36.5140 N   0  0  0  0  0  0  0  0  0  0  0  0
   37.0070   25.0050   36.5040 H   0  0  0  0  0  0  0  0  0  0  0  0
   37.2510   24.6890   38.9910 H   0  0  0  0  0  0  0  0  0  0  0  0
   40.5710   22.1200   38.1610 H   0  0  0  0  0  0  0  0  0  0  0  0
   37.3220   25.9980   31.8610 N   0  0  1  0  0  0  0  0  0  0  0  0
   36.0400   26.3350   31.3260 C   0  0  0  0  0  2  0  0  0  0  0  0
   35.8980   27.8330   31.3500 C   0  0  0  0  0  2  0  0  0  0  0  0
   37.0250   28.2590   32.2850 C   0  0  0  0  0  2  0  0  0  0  0  0
   38.0410   27.1770   32.0040 C   0  0  0  0  0  3  0  0  0  0  0  0
   38.9110   27.2070   32.6440 H   0  0  0  0  0  0  0  0  0  0  0  0
  1 15  1  0  0  0  0
  2  1  1  0  0  0  0
  2  8  1  0  0  0  0
  3  9  1  1  0  0  0
  3  2  1  0  0  0  0
  4  3  1  0  0  0  0
  4  5  1  0  0  0  0
  5  6  1  0  0  0  0
  5 12  1  0  0  0  0
  6 14  1  0  0  0  0
  6  1  1  0  0  0  0
  7  2  1  0  0  0  0
 10  4  1  0  0  0  0
 11  5  1  0  0  0  0
 13  6  1  0  0  0  0
 15 20  2  0  0  0  0
 15 16  1  0  0  0  0
 16 17  2  0  0  0  0
 17 18  1  0  0  0  0
 17 22  1  0  0  0  0
 19 23  1  0  0  0  0
 19 18  2  0  0  0  0
 20 19  1  0  0  0  0
 21 16  1  0  0  0  0
 24 25  1  1  0  0  0
 24 28  1  0  0  0  0
 24  3  1  0  0  0  0
 25 26  1  0  0  0  0
 26 27  1  0  0  0  0
 28 27  1  0  0  0  0
 28 29  1  0  0  0  0
M  END
>  <minimizedAffinity>
-4.45110464

$$$$
