
 OpenBabel03272502533D

 24 26  0  0  0  0  0  0  0  0999 V2000
   38.0330   24.5720   34.7440 C   0  0  0  0  0  0  0  0  0  0  0  0
   38.1680   23.7490   33.6430 C   0  0  0  0  0  0  0  0  0  0  0  0
   37.8240   24.1550   32.3710 C   0  0  0  0  0  0  0  0  0  0  0  0
   37.3370   25.4340   32.2600 C   0  0  0  0  0  0  0  0  0  0  0  0
   37.1900   26.2820   33.3460 C   0  0  0  0  0  0  0  0  0  0  0  0
   37.5460   25.8230   34.5700 N   0  0  0  0  0  0  0  0  0  0  0  0
   38.5640   22.7470   33.8250 H   0  0  0  0  0  0  0  0  0  0  0  0
   37.9390   23.4870   31.5140 H   0  0  0  0  0  0  0  0  0  0  0  0
   37.0490   25.8140   31.2970 H   0  0  0  0  0  0  0  0  0  0  0  0
   36.6810   27.5970   33.1810 N   0  0  0  0  0  0  0  0  0  0  0  0
   36.2030   28.4460   34.2530 C   0  0  0  0  0  2  0  0  0  0  0  0
   35.2600   29.3790   33.5270 C   0  0  0  0  0  2  0  0  0  0  0  0
   36.0710   29.6850   32.2620 C   0  0  0  0  0  2  0  0  0  0  0  0
   36.5640   28.2910   31.9120 C   0  0  0  0  0  3  0  0  0  0  0  0
   37.5140   28.3090   31.3400 H   0  0  0  0  0  0  0  0  0  0  0  0
   39.7860   22.8140   37.4180 C   0  0  0  0  0  0  0  0  0  0  0  0
   39.1120   23.2250   38.5720 C   0  0  0  0  0  0  0  0  0  0  0  0
   38.0460   24.1150   38.4090 C   0  0  0  0  0  0  0  0  0  0  0  0
   37.7400   24.5190   37.1470 N   0  0  0  0  0  0  0  0  0  0  0  0
   38.4080   24.1050   36.0710 C   0  0  0  0  0  0  0  0  0  0  0  0
   39.4420   23.2450   36.1940 N   0  0  0  0  0  0  0  0  0  0  0  0
   40.6390   22.1200   37.3990 H   0  0  0  0  0  0  0  0  0  0  0  0
   39.4630   22.8220   39.5120 H   0  0  0  0  0  0  0  0  0  0  0  0
   37.5350   24.4250   39.2860 H   0  0  0  0  0  0  0  0  0  0  0  0
  1 20  1  0  0  0  0
  2  7  1  0  0  0  0
  2  1  2  0  0  0  0
  3  2  1  0  0  0  0
  4  3  2  0  0  0  0
  4  5  1  0  0  0  0
  5  6  2  0  0  0  0
  6  1  1  0  0  0  0
  8  3  1  0  0  0  0
  9  4  1  0  0  0  0
 10  5  1  0  0  0  0
 10 11  1  0  0  0  0
 12 11  1  0  0  0  0
 13 12  1  0  0  0  0
 14 13  1  0  0  0  0
 14 10  1  0  0  0  0
 15 14  1  0  0  0  0
 16 17  1  0  0  0  0
 17 23  1  0  0  0  0
 18 17  2  0  0  0  0
 18 24  1  0  0  0  0
 19 18  1  0  0  0  0
 20 21  1  0  0  0  0
 20 19  2  0  0  0  0
 21 16  2  0  0  0  0
 22 16  1  0  0  0  0
M  END
>  <minimizedAffinity>
-4.82868814

$$$$

 OpenBabel03272502533D

 24 26  0  0  0  0  0  0  0  0999 V2000
   38.5610   25.5760   33.2850 C   0  0  0  0  0  0  0  0  0  0  0  0
   39.1970   26.8020   33.3150 C   0  0  0  0  0  0  0  0  0  0  0  0
   40.3390   27.0230   34.0560 C   0  0  0  0  0  0  0  0  0  0  0  0
   40.8120   25.9480   34.7670 C   0  0  0  0  0  0  0  0  0  0  0  0
   40.1950   24.7070   34.7560 C   0  0  0  0  0  0  0  0  0  0  0  0
   39.0750   24.5540   34.0080 N   0  0  0  0  0  0  0  0  0  0  0  0
   38.7510   27.6010   32.7190 H   0  0  0  0  0  0  0  0  0  0  0  0
   40.8260   28.0010   34.0650 H   0  0  0  0  0  0  0  0  0  0  0  0
   41.6980   26.0510   35.3650 H   0  0  0  0  0  0  0  0  0  0  0  0
   40.7210   23.6250   35.5090 N   0  0  0  0  0  0  0  0  0  0  0  0
   40.0100   22.4000   35.8170 C   0  0  0  0  0  2  0  0  0  0  0  0
   40.7170   21.9250   37.0670 C   0  0  0  0  0  2  0  0  0  0  0  0
   42.1800   22.1940   36.6940 C   0  0  0  0  0  2  0  0  0  0  0  0
   42.0530   23.5790   36.0830 C   0  0  0  0  0  3  0  0  0  0  0  0
   42.8510   23.7900   35.3410 H   0  0  0  0  0  0  0  0  0  0  0  0
   35.6040   26.2890   31.2700 C   0  0  0  0  0  0  0  0  0  0  0  0
   35.0870   25.0200   30.9940 C   0  0  0  0  0  0  0  0  0  0  0  0
   35.7740   23.9200   31.5150 C   0  0  0  0  0  0  0  0  0  0  0  0
   36.8930   24.1570   32.2500 N   0  0  0  0  0  0  0  0  0  0  0  0
   37.3560   25.3840   32.4910 C   0  0  0  0  0  0  0  0  0  0  0  0
   36.7160   26.4680   32.0020 N   0  0  0  0  0  0  0  0  0  0  0  0
   35.1670   27.2380   30.9240 H   0  0  0  0  0  0  0  0  0  0  0  0
   34.1860   24.9790   30.3950 H   0  0  0  0  0  0  0  0  0  0  0  0
   35.3790   22.9570   31.3060 H   0  0  0  0  0  0  0  0  0  0  0  0
  1  2  2  0  0  0  0
  1  6  1  0  0  0  0
  2  3  1  0  0  0  0
  3  8  1  0  0  0  0
  3  4  2  0  0  0  0
  4  9  1  0  0  0  0
  5  4  1  0  0  0  0
  5 10  1  0  0  0  0
  6  5  2  0  0  0  0
  7  2  1  0  0  0  0
 10 11  1  0  0  0  0
 10 14  1  0  0  0  0
 11 12  1  0  0  0  0
 13 12  1  0  0  0  0
 14 13  1  0  0  0  0
 15 14  1  0  0  0  0
 16 21  1  0  0  0  0
 17 16  2  0  0  0  0
 17 18  1  0  0  0  0
 18 19  2  0  0  0  0
 19 20  1  0  0  0  0
 20  1  1  0  0  0  0
 21 20  2  0  0  0  0
 22 16  1  0  0  0  0
 23 17  1  0  0  0  0
 24 18  1  0  0  0  0
M  END
>  <minimizedAffinity>
-4.80343294

$$$$

 OpenBabel03272502533D

 24 26  0  0  0  0  0  0  0  0999 V2000
   36.2220   23.1430   31.9510 C   0  0  0  0  0  0  0  0  0  0  0  0
   35.3670   23.9220   31.1970 C   0  0  0  0  0  0  0  0  0  0  0  0
   35.5380   25.2830   31.0570 C   0  0  0  0  0  0  0  0  0  0  0  0
   36.6160   25.8240   31.7140 C   0  0  0  0  0  0  0  0  0  0  0  0
   37.4910   25.0670   32.4770 C   0  0  0  0  0  0  0  0  0  0  0  0
   37.2680   23.7340   32.5750 N   0  0  0  0  0  0  0  0  0  0  0  0
   34.5350   23.4070   30.7100 H   0  0  0  0  0  0  0  0  0  0  0  0
   34.8490   25.8810   30.4560 H   0  0  0  0  0  0  0  0  0  0  0  0
   36.8080   26.8780   31.6470 H   0  0  0  0  0  0  0  0  0  0  0  0
   38.5920   25.6720   33.1380 N   0  0  0  0  0  0  0  0  0  0  0  0
   39.3750   25.0530   34.1900 C   0  0  0  0  0  2  0  0  0  0  0  0
   39.9370   26.2540   34.9180 C   0  0  0  0  0  2  0  0  0  0  0  0
   40.3330   27.1510   33.7390 C   0  0  0  0  0  2  0  0  0  0  0  0
   39.1020   27.0010   32.8610 C   0  0  0  0  0  3  0  0  0  0  0  0
   39.3270   27.1630   31.7860 H   0  0  0  0  0  0  0  0  0  0  0  0
   35.9060   19.6120   31.0870 C   0  0  0  0  0  0  0  0  0  0  0  0
   35.5980   19.0060   32.3080 C   0  0  0  0  0  0  0  0  0  0  0  0
   35.5010   19.8350   33.4290 C   0  0  0  0  0  0  0  0  0  0  0  0
   35.7140   21.1680   33.2570 N   0  0  0  0  0  0  0  0  0  0  0  0
   36.0060   21.7080   32.0740 C   0  0  0  0  0  0  0  0  0  0  0  0
   36.1060   20.9350   30.9720 N   0  0  0  0  0  0  0  0  0  0  0  0
   36.0120   19.0820   30.1280 H   0  0  0  0  0  0  0  0  0  0  0  0
   35.4540   17.9340   32.2990 H   0  0  0  0  0  0  0  0  0  0  0  0
   35.2660   19.3740   34.3560 H   0  0  0  0  0  0  0  0  0  0  0  0
  1 20  1  0  0  0  0
  1  6  1  0  0  0  0
  2  1  2  0  0  0  0
  3  2  1  0  0  0  0
  3  4  2  0  0  0  0
  4  5  1  0  0  0  0
  5  6  2  0  0  0  0
  5 10  1  0  0  0  0
  7  2  1  0  0  0  0
  8  3  1  0  0  0  0
  9  4  1  0  0  0  0
 10 11  1  0  0  0  0
 11 12  1  0  0  0  0
 13 12  1  0  0  0  0
 14 10  1  0  0  0  0
 14 13  1  0  0  0  0
 15 14  1  0  0  0  0
 16 17  1  0  0  0  0
 17 18  2  0  0  0  0
 18 24  1  0  0  0  0
 19 18  1  0  0  0  0
 20 19  2  0  0  0  0
 21 16  2  0  0  0  0
 21 20  1  0  0  0  0
 22 16  1  0  0  0  0
 23 17  1  0  0  0  0
M  END
>  <minimizedAffinity>
-4.76127863

$$$$

 OpenBabel03272502533D

 24 26  0  0  0  0  0  0  0  0999 V2000
   38.4410   24.6780   35.9810 C   0  0  0  0  0  0  0  0  0  0  0  0
   37.8880   24.4970   37.2340 C   0  0  0  0  0  0  0  0  0  0  0  0
   38.4080   23.6060   38.1480 C   0  0  0  0  0  0  0  0  0  0  0  0
   39.5150   22.9040   37.7410 C   0  0  0  0  0  0  0  0  0  0  0  0
   40.0920   23.0650   36.4910 C   0  0  0  0  0  0  0  0  0  0  0  0
   39.5340   23.9560   35.6370 N   0  0  0  0  0  0  0  0  0  0  0  0
   37.0070   25.0980   37.4720 H   0  0  0  0  0  0  0  0  0  0  0  0
   37.9540   23.4780   39.1340 H   0  0  0  0  0  0  0  0  0  0  0  0
   39.9710   22.1930   38.4040 H   0  0  0  0  0  0  0  0  0  0  0  0
   41.2380   22.3160   36.1150 N   0  0  0  0  0  0  0  0  0  0  0  0
   41.7320   22.1720   34.7600 C   0  0  0  0  0  2  0  0  0  0  0  0
   42.5010   20.8720   34.8360 C   0  0  0  0  0  2  0  0  0  0  0  0
   43.2250   21.0400   36.1780 C   0  0  0  0  0  2  0  0  0  0  0  0
   42.0900   21.5810   37.0310 C   0  0  0  0  0  3  0  0  0  0  0  0
   42.4540   22.2020   37.8750 H   0  0  0  0  0  0  0  0  0  0  0  0
   37.1830   26.1470   32.8870 C   0  0  0  0  0  0  0  0  0  0  0  0
   36.7690   27.4230   33.2790 C   0  0  0  0  0  0  0  0  0  0  0  0
   36.9320   27.7650   34.6240 C   0  0  0  0  0  0  0  0  0  0  0  0
   37.4790   26.8380   35.4560 N   0  0  0  0  0  0  0  0  0  0  0  0
   37.8610   25.6300   35.0430 C   0  0  0  0  0  0  0  0  0  0  0  0
   37.7170   25.2680   33.7500 N   0  0  0  0  0  0  0  0  0  0  0  0
   37.1140   25.7470   31.8640 H   0  0  0  0  0  0  0  0  0  0  0  0
   36.3510   28.0590   32.5100 H   0  0  0  0  0  0  0  0  0  0  0  0
   36.6180   28.7350   34.9210 H   0  0  0  0  0  0  0  0  0  0  0  0
  1  2  1  0  0  0  0
  2  7  1  0  0  0  0
  2  3  2  0  0  0  0
  3  8  1  0  0  0  0
  4  3  1  0  0  0  0
  4  9  1  0  0  0  0
  5  4  2  0  0  0  0
  6  1  2  0  0  0  0
  6  5  1  0  0  0  0
 10  5  1  0  0  0  0
 10 14  1  0  0  0  0
 11 12  1  0  0  0  0
 11 10  1  0  0  0  0
 12 13  1  0  0  0  0
 13 14  1  0  0  0  0
 14 15  1  0  0  0  0
 16 17  2  0  0  0  0
 16 21  1  0  0  0  0
 17 18  1  0  0  0  0
 18 24  1  0  0  0  0
 18 19  2  0  0  0  0
 20 19  1  0  0  0  0
 20  1  1  0  0  0  0
 21 20  2  0  0  0  0
 22 16  1  0  0  0  0
 23 17  1  0  0  0  0
M  END
>  <minimizedAffinity>
-4.75964689

$$$$

 OpenBabel03272502533D

 24 26  0  0  0  0  0  0  0  0999 V2000
   40.0570   22.9260   36.7460 C   0  0  0  0  0  0  0  0  0  0  0  0
   39.3870   22.9720   37.9530 C   0  0  0  0  0  0  0  0  0  0  0  0
   38.3690   23.8680   38.1980 C   0  0  0  0  0  0  0  0  0  0  0  0
   38.0550   24.7180   37.1670 C   0  0  0  0  0  0  0  0  0  0  0  0
   38.7100   24.6960   35.9460 C   0  0  0  0  0  0  0  0  0  0  0  0
   39.7020   23.7920   35.7670 N   0  0  0  0  0  0  0  0  0  0  0  0
   39.7040   22.2570   38.7170 H   0  0  0  0  0  0  0  0  0  0  0  0
   37.8520   23.8870   39.1610 H   0  0  0  0  0  0  0  0  0  0  0  0
   37.2710   25.4420   37.2910 H   0  0  0  0  0  0  0  0  0  0  0  0
   38.3490   25.5970   34.9090 N   0  0  0  0  0  0  0  0  0  0  0  0
   39.1470   25.8720   33.7310 C   0  0  0  0  0  2  0  0  0  0  0  0
   38.6640   27.2490   33.3320 C   0  0  0  0  0  2  0  0  0  0  0  0
   37.1510   27.0960   33.5340 C   0  0  0  0  0  2  0  0  0  0  0  0
   37.1280   26.3780   34.8720 C   0  0  0  0  0  3  0  0  0  0  0  0
   36.2150   25.7600   35.0050 H   0  0  0  0  0  0  0  0  0  0  0  0
   42.5740   20.8830   35.0710 C   0  0  0  0  0  0  0  0  0  0  0  0
   43.1460   20.1530   36.1160 C   0  0  0  0  0  0  0  0  0  0  0  0
   42.6480   20.3770   37.4030 C   0  0  0  0  0  0  0  0  0  0  0  0
   41.6480   21.2860   37.5500 N   0  0  0  0  0  0  0  0  0  0  0  0
   41.1280   21.9650   36.5270 C   0  0  0  0  0  0  0  0  0  0  0  0
   41.5870   21.7710   35.2710 N   0  0  0  0  0  0  0  0  0  0  0  0
   42.8670   20.8070   34.0130 H   0  0  0  0  0  0  0  0  0  0  0  0
   43.9360   19.4610   35.8540 H   0  0  0  0  0  0  0  0  0  0  0  0
   43.0830   19.8200   38.1960 H   0  0  0  0  0  0  0  0  0  0  0  0
  1  2  1  0  0  0  0
  2  3  2  0  0  0  0
  2  7  1  0  0  0  0
  3  8  1  0  0  0  0
  4  9  1  0  0  0  0
  4  3  1  0  0  0  0
  5  4  2  0  0  0  0
  6  5  1  0  0  0  0
  6  1  2  0  0  0  0
 10  5  1  0  0  0  0
 11 10  1  0  0  0  0
 12 13  1  0  0  0  0
 12 11  1  0  0  0  0
 13 14  1  0  0  0  0
 14 10  1  0  0  0  0
 14 15  1  0  0  0  0
 16 21  2  0  0  0  0
 16 17  1  0  0  0  0
 17 18  2  0  0  0  0
 18 19  1  0  0  0  0
 18 24  1  0  0  0  0
 20  1  1  0  0  0  0
 20 19  2  0  0  0  0
 21 20  1  0  0  0  0
 22 16  1  0  0  0  0
 23 17  1  0  0  0  0
M  END
>  <minimizedAffinity>
-4.72586823

$$$$

 OpenBabel03272502533D

 24 26  0  0  0  0  0  0  0  0999 V2000
   35.7920   29.3680   34.0340 C   0  0  0  0  0  0  0  0  0  0  0  0
   35.8810   29.6630   32.6870 C   0  0  0  0  0  0  0  0  0  0  0  0
   36.4870   28.8150   31.7850 C   0  0  0  0  0  0  0  0  0  0  0  0
   36.9990   27.6510   32.3040 C   0  0  0  0  0  0  0  0  0  0  0  0
   36.9250   27.3290   33.6500 C   0  0  0  0  0  0  0  0  0  0  0  0
   36.3170   28.2050   34.4860 N   0  0  0  0  0  0  0  0  0  0  0  0
   35.4460   30.6110   32.3630 H   0  0  0  0  0  0  0  0  0  0  0  0
   36.5470   29.0670   30.7240 H   0  0  0  0  0  0  0  0  0  0  0  0
   37.4850   26.9450   31.6570 H   0  0  0  0  0  0  0  0  0  0  0  0
   37.4700   26.1140   34.1400 N   0  0  0  0  0  0  0  0  0  0  0  0
   37.7230   25.8170   35.5360 C   0  0  0  0  0  2  0  0  0  0  0  0
   38.8060   24.7650   35.4490 C   0  0  0  0  0  2  0  0  0  0  0  0
   38.2790   23.9000   34.2970 C   0  0  0  0  0  2  0  0  0  0  0  0
   37.8560   24.9830   33.3180 C   0  0  0  0  0  3  0  0  0  0  0  0
   37.0460   24.6460   32.6380 H   0  0  0  0  0  0  0  0  0  0  0  0
   35.3100   31.9850   36.5300 C   0  0  0  0  0  0  0  0  0  0  0  0
   33.9220   32.0310   36.6890 C   0  0  0  0  0  0  0  0  0  0  0  0
   33.1600   31.1450   35.9220 C   0  0  0  0  0  0  0  0  0  0  0  0
   33.8170   30.3040   35.0780 N   0  0  0  0  0  0  0  0  0  0  0  0
   35.1440   30.2920   34.9550 C   0  0  0  0  0  0  0  0  0  0  0  0
   35.9090   31.1350   35.6810 N   0  0  0  0  0  0  0  0  0  0  0  0
   36.0280   32.6230   37.0680 H   0  0  0  0  0  0  0  0  0  0  0  0
   33.5340   32.7500   37.3980 H   0  0  0  0  0  0  0  0  0  0  0  0
   32.1060   31.1790   36.0440 H   0  0  0  0  0  0  0  0  0  0  0  0
  1  6  1  0  0  0  0
  1 20  1  0  0  0  0
  2  1  2  0  0  0  0
  3  4  2  0  0  0  0
  3  2  1  0  0  0  0
  4  5  1  0  0  0  0
  5 10  1  0  0  0  0
  5  6  2  0  0  0  0
  7  2  1  0  0  0  0
  8  3  1  0  0  0  0
  9  4  1  0  0  0  0
 10 11  1  0  0  0  0
 12 11  1  0  0  0  0
 13 12  1  0  0  0  0
 14 10  1  0  0  0  0
 14 13  1  0  0  0  0
 15 14  1  0  0  0  0
 16 17  1  0  0  0  0
 16 22  1  0  0  0  0
 17 23  1  0  0  0  0
 18 24  1  0  0  0  0
 18 17  2  0  0  0  0
 19 18  1  0  0  0  0
 20 19  2  0  0  0  0
 20 21  1  0  0  0  0
 21 16  2  0  0  0  0
M  END
>  <minimizedAffinity>
-4.67480373

$$$$

 OpenBabel03272502533D

 24 26  0  0  0  0  0  0  0  0999 V2000
   38.1660   23.0120   34.8560 C   0  0  0  0  0  0  0  0  0  0  0  0
   38.7240   23.8110   33.8760 C   0  0  0  0  0  0  0  0  0  0  0  0
   38.4310   23.6520   32.5390 C   0  0  0  0  0  0  0  0  0  0  0  0
   37.5460   22.6470   32.2320 C   0  0  0  0  0  0  0  0  0  0  0  0
   36.9710   21.8300   33.1930 C   0  0  0  0  0  0  0  0  0  0  0  0
   37.3000   22.0380   34.4910 N   0  0  0  0  0  0  0  0  0  0  0  0
   39.4180   24.5850   34.2110 H   0  0  0  0  0  0  0  0  0  0  0  0
   38.8830   24.2950   31.7800 H   0  0  0  0  0  0  0  0  0  0  0  0
   37.2740   22.4680   31.2090 H   0  0  0  0  0  0  0  0  0  0  0  0
   36.0610   20.8040   32.8270 N   0  0  0  0  0  0  0  0  0  0  0  0
   35.6460   19.7130   33.6870 C   0  0  0  0  0  2  0  0  0  0  0  0
   35.2320   18.6570   32.6870 C   0  0  0  0  0  2  0  0  0  0  0  0
   34.4640   19.5070   31.6670 C   0  0  0  0  0  2  0  0  0  0  0  0
   35.4070   20.6910   31.5370 C   0  0  0  0  0  3  0  0  0  0  0  0
   34.8810   21.6200   31.2370 H   0  0  0  0  0  0  0  0  0  0  0  0
   39.9320   22.8300   38.0430 C   0  0  0  0  0  0  0  0  0  0  0  0
   39.1340   23.5910   38.9000 C   0  0  0  0  0  0  0  0  0  0  0  0
   37.9790   24.1650   38.3600 C   0  0  0  0  0  0  0  0  0  0  0  0
   37.7140   23.9460   37.0440 N   0  0  0  0  0  0  0  0  0  0  0  0
   38.5020   23.2130   36.2580 C   0  0  0  0  0  0  0  0  0  0  0  0
   39.6240   22.6440   36.7490 N   0  0  0  0  0  0  0  0  0  0  0  0
   40.8650   22.3220   38.3330 H   0  0  0  0  0  0  0  0  0  0  0  0
   39.4660   23.6820   39.9260 H   0  0  0  0  0  0  0  0  0  0  0  0
   37.3730   24.7430   39.0120 H   0  0  0  0  0  0  0  0  0  0  0  0
  1 20  1  0  0  0  0
  2  7  1  0  0  0  0
  2  1  2  0  0  0  0
  3  2  1  0  0  0  0
  4  3  2  0  0  0  0
  4  5  1  0  0  0  0
  5  6  2  0  0  0  0
  6  1  1  0  0  0  0
  8  3  1  0  0  0  0
  9  4  1  0  0  0  0
 10  5  1  0  0  0  0
 10 11  1  0  0  0  0
 12 11  1  0  0  0  0
 13 12  1  0  0  0  0
 14 13  1  0  0  0  0
 14 10  1  0  0  0  0
 15 14  1  0  0  0  0
 16 22  1  0  0  0  0
 16 17  1  0  0  0  0
 17 23  1  0  0  0  0
 18 17  2  0  0  0  0
 18 24  1  0  0  0  0
 19 18  1  0  0  0  0
 20 21  1  0  0  0  0
 20 19  2  0  0  0  0
 21 16  2  0  0  0  0
M  END
>  <minimizedAffinity>
-4.58413982

$$$$

 OpenBabel03272502533D

 24 26  0  0  0  0  0  0  0  0999 V2000
   37.1500   25.1280   31.7610 C   0  0  0  0  0  0  0  0  0  0  0  0
   38.1530   25.1480   30.8110 C   0  0  0  0  0  0  0  0  0  0  0  0
   38.5650   24.0110   30.1490 C   0  0  0  0  0  0  0  0  0  0  0  0
   37.9160   22.8500   30.4870 C   0  0  0  0  0  0  0  0  0  0  0  0
   36.9060   22.7990   31.4360 C   0  0  0  0  0  0  0  0  0  0  0  0
   36.5470   23.9510   32.0520 N   0  0  0  0  0  0  0  0  0  0  0  0
   38.6140   26.1170   30.6050 H   0  0  0  0  0  0  0  0  0  0  0  0
   39.3610   24.0490   29.4010 H   0  0  0  0  0  0  0  0  0  0  0  0
   38.1870   21.9270   30.0090 H   0  0  0  0  0  0  0  0  0  0  0  0
   36.2640   21.5730   31.7520 N   0  0  0  0  0  0  0  0  0  0  0  0
   35.4330   21.3450   32.9170 C   0  0  0  0  0  2  0  0  0  0  0  0
   35.5370   19.8460   33.0960 C   0  0  0  0  0  2  0  0  0  0  0  0
   35.4170   19.3710   31.6420 C   0  0  0  0  0  2  0  0  0  0  0  0
   36.3420   20.3620   30.9570 C   0  0  0  0  0  3  0  0  0  0  0  0
   36.0740   20.5260   29.8930 H   0  0  0  0  0  0  0  0  0  0  0  0
   35.6090   28.3720   32.4010 C   0  0  0  0  0  0  0  0  0  0  0  0
   35.9820   28.6550   33.7180 C   0  0  0  0  0  0  0  0  0  0  0  0
   36.7730   27.7080   34.3760 C   0  0  0  0  0  0  0  0  0  0  0  0
   37.1220   26.5840   33.6960 N   0  0  0  0  0  0  0  0  0  0  0  0
   36.7440   26.3510   32.4390 C   0  0  0  0  0  0  0  0  0  0  0  0
   35.9810   27.2450   31.7740 N   0  0  0  0  0  0  0  0  0  0  0  0
   34.9900   29.0260   31.7660 H   0  0  0  0  0  0  0  0  0  0  0  0
   35.6330   29.5900   34.1350 H   0  0  0  0  0  0  0  0  0  0  0  0
   37.0570   27.9240   35.3770 H   0  0  0  0  0  0  0  0  0  0  0  0
  1  6  1  0  0  0  0
  1 20  1  0  0  0  0
  2  1  2  0  0  0  0
  3  4  2  0  0  0  0
  3  2  1  0  0  0  0
  4  5  1  0  0  0  0
  5 10  1  0  0  0  0
  5  6  2  0  0  0  0
  7  2  1  0  0  0  0
  8  3  1  0  0  0  0
  9  4  1  0  0  0  0
 10 11  1  0  0  0  0
 11 12  1  0  0  0  0
 13 12  1  0  0  0  0
 14 13  1  0  0  0  0
 14 10  1  0  0  0  0
 15 14  1  0  0  0  0
 16 17  1  0  0  0  0
 17 23  1  0  0  0  0
 17 18  2  0  0  0  0
 18 24  1  0  0  0  0
 19 18  1  0  0  0  0
 20 19  2  0  0  0  0
 21 16  2  0  0  0  0
 21 20  1  0  0  0  0
 22 16  1  0  0  0  0
M  END
>  <minimizedAffinity>
-4.5264492

$$$$

 OpenBabel03272502533D

 24 26  0  0  0  0  0  0  0  0999 V2000
   39.6540   23.1810   36.1390 C   0  0  0  0  0  0  0  0  0  0  0  0
   39.0000   23.5120   37.3100 C   0  0  0  0  0  0  0  0  0  0  0  0
   37.6840   23.1730   37.5410 C   0  0  0  0  0  0  0  0  0  0  0  0
   37.0560   22.4820   36.5340 C   0  0  0  0  0  0  0  0  0  0  0  0
   37.6860   22.1370   35.3490 C   0  0  0  0  0  0  0  0  0  0  0  0
   38.9800   22.5000   35.1830 N   0  0  0  0  0  0  0  0  0  0  0  0
   39.5780   24.0610   38.0560 H   0  0  0  0  0  0  0  0  0  0  0  0
   37.1860   23.4440   38.4750 H   0  0  0  0  0  0  0  0  0  0  0  0
   36.0290   22.1870   36.6490 H   0  0  0  0  0  0  0  0  0  0  0  0
   36.9940   21.4230   34.3370 N   0  0  0  0  0  0  0  0  0  0  0  0
   37.4380   21.2810   32.9650 C   0  0  0  0  0  2  0  0  0  0  0  0
   36.1410   21.0180   32.2330 C   0  0  0  0  0  2  0  0  0  0  0  0
   35.4580   20.0390   33.1950 C   0  0  0  0  0  2  0  0  0  0  0  0
   35.7350   20.7250   34.5220 C   0  0  0  0  0  3  0  0  0  0  0  0
   35.7580   20.0110   35.3710 H   0  0  0  0  0  0  0  0  0  0  0  0
   42.6200   24.8600   34.8370 C   0  0  0  0  0  0  0  0  0  0  0  0
   43.6670   24.2670   35.5480 C   0  0  0  0  0  0  0  0  0  0  0  0
   43.3310   23.2810   36.4800 C   0  0  0  0  0  0  0  0  0  0  0  0
   42.0160   22.9680   36.6320 N   0  0  0  0  0  0  0  0  0  0  0  0
   41.0460   23.5580   35.9340 C   0  0  0  0  0  0  0  0  0  0  0  0
   41.3370   24.5140   35.0260 N   0  0  0  0  0  0  0  0  0  0  0  0
   42.7400   25.6470   34.0760 H   0  0  0  0  0  0  0  0  0  0  0  0
   44.6670   24.6140   35.3250 H   0  0  0  0  0  0  0  0  0  0  0  0
   44.1270   22.8300   37.0190 H   0  0  0  0  0  0  0  0  0  0  0  0
  1  2  1  0  0  0  0
  2  3  2  0  0  0  0
  2  7  1  0  0  0  0
  3  8  1  0  0  0  0
  4  9  1  0  0  0  0
  4  3  1  0  0  0  0
  5  4  2  0  0  0  0
  6  5  1  0  0  0  0
  6  1  2  0  0  0  0
 10 14  1  0  0  0  0
 10  5  1  0  0  0  0
 11 10  1  0  0  0  0
 12 11  1  0  0  0  0
 12 13  1  0  0  0  0
 13 14  1  0  0  0  0
 14 15  1  0  0  0  0
 16 21  2  0  0  0  0
 16 17  1  0  0  0  0
 17 18  2  0  0  0  0
 18 19  1  0  0  0  0
 18 24  1  0  0  0  0
 20  1  1  0  0  0  0
 20 19  2  0  0  0  0
 21 20  1  0  0  0  0
 22 16  1  0  0  0  0
 23 17  1  0  0  0  0
M  END
>  <minimizedAffinity>
-4.50068331

$$$$
