
 OpenBabel03272509393D

 32 34  0  0  1  0  0  0  0  0999 V2000
   36.9120   30.9010   48.9440 C   0  0  0  0  0  0  0  0  0  0  0  0
   36.7580   31.7740   50.0240 C   0  0  0  0  0  0  0  0  0  0  0  0
   37.4230   32.9900   50.0850 C   0  0  0  0  0  0  0  0  0  0  0  0
   38.2780   33.3760   49.0500 C   0  0  0  0  0  0  0  0  0  0  0  0
   38.4160   32.5060   47.9980 C   0  0  0  0  0  0  0  0  0  0  0  0
   37.7410   31.2990   47.9620 C   0  0  0  0  0  0  0  0  0  0  0  0
   36.0900   31.4780   50.8370 H   0  0  0  0  0  0  0  0  0  0  0  0
   37.2760   33.6410   50.9430 H   0  0  0  0  0  0  0  0  0  0  0  0
   38.7860   34.3270   49.1220 H   0  0  0  0  0  0  0  0  0  0  0  0
   39.0930   32.8640   47.2320 H   0  0  0  0  0  0  0  0  0  0  0  0
   36.1760   29.6430   48.9570 C   0  0  2  0  0  0  0  0  0  0  0  0
   36.6670   28.7630   49.7570 O   0  0  0  0  0  0  0  0  0  0  0  0
   33.3950   30.3090   46.7390 C   0  0  0  0  0  0  0  0  0  0  0  0
   32.7680   29.0830   46.5840 C   0  0  0  0  0  0  0  0  0  0  0  0
   33.3080   28.0140   47.2520 C   0  0  0  0  0  0  0  0  0  0  0  0
   34.4150   28.1790   48.0290 N   0  0  0  0  0  0  0  0  0  0  0  0
   34.9970   29.3590   48.1630 C   0  0  0  0  0  0  0  0  0  0  0  0
   34.4670   30.4230   47.5040 N   0  0  0  0  0  0  0  0  0  0  0  0
   33.0230   31.2170   46.2360 H   0  0  0  0  0  0  0  0  0  0  0  0
   31.9080   29.0830   45.9470 H   0  0  0  0  0  0  0  0  0  0  0  0
   32.8230   27.0530   47.1340 H   0  0  0  0  0  0  0  0  0  0  0  0
   38.0040   30.5090   46.7810 C   0  0  0  0  0  0  0  0  0  0  0  0
   37.5270   30.6950   45.5560 C   0  0  0  0  0  0  0  0  0  0  0  0
   37.7230   30.0080   44.2900 C   0  0  0  0  0  0  0  0  0  0  0  0
   37.1580   29.0340   44.3040 H   0  0  0  0  0  0  0  0  0  0  0  0
   37.4500   30.6210   43.4130 H   0  0  0  0  0  0  0  0  0  0  0  0
   39.1290   29.6080   44.0760 N   0  0  0  0  0  0  0  0  0  0  0  0
   39.0880   28.4080   43.2270 C   0  0  0  0  0  0  0  0  0  0  0  0
   40.2800   28.4680   42.3340 C   0  0  0  0  0  0  0  0  0  0  0  0
   40.8390   29.8660   42.4930 C   0  0  0  0  0  0  0  0  0  0  0  0
   39.7140   30.5990   43.1720 C   0  0  0  0  0  0  0  0  0  0  0  0
   38.9290   30.8980   42.4170 H   0  0  0  0  0  0  0  0  0  0  0  0
  1 11  1  0  0  0  0
  1  2  1  0  0  0  0
  2  3  2  0  0  0  0
  2  7  1  0  0  0  0
  3  8  1  0  0  0  0
  4  9  1  0  0  0  0
  4  3  1  0  0  0  0
  5  4  2  0  0  0  0
  6  5  1  0  0  0  0
  6  1  2  0  0  0  0
 10  5  1  0  0  0  0
 11 12  1  6  0  0  0
 13 18  1  0  0  0  0
 14 13  2  0  0  0  0
 14 15  1  0  0  0  0
 15 16  2  0  0  0  0
 16 17  1  0  0  0  0
 17 11  1  0  0  0  0
 18 17  2  0  0  0  0
 19 13  1  0  0  0  0
 20 14  1  0  0  0  0
 21 15  1  0  0  0  0
 22  6  1  0  0  0  0
 23 22  2  0  0  0  0
 24 25  1  0  0  0  0
 24 23  1  0  0  0  0
 26 24  1  0  0  0  0
 27 24  1  0  0  0  0
 28 27  1  0  0  0  0
 29 30  1  0  0  0  0
 29 28  1  0  0  0  0
 30 31  1  0  0  0  0
 31 27  1  0  0  0  0
 32 31  1  0  0  0  0
M  END
>  <minimizedAffinity>
-5.70677948

>  <minimizedRMSD>
1.34900105

$$$$
