
 OpenBabel03272503073D

 42 46  0  0  0  0  0  0  0  0999 V2000
   39.2630   31.9090   44.9280 C   0  0  0  0  0  0  0  0  0  0  0  0
   38.1920   32.5560   45.0500 O   0  0  0  0  0  0  0  0  0  0  0  0
   39.9610   31.6430   46.1540 N   0  0  0  0  0  0  0  0  0  0  0  0
   40.8460   31.1180   46.0990 H   0  0  0  0  0  0  0  0  0  0  0  0
   39.1600   32.1820   42.5570 C   0  0  0  0  0  0  0  0  0  0  0  0
   39.7080   31.4910   43.6260 C   0  0  0  0  0  0  0  0  0  0  0  0
   40.6190   30.4690   43.4610 C   0  0  0  0  0  0  0  0  0  0  0  0
   41.0050   30.1160   42.1800 C   0  0  0  0  0  0  0  0  0  0  0  0
   41.8550   29.1850   41.7190 N   0  0  0  0  0  0  0  0  0  0  0  0
   41.8540   29.2730   40.3920 C   0  0  0  0  0  0  0  0  0  0  0  0
   41.0200   30.2410   40.0160 N   0  0  0  0  0  0  0  0  0  0  0  0
   40.4640   30.7990   41.1210 C   0  0  0  0  0  0  0  0  0  0  0  0
   39.5460   31.8300   41.2580 C   0  0  0  0  0  0  0  0  0  0  0  0
   38.4440   32.9880   42.6360 H   0  0  0  0  0  0  0  0  0  0  0  0
   41.0240   29.9540   44.3220 H   0  0  0  0  0  0  0  0  0  0  0  0
   42.4240   28.5010   42.2970 H   0  0  0  0  0  0  0  0  0  0  0  0
   42.4390   28.6530   39.7260 H   0  0  0  0  0  0  0  0  0  0  0  0
   39.0330   32.4850   40.1030 N   0  0  0  0  0  0  0  0  0  0  0  0
   38.0930   33.5480   39.9430 C   0  0  0  0  0  0  0  0  0  0  0  0
   38.3990   34.1670   38.5970 C   0  0  0  0  0  0  0  0  0  0  0  0
   38.9060   33.0110   37.7990 C   0  0  0  0  0  0  0  0  0  0  0  0
   39.5100   32.0490   38.7960 C   0  0  0  0  0  0  0  0  0  0  0  0
   40.6190   32.1430   38.8420 H   0  0  0  0  0  0  0  0  0  0  0  0
   38.1170   30.1470   47.4960 F   0  0  0  0  0  0  0  0  0  0  0  0
   38.3740   31.3880   47.9800 C   0  0  0  0  0  0  0  0  0  0  0  0
   37.7160   31.8300   49.0940 C   0  0  0  0  0  0  0  0  0  0  0  0
   38.0210   33.0840   49.5260 C   0  0  0  0  0  0  0  0  0  0  0  0
   38.9380   33.9020   48.9060 C   0  0  0  0  0  0  0  0  0  0  0  0
   39.5840   33.4230   47.7820 C   0  0  0  0  0  0  0  0  0  0  0  0
   39.3040   32.1650   47.3170 C   0  0  0  0  0  0  0  0  0  0  0  0
   37.5040   33.4610   50.4190 H   0  0  0  0  0  0  0  0  0  0  0  0
   39.1650   34.8990   49.2680 H   0  0  0  0  0  0  0  0  0  0  0  0
   40.3270   34.0050   47.2280 H   0  0  0  0  0  0  0  0  0  0  0  0
   36.0870   29.3630   51.4540 C   0  0  0  0  0  0  0  0  0  0  0  0
   37.0370   30.2130   50.8650 C   0  0  0  0  0  0  0  0  0  0  0  0
   36.7430   30.9330   49.7320 C   0  0  0  0  0  0  0  0  0  0  0  0
   35.4860   30.7830   49.2080 N   0  0  0  0  0  0  0  0  0  0  0  0
   34.5820   29.9710   49.7720 C   0  0  0  0  0  0  0  0  0  0  0  0
   34.8680   29.2770   50.8660 N   0  0  0  0  0  0  0  0  0  0  0  0
   36.3160   28.7950   52.3450 H   0  0  0  0  0  0  0  0  0  0  0  0
   38.0160   30.3100   51.3020 H   0  0  0  0  0  0  0  0  0  0  0  0
   33.6520   29.9770   49.2280 H   0  0  0  0  0  0  0  0  0  0  0  0
  1  2  2  0  0  0  0
  1  3  1  0  0  0  0
  3 30  1  0  0  0  0
  4  3  1  0  0  0  0
  5 14  1  0  0  0  0
  5  6  1  0  0  0  0
  6  1  1  0  0  0  0
  7  6  2  0  0  0  0
  7 15  1  0  0  0  0
  8  7  1  0  0  0  0
  9  8  1  0  0  0  0
  9 16  1  0  0  0  0
 10  9  1  0  0  0  0
 11 10  2  0  0  0  0
 11 12  1  0  0  0  0
 12 13  1  0  0  0  0
 12  8  2  0  0  0  0
 13  5  2  0  0  0  0
 17 10  1  0  0  0  0
 18 13  1  0  0  0  0
 19 18  1  0  0  0  0
 20 19  1  0  0  0  0
 21 20  1  0  0  0  0
 21 22  1  0  0  0  0
 22 23  1  0  0  0  0
 22 18  1  0  0  0  0
 24 25  1  0  0  0  0
 25 26  1  0  0  0  0
 26 27  2  0  0  0  0
 26 36  1  0  0  0  0
 27 31  1  0  0  0  0
 28 32  1  0  0  0  0
 28 27  1  0  0  0  0
 29 28  2  0  0  0  0
 30 29  1  0  0  0  0
 30 25  2  0  0  0  0
 33 29  1  0  0  0  0
 34 40  1  0  0  0  0
 35 41  1  0  0  0  0
 35 34  2  0  0  0  0
 36 35  1  0  0  0  0
 37 36  2  0  0  0  0
 37 38  1  0  0  0  0
 38 39  2  0  0  0  0
 39 34  1  0  0  0  0
 42 38  1  0  0  0  0
M  END
>  <minimizedAffinity>
-7.43438482

>  <minimizedRMSD>
0.0614584796

$$$$
