
 OpenBabel03272510333D

 25 27  0  0  0  0  0  0  0  0999 V2000
   36.0060   30.1830   48.4330 C   0  0  0  0  0  0  0  0  0  0  0  0
   35.0360   30.1620   47.4600 C   0  0  0  0  0  0  0  0  0  0  0  0
   33.9550   29.2960   47.5430 C   0  0  0  0  0  0  0  0  0  0  0  0
   33.8870   28.4500   48.6460 C   0  0  0  0  0  0  0  0  0  0  0  0
   34.8460   28.4520   49.6330 C   0  0  0  0  0  0  0  0  0  0  0  0
   35.9080   29.3280   49.5160 C   0  0  0  0  0  0  0  0  0  0  0  0
   35.0560   30.8060   46.5890 H   0  0  0  0  0  0  0  0  0  0  0  0
   33.2040   29.2830   46.7860 H   0  0  0  0  0  0  0  0  0  0  0  0
   33.0480   27.7580   48.7380 H   0  0  0  0  0  0  0  0  0  0  0  0
   34.8100   27.7990   50.4990 H   0  0  0  0  0  0  0  0  0  0  0  0
   38.1180   33.0810   49.0010 C   0  0  0  0  0  0  0  0  0  0  0  0
   39.1150   32.9990   48.0310 C   0  0  0  0  0  0  0  0  0  0  0  0
   39.0400   31.8990   47.1600 C   0  0  0  0  0  0  0  0  0  0  0  0
   38.0380   30.9890   47.2870 N   0  0  0  0  0  0  0  0  0  0  0  0
   37.0960   31.1260   48.2550 C   0  0  0  0  0  0  0  0  0  0  0  0
   37.1360   32.1810   49.1200 N   0  0  0  0  0  0  0  0  0  0  0  0
   38.1010   33.9000   49.7140 H   0  0  0  0  0  0  0  0  0  0  0  0
   39.8780   33.7410   47.9740 H   0  0  0  0  0  0  0  0  0  0  0  0
   39.8010   31.8030   46.3910 H   0  0  0  0  0  0  0  0  0  0  0  0
   36.9450   29.3970   50.4900 N   0  0  0  0  0  0  0  0  0  0  0  0
   38.2290   28.6890   50.4680 C   0  0  0  0  0  2  0  0  0  0  0  0
   38.1700   28.0170   51.8430 C   0  0  0  0  0  2  0  0  0  0  0  0
   37.8340   29.2360   52.6980 C   0  0  0  0  0  2  0  0  0  0  0  0
   37.1030   30.1140   51.7310 C   0  0  0  0  0  3  0  0  0  0  0  0
   37.7440   30.9900   51.5090 H   0  0  0  0  0  0  0  0  0  0  0  0
  1  6  1  0  0  0  0
  2  3  1  0  0  0  0
  2  1  2  0  0  0  0
  3  4  2  0  0  0  0
  4  9  1  0  0  0  0
  4  5  1  0  0  0  0
  5 10  1  0  0  0  0
  6  5  2  0  0  0  0
  6 20  1  0  0  0  0
  7  2  1  0  0  0  0
  8  3  1  0  0  0  0
 11 16  1  0  0  0  0
 11 17  1  0  0  0  0
 12 11  2  0  0  0  0
 13 14  2  0  0  0  0
 13 12  1  0  0  0  0
 14 15  1  0  0  0  0
 15  1  1  0  0  0  0
 15 16  2  0  0  0  0
 18 12  1  0  0  0  0
 19 13  1  0  0  0  0
 20 24  1  0  0  0  0
 21 20  1  0  0  0  0
 21 22  1  0  0  0  0
 22 23  1  0  0  0  0
 24 23  1  0  0  0  0
 25 24  1  0  0  0  0
M  END
>  <minimizedAffinity>
-3.62872267

>  <minimizedRMSD>
0.629817605

$$$$
