
 OpenBabel03272510323D

 25 27  0  0  0  0  0  0  0  0999 V2000
   36.0080   30.1860   48.4340 C   0  0  0  0  0  0  0  0  0  0  0  0
   35.0390   30.1670   47.4610 C   0  0  0  0  0  0  0  0  0  0  0  0
   33.9580   29.2990   47.5420 C   0  0  0  0  0  0  0  0  0  0  0  0
   33.8900   28.4510   48.6420 C   0  0  0  0  0  0  0  0  0  0  0  0
   34.8490   28.4520   49.6300 C   0  0  0  0  0  0  0  0  0  0  0  0
   35.9110   29.3290   49.5160 C   0  0  0  0  0  0  0  0  0  0  0  0
   35.0590   30.8120   46.5910 H   0  0  0  0  0  0  0  0  0  0  0  0
   33.2080   29.2870   46.7840 H   0  0  0  0  0  0  0  0  0  0  0  0
   33.0520   27.7580   48.7330 H   0  0  0  0  0  0  0  0  0  0  0  0
   34.8130   27.7980   50.4960 H   0  0  0  0  0  0  0  0  0  0  0  0
   38.1170   33.0840   49.0090 C   0  0  0  0  0  0  0  0  0  0  0  0
   39.1150   33.0050   48.0390 C   0  0  0  0  0  0  0  0  0  0  0  0
   39.0420   31.9070   47.1670 C   0  0  0  0  0  0  0  0  0  0  0  0
   38.0410   30.9950   47.2920 N   0  0  0  0  0  0  0  0  0  0  0  0
   37.0980   31.1310   48.2590 C   0  0  0  0  0  0  0  0  0  0  0  0
   37.1360   32.1840   49.1260 N   0  0  0  0  0  0  0  0  0  0  0  0
   38.1000   33.9020   49.7230 H   0  0  0  0  0  0  0  0  0  0  0  0
   39.8780   33.7480   47.9850 H   0  0  0  0  0  0  0  0  0  0  0  0
   39.8030   31.8130   46.3990 H   0  0  0  0  0  0  0  0  0  0  0  0
   36.9470   29.3970   50.4900 N   0  0  0  0  0  0  0  0  0  0  0  0
   38.2310   28.6890   50.4680 C   0  0  0  0  0  2  0  0  0  0  0  0
   38.1700   28.0160   51.8430 C   0  0  0  0  0  2  0  0  0  0  0  0
   37.8340   29.2340   52.6990 C   0  0  0  0  0  2  0  0  0  0  0  0
   37.1040   30.1140   51.7310 C   0  0  0  0  0  3  0  0  0  0  0  0
   37.7450   30.9890   51.5110 H   0  0  0  0  0  0  0  0  0  0  0  0
  1  6  1  0  0  0  0
  2  3  1  0  0  0  0
  2  1  2  0  0  0  0
  3  4  2  0  0  0  0
  4  9  1  0  0  0  0
  4  5  1  0  0  0  0
  5 10  1  0  0  0  0
  6  5  2  0  0  0  0
  6 20  1  0  0  0  0
  7  2  1  0  0  0  0
  8  3  1  0  0  0  0
 11 16  1  0  0  0  0
 11 17  1  0  0  0  0
 12 11  2  0  0  0  0
 13 14  2  0  0  0  0
 13 12  1  0  0  0  0
 14 15  1  0  0  0  0
 15  1  1  0  0  0  0
 15 16  2  0  0  0  0
 18 12  1  0  0  0  0
 19 13  1  0  0  0  0
 20 24  1  0  0  0  0
 21 20  1  0  0  0  0
 21 22  1  0  0  0  0
 22 23  1  0  0  0  0
 24 23  1  0  0  0  0
 25 24  1  0  0  0  0
M  END
>  <minimizedAffinity>
-3.62906289

>  <minimizedRMSD>
0.531889379

$$$$
