
 OpenBabel03272507543D

 20 21  0  0  0  0  0  0  0  0999 V2000
   35.3700   29.1580   50.4630 C   0  0  0  0  0  0  0  0  0  0  0  0
   36.2490   30.0370   49.7950 C   0  0  0  0  0  0  0  0  0  0  0  0
   36.1670   30.1380   48.4120 C   0  0  0  0  0  0  0  0  0  0  0  0
   35.2320   29.3760   47.7590 N   0  0  0  0  0  0  0  0  0  0  0  0
   34.4040   28.5400   48.4420 C   0  0  0  0  0  0  0  0  0  0  0  0
   34.4650   28.4240   49.7920 N   0  0  0  0  0  0  0  0  0  0  0  0
   33.5180   27.8510   47.5640 N   0  0  0  0  0  0  0  0  0  0  0  0
   35.4030   29.0500   51.5380 H   0  0  0  0  0  0  0  0  0  0  0  0
   32.5360   28.1380   47.4230 H   0  0  0  0  0  0  0  0  0  0  0  0
   33.8340   27.0180   47.0190 H   0  0  0  0  0  0  0  0  0  0  0  0
   37.0410   31.0190   47.7040 N   0  0  0  0  0  0  0  0  0  0  0  0
   37.9400   32.1400   48.0270 C   0  0  0  0  0  0  0  0  0  0  0  0
   39.1840   31.8900   47.2020 C   0  0  0  0  0  0  0  0  0  0  0  0
   38.7100   31.0690   46.0200 C   0  0  0  0  0  0  0  0  0  0  0  0
   37.2140   30.9290   46.2660 C   0  0  0  0  0  0  0  0  0  0  0  0
   36.8510   29.9670   45.8570 H   0  0  0  0  0  0  0  0  0  0  0  0
   37.2220   30.8250   50.5970 C   0  0  0  0  0  0  0  0  0  0  0  0
   38.5120   30.6770   50.1440 F   0  0  0  0  0  0  0  0  0  0  0  0
   36.8700   32.1640   50.4860 F   0  0  0  0  0  0  0  0  0  0  0  0
   37.1970   30.5050   51.9410 F   0  0  0  0  0  0  0  0  0  0  0  0
  1  8  1  0  0  0  0
  2  1  1  0  0  0  0
  2 17  1  0  0  0  0
  3  2  2  0  0  0  0
  4  3  1  0  0  0  0
  4  5  2  0  0  0  0
  5  6  1  0  0  0  0
  6  1  2  0  0  0  0
  7  5  1  0  0  0  0
  9  7  1  0  0  0  0
 10  7  1  0  0  0  0
 11 12  1  0  0  0  0
 11  3  1  0  0  0  0
 13 12  1  0  0  0  0
 14 15  1  0  0  0  0
 14 13  1  0  0  0  0
 15 11  1  0  0  0  0
 16 15  1  0  0  0  0
 17 20  1  0  0  0  0
 18 17  1  0  0  0  0
 19 17  1  0  0  0  0
M  END
>  <minimizedAffinity>
-5.92382288

>  <minimizedRMSD>
0.643777192

$$$$
