
 OpenBabel03272508183D

 22 24  0  0  0  0  0  0  0  0999 V2000
   39.2010   24.8330   33.9870 C   0  0  0  0  0  0  0  0  0  0  0  0
   38.5530   23.8120   34.6910 C   0  0  0  0  0  0  0  0  0  0  0  0
   37.8390   22.9020   33.9350 C   0  0  0  0  0  0  0  0  0  0  0  0
   37.8060   23.0440   32.5740 N   0  0  0  0  0  0  0  0  0  0  0  0
   38.4450   24.0440   31.9270 C   0  0  0  0  0  0  0  0  0  0  0  0
   39.1430   24.9400   32.6350 N   0  0  0  0  0  0  0  0  0  0  0  0
   37.2810   22.0520   34.3360 H   0  0  0  0  0  0  0  0  0  0  0  0
   38.3920   24.1180   30.8500 H   0  0  0  0  0  0  0  0  0  0  0  0
   40.0500   25.7690   34.8240 C   0  0  0  0  0  0  0  0  0  0  0  0
   40.4980   27.0310   34.2870 C   0  0  0  0  0  0  0  0  0  0  0  0
   39.2630   27.0580   35.1520 C   0  0  0  0  0  0  0  0  0  0  0  0
   40.4210   25.3680   35.8000 H   0  0  0  0  0  0  0  0  0  0  0  0
   40.2900   27.2400   33.2030 H   0  0  0  0  0  0  0  0  0  0  0  0
   41.4320   27.5230   34.6100 H   0  0  0  0  0  0  0  0  0  0  0  0
   38.2880   27.2180   34.6770 H   0  0  0  0  0  0  0  0  0  0  0  0
   39.4170   27.5560   36.1180 H   0  0  0  0  0  0  0  0  0  0  0  0
   38.5320   23.6040   36.0750 N   0  0  0  0  0  0  0  0  0  0  0  0
   37.7890   24.2040   37.1700 C   0  0  0  0  0  2  0  0  0  0  0  0
   38.1220   23.3700   38.3910 C   0  0  0  0  0  2  0  0  0  0  0  0
   39.5810   23.0330   38.0500 C   0  0  0  0  0  2  0  0  0  0  0  0
   39.4110   22.5860   36.6170 C   0  0  0  0  0  3  0  0  0  0  0  0
   38.8850   21.6090   36.6400 H   0  0  0  0  0  0  0  0  0  0  0  0
  1  2  1  0  0  0  0
  1  9  1  0  0  0  0
  2 17  1  0  0  0  0
  3  7  1  0  0  0  0
  3  2  2  0  0  0  0
  4  3  1  0  0  0  0
  5  4  2  0  0  0  0
  5  6  1  0  0  0  0
  6  1  2  0  0  0  0
  8  5  1  0  0  0  0
  9 11  1  0  0  0  0
  9 12  1  0  0  0  0
 10 14  1  0  0  0  0
 10  9  1  0  0  0  0
 10 11  1  0  0  0  0
 11 16  1  0  0  0  0
 13 10  1  0  0  0  0
 15 11  1  0  0  0  0
 17 21  1  0  0  0  0
 17 18  1  0  0  0  0
 18 19  1  0  0  0  0
 20 19  1  0  0  0  0
 21 22  1  0  0  0  0
 21 20  1  0  0  0  0
M  END
>  <minimizedAffinity>
-3.98902082

$$$$

 OpenBabel03272508183D

 22 24  0  0  0  0  0  0  0  0999 V2000
   38.1780   24.8430   35.3360 C   0  0  0  0  0  0  0  0  0  0  0  0
   38.1140   23.9470   34.2630 C   0  0  0  0  0  0  0  0  0  0  0  0
   37.9920   22.6100   34.5870 C   0  0  0  0  0  0  0  0  0  0  0  0
   37.9400   22.2420   35.9040 N   0  0  0  0  0  0  0  0  0  0  0  0
   38.0040   23.1360   36.9150 C   0  0  0  0  0  0  0  0  0  0  0  0
   38.1230   24.4390   36.6310 N   0  0  0  0  0  0  0  0  0  0  0  0
   37.9310   21.7910   33.8650 H   0  0  0  0  0  0  0  0  0  0  0  0
   37.9590   22.8010   37.9420 H   0  0  0  0  0  0  0  0  0  0  0  0
   38.2240   26.3110   34.9620 C   0  0  0  0  0  0  0  0  0  0  0  0
   38.5720   27.3080   35.9450 C   0  0  0  0  0  0  0  0  0  0  0  0
   39.6750   26.8370   35.0310 C   0  0  0  0  0  0  0  0  0  0  0  0
   37.8370   26.5800   33.9470 H   0  0  0  0  0  0  0  0  0  0  0  0
   38.6990   26.9700   37.0090 H   0  0  0  0  0  0  0  0  0  0  0  0
   38.2010   28.3470   35.9040 H   0  0  0  0  0  0  0  0  0  0  0  0
   40.4560   26.1830   35.4360 H   0  0  0  0  0  0  0  0  0  0  0  0
   40.0080   27.6020   34.3180 H   0  0  0  0  0  0  0  0  0  0  0  0
   38.1700   24.2420   32.8960 N   0  0  0  0  0  0  0  0  0  0  0  0
   39.2560   24.4940   31.9650 C   0  0  0  0  0  2  0  0  0  0  0  0
   38.6110   24.5570   30.5950 C   0  0  0  0  0  2  0  0  0  0  0  0
   37.2780   25.2050   30.9970 C   0  0  0  0  0  2  0  0  0  0  0  0
   36.9150   24.3300   32.1750 C   0  0  0  0  0  3  0  0  0  0  0  0
   36.6430   23.3340   31.7700 H   0  0  0  0  0  0  0  0  0  0  0  0
  1  6  1  0  0  0  0
  2  3  1  0  0  0  0
  2  1  2  0  0  0  0
  3  4  2  0  0  0  0
  4  5  1  0  0  0  0
  5  8  1  0  0  0  0
  6  5  2  0  0  0  0
  7  3  1  0  0  0  0
  9 11  1  0  0  0  0
  9  1  1  0  0  0  0
  9 10  1  0  0  0  0
 10 13  1  0  0  0  0
 11 15  1  0  0  0  0
 11 10  1  0  0  0  0
 12  9  1  0  0  0  0
 14 10  1  0  0  0  0
 16 11  1  0  0  0  0
 17  2  1  0  0  0  0
 18 17  1  0  0  0  0
 19 20  1  0  0  0  0
 19 18  1  0  0  0  0
 20 21  1  0  0  0  0
 21 17  1  0  0  0  0
 22 21  1  0  0  0  0
M  END
>  <minimizedAffinity>
-3.85176086

$$$$

 OpenBabel03272508183D

 22 24  0  0  0  0  0  0  0  0999 V2000
   37.6460   25.9270   33.8490 C   0  0  0  0  0  0  0  0  0  0  0  0
   36.9970   26.2880   32.6620 C   0  0  0  0  0  0  0  0  0  0  0  0
   36.6820   25.2580   31.7980 C   0  0  0  0  0  0  0  0  0  0  0  0
   37.0100   23.9740   32.1390 N   0  0  0  0  0  0  0  0  0  0  0  0
   37.6360   23.6620   33.2950 C   0  0  0  0  0  0  0  0  0  0  0  0
   37.9550   24.6400   34.1520 N   0  0  0  0  0  0  0  0  0  0  0  0
   36.1780   25.3780   30.8350 H   0  0  0  0  0  0  0  0  0  0  0  0
   37.8760   22.6340   33.5240 H   0  0  0  0  0  0  0  0  0  0  0  0
   37.9050   27.0590   34.8240 C   0  0  0  0  0  0  0  0  0  0  0  0
   38.3550   26.7810   36.1660 C   0  0  0  0  0  0  0  0  0  0  0  0
   39.4120   27.1460   35.1550 C   0  0  0  0  0  0  0  0  0  0  0  0
   37.5920   28.0810   34.4960 H   0  0  0  0  0  0  0  0  0  0  0  0
   38.3990   25.7060   36.4910 H   0  0  0  0  0  0  0  0  0  0  0  0
   38.1320   27.4410   37.0230 H   0  0  0  0  0  0  0  0  0  0  0  0
   40.0820   26.3620   34.7820 H   0  0  0  0  0  0  0  0  0  0  0  0
   39.8700   28.1270   35.3360 H   0  0  0  0  0  0  0  0  0  0  0  0
   36.6370   27.5730   32.2390 N   0  0  0  0  0  0  0  0  0  0  0  0
   35.4930   28.4310   32.4930 C   0  0  0  0  0  2  0  0  0  0  0  0
   35.8400   29.7670   31.8670 C   0  0  0  0  0  2  0  0  0  0  0  0
   36.6370   29.2550   30.6590 C   0  0  0  0  0  2  0  0  0  0  0  0
   37.5490   28.2700   31.3530 C   0  0  0  0  0  3  0  0  0  0  0  0
   38.2740   28.8610   31.9500 H   0  0  0  0  0  0  0  0  0  0  0  0
  1  6  1  0  0  0  0
  1  9  1  0  0  0  0
  2  1  2  0  0  0  0
  3  4  2  0  0  0  0
  3  2  1  0  0  0  0
  4  5  1  0  0  0  0
  5  8  1  0  0  0  0
  5  6  2  0  0  0  0
  7  3  1  0  0  0  0
  9 11  1  0  0  0  0
  9 10  1  0  0  0  0
 10 13  1  0  0  0  0
 10 14  1  0  0  0  0
 11 16  1  0  0  0  0
 11 10  1  0  0  0  0
 12  9  1  0  0  0  0
 15 11  1  0  0  0  0
 17 18  1  0  0  0  0
 17  2  1  0  0  0  0
 19 18  1  0  0  0  0
 20 21  1  0  0  0  0
 20 19  1  0  0  0  0
 21 22  1  0  0  0  0
 21 17  1  0  0  0  0
M  END
>  <minimizedAffinity>
-3.83019018

$$$$

 OpenBabel03272508183D

 22 24  0  0  0  0  0  0  0  0999 V2000
   37.8300   25.3150   34.3260 C   0  0  0  0  0  0  0  0  0  0  0  0
   38.4300   24.0590   34.1860 C   0  0  0  0  0  0  0  0  0  0  0  0
   38.1750   23.3840   33.0080 C   0  0  0  0  0  0  0  0  0  0  0  0
   37.3710   23.9640   32.0650 N   0  0  0  0  0  0  0  0  0  0  0  0
   36.8080   25.1810   32.2340 C   0  0  0  0  0  0  0  0  0  0  0  0
   37.0370   25.8580   33.3660 N   0  0  0  0  0  0  0  0  0  0  0  0
   38.5680   22.3970   32.7510 H   0  0  0  0  0  0  0  0  0  0  0  0
   36.1800   25.6020   31.4620 H   0  0  0  0  0  0  0  0  0  0  0  0
   38.1910   26.0780   35.5850 C   0  0  0  0  0  0  0  0  0  0  0  0
   39.2690   27.0370   35.5780 C   0  0  0  0  0  0  0  0  0  0  0  0
   37.8720   27.5800   35.4120 C   0  0  0  0  0  0  0  0  0  0  0  0
   37.6840   25.7530   36.5280 H   0  0  0  0  0  0  0  0  0  0  0  0
   39.8920   27.1150   34.6460 H   0  0  0  0  0  0  0  0  0  0  0  0
   39.8700   27.2710   36.4730 H   0  0  0  0  0  0  0  0  0  0  0  0
   37.5590   27.9440   34.4270 H   0  0  0  0  0  0  0  0  0  0  0  0
   37.5240   28.1620   36.2750 H   0  0  0  0  0  0  0  0  0  0  0  0
   39.2540   23.3960   35.1040 N   0  0  0  0  0  0  0  0  0  0  0  0
   38.9980   22.6140   36.3010 C   0  0  0  0  0  2  0  0  0  0  0  0
   40.3400   22.0320   36.7000 C   0  0  0  0  0  2  0  0  0  0  0  0
   41.2360   23.2020   36.2690 C   0  0  0  0  0  2  0  0  0  0  0  0
   40.6860   23.4480   34.8840 C   0  0  0  0  0  3  0  0  0  0  0  0
   41.0010   22.5930   34.2500 H   0  0  0  0  0  0  0  0  0  0  0  0
  1  9  1  0  0  0  0
  2  1  1  0  0  0  0
  2 17  1  0  0  0  0
  3  2  2  0  0  0  0
  4  5  2  0  0  0  0
  4  3  1  0  0  0  0
  5  6  1  0  0  0  0
  6  1  2  0  0  0  0
  7  3  1  0  0  0  0
  8  5  1  0  0  0  0
  9 12  1  0  0  0  0
 10  9  1  0  0  0  0
 10 14  1  0  0  0  0
 11 10  1  0  0  0  0
 11  9  1  0  0  0  0
 11 16  1  0  0  0  0
 13 10  1  0  0  0  0
 15 11  1  0  0  0  0
 17 18  1  0  0  0  0
 18 19  1  0  0  0  0
 20 19  1  0  0  0  0
 21 17  1  0  0  0  0
 21 20  1  0  0  0  0
 22 21  1  0  0  0  0
M  END
>  <minimizedAffinity>
-3.81196022

$$$$

 OpenBabel03272508183D

 22 24  0  0  0  0  0  0  0  0999 V2000
   36.9670   27.6520   33.8340 C   0  0  0  0  0  0  0  0  0  0  0  0
   36.6140   27.1740   32.5670 C   0  0  0  0  0  0  0  0  0  0  0  0
   35.5500   27.8020   31.9490 C   0  0  0  0  0  0  0  0  0  0  0  0
   34.9160   28.8310   32.5900 N   0  0  0  0  0  0  0  0  0  0  0  0
   35.2850   29.2670   33.8150 C   0  0  0  0  0  0  0  0  0  0  0  0
   36.3120   28.6770   34.4380 N   0  0  0  0  0  0  0  0  0  0  0  0
   35.1550   27.5450   30.9620 H   0  0  0  0  0  0  0  0  0  0  0  0
   34.7560   30.0840   34.2850 H   0  0  0  0  0  0  0  0  0  0  0  0
   38.1900   27.0110   34.4590 C   0  0  0  0  0  0  0  0  0  0  0  0
   38.5150   27.2470   35.8440 C   0  0  0  0  0  0  0  0  0  0  0  0
   37.7670   25.9770   35.5260 C   0  0  0  0  0  0  0  0  0  0  0  0
   38.8860   26.4800   33.7620 H   0  0  0  0  0  0  0  0  0  0  0  0
   37.8980   28.0000   36.4040 H   0  0  0  0  0  0  0  0  0  0  0  0
   39.5480   27.2190   36.2320 H   0  0  0  0  0  0  0  0  0  0  0  0
   36.7080   25.9030   35.8000 H   0  0  0  0  0  0  0  0  0  0  0  0
   38.3670   25.0690   35.6680 H   0  0  0  0  0  0  0  0  0  0  0  0
   37.2040   26.1260   31.8510 N   0  0  0  0  0  0  0  0  0  0  0  0
   38.3060   26.0490   30.9080 C   0  0  0  0  0  2  0  0  0  0  0  0
   38.5290   24.5690   30.6650 C   0  0  0  0  0  2  0  0  0  0  0  0
   37.0710   24.0980   30.7570 C   0  0  0  0  0  2  0  0  0  0  0  0
   36.6580   24.7950   32.0330 C   0  0  0  0  0  3  0  0  0  0  0  0
   37.1810   24.2850   32.8680 H   0  0  0  0  0  0  0  0  0  0  0  0
  1  6  1  0  0  0  0
  1  9  1  0  0  0  0
  2  1  2  0  0  0  0
  3  2  1  0  0  0  0
  3  4  2  0  0  0  0
  4  5  1  0  0  0  0
  5  8  1  0  0  0  0
  5  6  2  0  0  0  0
  7  3  1  0  0  0  0
  9 11  1  0  0  0  0
  9 10  1  0  0  0  0
 10 14  1  0  0  0  0
 10 13  1  0  0  0  0
 11 16  1  0  0  0  0
 11 15  1  0  0  0  0
 11 10  1  0  0  0  0
 12  9  1  0  0  0  0
 17 21  1  0  0  0  0
 17  2  1  0  0  0  0
 18 17  1  0  0  0  0
 19 20  1  0  0  0  0
 19 18  1  0  0  0  0
 20 21  1  0  0  0  0
 21 22  1  0  0  0  0
M  END
>  <minimizedAffinity>
-3.79034472

$$$$

 OpenBabel03272508183D

 22 24  0  0  0  0  0  0  0  0999 V2000
   39.4870   23.3030   36.8190 C   0  0  0  0  0  0  0  0  0  0  0  0
   39.9380   24.0720   35.7400 C   0  0  0  0  0  0  0  0  0  0  0  0
   41.2010   23.7780   35.2620 C   0  0  0  0  0  0  0  0  0  0  0  0
   41.9230   22.7770   35.8520 N   0  0  0  0  0  0  0  0  0  0  0  0
   41.4540   22.0530   36.8930 C   0  0  0  0  0  0  0  0  0  0  0  0
   40.2350   22.3160   37.3770 N   0  0  0  0  0  0  0  0  0  0  0  0
   41.6920   24.2880   34.4290 H   0  0  0  0  0  0  0  0  0  0  0  0
   42.0590   21.2700   37.3280 H   0  0  0  0  0  0  0  0  0  0  0  0
   38.0670   23.5800   37.2730 C   0  0  0  0  0  0  0  0  0  0  0  0
   37.5930   23.0840   38.5420 C   0  0  0  0  0  0  0  0  0  0  0  0
   38.0710   24.5140   38.5040 C   0  0  0  0  0  0  0  0  0  0  0  0
   37.3860   24.0500   36.5200 H   0  0  0  0  0  0  0  0  0  0  0  0
   38.2710   22.4010   39.1220 H   0  0  0  0  0  0  0  0  0  0  0  0
   36.5340   22.8410   38.7330 H   0  0  0  0  0  0  0  0  0  0  0  0
   39.0290   24.7650   38.9750 H   0  0  0  0  0  0  0  0  0  0  0  0
   37.2650   25.2470   38.6290 H   0  0  0  0  0  0  0  0  0  0  0  0
   39.2670   25.1140   35.0900 N   0  0  0  0  0  0  0  0  0  0  0  0
   39.1470   26.5410   35.3370 C   0  0  0  0  0  2  0  0  0  0  0  0
   38.4220   27.1020   34.1290 C   0  0  0  0  0  2  0  0  0  0  0  0
   37.4960   25.9110   33.8420 C   0  0  0  0  0  2  0  0  0  0  0  0
   38.5030   24.7860   33.9020 C   0  0  0  0  0  3  0  0  0  0  0  0
   39.1470   24.8760   33.0040 H   0  0  0  0  0  0  0  0  0  0  0  0
  1  9  1  0  0  0  0
  1  6  1  0  0  0  0
  2  1  2  0  0  0  0
  3  2  1  0  0  0  0
  3  4  2  0  0  0  0
  4  5  1  0  0  0  0
  5  8  1  0  0  0  0
  5  6  2  0  0  0  0
  7  3  1  0  0  0  0
  9 11  1  0  0  0  0
  9 10  1  0  0  0  0
 10 14  1  0  0  0  0
 10 13  1  0  0  0  0
 11 10  1  0  0  0  0
 11 16  1  0  0  0  0
 11 15  1  0  0  0  0
 12  9  1  0  0  0  0
 17 18  1  0  0  0  0
 17  2  1  0  0  0  0
 19 18  1  0  0  0  0
 20 21  1  0  0  0  0
 20 19  1  0  0  0  0
 21 17  1  0  0  0  0
 22 21  1  0  0  0  0
M  END
>  <minimizedAffinity>
-3.77639174

$$$$

 OpenBabel03272508183D

 22 24  0  0  0  0  0  0  0  0999 V2000
   36.4720   26.8250   31.8930 C   0  0  0  0  0  0  0  0  0  0  0  0
   37.3440   25.9640   32.5690 C   0  0  0  0  0  0  0  0  0  0  0  0
   37.0890   24.6120   32.4460 C   0  0  0  0  0  0  0  0  0  0  0  0
   36.0280   24.1970   31.6880 N   0  0  0  0  0  0  0  0  0  0  0  0
   35.2070   25.0580   31.0470 C   0  0  0  0  0  0  0  0  0  0  0  0
   35.4290   26.3740   31.1500 N   0  0  0  0  0  0  0  0  0  0  0  0
   37.6760   23.8160   32.9120 H   0  0  0  0  0  0  0  0  0  0  0  0
   34.3800   24.6870   30.4590 H   0  0  0  0  0  0  0  0  0  0  0  0
   36.8180   28.2990   31.9680 C   0  0  0  0  0  0  0  0  0  0  0  0
   35.8560   29.2990   31.5760 C   0  0  0  0  0  0  0  0  0  0  0  0
   35.9630   28.9960   33.0490 C   0  0  0  0  0  0  0  0  0  0  0  0
   37.8840   28.5500   32.1970 H   0  0  0  0  0  0  0  0  0  0  0  0
   34.8940   28.9460   31.1150 H   0  0  0  0  0  0  0  0  0  0  0  0
   36.1450   30.2850   31.1730 H   0  0  0  0  0  0  0  0  0  0  0  0
   35.1580   28.4300   33.5330 H   0  0  0  0  0  0  0  0  0  0  0  0
   36.3940   29.8180   33.6340 H   0  0  0  0  0  0  0  0  0  0  0  0
   38.4410   26.3080   33.3680 N   0  0  0  0  0  0  0  0  0  0  0  0
   38.5810   26.7780   34.7350 C   0  0  0  0  0  2  0  0  0  0  0  0
   40.0710   26.7710   35.0160 C   0  0  0  0  0  2  0  0  0  0  0  0
   40.5710   27.1610   33.6180 C   0  0  0  0  0  2  0  0  0  0  0  0
   39.7620   26.1980   32.7800 C   0  0  0  0  0  3  0  0  0  0  0  0
   40.1710   25.1830   32.9620 H   0  0  0  0  0  0  0  0  0  0  0  0
  1  9  1  0  0  0  0
  1  2  1  0  0  0  0
  2 17  1  0  0  0  0
  3  2  2  0  0  0  0
  3  7  1  0  0  0  0
  4  3  1  0  0  0  0
  5  6  1  0  0  0  0
  5  4  2  0  0  0  0
  6  1  2  0  0  0  0
  8  5  1  0  0  0  0
  9 12  1  0  0  0  0
  9 11  1  0  0  0  0
 10  9  1  0  0  0  0
 10 11  1  0  0  0  0
 11 15  1  0  0  0  0
 11 16  1  0  0  0  0
 13 10  1  0  0  0  0
 14 10  1  0  0  0  0
 17 18  1  0  0  0  0
 18 19  1  0  0  0  0
 20 19  1  0  0  0  0
 21 22  1  0  0  0  0
 21 17  1  0  0  0  0
 21 20  1  0  0  0  0
M  END
>  <minimizedAffinity>
-3.75081825

$$$$

 OpenBabel03272508183D

 22 24  0  0  0  0  0  0  0  0999 V2000
   38.1350   24.9010   35.3860 C   0  0  0  0  0  0  0  0  0  0  0  0
   38.0950   23.9380   34.3720 C   0  0  0  0  0  0  0  0  0  0  0  0
   37.9830   22.6230   34.7790 C   0  0  0  0  0  0  0  0  0  0  0  0
   37.9160   22.3390   36.1150 N   0  0  0  0  0  0  0  0  0  0  0  0
   37.9570   23.2960   37.0680 C   0  0  0  0  0  0  0  0  0  0  0  0
   38.0670   24.5790   36.7040 N   0  0  0  0  0  0  0  0  0  0  0  0
   37.9400   21.7590   34.1090 H   0  0  0  0  0  0  0  0  0  0  0  0
   37.9010   23.0270   38.1140 H   0  0  0  0  0  0  0  0  0  0  0  0
   38.1710   26.3430   34.9200 C   0  0  0  0  0  0  0  0  0  0  0  0
   38.5220   27.4010   35.8350 C   0  0  0  0  0  0  0  0  0  0  0  0
   39.6200   26.8790   34.9430 C   0  0  0  0  0  0  0  0  0  0  0  0
   37.7750   26.5450   33.8930 H   0  0  0  0  0  0  0  0  0  0  0  0
   38.6590   27.1320   36.9170 H   0  0  0  0  0  0  0  0  0  0  0  0
   38.1460   28.4340   35.7320 H   0  0  0  0  0  0  0  0  0  0  0  0
   40.4070   26.2550   35.3830 H   0  0  0  0  0  0  0  0  0  0  0  0
   39.9440   27.5980   34.1810 H   0  0  0  0  0  0  0  0  0  0  0  0
   38.1660   24.1460   32.9890 N   0  0  0  0  0  0  0  0  0  0  0  0
   37.1810   24.4550   31.9680 C   0  0  0  0  0  2  0  0  0  0  0  0
   37.9770   24.7320   30.7070 C   0  0  0  0  0  2  0  0  0  0  0  0
   39.1150   23.7250   30.9270 C   0  0  0  0  0  2  0  0  0  0  0  0
   39.4690   24.0510   32.3600 C   0  0  0  0  0  3  0  0  0  0  0  0
   39.9590   25.0460   32.3570 H   0  0  0  0  0  0  0  0  0  0  0  0
  1  6  1  0  0  0  0
  2  3  1  0  0  0  0
  2  1  2  0  0  0  0
  3  4  2  0  0  0  0
  4  5  1  0  0  0  0
  5  8  1  0  0  0  0
  6  5  2  0  0  0  0
  7  3  1  0  0  0  0
  9 11  1  0  0  0  0
  9  1  1  0  0  0  0
  9 10  1  0  0  0  0
 10 13  1  0  0  0  0
 11 15  1  0  0  0  0
 11 10  1  0  0  0  0
 12  9  1  0  0  0  0
 14 10  1  0  0  0  0
 16 11  1  0  0  0  0
 17  2  1  0  0  0  0
 18 17  1  0  0  0  0
 19 20  1  0  0  0  0
 19 18  1  0  0  0  0
 20 21  1  0  0  0  0
 21 17  1  0  0  0  0
 22 21  1  0  0  0  0
M  END
>  <minimizedAffinity>
-3.74884796

$$$$

 OpenBabel03272508183D

 22 24  0  0  0  0  0  0  0  0999 V2000
   36.4950   26.5930   32.1610 C   0  0  0  0  0  0  0  0  0  0  0  0
   37.2110   25.4960   32.6550 C   0  0  0  0  0  0  0  0  0  0  0  0
   36.8070   24.2510   32.2120 C   0  0  0  0  0  0  0  0  0  0  0  0
   35.7600   24.1590   31.3360 N   0  0  0  0  0  0  0  0  0  0  0  0
   35.0920   25.2420   30.8800 C   0  0  0  0  0  0  0  0  0  0  0  0
   35.4600   26.4600   31.2930 N   0  0  0  0  0  0  0  0  0  0  0  0
   37.2630   23.3020   32.5050 H   0  0  0  0  0  0  0  0  0  0  0  0
   34.2700   25.1230   30.1880 H   0  0  0  0  0  0  0  0  0  0  0  0
   37.0060   27.9550   32.5890 C   0  0  0  0  0  0  0  0  0  0  0  0
   36.1930   29.1330   32.4090 C   0  0  0  0  0  0  0  0  0  0  0  0
   36.1730   28.4920   33.7740 C   0  0  0  0  0  0  0  0  0  0  0  0
   38.0780   28.0080   32.9050 H   0  0  0  0  0  0  0  0  0  0  0  0
   35.2270   29.0190   31.8480 H   0  0  0  0  0  0  0  0  0  0  0  0
   36.6210   30.1390   32.2570 H   0  0  0  0  0  0  0  0  0  0  0  0
   35.2800   27.9390   34.0860 H   0  0  0  0  0  0  0  0  0  0  0  0
   36.6610   29.0970   34.5480 H   0  0  0  0  0  0  0  0  0  0  0  0
   38.2830   25.5060   33.5540 N   0  0  0  0  0  0  0  0  0  0  0  0
   39.7190   25.6610   33.4040 C   0  0  0  0  0  2  0  0  0  0  0  0
   40.2660   25.7620   34.8140 C   0  0  0  0  0  2  0  0  0  0  0  0
   39.2880   24.8050   35.5100 C   0  0  0  0  0  2  0  0  0  0  0  0
   37.9820   25.3320   34.9620 C   0  0  0  0  0  3  0  0  0  0  0  0
   37.8060   26.3210   35.4340 H   0  0  0  0  0  0  0  0  0  0  0  0
  1  9  1  0  0  0  0
  1  2  1  0  0  0  0
  2 17  1  0  0  0  0
  3  7  1  0  0  0  0
  3  2  2  0  0  0  0
  4  3  1  0  0  0  0
  5  6  1  0  0  0  0
  5  4  2  0  0  0  0
  6  1  2  0  0  0  0
  8  5  1  0  0  0  0
  9 12  1  0  0  0  0
  9 11  1  0  0  0  0
 10  9  1  0  0  0  0
 10 11  1  0  0  0  0
 11 15  1  0  0  0  0
 11 16  1  0  0  0  0
 13 10  1  0  0  0  0
 14 10  1  0  0  0  0
 17 21  1  0  0  0  0
 18 17  1  0  0  0  0
 18 19  1  0  0  0  0
 19 20  1  0  0  0  0
 21 22  1  0  0  0  0
 21 20  1  0  0  0  0
M  END
>  <minimizedAffinity>
-3.704391

$$$$
