
 OpenBabel03272508033D

 25 27  0  0  1  0  0  0  0  0999 V2000
   37.3980   26.5190   34.2830 C   0  0  0  0  0  0  0  0  0  0  0  0
   37.3120   26.8360   32.9520 C   0  0  0  0  0  0  0  0  0  0  0  0
   36.6340   28.0510   32.8000 C   0  0  0  0  0  0  0  0  0  0  0  0
   36.3340   28.4180   34.0870 N   0  0  0  0  0  0  0  0  0  0  0  0
   36.7810   27.5230   34.9470 N   0  0  0  0  0  0  0  0  0  0  0  0
   37.7070   26.2460   32.1100 H   0  0  0  0  0  0  0  0  0  0  0  0
   36.3940   28.5880   31.8870 H   0  0  0  0  0  0  0  0  0  0  0  0
   38.0230   25.3430   34.8830 C   0  0  0  0  0  0  0  0  0  0  0  0
   37.8620   25.1540   36.2810 C   0  0  0  0  0  0  0  0  0  0  0  0
   38.4500   24.0400   36.8720 C   0  0  0  0  0  0  0  0  0  0  0  0
   39.1480   23.1950   36.0710 N   0  0  0  0  0  0  0  0  0  0  0  0
   39.2890   23.3940   34.7390 C   0  0  0  0  0  0  0  0  0  0  0  0
   38.7200   24.4690   34.1780 N   0  0  0  0  0  0  0  0  0  0  0  0
   37.2990   25.8410   36.9090 H   0  0  0  0  0  0  0  0  0  0  0  0
   39.8420   22.7240   34.1040 H   0  0  0  0  0  0  0  0  0  0  0  0
   38.2910   23.8290   38.3310 C   0  0  0  0  0  0  0  0  0  0  0  0
   39.5000   23.3320   38.7750 F   0  0  0  0  0  0  0  0  0  0  0  0
   38.0320   25.0010   39.0180 F   0  0  0  0  0  0  0  0  0  0  0  0
   37.3050   22.9080   38.6200 F   0  0  0  0  0  0  0  0  0  0  0  0
   37.4020   30.2960   35.2000 H   0  0  0  0  0  0  0  0  0  0  0  0
   36.4410   30.1790   35.5900 N   0  0  0  0  0  0  0  0  0  0  0  0
   35.7800   31.4340   35.8050 C   0  0  0  0  0  2  0  0  0  0  0  0
   35.5810   31.9450   34.3840 C   0  0  0  0  0  2  0  0  0  0  0  0
   35.6530   30.7020   33.4920 C   0  0  0  0  0  2  0  0  0  0  0  0
   35.6310   29.6040   34.5030 C   0  0  1  0  0  3  0  0  0  0  0  0
  1  8  1  0  0  0  0
  1  5  2  0  0  0  0
  2  1  1  0  0  0  0
  3  2  2  0  0  0  0
  3  4  1  0  0  0  0
  4 25  1  0  0  0  0
  4  5  1  0  0  0  0
  6  2  1  0  0  0  0
  7  3  1  0  0  0  0
  8  9  1  0  0  0  0
  9 10  2  0  0  0  0
  9 14  1  0  0  0  0
 10 16  1  0  0  0  0
 11 10  1  0  0  0  0
 12 11  2  0  0  0  0
 13 12  1  0  0  0  0
 13  8  2  0  0  0  0
 15 12  1  0  0  0  0
 16 19  1  0  0  0  0
 16 17  1  0  0  0  0
 16 18  1  0  0  0  0
 20 21  1  0  0  0  0
 21 22  1  0  0  0  0
 23 22  1  0  0  0  0
 24 23  1  0  0  0  0
 25 24  1  6  0  0  0
 25 21  1  0  0  0  0
M  END
>  <minimizedAffinity>
-5.60603952

$$$$

 OpenBabel03272508033D

 25 27  0  0  1  0  0  0  0  0999 V2000
   37.4080   26.1730   34.2680 C   0  0  0  0  0  0  0  0  0  0  0  0
   36.9680   27.3360   34.8470 C   0  0  0  0  0  0  0  0  0  0  0  0
   36.5830   28.2400   33.8500 C   0  0  0  0  0  0  0  0  0  0  0  0
   36.8160   27.5580   32.6850 N   0  0  0  0  0  0  0  0  0  0  0  0
   37.2970   26.3540   32.9330 N   0  0  0  0  0  0  0  0  0  0  0  0
   36.9140   27.5530   35.9250 H   0  0  0  0  0  0  0  0  0  0  0  0
   36.1900   29.2470   33.9590 H   0  0  0  0  0  0  0  0  0  0  0  0
   37.9000   24.9720   34.9390 C   0  0  0  0  0  0  0  0  0  0  0  0
   37.8530   24.9470   36.3580 C   0  0  0  0  0  0  0  0  0  0  0  0
   38.3170   23.8120   37.0170 C   0  0  0  0  0  0  0  0  0  0  0  0
   38.7900   22.7910   36.2590 N   0  0  0  0  0  0  0  0  0  0  0  0
   38.8260   22.8360   34.9060 C   0  0  0  0  0  0  0  0  0  0  0  0
   38.3770   23.9310   34.2790 N   0  0  0  0  0  0  0  0  0  0  0  0
   37.4700   25.7730   36.9510 H   0  0  0  0  0  0  0  0  0  0  0  0
   39.2010   22.0260   34.3040 H   0  0  0  0  0  0  0  0  0  0  0  0
   38.2750   23.7700   38.4980 C   0  0  0  0  0  0  0  0  0  0  0  0
   37.3630   22.7850   38.8230 F   0  0  0  0  0  0  0  0  0  0  0  0
   39.4910   23.4290   39.0610 F   0  0  0  0  0  0  0  0  0  0  0  0
   37.8430   24.9640   39.0410 F   0  0  0  0  0  0  0  0  0  0  0  0
   37.6010   29.7090   31.8720 H   0  0  0  0  0  0  0  0  0  0  0  0
   36.6770   29.5020   31.4320 N   0  0  0  0  0  0  0  0  0  0  0  0
   36.6350   29.8730   30.0460 C   0  0  0  0  0  2  0  0  0  0  0  0
   37.6120   28.8890   29.4160 C   0  0  0  0  0  2  0  0  0  0  0  0
   37.7000   27.7180   30.3990 C   0  0  0  0  0  2  0  0  0  0  0  0
   36.5900   28.0350   31.3450 C   0  0  1  0  0  3  0  0  0  0  0  0
  1  2  1  0  0  0  0
  1  8  1  0  0  0  0
  2  6  1  0  0  0  0
  3  7  1  0  0  0  0
  3  2  2  0  0  0  0
  4  5  1  0  0  0  0
  4  3  1  0  0  0  0
  5  1  2  0  0  0  0
  8  9  1  0  0  0  0
  9 14  1  0  0  0  0
  9 10  2  0  0  0  0
 10 16  1  0  0  0  0
 11 10  1  0  0  0  0
 12 11  2  0  0  0  0
 13 12  1  0  0  0  0
 13  8  2  0  0  0  0
 15 12  1  0  0  0  0
 16 17  1  0  0  0  0
 16 19  1  0  0  0  0
 16 18  1  0  0  0  0
 21 20  1  0  0  0  0
 22 21  1  0  0  0  0
 23 22  1  0  0  0  0
 23 24  1  0  0  0  0
 25 24  1  6  0  0  0
 25 21  1  0  0  0  0
 25  4  1  0  0  0  0
M  END
>  <minimizedAffinity>
-5.58170176

$$$$

 OpenBabel03272508033D

 25 27  0  0  1  0  0  0  0  0999 V2000
   37.6490   25.2690   33.7760 C   0  0  0  0  0  0  0  0  0  0  0  0
   37.3360   25.0870   32.4530 C   0  0  0  0  0  0  0  0  0  0  0  0
   36.7890   26.2670   31.9340 C   0  0  0  0  0  0  0  0  0  0  0  0
   36.7990   27.1270   33.0010 N   0  0  0  0  0  0  0  0  0  0  0  0
   37.3010   26.5410   34.0710 N   0  0  0  0  0  0  0  0  0  0  0  0
   37.4810   24.1680   31.8640 H   0  0  0  0  0  0  0  0  0  0  0  0
   36.4350   26.4670   30.9260 H   0  0  0  0  0  0  0  0  0  0  0  0
   38.2390   24.2980   34.6950 C   0  0  0  0  0  0  0  0  0  0  0  0
   37.9960   24.4760   36.0820 C   0  0  0  0  0  0  0  0  0  0  0  0
   38.5490   23.5620   36.9750 C   0  0  0  0  0  0  0  0  0  0  0  0
   39.2940   22.5500   36.4620 N   0  0  0  0  0  0  0  0  0  0  0  0
   39.5130   22.4000   35.1340 C   0  0  0  0  0  0  0  0  0  0  0  0
   38.9770   23.2820   34.2820 N   0  0  0  0  0  0  0  0  0  0  0  0
   37.3970   25.2920   36.4770 H   0  0  0  0  0  0  0  0  0  0  0  0
   40.1040   21.5970   34.7270 H   0  0  0  0  0  0  0  0  0  0  0  0
   38.3050   23.7340   38.4270 C   0  0  0  0  0  0  0  0  0  0  0  0
   39.5050   23.4500   39.0480 F   0  0  0  0  0  0  0  0  0  0  0  0
   37.9450   25.0270   38.7620 F   0  0  0  0  0  0  0  0  0  0  0  0
   37.3470   22.8610   38.9010 F   0  0  0  0  0  0  0  0  0  0  0  0
   34.4670   27.7630   32.7540 H   0  0  0  0  0  0  0  0  0  0  0  0
   35.0610   28.4810   32.2830 N   0  0  0  0  0  0  0  0  0  0  0  0
   34.5910   29.8170   32.5120 C   0  0  0  0  0  2  0  0  0  0  0  0
   34.8420   30.0010   34.0030 C   0  0  0  0  0  2  0  0  0  0  0  0
   35.9160   28.9700   34.3630 C   0  0  0  0  0  2  0  0  0  0  0  0
   36.3390   28.4910   33.0130 C   0  0  1  0  0  3  0  0  0  0  0  0
  1  5  2  0  0  0  0
  1  8  1  0  0  0  0
  2  1  1  0  0  0  0
  3  2  2  0  0  0  0
  3  4  1  0  0  0  0
  4  5  1  0  0  0  0
  6  2  1  0  0  0  0
  7  3  1  0  0  0  0
  8  9  1  0  0  0  0
  9 14  1  0  0  0  0
  9 10  2  0  0  0  0
 10 16  1  0  0  0  0
 11 10  1  0  0  0  0
 12 11  2  0  0  0  0
 13  8  2  0  0  0  0
 13 12  1  0  0  0  0
 15 12  1  0  0  0  0
 16 18  1  0  0  0  0
 16 19  1  0  0  0  0
 16 17  1  0  0  0  0
 21 22  1  0  0  0  0
 21 20  1  0  0  0  0
 21 25  1  0  0  0  0
 22 23  1  0  0  0  0
 23 24  1  0  0  0  0
 25  4  1  1  0  0  0
 25 24  1  0  0  0  0
M  END
>  <minimizedAffinity>
-5.55439758

$$$$

 OpenBabel03272508033D

 25 27  0  0  1  0  0  0  0  0999 V2000
   37.2530   27.0110   34.0850 C   0  0  0  0  0  0  0  0  0  0  0  0
   36.7580   27.0780   32.8080 C   0  0  0  0  0  0  0  0  0  0  0  0
   35.9960   28.2430   32.6600 C   0  0  0  0  0  0  0  0  0  0  0  0
   36.0720   28.8390   33.8920 N   0  0  0  0  0  0  0  0  0  0  0  0
   36.8050   28.1180   34.7180 N   0  0  0  0  0  0  0  0  0  0  0  0
   36.9190   26.3450   32.0020 H   0  0  0  0  0  0  0  0  0  0  0  0
   35.4660   28.6030   31.7820 H   0  0  0  0  0  0  0  0  0  0  0  0
   38.0950   25.9660   34.6630 C   0  0  0  0  0  0  0  0  0  0  0  0
   37.7710   25.5080   35.9670 C   0  0  0  0  0  0  0  0  0  0  0  0
   38.5600   24.5130   36.5360 C   0  0  0  0  0  0  0  0  0  0  0  0
   39.6000   24.0370   35.8050 N   0  0  0  0  0  0  0  0  0  0  0  0
   39.8910   24.4880   34.5610 C   0  0  0  0  0  0  0  0  0  0  0  0
   39.1270   25.4450   34.0210 N   0  0  0  0  0  0  0  0  0  0  0  0
   36.9340   25.9000   36.5400 H   0  0  0  0  0  0  0  0  0  0  0  0
   40.7150   24.1110   33.9810 H   0  0  0  0  0  0  0  0  0  0  0  0
   38.2350   24.0240   37.8970 C   0  0  0  0  0  0  0  0  0  0  0  0
   37.1500   23.1830   37.7480 F   0  0  0  0  0  0  0  0  0  0  0  0
   39.2650   23.2970   38.4670 F   0  0  0  0  0  0  0  0  0  0  0  0
   37.8810   25.0510   38.7480 F   0  0  0  0  0  0  0  0  0  0  0  0
   34.3060   28.9950   35.5530 H   0  0  0  0  0  0  0  0  0  0  0  0
   34.1330   29.7110   34.8130 N   0  0  0  0  0  0  0  0  0  0  0  0
   33.6810   30.9600   35.3540 C   0  0  0  0  0  2  0  0  0  0  0  0
   34.9090   31.4510   36.1100 C   0  0  0  0  0  2  0  0  0  0  0  0
   36.0940   30.7100   35.4830 C   0  0  0  0  0  2  0  0  0  0  0  0
   35.4570   30.0790   34.2890 C   0  0  1  0  0  3  0  0  0  0  0  0
  1  8  1  0  0  0  0
  1  5  2  0  0  0  0
  2  1  1  0  0  0  0
  3  2  2  0  0  0  0
  3  4  1  0  0  0  0
  4  5  1  0  0  0  0
  6  2  1  0  0  0  0
  7  3  1  0  0  0  0
  8  9  1  0  0  0  0
  9 10  2  0  0  0  0
  9 14  1  0  0  0  0
 10 16  1  0  0  0  0
 11 10  1  0  0  0  0
 12 11  2  0  0  0  0
 13 12  1  0  0  0  0
 13  8  2  0  0  0  0
 15 12  1  0  0  0  0
 16 18  1  0  0  0  0
 16 19  1  0  0  0  0
 17 16  1  0  0  0  0
 21 22  1  0  0  0  0
 21 20  1  0  0  0  0
 22 23  1  0  0  0  0
 24 23  1  0  0  0  0
 25  4  1  1  0  0  0
 25 21  1  0  0  0  0
 25 24  1  0  0  0  0
M  END
>  <minimizedAffinity>
-5.4261384

$$$$

 OpenBabel03272508033D

 25 27  0  0  1  0  0  0  0  0999 V2000
   38.0160   25.0290   34.8820 C   0  0  0  0  0  0  0  0  0  0  0  0
   37.8700   24.5290   33.6130 C   0  0  0  0  0  0  0  0  0  0  0  0
   37.4050   25.5380   32.7610 C   0  0  0  0  0  0  0  0  0  0  0  0
   37.2900   26.6290   33.5820 N   0  0  0  0  0  0  0  0  0  0  0  0
   37.6460   26.3280   34.8160 N   0  0  0  0  0  0  0  0  0  0  0  0
   38.0790   23.4990   33.2860 H   0  0  0  0  0  0  0  0  0  0  0  0
   37.1840   25.4830   31.6990 H   0  0  0  0  0  0  0  0  0  0  0  0
   38.4750   24.3200   36.0740 C   0  0  0  0  0  0  0  0  0  0  0  0
   39.6820   23.5800   35.9740 C   0  0  0  0  0  0  0  0  0  0  0  0
   40.1370   22.8980   37.0980 C   0  0  0  0  0  0  0  0  0  0  0  0
   39.3930   22.9800   38.2300 N   0  0  0  0  0  0  0  0  0  0  0  0
   38.2430   23.6910   38.3040 C   0  0  0  0  0  0  0  0  0  0  0  0
   37.8120   24.3460   37.2180 N   0  0  0  0  0  0  0  0  0  0  0  0
   40.2670   23.5250   35.0590 H   0  0  0  0  0  0  0  0  0  0  0  0
   37.6530   23.7570   39.2020 H   0  0  0  0  0  0  0  0  0  0  0  0
   41.3970   22.1210   37.0090 C   0  0  0  0  0  0  0  0  0  0  0  0
   41.3270   21.4240   35.8200 F   0  0  0  0  0  0  0  0  0  0  0  0
   42.5220   22.9240   36.9690 F   0  0  0  0  0  0  0  0  0  0  0  0
   41.5240   21.2140   38.0420 F   0  0  0  0  0  0  0  0  0  0  0  0
   35.1080   27.0910   32.6180 H   0  0  0  0  0  0  0  0  0  0  0  0
   35.8070   27.7360   32.1870 N   0  0  0  0  0  0  0  0  0  0  0  0
   35.2950   29.0660   32.0200 C   0  0  0  0  0  2  0  0  0  0  0  0
   35.1430   29.5400   33.4600 C   0  0  0  0  0  2  0  0  0  0  0  0
   36.0820   28.6500   34.2810 C   0  0  0  0  0  2  0  0  0  0  0  0
   36.8460   27.9470   33.2080 C   0  0  1  0  0  3  0  0  0  0  0  0
  1  8  1  0  0  0  0
  2  1  1  0  0  0  0
  3  4  1  0  0  0  0
  3  2  2  0  0  0  0
  4  5  1  0  0  0  0
  5  1  2  0  0  0  0
  6  2  1  0  0  0  0
  7  3  1  0  0  0  0
  8 13  1  0  0  0  0
  9  8  2  0  0  0  0
  9 10  1  0  0  0  0
 10 11  2  0  0  0  0
 11 12  1  0  0  0  0
 12 15  1  0  0  0  0
 13 12  2  0  0  0  0
 14  9  1  0  0  0  0
 16 10  1  0  0  0  0
 16 19  1  0  0  0  0
 17 16  1  0  0  0  0
 18 16  1  0  0  0  0
 21 20  1  0  0  0  0
 21 25  1  0  0  0  0
 22 21  1  0  0  0  0
 22 23  1  0  0  0  0
 23 24  1  0  0  0  0
 25  4  1  1  0  0  0
 25 24  1  0  0  0  0
M  END
>  <minimizedAffinity>
-5.29450464

$$$$

 OpenBabel03272508033D

 25 27  0  0  1  0  0  0  0  0999 V2000
   36.4060   28.2400   33.4050 C   0  0  0  0  0  0  0  0  0  0  0  0
   36.2750   28.9660   32.2480 C   0  0  0  0  0  0  0  0  0  0  0  0
   35.7290   30.2210   32.5410 C   0  0  0  0  0  0  0  0  0  0  0  0
   35.5530   30.1900   33.9000 N   0  0  0  0  0  0  0  0  0  0  0  0
   35.9480   29.0340   34.3980 N   0  0  0  0  0  0  0  0  0  0  0  0
   36.5480   28.6380   31.2340 H   0  0  0  0  0  0  0  0  0  0  0  0
   35.4960   31.0370   31.8620 H   0  0  0  0  0  0  0  0  0  0  0  0
   36.9310   26.8850   33.5540 C   0  0  0  0  0  0  0  0  0  0  0  0
   37.3220   26.4710   34.8540 C   0  0  0  0  0  0  0  0  0  0  0  0
   37.8250   25.1840   35.0180 C   0  0  0  0  0  0  0  0  0  0  0  0
   37.9120   24.3960   33.9170 N   0  0  0  0  0  0  0  0  0  0  0  0
   37.5330   24.8100   32.6840 C   0  0  0  0  0  0  0  0  0  0  0  0
   37.0500   26.0500   32.5350 N   0  0  0  0  0  0  0  0  0  0  0  0
   37.2460   27.1160   35.7270 H   0  0  0  0  0  0  0  0  0  0  0  0
   37.6010   24.1850   31.8110 H   0  0  0  0  0  0  0  0  0  0  0  0
   38.2390   24.7380   36.3700 C   0  0  0  0  0  0  0  0  0  0  0  0
   39.5280   24.2630   36.2330 F   0  0  0  0  0  0  0  0  0  0  0  0
   38.2580   25.7680   37.2930 F   0  0  0  0  0  0  0  0  0  0  0  0
   37.4430   23.7160   36.8480 F   0  0  0  0  0  0  0  0  0  0  0  0
   34.1810   29.7910   35.8650 H   0  0  0  0  0  0  0  0  0  0  0  0
   33.8400   30.6550   35.3890 N   0  0  0  0  0  0  0  0  0  0  0  0
   33.4910   31.6910   36.3190 C   0  0  0  0  0  2  0  0  0  0  0  0
   34.8440   32.0650   36.9130 C   0  0  0  0  0  2  0  0  0  0  0  0
   35.8800   31.5950   35.8870 C   0  0  0  0  0  2  0  0  0  0  0  0
   35.0140   31.2410   34.7240 C   0  0  1  0  0  3  0  0  0  0  0  0
  1  8  1  0  0  0  0
  1  5  2  0  0  0  0
  2  3  2  0  0  0  0
  2  1  1  0  0  0  0
  3  4  1  0  0  0  0
  4  5  1  0  0  0  0
  6  2  1  0  0  0  0
  7  3  1  0  0  0  0
  8  9  1  0  0  0  0
  9 10  2  0  0  0  0
  9 14  1  0  0  0  0
 10 16  1  0  0  0  0
 11 10  1  0  0  0  0
 12 11  2  0  0  0  0
 13 12  1  0  0  0  0
 13  8  2  0  0  0  0
 15 12  1  0  0  0  0
 16 19  1  0  0  0  0
 16 18  1  0  0  0  0
 17 16  1  0  0  0  0
 21 20  1  0  0  0  0
 21 22  1  0  0  0  0
 22 23  1  0  0  0  0
 24 23  1  0  0  0  0
 25  4  1  6  0  0  0
 25 21  1  0  0  0  0
 25 24  1  0  0  0  0
M  END
>  <minimizedAffinity>
-5.23630333

$$$$

 OpenBabel03272508033D

 25 27  0  0  1  0  0  0  0  0999 V2000
   37.8130   23.7380   33.0740 C   0  0  0  0  0  0  0  0  0  0  0  0
   38.3490   23.9310   31.8260 C   0  0  0  0  0  0  0  0  0  0  0  0
   37.9080   22.9200   30.9640 C   0  0  0  0  0  0  0  0  0  0  0  0
   37.1030   22.1450   31.7570 N   0  0  0  0  0  0  0  0  0  0  0  0
   37.0510   22.6250   32.9850 N   0  0  0  0  0  0  0  0  0  0  0  0
   39.0240   24.7450   31.5210 H   0  0  0  0  0  0  0  0  0  0  0  0
   38.1390   22.7730   29.9120 H   0  0  0  0  0  0  0  0  0  0  0  0
   38.0120   24.5570   34.2670 C   0  0  0  0  0  0  0  0  0  0  0  0
   38.0320   23.8940   35.5230 C   0  0  0  0  0  0  0  0  0  0  0  0
   38.2210   24.6560   36.6720 C   0  0  0  0  0  0  0  0  0  0  0  0
   38.3730   25.9960   36.5230 N   0  0  0  0  0  0  0  0  0  0  0  0
   38.3500   26.6080   35.3150 C   0  0  0  0  0  0  0  0  0  0  0  0
   38.1690   25.8690   34.2140 N   0  0  0  0  0  0  0  0  0  0  0  0
   37.9090   22.8190   35.6250 H   0  0  0  0  0  0  0  0  0  0  0  0
   38.4710   27.6710   35.1960 H   0  0  0  0  0  0  0  0  0  0  0  0
   38.2440   23.9780   37.9900 C   0  0  0  0  0  0  0  0  0  0  0  0
   37.2300   23.0420   37.9520 F   0  0  0  0  0  0  0  0  0  0  0  0
   39.4330   23.3120   38.2300 F   0  0  0  0  0  0  0  0  0  0  0  0
   37.9960   24.8510   39.0300 F   0  0  0  0  0  0  0  0  0  0  0  0
   37.2150   20.0400   32.9670 H   0  0  0  0  0  0  0  0  0  0  0  0
   37.1390   19.8350   31.9460 N   0  0  0  0  0  0  0  0  0  0  0  0
   36.2630   18.7330   31.6720 C   0  0  0  0  0  2  0  0  0  0  0  0
   34.9040   19.2890   32.0750 C   0  0  0  0  0  2  0  0  0  0  0  0
   35.0570   20.8120   32.0240 C   0  0  0  0  0  2  0  0  0  0  0  0
   36.3880   20.9590   31.3630 C   0  0  1  0  0  3  0  0  0  0  0  0
  1  8  1  0  0  0  0
  2  1  1  0  0  0  0
  3  4  1  0  0  0  0
  3  2  2  0  0  0  0
  4  5  1  0  0  0  0
  5  1  2  0  0  0  0
  6  2  1  0  0  0  0
  7  3  1  0  0  0  0
  8  9  1  0  0  0  0
  9 14  1  0  0  0  0
  9 10  2  0  0  0  0
 10 16  1  0  0  0  0
 11 10  1  0  0  0  0
 12 11  2  0  0  0  0
 13  8  2  0  0  0  0
 13 12  1  0  0  0  0
 15 12  1  0  0  0  0
 16 18  1  0  0  0  0
 16 19  1  0  0  0  0
 17 16  1  0  0  0  0
 21 20  1  0  0  0  0
 22 21  1  0  0  0  0
 22 23  1  0  0  0  0
 24 23  1  0  0  0  0
 25  4  1  1  0  0  0
 25 21  1  0  0  0  0
 25 24  1  0  0  0  0
M  END
>  <minimizedAffinity>
-5.21016264

$$$$

 OpenBabel03272508033D

 25 27  0  0  1  0  0  0  0  0999 V2000
   37.9480   24.8290   33.1670 C   0  0  0  0  0  0  0  0  0  0  0  0
   36.8920   24.4910   32.3590 C   0  0  0  0  0  0  0  0  0  0  0  0
   36.6030   25.5550   31.4960 C   0  0  0  0  0  0  0  0  0  0  0  0
   37.5250   26.5100   31.8360 N   0  0  0  0  0  0  0  0  0  0  0  0
   38.3060   26.0820   32.8100 N   0  0  0  0  0  0  0  0  0  0  0  0
   36.3390   23.5390   32.3640 H   0  0  0  0  0  0  0  0  0  0  0  0
   35.8330   25.6220   30.7320 H   0  0  0  0  0  0  0  0  0  0  0  0
   38.5720   24.0140   34.2070 C   0  0  0  0  0  0  0  0  0  0  0  0
   38.1760   24.2480   35.5500 C   0  0  0  0  0  0  0  0  0  0  0  0
   38.7580   23.4830   36.5560 C   0  0  0  0  0  0  0  0  0  0  0  0
   39.6770   22.5530   36.1910 N   0  0  0  0  0  0  0  0  0  0  0  0
   40.0400   22.3460   34.9020 C   0  0  0  0  0  0  0  0  0  0  0  0
   39.4750   23.0860   33.9400 N   0  0  0  0  0  0  0  0  0  0  0  0
   37.4380   24.9970   35.8270 H   0  0  0  0  0  0  0  0  0  0  0  0
   40.7680   21.6090   34.6120 H   0  0  0  0  0  0  0  0  0  0  0  0
   38.3560   23.7160   37.9640 C   0  0  0  0  0  0  0  0  0  0  0  0
   39.4500   23.3680   38.7320 F   0  0  0  0  0  0  0  0  0  0  0  0
   38.0540   25.0400   38.2240 F   0  0  0  0  0  0  0  0  0  0  0  0
   37.2880   22.9260   38.3390 F   0  0  0  0  0  0  0  0  0  0  0  0
   36.3570   27.2210   29.8280 H   0  0  0  0  0  0  0  0  0  0  0  0
   37.3080   27.6540   29.8330 N   0  0  0  0  0  0  0  0  0  0  0  0
   37.2920   29.0160   29.3830 C   0  0  0  0  0  2  0  0  0  0  0  0
   36.5240   29.7180   30.4950 C   0  0  0  0  0  2  0  0  0  0  0  0
   36.6490   28.8010   31.7150 C   0  0  0  0  0  2  0  0  0  0  0  0
   37.6700   27.8170   31.2500 C   0  0  1  0  0  3  0  0  0  0  0  0
  1  8  1  0  0  0  0
  2  6  1  0  0  0  0
  2  1  1  0  0  0  0
  3  4  1  0  0  0  0
  3  2  2  0  0  0  0
  4  5  1  0  0  0  0
  5  1  2  0  0  0  0
  7  3  1  0  0  0  0
  8  9  1  0  0  0  0
  9 14  1  0  0  0  0
  9 10  2  0  0  0  0
 10 16  1  0  0  0  0
 11 10  1  0  0  0  0
 12 11  2  0  0  0  0
 13  8  2  0  0  0  0
 13 12  1  0  0  0  0
 15 12  1  0  0  0  0
 16 18  1  0  0  0  0
 16 19  1  0  0  0  0
 16 17  1  0  0  0  0
 20 21  1  0  0  0  0
 21 25  1  0  0  0  0
 22 21  1  0  0  0  0
 22 23  1  0  0  0  0
 23 24  1  0  0  0  0
 25 24  1  1  0  0  0
 25  4  1  0  0  0  0
M  END
>  <minimizedAffinity>
-5.20576048

$$$$

 OpenBabel03272508033D

 25 27  0  0  1  0  0  0  0  0999 V2000
   38.4890   24.5910   35.5260 C   0  0  0  0  0  0  0  0  0  0  0  0
   37.9270   24.2070   36.7170 C   0  0  0  0  0  0  0  0  0  0  0  0
   38.8420   23.4340   37.4400 C   0  0  0  0  0  0  0  0  0  0  0  0
   39.9440   23.3870   36.6260 N   0  0  0  0  0  0  0  0  0  0  0  0
   39.7340   24.0620   35.5120 N   0  0  0  0  0  0  0  0  0  0  0  0
   36.9160   24.4550   37.0750 H   0  0  0  0  0  0  0  0  0  0  0  0
   38.7220   22.9730   38.4170 H   0  0  0  0  0  0  0  0  0  0  0  0
   37.8840   25.4040   34.4730 C   0  0  0  0  0  0  0  0  0  0  0  0
   37.3000   24.7240   33.3720 C   0  0  0  0  0  0  0  0  0  0  0  0
   36.7180   25.4800   32.3590 C   0  0  0  0  0  0  0  0  0  0  0  0
   36.7450   26.8310   32.4850 N   0  0  0  0  0  0  0  0  0  0  0  0
   37.3080   27.4590   33.5440 C   0  0  0  0  0  0  0  0  0  0  0  0
   37.8660   26.7250   34.5150 N   0  0  0  0  0  0  0  0  0  0  0  0
   37.2860   23.6400   33.2870 H   0  0  0  0  0  0  0  0  0  0  0  0
   37.3300   28.5310   33.6440 H   0  0  0  0  0  0  0  0  0  0  0  0
   36.1040   24.7850   31.2020 C   0  0  0  0  0  0  0  0  0  0  0  0
   35.3810   23.7350   31.7330 F   0  0  0  0  0  0  0  0  0  0  0  0
   35.2310   25.5900   30.4930 F   0  0  0  0  0  0  0  0  0  0  0  0
   37.0510   24.2730   30.3390 F   0  0  0  0  0  0  0  0  0  0  0  0
   40.1020   21.0210   37.1550 H   0  0  0  0  0  0  0  0  0  0  0  0
   40.8270   21.5350   37.7030 N   0  0  0  0  0  0  0  0  0  0  0  0
   42.0760   20.8310   37.7550 C   0  0  0  0  0  2  0  0  0  0  0  0
   42.5450   20.8920   36.3070 C   0  0  0  0  0  2  0  0  0  0  0  0
   41.7980   22.0770   35.6880 C   0  0  0  0  0  2  0  0  0  0  0  0
   41.1860   22.7110   36.8940 C   0  0  1  0  0  3  0  0  0  0  0  0
  1  2  1  0  0  0  0
  2  6  1  0  0  0  0
  2  3  2  0  0  0  0
  3  7  1  0  0  0  0
  4 25  1  0  0  0  0
  4  3  1  0  0  0  0
  5  1  2  0  0  0  0
  5  4  1  0  0  0  0
  8 13  1  0  0  0  0
  8  1  1  0  0  0  0
  9  8  2  0  0  0  0
 10 11  2  0  0  0  0
 10  9  1  0  0  0  0
 11 12  1  0  0  0  0
 12 15  1  0  0  0  0
 12 13  2  0  0  0  0
 14  9  1  0  0  0  0
 16 17  1  0  0  0  0
 16 10  1  0  0  0  0
 18 16  1  0  0  0  0
 19 16  1  0  0  0  0
 20 21  1  0  0  0  0
 21 22  1  0  0  0  0
 23 22  1  0  0  0  0
 24 23  1  0  0  0  0
 25 24  1  6  0  0  0
 25 21  1  0  0  0  0
M  END
>  <minimizedAffinity>
-5.19600916

$$$$
