
 OpenBabel03272504003D

 21 22  0  0  0  0  0  0  0  0999 V2000
   38.2280   23.6670   34.5940 C   0  0  0  0  0  0  0  0  0  0  0  0
   38.4000   22.6060   34.2360 H   0  0  0  0  0  0  0  0  0  0  0  0
   37.1820   23.8610   34.3160 H   0  0  0  0  0  0  0  0  0  0  0  0
   38.4400   23.5760   36.0430 C   0  0  0  0  0  0  0  0  0  0  0  0
   37.5950   24.0930   37.0200 C   0  0  0  0  0  0  0  0  0  0  0  0
   37.9090   23.9510   38.3610 C   0  0  0  0  0  0  0  0  0  0  0  0
   39.0690   23.2900   38.6630 N   0  0  0  0  0  0  0  0  0  0  0  0
   39.8830   22.7920   37.7090 C   0  0  0  0  0  0  0  0  0  0  0  0
   39.5510   22.9450   36.4300 N   0  0  0  0  0  0  0  0  0  0  0  0
   36.7020   24.5980   36.6710 H   0  0  0  0  0  0  0  0  0  0  0  0
   37.2360   24.3590   39.0760 H   0  0  0  0  0  0  0  0  0  0  0  0
   40.7810   22.2820   38.0340 H   0  0  0  0  0  0  0  0  0  0  0  0
   39.1420   24.6320   33.9290 C   0  0  0  0  0  0  0  0  0  0  0  0
   39.2590   24.3000   32.8570 H   0  0  0  0  0  0  0  0  0  0  0  0
   40.1520   24.4760   34.4050 H   0  0  0  0  0  0  0  0  0  0  0  0
   38.8360   25.9810   33.9750 N   0  0  0  0  0  0  0  0  0  0  0  0
   37.5320   26.4620   33.8230 C   0  0  0  0  0  2  0  0  0  0  0  0
   37.3160   27.4540   34.9710 C   0  0  0  0  0  2  0  0  0  0  0  0
   38.5990   27.3940   35.7590 C   0  0  0  0  0  2  0  0  0  0  0  0
   39.6070   26.8680   34.7640 C   0  0  0  0  0  3  0  0  0  0  0  0
   40.5150   26.4610   35.2040 H   0  0  0  0  0  0  0  0  0  0  0  0
  1  4  1  0  0  0  0
  2  1  1  0  0  0  0
  3  1  1  0  0  0  0
  4  9  2  0  0  0  0
  4  5  1  0  0  0  0
  5  6  2  0  0  0  0
  6  7  1  0  0  0  0
  6 11  1  0  0  0  0
  8 12  1  0  0  0  0
  8  7  2  0  0  0  0
  9  8  1  0  0  0  0
 10  5  1  0  0  0  0
 13 16  1  0  0  0  0
 13 15  1  0  0  0  0
 13  1  1  0  0  0  0
 14 13  1  0  0  0  0
 16 20  1  0  0  0  0
 17 16  1  0  0  0  0
 17 18  1  0  0  0  0
 18 19  1  0  0  0  0
 20 21  1  0  0  0  0
 20 19  1  0  0  0  0
M  END
>  <minimizedAffinity>
-3.99473953

$$$$

 OpenBabel03272504003D

 21 22  0  0  0  0  0  0  0  0999 V2000
   38.1780   23.1960   34.5310 C   0  0  0  0  0  0  0  0  0  0  0  0
   37.3410   23.9420   34.3730 H   0  0  0  0  0  0  0  0  0  0  0  0
   38.9960   23.6000   33.9180 H   0  0  0  0  0  0  0  0  0  0  0  0
   38.4360   23.2740   35.9740 C   0  0  0  0  0  0  0  0  0  0  0  0
   37.6260   23.9100   36.9080 C   0  0  0  0  0  0  0  0  0  0  0  0
   37.9810   23.9250   38.2460 C   0  0  0  0  0  0  0  0  0  0  0  0
   39.1480   23.2940   38.5880 N   0  0  0  0  0  0  0  0  0  0  0  0
   39.9270   22.6790   37.6740 C   0  0  0  0  0  0  0  0  0  0  0  0
   39.5560   22.6830   36.3980 N   0  0  0  0  0  0  0  0  0  0  0  0
   36.7240   24.3780   36.5300 H   0  0  0  0  0  0  0  0  0  0  0  0
   37.3340   24.4210   38.9290 H   0  0  0  0  0  0  0  0  0  0  0  0
   40.8330   22.2030   38.0290 H   0  0  0  0  0  0  0  0  0  0  0  0
   37.7980   21.8320   34.0780 C   0  0  0  0  0  0  0  0  0  0  0  0
   38.0630   21.1160   34.9090 H   0  0  0  0  0  0  0  0  0  0  0  0
   38.4990   21.5830   33.2320 H   0  0  0  0  0  0  0  0  0  0  0  0
   36.4990   21.6070   33.6570 N   0  0  0  0  0  0  0  0  0  0  0  0
   36.0810   21.8490   32.3450 C   0  0  0  0  0  2  0  0  0  0  0  0
   35.3180   20.5920   31.9120 C   0  0  0  0  0  2  0  0  0  0  0  0
   35.4330   19.6630   33.0910 C   0  0  0  0  0  2  0  0  0  0  0  0
   35.7150   20.5890   34.2510 C   0  0  0  0  0  3  0  0  0  0  0  0
   36.1340   20.1050   35.1310 H   0  0  0  0  0  0  0  0  0  0  0  0
  1  4  1  0  0  0  0
  2  1  1  0  0  0  0
  3  1  1  0  0  0  0
  4  9  2  0  0  0  0
  4  5  1  0  0  0  0
  5  6  2  0  0  0  0
  6  7  1  0  0  0  0
  6 11  1  0  0  0  0
  8 12  1  0  0  0  0
  8  7  2  0  0  0  0
  9  8  1  0  0  0  0
 10  5  1  0  0  0  0
 13  1  1  0  0  0  0
 13 14  1  0  0  0  0
 15 13  1  0  0  0  0
 16 13  1  0  0  0  0
 16 20  1  0  0  0  0
 17 16  1  0  0  0  0
 18 17  1  0  0  0  0
 18 19  1  0  0  0  0
 19 20  1  0  0  0  0
 20 21  1  0  0  0  0
M  END
>  <minimizedAffinity>
-3.9005177

$$$$

 OpenBabel03272504003D

 21 22  0  0  0  0  0  0  0  0999 V2000
   38.1720   26.5350   35.7970 C   0  0  0  0  0  0  0  0  0  0  0  0
   38.8360   27.4130   36.0630 H   0  0  0  0  0  0  0  0  0  0  0  0
   37.5640   26.3940   36.7020 H   0  0  0  0  0  0  0  0  0  0  0  0
   37.4020   27.0260   34.6480 C   0  0  0  0  0  0  0  0  0  0  0  0
   36.6960   28.2230   34.5980 C   0  0  0  0  0  0  0  0  0  0  0  0
   35.9970   28.5750   33.4550 C   0  0  0  0  0  0  0  0  0  0  0  0
   36.0400   27.6990   32.4040 N   0  0  0  0  0  0  0  0  0  0  0  0
   36.7290   26.5400   32.4610 C   0  0  0  0  0  0  0  0  0  0  0  0
   37.3890   26.2330   33.5740 N   0  0  0  0  0  0  0  0  0  0  0  0
   36.7300   28.8440   35.4860 H   0  0  0  0  0  0  0  0  0  0  0  0
   35.4720   29.5000   33.4570 H   0  0  0  0  0  0  0  0  0  0  0  0
   36.7110   25.9040   31.5850 H   0  0  0  0  0  0  0  0  0  0  0  0
   38.9620   25.3140   35.4920 C   0  0  0  0  0  0  0  0  0  0  0  0
   40.0520   25.5860   35.5880 H   0  0  0  0  0  0  0  0  0  0  0  0
   38.7990   25.1080   34.3960 H   0  0  0  0  0  0  0  0  0  0  0  0
   38.7000   24.1550   36.2020 N   0  0  0  0  0  0  0  0  0  0  0  0
   39.7080   23.2680   36.5930 C   0  0  0  0  0  2  0  0  0  0  0  0
   39.4570   22.9780   38.0770 C   0  0  0  0  0  2  0  0  0  0  0  0
   38.2720   23.8380   38.4270 C   0  0  0  0  0  2  0  0  0  0  0  0
   37.6040   24.0910   37.0960 C   0  0  0  0  0  3  0  0  0  0  0  0
   36.9160   24.9330   37.0810 H   0  0  0  0  0  0  0  0  0  0  0  0
  1  2  1  0  0  0  0
  1  3  1  0  0  0  0
  4  1  1  0  0  0  0
  5  4  1  0  0  0  0
  5 10  1  0  0  0  0
  6 11  1  0  0  0  0
  6  5  2  0  0  0  0
  7  8  2  0  0  0  0
  7  6  1  0  0  0  0
  8  9  1  0  0  0  0
  9  4  2  0  0  0  0
 12  8  1  0  0  0  0
 13 14  1  0  0  0  0
 13  1  1  0  0  0  0
 13 16  1  0  0  0  0
 15 13  1  0  0  0  0
 16 17  1  0  0  0  0
 16 20  1  0  0  0  0
 17 18  1  0  0  0  0
 18 19  1  0  0  0  0
 20 19  1  0  0  0  0
 21 20  1  0  0  0  0
M  END
>  <minimizedAffinity>
-3.89414835

$$$$

 OpenBabel03272504003D

 21 22  0  0  0  0  0  0  0  0999 V2000
   38.0340   21.8170   34.3100 C   0  0  0  0  0  0  0  0  0  0  0  0
   38.6360   20.8580   34.2950 H   0  0  0  0  0  0  0  0  0  0  0  0
   38.7620   22.5770   33.9890 H   0  0  0  0  0  0  0  0  0  0  0  0
   36.9760   21.5690   33.3240 C   0  0  0  0  0  0  0  0  0  0  0  0
   35.9310   20.6620   33.4680 C   0  0  0  0  0  0  0  0  0  0  0  0
   34.9950   20.5090   32.4590 C   0  0  0  0  0  0  0  0  0  0  0  0
   35.1520   21.2830   31.3400 N   0  0  0  0  0  0  0  0  0  0  0  0
   36.1690   22.1610   31.2100 C   0  0  0  0  0  0  0  0  0  0  0  0
   37.0500   22.2830   32.1980 N   0  0  0  0  0  0  0  0  0  0  0  0
   35.9000   20.1000   34.3950 H   0  0  0  0  0  0  0  0  0  0  0  0
   34.2110   19.8060   32.6090 H   0  0  0  0  0  0  0  0  0  0  0  0
   36.2190   22.7340   30.2930 H   0  0  0  0  0  0  0  0  0  0  0  0
   37.5090   22.1230   35.6670 C   0  0  0  0  0  0  0  0  0  0  0  0
   37.4290   21.1450   36.2240 H   0  0  0  0  0  0  0  0  0  0  0  0
   36.4490   22.4700   35.5140 H   0  0  0  0  0  0  0  0  0  0  0  0
   38.1730   23.0560   36.4440 N   0  0  0  0  0  0  0  0  0  0  0  0
   37.6750   23.5040   37.6710 C   0  0  0  0  0  2  0  0  0  0  0  0
   38.8460   23.4120   38.6560 C   0  0  0  0  0  2  0  0  0  0  0  0
   39.9680   22.8220   37.8430 C   0  0  0  0  0  2  0  0  0  0  0  0
   39.5860   23.1420   36.4170 C   0  0  0  0  0  3  0  0  0  0  0  0
   40.0940   22.5450   35.6630 H   0  0  0  0  0  0  0  0  0  0  0  0
  1 13  1  0  0  0  0
  2  1  1  0  0  0  0
  3  1  1  0  0  0  0
  4  5  1  0  0  0  0
  4  1  1  0  0  0  0
  5 10  1  0  0  0  0
  6 11  1  0  0  0  0
  6  5  2  0  0  0  0
  7  6  1  0  0  0  0
  8  7  2  0  0  0  0
  8  9  1  0  0  0  0
  9  4  2  0  0  0  0
 12  8  1  0  0  0  0
 13 14  1  0  0  0  0
 13 16  1  0  0  0  0
 15 13  1  0  0  0  0
 16 17  1  0  0  0  0
 17 18  1  0  0  0  0
 19 18  1  0  0  0  0
 20 16  1  0  0  0  0
 20 19  1  0  0  0  0
 21 20  1  0  0  0  0
M  END
>  <minimizedAffinity>
-3.81138515

$$$$

 OpenBabel03272504003D

 21 22  0  0  0  0  0  0  0  0999 V2000
   37.9750   23.0130   34.4670 C   0  0  0  0  0  0  0  0  0  0  0  0
   36.8550   23.1410   34.5810 H   0  0  0  0  0  0  0  0  0  0  0  0
   38.2710   23.8920   33.8760 H   0  0  0  0  0  0  0  0  0  0  0  0
   38.4630   23.0480   35.8500 C   0  0  0  0  0  0  0  0  0  0  0  0
   39.6980   22.5780   36.2860 C   0  0  0  0  0  0  0  0  0  0  0  0
   40.0430   22.6580   37.6250 C   0  0  0  0  0  0  0  0  0  0  0  0
   39.1220   23.2110   38.4740 N   0  0  0  0  0  0  0  0  0  0  0  0
   37.9270   23.6650   38.0420 C   0  0  0  0  0  0  0  0  0  0  0  0
   37.6280   23.5730   36.7490 N   0  0  0  0  0  0  0  0  0  0  0  0
   40.3520   22.1600   35.5300 H   0  0  0  0  0  0  0  0  0  0  0  0
   40.9970   22.2890   37.9160 H   0  0  0  0  0  0  0  0  0  0  0  0
   37.2570   24.0890   38.7790 H   0  0  0  0  0  0  0  0  0  0  0  0
   38.3200   21.7530   33.7570 C   0  0  0  0  0  0  0  0  0  0  0  0
   38.7760   21.0540   34.5150 H   0  0  0  0  0  0  0  0  0  0  0  0
   39.1560   22.0190   33.0500 H   0  0  0  0  0  0  0  0  0  0  0  0
   37.3310   21.0980   33.0440 N   0  0  0  0  0  0  0  0  0  0  0  0
   36.0340   20.9280   33.5380 C   0  0  0  0  0  2  0  0  0  0  0  0
   35.0960   21.3550   32.4040 C   0  0  0  0  0  2  0  0  0  0  0  0
   36.0220   21.8140   31.3100 C   0  0  0  0  0  2  0  0  0  0  0  0
   37.3260   21.1220   31.6290 C   0  0  0  0  0  3  0  0  0  0  0  0
   38.2020   21.5530   31.1490 H   0  0  0  0  0  0  0  0  0  0  0  0
  1  2  1  0  0  0  0
  1  4  1  0  0  0  0
  3  1  1  0  0  0  0
  4  5  2  0  0  0  0
  4  9  1  0  0  0  0
  5  6  1  0  0  0  0
  6 11  1  0  0  0  0
  6  7  2  0  0  0  0
  8  7  1  0  0  0  0
  8 12  1  0  0  0  0
  9  8  2  0  0  0  0
 10  5  1  0  0  0  0
 13  1  1  0  0  0  0
 13 14  1  0  0  0  0
 15 13  1  0  0  0  0
 16 17  1  0  0  0  0
 16 13  1  0  0  0  0
 18 17  1  0  0  0  0
 19 20  1  0  0  0  0
 19 18  1  0  0  0  0
 20 16  1  0  0  0  0
 21 20  1  0  0  0  0
M  END
>  <minimizedAffinity>
-3.70104623

$$$$

 OpenBabel03272504003D

 21 22  0  0  0  0  0  0  0  0999 V2000
   38.5800   24.1410   34.5000 C   0  0  0  0  0  0  0  0  0  0  0  0
   39.4510   23.6390   33.9790 H   0  0  0  0  0  0  0  0  0  0  0  0
   37.7020   23.6510   34.0540 H   0  0  0  0  0  0  0  0  0  0  0  0
   38.7850   23.7980   35.9130 C   0  0  0  0  0  0  0  0  0  0  0  0
   39.8500   23.0630   36.4220 C   0  0  0  0  0  0  0  0  0  0  0  0
   39.9290   22.7940   37.7780 C   0  0  0  0  0  0  0  0  0  0  0  0
   38.9230   23.2820   38.5690 N   0  0  0  0  0  0  0  0  0  0  0  0
   37.8940   23.9950   38.0660 C   0  0  0  0  0  0  0  0  0  0  0  0
   37.8490   24.2350   36.7590 N   0  0  0  0  0  0  0  0  0  0  0  0
   40.5920   22.7250   35.7070 H   0  0  0  0  0  0  0  0  0  0  0  0
   40.7600   22.2300   38.1260 H   0  0  0  0  0  0  0  0  0  0  0  0
   37.1410   24.3450   38.7620 H   0  0  0  0  0  0  0  0  0  0  0  0
   38.5550   25.6060   34.2520 C   0  0  0  0  0  0  0  0  0  0  0  0
   39.2910   25.8200   33.4250 H   0  0  0  0  0  0  0  0  0  0  0  0
   38.9930   26.0810   35.1750 H   0  0  0  0  0  0  0  0  0  0  0  0
   37.3430   26.2160   33.9750 N   0  0  0  0  0  0  0  0  0  0  0  0
   36.8390   27.2710   34.7410 C   0  0  0  0  0  2  0  0  0  0  0  0
   36.4070   28.3460   33.7390 C   0  0  0  0  0  2  0  0  0  0  0  0
   36.7890   27.7770   32.3980 C   0  0  0  0  0  2  0  0  0  0  0  0
   36.8620   26.2890   32.6460 C   0  0  0  0  0  3  0  0  0  0  0  0
   37.4160   25.7270   31.8980 H   0  0  0  0  0  0  0  0  0  0  0  0
  1  4  1  0  0  0  0
  2  1  1  0  0  0  0
  3  1  1  0  0  0  0
  4  5  2  0  0  0  0
  4  9  1  0  0  0  0
  5  6  1  0  0  0  0
  6 11  1  0  0  0  0
  6  7  2  0  0  0  0
  8  7  1  0  0  0  0
  8 12  1  0  0  0  0
  9  8  2  0  0  0  0
 10  5  1  0  0  0  0
 13  1  1  0  0  0  0
 13 15  1  0  0  0  0
 14 13  1  0  0  0  0
 16 13  1  0  0  0  0
 16 17  1  0  0  0  0
 18 17  1  0  0  0  0
 19 20  1  0  0  0  0
 19 18  1  0  0  0  0
 20 16  1  0  0  0  0
 21 20  1  0  0  0  0
M  END
>  <minimizedAffinity>
-3.68255639

$$$$

 OpenBabel03272504003D

 21 22  0  0  0  0  0  0  0  0999 V2000
   39.0260   24.6600   34.3320 C   0  0  0  0  0  0  0  0  0  0  0  0
   39.7320   25.5430   34.4000 H   0  0  0  0  0  0  0  0  0  0  0  0
   39.5720   23.9490   33.6950 H   0  0  0  0  0  0  0  0  0  0  0  0
   38.9000   24.2180   35.7260 C   0  0  0  0  0  0  0  0  0  0  0  0
   37.9430   24.6610   36.6330 C   0  0  0  0  0  0  0  0  0  0  0  0
   37.9310   24.1750   37.9300 C   0  0  0  0  0  0  0  0  0  0  0  0
   38.8920   23.2560   38.2590 N   0  0  0  0  0  0  0  0  0  0  0  0
   39.8150   22.8320   37.3720 C   0  0  0  0  0  0  0  0  0  0  0  0
   39.7980   23.3190   36.1350 N   0  0  0  0  0  0  0  0  0  0  0  0
   37.2290   25.3900   36.2670 H   0  0  0  0  0  0  0  0  0  0  0  0
   37.1820   24.5380   38.5910 H   0  0  0  0  0  0  0  0  0  0  0  0
   40.5390   22.1020   37.7140 H   0  0  0  0  0  0  0  0  0  0  0  0
   37.7260   25.0350   33.7180 C   0  0  0  0  0  0  0  0  0  0  0  0
   37.7050   26.1600   33.6360 H   0  0  0  0  0  0  0  0  0  0  0  0
   36.9390   24.7740   34.4810 H   0  0  0  0  0  0  0  0  0  0  0  0
   37.3720   24.4660   32.5060 N   0  0  0  0  0  0  0  0  0  0  0  0
   37.0680   23.1080   32.3730 C   0  0  0  0  0  2  0  0  0  0  0  0
   35.7570   23.0480   31.5820 C   0  0  0  0  0  2  0  0  0  0  0  0
   35.3840   24.4920   31.3740 C   0  0  0  0  0  2  0  0  0  0  0  0
   36.6950   25.2280   31.5240 C   0  0  0  0  0  3  0  0  0  0  0  0
   36.6020   26.2950   31.7160 H   0  0  0  0  0  0  0  0  0  0  0  0
  1  2  1  0  0  0  0
  1  4  1  0  0  0  0
  3  1  1  0  0  0  0
  4  9  2  0  0  0  0
  4  5  1  0  0  0  0
  5  6  2  0  0  0  0
  6  7  1  0  0  0  0
  6 11  1  0  0  0  0
  8 12  1  0  0  0  0
  8  7  2  0  0  0  0
  9  8  1  0  0  0  0
 10  5  1  0  0  0  0
 13  1  1  0  0  0  0
 13 15  1  0  0  0  0
 14 13  1  0  0  0  0
 16 13  1  0  0  0  0
 17 16  1  0  0  0  0
 18 17  1  0  0  0  0
 19 20  1  0  0  0  0
 19 18  1  0  0  0  0
 20 21  1  0  0  0  0
 20 16  1  0  0  0  0
M  END
>  <minimizedAffinity>
-3.6641798

$$$$

 OpenBabel03272504003D

 21 22  0  0  0  0  0  0  0  0999 V2000
   35.6150   23.3410   31.1700 C   0  0  0  0  0  0  0  0  0  0  0  0
   34.8480   23.0180   31.9380 H   0  0  0  0  0  0  0  0  0  0  0  0
   35.0590   23.2930   30.2220 H   0  0  0  0  0  0  0  0  0  0  0  0
   35.9530   24.7080   31.5800 C   0  0  0  0  0  0  0  0  0  0  0  0
   35.4140   25.8720   31.0420 C   0  0  0  0  0  0  0  0  0  0  0  0
   35.8210   27.1110   31.5080 C   0  0  0  0  0  0  0  0  0  0  0  0
   36.7620   27.1240   32.5030 N   0  0  0  0  0  0  0  0  0  0  0  0
   37.2790   25.9900   33.0190 C   0  0  0  0  0  0  0  0  0  0  0  0
   36.8650   24.8170   32.5490 N   0  0  0  0  0  0  0  0  0  0  0  0
   34.6750   25.7480   30.2590 H   0  0  0  0  0  0  0  0  0  0  0  0
   35.3840   27.9760   31.0720 H   0  0  0  0  0  0  0  0  0  0  0  0
   38.0180   26.0890   33.8050 H   0  0  0  0  0  0  0  0  0  0  0  0
   36.7900   22.4310   31.1440 C   0  0  0  0  0  0  0  0  0  0  0  0
   37.6640   22.9990   31.5740 H   0  0  0  0  0  0  0  0  0  0  0  0
   37.0360   22.2780   30.0550 H   0  0  0  0  0  0  0  0  0  0  0  0
   36.6870   21.1910   31.7510 N   0  0  0  0  0  0  0  0  0  0  0  0
   36.6460   21.0340   33.1400 C   0  0  0  0  0  2  0  0  0  0  0  0
   35.4680   20.0950   33.4200 C   0  0  0  0  0  2  0  0  0  0  0  0
   34.8720   19.8330   32.0620 C   0  0  0  0  0  2  0  0  0  0  0  0
   36.0060   20.1290   31.1090 C   0  0  0  0  0  3  0  0  0  0  0  0
   35.7040   20.3000   30.0780 H   0  0  0  0  0  0  0  0  0  0  0  0
  1  4  1  0  0  0  0
  1  2  1  0  0  0  0
  3  1  1  0  0  0  0
  4  9  1  0  0  0  0
  5  6  1  0  0  0  0
  5  4  2  0  0  0  0
  6  7  2  0  0  0  0
  7  8  1  0  0  0  0
  8 12  1  0  0  0  0
  9  8  2  0  0  0  0
 10  5  1  0  0  0  0
 11  6  1  0  0  0  0
 13  1  1  0  0  0  0
 13 14  1  0  0  0  0
 13 16  1  0  0  0  0
 15 13  1  0  0  0  0
 16 17  1  0  0  0  0
 17 18  1  0  0  0  0
 19 18  1  0  0  0  0
 20 16  1  0  0  0  0
 20 19  1  0  0  0  0
 21 20  1  0  0  0  0
M  END
>  <minimizedAffinity>
-3.66240168

$$$$

 OpenBabel03272504003D

 21 22  0  0  0  0  0  0  0  0999 V2000
   38.6170   25.5880   34.3800 C   0  0  0  0  0  0  0  0  0  0  0  0
   39.2060   24.7290   33.9350 H   0  0  0  0  0  0  0  0  0  0  0  0
   39.3700   26.3810   34.4910 H   0  0  0  0  0  0  0  0  0  0  0  0
   37.6100   25.8780   33.3520 C   0  0  0  0  0  0  0  0  0  0  0  0
   37.1500   27.1430   33.0030 C   0  0  0  0  0  0  0  0  0  0  0  0
   36.1860   27.2900   32.0190 C   0  0  0  0  0  0  0  0  0  0  0  0
   35.7240   26.1460   31.4250 N   0  0  0  0  0  0  0  0  0  0  0  0
   36.1770   24.9230   31.7700 C   0  0  0  0  0  0  0  0  0  0  0  0
   37.1030   24.8180   32.7180 N   0  0  0  0  0  0  0  0  0  0  0  0
   37.5840   27.9820   33.5360 H   0  0  0  0  0  0  0  0  0  0  0  0
   35.8630   28.2740   31.7810 H   0  0  0  0  0  0  0  0  0  0  0  0
   35.7600   24.0700   31.2500 H   0  0  0  0  0  0  0  0  0  0  0  0
   38.0230   25.2300   35.6950 C   0  0  0  0  0  0  0  0  0  0  0  0
   36.9100   25.3990   35.6180 H   0  0  0  0  0  0  0  0  0  0  0  0
   38.3960   26.0060   36.4210 H   0  0  0  0  0  0  0  0  0  0  0  0
   38.2750   23.9750   36.2210 N   0  0  0  0  0  0  0  0  0  0  0  0
   39.5000   23.3220   36.0560 C   0  0  0  0  0  2  0  0  0  0  0  0
   39.9020   22.8270   37.4490 C   0  0  0  0  0  2  0  0  0  0  0  0
   38.8080   23.3340   38.3520 C   0  0  0  0  0  2  0  0  0  0  0  0
   37.6430   23.5550   37.4160 C   0  0  0  0  0  3  0  0  0  0  0  0
   36.8610   24.2030   37.8050 H   0  0  0  0  0  0  0  0  0  0  0  0
  1  3  1  0  0  0  0
  1 13  1  0  0  0  0
  2  1  1  0  0  0  0
  4  1  1  0  0  0  0
  5  4  1  0  0  0  0
  5 10  1  0  0  0  0
  6  5  2  0  0  0  0
  7  8  2  0  0  0  0
  7  6  1  0  0  0  0
  8  9  1  0  0  0  0
  9  4  2  0  0  0  0
 11  6  1  0  0  0  0
 12  8  1  0  0  0  0
 13 16  1  0  0  0  0
 13 15  1  0  0  0  0
 14 13  1  0  0  0  0
 16 20  1  0  0  0  0
 17 16  1  0  0  0  0
 17 18  1  0  0  0  0
 18 19  1  0  0  0  0
 20 21  1  0  0  0  0
 20 19  1  0  0  0  0
M  END
>  <minimizedAffinity>
-3.63123608

$$$$
