
 OpenBabel03272510323D

 25 27  0  0  0  0  0  0  0  0999 V2000
   35.7140   30.0450   47.9880 C   0  0  0  0  0  0  0  0  0  0  0  0
   34.9570   30.1670   46.8480 C   0  0  0  0  0  0  0  0  0  0  0  0
   33.8790   29.3250   46.6090 C   0  0  0  0  0  0  0  0  0  0  0  0
   33.5930   28.3540   47.5630 C   0  0  0  0  0  0  0  0  0  0  0  0
   34.3370   28.2120   48.7120 C   0  0  0  0  0  0  0  0  0  0  0  0
   35.4030   29.0670   48.9160 C   0  0  0  0  0  0  0  0  0  0  0  0
   35.1510   30.9110   46.0850 H   0  0  0  0  0  0  0  0  0  0  0  0
   33.2940   29.4240   45.7230 H   0  0  0  0  0  0  0  0  0  0  0  0
   32.7510   27.6780   47.4020 H   0  0  0  0  0  0  0  0  0  0  0  0
   34.1290   27.4600   49.4670 H   0  0  0  0  0  0  0  0  0  0  0  0
   37.6660   32.8100   49.3000 C   0  0  0  0  0  0  0  0  0  0  0  0
   38.8440   32.8080   48.5560 C   0  0  0  0  0  0  0  0  0  0  0  0
   38.9520   31.8110   47.5730 C   0  0  0  0  0  0  0  0  0  0  0  0
   37.9440   30.9170   47.3880 N   0  0  0  0  0  0  0  0  0  0  0  0
   36.8200   30.9740   48.1470 C   0  0  0  0  0  0  0  0  0  0  0  0
   36.6790   31.9290   49.1120 N   0  0  0  0  0  0  0  0  0  0  0  0
   37.5020   33.5480   50.0800 H   0  0  0  0  0  0  0  0  0  0  0  0
   39.6040   33.5330   48.7420 H   0  0  0  0  0  0  0  0  0  0  0  0
   39.8570   31.7780   46.9740 H   0  0  0  0  0  0  0  0  0  0  0  0
   36.2250   28.9910   50.0760 N   0  0  0  0  0  0  0  0  0  0  0  0
   35.8120   29.1910   51.4690 C   0  0  0  0  0  2  0  0  0  0  0  0
   36.8260   30.2640   51.8820 C   0  0  0  0  0  2  0  0  0  0  0  0
   38.1090   29.5800   51.4170 C   0  0  0  0  0  2  0  0  0  0  0  0
   37.6240   28.7200   50.2910 C   0  0  0  0  0  3  0  0  0  0  0  0
   37.6950   27.6620   50.6130 H   0  0  0  0  0  0  0  0  0  0  0  0
  1 15  1  0  0  0  0
  1  6  1  0  0  0  0
  2  1  2  0  0  0  0
  3  2  1  0  0  0  0
  3  4  2  0  0  0  0
  4  5  1  0  0  0  0
  5  6  2  0  0  0  0
  5 10  1  0  0  0  0
  6 20  1  0  0  0  0
  7  2  1  0  0  0  0
  8  3  1  0  0  0  0
  9  4  1  0  0  0  0
 11 17  1  0  0  0  0
 12 18  1  0  0  0  0
 12 11  2  0  0  0  0
 13 12  1  0  0  0  0
 14 13  2  0  0  0  0
 14 15  1  0  0  0  0
 15 16  2  0  0  0  0
 16 11  1  0  0  0  0
 19 13  1  0  0  0  0
 20 24  1  0  0  0  0
 20 21  1  0  0  0  0
 21 22  1  0  0  0  0
 23 22  1  0  0  0  0
 24 25  1  0  0  0  0
 24 23  1  0  0  0  0
M  END
>  <minimizedAffinity>
-4.42177439

>  <minimizedRMSD>
0.924957156

$$$$
