
 OpenBabel03272510323D

 25 27  0  0  0  0  0  0  0  0999 V2000
   36.0070   30.1840   48.4360 C   0  0  0  0  0  0  0  0  0  0  0  0
   35.0370   30.1640   47.4630 C   0  0  0  0  0  0  0  0  0  0  0  0
   33.9560   29.2960   47.5460 C   0  0  0  0  0  0  0  0  0  0  0  0
   33.8890   28.4490   48.6470 C   0  0  0  0  0  0  0  0  0  0  0  0
   34.8490   28.4510   49.6340 C   0  0  0  0  0  0  0  0  0  0  0  0
   35.9100   29.3270   49.5180 C   0  0  0  0  0  0  0  0  0  0  0  0
   35.0570   30.8080   46.5930 H   0  0  0  0  0  0  0  0  0  0  0  0
   33.2050   29.2840   46.7880 H   0  0  0  0  0  0  0  0  0  0  0  0
   33.0510   27.7560   48.7390 H   0  0  0  0  0  0  0  0  0  0  0  0
   34.8130   27.7970   50.5000 H   0  0  0  0  0  0  0  0  0  0  0  0
   38.1170   33.0820   49.0060 C   0  0  0  0  0  0  0  0  0  0  0  0
   39.1140   33.0020   48.0370 C   0  0  0  0  0  0  0  0  0  0  0  0
   39.0410   31.9020   47.1660 C   0  0  0  0  0  0  0  0  0  0  0  0
   38.0400   30.9910   47.2920 N   0  0  0  0  0  0  0  0  0  0  0  0
   37.0970   31.1280   48.2590 C   0  0  0  0  0  0  0  0  0  0  0  0
   37.1350   32.1830   49.1250 N   0  0  0  0  0  0  0  0  0  0  0  0
   38.0990   33.9010   49.7200 H   0  0  0  0  0  0  0  0  0  0  0  0
   39.8780   33.7450   47.9810 H   0  0  0  0  0  0  0  0  0  0  0  0
   39.8020   31.8070   46.3970 H   0  0  0  0  0  0  0  0  0  0  0  0
   36.9470   29.3950   50.4920 N   0  0  0  0  0  0  0  0  0  0  0  0
   38.2310   28.6880   50.4690 C   0  0  0  0  0  2  0  0  0  0  0  0
   38.1720   28.0150   51.8450 C   0  0  0  0  0  2  0  0  0  0  0  0
   37.8360   29.2340   52.7000 C   0  0  0  0  0  2  0  0  0  0  0  0
   37.1050   30.1120   51.7330 C   0  0  0  0  0  3  0  0  0  0  0  0
   37.7460   30.9880   51.5120 H   0  0  0  0  0  0  0  0  0  0  0  0
  1  6  1  0  0  0  0
  2  3  1  0  0  0  0
  2  1  2  0  0  0  0
  3  4  2  0  0  0  0
  4  9  1  0  0  0  0
  4  5  1  0  0  0  0
  5 10  1  0  0  0  0
  6  5  2  0  0  0  0
  6 20  1  0  0  0  0
  7  2  1  0  0  0  0
  8  3  1  0  0  0  0
 11 16  1  0  0  0  0
 11 17  1  0  0  0  0
 12 11  2  0  0  0  0
 13 14  2  0  0  0  0
 13 12  1  0  0  0  0
 14 15  1  0  0  0  0
 15  1  1  0  0  0  0
 15 16  2  0  0  0  0
 18 12  1  0  0  0  0
 19 13  1  0  0  0  0
 20 24  1  0  0  0  0
 21 20  1  0  0  0  0
 21 22  1  0  0  0  0
 22 23  1  0  0  0  0
 24 23  1  0  0  0  0
 25 24  1  0  0  0  0
M  END
>  <minimizedAffinity>
-3.62909532

>  <minimizedRMSD>
0.733816385

$$$$
