
 OpenBabel03272507203D

 27 29  0  0  1  0  0  0  0  0999 V2000
   37.4280   23.8020   32.7010 C   0  0  0  0  0  0  0  0  0  0  0  0
   37.2880   25.1700   32.4900 C   0  0  0  0  0  0  0  0  0  0  0  0
   37.6700   25.9690   33.5650 C   0  0  0  0  0  0  0  0  0  0  0  0
   38.1460   25.4180   34.7300 N   0  0  0  0  0  0  0  0  0  0  0  0
   38.2640   24.0720   34.8870 C   0  0  0  0  0  0  0  0  0  0  0  0
   37.8960   23.2600   33.8480 N   0  0  0  0  0  0  0  0  0  0  0  0
   36.9120   25.5800   31.5650 H   0  0  0  0  0  0  0  0  0  0  0  0
   37.5900   27.0560   33.4800 H   0  0  0  0  0  0  0  0  0  0  0  0
   38.7620   23.5610   36.1160 N   0  0  0  0  0  0  0  0  0  0  0  0
   40.1810   23.3420   36.3180 C   0  0  0  0  0  2  0  0  0  0  0  0
   40.2360   22.6430   37.6790 C   0  0  0  0  0  2  0  0  0  0  0  0
   39.0640   23.3050   38.3750 C   0  0  0  0  0  2  0  0  0  0  0  0
   37.9980   23.2000   37.2850 C   0  0  0  0  0  3  0  0  0  0  0  0
   37.1850   23.9120   37.5340 H   0  0  0  0  0  0  0  0  0  0  0  0
   37.0430   22.9130   31.5550 C   0  0  1  0  0  0  0  0  0  0  0  0
   36.0590   21.8430   31.7070 C   0  0  2  0  0  0  0  0  0  0  0  0
   35.5780   23.1400   31.1250 C   0  0  0  0  0  0  0  0  0  0  0  0
   37.7500   22.9640   30.6930 H   0  0  0  0  0  0  0  0  0  0  0  0
   36.2980   20.9520   31.0610 H   0  0  0  0  0  0  0  0  0  0  0  0
   34.9400   23.7900   31.7420 H   0  0  0  0  0  0  0  0  0  0  0  0
   35.3880   23.1360   30.0360 H   0  0  0  0  0  0  0  0  0  0  0  0
   35.6810   21.5080   33.0000 O   0  0  0  0  0  0  0  0  0  0  0  0
   35.5490   20.2890   33.5790 C   0  0  0  0  0  0  0  0  0  0  0  0
   35.4990   19.2350   32.9100 O   0  0  0  0  0  0  0  0  0  0  0  0
   35.4880   20.4670   34.9630 N   0  0  0  0  0  0  0  0  0  0  0  0
   36.4230   20.4700   35.4610 H   0  0  0  0  0  0  0  0  0  0  0  0
   34.4560   20.5590   35.1910 H   0  0  0  0  0  0  0  0  0  0  0  0
  1  6  1  0  0  0  0
  2  1  2  0  0  0  0
  2  3  1  0  0  0  0
  3  4  2  0  0  0  0
  4  5  1  0  0  0  0
  5  9  1  0  0  0  0
  6  5  2  0  0  0  0
  7  2  1  0  0  0  0
  8  3  1  0  0  0  0
  9 10  1  0  0  0  0
  9 13  1  0  0  0  0
 10 11  1  0  0  0  0
 11 12  1  0  0  0  0
 13 14  1  0  0  0  0
 13 12  1  0  0  0  0
 15 18  1  6  0  0  0
 15 16  1  0  0  0  0
 15  1  1  0  0  0  0
 16 19  1  6  0  0  0
 16 22  1  0  0  0  0
 17 15  1  0  0  0  0
 17 16  1  0  0  0  0
 17 20  1  0  0  0  0
 21 17  1  0  0  0  0
 22 23  1  0  0  0  0
 23 25  1  0  0  0  0
 24 23  2  0  0  0  0
 25 27  1  0  0  0  0
 25 26  1  0  0  0  0
M  END
>  <minimizedAffinity>
-5.07481575

$$$$

 OpenBabel03272507203D

 27 29  0  0  1  0  0  0  0  0999 V2000
   36.5560   22.4320   32.4320 C   0  0  0  0  0  0  0  0  0  0  0  0
   35.7830   22.9710   31.4090 C   0  0  0  0  0  0  0  0  0  0  0  0
   35.8530   24.3580   31.2930 C   0  0  0  0  0  0  0  0  0  0  0  0
   36.6350   25.1060   32.1390 N   0  0  0  0  0  0  0  0  0  0  0  0
   37.3740   24.5290   33.1250 C   0  0  0  0  0  0  0  0  0  0  0  0
   37.3250   23.1680   33.2650 N   0  0  0  0  0  0  0  0  0  0  0  0
   35.1760   22.3630   30.7560 H   0  0  0  0  0  0  0  0  0  0  0  0
   35.2740   24.8610   30.5130 H   0  0  0  0  0  0  0  0  0  0  0  0
   38.1630   25.3560   33.9690 N   0  0  0  0  0  0  0  0  0  0  0  0
   39.5360   25.6800   33.6330 C   0  0  0  0  0  2  0  0  0  0  0  0
   40.0330   26.4270   34.8740 C   0  0  0  0  0  2  0  0  0  0  0  0
   38.7580   27.1250   35.3030 C   0  0  0  0  0  2  0  0  0  0  0  0
   37.7640   25.9690   35.2130 C   0  0  0  0  0  3  0  0  0  0  0  0
   36.7420   26.3980   35.2000 H   0  0  0  0  0  0  0  0  0  0  0  0
   36.5180   20.9380   32.5720 C   0  0  1  0  0  0  0  0  0  0  0  0
   35.8270   20.2860   33.6830 C   0  0  2  0  0  0  0  0  0  0  0  0
   35.0900   20.3840   32.3790 C   0  0  0  0  0  0  0  0  0  0  0  0
   37.2670   20.4110   31.9350 H   0  0  0  0  0  0  0  0  0  0  0  0
   36.3440   19.3390   34.0060 H   0  0  0  0  0  0  0  0  0  0  0  0
   34.2530   21.0930   32.2980 H   0  0  0  0  0  0  0  0  0  0  0  0
   35.0110   19.4440   31.8010 H   0  0  0  0  0  0  0  0  0  0  0  0
   35.4260   21.0910   34.7410 O   0  0  0  0  0  0  0  0  0  0  0  0
   35.8730   21.1320   36.0200 C   0  0  0  0  0  0  0  0  0  0  0  0
   35.1600   20.7810   36.9850 O   0  0  0  0  0  0  0  0  0  0  0  0
   37.1840   21.6110   36.0110 N   0  0  0  0  0  0  0  0  0  0  0  0
   37.9350   20.8720   35.8990 H   0  0  0  0  0  0  0  0  0  0  0  0
   37.1020   22.6620   36.1280 H   0  0  0  0  0  0  0  0  0  0  0  0
  1 15  1  0  0  0  0
  1  6  1  0  0  0  0
  2  1  2  0  0  0  0
  3  2  1  0  0  0  0
  3  4  2  0  0  0  0
  4  5  1  0  0  0  0
  5  6  2  0  0  0  0
  5  9  1  0  0  0  0
  7  2  1  0  0  0  0
  8  3  1  0  0  0  0
  9 13  1  0  0  0  0
 10  9  1  0  0  0  0
 10 11  1  0  0  0  0
 11 12  1  0  0  0  0
 13 12  1  0  0  0  0
 14 13  1  0  0  0  0
 15 18  1  6  0  0  0
 15 16  1  0  0  0  0
 16 19  1  1  0  0  0
 16 22  1  0  0  0  0
 17 15  1  0  0  0  0
 17 16  1  0  0  0  0
 20 17  1  0  0  0  0
 21 17  1  0  0  0  0
 22 23  1  0  0  0  0
 23 24  2  0  0  0  0
 25 23  1  0  0  0  0
 25 27  1  0  0  0  0
 26 25  1  0  0  0  0
M  END
>  <minimizedAffinity>
-4.90671301

$$$$

 OpenBabel03272507203D

 27 29  0  0  1  0  0  0  0  0999 V2000
   39.5110   24.4450   34.4910 C   0  0  0  0  0  0  0  0  0  0  0  0
   40.6840   25.0000   34.9920 C   0  0  0  0  0  0  0  0  0  0  0  0
   40.8130   26.3720   34.7910 C   0  0  0  0  0  0  0  0  0  0  0  0
   39.8390   27.0940   34.1450 N   0  0  0  0  0  0  0  0  0  0  0  0
   38.7080   26.5030   33.6740 C   0  0  0  0  0  0  0  0  0  0  0  0
   38.5520   25.1550   33.8550 N   0  0  0  0  0  0  0  0  0  0  0  0
   41.4360   24.4130   35.4970 H   0  0  0  0  0  0  0  0  0  0  0  0
   41.7080   26.8860   35.1540 H   0  0  0  0  0  0  0  0  0  0  0  0
   37.7350   27.3020   33.0130 N   0  0  0  0  0  0  0  0  0  0  0  0
   36.6600   27.9360   33.7490 C   0  0  0  0  0  2  0  0  0  0  0  0
   35.7840   28.5330   32.6430 C   0  0  0  0  0  2  0  0  0  0  0  0
   36.8410   28.8870   31.6170 C   0  0  0  0  0  2  0  0  0  0  0  0
   37.6590   27.5960   31.6030 C   0  0  0  0  0  3  0  0  0  0  0  0
   38.6380   27.8180   31.1320 H   0  0  0  0  0  0  0  0  0  0  0  0
   39.3310   22.9710   34.7080 C   0  0  1  0  0  0  0  0  0  0  0  0
   38.4820   22.4470   35.7760 C   0  0  2  0  0  0  0  0  0  0  0  0
   37.8860   22.5230   34.4010 C   0  0  0  0  0  0  0  0  0  0  0  0
   40.0900   22.3460   34.1800 H   0  0  0  0  0  0  0  0  0  0  0  0
   38.8810   21.4840   36.2010 H   0  0  0  0  0  0  0  0  0  0  0  0
   37.1260   23.2910   34.1960 H   0  0  0  0  0  0  0  0  0  0  0  0
   37.7820   21.5580   33.8700 H   0  0  0  0  0  0  0  0  0  0  0  0
   38.0510   23.3470   36.7420 O   0  0  0  0  0  0  0  0  0  0  0  0
   38.4980   23.5450   38.0070 C   0  0  0  0  0  0  0  0  0  0  0  0
   38.0560   24.4610   38.7330 O   0  0  0  0  0  0  0  0  0  0  0  0
   39.4700   22.5820   38.2840 N   0  0  0  0  0  0  0  0  0  0  0  0
   39.1040   21.6700   38.6830 H   0  0  0  0  0  0  0  0  0  0  0  0
   40.3940   23.0260   38.0120 H   0  0  0  0  0  0  0  0  0  0  0  0
  1 15  1  0  0  0  0
  1  2  1  0  0  0  0
  2  7  1  0  0  0  0
  3  2  2  0  0  0  0
  3  8  1  0  0  0  0
  4  3  1  0  0  0  0
  5  6  1  0  0  0  0
  5  4  2  0  0  0  0
  6  1  2  0  0  0  0
  9  5  1  0  0  0  0
  9 10  1  0  0  0  0
 11 10  1  0  0  0  0
 12 11  1  0  0  0  0
 13 12  1  0  0  0  0
 13  9  1  0  0  0  0
 14 13  1  0  0  0  0
 15 18  1  6  0  0  0
 15 16  1  0  0  0  0
 16 19  1  1  0  0  0
 16 22  1  0  0  0  0
 17 15  1  0  0  0  0
 17 16  1  0  0  0  0
 20 17  1  0  0  0  0
 21 17  1  0  0  0  0
 22 23  1  0  0  0  0
 23 25  1  0  0  0  0
 23 24  2  0  0  0  0
 25 26  1  0  0  0  0
 27 25  1  0  0  0  0
M  END
>  <minimizedAffinity>
-4.80411291

$$$$

 OpenBabel03272507203D

 27 29  0  0  1  0  0  0  0  0999 V2000
   36.1690   23.8440   31.6260 C   0  0  0  0  0  0  0  0  0  0  0  0
   35.3490   24.6910   30.8880 C   0  0  0  0  0  0  0  0  0  0  0  0
   35.4530   26.0400   31.2200 C   0  0  0  0  0  0  0  0  0  0  0  0
   36.3100   26.4690   32.2050 N   0  0  0  0  0  0  0  0  0  0  0  0
   37.0920   25.5990   32.8990 C   0  0  0  0  0  0  0  0  0  0  0  0
   37.0110   24.2660   32.5960 N   0  0  0  0  0  0  0  0  0  0  0  0
   34.6840   24.3310   30.1180 H   0  0  0  0  0  0  0  0  0  0  0  0
   34.8410   26.7730   30.6860 H   0  0  0  0  0  0  0  0  0  0  0  0
   37.9580   26.1020   33.9070 N   0  0  0  0  0  0  0  0  0  0  0  0
   39.3150   26.5060   33.5970 C   0  0  0  0  0  2  0  0  0  0  0  0
   39.9120   26.8090   34.9750 C   0  0  0  0  0  2  0  0  0  0  0  0
   38.6890   27.3410   35.6930 C   0  0  0  0  0  2  0  0  0  0  0  0
   37.6570   26.2830   35.3060 C   0  0  0  0  0  3  0  0  0  0  0  0
   36.6490   26.7020   35.5030 H   0  0  0  0  0  0  0  0  0  0  0  0
   36.0950   22.3850   31.2810 C   0  0  1  0  0  0  0  0  0  0  0  0
   36.6290   21.3550   32.1700 C   0  0  2  0  0  0  0  0  0  0  0  0
   35.1540   21.6210   32.2360 C   0  0  0  0  0  0  0  0  0  0  0  0
   35.8590   22.1920   30.2080 H   0  0  0  0  0  0  0  0  0  0  0  0
   37.0530   20.4810   31.6000 H   0  0  0  0  0  0  0  0  0  0  0  0
   34.7510   22.1460   33.1150 H   0  0  0  0  0  0  0  0  0  0  0  0
   34.5080   20.8560   31.7670 H   0  0  0  0  0  0  0  0  0  0  0  0
   37.4340   21.7790   33.2190 O   0  0  0  0  0  0  0  0  0  0  0  0
   38.7740   21.6680   33.3870 C   0  0  0  0  0  0  0  0  0  0  0  0
   39.4520   20.8080   32.7850 O   0  0  0  0  0  0  0  0  0  0  0  0
   39.1830   22.6410   34.3010 N   0  0  0  0  0  0  0  0  0  0  0  0
   39.4340   23.5810   33.8790 H   0  0  0  0  0  0  0  0  0  0  0  0
   39.1420   22.1720   35.2520 H   0  0  0  0  0  0  0  0  0  0  0  0
  1  6  1  0  0  0  0
  2  3  1  0  0  0  0
  2  1  2  0  0  0  0
  3  4  2  0  0  0  0
  4  5  1  0  0  0  0
  5  9  1  0  0  0  0
  6  5  2  0  0  0  0
  7  2  1  0  0  0  0
  8  3  1  0  0  0  0
  9 13  1  0  0  0  0
 10  9  1  0  0  0  0
 10 11  1  0  0  0  0
 11 12  1  0  0  0  0
 13 14  1  0  0  0  0
 13 12  1  0  0  0  0
 15 18  1  6  0  0  0
 15  1  1  0  0  0  0
 15 16  1  0  0  0  0
 15 17  1  0  0  0  0
 16 19  1  6  0  0  0
 16 17  1  0  0  0  0
 16 22  1  0  0  0  0
 17 20  1  0  0  0  0
 21 17  1  0  0  0  0
 22 23  1  0  0  0  0
 23 25  1  0  0  0  0
 24 23  2  0  0  0  0
 25 27  1  0  0  0  0
 26 25  1  0  0  0  0
M  END
>  <minimizedAffinity>
-4.72933435

$$$$

 OpenBabel03272507203D

 27 29  0  0  1  0  0  0  0  0999 V2000
   38.0160   25.1850   35.9220 C   0  0  0  0  0  0  0  0  0  0  0  0
   38.3470   26.4850   36.2900 C   0  0  0  0  0  0  0  0  0  0  0  0
   38.9080   27.2550   35.2740 C   0  0  0  0  0  0  0  0  0  0  0  0
   39.1050   26.7410   34.0150 N   0  0  0  0  0  0  0  0  0  0  0  0
   38.7630   25.4610   33.7050 C   0  0  0  0  0  0  0  0  0  0  0  0
   38.2100   24.6790   34.6830 N   0  0  0  0  0  0  0  0  0  0  0  0
   38.1830   26.8670   37.2860 H   0  0  0  0  0  0  0  0  0  0  0  0
   39.1980   28.2890   35.4820 H   0  0  0  0  0  0  0  0  0  0  0  0
   38.9920   24.9860   32.3850 N   0  0  0  0  0  0  0  0  0  0  0  0
   37.9820   25.1200   31.3540 C   0  0  0  0  0  2  0  0  0  0  0  0
   38.5770   24.3390   30.1780 C   0  0  0  0  0  2  0  0  0  0  0  0
   40.0530   24.6140   30.3860 C   0  0  0  0  0  2  0  0  0  0  0  0
   40.1790   24.3380   31.8840 C   0  0  0  0  0  3  0  0  0  0  0  0
   41.1270   24.7940   32.2350 H   0  0  0  0  0  0  0  0  0  0  0  0
   37.3910   24.3340   36.9880 C   0  0  1  0  0  0  0  0  0  0  0  0
   38.0030   23.0830   37.4330 C   0  0  2  0  0  0  0  0  0  0  0  0
   38.2520   24.3040   38.2690 C   0  0  0  0  0  0  0  0  0  0  0  0
   36.3270   24.5920   37.1990 H   0  0  0  0  0  0  0  0  0  0  0  0
   37.2340   22.3120   37.7170 H   0  0  0  0  0  0  0  0  0  0  0  0
   39.2500   24.7650   38.2480 H   0  0  0  0  0  0  0  0  0  0  0  0
   37.6970   24.3510   39.2250 H   0  0  0  0  0  0  0  0  0  0  0  0
   39.0410   22.5770   36.6630 O   0  0  0  0  0  0  0  0  0  0  0  0
   40.3790   22.6030   36.8800 C   0  0  0  0  0  0  0  0  0  0  0  0
   41.1370   23.3910   36.2740 O   0  0  0  0  0  0  0  0  0  0  0  0
   40.6860   21.6400   37.8430 N   0  0  0  0  0  0  0  0  0  0  0  0
   40.6360   21.9730   38.8490 H   0  0  0  0  0  0  0  0  0  0  0  0
   40.9080   20.7570   37.2990 H   0  0  0  0  0  0  0  0  0  0  0  0
  1  2  1  0  0  0  0
  1 15  1  0  0  0  0
  2  7  1  0  0  0  0
  3  8  1  0  0  0  0
  3  2  2  0  0  0  0
  4  3  1  0  0  0  0
  5  4  2  0  0  0  0
  5  6  1  0  0  0  0
  6  1  2  0  0  0  0
  9  5  1  0  0  0  0
 10  9  1  0  0  0  0
 11 12  1  0  0  0  0
 11 10  1  0  0  0  0
 12 13  1  0  0  0  0
 13 14  1  0  0  0  0
 13  9  1  0  0  0  0
 15 18  1  1  0  0  0
 15 16  1  0  0  0  0
 15 17  1  0  0  0  0
 16 19  1  1  0  0  0
 16 17  1  0  0  0  0
 17 21  1  0  0  0  0
 20 17  1  0  0  0  0
 22 23  1  0  0  0  0
 22 16  1  0  0  0  0
 23 25  1  0  0  0  0
 24 23  2  0  0  0  0
 25 26  1  0  0  0  0
 27 25  1  0  0  0  0
M  END
>  <minimizedAffinity>
-4.68109989

$$$$

 OpenBabel03272507203D

 27 29  0  0  1  0  0  0  0  0999 V2000
   37.9420   24.3550   33.4110 C   0  0  0  0  0  0  0  0  0  0  0  0
   37.2540   25.3060   32.6640 C   0  0  0  0  0  0  0  0  0  0  0  0
   36.2680   24.7900   31.8260 C   0  0  0  0  0  0  0  0  0  0  0  0
   36.0190   23.4410   31.7650 N   0  0  0  0  0  0  0  0  0  0  0  0
   36.7200   22.5500   32.5170 C   0  0  0  0  0  0  0  0  0  0  0  0
   37.6960   23.0270   33.3500 N   0  0  0  0  0  0  0  0  0  0  0  0
   37.4680   26.3620   32.7290 H   0  0  0  0  0  0  0  0  0  0  0  0
   35.6820   25.4720   31.2040 H   0  0  0  0  0  0  0  0  0  0  0  0
   36.4160   21.1660   32.4100 N   0  0  0  0  0  0  0  0  0  0  0  0
   35.4210   20.5480   33.2640 C   0  0  0  0  0  2  0  0  0  0  0  0
   35.5470   19.0590   32.9260 C   0  0  0  0  0  2  0  0  0  0  0  0
   35.9120   19.1410   31.4580 C   0  0  0  0  0  2  0  0  0  0  0  0
   37.0020   20.2110   31.5010 C   0  0  0  0  0  3  0  0  0  0  0  0
   37.1450   20.5940   30.4700 H   0  0  0  0  0  0  0  0  0  0  0  0
   38.9980   24.8790   34.3390 C   0  0  1  0  0  0  0  0  0  0  0  0
   38.9380   24.6510   35.7810 C   0  0  2  0  0  0  0  0  0  0  0  0
   39.8130   23.7340   34.9780 C   0  0  0  0  0  0  0  0  0  0  0  0
   39.6500   25.6590   33.8790 H   0  0  0  0  0  0  0  0  0  0  0  0
   39.3580   25.5170   36.3660 H   0  0  0  0  0  0  0  0  0  0  0  0
   39.4850   22.6970   34.8170 H   0  0  0  0  0  0  0  0  0  0  0  0
   40.9020   23.9090   35.0690 H   0  0  0  0  0  0  0  0  0  0  0  0
   37.7470   24.1570   36.2960 O   0  0  0  0  0  0  0  0  0  0  0  0
   37.5280   23.1230   37.1450 C   0  0  0  0  0  0  0  0  0  0  0  0
   37.6890   23.2300   38.3800 O   0  0  0  0  0  0  0  0  0  0  0  0
   37.1210   22.0190   36.3940 N   0  0  0  0  0  0  0  0  0  0  0  0
   36.0770   21.9460   36.2250 H   0  0  0  0  0  0  0  0  0  0  0  0
   38.0110   21.4900   36.1630 H   0  0  0  0  0  0  0  0  0  0  0  0
  1 15  1  0  0  0  0
  2  7  1  0  0  0  0
  2  1  2  0  0  0  0
  3  2  1  0  0  0  0
  4  3  2  0  0  0  0
  4  5  1  0  0  0  0
  5  6  2  0  0  0  0
  6  1  1  0  0  0  0
  8  3  1  0  0  0  0
  9  5  1  0  0  0  0
  9 10  1  0  0  0  0
 11 10  1  0  0  0  0
 12 13  1  0  0  0  0
 12 11  1  0  0  0  0
 13  9  1  0  0  0  0
 14 13  1  0  0  0  0
 15 18  1  6  0  0  0
 15 17  1  0  0  0  0
 15 16  1  0  0  0  0
 16 22  1  0  0  0  0
 16 19  1  1  0  0  0
 17 21  1  0  0  0  0
 17 16  1  0  0  0  0
 20 17  1  0  0  0  0
 22 23  1  0  0  0  0
 23 24  2  0  0  0  0
 25 23  1  0  0  0  0
 26 25  1  0  0  0  0
 27 25  1  0  0  0  0
M  END
>  <minimizedAffinity>
-4.65878296

$$$$

 OpenBabel03272507203D

 27 29  0  0  1  0  0  0  0  0999 V2000
   36.7070   28.4040   32.0100 C   0  0  0  0  0  0  0  0  0  0  0  0
   36.4350   29.0180   30.7920 C   0  0  0  0  0  0  0  0  0  0  0  0
   35.6850   30.1890   30.8830 C   0  0  0  0  0  0  0  0  0  0  0  0
   35.2630   30.6730   32.0970 N   0  0  0  0  0  0  0  0  0  0  0  0
   35.5560   30.0340   33.2620 C   0  0  0  0  0  0  0  0  0  0  0  0
   36.2910   28.8800   33.2050 N   0  0  0  0  0  0  0  0  0  0  0  0
   36.7780   28.6190   29.8500 H   0  0  0  0  0  0  0  0  0  0  0  0
   35.4270   30.7330   29.9710 H   0  0  0  0  0  0  0  0  0  0  0  0
   35.0910   30.5840   34.4870 N   0  0  0  0  0  0  0  0  0  0  0  0
   35.8890   31.5360   35.2340 C   0  0  0  0  0  2  0  0  0  0  0  0
   35.0940   31.7180   36.5300 C   0  0  0  0  0  2  0  0  0  0  0  0
   33.6800   31.5610   36.0090 C   0  0  0  0  0  2  0  0  0  0  0  0
   33.8380   30.3080   35.1480 C   0  0  0  0  0  3  0  0  0  0  0  0
   32.9670   30.2530   34.4640 H   0  0  0  0  0  0  0  0  0  0  0  0
   37.5300   27.1500   31.9500 C   0  0  1  0  0  0  0  0  0  0  0  0
   37.9240   26.4280   33.1580 C   0  0  2  0  0  0  0  0  0  0  0  0
   36.7240   25.9180   32.4160 C   0  0  0  0  0  0  0  0  0  0  0  0
   38.0220   26.9860   30.9620 H   0  0  0  0  0  0  0  0  0  0  0  0
   38.9380   25.9500   33.0540 H   0  0  0  0  0  0  0  0  0  0  0  0
   35.7270   26.0710   32.8540 H   0  0  0  0  0  0  0  0  0  0  0  0
   36.8800   24.9910   31.8330 H   0  0  0  0  0  0  0  0  0  0  0  0
   37.7350   27.0740   34.3720 O   0  0  0  0  0  0  0  0  0  0  0  0
   38.0050   26.6540   35.6330 C   0  0  0  0  0  0  0  0  0  0  0  0
   37.7120   25.5050   36.0290 O   0  0  0  0  0  0  0  0  0  0  0  0
   38.6250   27.7000   36.3200 N   0  0  0  0  0  0  0  0  0  0  0  0
   39.6800   27.7350   36.2330 H   0  0  0  0  0  0  0  0  0  0  0  0
   37.8380   28.2340   36.7900 H   0  0  0  0  0  0  0  0  0  0  0  0
  1  6  1  0  0  0  0
  2  3  1  0  0  0  0
  2  1  2  0  0  0  0
  3  4  2  0  0  0  0
  4  5  1  0  0  0  0
  5  9  1  0  0  0  0
  6  5  2  0  0  0  0
  7  2  1  0  0  0  0
  8  3  1  0  0  0  0
  9 13  1  0  0  0  0
  9 10  1  0  0  0  0
 10 11  1  0  0  0  0
 12 11  1  0  0  0  0
 13 12  1  0  0  0  0
 14 13  1  0  0  0  0
 15 18  1  6  0  0  0
 15  1  1  0  0  0  0
 15 17  1  0  0  0  0
 15 16  1  0  0  0  0
 16 19  1  6  0  0  0
 16 22  1  0  0  0  0
 17 20  1  0  0  0  0
 17 16  1  0  0  0  0
 21 17  1  0  0  0  0
 22 23  1  0  0  0  0
 23 24  2  0  0  0  0
 23 25  1  0  0  0  0
 25 27  1  0  0  0  0
 26 25  1  0  0  0  0
M  END
>  <minimizedAffinity>
-4.61418104

$$$$

 OpenBabel03272507203D

 27 29  0  0  1  0  0  0  0  0999 V2000
   37.4500   24.6990   32.3570 C   0  0  0  0  0  0  0  0  0  0  0  0
   36.4020   23.8680   31.9740 C   0  0  0  0  0  0  0  0  0  0  0  0
   35.3610   24.5110   31.3070 C   0  0  0  0  0  0  0  0  0  0  0  0
   35.3980   25.8620   31.0600 N   0  0  0  0  0  0  0  0  0  0  0  0
   36.4470   26.6310   31.4560 C   0  0  0  0  0  0  0  0  0  0  0  0
   37.4850   26.0290   32.1140 N   0  0  0  0  0  0  0  0  0  0  0  0
   36.3950   22.8090   32.1780 H   0  0  0  0  0  0  0  0  0  0  0  0
   34.4980   23.9290   30.9720 H   0  0  0  0  0  0  0  0  0  0  0  0
   36.4280   28.0240   31.1720 N   0  0  0  0  0  0  0  0  0  0  0  0
   36.9800   28.5470   29.9390 C   0  0  0  0  0  2  0  0  0  0  0  0
   36.9000   30.0640   30.1350 C   0  0  0  0  0  2  0  0  0  0  0  0
   35.6350   30.1660   30.9640 C   0  0  0  0  0  2  0  0  0  0  0  0
   35.8950   29.0770   32.0030 C   0  0  0  0  0  3  0  0  0  0  0  0
   34.9270   28.8280   32.4850 H   0  0  0  0  0  0  0  0  0  0  0  0
   38.5970   24.0350   33.0610 C   0  0  1  0  0  0  0  0  0  0  0  0
   39.1080   24.5310   34.3370 C   0  0  2  0  0  0  0  0  0  0  0  0
   38.1490   23.3780   34.3840 C   0  0  0  0  0  0  0  0  0  0  0  0
   39.1730   23.3340   32.4130 H   0  0  0  0  0  0  0  0  0  0  0  0
   40.2200   24.3860   34.4340 H   0  0  0  0  0  0  0  0  0  0  0  0
   37.1250   23.5570   34.7440 H   0  0  0  0  0  0  0  0  0  0  0  0
   38.5960   22.3920   34.6090 H   0  0  0  0  0  0  0  0  0  0  0  0
   38.6710   25.7820   34.7520 O   0  0  0  0  0  0  0  0  0  0  0  0
   39.3840   26.8850   35.0870 C   0  0  0  0  0  0  0  0  0  0  0  0
   40.4630   27.1770   34.5260 O   0  0  0  0  0  0  0  0  0  0  0  0
   38.7030   27.5550   36.1050 N   0  0  0  0  0  0  0  0  0  0  0  0
   37.9850   28.2640   35.7790 H   0  0  0  0  0  0  0  0  0  0  0  0
   39.0960   27.1670   37.0110 H   0  0  0  0  0  0  0  0  0  0  0  0
  1 15  1  0  0  0  0
  2  7  1  0  0  0  0
  2  1  2  0  0  0  0
  3  2  1  0  0  0  0
  4  3  2  0  0  0  0
  4  5  1  0  0  0  0
  5  6  2  0  0  0  0
  6  1  1  0  0  0  0
  8  3  1  0  0  0  0
  9  5  1  0  0  0  0
  9 13  1  0  0  0  0
 10 11  1  0  0  0  0
 10  9  1  0  0  0  0
 11 12  1  0  0  0  0
 12 13  1  0  0  0  0
 13 14  1  0  0  0  0
 15 18  1  6  0  0  0
 15 16  1  0  0  0  0
 15 17  1  0  0  0  0
 16 17  1  0  0  0  0
 16 19  1  1  0  0  0
 16 22  1  0  0  0  0
 17 21  1  0  0  0  0
 17 20  1  0  0  0  0
 22 23  1  0  0  0  0
 23 25  1  0  0  0  0
 24 23  2  0  0  0  0
 25 27  1  0  0  0  0
 26 25  1  0  0  0  0
M  END
>  <minimizedAffinity>
-4.60629129

$$$$

 OpenBabel03272507203D

 27 29  0  0  1  0  0  0  0  0999 V2000
   37.2200   25.4720   31.7520 C   0  0  0  0  0  0  0  0  0  0  0  0
   38.3240   25.4750   30.9060 C   0  0  0  0  0  0  0  0  0  0  0  0
   38.7300   24.2150   30.4720 C   0  0  0  0  0  0  0  0  0  0  0  0
   38.0690   23.0770   30.8650 N   0  0  0  0  0  0  0  0  0  0  0  0
   36.9920   23.1280   31.6950 C   0  0  0  0  0  0  0  0  0  0  0  0
   36.5690   24.3520   32.1400 N   0  0  0  0  0  0  0  0  0  0  0  0
   38.8270   26.3820   30.6100 H   0  0  0  0  0  0  0  0  0  0  0  0
   39.5920   24.1300   29.8040 H   0  0  0  0  0  0  0  0  0  0  0  0
   36.3490   21.9160   32.0670 N   0  0  0  0  0  0  0  0  0  0  0  0
   35.2590   21.3720   31.2820 C   0  0  0  0  0  2  0  0  0  0  0  0
   34.7760   20.1890   32.1260 C   0  0  0  0  0  2  0  0  0  0  0  0
   36.0860   19.7400   32.7430 C   0  0  0  0  0  2  0  0  0  0  0  0
   36.6500   21.0830   33.2060 C   0  0  0  0  0  3  0  0  0  0  0  0
   37.7340   20.9490   33.3970 H   0  0  0  0  0  0  0  0  0  0  0  0
   36.7440   26.8150   32.2240 C   0  0  1  0  0  0  0  0  0  0  0  0
   37.3120   27.4620   33.4050 C   0  0  2  0  0  0  0  0  0  0  0  0
   37.8370   27.8930   32.0670 C   0  0  0  0  0  0  0  0  0  0  0  0
   35.7720   27.1280   31.7740 H   0  0  0  0  0  0  0  0  0  0  0  0
   36.5460   28.0660   33.9670 H   0  0  0  0  0  0  0  0  0  0  0  0
   38.8500   27.5820   31.7710 H   0  0  0  0  0  0  0  0  0  0  0  0
   37.4920   28.8830   31.7120 H   0  0  0  0  0  0  0  0  0  0  0  0
   38.1220   26.6880   34.2240 O   0  0  0  0  0  0  0  0  0  0  0  0
   39.1340   27.0580   35.0470 C   0  0  0  0  0  0  0  0  0  0  0  0
   40.3330   26.8500   34.7620 O   0  0  0  0  0  0  0  0  0  0  0  0
   38.5810   27.6640   36.1760 N   0  0  0  0  0  0  0  0  0  0  0  0
   38.4220   28.7090   36.0970 H   0  0  0  0  0  0  0  0  0  0  0  0
   38.4480   26.8820   36.8810 H   0  0  0  0  0  0  0  0  0  0  0  0
  1  6  1  0  0  0  0
  1 15  1  0  0  0  0
  2  1  2  0  0  0  0
  3  4  2  0  0  0  0
  3  2  1  0  0  0  0
  4  5  1  0  0  0  0
  5  9  1  0  0  0  0
  5  6  2  0  0  0  0
  7  2  1  0  0  0  0
  8  3  1  0  0  0  0
  9 13  1  0  0  0  0
 10  9  1  0  0  0  0
 10 11  1  0  0  0  0
 11 12  1  0  0  0  0
 12 13  1  0  0  0  0
 13 14  1  0  0  0  0
 15 18  1  6  0  0  0
 15 16  1  0  0  0  0
 16 19  1  1  0  0  0
 16 22  1  0  0  0  0
 17 15  1  0  0  0  0
 17 16  1  0  0  0  0
 20 17  1  0  0  0  0
 21 17  1  0  0  0  0
 22 23  1  0  0  0  0
 23 25  1  0  0  0  0
 24 23  2  0  0  0  0
 25 27  1  0  0  0  0
 26 25  1  0  0  0  0
M  END
>  <minimizedAffinity>
-4.56111431

$$$$
