
 OpenBabel03272508173D

 22 24  0  0  0  0  0  0  0  0999 V2000
   36.6490   30.8980   47.5950 C   0  0  0  0  0  0  0  0  0  0  0  0
   37.6100   31.8340   47.1940 C   0  0  0  0  0  0  0  0  0  0  0  0
   37.8500   31.9250   45.8370 C   0  0  0  0  0  0  0  0  0  0  0  0
   37.1530   31.1190   44.9790 N   0  0  0  0  0  0  0  0  0  0  0  0
   36.2310   30.2260   45.4010 C   0  0  0  0  0  0  0  0  0  0  0  0
   35.9790   30.1150   46.7110 N   0  0  0  0  0  0  0  0  0  0  0  0
   38.5680   32.6040   45.3690 H   0  0  0  0  0  0  0  0  0  0  0  0
   35.7030   29.6090   44.6880 H   0  0  0  0  0  0  0  0  0  0  0  0
   36.3370   30.8730   49.0780 C   0  0  0  0  0  0  0  0  0  0  0  0
   35.5870   29.7820   49.6510 C   0  0  0  0  0  0  0  0  0  0  0  0
   37.0890   29.7110   49.7640 C   0  0  0  0  0  0  0  0  0  0  0  0
   36.5870   31.7980   49.6550 H   0  0  0  0  0  0  0  0  0  0  0  0
   35.1560   29.0190   48.9480 H   0  0  0  0  0  0  0  0  0  0  0  0
   34.9520   29.8950   50.5460 H   0  0  0  0  0  0  0  0  0  0  0  0
   37.6340   28.9920   49.1410 H   0  0  0  0  0  0  0  0  0  0  0  0
   37.4560   29.8360   50.7910 H   0  0  0  0  0  0  0  0  0  0  0  0
   38.3680   32.6850   48.0070 N   0  0  0  0  0  0  0  0  0  0  0  0
   38.1430   33.3010   49.3020 C   0  0  0  0  0  0  0  0  0  0  0  0
   39.4610   33.9510   49.6770 C   0  0  0  0  0  0  0  0  0  0  0  0
   39.9150   34.3770   48.2740 C   0  0  0  0  0  0  0  0  0  0  0  0
   39.6760   33.0860   47.5260 C   0  0  0  0  0  0  0  0  0  0  0  0
   40.4420   32.3620   47.8720 H   0  0  0  0  0  0  0  0  0  0  0  0
  1  9  1  0  0  0  0
  2  1  1  0  0  0  0
  2 17  1  0  0  0  0
  3  2  2  0  0  0  0
  4  5  2  0  0  0  0
  4  3  1  0  0  0  0
  5  6  1  0  0  0  0
  6  1  2  0  0  0  0
  7  3  1  0  0  0  0
  8  5  1  0  0  0  0
  9 10  1  0  0  0  0
  9 12  1  0  0  0  0
  9 11  1  0  0  0  0
 10 11  1  0  0  0  0
 10 14  1  0  0  0  0
 11 16  1  0  0  0  0
 13 10  1  0  0  0  0
 15 11  1  0  0  0  0
 17 18  1  0  0  0  0
 18 19  1  0  0  0  0
 20 19  1  0  0  0  0
 21 22  1  0  0  0  0
 21 17  1  0  0  0  0
 21 20  1  0  0  0  0
M  END
>  <minimizedAffinity>
-4.25851631

>  <minimizedRMSD>
3.3321631

$$$$
