
 OpenBabel03272509393D

 27 29  0  0  1  0  0  0  0  0999 V2000
   37.8950   23.7270   33.3450 C   0  0  0  0  0  0  0  0  0  0  0  0
   37.1890   22.7070   32.7150 C   0  0  0  0  0  0  0  0  0  0  0  0
   36.1570   23.0000   31.8000 C   0  0  0  0  0  0  0  0  0  0  0  0
   35.8290   24.3200   31.5120 C   0  0  0  0  0  0  0  0  0  0  0  0
   36.5430   25.3170   32.1480 C   0  0  0  0  0  0  0  0  0  0  0  0
   37.5500   25.0100   33.0430 C   0  0  0  0  0  0  0  0  0  0  0  0
   37.4470   21.6830   32.9420 H   0  0  0  0  0  0  0  0  0  0  0  0
   35.6760   22.1340   31.3700 H   0  0  0  0  0  0  0  0  0  0  0  0
   35.0230   24.4460   30.7960 H   0  0  0  0  0  0  0  0  0  0  0  0
   36.2290   26.3140   31.8720 H   0  0  0  0  0  0  0  0  0  0  0  0
   38.1520   26.1630   33.6010 N   0  0  0  0  0  0  0  0  0  0  0  0
   39.3400   26.9890   33.5900 C   0  0  0  0  0  2  0  0  0  0  0  0
   39.7800   26.9110   35.0360 C   0  0  0  0  0  2  0  0  0  0  0  0
   38.4590   27.1590   35.7310 C   0  0  0  0  0  2  0  0  0  0  0  0
   37.4780   26.9750   34.5970 C   0  0  0  0  0  3  0  0  0  0  0  0
   37.0610   27.9090   34.2280 H   0  0  0  0  0  0  0  0  0  0  0  0
   38.9440   23.3700   34.2720 C   0  0  1  0  0  3  0  0  0  0  0  0
   40.0530   23.0410   33.7030 O   0  0  0  0  0  1  0  0  0  0  0  0
   39.9420   22.8250   37.7230 C   0  0  0  0  0  0  0  0  0  0  0  0
   38.8540   23.2700   38.4580 C   0  0  0  0  0  0  0  0  0  0  0  0
   37.7580   23.7610   37.7780 C   0  0  0  0  0  0  0  0  0  0  0  0
   37.7540   23.8050   36.4070 N   0  0  0  0  0  0  0  0  0  0  0  0
   38.8280   23.3640   35.7280 C   0  0  0  0  0  0  0  0  0  0  0  0
   39.8740   22.8940   36.4030 N   0  0  0  0  0  0  0  0  0  0  0  0
   40.7640   22.4540   38.2970 H   0  0  0  0  0  0  0  0  0  0  0  0
   38.8410   23.2430   39.5350 H   0  0  0  0  0  0  0  0  0  0  0  0
   36.9090   24.1100   38.3460 H   0  0  0  0  0  0  0  0  0  0  0  0
  1 17  1  0  0  0  0
  2  7  1  0  0  0  0
  2  1  2  0  0  0  0
  3  2  1  0  0  0  0
  4  3  2  0  0  0  0
  4  5  1  0  0  0  0
  5  6  2  0  0  0  0
  6  1  1  0  0  0  0
  6 11  1  0  0  0  0
  8  3  1  0  0  0  0
  9  4  1  0  0  0  0
 10  5  1  0  0  0  0
 11 15  1  0  0  0  0
 12 11  1  0  0  0  0
 12 13  1  0  0  0  0
 13 14  1  0  0  0  0
 15 14  1  0  0  0  0
 16 15  1  0  0  0  0
 17 18  1  1  0  0  0
 17 23  1  0  0  0  0
 19 25  1  0  0  0  0
 19 20  1  0  0  0  0
 20 26  1  0  0  0  0
 21 27  1  0  0  0  0
 21 20  2  0  0  0  0
 22 21  1  0  0  0  0
 23 24  1  0  0  0  0
 23 22  2  0  0  0  0
 24 19  2  0  0  0  0
M  END
>  <minimizedAffinity>
-5.32384586

$$$$

 OpenBabel03272509393D

 27 29  0  0  1  0  0  0  0  0999 V2000
   38.4320   24.7470   34.0100 C   0  0  0  0  0  0  0  0  0  0  0  0
   38.4800   25.8910   33.2200 C   0  0  0  0  0  0  0  0  0  0  0  0
   38.4390   27.1740   33.8030 C   0  0  0  0  0  0  0  0  0  0  0  0
   38.3510   27.3150   35.1840 C   0  0  0  0  0  0  0  0  0  0  0  0
   38.3050   26.1650   35.9490 C   0  0  0  0  0  0  0  0  0  0  0  0
   38.3450   24.9160   35.3590 C   0  0  0  0  0  0  0  0  0  0  0  0
   38.5480   25.7770   32.1480 H   0  0  0  0  0  0  0  0  0  0  0  0
   38.4830   27.9910   33.0990 H   0  0  0  0  0  0  0  0  0  0  0  0
   38.3270   28.3390   35.5390 H   0  0  0  0  0  0  0  0  0  0  0  0
   38.2370   26.3570   37.0110 H   0  0  0  0  0  0  0  0  0  0  0  0
   38.2710   23.8650   36.3050 N   0  0  0  0  0  0  0  0  0  0  0  0
   37.3690   23.0890   37.1280 C   0  0  0  0  0  2  0  0  0  0  0  0
   37.9080   23.3650   38.5150 C   0  0  0  0  0  2  0  0  0  0  0  0
   39.3880   23.1580   38.2720 C   0  0  0  0  0  2  0  0  0  0  0  0
   39.4530   23.1610   36.7630 C   0  0  0  0  0  3  0  0  0  0  0  0
   39.5990   22.1730   36.3330 H   0  0  0  0  0  0  0  0  0  0  0  0
   38.4780   23.4570   33.3600 C   0  0  1  0  0  3  0  0  0  0  0  0
   39.6680   23.0770   33.0400 O   0  0  0  0  0  1  0  0  0  0  0  0
   35.5800   22.2330   31.5410 C   0  0  0  0  0  0  0  0  0  0  0  0
   35.1450   21.1550   32.2960 C   0  0  0  0  0  0  0  0  0  0  0  0
   35.8400   20.8340   33.4450 C   0  0  0  0  0  0  0  0  0  0  0  0
   36.9330   21.5690   33.8230 N   0  0  0  0  0  0  0  0  0  0  0  0
   37.3260   22.6090   33.0660 C   0  0  0  0  0  0  0  0  0  0  0  0
   36.6430   22.9020   31.9620 N   0  0  0  0  0  0  0  0  0  0  0  0
   35.0080   22.4410   30.6620 H   0  0  0  0  0  0  0  0  0  0  0  0
   34.2880   20.5660   32.0130 H   0  0  0  0  0  0  0  0  0  0  0  0
   35.5050   19.9950   34.0360 H   0  0  0  0  0  0  0  0  0  0  0  0
  1  6  1  0  0  0  0
  2  3  1  0  0  0  0
  2  1  2  0  0  0  0
  3  4  2  0  0  0  0
  4  9  1  0  0  0  0
  4  5  1  0  0  0  0
  5 10  1  0  0  0  0
  6  5  2  0  0  0  0
  6 11  1  0  0  0  0
  7  2  1  0  0  0  0
  8  3  1  0  0  0  0
 11 15  1  0  0  0  0
 11 12  1  0  0  0  0
 12 13  1  0  0  0  0
 14 13  1  0  0  0  0
 15 14  1  0  0  0  0
 16 15  1  0  0  0  0
 17 18  1  1  0  0  0
 17  1  1  0  0  0  0
 19 24  2  0  0  0  0
 19 20  1  0  0  0  0
 20 21  2  0  0  0  0
 21 22  1  0  0  0  0
 21 27  1  0  0  0  0
 23 17  1  0  0  0  0
 23 22  2  0  0  0  0
 24 23  1  0  0  0  0
 25 19  1  0  0  0  0
 26 20  1  0  0  0  0
M  END
>  <minimizedAffinity>
-5.13231373

$$$$

 OpenBabel03272509393D

 27 29  0  0  1  0  0  0  0  0999 V2000
   35.0240   30.5680   34.7850 C   0  0  0  0  0  0  0  0  0  0  0  0
   35.8400   31.3980   35.5460 C   0  0  0  0  0  0  0  0  0  0  0  0
   35.3290   32.0890   36.6640 C   0  0  0  0  0  0  0  0  0  0  0  0
   33.9930   31.9500   37.0230 C   0  0  0  0  0  0  0  0  0  0  0  0
   33.2000   31.1200   36.2540 C   0  0  0  0  0  0  0  0  0  0  0  0
   33.7190   30.4520   35.1620 C   0  0  0  0  0  0  0  0  0  0  0  0
   36.8780   31.5030   35.2630 H   0  0  0  0  0  0  0  0  0  0  0  0
   36.0490   32.7040   37.1820 H   0  0  0  0  0  0  0  0  0  0  0  0
   33.6920   32.5180   37.8970 H   0  0  0  0  0  0  0  0  0  0  0  0
   32.1760   31.0640   36.5980 H   0  0  0  0  0  0  0  0  0  0  0  0
   32.7500   29.6660   34.4940 N   0  0  0  0  0  0  0  0  0  0  0  0
   32.2450   29.2800   33.1940 C   0  0  0  0  0  2  0  0  0  0  0  0
   30.8040   29.7370   33.2770 C   0  0  0  0  0  2  0  0  0  0  0  0
   30.4310   29.1930   34.6400 C   0  0  0  0  0  2  0  0  0  0  0  0
   31.7860   28.8570   35.2170 C   0  0  0  0  0  3  0  0  0  0  0  0
   31.9980   27.7910   35.2350 H   0  0  0  0  0  0  0  0  0  0  0  0
   35.6000   29.8820   33.6510 C   0  0  1  0  0  3  0  0  0  0  0  0
   35.5820   30.5710   32.5620 O   0  0  0  0  0  1  0  0  0  0  0  0
   36.6600   26.6630   32.3420 C   0  0  0  0  0  0  0  0  0  0  0  0
   37.1970   26.0160   33.4440 C   0  0  0  0  0  0  0  0  0  0  0  0
   37.1990   26.6760   34.6570 C   0  0  0  0  0  0  0  0  0  0  0  0
   36.6810   27.9410   34.7590 N   0  0  0  0  0  0  0  0  0  0  0  0
   36.1680   28.5370   33.6670 C   0  0  0  0  0  0  0  0  0  0  0  0
   36.1760   27.8840   32.5080 N   0  0  0  0  0  0  0  0  0  0  0  0
   36.6820   26.1100   31.4270 H   0  0  0  0  0  0  0  0  0  0  0  0
   37.6090   25.0220   33.3810 H   0  0  0  0  0  0  0  0  0  0  0  0
   37.6160   26.1770   35.5180 H   0  0  0  0  0  0  0  0  0  0  0  0
  1  6  2  0  0  0  0
  1  2  1  0  0  0  0
  2  3  2  0  0  0  0
  3  4  1  0  0  0  0
  3  8  1  0  0  0  0
  4  9  1  0  0  0  0
  5 10  1  0  0  0  0
  5  4  2  0  0  0  0
  6  5  1  0  0  0  0
  7  2  1  0  0  0  0
 11  6  1  0  0  0  0
 11 15  1  0  0  0  0
 12 13  1  0  0  0  0
 12 11  1  0  0  0  0
 13 14  1  0  0  0  0
 14 15  1  0  0  0  0
 15 16  1  0  0  0  0
 17 18  1  1  0  0  0
 17 23  1  0  0  0  0
 17  1  1  0  0  0  0
 19 24  2  0  0  0  0
 19 20  1  0  0  0  0
 20 21  2  0  0  0  0
 21 22  1  0  0  0  0
 21 27  1  0  0  0  0
 23 22  2  0  0  0  0
 24 23  1  0  0  0  0
 25 19  1  0  0  0  0
 26 20  1  0  0  0  0
M  END
>  <minimizedAffinity>
-4.94633293

$$$$

 OpenBabel03272509393D

 27 29  0  0  1  0  0  0  0  0999 V2000
   37.8600   23.7740   33.0910 C   0  0  0  0  0  0  0  0  0  0  0  0
   37.5010   22.4980   32.6680 C   0  0  0  0  0  0  0  0  0  0  0  0
   36.4120   22.3060   31.7940 C   0  0  0  0  0  0  0  0  0  0  0  0
   35.6770   23.3950   31.3400 C   0  0  0  0  0  0  0  0  0  0  0  0
   36.0510   24.6540   31.7720 C   0  0  0  0  0  0  0  0  0  0  0  0
   37.1210   24.8220   32.6290 C   0  0  0  0  0  0  0  0  0  0  0  0
   38.0750   21.6550   33.0240 H   0  0  0  0  0  0  0  0  0  0  0  0
   36.2210   21.2770   31.5310 H   0  0  0  0  0  0  0  0  0  0  0  0
   34.8580   23.1490   30.6710 H   0  0  0  0  0  0  0  0  0  0  0  0
   35.4320   25.4470   31.3750 H   0  0  0  0  0  0  0  0  0  0  0  0
   37.3380   26.1790   32.9690 N   0  0  0  0  0  0  0  0  0  0  0  0
   37.1360   27.1770   33.9960 C   0  0  0  0  0  2  0  0  0  0  0  0
   36.3210   28.2160   33.2570 C   0  0  0  0  0  2  0  0  0  0  0  0
   37.1220   28.3200   31.9760 C   0  0  0  0  0  2  0  0  0  0  0  0
   38.0050   27.0990   32.0680 C   0  0  0  0  0  3  0  0  0  0  0  0
   39.0380   27.3280   32.3210 H   0  0  0  0  0  0  0  0  0  0  0  0
   38.9870   23.9140   33.9860 C   0  0  1  0  0  3  0  0  0  0  0  0
   40.0770   24.2730   33.3980 O   0  0  0  0  0  1  0  0  0  0  0  0
   37.7600   24.1110   37.4000 C   0  0  0  0  0  0  0  0  0  0  0  0
   38.6900   23.3860   38.1300 C   0  0  0  0  0  0  0  0  0  0  0  0
   39.7560   22.8210   37.4590 C   0  0  0  0  0  0  0  0  0  0  0  0
   39.8840   22.9780   36.1030 N   0  0  0  0  0  0  0  0  0  0  0  0
   38.9620   23.6880   35.4280 C   0  0  0  0  0  0  0  0  0  0  0  0
   37.9420   24.2250   36.0930 N   0  0  0  0  0  0  0  0  0  0  0  0
   36.9540   24.5280   37.9660 H   0  0  0  0  0  0  0  0  0  0  0  0
   38.6040   23.2530   39.1960 H   0  0  0  0  0  0  0  0  0  0  0  0
   40.4820   22.2560   38.0220 H   0  0  0  0  0  0  0  0  0  0  0  0
  1 17  1  0  0  0  0
  2  7  1  0  0  0  0
  2  1  1  0  0  0  0
  3  2  2  0  0  0  0
  4  5  2  0  0  0  0
  4  3  1  0  0  0  0
  5  6  1  0  0  0  0
  6 11  1  0  0  0  0
  6  1  2  0  0  0  0
  8  3  1  0  0  0  0
  9  4  1  0  0  0  0
 10  5  1  0  0  0  0
 11 12  1  0  0  0  0
 13 12  1  0  0  0  0
 14 15  1  0  0  0  0
 14 13  1  0  0  0  0
 15 16  1  0  0  0  0
 15 11  1  0  0  0  0
 17 18  1  1  0  0  0
 17 23  1  0  0  0  0
 19 25  1  0  0  0  0
 19 20  1  0  0  0  0
 20 26  1  0  0  0  0
 21 27  1  0  0  0  0
 21 20  2  0  0  0  0
 22 21  1  0  0  0  0
 23 24  1  0  0  0  0
 23 22  2  0  0  0  0
 24 19  2  0  0  0  0
M  END
>  <minimizedAffinity>
-4.90993977

$$$$

 OpenBabel03272509393D

 27 29  0  0  1  0  0  0  0  0999 V2000
   37.0720   24.5730   32.3790 C   0  0  0  0  0  0  0  0  0  0  0  0
   36.7850   25.9140   32.1460 C   0  0  0  0  0  0  0  0  0  0  0  0
   35.6940   26.2910   31.3360 C   0  0  0  0  0  0  0  0  0  0  0  0
   34.8850   25.3210   30.7560 C   0  0  0  0  0  0  0  0  0  0  0  0
   35.1870   23.9950   31.0000 C   0  0  0  0  0  0  0  0  0  0  0  0
   36.2610   23.6460   31.7960 C   0  0  0  0  0  0  0  0  0  0  0  0
   37.4170   26.6640   32.6000 H   0  0  0  0  0  0  0  0  0  0  0  0
   35.5630   27.3560   31.2230 H   0  0  0  0  0  0  0  0  0  0  0  0
   34.0710   25.7060   30.1510 H   0  0  0  0  0  0  0  0  0  0  0  0
   34.5120   23.3030   30.5150 H   0  0  0  0  0  0  0  0  0  0  0  0
   36.4170   22.2440   31.9140 N   0  0  0  0  0  0  0  0  0  0  0  0
   37.1990   21.1090   31.4730 C   0  0  0  0  0  2  0  0  0  0  0  0
   36.1380   20.2370   30.8360 C   0  0  0  0  0  2  0  0  0  0  0  0
   35.0690   20.2940   31.9060 C   0  0  0  0  0  2  0  0  0  0  0  0
   35.5510   21.4430   32.7590 C   0  0  0  0  0  3  0  0  0  0  0  0
   35.9880   21.1290   33.7040 H   0  0  0  0  0  0  0  0  0  0  0  0
   38.2010   24.2430   33.2190 C   0  0  1  0  0  3  0  0  0  0  0  0
   39.3180   24.1610   32.5800 O   0  0  0  0  0  1  0  0  0  0  0  0
   38.1530   25.0730   36.7560 C   0  0  0  0  0  0  0  0  0  0  0  0
   38.0580   23.8420   37.3850 C   0  0  0  0  0  0  0  0  0  0  0  0
   38.0120   22.7050   36.6020 C   0  0  0  0  0  0  0  0  0  0  0  0
   38.0600   22.8020   35.2350 N   0  0  0  0  0  0  0  0  0  0  0  0
   38.1530   24.0150   34.6600 C   0  0  0  0  0  0  0  0  0  0  0  0
   38.1960   25.0980   35.4320 N   0  0  0  0  0  0  0  0  0  0  0  0
   38.1850   25.9210   37.4060 H   0  0  0  0  0  0  0  0  0  0  0  0
   38.0180   23.7480   38.4580 H   0  0  0  0  0  0  0  0  0  0  0  0
   37.9370   21.7440   37.0870 H   0  0  0  0  0  0  0  0  0  0  0  0
  1 17  1  0  0  0  0
  2  1  1  0  0  0  0
  2  7  1  0  0  0  0
  3  2  2  0  0  0  0
  4  5  2  0  0  0  0
  4  3  1  0  0  0  0
  5  6  1  0  0  0  0
  6 11  1  0  0  0  0
  6  1  2  0  0  0  0
  8  3  1  0  0  0  0
  9  4  1  0  0  0  0
 10  5  1  0  0  0  0
 11 15  1  0  0  0  0
 12 11  1  0  0  0  0
 13 12  1  0  0  0  0
 13 14  1  0  0  0  0
 14 15  1  0  0  0  0
 15 16  1  0  0  0  0
 17 18  1  1  0  0  0
 17 23  1  0  0  0  0
 19 20  1  0  0  0  0
 19 25  1  0  0  0  0
 20 26  1  0  0  0  0
 21 27  1  0  0  0  0
 21 20  2  0  0  0  0
 22 21  1  0  0  0  0
 23 22  2  0  0  0  0
 23 24  1  0  0  0  0
 24 19  2  0  0  0  0
M  END
>  <minimizedAffinity>
-4.90174341

$$$$

 OpenBabel03272509393D

 27 29  0  0  1  0  0  0  0  0999 V2000
   37.6570   22.1960   34.1540 C   0  0  0  0  0  0  0  0  0  0  0  0
   36.7990   21.3800   33.4240 C   0  0  0  0  0  0  0  0  0  0  0  0
   35.7910   20.6330   34.0660 C   0  0  0  0  0  0  0  0  0  0  0  0
   35.6380   20.7030   35.4460 C   0  0  0  0  0  0  0  0  0  0  0  0
   36.5000   21.5200   36.1520 C   0  0  0  0  0  0  0  0  0  0  0  0
   37.4830   22.2440   35.5050 C   0  0  0  0  0  0  0  0  0  0  0  0
   36.9230   21.3290   32.3520 H   0  0  0  0  0  0  0  0  0  0  0  0
   35.1830   20.0340   33.4050 H   0  0  0  0  0  0  0  0  0  0  0  0
   34.8350   20.0940   35.8490 H   0  0  0  0  0  0  0  0  0  0  0  0
   36.3160   21.5200   37.2180 H   0  0  0  0  0  0  0  0  0  0  0  0
   38.2730   23.0070   36.3970 N   0  0  0  0  0  0  0  0  0  0  0  0
   39.4870   23.0050   37.1850 C   0  0  0  0  0  2  0  0  0  0  0  0
   38.9450   23.2190   38.5820 C   0  0  0  0  0  2  0  0  0  0  0  0
   37.9830   24.3590   38.3230 C   0  0  0  0  0  2  0  0  0  0  0  0
   37.8870   24.3410   36.8160 C   0  0  0  0  0  3  0  0  0  0  0  0
   38.4300   25.1520   36.3360 H   0  0  0  0  0  0  0  0  0  0  0  0
   38.6720   22.9410   33.4450 C   0  0  1  0  0  3  0  0  0  0  0  0
   39.6710   22.2230   33.0590 O   0  0  0  0  0  1  0  0  0  0  0  0
   37.2170   26.2330   32.9420 C   0  0  0  0  0  0  0  0  0  0  0  0
   38.3090   27.0400   32.6640 C   0  0  0  0  0  0  0  0  0  0  0  0
   39.5640   26.4640   32.6430 C   0  0  0  0  0  0  0  0  0  0  0  0
   39.7170   25.1240   32.8910 N   0  0  0  0  0  0  0  0  0  0  0  0
   38.6330   24.3720   33.1560 C   0  0  0  0  0  0  0  0  0  0  0  0
   37.4330   24.9460   33.1720 N   0  0  0  0  0  0  0  0  0  0  0  0
   36.2690   26.7260   32.9460 H   0  0  0  0  0  0  0  0  0  0  0  0
   38.2070   28.0950   32.4680 H   0  0  0  0  0  0  0  0  0  0  0  0
   40.4170   27.0890   32.4280 H   0  0  0  0  0  0  0  0  0  0  0  0
  1  6  1  0  0  0  0
  2  3  1  0  0  0  0
  2  1  2  0  0  0  0
  3  4  2  0  0  0  0
  4  9  1  0  0  0  0
  4  5  1  0  0  0  0
  5 10  1  0  0  0  0
  6  5  2  0  0  0  0
  6 11  1  0  0  0  0
  7  2  1  0  0  0  0
  8  3  1  0  0  0  0
 11 15  1  0  0  0  0
 11 12  1  0  0  0  0
 12 13  1  0  0  0  0
 14 13  1  0  0  0  0
 15 14  1  0  0  0  0
 16 15  1  0  0  0  0
 17 18  1  6  0  0  0
 17  1  1  0  0  0  0
 19 25  1  0  0  0  0
 19 24  1  0  0  0  0
 20 19  2  0  0  0  0
 21 20  1  0  0  0  0
 21 22  2  0  0  0  0
 22 23  1  0  0  0  0
 23 24  2  0  0  0  0
 23 17  1  0  0  0  0
 26 20  1  0  0  0  0
 27 21  1  0  0  0  0
M  END
>  <minimizedAffinity>
-4.89969587

$$$$

 OpenBabel03272509393D

 27 29  0  0  1  0  0  0  0  0999 V2000
   39.6010   26.7650   34.2130 C   0  0  0  0  0  0  0  0  0  0  0  0
   40.9840   26.8650   34.3310 C   0  0  0  0  0  0  0  0  0  0  0  0
   41.7820   27.2020   33.2190 C   0  0  0  0  0  0  0  0  0  0  0  0
   41.1950   27.4400   31.9810 C   0  0  0  0  0  0  0  0  0  0  0  0
   39.8200   27.3350   31.8860 C   0  0  0  0  0  0  0  0  0  0  0  0
   39.0550   27.0030   32.9880 C   0  0  0  0  0  0  0  0  0  0  0  0
   41.4350   26.6790   35.2950 H   0  0  0  0  0  0  0  0  0  0  0  0
   42.8400   27.2520   33.4220 H   0  0  0  0  0  0  0  0  0  0  0  0
   41.8880   27.6930   31.1860 H   0  0  0  0  0  0  0  0  0  0  0  0
   39.4410   27.5350   30.8940 H   0  0  0  0  0  0  0  0  0  0  0  0
   37.6730   26.9290   32.6880 N   0  0  0  0  0  0  0  0  0  0  0  0
   36.6110   26.0450   32.2610 C   0  0  0  0  0  2  0  0  0  0  0  0
   36.1390   26.7240   30.9940 C   0  0  0  0  0  2  0  0  0  0  0  0
   36.0450   28.1550   31.4780 C   0  0  0  0  0  2  0  0  0  0  0  0
   36.8050   28.0880   32.7810 C   0  0  0  0  0  3  0  0  0  0  0  0
   36.1640   28.1160   33.6590 H   0  0  0  0  0  0  0  0  0  0  0  0
   38.8310   26.4180   35.3860 C   0  0  1  0  0  3  0  0  0  0  0  0
   38.5240   27.4290   36.1250 O   0  0  0  0  0  1  0  0  0  0  0  0
   38.1450   22.8730   34.9770 C   0  0  0  0  0  0  0  0  0  0  0  0
   37.6840   22.4780   36.2220 C   0  0  0  0  0  0  0  0  0  0  0  0
   37.5980   23.4260   37.2230 C   0  0  0  0  0  0  0  0  0  0  0  0
   37.9630   24.7250   36.9810 N   0  0  0  0  0  0  0  0  0  0  0  0
   38.4060   25.0720   35.7590 C   0  0  0  0  0  0  0  0  0  0  0  0
   38.4810   24.1430   34.8080 N   0  0  0  0  0  0  0  0  0  0  0  0
   38.1920   22.1030   34.2370 H   0  0  0  0  0  0  0  0  0  0  0  0
   37.3940   21.4610   36.4290 H   0  0  0  0  0  0  0  0  0  0  0  0
   37.2400   23.1220   38.1950 H   0  0  0  0  0  0  0  0  0  0  0  0
  1  2  1  0  0  0  0
  1 17  1  0  0  0  0
  2  7  1  0  0  0  0
  3  8  1  0  0  0  0
  3  2  2  0  0  0  0
  4  3  1  0  0  0  0
  5  4  2  0  0  0  0
  5  6  1  0  0  0  0
  6  1  2  0  0  0  0
  9  4  1  0  0  0  0
 10  5  1  0  0  0  0
 11 15  1  0  0  0  0
 11  6  1  0  0  0  0
 12 11  1  0  0  0  0
 13 14  1  0  0  0  0
 13 12  1  0  0  0  0
 14 15  1  0  0  0  0
 15 16  1  0  0  0  0
 17 23  1  0  0  0  0
 17 18  1  6  0  0  0
 19 20  1  0  0  0  0
 20 26  1  0  0  0  0
 20 21  2  0  0  0  0
 21 27  1  0  0  0  0
 22 21  1  0  0  0  0
 23 22  2  0  0  0  0
 24 19  2  0  0  0  0
 24 23  1  0  0  0  0
 25 19  1  0  0  0  0
M  END
>  <minimizedAffinity>
-4.83096504

$$$$

 OpenBabel03272509393D

 27 29  0  0  1  0  0  0  0  0999 V2000
   38.8660   24.2560   35.9850 C   0  0  0  0  0  0  0  0  0  0  0  0
   37.8700   24.6490   36.8730 C   0  0  0  0  0  0  0  0  0  0  0  0
   37.8580   24.1770   38.2020 C   0  0  0  0  0  0  0  0  0  0  0  0
   38.8460   23.3060   38.6450 C   0  0  0  0  0  0  0  0  0  0  0  0
   39.8260   22.9280   37.7470 C   0  0  0  0  0  0  0  0  0  0  0  0
   39.8210   23.4010   36.4480 C   0  0  0  0  0  0  0  0  0  0  0  0
   37.1040   25.3260   36.5240 H   0  0  0  0  0  0  0  0  0  0  0  0
   37.0410   24.5460   38.8040 H   0  0  0  0  0  0  0  0  0  0  0  0
   38.7540   22.9970   39.6810 H   0  0  0  0  0  0  0  0  0  0  0  0
   40.5570   22.2510   38.1670 H   0  0  0  0  0  0  0  0  0  0  0  0
   40.8930   22.8900   35.6790 N   0  0  0  0  0  0  0  0  0  0  0  0
   41.2690   21.8730   34.7200 C   0  0  0  0  0  2  0  0  0  0  0  0
   42.3690   21.1460   35.4610 C   0  0  0  0  0  2  0  0  0  0  0  0
   43.1770   22.3250   35.9610 C   0  0  0  0  0  2  0  0  0  0  0  0
   42.2210   23.4710   35.7310 C   0  0  0  0  0  3  0  0  0  0  0  0
   42.4870   24.0950   34.8820 H   0  0  0  0  0  0  0  0  0  0  0  0
   38.8310   24.7720   34.6360 C   0  0  1  0  0  3  0  0  0  0  0  0
   39.6890   25.7090   34.4150 O   0  0  0  0  0  1  0  0  0  0  0  0
   36.4110   25.0330   31.9390 C   0  0  0  0  0  0  0  0  0  0  0  0
   36.2190   23.7210   31.5350 C   0  0  0  0  0  0  0  0  0  0  0  0
   36.9180   22.7240   32.1880 C   0  0  0  0  0  0  0  0  0  0  0  0
   37.7780   23.0340   33.2090 N   0  0  0  0  0  0  0  0  0  0  0  0
   37.9380   24.3200   33.5730 C   0  0  0  0  0  0  0  0  0  0  0  0
   37.2560   25.2650   32.9320 N   0  0  0  0  0  0  0  0  0  0  0  0
   35.8470   25.7670   31.4030 H   0  0  0  0  0  0  0  0  0  0  0  0
   35.5480   23.4600   30.7340 H   0  0  0  0  0  0  0  0  0  0  0  0
   36.7730   21.7010   31.8770 H   0  0  0  0  0  0  0  0  0  0  0  0
  1  6  2  0  0  0  0
  1  2  1  0  0  0  0
  2  3  2  0  0  0  0
  3  4  1  0  0  0  0
  3  8  1  0  0  0  0
  4  9  1  0  0  0  0
  5 10  1  0  0  0  0
  5  4  2  0  0  0  0
  6  5  1  0  0  0  0
  7  2  1  0  0  0  0
 11 15  1  0  0  0  0
 11  6  1  0  0  0  0
 12 13  1  0  0  0  0
 12 11  1  0  0  0  0
 13 14  1  0  0  0  0
 15 14  1  0  0  0  0
 16 15  1  0  0  0  0
 17 18  1  6  0  0  0
 17  1  1  0  0  0  0
 19 24  1  0  0  0  0
 20 19  2  0  0  0  0
 20 21  1  0  0  0  0
 21 22  2  0  0  0  0
 22 23  1  0  0  0  0
 23 17  1  0  0  0  0
 24 23  2  0  0  0  0
 25 19  1  0  0  0  0
 26 20  1  0  0  0  0
 27 21  1  0  0  0  0
M  END
>  <minimizedAffinity>
-4.79766512

$$$$

 OpenBabel03272509393D

 27 29  0  0  1  0  0  0  0  0999 V2000
   39.3650   26.1480   34.1710 C   0  0  0  0  0  0  0  0  0  0  0  0
   40.0710   27.1600   33.5300 C   0  0  0  0  0  0  0  0  0  0  0  0
   41.4780   27.2150   33.5970 C   0  0  0  0  0  0  0  0  0  0  0  0
   42.1840   26.2530   34.3100 C   0  0  0  0  0  0  0  0  0  0  0  0
   41.4630   25.2560   34.9390 C   0  0  0  0  0  0  0  0  0  0  0  0
   40.0840   25.2190   34.8620 C   0  0  0  0  0  0  0  0  0  0  0  0
   39.5180   27.9060   32.9780 H   0  0  0  0  0  0  0  0  0  0  0  0
   41.9230   28.0410   33.0640 H   0  0  0  0  0  0  0  0  0  0  0  0
   43.2620   26.3770   34.3040 H   0  0  0  0  0  0  0  0  0  0  0  0
   42.0830   24.5460   35.4700 H   0  0  0  0  0  0  0  0  0  0  0  0
   39.5270   24.1350   35.5830 N   0  0  0  0  0  0  0  0  0  0  0  0
   38.6260   23.7800   36.6580 C   0  0  0  0  0  2  0  0  0  0  0  0
   39.5460   23.0220   37.5900 C   0  0  0  0  0  2  0  0  0  0  0  0
   40.2440   22.1160   36.5980 C   0  0  0  0  0  2  0  0  0  0  0  0
   39.8690   22.7570   35.2830 C   0  0  0  0  0  3  0  0  0  0  0  0
   39.1160   22.2040   34.7280 H   0  0  0  0  0  0  0  0  0  0  0  0
   37.9230   26.1380   34.0680 C   0  0  1  0  0  3  0  0  0  0  0  0
   37.3280   26.7390   35.0410 O   0  0  0  0  0  1  0  0  0  0  0  0
   36.6380   23.4960   31.9310 C   0  0  0  0  0  0  0  0  0  0  0  0
   35.7880   24.1580   31.0580 C   0  0  0  0  0  0  0  0  0  0  0  0
   35.6470   25.5250   31.1880 C   0  0  0  0  0  0  0  0  0  0  0  0
   36.3340   26.2040   32.1610 N   0  0  0  0  0  0  0  0  0  0  0  0
   37.1500   25.5280   32.9900 C   0  0  0  0  0  0  0  0  0  0  0  0
   37.2720   24.2100   32.8480 N   0  0  0  0  0  0  0  0  0  0  0  0
   36.7120   22.4390   31.7880 H   0  0  0  0  0  0  0  0  0  0  0  0
   35.2410   23.6400   30.2880 H   0  0  0  0  0  0  0  0  0  0  0  0
   34.9870   26.0450   30.5120 H   0  0  0  0  0  0  0  0  0  0  0  0
  1  6  1  0  0  0  0
  2  3  1  0  0  0  0
  2  1  2  0  0  0  0
  3  4  2  0  0  0  0
  4  5  1  0  0  0  0
  5 10  1  0  0  0  0
  6  5  2  0  0  0  0
  6 11  1  0  0  0  0
  7  2  1  0  0  0  0
  8  3  1  0  0  0  0
  9  4  1  0  0  0  0
 11 12  1  0  0  0  0
 12 13  1  0  0  0  0
 14 13  1  0  0  0  0
 15 11  1  0  0  0  0
 15 14  1  0  0  0  0
 16 15  1  0  0  0  0
 17  1  1  0  0  0  0
 17 18  1  6  0  0  0
 19 24  1  0  0  0  0
 20 21  1  0  0  0  0
 20 19  2  0  0  0  0
 21 22  2  0  0  0  0
 22 23  1  0  0  0  0
 23 17  1  0  0  0  0
 24 23  2  0  0  0  0
 25 19  1  0  0  0  0
 26 20  1  0  0  0  0
 27 21  1  0  0  0  0
M  END
>  <minimizedAffinity>
-4.7871933

$$$$
