
 OpenBabel03272510293D

 25 27  0  0  0  0  0  0  0  0999 V2000
   37.2600   31.3660   49.0910 C   0  0  0  0  0  0  0  0  0  0  0  0
   37.9390   32.3860   49.7600 C   0  0  0  0  0  0  0  0  0  0  0  0
   38.7610   33.1610   48.9660 C   0  0  0  0  0  0  0  0  0  0  0  0
   38.8690   32.9090   47.6180 N   0  0  0  0  0  0  0  0  0  0  0  0
   38.1800   31.8950   47.0140 C   0  0  0  0  0  0  0  0  0  0  0  0
   37.3610   31.1140   47.7820 N   0  0  0  0  0  0  0  0  0  0  0  0
   37.8120   32.5310   50.8050 H   0  0  0  0  0  0  0  0  0  0  0  0
   39.3230   33.9720   49.4030 H   0  0  0  0  0  0  0  0  0  0  0  0
   36.3230   30.5050   49.8960 C   0  0  0  0  0  0  0  0  0  0  0  0
   36.0930   29.1110   49.6150 C   0  0  0  0  0  0  0  0  0  0  0  0
   37.0490   29.4500   50.7380 C   0  0  0  0  0  0  0  0  0  0  0  0
   35.5680   31.1150   50.4310 H   0  0  0  0  0  0  0  0  0  0  0  0
   35.1340   28.6310   49.7990 H   0  0  0  0  0  0  0  0  0  0  0  0
   36.6310   28.6810   48.7220 H   0  0  0  0  0  0  0  0  0  0  0  0
   38.1370   29.3330   50.5950 H   0  0  0  0  0  0  0  0  0  0  0  0
   36.6040   29.3290   51.7440 H   0  0  0  0  0  0  0  0  0  0  0  0
   38.2760   31.6360   45.5890 C   0  0  0  0  0  0  0  0  0  0  0  0
   38.4380   32.5590   45.0130 H   0  0  0  0  0  0  0  0  0  0  0  0
   37.2790   31.2350   45.2420 H   0  0  0  0  0  0  0  0  0  0  0  0
   39.3010   30.6580   45.3350 N   0  0  0  0  0  0  0  0  0  0  0  0
   40.5020   31.2730   44.7940 C   0  0  0  0  0  0  0  0  0  0  0  0
   40.5010   30.9400   43.3130 C   0  0  0  0  0  0  0  0  0  0  0  0
   39.2480   30.1430   43.0420 C   0  0  0  0  0  0  0  0  0  0  0  0
   38.9350   29.6090   44.4370 C   0  0  0  0  0  0  0  0  0  0  0  0
   39.6460   28.7600   44.6420 H   0  0  0  0  0  0  0  0  0  0  0  0
  1  2  1  0  0  0  0
  1  9  1  0  0  0  0
  2  7  1  0  0  0  0
  3  8  1  0  0  0  0
  3  2  2  0  0  0  0
  4  3  1  0  0  0  0
  5  4  2  0  0  0  0
  5  6  1  0  0  0  0
  6  1  2  0  0  0  0
  9 12  1  0  0  0  0
  9 11  1  0  0  0  0
 10 13  1  0  0  0  0
 10  9  1  0  0  0  0
 10 11  1  0  0  0  0
 11 16  1  0  0  0  0
 14 10  1  0  0  0  0
 15 11  1  0  0  0  0
 17  5  1  0  0  0  0
 18 17  1  0  0  0  0
 19 17  1  0  0  0  0
 20 17  1  0  0  0  0
 21 20  1  0  0  0  0
 22 21  1  0  0  0  0
 23 22  1  0  0  0  0
 23 24  1  0  0  0  0
 24 25  1  0  0  0  0
 24 20  1  0  0  0  0
M  END
>  <minimizedAffinity>
-4.94594574

>  <minimizedRMSD>
1.32972884

$$$$
