
 OpenBabel03272502283D

 20 21  0  0  0  0  0  0  0  0999 V2000
   37.1960   30.9200   47.6450 C   0  0  0  0  0  0  0  0  0  0  0  0
   38.0970   31.8290   47.3550 C   0  0  0  0  0  0  0  0  0  0  0  0
   37.5210   30.2500   51.2610 C   0  0  0  0  0  0  0  0  0  0  0  0
   37.8160   30.7500   49.9750 C   0  0  0  0  0  0  0  0  0  0  0  0
   36.9300   30.4360   48.9580 C   0  0  0  0  0  0  0  0  0  0  0  0
   35.8230   29.6740   49.2050 N   0  0  0  0  0  0  0  0  0  0  0  0
   35.5760   29.2170   50.4430 C   0  0  0  0  0  0  0  0  0  0  0  0
   36.4090   29.4950   51.4690 N   0  0  0  0  0  0  0  0  0  0  0  0
   38.1370   30.4340   52.1140 H   0  0  0  0  0  0  0  0  0  0  0  0
   38.7060   31.3350   49.8800 H   0  0  0  0  0  0  0  0  0  0  0  0
   34.6730   28.6220   50.5320 H   0  0  0  0  0  0  0  0  0  0  0  0
   38.3490   32.3030   45.9740 C   0  0  0  0  0  0  0  0  0  0  0  0
   37.5660   31.9800   45.2580 H   0  0  0  0  0  0  0  0  0  0  0  0
   38.3020   33.4230   46.0100 H   0  0  0  0  0  0  0  0  0  0  0  0
   39.6600   31.9710   45.4830 N   0  0  0  0  0  0  0  0  0  0  0  0
   39.7340   30.6400   44.9270 C   0  0  0  0  0  0  0  0  0  0  0  0
   40.5140   30.7780   43.6160 C   0  0  0  0  0  0  0  0  0  0  0  0
   39.9270   32.1010   43.1190 C   0  0  0  0  0  0  0  0  0  0  0  0
   39.9440   32.9030   44.4030 C   0  0  0  0  0  0  0  0  0  0  0  0
   39.1950   33.7210   44.3350 H   0  0  0  0  0  0  0  0  0  0  0  0
  1  5  1  0  0  0  0
  2  1  2  0  0  0  0
  3  8  1  0  0  0  0
  3  9  1  0  0  0  0
  4  3  2  0  0  0  0
  5  6  2  0  0  0  0
  5  4  1  0  0  0  0
  6  7  1  0  0  0  0
  7 11  1  0  0  0  0
  7  8  2  0  0  0  0
 10  4  1  0  0  0  0
 12 14  1  0  0  0  0
 12  2  1  0  0  0  0
 13 12  1  0  0  0  0
 15 12  1  0  0  0  0
 16 15  1  0  0  0  0
 17 16  1  0  0  0  0
 18 17  1  0  0  0  0
 18 19  1  0  0  0  0
 19 15  1  0  0  0  0
 20 19  1  0  0  0  0
M  END
>  <minimizedAffinity>
-4.57113743

>  <minimizedRMSD>
1.80441558

$$$$
