
 OpenBabel03272508073D

 32 35  0  0  0  0  0  0  0  0999 V2000
   37.4280   26.4590   34.2950 C   0  0  0  0  0  0  0  0  0  0  0  0
   37.4710   26.8030   32.9550 C   0  0  0  0  0  0  0  0  0  0  0  0
   36.7560   27.9680   32.7290 C   0  0  0  0  0  0  0  0  0  0  0  0
   36.2900   28.3000   33.9660 N   0  0  0  0  0  0  0  0  0  0  0  0
   36.6840   27.4240   34.8620 N   0  0  0  0  0  0  0  0  0  0  0  0
   37.9850   26.2540   32.1740 H   0  0  0  0  0  0  0  0  0  0  0  0
   36.5740   28.5200   31.8290 H   0  0  0  0  0  0  0  0  0  0  0  0
   38.0490   25.3180   34.9380 C   0  0  0  0  0  0  0  0  0  0  0  0
   37.8560   25.1560   36.3330 C   0  0  0  0  0  0  0  0  0  0  0  0
   38.4510   24.0550   36.9450 C   0  0  0  0  0  0  0  0  0  0  0  0
   39.1860   23.1970   36.1650 N   0  0  0  0  0  0  0  0  0  0  0  0
   39.3470   23.3840   34.8430 C   0  0  0  0  0  0  0  0  0  0  0  0
   38.7790   24.4420   34.2330 N   0  0  0  0  0  0  0  0  0  0  0  0
   37.2610   25.8830   36.8620 H   0  0  0  0  0  0  0  0  0  0  0  0
   39.9290   22.7010   34.2420 H   0  0  0  0  0  0  0  0  0  0  0  0
   38.2570   23.8640   38.4140 C   0  0  0  0  0  0  0  0  0  0  0  0
   39.4780   23.4300   38.8870 F   0  0  0  0  0  0  0  0  0  0  0  0
   37.9280   25.0420   39.0600 F   0  0  0  0  0  0  0  0  0  0  0  0
   37.2940   22.8960   38.6830 F   0  0  0  0  0  0  0  0  0  0  0  0
   35.4710   29.4400   34.3430 C   0  0  0  0  0  0  0  0  0  0  0  0
   34.0820   29.4320   34.1570 C   0  0  0  0  0  0  0  0  0  0  0  0
   33.3500   30.5140   34.5270 C   0  0  0  0  0  0  0  0  0  0  0  0
   34.0160   31.6330   35.0940 C   0  0  0  0  0  0  0  0  0  0  0  0
   35.7890   31.0800   35.0890 S   0  0  0  0  0  0  0  0  0  0  0  0
   33.5270   28.5980   33.7280 H   0  0  0  0  0  0  0  0  0  0  0  0
   32.2960   30.7190   34.4770 H   0  0  0  0  0  0  0  0  0  0  0  0
   33.8420   32.8600   35.5960 N   0  0  0  0  0  0  0  0  0  0  0  0
   34.8430   33.4350   36.5100 C   0  0  0  0  0  2  0  0  0  0  0  0
   33.9630   33.6610   37.7260 C   0  0  0  0  0  2  0  0  0  0  0  0
   32.7000   34.1880   37.0670 C   0  0  0  0  0  2  0  0  0  0  0  0
   32.9130   33.9610   35.5780 C   0  0  0  0  0  3  0  0  0  0  0  0
   33.3620   34.8970   35.2020 H   0  0  0  0  0  0  0  0  0  0  0  0
  1  5  2  0  0  0  0
  1  8  1  0  0  0  0
  2  1  1  0  0  0  0
  3  2  2  0  0  0  0
  3  4  1  0  0  0  0
  4 20  1  0  0  0  0
  4  5  1  0  0  0  0
  6  2  1  0  0  0  0
  7  3  1  0  0  0  0
  8  9  1  0  0  0  0
  9 14  1  0  0  0  0
  9 10  2  0  0  0  0
 10 16  1  0  0  0  0
 11 10  1  0  0  0  0
 12 11  2  0  0  0  0
 13 12  1  0  0  0  0
 13  8  2  0  0  0  0
 15 12  1  0  0  0  0
 16 19  1  0  0  0  0
 16 17  1  0  0  0  0
 16 18  1  0  0  0  0
 20 24  1  0  0  0  0
 21 20  2  0  0  0  0
 21 22  1  0  0  0  0
 22 23  2  0  0  0  0
 23 27  1  0  0  0  0
 24 23  1  0  0  0  0
 25 21  1  0  0  0  0
 26 22  1  0  0  0  0
 27 28  1  0  0  0  0
 28 29  1  0  0  0  0
 30 29  1  0  0  0  0
 31 27  1  0  0  0  0
 31 30  1  0  0  0  0
 32 31  1  0  0  0  0
M  END
>  <minimizedAffinity>
-6.11014032

$$$$

 OpenBabel03272508073D

 32 35  0  0  0  0  0  0  0  0999 V2000
   37.4150   26.5460   34.2610 C   0  0  0  0  0  0  0  0  0  0  0  0
   37.4030   26.9290   32.9310 C   0  0  0  0  0  0  0  0  0  0  0  0
   36.6570   28.0850   32.7640 C   0  0  0  0  0  0  0  0  0  0  0  0
   36.2300   28.3720   34.0250 N   0  0  0  0  0  0  0  0  0  0  0  0
   36.6720   27.4800   34.8810 N   0  0  0  0  0  0  0  0  0  0  0  0
   37.8990   26.4120   32.1170 H   0  0  0  0  0  0  0  0  0  0  0  0
   36.4330   28.6580   31.8870 H   0  0  0  0  0  0  0  0  0  0  0  0
   38.0790   25.4000   34.8490 C   0  0  0  0  0  0  0  0  0  0  0  0
   37.8930   25.1630   36.2340 C   0  0  0  0  0  0  0  0  0  0  0  0
   38.5310   24.0580   36.7930 C   0  0  0  0  0  0  0  0  0  0  0  0
   39.2990   23.2680   35.9730 N   0  0  0  0  0  0  0  0  0  0  0  0
   39.4530   23.5260   34.6620 C   0  0  0  0  0  0  0  0  0  0  0  0
   38.8430   24.5890   34.1040 N   0  0  0  0  0  0  0  0  0  0  0  0
   37.2700   25.8400   36.7970 H   0  0  0  0  0  0  0  0  0  0  0  0
   40.0610   22.8960   34.0300 H   0  0  0  0  0  0  0  0  0  0  0  0
   38.3450   23.7880   38.2510 C   0  0  0  0  0  0  0  0  0  0  0  0
   38.0190   25.0080   38.8060 F   0  0  0  0  0  0  0  0  0  0  0  0
   37.3110   22.9030   38.4950 F   0  0  0  0  0  0  0  0  0  0  0  0
   39.5150   23.3170   38.8380 F   0  0  0  0  0  0  0  0  0  0  0  0
   35.4040   29.4850   34.4630 C   0  0  0  0  0  0  0  0  0  0  0  0
   35.9520   30.5630   35.1710 C   0  0  0  0  0  0  0  0  0  0  0  0
   35.1490   31.5890   35.5590 C   0  0  0  0  0  0  0  0  0  0  0  0
   33.7670   31.5380   35.2360 C   0  0  0  0  0  0  0  0  0  0  0  0
   33.6330   29.9250   34.3240 S   0  0  0  0  0  0  0  0  0  0  0  0
   37.0050   30.6470   35.4410 H   0  0  0  0  0  0  0  0  0  0  0  0
   35.3530   32.4950   36.0990 H   0  0  0  0  0  0  0  0  0  0  0  0
   32.6020   32.1860   35.3430 N   0  0  0  0  0  0  0  0  0  0  0  0
   31.9980   32.4110   36.6670 C   0  0  0  0  0  2  0  0  0  0  0  0
   30.6820   31.6840   36.4620 C   0  0  0  0  0  2  0  0  0  0  0  0
   30.3350   32.1190   35.0490 C   0  0  0  0  0  2  0  0  0  0  0  0
   31.5870   32.8140   34.5370 C   0  0  0  0  0  3  0  0  0  0  0  0
   31.4460   33.8830   34.7770 H   0  0  0  0  0  0  0  0  0  0  0  0
  1  8  1  0  0  0  0
  1  5  2  0  0  0  0
  2  1  1  0  0  0  0
  3  2  2  0  0  0  0
  3  4  1  0  0  0  0
  4 20  1  0  0  0  0
  4  5  1  0  0  0  0
  6  2  1  0  0  0  0
  7  3  1  0  0  0  0
  8  9  1  0  0  0  0
  9 10  2  0  0  0  0
  9 14  1  0  0  0  0
 10 16  1  0  0  0  0
 11 10  1  0  0  0  0
 12 11  2  0  0  0  0
 13 12  1  0  0  0  0
 13  8  2  0  0  0  0
 15 12  1  0  0  0  0
 16 18  1  0  0  0  0
 16 17  1  0  0  0  0
 16 19  1  0  0  0  0
 20 21  2  0  0  0  0
 21 25  1  0  0  0  0
 21 22  1  0  0  0  0
 22 26  1  0  0  0  0
 23 27  1  0  0  0  0
 23 22  2  0  0  0  0
 24 20  1  0  0  0  0
 24 23  1  0  0  0  0
 27 28  1  0  0  0  0
 29 28  1  0  0  0  0
 30 29  1  0  0  0  0
 31 32  1  0  0  0  0
 31 30  1  0  0  0  0
 31 27  1  0  0  0  0
M  END
>  <minimizedAffinity>
-6.01155472

$$$$

 OpenBabel03272508073D

 32 35  0  0  0  0  0  0  0  0999 V2000
   37.5760   25.2650   33.8300 C   0  0  0  0  0  0  0  0  0  0  0  0
   37.2400   25.0850   32.4990 C   0  0  0  0  0  0  0  0  0  0  0  0
   36.7180   26.2530   31.9670 C   0  0  0  0  0  0  0  0  0  0  0  0
   36.7520   27.1220   33.0150 N   0  0  0  0  0  0  0  0  0  0  0  0
   37.2480   26.5440   34.0840 N   0  0  0  0  0  0  0  0  0  0  0  0
   37.3610   24.1680   31.9320 H   0  0  0  0  0  0  0  0  0  0  0  0
   36.3570   26.4790   30.9840 H   0  0  0  0  0  0  0  0  0  0  0  0
   38.1500   24.2930   34.7400 C   0  0  0  0  0  0  0  0  0  0  0  0
   37.9760   24.5030   36.1310 C   0  0  0  0  0  0  0  0  0  0  0  0
   38.5260   23.5640   37.0010 C   0  0  0  0  0  0  0  0  0  0  0  0
   39.2030   22.4980   36.4610 N   0  0  0  0  0  0  0  0  0  0  0  0
   39.3490   22.3330   35.1340 C   0  0  0  0  0  0  0  0  0  0  0  0
   38.8230   23.2300   34.2780 N   0  0  0  0  0  0  0  0  0  0  0  0
   37.4270   25.3700   36.4600 H   0  0  0  0  0  0  0  0  0  0  0  0
   39.8850   21.4910   34.7240 H   0  0  0  0  0  0  0  0  0  0  0  0
   38.3510   23.7630   38.4710 C   0  0  0  0  0  0  0  0  0  0  0  0
   37.3840   22.8530   38.8460 F   0  0  0  0  0  0  0  0  0  0  0  0
   39.5070   23.4960   39.1800 F   0  0  0  0  0  0  0  0  0  0  0  0
   37.9060   25.0480   38.7640 F   0  0  0  0  0  0  0  0  0  0  0  0
   36.3270   28.5120   33.0450 C   0  0  0  0  0  0  0  0  0  0  0  0
   36.3970   29.3190   31.9010 C   0  0  0  0  0  0  0  0  0  0  0  0
   35.9840   30.6110   31.9660 C   0  0  0  0  0  0  0  0  0  0  0  0
   35.4920   31.1140   33.2000 C   0  0  0  0  0  0  0  0  0  0  0  0
   35.6350   29.6340   34.3140 S   0  0  0  0  0  0  0  0  0  0  0  0
   36.7650   28.9780   30.9330 H   0  0  0  0  0  0  0  0  0  0  0  0
   35.9500   31.3920   31.2280 H   0  0  0  0  0  0  0  0  0  0  0  0
   34.9970   32.1950   33.8120 N   0  0  0  0  0  0  0  0  0  0  0  0
   35.8960   33.2740   34.2540 C   0  0  0  0  0  2  0  0  0  0  0  0
   35.5900   33.2530   35.7410 C   0  0  0  0  0  2  0  0  0  0  0  0
   34.0830   33.0700   35.7180 C   0  0  0  0  0  2  0  0  0  0  0  0
   33.7500   32.7570   34.2670 C   0  0  0  0  0  3  0  0  0  0  0  0
   33.5230   33.7330   33.8030 H   0  0  0  0  0  0  0  0  0  0  0  0
  1  5  2  0  0  0  0
  1  8  1  0  0  0  0
  2  1  1  0  0  0  0
  3  2  2  0  0  0  0
  3  4  1  0  0  0  0
  4 20  1  0  0  0  0
  4  5  1  0  0  0  0
  6  2  1  0  0  0  0
  7  3  1  0  0  0  0
  8  9  1  0  0  0  0
  9 14  1  0  0  0  0
  9 10  2  0  0  0  0
 10 16  1  0  0  0  0
 11 10  1  0  0  0  0
 12 11  2  0  0  0  0
 13  8  2  0  0  0  0
 13 12  1  0  0  0  0
 15 12  1  0  0  0  0
 16 19  1  0  0  0  0
 16 17  1  0  0  0  0
 16 18  1  0  0  0  0
 20 24  1  0  0  0  0
 21 22  1  0  0  0  0
 21 20  2  0  0  0  0
 22 23  2  0  0  0  0
 23 27  1  0  0  0  0
 23 24  1  0  0  0  0
 25 21  1  0  0  0  0
 26 22  1  0  0  0  0
 27 28  1  0  0  0  0
 27 31  1  0  0  0  0
 28 29  1  0  0  0  0
 30 29  1  0  0  0  0
 31 30  1  0  0  0  0
 32 31  1  0  0  0  0
M  END
>  <minimizedAffinity>
-5.90301466

$$$$

 OpenBabel03272508073D

 32 35  0  0  0  0  0  0  0  0999 V2000
   37.9890   25.8420   34.0370 C   0  0  0  0  0  0  0  0  0  0  0  0
   38.6050   26.2780   32.8770 C   0  0  0  0  0  0  0  0  0  0  0  0
   37.9920   27.4260   32.4020 C   0  0  0  0  0  0  0  0  0  0  0  0
   37.0000   27.6540   33.3080 N   0  0  0  0  0  0  0  0  0  0  0  0
   37.0070   26.7360   34.2470 N   0  0  0  0  0  0  0  0  0  0  0  0
   39.4500   25.8040   32.3890 H   0  0  0  0  0  0  0  0  0  0  0  0
   38.1970   28.0300   31.5410 H   0  0  0  0  0  0  0  0  0  0  0  0
   38.3290   24.6860   34.8420 C   0  0  0  0  0  0  0  0  0  0  0  0
   38.1400   24.7740   36.2440 C   0  0  0  0  0  0  0  0  0  0  0  0
   38.4640   23.6580   37.0120 C   0  0  0  0  0  0  0  0  0  0  0  0
   38.9470   22.5450   36.3690 N   0  0  0  0  0  0  0  0  0  0  0  0
   39.1150   22.4990   35.0350 C   0  0  0  0  0  0  0  0  0  0  0  0
   38.8050   23.5680   34.2760 N   0  0  0  0  0  0  0  0  0  0  0  0
   37.7540   25.6910   36.6590 H   0  0  0  0  0  0  0  0  0  0  0  0
   39.4970   21.6180   34.5430 H   0  0  0  0  0  0  0  0  0  0  0  0
   38.2690   23.7280   38.4920 C   0  0  0  0  0  0  0  0  0  0  0  0
   39.4920   23.3930   39.0350 F   0  0  0  0  0  0  0  0  0  0  0  0
   37.9310   24.9990   38.9190 F   0  0  0  0  0  0  0  0  0  0  0  0
   37.3110   22.8170   38.9260 F   0  0  0  0  0  0  0  0  0  0  0  0
   36.0260   28.7330   33.3230 C   0  0  0  0  0  0  0  0  0  0  0  0
   35.7750   29.4710   34.4880 C   0  0  0  0  0  0  0  0  0  0  0  0
   34.8620   30.4760   34.4620 C   0  0  0  0  0  0  0  0  0  0  0  0
   34.1800   30.7520   33.2470 C   0  0  0  0  0  0  0  0  0  0  0  0
   34.9050   29.4910   32.0920 S   0  0  0  0  0  0  0  0  0  0  0  0
   36.2740   29.2970   35.4420 H   0  0  0  0  0  0  0  0  0  0  0  0
   34.5200   31.1550   35.2210 H   0  0  0  0  0  0  0  0  0  0  0  0
   33.2640   31.5370   32.6700 N   0  0  0  0  0  0  0  0  0  0  0  0
   32.5080   32.5100   33.4760 C   0  0  0  0  0  2  0  0  0  0  0  0
   31.1010   32.0030   33.2160 C   0  0  0  0  0  2  0  0  0  0  0  0
   31.1820   31.6890   31.7330 C   0  0  0  0  0  2  0  0  0  0  0  0
   32.6600   31.8070   31.3900 C   0  0  0  0  0  3  0  0  0  0  0  0
   32.8000   32.8510   31.0590 H   0  0  0  0  0  0  0  0  0  0  0  0
  1  5  2  0  0  0  0
  1  8  1  0  0  0  0
  2  1  1  0  0  0  0
  3  2  2  0  0  0  0
  3  4  1  0  0  0  0
  4 20  1  0  0  0  0
  4  5  1  0  0  0  0
  6  2  1  0  0  0  0
  7  3  1  0  0  0  0
  8  9  1  0  0  0  0
  9 14  1  0  0  0  0
  9 10  2  0  0  0  0
 10 16  1  0  0  0  0
 11 10  1  0  0  0  0
 12 11  2  0  0  0  0
 13  8  2  0  0  0  0
 13 12  1  0  0  0  0
 15 12  1  0  0  0  0
 16 18  1  0  0  0  0
 16 19  1  0  0  0  0
 16 17  1  0  0  0  0
 20 21  2  0  0  0  0
 21 25  1  0  0  0  0
 22 21  1  0  0  0  0
 22 26  1  0  0  0  0
 23 22  2  0  0  0  0
 24 23  1  0  0  0  0
 24 20  1  0  0  0  0
 27 23  1  0  0  0  0
 27 28  1  0  0  0  0
 29 28  1  0  0  0  0
 30 29  1  0  0  0  0
 31 30  1  0  0  0  0
 31 27  1  0  0  0  0
 32 31  1  0  0  0  0
M  END
>  <minimizedAffinity>
-5.75782967

$$$$

 OpenBabel03272508073D

 32 35  0  0  0  0  0  0  0  0999 V2000
   37.7560   25.9280   34.0670 C   0  0  0  0  0  0  0  0  0  0  0  0
   36.9600   26.9840   34.4770 C   0  0  0  0  0  0  0  0  0  0  0  0
   36.8680   27.9390   33.4780 C   0  0  0  0  0  0  0  0  0  0  0  0
   37.6300   27.4230   32.4740 N   0  0  0  0  0  0  0  0  0  0  0  0
   38.1370   26.2640   32.8220 N   0  0  0  0  0  0  0  0  0  0  0  0
   36.4670   27.0720   35.4390 H   0  0  0  0  0  0  0  0  0  0  0  0
   36.3460   28.8750   33.4440 H   0  0  0  0  0  0  0  0  0  0  0  0
   38.0990   24.7330   34.8140 C   0  0  0  0  0  0  0  0  0  0  0  0
   38.0290   24.7920   36.2280 C   0  0  0  0  0  0  0  0  0  0  0  0
   38.3550   23.6400   36.9400 C   0  0  0  0  0  0  0  0  0  0  0  0
   38.7230   22.5220   36.2330 N   0  0  0  0  0  0  0  0  0  0  0  0
   38.7780   22.5040   34.8890 C   0  0  0  0  0  0  0  0  0  0  0  0
   38.4660   23.6080   34.1840 N   0  0  0  0  0  0  0  0  0  0  0  0
   37.7280   25.7160   36.6950 H   0  0  0  0  0  0  0  0  0  0  0  0
   39.0710   21.6180   34.3460 H   0  0  0  0  0  0  0  0  0  0  0  0
   38.2850   23.6790   38.4320 C   0  0  0  0  0  0  0  0  0  0  0  0
   37.8970   24.9660   38.7430 F   0  0  0  0  0  0  0  0  0  0  0  0
   37.3430   22.8010   38.9380 F   0  0  0  0  0  0  0  0  0  0  0  0
   39.5240   23.4230   39.0100 F   0  0  0  0  0  0  0  0  0  0  0  0
   37.9000   27.9960   31.1650 C   0  0  0  0  0  0  0  0  0  0  0  0
   37.0450   28.9500   30.5970 C   0  0  0  0  0  0  0  0  0  0  0  0
   37.3340   29.4670   29.3750 C   0  0  0  0  0  0  0  0  0  0  0  0
   38.5010   29.0220   28.7000 C   0  0  0  0  0  0  0  0  0  0  0  0
   39.2100   27.7960   29.9030 S   0  0  0  0  0  0  0  0  0  0  0  0
   36.1390   29.3230   31.0770 H   0  0  0  0  0  0  0  0  0  0  0  0
   36.8290   30.1940   28.7650 H   0  0  0  0  0  0  0  0  0  0  0  0
   39.2280   29.1530   27.5850 N   0  0  0  0  0  0  0  0  0  0  0  0
   39.9040   27.9850   26.9980 C   0  0  0  0  0  2  0  0  0  0  0  0
   41.3390   28.4770   27.0590 C   0  0  0  0  0  2  0  0  0  0  0  0
   41.1610   29.9230   26.6350 C   0  0  0  0  0  2  0  0  0  0  0  0
   39.6560   30.1470   26.6330 C   0  0  0  0  0  3  0  0  0  0  0  0
   39.3300   29.9240   25.6020 H   0  0  0  0  0  0  0  0  0  0  0  0
  1  2  1  0  0  0  0
  1  8  1  0  0  0  0
  2  6  1  0  0  0  0
  3  2  2  0  0  0  0
  4  5  1  0  0  0  0
  4  3  1  0  0  0  0
  5  1  2  0  0  0  0
  7  3  1  0  0  0  0
  8  9  1  0  0  0  0
  9 14  1  0  0  0  0
  9 10  2  0  0  0  0
 10 16  1  0  0  0  0
 11 10  1  0  0  0  0
 12 11  2  0  0  0  0
 13  8  2  0  0  0  0
 13 12  1  0  0  0  0
 15 12  1  0  0  0  0
 16 17  1  0  0  0  0
 16 18  1  0  0  0  0
 16 19  1  0  0  0  0
 20  4  1  0  0  0  0
 21 25  1  0  0  0  0
 21 20  2  0  0  0  0
 22 21  1  0  0  0  0
 23 22  2  0  0  0  0
 23 24  1  0  0  0  0
 24 20  1  0  0  0  0
 26 22  1  0  0  0  0
 27 23  1  0  0  0  0
 28 29  1  0  0  0  0
 28 27  1  0  0  0  0
 30 29  1  0  0  0  0
 31 30  1  0  0  0  0
 31 27  1  0  0  0  0
 32 31  1  0  0  0  0
M  END
>  <minimizedAffinity>
-5.74090338

$$$$

 OpenBabel03272508073D

 32 35  0  0  0  0  0  0  0  0999 V2000
   37.8040   24.6750   33.5840 C   0  0  0  0  0  0  0  0  0  0  0  0
   37.2380   24.0600   32.4800 C   0  0  0  0  0  0  0  0  0  0  0  0
   36.6050   24.9930   31.6750 C   0  0  0  0  0  0  0  0  0  0  0  0
   36.8090   26.1690   32.3310 N   0  0  0  0  0  0  0  0  0  0  0  0
   37.5010   25.9760   33.4300 N   0  0  0  0  0  0  0  0  0  0  0  0
   37.2730   22.9990   32.2550 H   0  0  0  0  0  0  0  0  0  0  0  0
   36.0680   24.8810   30.7540 H   0  0  0  0  0  0  0  0  0  0  0  0
   38.5520   24.0540   34.6580 C   0  0  0  0  0  0  0  0  0  0  0  0
   38.0860   24.2370   35.9840 C   0  0  0  0  0  0  0  0  0  0  0  0
   38.8060   23.6350   37.0130 C   0  0  0  0  0  0  0  0  0  0  0  0
   39.9210   22.9040   36.6830 N   0  0  0  0  0  0  0  0  0  0  0  0
   40.3340   22.7530   35.4120 C   0  0  0  0  0  0  0  0  0  0  0  0
   39.6490   23.3270   34.4040 N   0  0  0  0  0  0  0  0  0  0  0  0
   37.1990   24.8290   36.1450 H   0  0  0  0  0  0  0  0  0  0  0  0
   41.2130   22.1760   35.1670 H   0  0  0  0  0  0  0  0  0  0  0  0
   38.3300   23.8130   38.4180 C   0  0  0  0  0  0  0  0  0  0  0  0
   39.4280   23.5460   39.2090 F   0  0  0  0  0  0  0  0  0  0  0  0
   37.9080   25.1050   38.6710 F   0  0  0  0  0  0  0  0  0  0  0  0
   37.3130   22.9170   38.7310 F   0  0  0  0  0  0  0  0  0  0  0  0
   36.3680   27.5010   31.9490 C   0  0  0  0  0  0  0  0  0  0  0  0
   36.9100   28.1550   30.8350 C   0  0  0  0  0  0  0  0  0  0  0  0
   36.4680   29.3970   30.5050 C   0  0  0  0  0  0  0  0  0  0  0  0
   35.4640   30.0030   31.3050 C   0  0  0  0  0  0  0  0  0  0  0  0
   35.1480   28.7020   32.5940 S   0  0  0  0  0  0  0  0  0  0  0  0
   37.6810   27.7310   30.1900 H   0  0  0  0  0  0  0  0  0  0  0  0
   36.7380   30.0670   29.7100 H   0  0  0  0  0  0  0  0  0  0  0  0
   34.7120   31.0980   31.4600 N   0  0  0  0  0  0  0  0  0  0  0  0
   33.3810   31.0020   32.0830 C   0  0  0  0  0  2  0  0  0  0  0  0
   32.5370   31.5340   30.9390 C   0  0  0  0  0  2  0  0  0  0  0  0
   33.4030   32.6840   30.4580 C   0  0  0  0  0  2  0  0  0  0  0  0
   34.7220   32.5150   31.1970 C   0  0  0  0  0  3  0  0  0  0  0  0
   34.6230   33.1230   32.1130 H   0  0  0  0  0  0  0  0  0  0  0  0
  1  8  1  0  0  0  0
  2  1  1  0  0  0  0
  3  4  1  0  0  0  0
  3  2  2  0  0  0  0
  4  5  1  0  0  0  0
  5  1  2  0  0  0  0
  6  2  1  0  0  0  0
  7  3  1  0  0  0  0
  8  9  1  0  0  0  0
  9 14  1  0  0  0  0
  9 10  2  0  0  0  0
 10 16  1  0  0  0  0
 11 10  1  0  0  0  0
 12 11  2  0  0  0  0
 13  8  2  0  0  0  0
 13 12  1  0  0  0  0
 15 12  1  0  0  0  0
 16 18  1  0  0  0  0
 16 19  1  0  0  0  0
 16 17  1  0  0  0  0
 20  4  1  0  0  0  0
 20 24  1  0  0  0  0
 21 20  2  0  0  0  0
 22 21  1  0  0  0  0
 22 23  2  0  0  0  0
 23 27  1  0  0  0  0
 23 24  1  0  0  0  0
 25 21  1  0  0  0  0
 26 22  1  0  0  0  0
 27 28  1  0  0  0  0
 29 28  1  0  0  0  0
 30 29  1  0  0  0  0
 30 31  1  0  0  0  0
 31 27  1  0  0  0  0
 31 32  1  0  0  0  0
M  END
>  <minimizedAffinity>
-5.73889589

$$$$

 OpenBabel03272508073D

 32 35  0  0  0  0  0  0  0  0999 V2000
   37.4790   26.3510   34.1840 C   0  0  0  0  0  0  0  0  0  0  0  0
   36.6500   27.3320   34.7020 C   0  0  0  0  0  0  0  0  0  0  0  0
   36.4530   28.3410   33.7720 C   0  0  0  0  0  0  0  0  0  0  0  0
   37.1840   27.9320   32.6990 N   0  0  0  0  0  0  0  0  0  0  0  0
   37.7720   26.7840   32.9450 N   0  0  0  0  0  0  0  0  0  0  0  0
   36.2070   27.3330   35.6910 H   0  0  0  0  0  0  0  0  0  0  0  0
   35.8800   29.2450   33.8250 H   0  0  0  0  0  0  0  0  0  0  0  0
   37.9250   25.1340   34.8330 C   0  0  0  0  0  0  0  0  0  0  0  0
   37.9060   25.0920   36.2500 C   0  0  0  0  0  0  0  0  0  0  0  0
   38.3320   23.9190   36.8680 C   0  0  0  0  0  0  0  0  0  0  0  0
   38.7430   22.8780   36.0730 N   0  0  0  0  0  0  0  0  0  0  0  0
   38.7480   22.9550   34.7300 C   0  0  0  0  0  0  0  0  0  0  0  0
   38.3390   24.0810   34.1140 N   0  0  0  0  0  0  0  0  0  0  0  0
   37.5650   25.9610   36.7900 H   0  0  0  0  0  0  0  0  0  0  0  0
   39.0760   22.1290   34.1170 H   0  0  0  0  0  0  0  0  0  0  0  0
   38.3170   23.8530   38.3610 C   0  0  0  0  0  0  0  0  0  0  0  0
   37.3660   22.9030   38.6710 F   0  0  0  0  0  0  0  0  0  0  0  0
   39.5320   23.4470   38.8820 F   0  0  0  0  0  0  0  0  0  0  0  0
   37.9470   25.0700   38.9240 F   0  0  0  0  0  0  0  0  0  0  0  0
   37.3520   28.5980   31.4170 C   0  0  0  0  0  0  0  0  0  0  0  0
   38.0760   28.0020   30.3770 C   0  0  0  0  0  0  0  0  0  0  0  0
   38.2060   28.6520   29.1910 C   0  0  0  0  0  0  0  0  0  0  0  0
   37.6020   29.9290   29.0390 C   0  0  0  0  0  0  0  0  0  0  0  0
   36.8070   30.1890   30.6970 S   0  0  0  0  0  0  0  0  0  0  0  0
   38.5570   27.0250   30.4460 H   0  0  0  0  0  0  0  0  0  0  0  0
   38.7070   28.3880   28.2780 H   0  0  0  0  0  0  0  0  0  0  0  0
   37.4100   30.9450   28.1910 N   0  0  0  0  0  0  0  0  0  0  0  0
   38.1170   30.9780   26.9010 C   0  0  0  0  0  2  0  0  0  0  0  0
   38.8730   32.2840   27.0690 C   0  0  0  0  0  2  0  0  0  0  0  0
   37.8050   33.1480   27.7160 C   0  0  0  0  0  2  0  0  0  0  0  0
   36.6820   32.1830   28.0670 C   0  0  0  0  0  3  0  0  0  0  0  0
   36.0030   32.1970   27.1960 H   0  0  0  0  0  0  0  0  0  0  0  0
  1  2  1  0  0  0  0
  1  8  1  0  0  0  0
  2  6  1  0  0  0  0
  3  7  1  0  0  0  0
  3  2  2  0  0  0  0
  4  5  1  0  0  0  0
  4  3  1  0  0  0  0
  5  1  2  0  0  0  0
  8  9  1  0  0  0  0
  9 14  1  0  0  0  0
  9 10  2  0  0  0  0
 10 16  1  0  0  0  0
 11 10  1  0  0  0  0
 12 11  2  0  0  0  0
 13 12  1  0  0  0  0
 13  8  2  0  0  0  0
 15 12  1  0  0  0  0
 16 17  1  0  0  0  0
 16 18  1  0  0  0  0
 16 19  1  0  0  0  0
 20  4  1  0  0  0  0
 21 25  1  0  0  0  0
 21 20  2  0  0  0  0
 22 21  1  0  0  0  0
 23 22  2  0  0  0  0
 23 24  1  0  0  0  0
 24 20  1  0  0  0  0
 26 22  1  0  0  0  0
 27 23  1  0  0  0  0
 28 29  1  0  0  0  0
 28 27  1  0  0  0  0
 29 30  1  0  0  0  0
 30 31  1  0  0  0  0
 31 27  1  0  0  0  0
 32 31  1  0  0  0  0
M  END
>  <minimizedAffinity>
-5.69427776

$$$$

 OpenBabel03272508073D

 32 35  0  0  0  0  0  0  0  0999 V2000
   37.9770   25.0710   34.9070 C   0  0  0  0  0  0  0  0  0  0  0  0
   37.9090   24.6120   33.6030 C   0  0  0  0  0  0  0  0  0  0  0  0
   37.4040   25.5960   32.7680 C   0  0  0  0  0  0  0  0  0  0  0  0
   37.1750   26.6420   33.6100 N   0  0  0  0  0  0  0  0  0  0  0  0
   37.5090   26.3300   34.8410 N   0  0  0  0  0  0  0  0  0  0  0  0
   38.2030   23.6270   33.2590 H   0  0  0  0  0  0  0  0  0  0  0  0
   37.2140   25.5960   31.7130 H   0  0  0  0  0  0  0  0  0  0  0  0
   38.4480   24.3550   36.0760 C   0  0  0  0  0  0  0  0  0  0  0  0
   39.6360   23.5920   35.9520 C   0  0  0  0  0  0  0  0  0  0  0  0
   40.0870   22.9090   37.0790 C   0  0  0  0  0  0  0  0  0  0  0  0
   39.3570   23.0130   38.2370 N   0  0  0  0  0  0  0  0  0  0  0  0
   38.2310   23.7470   38.3160 C   0  0  0  0  0  0  0  0  0  0  0  0
   37.7810   24.4150   37.2370 N   0  0  0  0  0  0  0  0  0  0  0  0
   40.1430   23.5710   35.0000 H   0  0  0  0  0  0  0  0  0  0  0  0
   37.6660   23.8190   39.2330 H   0  0  0  0  0  0  0  0  0  0  0  0
   41.3400   22.1020   36.9720 C   0  0  0  0  0  0  0  0  0  0  0  0
   42.3670   23.0220   37.0020 F   0  0  0  0  0  0  0  0  0  0  0  0
   41.4980   21.2300   38.0340 F   0  0  0  0  0  0  0  0  0  0  0  0
   41.3940   21.3970   35.7730 F   0  0  0  0  0  0  0  0  0  0  0  0
   36.6440   27.9560   33.2880 C   0  0  0  0  0  0  0  0  0  0  0  0
   36.8150   28.5190   32.0160 C   0  0  0  0  0  0  0  0  0  0  0  0
   36.2990   29.7470   31.7510 C   0  0  0  0  0  0  0  0  0  0  0  0
   35.5990   30.4340   32.7780 C   0  0  0  0  0  0  0  0  0  0  0  0
   35.6940   29.2320   34.1920 S   0  0  0  0  0  0  0  0  0  0  0  0
   37.3430   28.0310   31.1970 H   0  0  0  0  0  0  0  0  0  0  0  0
   36.3110   30.3550   30.8650 H   0  0  0  0  0  0  0  0  0  0  0  0
   34.9390   31.5570   33.0790 N   0  0  0  0  0  0  0  0  0  0  0  0
   35.6800   32.7850   33.4110 C   0  0  0  0  0  2  0  0  0  0  0  0
   35.1450   33.0220   34.8120 C   0  0  0  0  0  2  0  0  0  0  0  0
   33.6770   32.6890   34.6150 C   0  0  0  0  0  2  0  0  0  0  0  0
   33.6000   32.0700   33.2270 C   0  0  0  0  0  3  0  0  0  0  0  0
   33.3830   32.9100   32.5450 H   0  0  0  0  0  0  0  0  0  0  0  0
  1  8  1  0  0  0  0
  2  1  1  0  0  0  0
  3  2  2  0  0  0  0
  3  4  1  0  0  0  0
  4  5  1  0  0  0  0
  5  1  2  0  0  0  0
  6  2  1  0  0  0  0
  7  3  1  0  0  0  0
  8 13  1  0  0  0  0
  9  8  2  0  0  0  0
  9 10  1  0  0  0  0
 10 11  2  0  0  0  0
 11 12  1  0  0  0  0
 12 15  1  0  0  0  0
 13 12  2  0  0  0  0
 14  9  1  0  0  0  0
 16 17  1  0  0  0  0
 16 10  1  0  0  0  0
 16 18  1  0  0  0  0
 19 16  1  0  0  0  0
 20  4  1  0  0  0  0
 20 24  1  0  0  0  0
 21 20  2  0  0  0  0
 22 21  1  0  0  0  0
 22 23  2  0  0  0  0
 23 27  1  0  0  0  0
 23 24  1  0  0  0  0
 25 21  1  0  0  0  0
 26 22  1  0  0  0  0
 27 31  1  0  0  0  0
 27 28  1  0  0  0  0
 28 29  1  0  0  0  0
 30 29  1  0  0  0  0
 31 30  1  0  0  0  0
 32 31  1  0  0  0  0
M  END
>  <minimizedAffinity>
-5.65015173

$$$$

 OpenBabel03272508073D

 32 35  0  0  0  0  0  0  0  0999 V2000
   38.0140   24.8400   34.6950 C   0  0  0  0  0  0  0  0  0  0  0  0
   37.8340   24.2560   33.4530 C   0  0  0  0  0  0  0  0  0  0  0  0
   37.3740   25.1890   32.5380 C   0  0  0  0  0  0  0  0  0  0  0  0
   37.2850   26.3340   33.2710 N   0  0  0  0  0  0  0  0  0  0  0  0
   37.6560   26.1230   34.5120 N   0  0  0  0  0  0  0  0  0  0  0  0
   38.0210   23.2160   33.2060 H   0  0  0  0  0  0  0  0  0  0  0  0
   37.1280   25.0960   31.4990 H   0  0  0  0  0  0  0  0  0  0  0  0
   38.4820   24.2090   35.9130 C   0  0  0  0  0  0  0  0  0  0  0  0
   39.6790   23.4520   35.8490 C   0  0  0  0  0  0  0  0  0  0  0  0
   40.1280   22.8510   37.0230 C   0  0  0  0  0  0  0  0  0  0  0  0
   39.3860   23.0250   38.1660 N   0  0  0  0  0  0  0  0  0  0  0  0
   38.2530   23.7500   38.1870 C   0  0  0  0  0  0  0  0  0  0  0  0
   37.8050   24.3400   37.0620 N   0  0  0  0  0  0  0  0  0  0  0  0
   40.1940   23.3730   34.9050 H   0  0  0  0  0  0  0  0  0  0  0  0
   37.6800   23.8770   39.0930 H   0  0  0  0  0  0  0  0  0  0  0  0
   41.3900   22.0520   36.9800 C   0  0  0  0  0  0  0  0  0  0  0  0
   42.4080   22.9800   37.0420 F   0  0  0  0  0  0  0  0  0  0  0  0
   41.5080   21.1950   38.0590 F   0  0  0  0  0  0  0  0  0  0  0  0
   41.5000   21.3330   35.7940 F   0  0  0  0  0  0  0  0  0  0  0  0
   36.8560   27.6520   32.8320 C   0  0  0  0  0  0  0  0  0  0  0  0
   36.1050   28.4890   33.6690 C   0  0  0  0  0  0  0  0  0  0  0  0
   35.7270   29.7160   33.2260 C   0  0  0  0  0  0  0  0  0  0  0  0
   36.1030   30.1200   31.9180 C   0  0  0  0  0  0  0  0  0  0  0  0
   37.0530   28.6440   31.3070 S   0  0  0  0  0  0  0  0  0  0  0  0
   35.7930   28.2240   34.6800 H   0  0  0  0  0  0  0  0  0  0  0  0
   35.1610   30.5040   33.6890 H   0  0  0  0  0  0  0  0  0  0  0  0
   36.0270   31.1100   31.0220 N   0  0  0  0  0  0  0  0  0  0  0  0
   37.0170   31.2060   29.9370 C   0  0  0  0  0  2  0  0  0  0  0  0
   37.5860   32.5790   30.2450 C   0  0  0  0  0  2  0  0  0  0  0  0
   36.3200   33.3390   30.5970 C   0  0  0  0  0  2  0  0  0  0  0  0
   35.2390   32.2720   30.6960 C   0  0  0  0  0  3  0  0  0  0  0  0
   34.7900   32.2180   29.6880 H   0  0  0  0  0  0  0  0  0  0  0  0
  1  8  1  0  0  0  0
  2  1  1  0  0  0  0
  3  4  1  0  0  0  0
  3  2  2  0  0  0  0
  4  5  1  0  0  0  0
  5  1  2  0  0  0  0
  6  2  1  0  0  0  0
  7  3  1  0  0  0  0
  8 13  1  0  0  0  0
  9  8  2  0  0  0  0
  9 10  1  0  0  0  0
 10 11  2  0  0  0  0
 11 12  1  0  0  0  0
 12 15  1  0  0  0  0
 13 12  2  0  0  0  0
 14  9  1  0  0  0  0
 16 10  1  0  0  0  0
 16 17  1  0  0  0  0
 16 18  1  0  0  0  0
 19 16  1  0  0  0  0
 20  4  1  0  0  0  0
 20 21  2  0  0  0  0
 21 25  1  0  0  0  0
 22 21  1  0  0  0  0
 22 26  1  0  0  0  0
 23 22  2  0  0  0  0
 24 23  1  0  0  0  0
 24 20  1  0  0  0  0
 27 23  1  0  0  0  0
 28 29  1  0  0  0  0
 28 27  1  0  0  0  0
 29 30  1  0  0  0  0
 30 31  1  0  0  0  0
 31 27  1  0  0  0  0
 32 31  1  0  0  0  0
M  END
>  <minimizedAffinity>
-5.60726881

$$$$
