
 OpenBabel03272508173D

 28 30  0  0  1  0  0  0  0  0999 V2000
   38.3440   27.1680   33.2150 Cl  0  0  0  0  0  0  0  0  0  0  0  0
   37.2480   26.0670   32.4590 C   0  0  0  0  0  0  0  0  0  0  0  0
   36.4100   26.6740   31.5730 C   0  0  0  0  0  0  0  0  0  0  0  0
   35.4670   25.8600   30.8930 C   0  0  0  0  0  0  0  0  0  0  0  0
   35.3910   24.5210   31.1060 C   0  0  0  0  0  0  0  0  0  0  0  0
   36.2540   23.9370   32.0100 C   0  0  0  0  0  0  0  0  0  0  0  0
   36.1930   22.2290   32.3160 Cl  0  0  0  0  0  0  0  0  0  0  0  0
   37.1580   24.7130   32.6630 C   0  0  0  0  0  0  0  0  0  0  0  0
   34.7620   26.2530   30.1740 H   0  0  0  0  0  0  0  0  0  0  0  0
   34.6780   23.8800   30.5980 H   0  0  0  0  0  0  0  0  0  0  0  0
   37.0260   28.5040   30.0500 C   0  0  0  0  0  0  0  0  0  0  0  0
   36.3060   28.0930   31.1800 C   0  0  0  0  0  0  0  0  0  0  0  0
   35.5300   29.0230   31.8820 C   0  0  0  0  0  0  0  0  0  0  0  0
   35.5280   30.3000   31.4050 N   0  0  0  0  0  0  0  0  0  0  0  0
   36.2210   30.6720   30.3260 C   0  0  0  0  0  0  0  0  0  0  0  0
   36.9860   29.7670   29.6310 N   0  0  0  0  0  0  0  0  0  0  0  0
   37.6190   27.7730   29.5200 H   0  0  0  0  0  0  0  0  0  0  0  0
   34.9840   28.6820   32.7500 H   0  0  0  0  0  0  0  0  0  0  0  0
   36.1030   31.7270   30.0900 H   0  0  0  0  0  0  0  0  0  0  0  0
   38.1180   24.1710   33.6440 C   0  0  0  0  0  0  0  0  0  0  0  0
   39.0890   23.4350   33.4750 O   0  0  0  0  0  0  0  0  0  0  0  0
   38.1060   24.4030   35.0340 O   0  0  0  0  0  0  0  0  0  0  0  0
   40.2720   24.4800   36.5280 H   0  0  0  0  0  0  0  0  0  0  0  0
   39.9410   23.5210   36.2830 N   0  0  0  0  0  0  0  0  0  0  0  0
   39.9500   22.7320   37.5200 C   0  0  0  0  0  2  0  0  0  0  0  0
   38.8140   23.3040   38.3480 C   0  0  0  0  0  2  0  0  0  0  0  0
   37.9290   23.9210   37.3140 C   0  0  0  0  0  2  0  0  0  0  0  0
   38.5250   23.4990   35.9850 C   0  0  1  0  0  3  0  0  0  0  0  0
  2  8  1  0  0  0  0
  2  1  1  0  0  0  0
  3  2  2  0  0  0  0
  4  5  2  0  0  0  0
  4  3  1  0  0  0  0
  5  6  1  0  0  0  0
  6  7  1  0  0  0  0
  6  8  2  0  0  0  0
  8 20  1  0  0  0  0
  9  4  1  0  0  0  0
 10  5  1  0  0  0  0
 11 12  1  0  0  0  0
 12  3  1  0  0  0  0
 12 13  2  0  0  0  0
 13 18  1  0  0  0  0
 14 13  1  0  0  0  0
 15 14  2  0  0  0  0
 16 11  2  0  0  0  0
 16 15  1  0  0  0  0
 17 11  1  0  0  0  0
 19 15  1  0  0  0  0
 20 22  1  0  0  0  0
 21 20  2  0  0  0  0
 24 23  1  0  0  0  0
 24 25  1  0  0  0  0
 25 26  1  0  0  0  0
 27 26  1  0  0  0  0
 28 22  1  6  0  0  0
 28 24  1  0  0  0  0
 28 27  1  0  0  0  0
M  END
>  <minimizedAffinity>
-5.40204525

$$$$

 OpenBabel03272508173D

 28 30  0  0  1  0  0  0  0  0999 V2000
   38.7440   24.8640   33.7430 Cl  0  0  0  0  0  0  0  0  0  0  0  0
   37.7770   23.4520   33.5060 C   0  0  0  0  0  0  0  0  0  0  0  0
   37.7680   22.6260   34.5890 C   0  0  0  0  0  0  0  0  0  0  0  0
   37.0030   21.4340   34.5020 C   0  0  0  0  0  0  0  0  0  0  0  0
   36.2980   21.1140   33.3850 C   0  0  0  0  0  0  0  0  0  0  0  0
   36.3280   21.9730   32.3070 C   0  0  0  0  0  0  0  0  0  0  0  0
   35.4440   21.6060   30.8580 Cl  0  0  0  0  0  0  0  0  0  0  0  0
   37.0600   23.1150   32.3850 C   0  0  0  0  0  0  0  0  0  0  0  0
   36.9360   20.7180   35.3090 H   0  0  0  0  0  0  0  0  0  0  0  0
   35.7070   20.2090   33.2970 H   0  0  0  0  0  0  0  0  0  0  0  0
   37.7490   23.4130   36.9180 C   0  0  0  0  0  0  0  0  0  0  0  0
   38.4460   22.7580   35.8930 C   0  0  0  0  0  0  0  0  0  0  0  0
   39.7320   22.2630   36.1380 C   0  0  0  0  0  0  0  0  0  0  0  0
   40.2320   22.4580   37.3900 N   0  0  0  0  0  0  0  0  0  0  0  0
   39.5530   23.0850   38.3540 C   0  0  0  0  0  0  0  0  0  0  0  0
   38.2900   23.5750   38.1240 N   0  0  0  0  0  0  0  0  0  0  0  0
   36.7570   23.7890   36.7120 H   0  0  0  0  0  0  0  0  0  0  0  0
   40.2480   21.7620   35.3320 H   0  0  0  0  0  0  0  0  0  0  0  0
   40.1060   23.1500   39.2880 H   0  0  0  0  0  0  0  0  0  0  0  0
   37.1470   24.0890   31.2800 C   0  0  0  0  0  0  0  0  0  0  0  0
   37.8690   24.0910   30.2840 O   0  0  0  0  0  0  0  0  0  0  0  0
   36.3800   25.2640   31.1450 O   0  0  0  0  0  0  0  0  0  0  0  0
   35.3030   27.3940   30.0350 H   0  0  0  0  0  0  0  0  0  0  0  0
   36.3450   27.3530   29.9880 N   0  0  0  0  0  0  0  0  0  0  0  0
   36.8490   28.6690   30.3970 C   0  0  0  0  0  2  0  0  0  0  0  0
   36.5600   28.7450   31.8850 C   0  0  0  0  0  2  0  0  0  0  0  0
   36.4770   27.3050   32.2800 C   0  0  0  0  0  2  0  0  0  0  0  0
   36.9010   26.5350   31.0450 C   0  0  1  0  0  3  0  0  0  0  0  0
  2  1  1  0  0  0  0
  2  3  1  0  0  0  0
  3 12  1  0  0  0  0
  4  3  2  0  0  0  0
  4  9  1  0  0  0  0
  5  4  1  0  0  0  0
  6  8  1  0  0  0  0
  6  5  2  0  0  0  0
  7  6  1  0  0  0  0
  8  2  2  0  0  0  0
 10  5  1  0  0  0  0
 11 16  1  0  0  0  0
 12 13  1  0  0  0  0
 12 11  2  0  0  0  0
 13 14  2  0  0  0  0
 14 15  1  0  0  0  0
 15 19  1  0  0  0  0
 16 15  2  0  0  0  0
 17 11  1  0  0  0  0
 18 13  1  0  0  0  0
 20  8  1  0  0  0  0
 21 20  2  0  0  0  0
 22 20  1  0  0  0  0
 24 23  1  0  0  0  0
 24 25  1  0  0  0  0
 24 28  1  0  0  0  0
 25 26  1  0  0  0  0
 26 27  1  0  0  0  0
 28 22  1  1  0  0  0
 28 27  1  0  0  0  0
M  END
>  <minimizedAffinity>
-5.37306261

$$$$

 OpenBabel03272508173D

 28 30  0  0  1  0  0  0  0  0999 V2000
   38.0110   23.7290   33.2840 Cl  0  0  0  0  0  0  0  0  0  0  0  0
   37.7820   25.3080   33.9490 C   0  0  0  0  0  0  0  0  0  0  0  0
   38.2880   25.4340   35.2070 C   0  0  0  0  0  0  0  0  0  0  0  0
   38.1540   26.6930   35.8480 C   0  0  0  0  0  0  0  0  0  0  0  0
   37.5460   27.7450   35.2420 C   0  0  0  0  0  0  0  0  0  0  0  0
   37.0440   27.5830   33.9680 C   0  0  0  0  0  0  0  0  0  0  0  0
   36.2570   28.9000   33.1530 Cl  0  0  0  0  0  0  0  0  0  0  0  0
   37.1700   26.3800   33.3500 C   0  0  0  0  0  0  0  0  0  0  0  0
   38.5240   26.8870   36.8460 H   0  0  0  0  0  0  0  0  0  0  0  0
   37.4320   28.7150   35.7130 H   0  0  0  0  0  0  0  0  0  0  0  0
   38.3290   24.0320   37.2270 C   0  0  0  0  0  0  0  0  0  0  0  0
   38.9810   24.4470   36.0580 C   0  0  0  0  0  0  0  0  0  0  0  0
   40.2410   23.9220   35.7460 C   0  0  0  0  0  0  0  0  0  0  0  0
   40.7610   23.0190   36.6250 N   0  0  0  0  0  0  0  0  0  0  0  0
   40.1230   22.6360   37.7330 C   0  0  0  0  0  0  0  0  0  0  0  0
   38.8870   23.1460   38.0490 N   0  0  0  0  0  0  0  0  0  0  0  0
   37.3570   24.4470   37.4530 H   0  0  0  0  0  0  0  0  0  0  0  0
   40.7230   24.2580   34.8390 H   0  0  0  0  0  0  0  0  0  0  0  0
   40.6850   21.9110   38.3160 H   0  0  0  0  0  0  0  0  0  0  0  0
   36.6630   26.1210   31.9890 C   0  0  0  0  0  0  0  0  0  0  0  0
   35.5100   25.9620   31.5920 O   0  0  0  0  0  0  0  0  0  0  0  0
   37.4430   26.0000   30.8210 O   0  0  0  0  0  0  0  0  0  0  0  0
   36.2540   28.3410   30.6290 H   0  0  0  0  0  0  0  0  0  0  0  0
   36.6220   27.9600   29.7300 N   0  0  0  0  0  0  0  0  0  0  0  0
   37.3500   29.0460   29.0650 C   0  0  0  0  0  2  0  0  0  0  0  0
   38.5960   29.2450   29.9070 C   0  0  0  0  0  2  0  0  0  0  0  0
   38.7530   27.9210   30.5840 C   0  0  0  0  0  2  0  0  0  0  0  0
   37.7080   27.0270   29.9430 C   0  0  1  0  0  3  0  0  0  0  0  0
  1  2  1  0  0  0  0
  2  3  1  0  0  0  0
  3  4  2  0  0  0  0
  3 12  1  0  0  0  0
  4  9  1  0  0  0  0
  5 10  1  0  0  0  0
  5  4  1  0  0  0  0
  6  5  2  0  0  0  0
  7  6  1  0  0  0  0
  8  2  2  0  0  0  0
  8  6  1  0  0  0  0
 11 17  1  0  0  0  0
 11 16  1  0  0  0  0
 12 11  2  0  0  0  0
 13 12  1  0  0  0  0
 13 14  2  0  0  0  0
 14 15  1  0  0  0  0
 15 16  2  0  0  0  0
 15 19  1  0  0  0  0
 18 13  1  0  0  0  0
 20  8  1  0  0  0  0
 21 20  2  0  0  0  0
 22 20  1  0  0  0  0
 24 28  1  0  0  0  0
 24 23  1  0  0  0  0
 25 24  1  0  0  0  0
 25 26  1  0  0  0  0
 26 27  1  0  0  0  0
 28 27  1  0  0  0  0
 28 22  1  1  0  0  0
M  END
>  <minimizedAffinity>
-5.26252985

$$$$

 OpenBabel03272508173D

 28 30  0  0  1  0  0  0  0  0999 V2000
   39.0530   25.0830   33.4990 Cl  0  0  0  0  0  0  0  0  0  0  0  0
   37.7510   24.2100   32.7730 C   0  0  0  0  0  0  0  0  0  0  0  0
   36.9720   24.9870   31.9700 C   0  0  0  0  0  0  0  0  0  0  0  0
   35.8710   24.3690   31.3220 C   0  0  0  0  0  0  0  0  0  0  0  0
   35.5920   23.0500   31.4850 C   0  0  0  0  0  0  0  0  0  0  0  0
   36.4010   22.2910   32.3040 C   0  0  0  0  0  0  0  0  0  0  0  0
   36.0830   20.6010   32.5430 Cl  0  0  0  0  0  0  0  0  0  0  0  0
   37.4560   22.8780   32.9270 C   0  0  0  0  0  0  0  0  0  0  0  0
   35.1980   24.9050   30.6670 H   0  0  0  0  0  0  0  0  0  0  0  0
   34.7560   22.5560   30.9990 H   0  0  0  0  0  0  0  0  0  0  0  0
   36.3220   27.3160   32.4180 C   0  0  0  0  0  0  0  0  0  0  0  0
   37.0750   26.4230   31.6430 C   0  0  0  0  0  0  0  0  0  0  0  0
   37.8800   26.9130   30.6090 C   0  0  0  0  0  0  0  0  0  0  0  0
   37.8770   28.2630   30.4210 N   0  0  0  0  0  0  0  0  0  0  0  0
   37.1540   29.0980   31.1700 C   0  0  0  0  0  0  0  0  0  0  0  0
   36.3590   28.6270   32.1870 N   0  0  0  0  0  0  0  0  0  0  0  0
   35.7050   26.9200   33.2120 H   0  0  0  0  0  0  0  0  0  0  0  0
   38.4520   26.2040   30.0270 H   0  0  0  0  0  0  0  0  0  0  0  0
   37.2720   30.1390   30.8790 H   0  0  0  0  0  0  0  0  0  0  0  0
   38.3720   22.1420   33.8190 C   0  0  0  0  0  0  0  0  0  0  0  0
   39.4680   21.6360   33.5830 O   0  0  0  0  0  0  0  0  0  0  0  0
   38.1560   21.8600   35.1830 O   0  0  0  0  0  0  0  0  0  0  0  0
   37.3500   21.6040   37.6760 H   0  0  0  0  0  0  0  0  0  0  0  0
   37.2520   22.5640   37.2780 N   0  0  0  0  0  0  0  0  0  0  0  0
   37.7890   23.5010   38.2720 C   0  0  0  0  0  2  0  0  0  0  0  0
   39.2870   23.2570   38.2590 C   0  0  0  0  0  2  0  0  0  0  0  0
   39.5150   22.6710   36.9020 C   0  0  0  0  0  2  0  0  0  0  0  0
   38.1810   22.7960   36.1920 C   0  0  1  0  0  3  0  0  0  0  0  0
  2  8  1  0  0  0  0
  2  1  1  0  0  0  0
  3  2  2  0  0  0  0
  4  5  2  0  0  0  0
  4  3  1  0  0  0  0
  5  6  1  0  0  0  0
  6  7  1  0  0  0  0
  6  8  2  0  0  0  0
  8 20  1  0  0  0  0
  9  4  1  0  0  0  0
 10  5  1  0  0  0  0
 11 17  1  0  0  0  0
 12  3  1  0  0  0  0
 12 11  2  0  0  0  0
 13 12  1  0  0  0  0
 14 13  2  0  0  0  0
 14 15  1  0  0  0  0
 15 16  2  0  0  0  0
 16 11  1  0  0  0  0
 18 13  1  0  0  0  0
 19 15  1  0  0  0  0
 20 22  1  0  0  0  0
 21 20  2  0  0  0  0
 24 23  1  0  0  0  0
 24 25  1  0  0  0  0
 26 25  1  0  0  0  0
 27 26  1  0  0  0  0
 28 22  1  6  0  0  0
 28 27  1  0  0  0  0
 28 24  1  0  0  0  0
M  END
>  <minimizedAffinity>
-5.23150492

$$$$

 OpenBabel03272508173D

 28 30  0  0  1  0  0  0  0  0999 V2000
   38.0800   23.8260   33.0390 Cl  0  0  0  0  0  0  0  0  0  0  0  0
   38.1450   24.8300   34.4440 C   0  0  0  0  0  0  0  0  0  0  0  0
   38.2380   26.1560   34.1470 C   0  0  0  0  0  0  0  0  0  0  0  0
   38.2970   27.0710   35.2290 C   0  0  0  0  0  0  0  0  0  0  0  0
   38.2640   26.6560   36.5220 C   0  0  0  0  0  0  0  0  0  0  0  0
   38.1690   25.3060   36.7880 C   0  0  0  0  0  0  0  0  0  0  0  0
   38.1240   24.7280   38.4250 Cl  0  0  0  0  0  0  0  0  0  0  0  0
   38.1120   24.4260   35.7550 C   0  0  0  0  0  0  0  0  0  0  0  0
   38.3730   28.1410   35.0910 H   0  0  0  0  0  0  0  0  0  0  0  0
   38.3080   27.3380   37.3650 H   0  0  0  0  0  0  0  0  0  0  0  0
   37.0760   27.2610   32.2830 C   0  0  0  0  0  0  0  0  0  0  0  0
   38.2910   26.8370   32.8380 C   0  0  0  0  0  0  0  0  0  0  0  0
   39.4860   27.0690   32.1470 C   0  0  0  0  0  0  0  0  0  0  0  0
   39.3830   27.7090   30.9480 N   0  0  0  0  0  0  0  0  0  0  0  0
   38.2160   28.1060   30.4360 C   0  0  0  0  0  0  0  0  0  0  0  0
   37.0370   27.8820   31.1060 N   0  0  0  0  0  0  0  0  0  0  0  0
   36.1630   27.0740   32.8300 H   0  0  0  0  0  0  0  0  0  0  0  0
   40.4090   26.7320   32.5970 H   0  0  0  0  0  0  0  0  0  0  0  0
   38.3220   28.5990   29.4730 H   0  0  0  0  0  0  0  0  0  0  0  0
   38.0090   22.9670   35.9500 C   0  0  0  0  0  0  0  0  0  0  0  0
   37.0430   22.2790   36.2760 O   0  0  0  0  0  0  0  0  0  0  0  0
   39.0520   22.0320   35.7940 O   0  0  0  0  0  0  0  0  0  0  0  0
   40.6250   20.3190   37.0270 H   0  0  0  0  0  0  0  0  0  0  0  0
   40.7800   21.3190   37.2810 N   0  0  0  0  0  0  0  0  0  0  0  0
   42.2260   21.5580   37.2330 C   0  0  0  0  0  2  0  0  0  0  0  0
   42.5750   21.5040   35.7570 C   0  0  0  0  0  2  0  0  0  0  0  0
   41.2730   21.8270   35.0970 C   0  0  0  0  0  2  0  0  0  0  0  0
   40.3450   22.2160   36.2310 C   0  0  1  0  0  3  0  0  0  0  0  0
  1  2  1  0  0  0  0
  2  8  1  0  0  0  0
  3  2  2  0  0  0  0
  3  4  1  0  0  0  0
  4  5  2  0  0  0  0
  5  6  1  0  0  0  0
  5 10  1  0  0  0  0
  6  7  1  0  0  0  0
  8 20  1  0  0  0  0
  8  6  2  0  0  0  0
  9  4  1  0  0  0  0
 11 17  1  0  0  0  0
 11 12  1  0  0  0  0
 12  3  1  0  0  0  0
 13 18  1  0  0  0  0
 13 12  2  0  0  0  0
 14 13  1  0  0  0  0
 15 14  2  0  0  0  0
 15 16  1  0  0  0  0
 16 11  2  0  0  0  0
 19 15  1  0  0  0  0
 20 21  2  0  0  0  0
 22 20  1  0  0  0  0
 23 24  1  0  0  0  0
 25 24  1  0  0  0  0
 26 25  1  0  0  0  0
 27 26  1  0  0  0  0
 27 28  1  0  0  0  0
 28 22  1  6  0  0  0
 28 24  1  0  0  0  0
M  END
>  <minimizedAffinity>
-5.16688728

$$$$

 OpenBabel03272508173D

 28 30  0  0  1  0  0  0  0  0999 V2000
   36.4260   29.0200   34.8700 Cl  0  0  0  0  0  0  0  0  0  0  0  0
   36.6590   27.8290   33.6390 C   0  0  0  0  0  0  0  0  0  0  0  0
   35.9240   28.0720   32.5190 C   0  0  0  0  0  0  0  0  0  0  0  0
   36.0400   27.1540   31.4430 C   0  0  0  0  0  0  0  0  0  0  0  0
   36.8510   26.0670   31.5120 C   0  0  0  0  0  0  0  0  0  0  0  0
   37.5820   25.8500   32.6610 C   0  0  0  0  0  0  0  0  0  0  0  0
   38.6330   24.4740   32.7960 Cl  0  0  0  0  0  0  0  0  0  0  0  0
   37.4740   26.7260   33.6940 C   0  0  0  0  0  0  0  0  0  0  0  0
   35.4960   27.2630   30.5150 H   0  0  0  0  0  0  0  0  0  0  0  0
   36.9560   25.3520   30.7030 H   0  0  0  0  0  0  0  0  0  0  0  0
   35.4470   30.2010   31.3860 C   0  0  0  0  0  0  0  0  0  0  0  0
   34.9860   29.1700   32.2140 C   0  0  0  0  0  0  0  0  0  0  0  0
   33.6790   29.2170   32.7140 C   0  0  0  0  0  0  0  0  0  0  0  0
   32.9250   30.2920   32.3500 N   0  0  0  0  0  0  0  0  0  0  0  0
   33.3830   31.2650   31.5590 C   0  0  0  0  0  0  0  0  0  0  0  0
   34.6640   31.2290   31.0640 N   0  0  0  0  0  0  0  0  0  0  0  0
   36.4590   30.1490   31.0080 H   0  0  0  0  0  0  0  0  0  0  0  0
   33.3470   28.4090   33.3500 H   0  0  0  0  0  0  0  0  0  0  0  0
   32.6460   32.0420   31.3740 H   0  0  0  0  0  0  0  0  0  0  0  0
   38.2200   26.5710   34.9580 C   0  0  0  0  0  0  0  0  0  0  0  0
   39.3430   26.9660   35.2660 O   0  0  0  0  0  0  0  0  0  0  0  0
   37.7660   25.9060   36.1140 O   0  0  0  0  0  0  0  0  0  0  0  0
   40.1080   24.7840   36.5450 H   0  0  0  0  0  0  0  0  0  0  0  0
   39.3900   24.1540   36.1250 N   0  0  0  0  0  0  0  0  0  0  0  0
   39.4200   22.8980   36.8810 C   0  0  0  0  0  2  0  0  0  0  0  0
   38.8370   23.2520   38.2370 C   0  0  0  0  0  2  0  0  0  0  0  0
   38.0140   24.4640   37.9370 C   0  0  0  0  0  2  0  0  0  0  0  0
   38.0440   24.5940   36.4260 C   0  0  1  0  0  3  0  0  0  0  0  0
  2  8  1  0  0  0  0
  2  1  1  0  0  0  0
  3  2  2  0  0  0  0
  4  5  2  0  0  0  0
  4  3  1  0  0  0  0
  5  6  1  0  0  0  0
  6  7  1  0  0  0  0
  6  8  2  0  0  0  0
  8 20  1  0  0  0  0
  9  4  1  0  0  0  0
 10  5  1  0  0  0  0
 11 12  1  0  0  0  0
 12  3  1  0  0  0  0
 12 13  2  0  0  0  0
 13 18  1  0  0  0  0
 14 13  1  0  0  0  0
 15 14  2  0  0  0  0
 16 11  2  0  0  0  0
 16 15  1  0  0  0  0
 17 11  1  0  0  0  0
 19 15  1  0  0  0  0
 20 21  2  0  0  0  0
 20 22  1  0  0  0  0
 24 28  1  0  0  0  0
 24 23  1  0  0  0  0
 24 25  1  0  0  0  0
 25 26  1  0  0  0  0
 27 26  1  0  0  0  0
 28 22  1  1  0  0  0
 28 27  1  0  0  0  0
M  END
>  <minimizedAffinity>
-5.1352272

$$$$

 OpenBabel03272508173D

 28 30  0  0  1  0  0  0  0  0999 V2000
   36.3610   27.8700   34.8170 Cl  0  0  0  0  0  0  0  0  0  0  0  0
   36.2400   28.7560   33.3380 C   0  0  0  0  0  0  0  0  0  0  0  0
   35.6710   29.9830   33.4990 C   0  0  0  0  0  0  0  0  0  0  0  0
   35.5240   30.7970   32.3460 C   0  0  0  0  0  0  0  0  0  0  0  0
   35.9310   30.3820   31.1190 C   0  0  0  0  0  0  0  0  0  0  0  0
   36.5040   29.1350   30.9910 C   0  0  0  0  0  0  0  0  0  0  0  0
   37.0400   28.5610   29.4420 Cl  0  0  0  0  0  0  0  0  0  0  0  0
   36.6470   28.3520   32.0920 C   0  0  0  0  0  0  0  0  0  0  0  0
   35.0830   31.7840   32.3760 H   0  0  0  0  0  0  0  0  0  0  0  0
   35.8280   30.9870   30.2250 H   0  0  0  0  0  0  0  0  0  0  0  0
   33.7970   30.4760   35.0140 C   0  0  0  0  0  0  0  0  0  0  0  0
   35.1570   30.6430   34.7160 C   0  0  0  0  0  0  0  0  0  0  0  0
   35.9610   31.4130   35.5630 C   0  0  0  0  0  0  0  0  0  0  0  0
   35.3510   31.9630   36.6510 N   0  0  0  0  0  0  0  0  0  0  0  0
   34.0540   31.7920   36.9180 C   0  0  0  0  0  0  0  0  0  0  0  0
   33.2550   31.0390   36.0910 N   0  0  0  0  0  0  0  0  0  0  0  0
   33.1900   29.8790   34.3480 H   0  0  0  0  0  0  0  0  0  0  0  0
   37.0060   31.5260   35.3120 H   0  0  0  0  0  0  0  0  0  0  0  0
   33.7380   32.3030   37.8240 H   0  0  0  0  0  0  0  0  0  0  0  0
   37.2500   27.0050   32.0450 C   0  0  0  0  0  0  0  0  0  0  0  0
   38.4200   26.6690   31.8700 O   0  0  0  0  0  0  0  0  0  0  0  0
   36.5650   25.7830   32.1990 O   0  0  0  0  0  0  0  0  0  0  0  0
   37.5160   23.4540   32.9760 H   0  0  0  0  0  0  0  0  0  0  0  0
   37.7510   23.7200   31.9950 N   0  0  0  0  0  0  0  0  0  0  0  0
   37.4760   22.5510   31.1530 C   0  0  0  0  0  2  0  0  0  0  0  0
   35.9630   22.4350   31.1400 C   0  0  0  0  0  2  0  0  0  0  0  0
   35.5220   23.8280   31.4580 C   0  0  0  0  0  2  0  0  0  0  0  0
   36.7930   24.6540   31.4440 C   0  0  1  0  0  3  0  0  0  0  0  0
  2  3  1  0  0  0  0
  2  1  1  0  0  0  0
  3 12  1  0  0  0  0
  4  9  1  0  0  0  0
  4  3  2  0  0  0  0
  5  4  1  0  0  0  0
  6  5  2  0  0  0  0
  6  8  1  0  0  0  0
  7  6  1  0  0  0  0
  8  2  2  0  0  0  0
 10  5  1  0  0  0  0
 11 16  1  0  0  0  0
 12 11  2  0  0  0  0
 12 13  1  0  0  0  0
 13 14  2  0  0  0  0
 14 15  1  0  0  0  0
 15 19  1  0  0  0  0
 16 15  2  0  0  0  0
 17 11  1  0  0  0  0
 18 13  1  0  0  0  0
 20  8  1  0  0  0  0
 20 22  1  0  0  0  0
 21 20  2  0  0  0  0
 24 23  1  0  0  0  0
 25 24  1  0  0  0  0
 26 25  1  0  0  0  0
 26 27  1  0  0  0  0
 28 27  1  0  0  0  0
 28 24  1  0  0  0  0
 28 22  1  1  0  0  0
M  END
>  <minimizedAffinity>
-5.12906218

$$$$

 OpenBabel03272508173D

 28 30  0  0  1  0  0  0  0  0999 V2000
   38.5570   22.0670   33.2260 Cl  0  0  0  0  0  0  0  0  0  0  0  0
   38.0150   23.7000   33.3930 C   0  0  0  0  0  0  0  0  0  0  0  0
   38.4010   24.2700   34.5680 C   0  0  0  0  0  0  0  0  0  0  0  0
   38.0100   25.6130   34.8080 C   0  0  0  0  0  0  0  0  0  0  0  0
   37.2770   26.3180   33.9080 C   0  0  0  0  0  0  0  0  0  0  0  0
   36.9030   25.7100   32.7280 C   0  0  0  0  0  0  0  0  0  0  0  0
   35.9650   26.5720   31.5480 Cl  0  0  0  0  0  0  0  0  0  0  0  0
   37.2750   24.4250   32.4940 C   0  0  0  0  0  0  0  0  0  0  0  0
   38.2690   26.1480   35.7110 H   0  0  0  0  0  0  0  0  0  0  0  0
   36.9670   27.3440   34.0710 H   0  0  0  0  0  0  0  0  0  0  0  0
   38.5130   23.4520   36.8840 C   0  0  0  0  0  0  0  0  0  0  0  0
   39.1890   23.7120   35.6840 C   0  0  0  0  0  0  0  0  0  0  0  0
   40.5590   23.4400   35.5900 C   0  0  0  0  0  0  0  0  0  0  0  0
   41.1570   22.9260   36.7020 N   0  0  0  0  0  0  0  0  0  0  0  0
   40.4950   22.6840   37.8350 C   0  0  0  0  0  0  0  0  0  0  0  0
   39.1510   22.9490   37.9390 N   0  0  0  0  0  0  0  0  0  0  0  0
   37.4550   23.6680   36.9400 H   0  0  0  0  0  0  0  0  0  0  0  0
   41.0570   23.6490   34.6540 H   0  0  0  0  0  0  0  0  0  0  0  0
   41.1300   22.2760   38.6180 H   0  0  0  0  0  0  0  0  0  0  0  0
   36.9180   23.7000   31.2590 C   0  0  0  0  0  0  0  0  0  0  0  0
   37.5900   23.4750   30.2530 O   0  0  0  0  0  0  0  0  0  0  0  0
   35.6770   23.0950   30.9790 O   0  0  0  0  0  0  0  0  0  0  0  0
   37.3840   21.1350   31.3970 H   0  0  0  0  0  0  0  0  0  0  0  0
   36.5740   20.8910   30.7850 N   0  0  0  0  0  0  0  0  0  0  0  0
   36.0440   19.6090   31.2610 C   0  0  0  0  0  2  0  0  0  0  0  0
   35.3990   19.9330   32.5960 C   0  0  0  0  0  2  0  0  0  0  0  0
   35.1050   21.3940   32.4760 C   0  0  0  0  0  2  0  0  0  0  0  0
   35.4310   21.7420   31.0360 C   0  0  1  0  0  3  0  0  0  0  0  0
  1  2  1  0  0  0  0
  2  3  1  0  0  0  0
  3  4  2  0  0  0  0
  3 12  1  0  0  0  0
  4  9  1  0  0  0  0
  5 10  1  0  0  0  0
  5  4  1  0  0  0  0
  6  5  2  0  0  0  0
  7  6  1  0  0  0  0
  8  6  1  0  0  0  0
  8  2  2  0  0  0  0
 11 17  1  0  0  0  0
 11 16  1  0  0  0  0
 12 11  2  0  0  0  0
 13 12  1  0  0  0  0
 13 14  2  0  0  0  0
 14 15  1  0  0  0  0
 15 16  2  0  0  0  0
 15 19  1  0  0  0  0
 18 13  1  0  0  0  0
 20  8  1  0  0  0  0
 21 20  2  0  0  0  0
 22 20  1  0  0  0  0
 24 28  1  0  0  0  0
 24 25  1  0  0  0  0
 24 23  1  0  0  0  0
 25 26  1  0  0  0  0
 27 26  1  0  0  0  0
 28 22  1  1  0  0  0
 28 27  1  0  0  0  0
M  END
>  <minimizedAffinity>
-5.10101509

$$$$

 OpenBabel03272508173D

 28 30  0  0  1  0  0  0  0  0999 V2000
   38.8020   22.7980   32.0070 Cl  0  0  0  0  0  0  0  0  0  0  0  0
   37.4230   23.7580   31.6060 C   0  0  0  0  0  0  0  0  0  0  0  0
   36.2630   23.0440   31.5940 C   0  0  0  0  0  0  0  0  0  0  0  0
   35.0660   23.7370   31.2770 C   0  0  0  0  0  0  0  0  0  0  0  0
   35.0600   25.0650   30.9930 C   0  0  0  0  0  0  0  0  0  0  0  0
   36.2520   25.7580   31.0140 C   0  0  0  0  0  0  0  0  0  0  0  0
   36.2930   27.4570   30.6580 Cl  0  0  0  0  0  0  0  0  0  0  0  0
   37.4000   25.1000   31.3170 C   0  0  0  0  0  0  0  0  0  0  0  0
   34.0990   23.2540   31.2420 H   0  0  0  0  0  0  0  0  0  0  0  0
   34.1570   25.6140   30.7480 H   0  0  0  0  0  0  0  0  0  0  0  0
   35.7690   21.2410   33.1920 C   0  0  0  0  0  0  0  0  0  0  0  0
   36.0230   21.6130   31.8640 C   0  0  0  0  0  0  0  0  0  0  0  0
   36.0410   20.6350   30.8640 C   0  0  0  0  0  0  0  0  0  0  0  0
   35.8030   19.3520   31.2590 N   0  0  0  0  0  0  0  0  0  0  0  0
   35.5620   19.0180   32.5290 C   0  0  0  0  0  0  0  0  0  0  0  0
   35.5430   19.9700   33.5190 N   0  0  0  0  0  0  0  0  0  0  0  0
   35.7590   22.0090   33.9520 H   0  0  0  0  0  0  0  0  0  0  0  0
   36.2390   20.9470   29.8480 H   0  0  0  0  0  0  0  0  0  0  0  0
   35.3940   17.9520   32.6610 H   0  0  0  0  0  0  0  0  0  0  0  0
   38.7170   25.7640   31.3630 C   0  0  0  0  0  0  0  0  0  0  0  0
   39.6260   25.7750   30.5350 O   0  0  0  0  0  0  0  0  0  0  0  0
   39.2130   26.5540   32.4200 O   0  0  0  0  0  0  0  0  0  0  0  0
   40.0580   27.9220   34.5040 H   0  0  0  0  0  0  0  0  0  0  0  0
   39.7360   26.9520   34.7160 N   0  0  0  0  0  0  0  0  0  0  0  0
   38.8550   27.0350   35.8860 C   0  0  0  0  0  2  0  0  0  0  0  0
   37.6030   27.7250   35.3750 C   0  0  0  0  0  2  0  0  0  0  0  0
   37.6430   27.4380   33.9080 C   0  0  0  0  0  2  0  0  0  0  0  0
   38.7940   26.4680   33.7290 C   0  0  1  0  0  3  0  0  0  0  0  0
  2  1  1  0  0  0  0
  3  2  1  0  0  0  0
  3 12  1  0  0  0  0
  4  3  2  0  0  0  0
  5  6  2  0  0  0  0
  5  4  1  0  0  0  0
  6  8  1  0  0  0  0
  7  6  1  0  0  0  0
  8 20  1  0  0  0  0
  8  2  2  0  0  0  0
  9  4  1  0  0  0  0
 10  5  1  0  0  0  0
 11 16  1  0  0  0  0
 11 17  1  0  0  0  0
 12 11  2  0  0  0  0
 13 14  2  0  0  0  0
 13 12  1  0  0  0  0
 14 15  1  0  0  0  0
 15 19  1  0  0  0  0
 15 16  2  0  0  0  0
 18 13  1  0  0  0  0
 20 22  1  0  0  0  0
 21 20  2  0  0  0  0
 23 24  1  0  0  0  0
 24 25  1  0  0  0  0
 26 25  1  0  0  0  0
 27 26  1  0  0  0  0
 28 22  1  6  0  0  0
 28 27  1  0  0  0  0
 28 24  1  0  0  0  0
M  END
>  <minimizedAffinity>
-5.09247494

$$$$
