
 OpenBabel03272504373D

 33 35  0  0  0  0  0  0  0  0999 V2000
   38.0160   31.5210   46.2070 Cl  0  0  0  0  0  0  0  0  0  0  0  0
   36.7650   30.5200   45.5040 C   0  0  0  0  0  0  0  0  0  0  0  0
   36.8620   30.1450   44.2010 C   0  0  0  0  0  0  0  0  0  0  0  0
   35.8950   29.3610   43.6310 C   0  0  0  0  0  0  0  0  0  0  0  0
   34.8280   28.9640   44.3980 C   0  0  0  0  0  0  0  0  0  0  0  0
   34.7430   29.3520   45.7190 C   0  0  0  0  0  0  0  0  0  0  0  0
   35.7090   30.1430   46.3130 C   0  0  0  0  0  0  0  0  0  0  0  0
   35.9600   29.0570   42.5980 H   0  0  0  0  0  0  0  0  0  0  0  0
   34.0660   28.3410   43.9340 H   0  0  0  0  0  0  0  0  0  0  0  0
   33.9100   29.0370   46.3060 H   0  0  0  0  0  0  0  0  0  0  0  0
   39.0790   32.0580   41.9460 C   0  0  0  0  0  0  0  0  0  0  0  0
   40.2210   31.2290   41.9060 C   0  0  0  0  0  0  0  0  0  0  0  0
   40.1860   30.0590   42.6480 C   0  0  0  0  0  0  0  0  0  0  0  0
   39.0770   29.7670   43.3640 N   0  0  0  0  0  0  0  0  0  0  0  0
   38.0000   30.5700   43.3870 C   0  0  0  0  0  0  0  0  0  0  0  0
   38.0140   31.7010   42.6800 N   0  0  0  0  0  0  0  0  0  0  0  0
   39.0670   32.9800   41.3800 H   0  0  0  0  0  0  0  0  0  0  0  0
   41.0730   31.5270   41.3100 H   0  0  0  0  0  0  0  0  0  0  0  0
   41.3500   29.2420   42.5910 N   0  0  0  0  0  0  0  0  0  0  0  0
   41.5130   28.7490   41.6630 H   0  0  0  0  0  0  0  0  0  0  0  0
   42.0920   29.0260   43.2890 H   0  0  0  0  0  0  0  0  0  0  0  0
   35.6710   30.5920   47.7290 C   0  0  0  0  0  0  0  0  0  0  0  0
   36.3940   31.4090   47.8250 H   0  0  0  0  0  0  0  0  0  0  0  0
   34.6640   31.0910   47.8370 H   0  0  0  0  0  0  0  0  0  0  0  0
   35.7330   29.5110   48.7190 C   0  0  0  0  0  0  0  0  0  0  0  0
   35.4500   28.5530   48.2110 H   0  0  0  0  0  0  0  0  0  0  0  0
   34.9750   29.6820   49.4880 H   0  0  0  0  0  0  0  0  0  0  0  0
   36.9940   29.3140   49.3600 N   0  0  0  0  0  0  0  0  0  0  0  0
   37.8850   30.4230   49.1850 C   0  0  0  0  0  0  0  0  0  0  0  0
   38.2340   30.9670   50.5300 C   0  0  0  0  0  0  0  0  0  0  0  0
   37.2880   30.2690   51.4790 C   0  0  0  0  0  0  0  0  0  0  0  0
   36.9660   28.9970   50.7440 C   0  0  0  0  0  0  0  0  0  0  0  0
   36.0890   28.4780   51.1150 H   0  0  0  0  0  0  0  0  0  0  0  0
  2  1  1  0  0  0  0
  2  7  1  0  0  0  0
  3  2  2  0  0  0  0
  4  3  1  0  0  0  0
  4  5  2  0  0  0  0
  5  6  1  0  0  0  0
  6 10  1  0  0  0  0
  6  7  2  0  0  0  0
  7 22  1  0  0  0  0
  8  4  1  0  0  0  0
  9  5  1  0  0  0  0
 11 16  1  0  0  0  0
 12 11  2  0  0  0  0
 12 13  1  0  0  0  0
 13 14  2  0  0  0  0
 14 15  1  0  0  0  0
 15  3  1  0  0  0  0
 16 15  2  0  0  0  0
 17 11  1  0  0  0  0
 18 12  1  0  0  0  0
 19 13  1  0  0  0  0
 19 21  1  0  0  0  0
 20 19  1  0  0  0  0
 22 23  1  0  0  0  0
 22 24  1  0  0  0  0
 22 25  1  0  0  0  0
 25 28  1  0  0  0  0
 25 27  1  0  0  0  0
 26 25  1  0  0  0  0
 28 32  1  0  0  0  0
 29 28  1  0  0  0  0
 29 30  1  0  0  0  0
 30 31  1  0  0  0  0
 32 33  1  0  0  0  0
 32 31  1  0  0  0  0
M  END
>  <minimizedAffinity>
-5.28202105

>  <minimizedRMSD>
2.98802328

$$$$
