
 OpenBabel03262521143D

 28 30  0  0  0  0  0  0  0  0999 V2000
   37.2030   27.9160   34.7010 O   0  0  0  0  0  0  0  0  0  0  0  0
   38.1260   26.7100   34.8630 P   0  0  1  0  0  0  0  0  0  0  0  0
   39.5830   27.1310   35.6170 O   0  0  0  0  0  0  0  0  0  0  0  0
   39.9740   26.2710   35.9400 H   0  0  0  0  0  0  0  0  0  0  0  0
   37.4030   25.4760   35.8090 O   0  0  0  0  0  0  0  0  0  0  0  0
   38.1670   24.6090   36.5940 C   0  0  0  0  0  0  0  0  0  0  0  0
   37.9200   24.2650   37.9220 C   0  0  0  0  0  0  0  0  0  0  0  0
   38.7870   23.3920   38.5370 C   0  0  0  0  0  0  0  0  0  0  0  0
   39.8460   22.8880   37.8520 N   0  0  0  0  0  0  0  0  0  0  0  0
   40.0600   23.2500   36.5380 C   0  0  0  0  0  0  0  0  0  0  0  0
   39.2180   24.1120   35.9100 N   0  0  0  0  0  0  0  0  0  0  0  0
   37.0470   24.7270   38.3660 H   0  0  0  0  0  0  0  0  0  0  0  0
   38.5850   23.1310   39.5680 H   0  0  0  0  0  0  0  0  0  0  0  0
   40.9120   22.8360   36.0110 H   0  0  0  0  0  0  0  0  0  0  0  0
   38.4110   26.1340   33.2970 O   0  0  0  0  0  0  0  0  0  0  0  0
   37.5220   25.1740   32.7950 C   0  0  0  0  0  0  0  0  0  0  0  0
   36.4180   25.3290   31.9940 C   0  0  0  0  0  0  0  0  0  0  0  0
   35.8880   24.1240   31.7770 N   0  0  0  0  0  0  0  0  0  0  0  0
   36.6160   23.1780   32.4140 C   0  0  0  0  0  0  0  0  0  0  0  0
   37.6180   23.8430   33.0350 N   0  0  0  0  0  0  0  0  0  0  0  0
   36.1130   26.3150   31.6500 H   0  0  0  0  0  0  0  0  0  0  0  0
   35.0280   23.9730   31.1900 H   0  0  0  0  0  0  0  0  0  0  0  0
   36.3120   21.7950   32.3810 N   0  0  0  0  0  0  0  0  0  0  0  0
   36.2800   20.7890   33.4300 C   0  0  0  0  0  2  0  0  0  0  0  0
   35.4310   19.6710   32.9050 C   0  0  0  0  0  2  0  0  0  0  0  0
   34.7520   20.2900   31.6750 C   0  0  0  0  0  2  0  0  0  0  0  0
   35.9420   21.0980   31.1410 C   0  0  0  0  0  3  0  0  0  0  0  0
   35.6560   21.7830   30.3370 H   0  0  0  0  0  0  0  0  0  0  0  0
  2  1  2  6  0  0  0
  2  3  1  0  0  0  0
  2  5  1  0  0  0  0
  3  4  1  0  0  0  0
  5  6  1  0  0  0  0
  6  7  1  0  0  0  0
  7 12  1  0  0  0  0
  7  8  2  0  0  0  0
  8 13  1  0  0  0  0
  9  8  1  0  0  0  0
 10  9  2  0  0  0  0
 11 10  1  0  0  0  0
 11  6  2  0  0  0  0
 14 10  1  0  0  0  0
 15  2  1  0  0  0  0
 16 20  1  0  0  0  0
 16 15  1  0  0  0  0
 17 16  2  0  0  0  0
 18 17  1  0  0  0  0
 18 19  1  0  0  0  0
 19 20  2  0  0  0  0
 21 17  1  0  0  0  0
 22 18  1  0  0  0  0
 23 19  1  0  0  0  0
 23 24  1  0  0  0  0
 25 24  1  0  0  0  0
 26 25  1  0  0  0  0
 27 26  1  0  0  0  0
 27 23  1  0  0  0  0
 28 27  1  0  0  0  0
M  END
>  <minimizedAffinity>
-5.38284302

$$$$

 OpenBabel03262521143D

 28 30  0  0  0  0  0  0  0  0999 V2000
   39.8440   26.5470   34.0650 O   0  0  0  0  0  0  0  0  0  0  0  0
   38.8530   26.2770   35.1960 P   0  0  1  0  0  0  0  0  0  0  0  0
   38.8610   27.5180   36.3480 O   0  0  0  0  0  0  0  0  0  0  0  0
   38.0100   27.4100   36.8600 H   0  0  0  0  0  0  0  0  0  0  0  0
   37.2460   26.1340   34.6140 O   0  0  0  0  0  0  0  0  0  0  0  0
   36.8700   26.6390   33.3670 C   0  0  0  0  0  0  0  0  0  0  0  0
   36.7170   27.9840   33.0340 C   0  0  0  0  0  0  0  0  0  0  0  0
   36.3380   28.2950   31.7490 C   0  0  0  0  0  0  0  0  0  0  0  0
   36.1260   27.3050   30.8440 N   0  0  0  0  0  0  0  0  0  0  0  0
   36.2870   25.9850   31.2070 C   0  0  0  0  0  0  0  0  0  0  0  0
   36.6600   25.6530   32.4700 N   0  0  0  0  0  0  0  0  0  0  0  0
   36.9140   28.6850   33.8360 H   0  0  0  0  0  0  0  0  0  0  0  0
   36.2220   29.3420   31.5020 H   0  0  0  0  0  0  0  0  0  0  0  0
   36.1120   25.2110   30.4680 H   0  0  0  0  0  0  0  0  0  0  0  0
   39.3380   24.8130   35.8940 O   0  0  0  0  0  0  0  0  0  0  0  0
   38.5320   23.6910   35.6590 C   0  0  0  0  0  0  0  0  0  0  0  0
   37.8510   22.8930   36.5440 C   0  0  0  0  0  0  0  0  0  0  0  0
   37.2190   21.9450   35.8500 N   0  0  0  0  0  0  0  0  0  0  0  0
   37.4660   22.0980   34.5290 C   0  0  0  0  0  0  0  0  0  0  0  0
   38.2750   23.1780   34.4300 N   0  0  0  0  0  0  0  0  0  0  0  0
   37.8880   23.0900   37.6130 H   0  0  0  0  0  0  0  0  0  0  0  0
   36.6250   21.2030   36.3030 H   0  0  0  0  0  0  0  0  0  0  0  0
   36.9400   21.2470   33.5260 N   0  0  0  0  0  0  0  0  0  0  0  0
   37.5560   20.6330   32.3610 C   0  0  0  0  0  2  0  0  0  0  0  0
   36.6720   19.4830   31.9840 C   0  0  0  0  0  2  0  0  0  0  0  0
   35.7540   19.3270   33.2050 C   0  0  0  0  0  2  0  0  0  0  0  0
   35.5350   20.8130   33.5170 C   0  0  0  0  0  3  0  0  0  0  0  0
   35.0350   20.9710   34.4770 H   0  0  0  0  0  0  0  0  0  0  0  0
  2  1  2  6  0  0  0
  2 15  1  0  0  0  0
  2  3  1  0  0  0  0
  3  4  1  0  0  0  0
  5  2  1  0  0  0  0
  6  5  1  0  0  0  0
  7  6  1  0  0  0  0
  7 12  1  0  0  0  0
  8  7  2  0  0  0  0
  9 10  2  0  0  0  0
  9  8  1  0  0  0  0
 10 11  1  0  0  0  0
 11  6  2  0  0  0  0
 13  8  1  0  0  0  0
 14 10  1  0  0  0  0
 16 15  1  0  0  0  0
 16 17  2  0  0  0  0
 17 21  1  0  0  0  0
 18 22  1  0  0  0  0
 18 17  1  0  0  0  0
 19 18  1  0  0  0  0
 20 19  2  0  0  0  0
 20 16  1  0  0  0  0
 23 19  1  0  0  0  0
 24 23  1  0  0  0  0
 25 24  1  0  0  0  0
 25 26  1  0  0  0  0
 26 27  1  0  0  0  0
 27 23  1  0  0  0  0
 27 28  1  0  0  0  0
M  END
>  <minimizedAffinity>
-5.21665812

$$$$

 OpenBabel03262521143D

 28 30  0  0  0  0  0  0  0  0999 V2000
   35.7520   25.5440   31.4860 O   0  0  0  0  0  0  0  0  0  0  0  0
   36.2330   26.9900   31.3740 P   0  0  1  0  0  0  0  0  0  0  0  0
   36.4520   27.4560   29.7600 O   0  0  0  0  0  0  0  0  0  0  0  0
   36.4700   28.4540   29.7720 H   0  0  0  0  0  0  0  0  0  0  0  0
   35.1170   28.0880   32.0720 O   0  0  0  0  0  0  0  0  0  0  0  0
   35.4380   29.4330   32.2720 C   0  0  0  0  0  0  0  0  0  0  0  0
   35.2450   30.1610   33.4450 C   0  0  0  0  0  0  0  0  0  0  0  0
   35.6240   31.4830   33.4570 C   0  0  0  0  0  0  0  0  0  0  0  0
   36.1700   32.0450   32.3470 N   0  0  0  0  0  0  0  0  0  0  0  0
   36.3460   31.2950   31.2030 C   0  0  0  0  0  0  0  0  0  0  0  0
   35.9790   29.9870   31.1680 N   0  0  0  0  0  0  0  0  0  0  0  0
   34.8030   29.6100   34.2660 H   0  0  0  0  0  0  0  0  0  0  0  0
   35.4710   32.0390   34.3730 H   0  0  0  0  0  0  0  0  0  0  0  0
   36.7830   31.7640   30.3290 H   0  0  0  0  0  0  0  0  0  0  0  0
   37.6990   27.0550   32.2160 O   0  0  0  0  0  0  0  0  0  0  0  0
   37.7140   26.5420   33.5200 C   0  0  0  0  0  0  0  0  0  0  0  0
   37.1580   27.0430   34.6720 C   0  0  0  0  0  0  0  0  0  0  0  0
   37.4360   26.2020   35.6690 N   0  0  0  0  0  0  0  0  0  0  0  0
   38.1600   25.1580   35.2050 C   0  0  0  0  0  0  0  0  0  0  0  0
   38.3210   25.3840   33.8800 N   0  0  0  0  0  0  0  0  0  0  0  0
   36.6040   27.9790   34.6600 H   0  0  0  0  0  0  0  0  0  0  0  0
   37.1190   26.3630   36.6600 H   0  0  0  0  0  0  0  0  0  0  0  0
   38.6140   24.0910   36.0180 N   0  0  0  0  0  0  0  0  0  0  0  0
   39.9020   23.4190   36.0980 C   0  0  0  0  0  2  0  0  0  0  0  0
   39.9350   22.7470   37.4370 C   0  0  0  0  0  2  0  0  0  0  0  0
   38.7480   23.3790   38.1800 C   0  0  0  0  0  2  0  0  0  0  0  0
   37.7540   23.4350   37.0130 C   0  0  0  0  0  3  0  0  0  0  0  0
   36.8600   24.0190   37.2530 H   0  0  0  0  0  0  0  0  0  0  0  0
  2  1  2  1  0  0  0
  2  5  1  0  0  0  0
  2 15  1  0  0  0  0
  3  4  1  0  0  0  0
  3  2  1  0  0  0  0
  5  6  1  0  0  0  0
  6  7  1  0  0  0  0
  7  8  2  0  0  0  0
  7 12  1  0  0  0  0
  8 13  1  0  0  0  0
  9  8  1  0  0  0  0
 10  9  2  0  0  0  0
 11 10  1  0  0  0  0
 11  6  2  0  0  0  0
 14 10  1  0  0  0  0
 15 16  1  0  0  0  0
 16 20  1  0  0  0  0
 16 17  2  0  0  0  0
 17 18  1  0  0  0  0
 18 22  1  0  0  0  0
 19 18  1  0  0  0  0
 19 23  1  0  0  0  0
 20 19  2  0  0  0  0
 21 17  1  0  0  0  0
 23 24  1  0  0  0  0
 23 27  1  0  0  0  0
 24 25  1  0  0  0  0
 25 26  1  0  0  0  0
 27 28  1  0  0  0  0
 27 26  1  0  0  0  0
M  END
>  <minimizedAffinity>
-5.09815073

$$$$

 OpenBabel03262521143D

 28 30  0  0  0  0  0  0  0  0999 V2000
   38.7380   25.3390   30.7370 O   0  0  0  0  0  0  0  0  0  0  0  0
   37.5580   26.1010   31.3380 P   0  0  1  0  0  0  0  0  0  0  0  0
   36.7790   27.0640   30.1840 O   0  0  0  0  0  0  0  0  0  0  0  0
   35.8850   27.2760   30.5740 H   0  0  0  0  0  0  0  0  0  0  0  0
   36.3810   25.0400   31.9930 O   0  0  0  0  0  0  0  0  0  0  0  0
   36.5240   23.6520   31.9220 C   0  0  0  0  0  0  0  0  0  0  0  0
   37.4930   22.8890   32.5690 C   0  0  0  0  0  0  0  0  0  0  0  0
   37.4790   21.5260   32.3800 C   0  0  0  0  0  0  0  0  0  0  0  0
   36.5360   20.9600   31.5820 N   0  0  0  0  0  0  0  0  0  0  0  0
   35.5910   21.7470   30.9570 C   0  0  0  0  0  0  0  0  0  0  0  0
   35.5860   23.0940   31.1280 N   0  0  0  0  0  0  0  0  0  0  0  0
   38.1920   23.4470   33.1800 H   0  0  0  0  0  0  0  0  0  0  0  0
   38.2360   20.9430   32.8870 H   0  0  0  0  0  0  0  0  0  0  0  0
   34.8490   21.2730   30.3240 H   0  0  0  0  0  0  0  0  0  0  0  0
   38.2100   27.0610   32.5710 O   0  0  0  0  0  0  0  0  0  0  0  0
   38.2250   26.5200   33.8640 C   0  0  0  0  0  0  0  0  0  0  0  0
   37.7060   27.0170   35.0340 C   0  0  0  0  0  0  0  0  0  0  0  0
   37.9680   26.1460   36.0100 N   0  0  0  0  0  0  0  0  0  0  0  0
   38.6460   25.0870   35.5130 C   0  0  0  0  0  0  0  0  0  0  0  0
   38.7950   25.3340   34.1910 N   0  0  0  0  0  0  0  0  0  0  0  0
   37.1870   27.9730   35.0510 H   0  0  0  0  0  0  0  0  0  0  0  0
   37.6730   26.2980   37.0090 H   0  0  0  0  0  0  0  0  0  0  0  0
   39.0740   23.9870   36.2970 N   0  0  0  0  0  0  0  0  0  0  0  0
   40.3360   23.2670   36.3420 C   0  0  0  0  0  2  0  0  0  0  0  0
   40.3650   22.5660   37.6670 C   0  0  0  0  0  2  0  0  0  0  0  0
   39.2140   23.2250   38.4410 C   0  0  0  0  0  2  0  0  0  0  0  0
   38.2050   23.3420   37.2920 C   0  0  0  0  0  3  0  0  0  0  0  0
   37.3370   23.9530   37.5580 H   0  0  0  0  0  0  0  0  0  0  0  0
  2  1  2  6  0  0  0
  2  5  1  0  0  0  0
  2 15  1  0  0  0  0
  3  4  1  0  0  0  0
  3  2  1  0  0  0  0
  6  5  1  0  0  0  0
  6  7  1  0  0  0  0
  7 12  1  0  0  0  0
  8  7  2  0  0  0  0
  8 13  1  0  0  0  0
  9  8  1  0  0  0  0
 10 11  1  0  0  0  0
 10  9  2  0  0  0  0
 11  6  2  0  0  0  0
 14 10  1  0  0  0  0
 15 16  1  0  0  0  0
 16 20  1  0  0  0  0
 16 17  2  0  0  0  0
 17 21  1  0  0  0  0
 17 18  1  0  0  0  0
 18 22  1  0  0  0  0
 19 18  1  0  0  0  0
 19 23  1  0  0  0  0
 20 19  2  0  0  0  0
 23 24  1  0  0  0  0
 23 27  1  0  0  0  0
 24 25  1  0  0  0  0
 25 26  1  0  0  0  0
 27 28  1  0  0  0  0
 27 26  1  0  0  0  0
M  END
>  <minimizedAffinity>
-4.83726978

$$$$

 OpenBabel03262521143D

 28 30  0  0  0  0  0  0  0  0999 V2000
   39.7240   27.3000   33.8140 O   0  0  0  0  0  0  0  0  0  0  0  0
   38.7400   26.7170   34.8280 P   0  0  1  0  0  0  0  0  0  0  0  0
   38.7920   27.5490   36.3020 O   0  0  0  0  0  0  0  0  0  0  0  0
   37.9450   27.3070   36.7730 H   0  0  0  0  0  0  0  0  0  0  0  0
   37.1240   26.7870   34.2610 O   0  0  0  0  0  0  0  0  0  0  0  0
   36.7970   27.4030   33.0500 C   0  0  0  0  0  0  0  0  0  0  0  0
   36.8890   26.8300   31.7830 C   0  0  0  0  0  0  0  0  0  0  0  0
   36.5210   27.5930   30.6990 C   0  0  0  0  0  0  0  0  0  0  0  0
   36.0820   28.8660   30.8790 N   0  0  0  0  0  0  0  0  0  0  0  0
   36.0030   29.4000   32.1480 C   0  0  0  0  0  0  0  0  0  0  0  0
   36.3610   28.6670   33.2340 N   0  0  0  0  0  0  0  0  0  0  0  0
   37.2510   25.8100   31.7600 H   0  0  0  0  0  0  0  0  0  0  0  0
   36.5960   27.1380   29.7200 H   0  0  0  0  0  0  0  0  0  0  0  0
   35.6500   30.4190   32.2690 H   0  0  0  0  0  0  0  0  0  0  0  0
   39.2010   25.1020   35.0400 O   0  0  0  0  0  0  0  0  0  0  0  0
   38.8050   24.1880   34.0550 C   0  0  0  0  0  0  0  0  0  0  0  0
   39.2040   24.0730   32.7460 C   0  0  0  0  0  0  0  0  0  0  0  0
   38.5490   23.0470   32.1990 N   0  0  0  0  0  0  0  0  0  0  0  0
   37.7290   22.4820   33.1140 C   0  0  0  0  0  0  0  0  0  0  0  0
   37.8990   23.1970   34.2500 N   0  0  0  0  0  0  0  0  0  0  0  0
   39.9380   24.7570   32.3260 H   0  0  0  0  0  0  0  0  0  0  0  0
   38.6810   22.7530   31.1970 H   0  0  0  0  0  0  0  0  0  0  0  0
   36.8950   21.3690   32.8430 N   0  0  0  0  0  0  0  0  0  0  0  0
   35.5050   21.1020   33.1760 C   0  0  0  0  0  2  0  0  0  0  0  0
   35.0490   20.0380   32.2240 C   0  0  0  0  0  2  0  0  0  0  0  0
   36.1630   20.0070   31.1680 C   0  0  0  0  0  2  0  0  0  0  0  0
   37.3670   20.1920   32.1010 C   0  0  0  0  0  3  0  0  0  0  0  0
   38.2960   20.3780   31.5540 H   0  0  0  0  0  0  0  0  0  0  0  0
  2  1  2  6  0  0  0
  2 15  1  0  0  0  0
  2  3  1  0  0  0  0
  3  4  1  0  0  0  0
  5  2  1  0  0  0  0
  6 11  1  0  0  0  0
  6  5  1  0  0  0  0
  7  6  2  0  0  0  0
  8  9  2  0  0  0  0
  8  7  1  0  0  0  0
  9 10  1  0  0  0  0
 10 14  1  0  0  0  0
 10 11  2  0  0  0  0
 12  7  1  0  0  0  0
 13  8  1  0  0  0  0
 16 20  1  0  0  0  0
 16 15  1  0  0  0  0
 17 16  2  0  0  0  0
 18 17  1  0  0  0  0
 18 19  1  0  0  0  0
 19 20  2  0  0  0  0
 21 17  1  0  0  0  0
 22 18  1  0  0  0  0
 23 19  1  0  0  0  0
 23 24  1  0  0  0  0
 25 24  1  0  0  0  0
 26 27  1  0  0  0  0
 26 25  1  0  0  0  0
 27 23  1  0  0  0  0
 28 27  1  0  0  0  0
M  END
>  <minimizedAffinity>
-4.67733431

$$$$

 OpenBabel03262521143D

 28 30  0  0  0  0  0  0  0  0999 V2000
   37.9370   28.9000   31.0260 O   0  0  0  0  0  0  0  0  0  0  0  0
   36.5430   28.2810   31.1150 P   0  0  1  0  0  0  0  0  0  0  0  0
   36.1960   27.3180   29.7660 O   0  0  0  0  0  0  0  0  0  0  0  0
   35.4290   26.7410   30.0420 H   0  0  0  0  0  0  0  0  0  0  0  0
   36.3740   27.2910   32.5050 O   0  0  0  0  0  0  0  0  0  0  0  0
   37.3940   27.1740   33.4510 C   0  0  0  0  0  0  0  0  0  0  0  0
   38.6410   26.5830   33.2510 C   0  0  0  0  0  0  0  0  0  0  0  0
   39.5240   26.5600   34.3050 C   0  0  0  0  0  0  0  0  0  0  0  0
   39.1730   27.1040   35.5000 N   0  0  0  0  0  0  0  0  0  0  0  0
   37.9310   27.6810   35.6620 C   0  0  0  0  0  0  0  0  0  0  0  0
   37.0420   27.7160   34.6360 N   0  0  0  0  0  0  0  0  0  0  0  0
   38.8100   26.1830   32.2590 H   0  0  0  0  0  0  0  0  0  0  0  0
   40.4890   26.0990   34.1390 H   0  0  0  0  0  0  0  0  0  0  0  0
   37.6720   28.1090   36.6240 H   0  0  0  0  0  0  0  0  0  0  0  0
   35.4660   29.5840   31.2090 O   0  0  0  0  0  0  0  0  0  0  0  0
   35.0580   29.9880   32.4880 C   0  0  0  0  0  0  0  0  0  0  0  0
   35.6610   30.8430   33.3770 C   0  0  0  0  0  0  0  0  0  0  0  0
   34.8960   30.9180   34.4670 N   0  0  0  0  0  0  0  0  0  0  0  0
   33.8030   30.1350   34.3190 C   0  0  0  0  0  0  0  0  0  0  0  0
   33.9190   29.5710   33.0950 N   0  0  0  0  0  0  0  0  0  0  0  0
   36.6040   31.3250   33.1320 H   0  0  0  0  0  0  0  0  0  0  0  0
   35.1420   31.5130   35.3000 H   0  0  0  0  0  0  0  0  0  0  0  0
   32.7940   29.9970   35.3040 N   0  0  0  0  0  0  0  0  0  0  0  0
   32.1030   28.8250   35.8190 C   0  0  0  0  0  2  0  0  0  0  0  0
   31.5380   29.2300   37.1480 C   0  0  0  0  0  2  0  0  0  0  0  0
   32.2530   30.5550   37.4470 C   0  0  0  0  0  2  0  0  0  0  0  0
   32.2380   31.1470   36.0320 C   0  0  0  0  0  3  0  0  0  0  0  0
   32.8580   32.0440   35.9460 H   0  0  0  0  0  0  0  0  0  0  0  0
  2  1  2  6  0  0  0
  2 15  1  0  0  0  0
  2  5  1  0  0  0  0
  3  4  1  0  0  0  0
  3  2  1  0  0  0  0
  5  6  1  0  0  0  0
  6 11  1  0  0  0  0
  7  6  2  0  0  0  0
  7  8  1  0  0  0  0
  8  9  2  0  0  0  0
  9 10  1  0  0  0  0
 10 14  1  0  0  0  0
 11 10  2  0  0  0  0
 12  7  1  0  0  0  0
 13  8  1  0  0  0  0
 15 16  1  0  0  0  0
 16 20  1  0  0  0  0
 16 17  2  0  0  0  0
 17 18  1  0  0  0  0
 18 22  1  0  0  0  0
 19 18  1  0  0  0  0
 19 23  1  0  0  0  0
 20 19  2  0  0  0  0
 21 17  1  0  0  0  0
 23 24  1  0  0  0  0
 23 27  1  0  0  0  0
 24 25  1  0  0  0  0
 25 26  1  0  0  0  0
 27 26  1  0  0  0  0
 28 27  1  0  0  0  0
M  END
>  <minimizedAffinity>
-4.64294624

$$$$

 OpenBabel03262521143D

 28 30  0  0  0  0  0  0  0  0999 V2000
   37.3170   25.8140   32.5940 O   0  0  0  0  0  0  0  0  0  0  0  0
   36.5800   25.2750   31.3700 P   0  0  1  0  0  0  0  0  0  0  0  0
   37.6520   24.8380   30.1330 O   0  0  0  0  0  0  0  0  0  0  0  0
   37.1280   24.2440   29.5260 H   0  0  0  0  0  0  0  0  0  0  0  0
   35.6470   23.8870   31.7480 O   0  0  0  0  0  0  0  0  0  0  0  0
   36.2240   22.6180   31.8400 C   0  0  0  0  0  0  0  0  0  0  0  0
   37.3230   22.2670   32.6210 C   0  0  0  0  0  0  0  0  0  0  0  0
   37.7540   20.9610   32.5850 C   0  0  0  0  0  0  0  0  0  0  0  0
   37.1110   20.0540   31.8040 N   0  0  0  0  0  0  0  0  0  0  0  0
   36.0260   20.4360   31.0440 C   0  0  0  0  0  0  0  0  0  0  0  0
   35.5830   21.7200   31.0630 N   0  0  0  0  0  0  0  0  0  0  0  0
   37.7540   23.0720   33.2040 H   0  0  0  0  0  0  0  0  0  0  0  0
   38.6080   20.6990   33.1960 H   0  0  0  0  0  0  0  0  0  0  0  0
   35.5290   19.6950   30.4270 H   0  0  0  0  0  0  0  0  0  0  0  0
   35.5600   26.5260   30.8590 O   0  0  0  0  0  0  0  0  0  0  0  0
   35.8690   27.8230   31.2920 C   0  0  0  0  0  0  0  0  0  0  0  0
   36.6860   28.7700   30.7260 C   0  0  0  0  0  0  0  0  0  0  0  0
   36.6650   29.8550   31.5030 N   0  0  0  0  0  0  0  0  0  0  0  0
   35.8550   29.6470   32.5650 C   0  0  0  0  0  0  0  0  0  0  0  0
   35.3730   28.3910   32.4190 N   0  0  0  0  0  0  0  0  0  0  0  0
   37.2140   28.5660   29.7980 H   0  0  0  0  0  0  0  0  0  0  0  0
   37.2140   30.7260   31.2850 H   0  0  0  0  0  0  0  0  0  0  0  0
   35.6210   30.6100   33.5780 N   0  0  0  0  0  0  0  0  0  0  0  0
   35.5810   30.4950   35.0270 C   0  0  0  0  0  2  0  0  0  0  0  0
   35.7910   31.8820   35.5570 C   0  0  0  0  0  2  0  0  0  0  0  0
   36.2760   32.6610   34.3260 C   0  0  0  0  0  2  0  0  0  0  0  0
   35.3560   32.0230   33.2760 C   0  0  0  0  0  3  0  0  0  0  0  0
   35.6330   32.2990   32.2540 H   0  0  0  0  0  0  0  0  0  0  0  0
  2  5  1  0  0  0  0
  2  1  2  1  0  0  0
  3  2  1  0  0  0  0
  4  3  1  0  0  0  0
  5  6  1  0  0  0  0
  6  7  1  0  0  0  0
  7 12  1  0  0  0  0
  8  7  2  0  0  0  0
  8 13  1  0  0  0  0
  9  8  1  0  0  0  0
 10 11  1  0  0  0  0
 10  9  2  0  0  0  0
 11  6  2  0  0  0  0
 14 10  1  0  0  0  0
 15 16  1  0  0  0  0
 15  2  1  0  0  0  0
 16 20  1  0  0  0  0
 17 16  2  0  0  0  0
 17 18  1  0  0  0  0
 18 19  1  0  0  0  0
 19 23  1  0  0  0  0
 20 19  2  0  0  0  0
 21 17  1  0  0  0  0
 22 18  1  0  0  0  0
 23 24  1  0  0  0  0
 24 25  1  0  0  0  0
 26 25  1  0  0  0  0
 27 23  1  0  0  0  0
 27 26  1  0  0  0  0
 28 27  1  0  0  0  0
M  END
>  <minimizedAffinity>
-4.60161591

$$$$

 OpenBabel03262521143D

 28 30  0  0  0  0  0  0  0  0999 V2000
   38.6960   27.1820   35.6810 O   0  0  0  0  0  0  0  0  0  0  0  0
   38.4590   26.4130   34.3820 P   0  0  1  0  0  0  0  0  0  0  0  0
   39.5810   26.8380   33.1870 O   0  0  0  0  0  0  0  0  0  0  0  0
   39.5410   26.1040   32.5120 H   0  0  0  0  0  0  0  0  0  0  0  0
   38.5820   24.7180   34.6140 O   0  0  0  0  0  0  0  0  0  0  0  0
   38.7780   24.1630   35.8800 C   0  0  0  0  0  0  0  0  0  0  0  0
   39.8810   23.4140   36.2900 C   0  0  0  0  0  0  0  0  0  0  0  0
   39.9010   22.9460   37.5830 C   0  0  0  0  0  0  0  0  0  0  0  0
   38.8680   23.2180   38.4230 N   0  0  0  0  0  0  0  0  0  0  0  0
   37.7930   23.9630   37.9830 C   0  0  0  0  0  0  0  0  0  0  0  0
   37.7500   24.4350   36.7110 N   0  0  0  0  0  0  0  0  0  0  0  0
   40.6430   23.2620   35.5370 H   0  0  0  0  0  0  0  0  0  0  0  0
   40.7620   22.3660   37.8910 H   0  0  0  0  0  0  0  0  0  0  0  0
   36.9800   24.1670   38.6700 H   0  0  0  0  0  0  0  0  0  0  0  0
   36.8880   26.8090   33.8920 O   0  0  0  0  0  0  0  0  0  0  0  0
   36.7420   27.9050   33.0310 C   0  0  0  0  0  0  0  0  0  0  0  0
   35.9270   29.0050   33.1330 C   0  0  0  0  0  0  0  0  0  0  0  0
   36.1380   29.7810   32.0680 N   0  0  0  0  0  0  0  0  0  0  0  0
   37.0720   29.2200   31.2660 C   0  0  0  0  0  0  0  0  0  0  0  0
   37.4330   28.0660   31.8750 N   0  0  0  0  0  0  0  0  0  0  0  0
   35.2590   29.1250   33.9830 H   0  0  0  0  0  0  0  0  0  0  0  0
   35.6310   30.6900   31.9120 H   0  0  0  0  0  0  0  0  0  0  0  0
   37.5180   29.7990   30.0530 N   0  0  0  0  0  0  0  0  0  0  0  0
   37.7530   29.2230   28.7380 C   0  0  0  0  0  2  0  0  0  0  0  0
   37.7240   30.3690   27.7730 C   0  0  0  0  0  2  0  0  0  0  0  0
   37.1300   31.5160   28.6040 C   0  0  0  0  0  2  0  0  0  0  0  0
   37.8430   31.2270   29.9320 C   0  0  0  0  0  3  0  0  0  0  0  0
   37.4470   31.8250   30.7580 H   0  0  0  0  0  0  0  0  0  0  0  0
  2  5  1  0  0  0  0
  2  1  2  1  0  0  0
  3  2  1  0  0  0  0
  4  3  1  0  0  0  0
  5  6  1  0  0  0  0
  6  7  2  0  0  0  0
  6 11  1  0  0  0  0
  7  8  1  0  0  0  0
  8 13  1  0  0  0  0
  8  9  2  0  0  0  0
 10  9  1  0  0  0  0
 10 14  1  0  0  0  0
 11 10  2  0  0  0  0
 12  7  1  0  0  0  0
 15  2  1  0  0  0  0
 16 17  2  0  0  0  0
 16 15  1  0  0  0  0
 17 21  1  0  0  0  0
 18 17  1  0  0  0  0
 19 20  2  0  0  0  0
 19 18  1  0  0  0  0
 20 16  1  0  0  0  0
 22 18  1  0  0  0  0
 23 19  1  0  0  0  0
 24 23  1  0  0  0  0
 25 26  1  0  0  0  0
 25 24  1  0  0  0  0
 26 27  1  0  0  0  0
 27 23  1  0  0  0  0
 27 28  1  0  0  0  0
M  END
>  <minimizedAffinity>
-4.58259678

$$$$

 OpenBabel03262521143D

 28 30  0  0  0  0  0  0  0  0999 V2000
   35.8040   26.4150   31.9100 O   0  0  0  0  0  0  0  0  0  0  0  0
   37.0400   26.8710   31.1360 P   0  0  1  0  0  0  0  0  0  0  0  0
   37.7680   25.5890   30.3030 O   0  0  0  0  0  0  0  0  0  0  0  0
   38.3550   26.0170   29.6180 H   0  0  0  0  0  0  0  0  0  0  0  0
   36.6570   28.0780   29.9790 O   0  0  0  0  0  0  0  0  0  0  0  0
   37.6460   28.6990   29.2120 C   0  0  0  0  0  0  0  0  0  0  0  0
   37.5880   29.9860   28.6780 C   0  0  0  0  0  0  0  0  0  0  0  0
   38.6630   30.4320   27.9450 C   0  0  0  0  0  0  0  0  0  0  0  0
   39.7410   29.6270   27.7590 N   0  0  0  0  0  0  0  0  0  0  0  0
   39.7650   28.3600   28.3020 C   0  0  0  0  0  0  0  0  0  0  0  0
   38.7150   27.8970   29.0300 N   0  0  0  0  0  0  0  0  0  0  0  0
   36.6800   30.5350   28.8920 H   0  0  0  0  0  0  0  0  0  0  0  0
   38.6070   31.4320   27.5350 H   0  0  0  0  0  0  0  0  0  0  0  0
   40.6360   27.7350   28.1410 H   0  0  0  0  0  0  0  0  0  0  0  0
   38.0990   27.5070   32.2930 O   0  0  0  0  0  0  0  0  0  0  0  0
   38.0350   26.9700   33.5860 C   0  0  0  0  0  0  0  0  0  0  0  0
   37.5400   27.5150   34.7450 C   0  0  0  0  0  0  0  0  0  0  0  0
   37.6970   26.6240   35.7250 N   0  0  0  0  0  0  0  0  0  0  0  0
   38.2830   25.5050   35.2420 C   0  0  0  0  0  0  0  0  0  0  0  0
   38.4830   25.7350   33.9240 N   0  0  0  0  0  0  0  0  0  0  0  0
   37.1130   28.5150   34.7500 H   0  0  0  0  0  0  0  0  0  0  0  0
   37.3950   26.8050   36.7170 H   0  0  0  0  0  0  0  0  0  0  0  0
   38.5870   24.3710   36.0350 N   0  0  0  0  0  0  0  0  0  0  0  0
   39.7740   23.5350   36.1070 C   0  0  0  0  0  2  0  0  0  0  0  0
   39.7080   22.8360   37.4320 C   0  0  0  0  0  2  0  0  0  0  0  0
   38.6080   23.6020   38.1810 C   0  0  0  0  0  2  0  0  0  0  0  0
   37.6390   23.8120   37.0100 C   0  0  0  0  0  3  0  0  0  0  0  0
   36.8270   24.5030   37.2570 H   0  0  0  0  0  0  0  0  0  0  0  0
  2  1  2  1  0  0  0
  2 15  1  0  0  0  0
  3  2  1  0  0  0  0
  4  3  1  0  0  0  0
  5  2  1  0  0  0  0
  6  5  1  0  0  0  0
  7 12  1  0  0  0  0
  7  6  2  0  0  0  0
  8  7  1  0  0  0  0
  9  8  2  0  0  0  0
  9 10  1  0  0  0  0
 10 11  2  0  0  0  0
 11  6  1  0  0  0  0
 13  8  1  0  0  0  0
 14 10  1  0  0  0  0
 15 16  1  0  0  0  0
 16 20  1  0  0  0  0
 16 17  2  0  0  0  0
 17 21  1  0  0  0  0
 17 18  1  0  0  0  0
 18 22  1  0  0  0  0
 19 18  1  0  0  0  0
 19 23  1  0  0  0  0
 20 19  2  0  0  0  0
 23 24  1  0  0  0  0
 23 27  1  0  0  0  0
 24 25  1  0  0  0  0
 25 26  1  0  0  0  0
 27 28  1  0  0  0  0
 27 26  1  0  0  0  0
M  END
>  <minimizedAffinity>
-4.58115768

$$$$
