
 OpenBabel03272508043D

 32 35  0  0  0  0  0  0  0  0999 V2000
   38.9180   30.9040   45.7800 C   0  0  0  0  0  0  0  0  0  0  0  0
   40.1120   31.5600   46.0250 C   0  0  0  0  0  0  0  0  0  0  0  0
   40.9390   31.4930   44.9150 C   0  0  0  0  0  0  0  0  0  0  0  0
   40.2050   30.7830   44.0140 N   0  0  0  0  0  0  0  0  0  0  0  0
   39.0410   30.4480   44.5220 N   0  0  0  0  0  0  0  0  0  0  0  0
   40.3840   32.0620   46.9470 H   0  0  0  0  0  0  0  0  0  0  0  0
   41.9230   31.8810   44.7450 H   0  0  0  0  0  0  0  0  0  0  0  0
   37.7910   30.7480   46.6790 C   0  0  0  0  0  0  0  0  0  0  0  0
   38.0100   30.9700   48.0620 C   0  0  0  0  0  0  0  0  0  0  0  0
   36.9230   30.8240   48.9210 C   0  0  0  0  0  0  0  0  0  0  0  0
   35.7110   30.4730   48.3800 N   0  0  0  0  0  0  0  0  0  0  0  0
   35.5420   30.2690   47.0610 C   0  0  0  0  0  0  0  0  0  0  0  0
   36.5800   30.4070   46.2150 N   0  0  0  0  0  0  0  0  0  0  0  0
   38.9990   31.2440   48.3930 H   0  0  0  0  0  0  0  0  0  0  0  0
   34.5830   29.9920   46.6500 H   0  0  0  0  0  0  0  0  0  0  0  0
   37.1310   31.0570   50.3820 C   0  0  0  0  0  0  0  0  0  0  0  0
   36.5960   32.3040   50.6290 F   0  0  0  0  0  0  0  0  0  0  0  0
   36.4660   30.1300   51.1630 F   0  0  0  0  0  0  0  0  0  0  0  0
   38.4830   31.0670   50.7120 F   0  0  0  0  0  0  0  0  0  0  0  0
   40.5680   30.4020   42.6590 C   0  0  0  0  0  0  0  0  0  0  0  0
   40.2060   31.1920   41.5590 C   0  0  0  0  0  0  0  0  0  0  0  0
   40.5690   30.8060   40.3080 C   0  0  0  0  0  0  0  0  0  0  0  0
   41.3070   29.6040   40.1470 C   0  0  0  0  0  0  0  0  0  0  0  0
   41.4830   29.0110   41.8990 S   0  0  0  0  0  0  0  0  0  0  0  0
   39.6410   32.1210   41.6330 H   0  0  0  0  0  0  0  0  0  0  0  0
   40.4010   31.2500   39.3430 H   0  0  0  0  0  0  0  0  0  0  0  0
   41.8840   28.7950   39.2510 N   0  0  0  0  0  0  0  0  0  0  0  0
   43.1530   29.1820   38.6130 C   0  0  0  0  0  0  0  0  0  0  0  0
   42.7050   29.1830   37.1620 C   0  0  0  0  0  0  0  0  0  0  0  0
   41.8380   27.9370   37.1310 C   0  0  0  0  0  0  0  0  0  0  0  0
   41.6890   27.5300   38.5900 C   0  0  0  0  0  0  0  0  0  0  0  0
   42.5090   26.8150   38.7780 H   0  0  0  0  0  0  0  0  0  0  0  0
  1  2  1  0  0  0  0
  1  8  1  0  0  0  0
  2  6  1  0  0  0  0
  3  2  2  0  0  0  0
  4  5  1  0  0  0  0
  4  3  1  0  0  0  0
  5  1  2  0  0  0  0
  7  3  1  0  0  0  0
  8  9  1  0  0  0  0
  9 14  1  0  0  0  0
  9 10  2  0  0  0  0
 10 16  1  0  0  0  0
 11 10  1  0  0  0  0
 12 11  2  0  0  0  0
 13  8  2  0  0  0  0
 13 12  1  0  0  0  0
 15 12  1  0  0  0  0
 16 17  1  0  0  0  0
 16 19  1  0  0  0  0
 16 18  1  0  0  0  0
 20  4  1  0  0  0  0
 21 25  1  0  0  0  0
 21 20  2  0  0  0  0
 22 21  1  0  0  0  0
 23 22  2  0  0  0  0
 23 24  1  0  0  0  0
 24 20  1  0  0  0  0
 26 22  1  0  0  0  0
 27 23  1  0  0  0  0
 28 27  1  0  0  0  0
 29 28  1  0  0  0  0
 30 29  1  0  0  0  0
 30 31  1  0  0  0  0
 31 32  1  0  0  0  0
 31 27  1  0  0  0  0
M  END
>  <minimizedAffinity>
-6.24878502

>  <minimizedRMSD>
0.351871759

$$$$
