
 OpenBabel03272508143D

 25 27  0  0  0  0  0  0  0  0999 V2000
   39.0980   31.2920   47.0570 Cl  0  0  0  0  0  0  0  0  0  0  0  0
   37.5560   30.8470   46.3840 C   0  0  0  0  0  0  0  0  0  0  0  0
   36.6460   30.4130   47.3120 C   0  0  0  0  0  0  0  0  0  0  0  0
   35.3670   30.0290   46.8730 C   0  0  0  0  0  0  0  0  0  0  0  0
   35.0230   30.0820   45.5570 C   0  0  0  0  0  0  0  0  0  0  0  0
   35.9490   30.5210   44.6410 C   0  0  0  0  0  0  0  0  0  0  0  0
   35.5420   30.6010   42.9470 Cl  0  0  0  0  0  0  0  0  0  0  0  0
   37.1860   30.8930   45.0600 C   0  0  0  0  0  0  0  0  0  0  0  0
   34.5870   29.6740   47.5330 H   0  0  0  0  0  0  0  0  0  0  0  0
   34.0330   29.7870   45.1940 H   0  0  0  0  0  0  0  0  0  0  0  0
   37.1550   31.4400   49.5050 C   0  0  0  0  0  0  0  0  0  0  0  0
   36.7990   30.2750   48.7720 C   0  0  0  0  0  0  0  0  0  0  0  0
   36.6100   29.0640   49.4640 C   0  0  0  0  0  0  0  0  0  0  0  0
   36.7860   29.0920   50.8170 N   0  0  0  0  0  0  0  0  0  0  0  0
   37.1260   30.2130   51.4870 C   0  0  0  0  0  0  0  0  0  0  0  0
   37.3070   31.3710   50.8350 N   0  0  0  0  0  0  0  0  0  0  0  0
   37.2990   32.3650   48.9760 H   0  0  0  0  0  0  0  0  0  0  0  0
   36.3440   28.2090   48.8930 H   0  0  0  0  0  0  0  0  0  0  0  0
   37.2530   30.1830   52.5600 H   0  0  0  0  0  0  0  0  0  0  0  0
   38.2090   31.3610   44.1730 N   0  0  0  0  0  0  0  0  0  0  0  0
   38.5830   32.6730   43.6770 C   0  0  0  0  0  0  0  0  0  0  0  0
   39.2680   32.3270   42.3700 C   0  0  0  0  0  0  0  0  0  0  0  0
   40.1340   31.1420   42.8130 C   0  0  0  0  0  0  0  0  0  0  0  0
   39.1140   30.3560   43.6030 C   0  0  0  0  0  0  0  0  0  0  0  0
   39.6490   29.8050   44.4070 H   0  0  0  0  0  0  0  0  0  0  0  0
  2  1  1  0  0  0  0
  2  3  1  0  0  0  0
  3 12  1  0  0  0  0
  4  3  2  0  0  0  0
  4  9  1  0  0  0  0
  5  4  1  0  0  0  0
  6  8  1  0  0  0  0
  6  5  2  0  0  0  0
  7  6  1  0  0  0  0
  8  2  2  0  0  0  0
 10  5  1  0  0  0  0
 11 16  1  0  0  0  0
 12 13  1  0  0  0  0
 12 11  2  0  0  0  0
 13 14  2  0  0  0  0
 14 15  1  0  0  0  0
 15 19  1  0  0  0  0
 16 15  2  0  0  0  0
 17 11  1  0  0  0  0
 18 13  1  0  0  0  0
 20  8  1  0  0  0  0
 21 20  1  0  0  0  0
 22 23  1  0  0  0  0
 22 21  1  0  0  0  0
 23 24  1  0  0  0  0
 24 20  1  0  0  0  0
 24 25  1  0  0  0  0
M  END
>  <minimizedAffinity>
-5.04906082

>  <minimizedRMSD>
4.11591625

$$$$
