
 OpenBabel03272507063D

 28 31  0  0  0  0  0  0  0  0999 V2000
   33.6690   29.7640   34.5250 C   0  0  0  0  0  0  0  0  0  0  0  0
   35.0510   29.9210   34.6280 C   0  0  0  0  0  0  0  0  0  0  0  0
   35.5920   30.8380   35.4920 C   0  0  0  0  0  0  0  0  0  0  0  0
   34.7700   31.6340   36.2860 C   0  0  0  0  0  0  0  0  0  0  0  0
   35.0210   32.5950   37.2010 N   0  0  0  0  0  0  0  0  0  0  0  0
   33.7780   32.9800   37.6140 C   0  0  0  0  0  0  0  0  0  0  0  0
   32.8240   32.2940   36.9860 N   0  0  0  0  0  0  0  0  0  0  0  0
   33.4060   31.4320   36.1380 C   0  0  0  0  0  0  0  0  0  0  0  0
   32.8170   30.5360   35.2970 C   0  0  0  0  0  0  0  0  0  0  0  0
   33.2400   29.0360   33.8400 H   0  0  0  0  0  0  0  0  0  0  0  0
   36.6580   31.0010   35.6120 H   0  0  0  0  0  0  0  0  0  0  0  0
   35.9600   32.9140   37.4760 H   0  0  0  0  0  0  0  0  0  0  0  0
   33.6120   33.7600   38.3690 H   0  0  0  0  0  0  0  0  0  0  0  0
   31.7360   30.4350   35.2360 H   0  0  0  0  0  0  0  0  0  0  0  0
   36.8550   28.5490   31.7320 C   0  0  0  0  0  0  0  0  0  0  0  0
   37.5960   27.4930   32.2990 C   0  0  0  0  0  0  0  0  0  0  0  0
   37.4440   27.2890   33.6860 C   0  0  0  0  0  0  0  0  0  0  0  0
   36.6170   28.0970   34.3750 N   0  0  0  0  0  0  0  0  0  0  0  0
   35.9250   29.0940   33.8030 C   0  0  0  0  0  0  0  0  0  0  0  0
   36.0460   29.3140   32.4940 N   0  0  0  0  0  0  0  0  0  0  0  0
   36.9330   28.7500   30.6790 H   0  0  0  0  0  0  0  0  0  0  0  0
   38.2500   26.8670   31.7090 H   0  0  0  0  0  0  0  0  0  0  0  0
   38.1370   26.2640   34.3460 N   0  0  0  0  0  0  0  0  0  0  0  0
   38.8660   26.2860   35.6080 C   0  0  0  0  0  2  0  0  0  0  0  0
   38.5120   24.9700   36.2910 C   0  0  0  0  0  2  0  0  0  0  0  0
   38.0840   24.0570   35.1700 C   0  0  0  0  0  2  0  0  0  0  0  0
   38.3120   24.8870   33.9340 C   0  0  0  0  0  3  0  0  0  0  0  0
   37.6240   24.5800   33.1140 H   0  0  0  0  0  0  0  0  0  0  0  0
  1  2  2  0  0  0  0
  1  9  1  0  0  0  0
  2  3  1  0  0  0  0
  3 11  1  0  0  0  0
  3  4  2  0  0  0  0
  4  5  1  0  0  0  0
  5 12  1  0  0  0  0
  5  6  1  0  0  0  0
  6 13  1  0  0  0  0
  7  6  2  0  0  0  0
  8  4  1  0  0  0  0
  8  7  1  0  0  0  0
  9  8  2  0  0  0  0
 10  1  1  0  0  0  0
 14  9  1  0  0  0  0
 15 16  2  0  0  0  0
 15 20  1  0  0  0  0
 16 17  1  0  0  0  0
 17 23  1  0  0  0  0
 17 18  2  0  0  0  0
 19 18  1  0  0  0  0
 19  2  1  0  0  0  0
 20 19  2  0  0  0  0
 21 15  1  0  0  0  0
 22 16  1  0  0  0  0
 23 24  1  0  0  0  0
 24 25  1  0  0  0  0
 26 25  1  0  0  0  0
 27 23  1  0  0  0  0
 27 26  1  0  0  0  0
 28 27  1  0  0  0  0
M  END
>  <minimizedAffinity>
-5.43198252

$$$$

 OpenBabel03272507063D

 28 31  0  0  0  0  0  0  0  0999 V2000
   37.7070   25.0110   33.1360 C   0  0  0  0  0  0  0  0  0  0  0  0
   37.2970   26.1310   33.8580 C   0  0  0  0  0  0  0  0  0  0  0  0
   37.3860   26.1570   35.2260 C   0  0  0  0  0  0  0  0  0  0  0  0
   37.8860   25.0610   35.9250 C   0  0  0  0  0  0  0  0  0  0  0  0
   38.0810   24.8150   37.2380 N   0  0  0  0  0  0  0  0  0  0  0  0
   38.6020   23.5530   37.2560 C   0  0  0  0  0  0  0  0  0  0  0  0
   38.7170   23.0580   36.0240 N   0  0  0  0  0  0  0  0  0  0  0  0
   38.2760   23.9780   35.1520 C   0  0  0  0  0  0  0  0  0  0  0  0
   38.2110   23.9000   33.7930 C   0  0  0  0  0  0  0  0  0  0  0  0
   37.6380   24.9900   32.0510 H   0  0  0  0  0  0  0  0  0  0  0  0
   37.0820   27.0020   35.8370 H   0  0  0  0  0  0  0  0  0  0  0  0
   37.8660   25.4730   37.9990 H   0  0  0  0  0  0  0  0  0  0  0  0
   38.8820   23.0330   38.1820 H   0  0  0  0  0  0  0  0  0  0  0  0
   38.5360   23.0130   33.2560 H   0  0  0  0  0  0  0  0  0  0  0  0
   36.1730   28.3490   31.1490 C   0  0  0  0  0  0  0  0  0  0  0  0
   35.7670   29.5070   31.8430 C   0  0  0  0  0  0  0  0  0  0  0  0
   35.8980   29.4800   33.2470 C   0  0  0  0  0  0  0  0  0  0  0  0
   36.3940   28.3730   33.8330 N   0  0  0  0  0  0  0  0  0  0  0  0
   36.7710   27.2870   33.1410 C   0  0  0  0  0  0  0  0  0  0  0  0
   36.6600   27.2800   31.8120 N   0  0  0  0  0  0  0  0  0  0  0  0
   36.0950   28.3150   30.0780 H   0  0  0  0  0  0  0  0  0  0  0  0
   35.3740   30.3750   31.3340 H   0  0  0  0  0  0  0  0  0  0  0  0
   35.5230   30.5810   34.0300 N   0  0  0  0  0  0  0  0  0  0  0  0
   34.7550   30.6340   35.2670 C   0  0  0  0  0  2  0  0  0  0  0  0
   35.4620   31.6770   36.1260 C   0  0  0  0  0  2  0  0  0  0  0  0
   36.2150   32.5380   35.1450 C   0  0  0  0  0  2  0  0  0  0  0  0
   35.8090   31.9830   33.8040 C   0  0  0  0  0  3  0  0  0  0  0  0
   36.6020   32.1560   33.0430 H   0  0  0  0  0  0  0  0  0  0  0  0
  1  9  2  0  0  0  0
  1  2  1  0  0  0  0
  2  3  2  0  0  0  0
  3 11  1  0  0  0  0
  3  4  1  0  0  0  0
  4  5  1  0  0  0  0
  5  6  1  0  0  0  0
  5 12  1  0  0  0  0
  6 13  1  0  0  0  0
  7  6  2  0  0  0  0
  8  4  2  0  0  0  0
  8  7  1  0  0  0  0
  9  8  1  0  0  0  0
 10  1  1  0  0  0  0
 14  9  1  0  0  0  0
 15 20  2  0  0  0  0
 15 16  1  0  0  0  0
 16 17  2  0  0  0  0
 17 18  1  0  0  0  0
 17 23  1  0  0  0  0
 19 18  2  0  0  0  0
 19  2  1  0  0  0  0
 20 19  1  0  0  0  0
 21 15  1  0  0  0  0
 22 16  1  0  0  0  0
 23 24  1  0  0  0  0
 24 25  1  0  0  0  0
 26 25  1  0  0  0  0
 27 23  1  0  0  0  0
 27 26  1  0  0  0  0
 28 27  1  0  0  0  0
M  END
>  <minimizedAffinity>
-5.40694237

$$$$

 OpenBabel03272507063D

 28 31  0  0  0  0  0  0  0  0999 V2000
   37.7950   27.7080   35.4740 C   0  0  0  0  0  0  0  0  0  0  0  0
   37.1020   27.4670   34.2880 C   0  0  0  0  0  0  0  0  0  0  0  0
   37.1690   26.2440   33.6710 C   0  0  0  0  0  0  0  0  0  0  0  0
   37.9350   25.2160   34.2170 C   0  0  0  0  0  0  0  0  0  0  0  0
   38.1790   23.9440   33.8350 N   0  0  0  0  0  0  0  0  0  0  0  0
   39.0110   23.4690   34.8060 C   0  0  0  0  0  0  0  0  0  0  0  0
   39.2610   24.3980   35.7290 N   0  0  0  0  0  0  0  0  0  0  0  0
   38.6010   25.5170   35.3950 C   0  0  0  0  0  0  0  0  0  0  0  0
   38.5670   26.7130   36.0490 C   0  0  0  0  0  0  0  0  0  0  0  0
   37.7410   28.6780   35.9640 H   0  0  0  0  0  0  0  0  0  0  0  0
   36.6510   26.0010   32.7490 H   0  0  0  0  0  0  0  0  0  0  0  0
   37.7920   23.4990   32.9910 H   0  0  0  0  0  0  0  0  0  0  0  0
   39.4120   22.4460   34.8060 H   0  0  0  0  0  0  0  0  0  0  0  0
   39.1180   26.8750   36.9720 H   0  0  0  0  0  0  0  0  0  0  0  0
   35.2540   29.5250   31.8650 C   0  0  0  0  0  0  0  0  0  0  0  0
   34.7640   30.5790   32.6620 C   0  0  0  0  0  0  0  0  0  0  0  0
   35.0940   30.5410   34.0320 C   0  0  0  0  0  0  0  0  0  0  0  0
   35.8440   29.5210   34.4920 N   0  0  0  0  0  0  0  0  0  0  0  0
   36.2950   28.5330   33.7050 C   0  0  0  0  0  0  0  0  0  0  0  0
   36.0000   28.5390   32.4040 N   0  0  0  0  0  0  0  0  0  0  0  0
   35.0320   29.5040   30.8140 H   0  0  0  0  0  0  0  0  0  0  0  0
   34.1650   31.3800   32.2530 H   0  0  0  0  0  0  0  0  0  0  0  0
   34.6560   31.5420   34.9100 N   0  0  0  0  0  0  0  0  0  0  0  0
   34.0730   31.4340   36.2410 C   0  0  0  0  0  2  0  0  0  0  0  0
   34.7110   32.5600   37.0460 C   0  0  0  0  0  2  0  0  0  0  0  0
   35.1640   33.5620   36.0130 C   0  0  0  0  0  2  0  0  0  0  0  0
   34.6710   32.9780   34.7160 C   0  0  0  0  0  3  0  0  0  0  0  0
   35.3090   33.3020   33.8630 H   0  0  0  0  0  0  0  0  0  0  0  0
  1 10  1  0  0  0  0
  1  9  1  0  0  0  0
  2  1  2  0  0  0  0
  3  4  2  0  0  0  0
  3  2  1  0  0  0  0
  4  8  1  0  0  0  0
  5  4  1  0  0  0  0
  5  6  1  0  0  0  0
  6  7  2  0  0  0  0
  8  7  1  0  0  0  0
  8  9  2  0  0  0  0
  9 14  1  0  0  0  0
 11  3  1  0  0  0  0
 12  5  1  0  0  0  0
 13  6  1  0  0  0  0
 15 20  2  0  0  0  0
 15 16  1  0  0  0  0
 16 17  2  0  0  0  0
 17 18  1  0  0  0  0
 17 23  1  0  0  0  0
 19  2  1  0  0  0  0
 19 18  2  0  0  0  0
 20 19  1  0  0  0  0
 21 15  1  0  0  0  0
 22 16  1  0  0  0  0
 23 24  1  0  0  0  0
 24 25  1  0  0  0  0
 26 25  1  0  0  0  0
 27 23  1  0  0  0  0
 27 26  1  0  0  0  0
 28 27  1  0  0  0  0
M  END
>  <minimizedAffinity>
-5.31447649

$$$$

 OpenBabel03272507063D

 28 31  0  0  0  0  0  0  0  0999 V2000
   37.4220   26.9850   35.2950 C   0  0  0  0  0  0  0  0  0  0  0  0
   37.7750   25.6980   34.8900 C   0  0  0  0  0  0  0  0  0  0  0  0
   37.6000   25.2970   33.5900 C   0  0  0  0  0  0  0  0  0  0  0  0
   37.0630   26.1680   32.6460 C   0  0  0  0  0  0  0  0  0  0  0  0
   36.7840   26.0470   31.3300 N   0  0  0  0  0  0  0  0  0  0  0  0
   36.2740   27.2670   30.9940 C   0  0  0  0  0  0  0  0  0  0  0  0
   36.2410   28.0860   32.0440 N   0  0  0  0  0  0  0  0  0  0  0  0
   36.7310   27.4330   33.1090 C   0  0  0  0  0  0  0  0  0  0  0  0
   36.8850   27.8830   34.3870 C   0  0  0  0  0  0  0  0  0  0  0  0
   37.5610   27.3040   36.3260 H   0  0  0  0  0  0  0  0  0  0  0  0
   37.8570   24.3100   33.2220 H   0  0  0  0  0  0  0  0  0  0  0  0
   36.9470   25.1980   30.7710 H   0  0  0  0  0  0  0  0  0  0  0  0
   35.9380   27.5170   29.9790 H   0  0  0  0  0  0  0  0  0  0  0  0
   36.6000   28.8910   34.6750 H   0  0  0  0  0  0  0  0  0  0  0  0
   38.2830   23.7370   37.9590 C   0  0  0  0  0  0  0  0  0  0  0  0
   39.4560   23.0090   37.6720 C   0  0  0  0  0  0  0  0  0  0  0  0
   40.0390   23.2250   36.4070 C   0  0  0  0  0  0  0  0  0  0  0  0
   39.4560   24.0970   35.5620 N   0  0  0  0  0  0  0  0  0  0  0  0
   38.3390   24.7740   35.8680 C   0  0  0  0  0  0  0  0  0  0  0  0
   37.7620   24.5920   37.0560 N   0  0  0  0  0  0  0  0  0  0  0  0
   37.7970   23.6110   38.9090 H   0  0  0  0  0  0  0  0  0  0  0  0
   39.8920   22.3190   38.3800 H   0  0  0  0  0  0  0  0  0  0  0  0
   41.2070   22.5510   36.0240 N   0  0  0  0  0  0  0  0  0  0  0  0
   41.5390   21.8840   34.7720 C   0  0  0  0  0  2  0  0  0  0  0  0
   42.9930   22.2520   34.5010 C   0  0  0  0  0  2  0  0  0  0  0  0
   43.5570   22.6130   35.8520 C   0  0  0  0  0  2  0  0  0  0  0  0
   42.4150   22.3360   36.7950 C   0  0  0  0  0  3  0  0  0  0  0  0
   42.4810   22.9800   37.7010 H   0  0  0  0  0  0  0  0  0  0  0  0
  1 10  1  0  0  0  0
  2  1  1  0  0  0  0
  2 19  1  0  0  0  0
  3  2  2  0  0  0  0
  4  8  2  0  0  0  0
  4  3  1  0  0  0  0
  5  4  1  0  0  0  0
  6  5  1  0  0  0  0
  6  7  2  0  0  0  0
  7  8  1  0  0  0  0
  8  9  1  0  0  0  0
  9 14  1  0  0  0  0
  9  1  2  0  0  0  0
 11  3  1  0  0  0  0
 12  5  1  0  0  0  0
 13  6  1  0  0  0  0
 15 21  1  0  0  0  0
 16 15  1  0  0  0  0
 16 22  1  0  0  0  0
 17 16  2  0  0  0  0
 18 19  2  0  0  0  0
 18 17  1  0  0  0  0
 19 20  1  0  0  0  0
 20 15  2  0  0  0  0
 23 17  1  0  0  0  0
 23 27  1  0  0  0  0
 24 23  1  0  0  0  0
 25 24  1  0  0  0  0
 25 26  1  0  0  0  0
 26 27  1  0  0  0  0
 27 28  1  0  0  0  0
M  END
>  <minimizedAffinity>
-5.28518438

$$$$

 OpenBabel03272507063D

 28 31  0  0  0  0  0  0  0  0999 V2000
   36.9120   27.5560   33.7960 C   0  0  0  0  0  0  0  0  0  0  0  0
   36.1620   28.1370   32.7750 C   0  0  0  0  0  0  0  0  0  0  0  0
   35.7800   27.4060   31.6790 C   0  0  0  0  0  0  0  0  0  0  0  0
   36.1360   26.0640   31.5640 C   0  0  0  0  0  0  0  0  0  0  0  0
   35.9040   25.1250   30.6210 N   0  0  0  0  0  0  0  0  0  0  0  0
   36.5260   24.0140   31.1120 C   0  0  0  0  0  0  0  0  0  0  0  0
   37.1040   24.2610   32.2880 N   0  0  0  0  0  0  0  0  0  0  0  0
   36.8820   25.5430   32.6110 C   0  0  0  0  0  0  0  0  0  0  0  0
   37.2860   26.2250   33.7200 C   0  0  0  0  0  0  0  0  0  0  0  0
   37.2150   28.1360   34.6650 H   0  0  0  0  0  0  0  0  0  0  0  0
   35.1960   27.8060   30.8570 H   0  0  0  0  0  0  0  0  0  0  0  0
   35.3720   25.2810   29.7540 H   0  0  0  0  0  0  0  0  0  0  0  0
   36.5350   23.0500   30.5860 H   0  0  0  0  0  0  0  0  0  0  0  0
   37.8720   25.7460   34.5010 H   0  0  0  0  0  0  0  0  0  0  0  0
   35.8960   31.7460   32.1200 C   0  0  0  0  0  0  0  0  0  0  0  0
   35.0210   32.1820   33.1360 C   0  0  0  0  0  0  0  0  0  0  0  0
   34.5460   31.1980   34.0260 C   0  0  0  0  0  0  0  0  0  0  0  0
   34.9460   29.9230   33.8600 N   0  0  0  0  0  0  0  0  0  0  0  0
   35.7810   29.5410   32.8810 C   0  0  0  0  0  0  0  0  0  0  0  0
   36.2480   30.4480   32.0220 N   0  0  0  0  0  0  0  0  0  0  0  0
   36.2880   32.4540   31.4140 H   0  0  0  0  0  0  0  0  0  0  0  0
   34.7250   33.2170   33.2350 H   0  0  0  0  0  0  0  0  0  0  0  0
   33.6730   31.5280   35.0720 N   0  0  0  0  0  0  0  0  0  0  0  0
   32.4570   30.8640   35.5250 C   0  0  0  0  0  2  0  0  0  0  0  0
   32.5200   30.9200   37.0470 C   0  0  0  0  0  2  0  0  0  0  0  0
   33.4390   32.0750   37.3520 C   0  0  0  0  0  2  0  0  0  0  0  0
   33.7540   32.6440   35.9930 C   0  0  0  0  0  3  0  0  0  0  0  0
   34.7470   33.1470   35.9910 H   0  0  0  0  0  0  0  0  0  0  0  0
  1 10  1  0  0  0  0
  2 19  1  0  0  0  0
  2  1  2  0  0  0  0
  3  2  1  0  0  0  0
  4  3  2  0  0  0  0
  4  8  1  0  0  0  0
  5  6  1  0  0  0  0
  5  4  1  0  0  0  0
  6  7  2  0  0  0  0
  7  8  1  0  0  0  0
  8  9  2  0  0  0  0
  9  1  1  0  0  0  0
  9 14  1  0  0  0  0
 11  3  1  0  0  0  0
 12  5  1  0  0  0  0
 13  6  1  0  0  0  0
 15 16  1  0  0  0  0
 16 22  1  0  0  0  0
 16 17  2  0  0  0  0
 17 23  1  0  0  0  0
 18 17  1  0  0  0  0
 19 18  2  0  0  0  0
 20 15  2  0  0  0  0
 20 19  1  0  0  0  0
 21 15  1  0  0  0  0
 23 24  1  0  0  0  0
 23 27  1  0  0  0  0
 24 25  1  0  0  0  0
 25 26  1  0  0  0  0
 27 26  1  0  0  0  0
 28 27  1  0  0  0  0
M  END
>  <minimizedAffinity>
-5.18704653

$$$$

 OpenBabel03272507063D

 28 31  0  0  0  0  0  0  0  0999 V2000
   36.2080   28.4700   34.0600 C   0  0  0  0  0  0  0  0  0  0  0  0
   36.5230   27.8890   32.8310 C   0  0  0  0  0  0  0  0  0  0  0  0
   36.2190   28.5260   31.6550 C   0  0  0  0  0  0  0  0  0  0  0  0
   35.5880   29.7670   31.6620 C   0  0  0  0  0  0  0  0  0  0  0  0
   35.1790   30.6010   30.6820 N   0  0  0  0  0  0  0  0  0  0  0  0
   34.6340   31.6530   31.3600 C   0  0  0  0  0  0  0  0  0  0  0  0
   34.7050   31.4710   32.6780 N   0  0  0  0  0  0  0  0  0  0  0  0
   35.3010   30.2920   32.9140 C   0  0  0  0  0  0  0  0  0  0  0  0
   35.5800   29.7030   34.1110 C   0  0  0  0  0  0  0  0  0  0  0  0
   36.4490   27.9650   34.9930 H   0  0  0  0  0  0  0  0  0  0  0  0
   36.4410   28.1210   30.6730 H   0  0  0  0  0  0  0  0  0  0  0  0
   35.2870   30.4220   29.6750 H   0  0  0  0  0  0  0  0  0  0  0  0
   34.1980   32.5280   30.8590 H   0  0  0  0  0  0  0  0  0  0  0  0
   35.3230   30.1780   35.0540 H   0  0  0  0  0  0  0  0  0  0  0  0
   38.1950   24.8410   31.6350 C   0  0  0  0  0  0  0  0  0  0  0  0
   38.4310   24.1270   32.8270 C   0  0  0  0  0  0  0  0  0  0  0  0
   37.9960   24.7350   34.0230 C   0  0  0  0  0  0  0  0  0  0  0  0
   37.3930   25.9370   33.9600 N   0  0  0  0  0  0  0  0  0  0  0  0
   37.1840   26.5900   32.8060 C   0  0  0  0  0  0  0  0  0  0  0  0
   37.5830   26.0430   31.6570 N   0  0  0  0  0  0  0  0  0  0  0  0
   38.5060   24.4250   30.6940 H   0  0  0  0  0  0  0  0  0  0  0  0
   38.9190   23.1630   32.8340 H   0  0  0  0  0  0  0  0  0  0  0  0
   38.1830   24.1070   35.2630 N   0  0  0  0  0  0  0  0  0  0  0  0
   38.6610   24.6500   36.5270 C   0  0  0  0  0  2  0  0  0  0  0  0
   37.7760   24.0130   37.5920 C   0  0  0  0  0  2  0  0  0  0  0  0
   37.2490   22.7540   36.9510 C   0  0  0  0  0  2  0  0  0  0  0  0
   37.9430   22.7220   35.6140 C   0  0  0  0  0  3  0  0  0  0  0  0
   37.3340   22.1740   34.8610 H   0  0  0  0  0  0  0  0  0  0  0  0
  1  9  1  0  0  0  0
  1 10  1  0  0  0  0
  2  1  2  0  0  0  0
  3  4  2  0  0  0  0
  3  2  1  0  0  0  0
  4  8  1  0  0  0  0
  5  6  1  0  0  0  0
  5  4  1  0  0  0  0
  6  7  2  0  0  0  0
  7  8  1  0  0  0  0
  8  9  2  0  0  0  0
  9 14  1  0  0  0  0
 11  3  1  0  0  0  0
 12  5  1  0  0  0  0
 13  6  1  0  0  0  0
 15 20  2  0  0  0  0
 15 16  1  0  0  0  0
 16 22  1  0  0  0  0
 16 17  2  0  0  0  0
 17 23  1  0  0  0  0
 18 17  1  0  0  0  0
 19  2  1  0  0  0  0
 19 18  2  0  0  0  0
 20 19  1  0  0  0  0
 21 15  1  0  0  0  0
 23 27  1  0  0  0  0
 23 24  1  0  0  0  0
 24 25  1  0  0  0  0
 26 25  1  0  0  0  0
 27 26  1  0  0  0  0
 28 27  1  0  0  0  0
M  END
>  <minimizedAffinity>
-5.18256998

$$$$

 OpenBabel03272507063D

 28 31  0  0  0  0  0  0  0  0999 V2000
   37.1800   26.7880   33.9080 C   0  0  0  0  0  0  0  0  0  0  0  0
   36.8080   26.5890   32.5790 C   0  0  0  0  0  0  0  0  0  0  0  0
   36.0270   27.5060   31.9220 C   0  0  0  0  0  0  0  0  0  0  0  0
   35.5870   28.6570   32.5710 C   0  0  0  0  0  0  0  0  0  0  0  0
   34.8270   29.7030   32.1820 N   0  0  0  0  0  0  0  0  0  0  0  0
   34.7710   30.4930   33.2940 C   0  0  0  0  0  0  0  0  0  0  0  0
   35.4570   29.9580   34.3040 N   0  0  0  0  0  0  0  0  0  0  0  0
   35.9890   28.7980   33.8910 C   0  0  0  0  0  0  0  0  0  0  0  0
   36.7640   27.9200   34.5890 C   0  0  0  0  0  0  0  0  0  0  0  0
   37.7990   26.0610   34.4280 H   0  0  0  0  0  0  0  0  0  0  0  0
   35.7090   27.4010   30.8890 H   0  0  0  0  0  0  0  0  0  0  0  0
   34.4170   29.8160   31.2450 H   0  0  0  0  0  0  0  0  0  0  0  0
   34.2230   31.4430   33.3270 H   0  0  0  0  0  0  0  0  0  0  0  0
   37.0380   28.1000   35.6260 H   0  0  0  0  0  0  0  0  0  0  0  0
   38.4390   24.3610   30.1500 C   0  0  0  0  0  0  0  0  0  0  0  0
   38.0850   23.0790   30.6180 C   0  0  0  0  0  0  0  0  0  0  0  0
   37.2820   23.0290   31.7750 C   0  0  0  0  0  0  0  0  0  0  0  0
   36.9060   24.1840   32.3570 N   0  0  0  0  0  0  0  0  0  0  0  0
   37.2610   25.3890   31.8840 C   0  0  0  0  0  0  0  0  0  0  0  0
   38.0200   25.4710   30.7910 N   0  0  0  0  0  0  0  0  0  0  0  0
   39.0500   24.4570   29.2720 H   0  0  0  0  0  0  0  0  0  0  0  0
   38.4080   22.1750   30.1210 H   0  0  0  0  0  0  0  0  0  0  0  0
   36.8750   21.8030   32.3210 N   0  0  0  0  0  0  0  0  0  0  0  0
   36.8640   21.3490   33.7060 C   0  0  0  0  0  2  0  0  0  0  0  0
   35.5540   20.5850   33.8610 C   0  0  0  0  0  2  0  0  0  0  0  0
   35.1830   20.1690   32.4610 C   0  0  0  0  0  2  0  0  0  0  0  0
   36.3480   20.6430   31.6320 C   0  0  0  0  0  3  0  0  0  0  0  0
   36.0330   20.8560   30.5850 H   0  0  0  0  0  0  0  0  0  0  0  0
  1 10  1  0  0  0  0
  1  9  1  0  0  0  0
  2  1  2  0  0  0  0
  3  4  2  0  0  0  0
  3  2  1  0  0  0  0
  4  8  1  0  0  0  0
  5  4  1  0  0  0  0
  5  6  1  0  0  0  0
  6 13  1  0  0  0  0
  6  7  2  0  0  0  0
  8  7  1  0  0  0  0
  8  9  2  0  0  0  0
  9 14  1  0  0  0  0
 11  3  1  0  0  0  0
 12  5  1  0  0  0  0
 15 16  2  0  0  0  0
 15 20  1  0  0  0  0
 16 17  1  0  0  0  0
 17 23  1  0  0  0  0
 17 18  2  0  0  0  0
 19 18  1  0  0  0  0
 19  2  1  0  0  0  0
 20 19  2  0  0  0  0
 21 15  1  0  0  0  0
 22 16  1  0  0  0  0
 23 24  1  0  0  0  0
 24 25  1  0  0  0  0
 26 25  1  0  0  0  0
 27 23  1  0  0  0  0
 27 26  1  0  0  0  0
 28 27  1  0  0  0  0
M  END
>  <minimizedAffinity>
-5.1779871

$$$$

 OpenBabel03272507063D

 28 31  0  0  0  0  0  0  0  0999 V2000
   35.9790   31.7850   32.3370 C   0  0  0  0  0  0  0  0  0  0  0  0
   35.4000   30.6720   32.9450 C   0  0  0  0  0  0  0  0  0  0  0  0
   35.4880   29.4300   32.3680 C   0  0  0  0  0  0  0  0  0  0  0  0
   36.1580   29.2560   31.1590 C   0  0  0  0  0  0  0  0  0  0  0  0
   36.3950   28.1780   30.3820 N   0  0  0  0  0  0  0  0  0  0  0  0
   37.1080   28.6850   29.3340 C   0  0  0  0  0  0  0  0  0  0  0  0
   37.2940   29.9980   29.4650 N   0  0  0  0  0  0  0  0  0  0  0  0
   36.7110   30.4010   30.6040 C   0  0  0  0  0  0  0  0  0  0  0  0
   36.6540   31.6550   31.1340 C   0  0  0  0  0  0  0  0  0  0  0  0
   35.9090   32.7700   32.7940 H   0  0  0  0  0  0  0  0  0  0  0  0
   35.0580   28.5310   32.7970 H   0  0  0  0  0  0  0  0  0  0  0  0
   36.0810   27.2210   30.5930 H   0  0  0  0  0  0  0  0  0  0  0  0
   37.4700   28.0690   28.5010 H   0  0  0  0  0  0  0  0  0  0  0  0
   37.1130   32.5060   30.6380 H   0  0  0  0  0  0  0  0  0  0  0  0
   34.4420   31.8940   36.2780 C   0  0  0  0  0  0  0  0  0  0  0  0
   33.3180   31.1020   36.5880 C   0  0  0  0  0  0  0  0  0  0  0  0
   32.9240   30.1570   35.6190 C   0  0  0  0  0  0  0  0  0  0  0  0
   33.6290   30.0670   34.4750 N   0  0  0  0  0  0  0  0  0  0  0  0
   34.6950   30.8370   34.2110 C   0  0  0  0  0  0  0  0  0  0  0  0
   35.0940   31.7410   35.1070 N   0  0  0  0  0  0  0  0  0  0  0  0
   34.7850   32.6300   36.9810 H   0  0  0  0  0  0  0  0  0  0  0  0
   32.7800   31.2060   37.5200 H   0  0  0  0  0  0  0  0  0  0  0  0
   31.8200   29.3200   35.8310 N   0  0  0  0  0  0  0  0  0  0  0  0
   30.7260   28.9640   34.9360 C   0  0  0  0  0  2  0  0  0  0  0  0
   30.4910   27.4760   35.1710 C   0  0  0  0  0  2  0  0  0  0  0  0
   31.0490   27.2110   36.5460 C   0  0  0  0  0  2  0  0  0  0  0  0
   31.4720   28.5750   37.0240 C   0  0  0  0  0  3  0  0  0  0  0  0
   32.3070   28.5010   37.7570 H   0  0  0  0  0  0  0  0  0  0  0  0
  1 10  1  0  0  0  0
  1  2  1  0  0  0  0
  2 19  1  0  0  0  0
  3 11  1  0  0  0  0
  3  2  2  0  0  0  0
  4  3  1  0  0  0  0
  5 12  1  0  0  0  0
  5  4  1  0  0  0  0
  6  7  2  0  0  0  0
  6  5  1  0  0  0  0
  7  8  1  0  0  0  0
  8  9  1  0  0  0  0
  8  4  2  0  0  0  0
  9  1  2  0  0  0  0
 13  6  1  0  0  0  0
 14  9  1  0  0  0  0
 15 16  1  0  0  0  0
 15 21  1  0  0  0  0
 16 22  1  0  0  0  0
 17 23  1  0  0  0  0
 17 16  2  0  0  0  0
 18 17  1  0  0  0  0
 19 18  2  0  0  0  0
 19 20  1  0  0  0  0
 20 15  2  0  0  0  0
 23 27  1  0  0  0  0
 24 25  1  0  0  0  0
 24 23  1  0  0  0  0
 25 26  1  0  0  0  0
 26 27  1  0  0  0  0
 27 28  1  0  0  0  0
M  END
>  <minimizedAffinity>
-5.14227247

$$$$

 OpenBabel03272507063D

 28 31  0  0  0  0  0  0  0  0999 V2000
   35.2460   25.6510   30.9640 C   0  0  0  0  0  0  0  0  0  0  0  0
   36.2510   26.4160   31.5540 C   0  0  0  0  0  0  0  0  0  0  0  0
   37.2290   25.8260   32.3140 C   0  0  0  0  0  0  0  0  0  0  0  0
   37.2370   24.4480   32.5140 C   0  0  0  0  0  0  0  0  0  0  0  0
   38.0550   23.6180   33.1970 N   0  0  0  0  0  0  0  0  0  0  0  0
   37.5080   22.3850   32.9920 C   0  0  0  0  0  0  0  0  0  0  0  0
   36.4190   22.4570   32.2270 N   0  0  0  0  0  0  0  0  0  0  0  0
   36.2120   23.7420   31.9020 C   0  0  0  0  0  0  0  0  0  0  0  0
   35.2180   24.2770   31.1380 C   0  0  0  0  0  0  0  0  0  0  0  0
   34.4710   26.1190   30.3610 H   0  0  0  0  0  0  0  0  0  0  0  0
   38.0340   26.3720   32.7950 H   0  0  0  0  0  0  0  0  0  0  0  0
   38.8830   23.9170   33.7290 H   0  0  0  0  0  0  0  0  0  0  0  0
   37.9310   21.4630   33.4150 H   0  0  0  0  0  0  0  0  0  0  0  0
   34.4450   23.6570   30.6900 H   0  0  0  0  0  0  0  0  0  0  0  0
   36.7310   29.7340   30.0430 C   0  0  0  0  0  0  0  0  0  0  0  0
   36.2400   30.6030   31.0390 C   0  0  0  0  0  0  0  0  0  0  0  0
   35.7520   30.0010   32.2170 C   0  0  0  0  0  0  0  0  0  0  0  0
   35.7820   28.6590   32.3230 N   0  0  0  0  0  0  0  0  0  0  0  0
   36.2570   27.8610   31.3550 C   0  0  0  0  0  0  0  0  0  0  0  0
   36.7260   28.3980   30.2280 N   0  0  0  0  0  0  0  0  0  0  0  0
   37.1150   30.1390   29.1260 H   0  0  0  0  0  0  0  0  0  0  0  0
   36.2340   31.6760   30.9140 H   0  0  0  0  0  0  0  0  0  0  0  0
   35.2420   30.7770   33.2670 N   0  0  0  0  0  0  0  0  0  0  0  0
   34.0350   30.6010   34.0640 C   0  0  0  0  0  2  0  0  0  0  0  0
   34.4480   30.9460   35.4910 C   0  0  0  0  0  2  0  0  0  0  0  0
   35.6650   31.8220   35.3370 C   0  0  0  0  0  2  0  0  0  0  0  0
   35.7960   31.9850   33.8450 C   0  0  0  0  0  3  0  0  0  0  0  0
   36.8550   32.1670   33.5550 H   0  0  0  0  0  0  0  0  0  0  0  0
  1  9  2  0  0  0  0
  1  2  1  0  0  0  0
  2  3  2  0  0  0  0
  3  4  1  0  0  0  0
  3 11  1  0  0  0  0
  4  5  1  0  0  0  0
  5 12  1  0  0  0  0
  6  5  1  0  0  0  0
  6 13  1  0  0  0  0
  7  6  2  0  0  0  0
  8  7  1  0  0  0  0
  8  4  2  0  0  0  0
  9  8  1  0  0  0  0
 10  1  1  0  0  0  0
 14  9  1  0  0  0  0
 15 20  2  0  0  0  0
 15 16  1  0  0  0  0
 16 17  2  0  0  0  0
 17 18  1  0  0  0  0
 17 23  1  0  0  0  0
 19  2  1  0  0  0  0
 19 18  2  0  0  0  0
 20 19  1  0  0  0  0
 21 15  1  0  0  0  0
 22 16  1  0  0  0  0
 23 27  1  0  0  0  0
 23 24  1  0  0  0  0
 24 25  1  0  0  0  0
 26 25  1  0  0  0  0
 27 26  1  0  0  0  0
 28 27  1  0  0  0  0
M  END
>  <minimizedAffinity>
-5.10401344

$$$$
