
 OpenBabel03272507183D

 27 29  0  0  1  0  0  0  0  0999 V2000
   37.0410   31.3970   49.2260 C   0  0  0  0  0  0  0  0  0  0  0  0
   37.3850   32.5220   49.9680 C   0  0  0  0  0  0  0  0  0  0  0  0
   38.2960   33.3740   49.3470 C   0  0  0  0  0  0  0  0  0  0  0  0
   38.7970   33.0960   48.0990 N   0  0  0  0  0  0  0  0  0  0  0  0
   38.4280   31.9800   47.4140 C   0  0  0  0  0  0  0  0  0  0  0  0
   37.5340   31.1230   47.9970 N   0  0  0  0  0  0  0  0  0  0  0  0
   36.9770   32.7200   50.9470 H   0  0  0  0  0  0  0  0  0  0  0  0
   38.6190   34.2820   49.8640 H   0  0  0  0  0  0  0  0  0  0  0  0
   38.9820   31.7460   46.1260 N   0  0  0  0  0  0  0  0  0  0  0  0
   38.3370   32.2500   44.9290 C   0  0  0  0  0  0  0  0  0  0  0  0
   39.1640   31.6300   43.7990 C   0  0  0  0  0  0  0  0  0  0  0  0
   40.5350   31.6060   44.4440 C   0  0  0  0  0  0  0  0  0  0  0  0
   40.1890   31.0210   45.8130 C   0  0  0  0  0  0  0  0  0  0  0  0
   41.0350   31.2310   46.4970 H   0  0  0  0  0  0  0  0  0  0  0  0
   36.0460   30.4670   49.8570 C   0  0  1  0  0  0  0  0  0  0  0  0
   34.8980   29.9480   49.1150 C   0  0  2  0  0  0  0  0  0  0  0  0
   36.1020   29.0590   49.2270 C   0  0  0  0  0  0  0  0  0  0  0  0
   36.1080   30.4360   50.9710 H   0  0  0  0  0  0  0  0  0  0  0  0
   33.9940   29.8130   49.7730 H   0  0  0  0  0  0  0  0  0  0  0  0
   36.7280   28.9030   48.3350 H   0  0  0  0  0  0  0  0  0  0  0  0
   36.0090   28.2110   49.9300 H   0  0  0  0  0  0  0  0  0  0  0  0
   34.6140   30.5400   47.8920 O   0  0  0  0  0  0  0  0  0  0  0  0
   33.8630   30.0850   46.8590 C   0  0  0  0  0  0  0  0  0  0  0  0
   34.0760   28.9780   46.3180 O   0  0  0  0  0  0  0  0  0  0  0  0
   32.8920   31.0450   46.5670 N   0  0  0  0  0  0  0  0  0  0  0  0
   31.9870   30.9520   47.1100 H   0  0  0  0  0  0  0  0  0  0  0  0
   33.3250   31.6690   45.8260 H   0  0  0  0  0  0  0  0  0  0  0  0
  1 15  1  0  0  0  0
  1  2  1  0  0  0  0
  2  7  1  0  0  0  0
  3  8  1  0  0  0  0
  3  2  2  0  0  0  0
  4  3  1  0  0  0  0
  5  6  1  0  0  0  0
  5  4  2  0  0  0  0
  6  1  2  0  0  0  0
  9  5  1  0  0  0  0
 10  9  1  0  0  0  0
 11 12  1  0  0  0  0
 11 10  1  0  0  0  0
 12 13  1  0  0  0  0
 13  9  1  0  0  0  0
 13 14  1  0  0  0  0
 15 18  1  1  0  0  0
 16 17  1  0  0  0  0
 16 19  1  1  0  0  0
 16 15  1  0  0  0  0
 17 15  1  0  0  0  0
 17 21  1  0  0  0  0
 20 17  1  0  0  0  0
 22 16  1  0  0  0  0
 23 22  1  0  0  0  0
 24 23  2  0  0  0  0
 25 23  1  0  0  0  0
 25 26  1  0  0  0  0
 27 25  1  0  0  0  0
M  END
>  <minimizedAffinity>
-5.90017366

>  <minimizedRMSD>
2.53853321

$$$$
