
 OpenBabel03272509373D

 27 29  0  0  1  0  0  0  0  0999 V2000
   35.6740   29.8230   49.1690 C   0  0  0  0  0  0  0  0  0  0  0  0
   35.4180   29.3580   50.4550 C   0  0  0  0  0  0  0  0  0  0  0  0
   36.3820   29.4880   51.4760 C   0  0  0  0  0  0  0  0  0  0  0  0
   37.6090   30.0850   51.2100 C   0  0  0  0  0  0  0  0  0  0  0  0
   37.8420   30.5390   49.9260 C   0  0  0  0  0  0  0  0  0  0  0  0
   36.8850   30.4030   48.9380 C   0  0  0  0  0  0  0  0  0  0  0  0
   34.4630   28.8950   50.6570 H   0  0  0  0  0  0  0  0  0  0  0  0
   36.0790   29.0940   52.4340 H   0  0  0  0  0  0  0  0  0  0  0  0
   38.2850   30.1400   52.0570 H   0  0  0  0  0  0  0  0  0  0  0  0
   38.8170   30.9910   49.8000 H   0  0  0  0  0  0  0  0  0  0  0  0
   37.3150   30.9140   47.6900 N   0  0  0  0  0  0  0  0  0  0  0  0
   37.2410   30.7260   46.2580 C   0  0  0  0  0  0  0  0  0  0  0  0
   38.6990   30.5410   45.8980 C   0  0  0  0  0  0  0  0  0  0  0  0
   39.3120   31.6870   46.6740 C   0  0  0  0  0  0  0  0  0  0  0  0
   38.1770   32.0760   47.5920 C   0  0  0  0  0  0  0  0  0  0  0  0
   37.6790   32.9980   47.3010 H   0  0  0  0  0  0  0  0  0  0  0  0
   34.6490   29.6660   48.1620 C   0  0  1  0  0  0  0  0  0  0  0  0
   34.0400   30.7620   47.8640 O   0  0  0  0  0  0  0  0  0  0  0  0
   33.8640   27.4170   45.4180 C   0  0  0  0  0  0  0  0  0  0  0  0
   33.6430   26.1980   46.0400 C   0  0  0  0  0  0  0  0  0  0  0  0
   33.7570   26.1310   47.4140 C   0  0  0  0  0  0  0  0  0  0  0  0
   34.0820   27.2490   48.1390 N   0  0  0  0  0  0  0  0  0  0  0  0
   34.2890   28.4150   47.5000 C   0  0  0  0  0  0  0  0  0  0  0  0
   34.1740   28.4590   46.1750 N   0  0  0  0  0  0  0  0  0  0  0  0
   33.7640   27.4160   44.3540 H   0  0  0  0  0  0  0  0  0  0  0  0
   33.3880   25.3100   45.4860 H   0  0  0  0  0  0  0  0  0  0  0  0
   33.5870   25.1850   47.9030 H   0  0  0  0  0  0  0  0  0  0  0  0
  1  2  1  0  0  0  0
  2  7  1  0  0  0  0
  2  3  2  0  0  0  0
  3  8  1  0  0  0  0
  4  3  1  0  0  0  0
  4  9  1  0  0  0  0
  5  4  2  0  0  0  0
  6  1  2  0  0  0  0
  6  5  1  0  0  0  0
 10  5  1  0  0  0  0
 11  6  1  0  0  0  0
 12 11  1  0  0  0  0
 13 12  1  0  0  0  0
 13 14  1  0  0  0  0
 14 15  1  0  0  0  0
 15 11  1  0  0  0  0
 16 15  1  0  0  0  0
 17 18  1  6  0  0  0
 17  1  1  0  0  0  0
 19 20  2  0  0  0  0
 19 24  1  0  0  0  0
 20 21  1  0  0  0  0
 21 27  1  0  0  0  0
 21 22  2  0  0  0  0
 23 22  1  0  0  0  0
 23 17  1  0  0  0  0
 24 23  2  0  0  0  0
 25 19  1  0  0  0  0
 26 20  1  0  0  0  0
M  END
>  <minimizedAffinity>
-5.59499836

>  <minimizedRMSD>
2.38907647

$$$$
