
 OpenBabel03272509283D

 31 33  0  0  1  0  0  0  0  0999 V2000
   37.0210   31.0660   45.8820 C   0  0  2  0  0  0  0  0  0  0  0  0
   37.6390   30.8860   44.5080 C   0  0  0  0  0  0  0  0  0  0  0  0
   38.9500   30.1580   44.5550 C   0  0  0  0  0  0  0  0  0  0  0  0
   39.9380   30.8100   45.4940 C   0  0  0  0  0  0  0  0  0  0  0  0
   39.3350   31.2190   46.8070 C   0  0  0  0  0  0  0  0  0  0  0  0
   37.9350   30.6720   46.9930 C   0  0  1  0  0  0  0  0  0  0  0  0
   36.6490   32.1100   45.9900 H   0  0  0  0  0  0  0  0  0  0  0  0
   36.9810   30.3700   43.7890 H   0  0  0  0  0  0  0  0  0  0  0  0
   37.8480   31.8970   44.1100 H   0  0  0  0  0  0  0  0  0  0  0  0
   38.7850   29.1270   44.9780 H   0  0  0  0  0  0  0  0  0  0  0  0
   39.3750   30.1420   43.5520 H   0  0  0  0  0  0  0  0  0  0  0  0
   40.3600   31.6750   44.9220 H   0  0  0  0  0  0  0  0  0  0  0  0
   40.7950   30.1100   45.6210 H   0  0  0  0  0  0  0  0  0  0  0  0
   39.9360   30.8050   47.6560 H   0  0  0  0  0  0  0  0  0  0  0  0
   39.3590   32.3160   46.8400 H   0  0  0  0  0  0  0  0  0  0  0  0
   38.0400   29.5580   47.0240 H   0  0  0  0  0  0  0  0  0  0  0  0
   35.7930   30.2180   45.9910 C   0  0  0  0  0  0  0  0  0  0  0  0
   35.4010   29.5520   44.8150 C   0  0  0  0  0  0  0  0  0  0  0  0
   34.2490   28.7660   44.8930 C   0  0  0  0  0  0  0  0  0  0  0  0
   33.5630   28.6790   46.0840 N   0  0  0  0  0  0  0  0  0  0  0  0
   33.9860   29.3480   47.1980 C   0  0  0  0  0  0  0  0  0  0  0  0
   35.0870   30.1040   47.1390 N   0  0  0  0  0  0  0  0  0  0  0  0
   35.9160   29.6000   43.8700 H   0  0  0  0  0  0  0  0  0  0  0  0
   33.8440   28.2070   44.0710 H   0  0  0  0  0  0  0  0  0  0  0  0
   33.3940   29.2280   48.0920 H   0  0  0  0  0  0  0  0  0  0  0  0
   37.3940   31.0780   48.2450 N   0  0  2  0  0  0  0  0  0  0  0  0
   37.6970   32.4080   48.6650 C   0  0  0  0  0  0  0  0  0  0  0  0
   37.2260   32.3900   50.1260 C   0  0  0  0  0  0  0  0  0  0  0  0
   36.9990   30.9320   50.4730 C   0  0  0  0  0  0  0  0  0  0  0  0
   37.8310   30.2760   49.3620 C   0  0  0  0  0  0  0  0  0  0  0  0
   37.6230   29.2130   49.2800 H   0  0  0  0  0  0  0  0  0  0  0  0
  1  7  1  1  0  0  0
  1 17  1  0  0  0  0
  1  6  1  0  0  0  0
  2  3  1  0  0  0  0
  2  1  1  0  0  0  0
  3 10  1  0  0  0  0
  3  4  1  0  0  0  0
  4 13  1  0  0  0  0
  4  5  1  0  0  0  0
  5 15  1  0  0  0  0
  5  6  1  0  0  0  0
  5 14  1  0  0  0  0
  6 16  1  1  0  0  0
  6 26  1  0  0  0  0
  8  2  1  0  0  0  0
  9  2  1  0  0  0  0
 11  3  1  0  0  0  0
 12  4  1  0  0  0  0
 17 22  1  0  0  0  0
 18 19  1  0  0  0  0
 18 17  2  0  0  0  0
 19 20  2  0  0  0  0
 20 21  1  0  0  0  0
 21 25  1  0  0  0  0
 22 21  2  0  0  0  0
 23 18  1  0  0  0  0
 24 19  1  0  0  0  0
 26 27  1  1  0  0  0
 26 30  1  0  0  0  0
 27 28  1  0  0  0  0
 28 29  1  0  0  0  0
 30 29  1  0  0  0  0
 31 30  1  0  0  0  0
M  END
>  <minimizedAffinity>
-4.60208464

>  <minimizedRMSD>
4.24988699

$$$$
