
 OpenBabel03272510153D

 25 27  0  0  0  0  0  0  0  0999 V2000
   37.3210   29.3010   51.0290 Br  0  0  0  0  0  0  0  0  0  0  0  0
   35.9400   29.3120   49.6960 C   0  0  0  0  0  0  0  0  0  0  0  0
   35.9610   30.2340   48.6720 C   0  0  0  0  0  0  0  0  0  0  0  0
   34.9330   30.1830   47.7450 C   0  0  0  0  0  0  0  0  0  0  0  0
   33.9150   29.2650   47.8100 C   0  0  0  0  0  0  0  0  0  0  0  0
   33.9210   28.3630   48.8360 C   0  0  0  0  0  0  0  0  0  0  0  0
   34.9440   28.3900   49.7850 C   0  0  0  0  0  0  0  0  0  0  0  0
   34.9870   30.9240   46.9590 H   0  0  0  0  0  0  0  0  0  0  0  0
   33.1210   27.6540   48.8750 H   0  0  0  0  0  0  0  0  0  0  0  0
   34.9300   27.6660   50.5920 H   0  0  0  0  0  0  0  0  0  0  0  0
   37.9830   33.1760   49.4260 C   0  0  0  0  0  0  0  0  0  0  0  0
   39.0170   33.1370   48.4390 C   0  0  0  0  0  0  0  0  0  0  0  0
   38.9910   32.0790   47.5260 C   0  0  0  0  0  0  0  0  0  0  0  0
   37.9920   31.1540   47.6220 N   0  0  0  0  0  0  0  0  0  0  0  0
   37.0320   31.2290   48.5720 C   0  0  0  0  0  0  0  0  0  0  0  0
   37.0320   32.2370   49.4660 N   0  0  0  0  0  0  0  0  0  0  0  0
   38.0390   34.0130   50.1160 H   0  0  0  0  0  0  0  0  0  0  0  0
   39.7990   33.8830   48.3830 H   0  0  0  0  0  0  0  0  0  0  0  0
   39.7340   31.9700   46.7460 H   0  0  0  0  0  0  0  0  0  0  0  0
   32.8860   29.2630   46.8280 N   0  0  0  0  0  0  0  0  0  0  0  0
   32.8110   30.0910   45.6420 C   0  0  0  0  0  2  0  0  0  0  0  0
   31.7880   29.3710   44.7520 C   0  0  0  0  0  2  0  0  0  0  0  0
   30.7690   28.9490   45.8190 C   0  0  0  0  0  2  0  0  0  0  0  0
   31.7040   28.3950   46.8680 C   0  0  0  0  0  3  0  0  0  0  0  0
   31.9830   27.3600   46.5390 H   0  0  0  0  0  0  0  0  0  0  0  0
  2  7  1  0  0  0  0
  2  1  1  0  0  0  0
  3  2  2  0  0  0  0
  4  5  2  0  0  0  0
  4  3  1  0  0  0  0
  5  6  1  0  0  0  0
  6  9  1  0  0  0  0
  6  7  2  0  0  0  0
  7 10  1  0  0  0  0
  8  4  1  0  0  0  0
 11 16  1  0  0  0  0
 11 17  1  0  0  0  0
 12 11  2  0  0  0  0
 13 14  2  0  0  0  0
 13 12  1  0  0  0  0
 14 15  1  0  0  0  0
 15  3  1  0  0  0  0
 15 16  2  0  0  0  0
 18 12  1  0  0  0  0
 19 13  1  0  0  0  0
 20 24  1  0  0  0  0
 20  5  1  0  0  0  0
 21 20  1  0  0  0  0
 22 21  1  0  0  0  0
 22 23  1  0  0  0  0
 23 24  1  0  0  0  0
 25 24  1  0  0  0  0
M  END
>  <minimizedAffinity>
-5.6930542

>  <minimizedRMSD>
0.269815296

$$$$
