
 OpenBabel03272510243D

 29 32  0  0  1  0  0  0  0  0999 V2000
   36.1260   30.1600   46.9320 C   0  0  0  0  0  0  0  0  0  0  0  0
   37.0020   30.7210   47.8390 C   0  0  0  0  0  0  0  0  0  0  0  0
   37.9820   31.6230   47.4320 C   0  0  0  0  0  0  0  0  0  0  0  0
   38.0140   31.9170   46.0610 C   0  0  0  0  0  0  0  0  0  0  0  0
   38.8750   32.7650   45.4240 N   0  0  0  0  0  0  0  0  0  0  0  0
   38.5410   32.7370   44.1250 C   0  0  0  0  0  0  0  0  0  0  0  0
   37.5190   31.9150   43.9390 N   0  0  0  0  0  0  0  0  0  0  0  0
   37.1620   31.3840   45.1280 C   0  0  0  0  0  0  0  0  0  0  0  0
   36.1980   30.4860   45.5760 C   0  0  0  0  0  0  0  0  0  0  0  0
   35.3530   29.4570   47.2120 H   0  0  0  0  0  0  0  0  0  0  0  0
   38.6560   32.0520   48.1340 H   0  0  0  0  0  0  0  0  0  0  0  0
   39.6390   33.3160   45.8890 H   0  0  0  0  0  0  0  0  0  0  0  0
   35.5250   30.0640   44.8400 H   0  0  0  0  0  0  0  0  0  0  0  0
   37.5210   30.1450   51.5110 C   0  0  0  0  0  0  0  0  0  0  0  0
   37.7870   30.5750   50.2180 C   0  0  0  0  0  0  0  0  0  0  0  0
   36.8620   30.3310   49.2300 C   0  0  0  0  0  0  0  0  0  0  0  0
   35.7360   29.6740   49.6030 N   0  0  0  0  0  0  0  0  0  0  0  0
   35.4790   29.2570   50.8600 C   0  0  0  0  0  0  0  0  0  0  0  0
   36.3760   29.4980   51.7970 N   0  0  0  0  0  0  0  0  0  0  0  0
   38.2870   30.3660   52.2400 H   0  0  0  0  0  0  0  0  0  0  0  0
   38.6910   31.0990   49.9350 H   0  0  0  0  0  0  0  0  0  0  0  0
   34.5590   28.7370   51.0910 H   0  0  0  0  0  0  0  0  0  0  0  0
   39.2430   33.5090   43.1930 O   0  0  0  0  0  0  0  0  0  0  0  0
   40.3630   31.0960   42.3910 H   0  0  0  0  0  0  0  0  0  0  0  0
   39.5460   31.5180   41.9060 N   0  0  0  0  0  0  0  0  0  0  0  0
   39.4160   31.1620   40.5250 C   0  0  0  0  0  2  0  0  0  0  0  0
   38.8370   32.3590   39.7860 C   0  0  0  0  0  2  0  0  0  0  0  0
   38.3490   33.2310   40.9490 C   0  0  0  0  0  2  0  0  0  0  0  0
   39.4930   32.9460   41.9310 C   0  0  1  0  0  3  0  0  0  0  0  0
  1 10  1  0  0  0  0
  1  2  1  0  0  0  0
  2 16  1  0  0  0  0
  3  2  2  0  0  0  0
  3 11  1  0  0  0  0
  4  3  1  0  0  0  0
  5 12  1  0  0  0  0
  5  4  1  0  0  0  0
  6  5  1  0  0  0  0
  7  6  2  0  0  0  0
  7  8  1  0  0  0  0
  8  9  1  0  0  0  0
  8  4  2  0  0  0  0
  9  1  2  0  0  0  0
 13  9  1  0  0  0  0
 14 19  1  0  0  0  0
 14 20  1  0  0  0  0
 15 14  2  0  0  0  0
 16 17  2  0  0  0  0
 16 15  1  0  0  0  0
 17 18  1  0  0  0  0
 18 22  1  0  0  0  0
 18 19  2  0  0  0  0
 21 15  1  0  0  0  0
 23  6  1  0  0  0  0
 25 29  1  0  0  0  0
 25 24  1  0  0  0  0
 26 25  1  0  0  0  0
 27 26  1  0  0  0  0
 27 28  1  0  0  0  0
 28 29  1  0  0  0  0
 29 23  1  1  0  0  0
M  END
>  <minimizedAffinity>
-5.28094816

>  <minimizedRMSD>
1.63437808

$$$$
