
 OpenBabel03272510153D

 25 27  0  0  0  0  0  0  0  0999 V2000
   37.3120   29.3190   51.0450 Br  0  0  0  0  0  0  0  0  0  0  0  0
   35.9400   29.3200   49.7020 C   0  0  0  0  0  0  0  0  0  0  0  0
   35.9660   30.2360   48.6740 C   0  0  0  0  0  0  0  0  0  0  0  0
   34.9440   30.1790   47.7400 C   0  0  0  0  0  0  0  0  0  0  0  0
   33.9280   29.2590   47.8030 C   0  0  0  0  0  0  0  0  0  0  0  0
   33.9290   28.3630   48.8330 C   0  0  0  0  0  0  0  0  0  0  0  0
   34.9450   28.3970   49.7890 C   0  0  0  0  0  0  0  0  0  0  0  0
   35.0020   30.9160   46.9500 H   0  0  0  0  0  0  0  0  0  0  0  0
   33.1300   27.6520   48.8700 H   0  0  0  0  0  0  0  0  0  0  0  0
   34.9270   27.6770   50.6000 H   0  0  0  0  0  0  0  0  0  0  0  0
   37.9840   33.1810   49.4330 C   0  0  0  0  0  0  0  0  0  0  0  0
   39.0180   33.1440   48.4470 C   0  0  0  0  0  0  0  0  0  0  0  0
   38.9940   32.0880   47.5320 C   0  0  0  0  0  0  0  0  0  0  0  0
   37.9960   31.1610   47.6260 N   0  0  0  0  0  0  0  0  0  0  0  0
   37.0360   31.2330   48.5760 C   0  0  0  0  0  0  0  0  0  0  0  0
   37.0350   32.2400   49.4720 N   0  0  0  0  0  0  0  0  0  0  0  0
   38.0390   34.0160   50.1260 H   0  0  0  0  0  0  0  0  0  0  0  0
   39.8000   33.8910   48.3930 H   0  0  0  0  0  0  0  0  0  0  0  0
   39.7370   31.9820   46.7520 H   0  0  0  0  0  0  0  0  0  0  0  0
   32.9060   29.2500   46.8140 N   0  0  0  0  0  0  0  0  0  0  0  0
   32.5200   30.3450   45.9480 C   0  0  0  0  0  2  0  0  0  0  0  0
   31.7330   29.6660   44.8180 C   0  0  0  0  0  2  0  0  0  0  0  0
   30.9490   28.6320   45.6370 C   0  0  0  0  0  2  0  0  0  0  0  0
   32.0580   28.0920   46.5080 C   0  0  0  0  0  3  0  0  0  0  0  0
   32.6310   27.3570   45.8840 H   0  0  0  0  0  0  0  0  0  0  0  0
  2  7  1  0  0  0  0
  2  1  1  0  0  0  0
  3  2  2  0  0  0  0
  4  5  2  0  0  0  0
  4  3  1  0  0  0  0
  5  6  1  0  0  0  0
  6  9  1  0  0  0  0
  6  7  2  0  0  0  0
  7 10  1  0  0  0  0
  8  4  1  0  0  0  0
 11 16  1  0  0  0  0
 11 17  1  0  0  0  0
 12 11  2  0  0  0  0
 13 14  2  0  0  0  0
 13 12  1  0  0  0  0
 14 15  1  0  0  0  0
 15  3  1  0  0  0  0
 15 16  2  0  0  0  0
 18 12  1  0  0  0  0
 19 13  1  0  0  0  0
 20  5  1  0  0  0  0
 21 20  1  0  0  0  0
 22 23  1  0  0  0  0
 22 21  1  0  0  0  0
 23 24  1  0  0  0  0
 24 20  1  0  0  0  0
 25 24  1  0  0  0  0
M  END
>  <minimizedAffinity>
-5.72176456

>  <minimizedRMSD>
0.177927211

$$$$
