
 OpenBabel03272510243D

 29 32  0  0  1  0  0  0  0  0999 V2000
   35.8990   30.0540   46.8680 C   0  0  0  0  0  0  0  0  0  0  0  0
   36.8980   30.6470   47.6140 C   0  0  0  0  0  0  0  0  0  0  0  0
   37.8350   31.4910   47.0210 C   0  0  0  0  0  0  0  0  0  0  0  0
   37.6940   31.6900   45.6400 C   0  0  0  0  0  0  0  0  0  0  0  0
   38.4830   32.4680   44.8400 N   0  0  0  0  0  0  0  0  0  0  0  0
   37.9820   32.3630   43.6000 C   0  0  0  0  0  0  0  0  0  0  0  0
   36.9280   31.5620   43.6050 N   0  0  0  0  0  0  0  0  0  0  0  0
   36.7170   31.1220   44.8640 C   0  0  0  0  0  0  0  0  0  0  0  0
   35.8010   30.2850   45.4950 C   0  0  0  0  0  0  0  0  0  0  0  0
   35.1550   29.3950   47.2940 H   0  0  0  0  0  0  0  0  0  0  0  0
   38.6040   31.9450   47.5990 H   0  0  0  0  0  0  0  0  0  0  0  0
   39.3130   33.0260   45.1630 H   0  0  0  0  0  0  0  0  0  0  0  0
   35.0290   29.8360   44.8830 H   0  0  0  0  0  0  0  0  0  0  0  0
   37.8530   30.3570   51.2310 C   0  0  0  0  0  0  0  0  0  0  0  0
   37.9540   30.7000   49.8890 C   0  0  0  0  0  0  0  0  0  0  0  0
   36.9320   30.3570   49.0350 C   0  0  0  0  0  0  0  0  0  0  0  0
   35.8810   29.6950   49.5810 N   0  0  0  0  0  0  0  0  0  0  0  0
   35.7850   29.3630   50.8850 C   0  0  0  0  0  0  0  0  0  0  0  0
   36.7740   29.6990   51.6920 N   0  0  0  0  0  0  0  0  0  0  0  0
   38.6880   30.6530   51.8490 H   0  0  0  0  0  0  0  0  0  0  0  0
   38.7990   31.2280   49.4680 H   0  0  0  0  0  0  0  0  0  0  0  0
   34.9180   28.8340   51.2570 H   0  0  0  0  0  0  0  0  0  0  0  0
   38.5730   33.0490   42.5330 O   0  0  0  0  0  0  0  0  0  0  0  0
   35.8640   33.3280   41.9820 H   0  0  0  0  0  0  0  0  0  0  0  0
   36.5950   33.8270   41.4390 N   0  0  0  0  0  0  0  0  0  0  0  0
   36.2310   34.1500   40.0920 C   0  0  0  0  0  2  0  0  0  0  0  0
   37.4820   34.0570   39.2330 C   0  0  0  0  0  2  0  0  0  0  0  0
   38.5830   34.0080   40.2990 C   0  0  0  0  0  2  0  0  0  0  0  0
   37.8480   33.1460   41.3340 C   0  0  1  0  0  3  0  0  0  0  0  0
  1 10  1  0  0  0  0
  1  2  1  0  0  0  0
  2 16  1  0  0  0  0
  3 11  1  0  0  0  0
  3  2  2  0  0  0  0
  4  3  1  0  0  0  0
  5 12  1  0  0  0  0
  5  4  1  0  0  0  0
  6  7  2  0  0  0  0
  6  5  1  0  0  0  0
  7  8  1  0  0  0  0
  8  9  1  0  0  0  0
  8  4  2  0  0  0  0
  9  1  2  0  0  0  0
 13  9  1  0  0  0  0
 14 19  1  0  0  0  0
 14 20  1  0  0  0  0
 15 14  2  0  0  0  0
 16 17  2  0  0  0  0
 16 15  1  0  0  0  0
 17 18  1  0  0  0  0
 18 22  1  0  0  0  0
 18 19  2  0  0  0  0
 21 15  1  0  0  0  0
 23  6  1  0  0  0  0
 25 24  1  0  0  0  0
 26 25  1  0  0  0  0
 27 26  1  0  0  0  0
 27 28  1  0  0  0  0
 28 29  1  0  0  0  0
 29 25  1  0  0  0  0
 29 23  1  1  0  0  0
M  END
>  <minimizedAffinity>
-5.11778164

>  <minimizedRMSD>
2.06478524

$$$$
