
 OpenBabel03272510243D

 29 32  0  0  1  0  0  0  0  0999 V2000
   35.0520   28.5530   49.1960 C   0  0  0  0  0  0  0  0  0  0  0  0
   35.3250   29.6810   48.4500 C   0  0  0  0  0  0  0  0  0  0  0  0
   34.5150   30.0510   47.3780 C   0  0  0  0  0  0  0  0  0  0  0  0
   33.4220   29.2110   47.1180 C   0  0  0  0  0  0  0  0  0  0  0  0
   32.4900   29.3610   46.1300 N   0  0  0  0  0  0  0  0  0  0  0  0
   31.6370   28.3330   46.2570 C   0  0  0  0  0  0  0  0  0  0  0  0
   32.0020   27.5660   47.2720 N   0  0  0  0  0  0  0  0  0  0  0  0
   33.1150   28.0830   47.8360 C   0  0  0  0  0  0  0  0  0  0  0  0
   33.9500   27.7490   48.8970 C   0  0  0  0  0  0  0  0  0  0  0  0
   35.6580   28.2370   50.0340 H   0  0  0  0  0  0  0  0  0  0  0  0
   34.7290   30.9200   46.8050 H   0  0  0  0  0  0  0  0  0  0  0  0
   32.4730   30.1400   45.4250 H   0  0  0  0  0  0  0  0  0  0  0  0
   33.7080   26.8590   49.4640 H   0  0  0  0  0  0  0  0  0  0  0  0
   38.2270   32.0600   48.5070 C   0  0  0  0  0  0  0  0  0  0  0  0
   37.1200   31.3800   48.0160 C   0  0  0  0  0  0  0  0  0  0  0  0
   36.4890   30.4640   48.8230 C   0  0  0  0  0  0  0  0  0  0  0  0
   37.0070   30.2900   50.0650 N   0  0  0  0  0  0  0  0  0  0  0  0
   38.0830   30.9520   50.5390 C   0  0  0  0  0  0  0  0  0  0  0  0
   38.6780   31.8280   49.7530 N   0  0  0  0  0  0  0  0  0  0  0  0
   38.6780   32.7650   47.8240 H   0  0  0  0  0  0  0  0  0  0  0  0
   36.7170   31.5290   47.0220 H   0  0  0  0  0  0  0  0  0  0  0  0
   38.4470   30.7660   51.5420 H   0  0  0  0  0  0  0  0  0  0  0  0
   30.5530   28.1970   45.3830 O   0  0  0  0  0  0  0  0  0  0  0  0
   32.6020   28.5450   43.5380 H   0  0  0  0  0  0  0  0  0  0  0  0
   32.1720   27.6180   43.7240 N   0  0  0  0  0  0  0  0  0  0  0  0
   32.2300   26.6970   42.6260 C   0  0  0  0  0  2  0  0  0  0  0  0
   30.9700   25.8480   42.6610 C   0  0  0  0  0  2  0  0  0  0  0  0
   30.4280   26.1600   44.0620 C   0  0  0  0  0  2  0  0  0  0  0  0
   30.7980   27.6480   44.1140 C   0  0  1  0  0  3  0  0  0  0  0  0
  1 10  1  0  0  0  0
  2 16  1  0  0  0  0
  2  1  2  0  0  0  0
  3  2  1  0  0  0  0
  4  3  2  0  0  0  0
  4  8  1  0  0  0  0
  5  6  1  0  0  0  0
  5  4  1  0  0  0  0
  6  7  2  0  0  0  0
  7  8  1  0  0  0  0
  8  9  2  0  0  0  0
  9  1  1  0  0  0  0
  9 13  1  0  0  0  0
 11  3  1  0  0  0  0
 12  5  1  0  0  0  0
 14 19  1  0  0  0  0
 15 14  2  0  0  0  0
 15 16  1  0  0  0  0
 16 17  2  0  0  0  0
 17 18  1  0  0  0  0
 18 22  1  0  0  0  0
 19 18  2  0  0  0  0
 20 14  1  0  0  0  0
 21 15  1  0  0  0  0
 23  6  1  0  0  0  0
 24 25  1  0  0  0  0
 25 29  1  0  0  0  0
 26 27  1  0  0  0  0
 26 25  1  0  0  0  0
 27 28  1  0  0  0  0
 28 29  1  0  0  0  0
 29 23  1  1  0  0  0
M  END
>  <minimizedAffinity>
-4.41501856

>  <minimizedRMSD>
7.6364727

$$$$
