
 OpenBabel03272505033D

 26 28  0  0  1  0  0  0  0  0999 V2000
   40.5220   23.0470   34.3330 Cl  0  0  0  0  0  0  0  0  0  0  0  0
   39.5970   23.5070   35.7410 C   0  0  0  0  0  0  0  0  0  0  0  0
   38.7570   24.5750   35.6410 C   0  0  0  0  0  0  0  0  0  0  0  0
   38.0390   24.9020   36.7930 C   0  0  0  0  0  0  0  0  0  0  0  0
   38.2220   24.1360   37.9440 C   0  0  0  0  0  0  0  0  0  0  0  0
   39.0770   23.0780   37.9850 C   0  0  0  0  0  0  0  0  0  0  0  0
   39.7870   22.7490   36.8560 C   0  0  0  0  0  0  0  0  0  0  0  0
   37.3710   25.7430   36.7320 H   0  0  0  0  0  0  0  0  0  0  0  0
   37.6030   24.4970   38.7700 H   0  0  0  0  0  0  0  0  0  0  0  0
   39.0840   22.6180   38.9410 H   0  0  0  0  0  0  0  0  0  0  0  0
   37.6070   25.0750   33.4840 C   0  0  0  0  0  0  0  0  0  0  0  0
   38.5680   25.3800   34.4340 C   0  0  0  0  0  0  0  0  0  0  0  0
   39.3720   26.5050   34.2030 C   0  0  0  0  0  0  0  0  0  0  0  0
   39.1590   27.2200   33.0720 N   0  0  0  0  0  0  0  0  0  0  0  0
   38.2240   26.8960   32.1810 C   0  0  0  0  0  0  0  0  0  0  0  0
   37.4410   25.8240   32.3770 N   0  0  0  0  0  0  0  0  0  0  0  0
   36.9660   24.2140   33.6230 H   0  0  0  0  0  0  0  0  0  0  0  0
   40.1000   26.7140   34.9490 H   0  0  0  0  0  0  0  0  0  0  0  0
   38.2240   27.5930   31.3610 H   0  0  0  0  0  0  0  0  0  0  0  0
   40.6480   21.6760   36.9130 O   0  0  0  0  0  0  0  0  0  0  0  0
   41.3300   19.6660   38.2060 H   0  0  0  0  0  0  0  0  0  0  0  0
   42.1760   20.2220   37.9880 N   0  0  0  0  0  0  0  0  0  0  0  0
   43.0390   19.6620   36.9960 C   0  0  0  0  0  2  0  0  0  0  0  0
   43.0130   20.6320   35.8340 C   0  0  0  0  0  2  0  0  0  0  0  0
   42.9440   21.9590   36.5770 C   0  0  0  0  0  2  0  0  0  0  0  0
   41.8570   21.5880   37.6040 C   0  0  1  0  0  3  0  0  0  0  0  0
  1  2  1  0  0  0  0
  2  7  1  0  0  0  0
  3  2  2  0  0  0  0
  3  4  1  0  0  0  0
  4  5  2  0  0  0  0
  5  6  1  0  0  0  0
  5  9  1  0  0  0  0
  6 10  1  0  0  0  0
  7 20  1  0  0  0  0
  7  6  2  0  0  0  0
  8  4  1  0  0  0  0
 11 17  1  0  0  0  0
 11 12  1  0  0  0  0
 12  3  1  0  0  0  0
 13 12  2  0  0  0  0
 13 18  1  0  0  0  0
 14 13  1  0  0  0  0
 15 16  1  0  0  0  0
 15 14  2  0  0  0  0
 16 11  2  0  0  0  0
 19 15  1  0  0  0  0
 22 21  1  0  0  0  0
 23 22  1  0  0  0  0
 24 25  1  0  0  0  0
 24 23  1  0  0  0  0
 25 26  1  0  0  0  0
 26 20  1  6  0  0  0
 26 22  1  0  0  0  0
M  END
>  <minimizedAffinity>
-4.97326469

$$$$

 OpenBabel03272505033D

 26 28  0  0  1  0  0  0  0  0999 V2000
   38.2330   23.1970   33.1800 Cl  0  0  0  0  0  0  0  0  0  0  0  0
   37.0250   24.1020   32.3000 C   0  0  0  0  0  0  0  0  0  0  0  0
   36.0400   23.4100   31.6610 C   0  0  0  0  0  0  0  0  0  0  0  0
   35.0980   24.1780   30.9720 C   0  0  0  0  0  0  0  0  0  0  0  0
   35.2210   25.5670   30.9820 C   0  0  0  0  0  0  0  0  0  0  0  0
   36.2290   26.2040   31.6400 C   0  0  0  0  0  0  0  0  0  0  0  0
   37.1600   25.4560   32.3200 C   0  0  0  0  0  0  0  0  0  0  0  0
   34.3140   23.6500   30.4610 H   0  0  0  0  0  0  0  0  0  0  0  0
   34.4230   26.0460   30.4070 H   0  0  0  0  0  0  0  0  0  0  0  0
   36.1600   27.2580   31.5350 H   0  0  0  0  0  0  0  0  0  0  0  0
   36.5890   21.1590   30.7380 C   0  0  0  0  0  0  0  0  0  0  0  0
   35.9130   21.9530   31.6490 C   0  0  0  0  0  0  0  0  0  0  0  0
   35.0850   21.3100   32.5790 C   0  0  0  0  0  0  0  0  0  0  0  0
   35.0000   19.9580   32.5300 N   0  0  0  0  0  0  0  0  0  0  0  0
   35.6670   19.2270   31.6390 C   0  0  0  0  0  0  0  0  0  0  0  0
   36.4660   19.8170   30.7370 N   0  0  0  0  0  0  0  0  0  0  0  0
   37.2380   21.6150   30.0020 H   0  0  0  0  0  0  0  0  0  0  0  0
   34.5790   21.9450   33.2650 H   0  0  0  0  0  0  0  0  0  0  0  0
   35.4580   18.1800   31.7750 H   0  0  0  0  0  0  0  0  0  0  0  0
   38.1730   26.1130   32.9790 O   0  0  0  0  0  0  0  0  0  0  0  0
   36.4820   25.7610   34.7690 H   0  0  0  0  0  0  0  0  0  0  0  0
   37.2520   26.3400   35.1490 N   0  0  0  0  0  0  0  0  0  0  0  0
   38.1160   25.6790   36.0770 C   0  0  0  0  0  2  0  0  0  0  0  0
   39.4770   25.6390   35.4140 C   0  0  0  0  0  2  0  0  0  0  0  0
   39.4840   26.9870   34.7060 C   0  0  0  0  0  2  0  0  0  0  0  0
   38.0680   26.9350   34.1030 C   0  0  1  0  0  3  0  0  0  0  0  0
  2  7  1  0  0  0  0
  2  1  1  0  0  0  0
  3  2  2  0  0  0  0
  4  5  2  0  0  0  0
  4  3  1  0  0  0  0
  5  6  1  0  0  0  0
  6  7  2  0  0  0  0
  7 20  1  0  0  0  0
  8  4  1  0  0  0  0
  9  5  1  0  0  0  0
 10  6  1  0  0  0  0
 11 12  1  0  0  0  0
 12  3  1  0  0  0  0
 12 13  2  0  0  0  0
 13 18  1  0  0  0  0
 14 13  1  0  0  0  0
 15 19  1  0  0  0  0
 15 14  2  0  0  0  0
 16 11  2  0  0  0  0
 16 15  1  0  0  0  0
 17 11  1  0  0  0  0
 21 22  1  0  0  0  0
 22 23  1  0  0  0  0
 24 23  1  0  0  0  0
 25 24  1  0  0  0  0
 26 20  1  6  0  0  0
 26 25  1  0  0  0  0
 26 22  1  0  0  0  0
M  END
>  <minimizedAffinity>
-4.82792473

$$$$

 OpenBabel03272505033D

 26 28  0  0  1  0  0  0  0  0999 V2000
   40.4420   23.8000   34.2110 Cl  0  0  0  0  0  0  0  0  0  0  0  0
   39.7580   23.6670   35.8130 C   0  0  0  0  0  0  0  0  0  0  0  0
   40.4500   22.9670   36.7540 C   0  0  0  0  0  0  0  0  0  0  0  0
   39.8620   22.8910   38.0190 C   0  0  0  0  0  0  0  0  0  0  0  0
   38.6350   23.5180   38.2330 C   0  0  0  0  0  0  0  0  0  0  0  0
   37.9880   24.2050   37.2520 C   0  0  0  0  0  0  0  0  0  0  0  0
   38.5600   24.2850   36.0050 C   0  0  0  0  0  0  0  0  0  0  0  0
   40.3940   22.3420   38.7750 H   0  0  0  0  0  0  0  0  0  0  0  0
   38.2870   23.3810   39.2610 H   0  0  0  0  0  0  0  0  0  0  0  0
   37.0710   24.6120   37.5980 H   0  0  0  0  0  0  0  0  0  0  0  0
   41.8580   20.9290   36.4600 C   0  0  0  0  0  0  0  0  0  0  0  0
   41.7360   22.3070   36.5280 C   0  0  0  0  0  0  0  0  0  0  0  0
   42.9020   23.0690   36.3730 C   0  0  0  0  0  0  0  0  0  0  0  0
   44.0700   22.4140   36.1650 N   0  0  0  0  0  0  0  0  0  0  0  0
   44.1490   21.0850   36.1040 C   0  0  0  0  0  0  0  0  0  0  0  0
   43.0480   20.3320   36.2490 N   0  0  0  0  0  0  0  0  0  0  0  0
   40.9830   20.3040   36.5750 H   0  0  0  0  0  0  0  0  0  0  0  0
   42.7780   24.1230   36.4310 H   0  0  0  0  0  0  0  0  0  0  0  0
   45.1640   20.7730   35.9320 H   0  0  0  0  0  0  0  0  0  0  0  0
   37.8940   24.9820   35.0230 O   0  0  0  0  0  0  0  0  0  0  0  0
   36.6540   25.8640   33.0560 H   0  0  0  0  0  0  0  0  0  0  0  0
   37.3850   26.5480   33.3210 N   0  0  0  0  0  0  0  0  0  0  0  0
   36.9090   27.7470   33.9390 C   0  0  0  0  0  2  0  0  0  0  0  0
   37.4680   27.7320   35.3460 C   0  0  0  0  0  2  0  0  0  0  0  0
   38.8380   27.1190   35.0980 C   0  0  0  0  0  2  0  0  0  0  0  0
   38.4080   25.9650   34.1740 C   0  0  1  0  0  3  0  0  0  0  0  0
  1  2  1  0  0  0  0
  2  7  2  0  0  0  0
  2  3  1  0  0  0  0
  3  4  2  0  0  0  0
  4  5  1  0  0  0  0
  4  8  1  0  0  0  0
  5  9  1  0  0  0  0
  6 10  1  0  0  0  0
  6  5  2  0  0  0  0
  7  6  1  0  0  0  0
 11 12  1  0  0  0  0
 11 17  1  0  0  0  0
 12  3  1  0  0  0  0
 13 18  1  0  0  0  0
 13 12  2  0  0  0  0
 14 13  1  0  0  0  0
 15 14  2  0  0  0  0
 15 16  1  0  0  0  0
 16 11  2  0  0  0  0
 19 15  1  0  0  0  0
 20  7  1  0  0  0  0
 21 22  1  0  0  0  0
 22 23  1  0  0  0  0
 22 26  1  0  0  0  0
 23 24  1  0  0  0  0
 25 24  1  0  0  0  0
 26 20  1  1  0  0  0
 26 25  1  0  0  0  0
M  END
>  <minimizedAffinity>
-4.73275471

$$$$

 OpenBabel03272505033D

 26 28  0  0  1  0  0  0  0  0999 V2000
   36.4490   27.8500   34.7070 Cl  0  0  0  0  0  0  0  0  0  0  0  0
   36.1760   28.7350   33.2260 C   0  0  0  0  0  0  0  0  0  0  0  0
   35.5640   29.9500   33.3040 C   0  0  0  0  0  0  0  0  0  0  0  0
   35.3690   30.6190   32.0940 C   0  0  0  0  0  0  0  0  0  0  0  0
   35.8000   30.0170   30.9120 C   0  0  0  0  0  0  0  0  0  0  0  0
   36.4070   28.7980   30.8950 C   0  0  0  0  0  0  0  0  0  0  0  0
   36.6030   28.1340   32.0820 C   0  0  0  0  0  0  0  0  0  0  0  0
   34.8880   31.5790   32.1360 H   0  0  0  0  0  0  0  0  0  0  0  0
   35.5880   30.6420   30.0400 H   0  0  0  0  0  0  0  0  0  0  0  0
   36.6640   28.5020   29.9100 H   0  0  0  0  0  0  0  0  0  0  0  0
   35.9420   31.3660   35.3230 C   0  0  0  0  0  0  0  0  0  0  0  0
   35.1090   30.5800   34.5440 C   0  0  0  0  0  0  0  0  0  0  0  0
   33.7900   30.4000   34.9840 C   0  0  0  0  0  0  0  0  0  0  0  0
   33.4140   31.0040   36.1370 N   0  0  0  0  0  0  0  0  0  0  0  0
   34.2440   31.7540   36.8610 C   0  0  0  0  0  0  0  0  0  0  0  0
   35.5110   31.9430   36.4620 N   0  0  0  0  0  0  0  0  0  0  0  0
   36.9670   31.5300   35.0200 H   0  0  0  0  0  0  0  0  0  0  0  0
   33.1750   29.7920   34.3660 H   0  0  0  0  0  0  0  0  0  0  0  0
   33.7450   32.1360   37.7340 H   0  0  0  0  0  0  0  0  0  0  0  0
   37.2160   26.9020   32.0500 O   0  0  0  0  0  0  0  0  0  0  0  0
   36.7700   25.8330   29.8500 H   0  0  0  0  0  0  0  0  0  0  0  0
   36.7680   25.1000   30.5820 N   0  0  0  0  0  0  0  0  0  0  0  0
   37.9020   24.2280   30.5790 C   0  0  0  0  0  2  0  0  0  0  0  0
   38.6160   24.4810   31.8890 C   0  0  0  0  0  2  0  0  0  0  0  0
   37.4310   24.7050   32.8170 C   0  0  0  0  0  2  0  0  0  0  0  0
   36.6130   25.6500   31.9180 C   0  0  1  0  0  3  0  0  0  0  0  0
  2  3  1  0  0  0  0
  2  1  1  0  0  0  0
  3 12  1  0  0  0  0
  4  8  1  0  0  0  0
  4  3  2  0  0  0  0
  5  4  1  0  0  0  0
  6  5  2  0  0  0  0
  6  7  1  0  0  0  0
  7  2  2  0  0  0  0
  9  5  1  0  0  0  0
 10  6  1  0  0  0  0
 11 16  1  0  0  0  0
 12 13  1  0  0  0  0
 12 11  2  0  0  0  0
 13 14  2  0  0  0  0
 14 15  1  0  0  0  0
 15 19  1  0  0  0  0
 16 15  2  0  0  0  0
 17 11  1  0  0  0  0
 18 13  1  0  0  0  0
 20  7  1  0  0  0  0
 21 22  1  0  0  0  0
 22 26  1  0  0  0  0
 23 22  1  0  0  0  0
 23 24  1  0  0  0  0
 24 25  1  0  0  0  0
 26 20  1  6  0  0  0
 26 25  1  0  0  0  0
M  END
>  <minimizedAffinity>
-4.67179537

$$$$

 OpenBabel03272505033D

 26 28  0  0  1  0  0  0  0  0999 V2000
   36.4390   27.9260   34.7150 Cl  0  0  0  0  0  0  0  0  0  0  0  0
   36.1520   28.8160   33.2390 C   0  0  0  0  0  0  0  0  0  0  0  0
   35.5330   30.0260   33.3260 C   0  0  0  0  0  0  0  0  0  0  0  0
   35.3270   30.6990   32.1200 C   0  0  0  0  0  0  0  0  0  0  0  0
   35.7550   30.1050   30.9330 C   0  0  0  0  0  0  0  0  0  0  0  0
   36.3690   28.8900   30.9070 C   0  0  0  0  0  0  0  0  0  0  0  0
   36.5760   28.2210   32.0900 C   0  0  0  0  0  0  0  0  0  0  0  0
   34.8400   31.6560   32.1690 H   0  0  0  0  0  0  0  0  0  0  0  0
   35.5340   30.7330   30.0650 H   0  0  0  0  0  0  0  0  0  0  0  0
   36.6220   28.6000   29.9190 H   0  0  0  0  0  0  0  0  0  0  0  0
   33.7970   30.4790   35.0590 C   0  0  0  0  0  0  0  0  0  0  0  0
   35.0820   30.6480   34.5710 C   0  0  0  0  0  0  0  0  0  0  0  0
   35.9580   31.4480   35.3180 C   0  0  0  0  0  0  0  0  0  0  0  0
   35.4950   32.0020   36.4650 N   0  0  0  0  0  0  0  0  0  0  0  0
   34.2510   31.8160   36.9040 C   0  0  0  0  0  0  0  0  0  0  0  0
   33.3930   31.0540   36.2080 N   0  0  0  0  0  0  0  0  0  0  0  0
   33.0890   29.8690   34.5140 H   0  0  0  0  0  0  0  0  0  0  0  0
   36.9360   31.5610   34.9180 H   0  0  0  0  0  0  0  0  0  0  0  0
   34.0920   32.3430   37.8290 H   0  0  0  0  0  0  0  0  0  0  0  0
   37.1970   26.9940   32.0490 O   0  0  0  0  0  0  0  0  0  0  0  0
   36.7530   25.9120   29.8550 H   0  0  0  0  0  0  0  0  0  0  0  0
   36.7560   25.1820   30.5900 N   0  0  0  0  0  0  0  0  0  0  0  0
   37.8940   24.3160   30.5900 C   0  0  0  0  0  2  0  0  0  0  0  0
   38.6090   24.5790   31.8980 C   0  0  0  0  0  2  0  0  0  0  0  0
   37.4240   24.8020   32.8270 C   0  0  0  0  0  2  0  0  0  0  0  0
   36.6000   25.7380   31.9240 C   0  0  1  0  0  3  0  0  0  0  0  0
  2  3  1  0  0  0  0
  2  1  1  0  0  0  0
  3 12  1  0  0  0  0
  4  8  1  0  0  0  0
  4  3  2  0  0  0  0
  5  4  1  0  0  0  0
  6  5  2  0  0  0  0
  6  7  1  0  0  0  0
  7  2  2  0  0  0  0
  9  5  1  0  0  0  0
 10  6  1  0  0  0  0
 11 16  1  0  0  0  0
 12 11  2  0  0  0  0
 12 13  1  0  0  0  0
 13 14  2  0  0  0  0
 14 15  1  0  0  0  0
 15 19  1  0  0  0  0
 16 15  2  0  0  0  0
 17 11  1  0  0  0  0
 18 13  1  0  0  0  0
 20  7  1  0  0  0  0
 21 22  1  0  0  0  0
 22 26  1  0  0  0  0
 23 22  1  0  0  0  0
 23 24  1  0  0  0  0
 24 25  1  0  0  0  0
 26 20  1  6  0  0  0
 26 25  1  0  0  0  0
M  END
>  <minimizedAffinity>
-4.66004801

$$$$

 OpenBabel03272505033D

 26 28  0  0  1  0  0  0  0  0999 V2000
   38.2860   22.8990   33.4130 Cl  0  0  0  0  0  0  0  0  0  0  0  0
   37.1610   23.8400   32.4650 C   0  0  0  0  0  0  0  0  0  0  0  0
   37.0700   25.1770   32.7110 C   0  0  0  0  0  0  0  0  0  0  0  0
   36.1580   25.8850   31.9260 C   0  0  0  0  0  0  0  0  0  0  0  0
   35.4150   25.1980   30.9650 C   0  0  0  0  0  0  0  0  0  0  0  0
   35.5490   23.8580   30.7640 C   0  0  0  0  0  0  0  0  0  0  0  0
   36.4450   23.1540   31.5320 C   0  0  0  0  0  0  0  0  0  0  0  0
   36.0720   26.9410   32.1060 H   0  0  0  0  0  0  0  0  0  0  0  0
   34.7410   25.8660   30.4230 H   0  0  0  0  0  0  0  0  0  0  0  0
   34.9050   23.5120   29.9950 H   0  0  0  0  0  0  0  0  0  0  0  0
   39.0990   26.4240   33.4530 C   0  0  0  0  0  0  0  0  0  0  0  0
   37.8470   25.8960   33.7210 C   0  0  0  0  0  0  0  0  0  0  0  0
   37.3310   26.0730   35.0120 C   0  0  0  0  0  0  0  0  0  0  0  0
   38.0860   26.7480   35.9130 N   0  0  0  0  0  0  0  0  0  0  0  0
   39.2870   27.2420   35.6190 C   0  0  0  0  0  0  0  0  0  0  0  0
   39.8040   27.0870   34.3910 N   0  0  0  0  0  0  0  0  0  0  0  0
   39.5330   26.3090   32.4690 H   0  0  0  0  0  0  0  0  0  0  0  0
   36.3690   25.6570   35.1880 H   0  0  0  0  0  0  0  0  0  0  0  0
   39.7130   27.7380   36.4740 H   0  0  0  0  0  0  0  0  0  0  0  0
   36.5690   21.8000   31.3180 O   0  0  0  0  0  0  0  0  0  0  0  0
   36.9800   19.4890   30.4990 H   0  0  0  0  0  0  0  0  0  0  0  0
   36.0540   19.5160   30.9630 N   0  0  0  0  0  0  0  0  0  0  0  0
   35.9860   18.8670   32.2340 C   0  0  0  0  0  2  0  0  0  0  0  0
   35.6880   19.9600   33.2380 C   0  0  0  0  0  2  0  0  0  0  0  0
   34.7480   20.8390   32.4250 C   0  0  0  0  0  2  0  0  0  0  0  0
   35.5480   20.8710   31.1090 C   0  0  1  0  0  3  0  0  0  0  0  0
  2  3  1  0  0  0  0
  2  1  1  0  0  0  0
  3 12  1  0  0  0  0
  4  8  1  0  0  0  0
  4  3  2  0  0  0  0
  5  4  1  0  0  0  0
  6  5  2  0  0  0  0
  6  7  1  0  0  0  0
  7  2  2  0  0  0  0
  9  5  1  0  0  0  0
 10  6  1  0  0  0  0
 11 12  2  0  0  0  0
 11 16  1  0  0  0  0
 12 13  1  0  0  0  0
 13 18  1  0  0  0  0
 13 14  2  0  0  0  0
 15 14  1  0  0  0  0
 15 19  1  0  0  0  0
 16 15  2  0  0  0  0
 17 11  1  0  0  0  0
 20  7  1  0  0  0  0
 21 22  1  0  0  0  0
 22 26  1  0  0  0  0
 22 23  1  0  0  0  0
 23 24  1  0  0  0  0
 25 24  1  0  0  0  0
 26 20  1  1  0  0  0
 26 25  1  0  0  0  0
M  END
>  <minimizedAffinity>
-4.5998044

$$$$

 OpenBabel03272505033D

 26 28  0  0  1  0  0  0  0  0999 V2000
   38.6900   22.0540   33.3120 Cl  0  0  0  0  0  0  0  0  0  0  0  0
   37.4700   23.0660   32.5790 C   0  0  0  0  0  0  0  0  0  0  0  0
   36.3650   22.4660   32.0530 C   0  0  0  0  0  0  0  0  0  0  0  0
   35.4180   23.3180   31.4790 C   0  0  0  0  0  0  0  0  0  0  0  0
   35.6570   24.6920   31.4790 C   0  0  0  0  0  0  0  0  0  0  0  0
   36.7810   25.2360   32.0210 C   0  0  0  0  0  0  0  0  0  0  0  0
   37.7180   24.4040   32.5880 C   0  0  0  0  0  0  0  0  0  0  0  0
   34.5400   22.8630   31.0580 H   0  0  0  0  0  0  0  0  0  0  0  0
   34.8420   25.2420   31.0010 H   0  0  0  0  0  0  0  0  0  0  0  0
   36.7890   26.2920   31.9280 H   0  0  0  0  0  0  0  0  0  0  0  0
   35.5560   20.3680   33.1330 C   0  0  0  0  0  0  0  0  0  0  0  0
   36.1170   21.0250   32.0500 C   0  0  0  0  0  0  0  0  0  0  0  0
   36.4480   20.2550   30.9270 C   0  0  0  0  0  0  0  0  0  0  0  0
   36.1990   18.9230   30.9700 N   0  0  0  0  0  0  0  0  0  0  0  0
   35.6570   18.3260   32.0300 C   0  0  0  0  0  0  0  0  0  0  0  0
   35.3300   19.0400   33.1180 N   0  0  0  0  0  0  0  0  0  0  0  0
   35.2860   20.9260   34.0200 H   0  0  0  0  0  0  0  0  0  0  0  0
   36.8770   20.7850   30.1110 H   0  0  0  0  0  0  0  0  0  0  0  0
   35.5460   17.2700   31.8550 H   0  0  0  0  0  0  0  0  0  0  0  0
   38.8500   24.9680   33.1310 O   0  0  0  0  0  0  0  0  0  0  0  0
   40.6180   24.1320   34.6660 H   0  0  0  0  0  0  0  0  0  0  0  0
   40.3070   25.0630   34.9950 N   0  0  0  0  0  0  0  0  0  0  0  0
   41.2370   26.1290   34.7860 C   0  0  0  0  0  2  0  0  0  0  0  0
   40.5640   27.0760   33.8150 C   0  0  0  0  0  2  0  0  0  0  0  0
   39.1190   26.9820   34.2860 C   0  0  0  0  0  2  0  0  0  0  0  0
   39.0250   25.4520   34.4290 C   0  0  1  0  0  3  0  0  0  0  0  0
  2  7  1  0  0  0  0
  2  1  1  0  0  0  0
  3  2  2  0  0  0  0
  4  5  2  0  0  0  0
  4  3  1  0  0  0  0
  5  6  1  0  0  0  0
  6  7  2  0  0  0  0
  7 20  1  0  0  0  0
  8  4  1  0  0  0  0
  9  5  1  0  0  0  0
 10  6  1  0  0  0  0
 11 17  1  0  0  0  0
 12  3  1  0  0  0  0
 12 11  2  0  0  0  0
 13 14  2  0  0  0  0
 13 12  1  0  0  0  0
 14 15  1  0  0  0  0
 15 16  2  0  0  0  0
 16 11  1  0  0  0  0
 18 13  1  0  0  0  0
 19 15  1  0  0  0  0
 21 22  1  0  0  0  0
 23 22  1  0  0  0  0
 24 25  1  0  0  0  0
 24 23  1  0  0  0  0
 25 26  1  0  0  0  0
 26 20  1  6  0  0  0
 26 22  1  0  0  0  0
M  END
>  <minimizedAffinity>
-4.59011269

$$$$

 OpenBabel03272505033D

 26 28  0  0  1  0  0  0  0  0999 V2000
   38.1310   27.1950   35.9520 Cl  0  0  0  0  0  0  0  0  0  0  0  0
   37.7040   26.3100   34.5090 C   0  0  0  0  0  0  0  0  0  0  0  0
   38.0330   24.9890   34.4410 C   0  0  0  0  0  0  0  0  0  0  0  0
   37.6680   24.3250   33.2670 C   0  0  0  0  0  0  0  0  0  0  0  0
   37.0090   25.0360   32.2650 C   0  0  0  0  0  0  0  0  0  0  0  0
   36.7060   26.3570   32.3890 C   0  0  0  0  0  0  0  0  0  0  0  0
   37.0610   27.0180   33.5400 C   0  0  0  0  0  0  0  0  0  0  0  0
   37.9200   23.2820   33.1960 H   0  0  0  0  0  0  0  0  0  0  0  0
   36.7820   24.4010   31.4040 H   0  0  0  0  0  0  0  0  0  0  0  0
   36.2070   26.7270   31.5290 H   0  0  0  0  0  0  0  0  0  0  0  0
   38.0860   23.8150   36.6410 C   0  0  0  0  0  0  0  0  0  0  0  0
   38.7270   24.2450   35.4910 C   0  0  0  0  0  0  0  0  0  0  0  0
   40.0890   23.9410   35.3580 C   0  0  0  0  0  0  0  0  0  0  0  0
   40.6890   23.2490   36.3560 N   0  0  0  0  0  0  0  0  0  0  0  0
   40.0390   22.8510   37.4480 C   0  0  0  0  0  0  0  0  0  0  0  0
   38.7350   23.1290   37.6010 N   0  0  0  0  0  0  0  0  0  0  0  0
   37.0340   24.0290   36.7840 H   0  0  0  0  0  0  0  0  0  0  0  0
   40.5550   24.2840   34.4660 H   0  0  0  0  0  0  0  0  0  0  0  0
   40.7000   22.3200   38.1110 H   0  0  0  0  0  0  0  0  0  0  0  0
   36.7480   28.3540   33.6510 O   0  0  0  0  0  0  0  0  0  0  0  0
   36.5740   30.0810   35.4310 H   0  0  0  0  0  0  0  0  0  0  0  0
   35.7200   30.1210   34.8450 N   0  0  0  0  0  0  0  0  0  0  0  0
   35.6240   31.2550   33.9790 C   0  0  0  0  0  2  0  0  0  0  0  0
   35.6600   30.6990   32.5720 C   0  0  0  0  0  2  0  0  0  0  0  0
   34.8660   29.4130   32.7570 C   0  0  0  0  0  2  0  0  0  0  0  0
   35.5350   28.9170   34.0520 C   0  0  1  0  0  3  0  0  0  0  0  0
  2  1  1  0  0  0  0
  3  2  1  0  0  0  0
  3 12  1  0  0  0  0
  4  3  2  0  0  0  0
  5  6  2  0  0  0  0
  5  4  1  0  0  0  0
  6  7  1  0  0  0  0
  7 20  1  0  0  0  0
  7  2  2  0  0  0  0
  8  4  1  0  0  0  0
  9  5  1  0  0  0  0
 10  6  1  0  0  0  0
 11 17  1  0  0  0  0
 11 16  1  0  0  0  0
 12 11  2  0  0  0  0
 13 12  1  0  0  0  0
 13 14  2  0  0  0  0
 14 15  1  0  0  0  0
 15 16  2  0  0  0  0
 15 19  1  0  0  0  0
 18 13  1  0  0  0  0
 22 21  1  0  0  0  0
 23 22  1  0  0  0  0
 24 25  1  0  0  0  0
 24 23  1  0  0  0  0
 25 26  1  0  0  0  0
 26 20  1  6  0  0  0
 26 22  1  0  0  0  0
M  END
>  <minimizedAffinity>
-4.58946991

$$$$

 OpenBabel03272505033D

 26 28  0  0  1  0  0  0  0  0999 V2000
   38.6000   26.1660   34.1860 Cl  0  0  0  0  0  0  0  0  0  0  0  0
   37.8160   24.8980   33.2750 C   0  0  0  0  0  0  0  0  0  0  0  0
   37.1040   25.2450   32.1670 C   0  0  0  0  0  0  0  0  0  0  0  0
   36.4980   24.1960   31.4720 C   0  0  0  0  0  0  0  0  0  0  0  0
   36.6530   22.8930   31.9450 C   0  0  0  0  0  0  0  0  0  0  0  0
   37.3770   22.6060   33.0620 C   0  0  0  0  0  0  0  0  0  0  0  0
   37.9780   23.6320   33.7500 C   0  0  0  0  0  0  0  0  0  0  0  0
   35.9310   24.4520   30.5950 H   0  0  0  0  0  0  0  0  0  0  0  0
   36.1290   22.1710   31.3140 H   0  0  0  0  0  0  0  0  0  0  0  0
   37.3830   21.5650   33.2670 H   0  0  0  0  0  0  0  0  0  0  0  0
   35.8790   27.4150   32.0580 C   0  0  0  0  0  0  0  0  0  0  0  0
   36.9390   26.6130   31.6730 C   0  0  0  0  0  0  0  0  0  0  0  0
   37.8710   27.1560   30.7770 C   0  0  0  0  0  0  0  0  0  0  0  0
   37.6770   28.4270   30.3480 N   0  0  0  0  0  0  0  0  0  0  0  0
   36.6440   29.1700   30.7420 C   0  0  0  0  0  0  0  0  0  0  0  0
   35.7380   28.6740   31.5990 N   0  0  0  0  0  0  0  0  0  0  0  0
   35.1370   27.0340   32.7480 H   0  0  0  0  0  0  0  0  0  0  0  0
   38.6730   26.5160   30.4990 H   0  0  0  0  0  0  0  0  0  0  0  0
   36.6800   30.1430   30.2840 H   0  0  0  0  0  0  0  0  0  0  0  0
   38.7060   23.3270   34.8770 O   0  0  0  0  0  0  0  0  0  0  0  0
   40.4370   22.1040   36.1790 H   0  0  0  0  0  0  0  0  0  0  0  0
   39.5430   22.0720   36.7030 N   0  0  0  0  0  0  0  0  0  0  0  0
   39.4900   22.8900   37.8740 C   0  0  0  0  0  2  0  0  0  0  0  0
   38.4260   23.9320   37.5990 C   0  0  0  0  0  2  0  0  0  0  0  0
   37.4180   23.1040   36.8150 C   0  0  0  0  0  2  0  0  0  0  0  0
   38.3980   22.3900   35.8660 C   0  0  1  0  0  3  0  0  0  0  0  0
  2  7  1  0  0  0  0
  2  1  1  0  0  0  0
  3  2  2  0  0  0  0
  4  5  2  0  0  0  0
  4  3  1  0  0  0  0
  5  6  1  0  0  0  0
  6 10  1  0  0  0  0
  6  7  2  0  0  0  0
  7 20  1  0  0  0  0
  8  4  1  0  0  0  0
  9  5  1  0  0  0  0
 11 17  1  0  0  0  0
 12 11  1  0  0  0  0
 12  3  1  0  0  0  0
 13 12  2  0  0  0  0
 14 15  2  0  0  0  0
 14 13  1  0  0  0  0
 15 16  1  0  0  0  0
 16 11  2  0  0  0  0
 18 13  1  0  0  0  0
 19 15  1  0  0  0  0
 21 22  1  0  0  0  0
 22 23  1  0  0  0  0
 24 23  1  0  0  0  0
 25 24  1  0  0  0  0
 26 20  1  6  0  0  0
 26 22  1  0  0  0  0
 26 25  1  0  0  0  0
M  END
>  <minimizedAffinity>
-4.58747482

$$$$
