
 OpenBabel03272507513D

 29 31  0  0  1  0  0  0  0  0999 V2000
   36.9160   31.4350   48.6260 N   0  0  0  0  0  0  0  0  0  0  0  0
   37.0020   32.3260   49.6250 C   0  0  0  0  0  0  0  0  0  0  0  0
   38.0120   33.2860   49.6030 C   0  0  0  0  0  0  0  0  0  0  0  0
   38.8440   33.2220   48.5290 C   0  0  0  0  0  0  0  0  0  0  0  0
   39.7550   34.1070   48.5320 O   0  0  0  0  0  0  0  0  0  0  0  0
   38.7910   32.3570   47.5230 N   0  0  0  0  0  0  0  0  0  0  0  0
   37.7940   31.4430   47.5860 C   0  0  0  0  0  0  0  0  0  0  0  0
   37.7260   30.6030   46.6290 O   0  0  0  0  0  0  0  0  0  0  0  0
   36.2750   32.2730   50.4290 H   0  0  0  0  0  0  0  0  0  0  0  0
   38.0750   34.0000   50.4090 H   0  0  0  0  0  0  0  0  0  0  0  0
   35.6460   29.7070   49.7730 C   0  0  0  0  0  0  0  0  0  0  0  0
   35.9040   30.4170   48.5870 C   0  0  0  0  0  0  0  0  0  0  0  0
   35.1750   30.1130   47.4270 C   0  0  0  0  0  0  0  0  0  0  0  0
   34.2440   29.1280   47.5180 N   0  0  0  0  0  0  0  0  0  0  0  0
   34.0020   28.4600   48.6340 C   0  0  0  0  0  0  0  0  0  0  0  0
   34.6970   28.7470   49.7500 N   0  0  0  0  0  0  0  0  0  0  0  0
   35.3990   30.6740   46.5470 H   0  0  0  0  0  0  0  0  0  0  0  0
   33.2430   27.6750   48.6650 H   0  0  0  0  0  0  0  0  0  0  0  0
   37.4530   29.3240   51.6150 C   0  0  0  0  0  0  0  0  0  0  0  0
   38.0610   28.3730   51.0800 O   0  0  0  0  0  0  0  0  0  0  0  0
   36.3200   29.9510   50.9870 N   0  0  0  0  0  0  0  0  0  0  0  0
   37.8290   29.6410   52.5740 H   0  0  0  0  0  0  0  0  0  0  0  0
   35.9620   30.7490   51.5960 H   0  0  0  0  0  0  0  0  0  0  0  0
   41.2090   31.0360   46.7880 H   0  0  0  0  0  0  0  0  0  0  0  0
   40.3540   31.1240   46.1770 N   0  0  0  0  0  0  0  0  0  0  0  0
   40.6970   31.0900   44.7680 C   0  0  0  0  0  0  0  0  0  0  0  0
   39.7040   31.9630   44.0500 C   0  0  0  0  0  0  0  0  0  0  0  0
   39.0810   32.7810   45.1340 C   0  0  0  0  0  0  0  0  0  0  0  0
   39.7410   32.4050   46.4430 C   0  0  1  0  0  0  0  0  0  0  0  0
  1  2  1  0  0  0  0
  2  9  1  0  0  0  0
  3  2  2  0  0  0  0
  3 10  1  0  0  0  0
  4  5  2  0  0  0  0
  4  3  1  0  0  0  0
  6  7  1  0  0  0  0
  6  4  1  0  0  0  0
  7  1  1  0  0  0  0
  8  7  2  0  0  0  0
 11 21  1  0  0  0  0
 12  1  1  0  0  0  0
 12 11  2  0  0  0  0
 13 14  2  0  0  0  0
 13 12  1  0  0  0  0
 14 15  1  0  0  0  0
 15 18  1  0  0  0  0
 15 16  2  0  0  0  0
 16 11  1  0  0  0  0
 17 13  1  0  0  0  0
 19 22  1  0  0  0  0
 20 19  2  0  0  0  0
 21 23  1  0  0  0  0
 21 19  1  0  0  0  0
 25 29  1  0  0  0  0
 25 24  1  0  0  0  0
 26 25  1  0  0  0  0
 27 26  1  0  0  0  0
 27 28  1  0  0  0  0
 29 28  1  6  0  0  0
 29  6  1  0  0  0  0
M  END
>  <minimizedAffinity>
-6.24948788

>  <minimizedRMSD>
1.09783876

$$$$
