
 OpenBabel03272510153D

 25 27  0  0  0  0  0  0  0  0999 V2000
   37.1880   29.5580   51.2290 Br  0  0  0  0  0  0  0  0  0  0  0  0
   35.9940   29.3250   49.7440 C   0  0  0  0  0  0  0  0  0  0  0  0
   36.1010   30.1250   48.6270 C   0  0  0  0  0  0  0  0  0  0  0  0
   35.2070   29.9020   47.5930 C   0  0  0  0  0  0  0  0  0  0  0  0
   34.2380   28.9310   47.6410 C   0  0  0  0  0  0  0  0  0  0  0  0
   34.1560   28.1540   48.7620 C   0  0  0  0  0  0  0  0  0  0  0  0
   35.0440   28.3560   49.8190 C   0  0  0  0  0  0  0  0  0  0  0  0
   35.3250   30.5500   46.7350 H   0  0  0  0  0  0  0  0  0  0  0  0
   33.3960   27.4020   48.7870 H   0  0  0  0  0  0  0  0  0  0  0  0
   34.9620   27.7290   50.7000 H   0  0  0  0  0  0  0  0  0  0  0  0
   37.9640   33.1650   49.4020 C   0  0  0  0  0  0  0  0  0  0  0  0
   39.0140   33.1740   48.4320 C   0  0  0  0  0  0  0  0  0  0  0  0
   39.0540   32.1140   47.5220 C   0  0  0  0  0  0  0  0  0  0  0  0
   38.1010   31.1410   47.6060 N   0  0  0  0  0  0  0  0  0  0  0  0
   37.1240   31.1710   48.5400 C   0  0  0  0  0  0  0  0  0  0  0  0
   37.0610   32.1810   49.4310 N   0  0  0  0  0  0  0  0  0  0  0  0
   37.9680   34.0050   50.0910 H   0  0  0  0  0  0  0  0  0  0  0  0
   39.7600   33.9570   48.3860 H   0  0  0  0  0  0  0  0  0  0  0  0
   39.8140   32.0410   46.7540 H   0  0  0  0  0  0  0  0  0  0  0  0
   33.3480   28.7490   46.5480 N   0  0  0  0  0  0  0  0  0  0  0  0
   33.7010   28.4830   45.1690 C   0  0  0  0  0  2  0  0  0  0  0  0
   32.4070   27.9380   44.5510 C   0  0  0  0  0  2  0  0  0  0  0  0
   31.3880   28.8680   45.2260 C   0  0  0  0  0  2  0  0  0  0  0  0
   31.8850   28.8080   46.6520 C   0  0  0  0  0  3  0  0  0  0  0  0
   31.4970   27.8510   47.0890 H   0  0  0  0  0  0  0  0  0  0  0  0
  2  7  1  0  0  0  0
  2  1  1  0  0  0  0
  3  2  2  0  0  0  0
  4  5  2  0  0  0  0
  4  3  1  0  0  0  0
  5  6  1  0  0  0  0
  6  9  1  0  0  0  0
  6  7  2  0  0  0  0
  7 10  1  0  0  0  0
  8  4  1  0  0  0  0
 11 16  1  0  0  0  0
 11 17  1  0  0  0  0
 12 11  2  0  0  0  0
 13 14  2  0  0  0  0
 13 12  1  0  0  0  0
 14 15  1  0  0  0  0
 15  3  1  0  0  0  0
 15 16  2  0  0  0  0
 18 12  1  0  0  0  0
 19 13  1  0  0  0  0
 20 24  1  0  0  0  0
 20  5  1  0  0  0  0
 21 20  1  0  0  0  0
 22 21  1  0  0  0  0
 22 23  1  0  0  0  0
 23 24  1  0  0  0  0
 24 25  1  0  0  0  0
M  END
>  <minimizedAffinity>
-5.62071848

>  <minimizedRMSD>
0.419650912

$$$$
