
 OpenBabel03272501093D

 37 40  0  0  1  0  0  0  0  0999 V2000
   37.1440   25.4290   30.9210 C   0  0  2  0  0  0  0  0  0  0  0  0
   35.8610   26.1140   31.5030 C   0  0  2  0  0  0  0  0  0  0  0  0
   34.8250   25.3740   30.7990 C   0  0  0  0  0  0  0  0  0  0  0  0
   35.2400   24.0560   30.6740 O   0  0  0  0  0  0  0  0  0  0  0  0
   36.5650   23.9880   30.9620 C   0  0  0  0  0  0  0  0  0  0  0  0
   37.2760   25.6640   29.8670 H   0  0  0  0  0  0  0  0  0  0  0  0
   35.9030   25.8220   32.5740 H   0  0  0  0  0  0  0  0  0  0  0  0
   33.9080   25.3340   31.4530 H   0  0  0  0  0  0  0  0  0  0  0  0
   34.5550   25.7100   29.7980 H   0  0  0  0  0  0  0  0  0  0  0  0
   37.1380   23.3430   30.2630 H   0  0  0  0  0  0  0  0  0  0  0  0
   36.7260   23.5790   31.9930 H   0  0  0  0  0  0  0  0  0  0  0  0
   36.6780   29.5710   30.2650 C   0  0  0  0  0  0  0  0  0  0  0  0
   36.6670   28.1490   30.3300 C   0  0  0  0  0  0  0  0  0  0  0  0
   35.9070   27.5480   31.3770 C   0  0  0  0  0  0  0  0  0  0  0  0
   35.2330   28.3550   32.2600 N   0  0  0  0  0  0  0  0  0  0  0  0
   35.2750   29.6870   32.1560 C   0  0  0  0  0  0  0  0  0  0  0  0
   35.9860   30.3060   31.1760 N   0  0  0  0  0  0  0  0  0  0  0  0
   37.2660   29.9850   29.4570 H   0  0  0  0  0  0  0  0  0  0  0  0
   37.2170   27.5650   29.6070 H   0  0  0  0  0  0  0  0  0  0  0  0
   34.7740   30.3780   32.8100 H   0  0  0  0  0  0  0  0  0  0  0  0
   38.1900   25.5040   31.7760 O   0  0  0  0  0  0  0  0  0  0  0  0
   37.9580   23.0180   33.5680 Cl  0  0  0  0  0  0  0  0  0  0  0  0
   38.3390   24.6400   34.1220 C   0  0  0  0  0  0  0  0  0  0  0  0
   38.3850   25.5770   33.1080 C   0  0  0  0  0  0  0  0  0  0  0  0
   38.6910   26.8600   33.5300 C   0  0  0  0  0  0  0  0  0  0  0  0
   38.9300   27.1680   34.8520 C   0  0  0  0  0  0  0  0  0  0  0  0
   38.8630   26.1680   35.8090 C   0  0  0  0  0  0  0  0  0  0  0  0
   38.5650   24.8800   35.4540 C   0  0  0  0  0  0  0  0  0  0  0  0
   38.7650   27.7090   32.8490 H   0  0  0  0  0  0  0  0  0  0  0  0
   39.1700   28.2010   35.1460 H   0  0  0  0  0  0  0  0  0  0  0  0
   39.0740   26.5280   36.8170 H   0  0  0  0  0  0  0  0  0  0  0  0
   38.5280   23.8790   36.4620 N   0  0  0  0  0  0  0  0  0  0  0  0
   39.4670   22.7480   36.5790 C   0  0  0  0  0  2  0  0  0  0  0  0
   39.9470   22.8440   38.0250 C   0  0  0  0  0  2  0  0  0  0  0  0
   38.7270   23.4320   38.7510 C   0  0  0  0  0  2  0  0  0  0  0  0
   37.7320   23.5150   37.6080 C   0  0  0  0  0  3  0  0  0  0  0  0
   36.8700   24.1230   37.8280 H   0  0  0  0  0  0  0  0  0  0  0  0
  1  6  1  6  0  0  0
  1  5  1  0  0  0  0
  1  2  1  0  0  0  0
  1 21  1  0  0  0  0
  2  7  1  1  0  0  0
  3  8  1  0  0  0  0
  3  2  1  0  0  0  0
  4  3  1  0  0  0  0
  4  5  1  0  0  0  0
  5 11  1  0  0  0  0
  9  3  1  0  0  0  0
 10  5  1  0  0  0  0
 12 13  2  0  0  0  0
 12 17  1  0  0  0  0
 13 14  1  0  0  0  0
 14  2  1  0  0  0  0
 14 15  2  0  0  0  0
 16 15  1  0  0  0  0
 16 20  1  0  0  0  0
 17 16  2  0  0  0  0
 18 12  1  0  0  0  0
 19 13  1  0  0  0  0
 21 24  1  0  0  0  0
 22 23  1  0  0  0  0
 23 28  1  0  0  0  0
 24 25  1  0  0  0  0
 24 23  2  0  0  0  0
 25 26  2  0  0  0  0
 26 30  1  0  0  0  0
 26 27  1  0  0  0  0
 27 31  1  0  0  0  0
 28 27  2  0  0  0  0
 28 32  1  0  0  0  0
 29 25  1  0  0  0  0
 32 33  1  0  0  0  0
 32 36  1  0  0  0  0
 33 34  1  0  0  0  0
 34 35  1  0  0  0  0
 36 37  1  0  0  0  0
 36 35  1  0  0  0  0
M  END
>  <minimizedAffinity>
-5.91167068

$$$$

 OpenBabel03272501093D

 37 40  0  0  1  0  0  0  0  0999 V2000
   38.5460   27.1380   33.4700 C   0  0  2  0  0  0  0  0  0  0  0  0
   39.3310   26.4710   34.6500 C   0  0  2  0  0  0  0  0  0  0  0  0
   38.8550   27.2690   35.7690 C   0  0  0  0  0  0  0  0  0  0  0  0
   37.5180   27.5690   35.5510 O   0  0  0  0  0  0  0  0  0  0  0  0
   37.2150   27.2910   34.2570 C   0  0  0  0  0  0  0  0  0  0  0  0
   38.8950   28.1500   33.2830 H   0  0  0  0  0  0  0  0  0  0  0  0
   38.8980   25.4490   34.6740 H   0  0  0  0  0  0  0  0  0  0  0  0
   38.8660   26.6280   36.6950 H   0  0  0  0  0  0  0  0  0  0  0  0
   39.3560   28.2170   35.9640 H   0  0  0  0  0  0  0  0  0  0  0  0
   36.5900   28.0690   33.7700 H   0  0  0  0  0  0  0  0  0  0  0  0
   36.6540   26.3240   34.1800 H   0  0  0  0  0  0  0  0  0  0  0  0
   42.7580   27.2240   33.2900 C   0  0  0  0  0  0  0  0  0  0  0  0
   41.3570   27.3490   33.5120 C   0  0  0  0  0  0  0  0  0  0  0  0
   40.7460   26.4050   34.3890 C   0  0  0  0  0  0  0  0  0  0  0  0
   41.5250   25.4320   34.9690 N   0  0  0  0  0  0  0  0  0  0  0  0
   42.8370   25.3570   34.7280 C   0  0  0  0  0  0  0  0  0  0  0  0
   43.4640   26.2340   33.9000 N   0  0  0  0  0  0  0  0  0  0  0  0
   43.1800   27.9590   32.6190 H   0  0  0  0  0  0  0  0  0  0  0  0
   40.7960   28.1350   33.0280 H   0  0  0  0  0  0  0  0  0  0  0  0
   43.5050   24.6250   35.1460 H   0  0  0  0  0  0  0  0  0  0  0  0
   38.3500   26.2790   32.4430 O   0  0  0  0  0  0  0  0  0  0  0  0
   38.7560   23.3160   33.1560 Cl  0  0  0  0  0  0  0  0  0  0  0  0
   37.3890   23.9720   32.2700 C   0  0  0  0  0  0  0  0  0  0  0  0
   37.4510   25.3390   32.0870 C   0  0  0  0  0  0  0  0  0  0  0  0
   36.3750   25.8720   31.3950 C   0  0  0  0  0  0  0  0  0  0  0  0
   35.3350   25.0950   30.9320 C   0  0  0  0  0  0  0  0  0  0  0  0
   35.3500   23.7280   31.1580 C   0  0  0  0  0  0  0  0  0  0  0  0
   36.3860   23.1430   31.8360 C   0  0  0  0  0  0  0  0  0  0  0  0
   36.2780   26.9350   31.1720 H   0  0  0  0  0  0  0  0  0  0  0  0
   34.4980   25.5570   30.3870 H   0  0  0  0  0  0  0  0  0  0  0  0
   34.4750   23.2190   30.7500 H   0  0  0  0  0  0  0  0  0  0  0  0
   36.3540   21.7410   32.0650 N   0  0  0  0  0  0  0  0  0  0  0  0
   35.4450   21.0480   32.9970 C   0  0  0  0  0  2  0  0  0  0  0  0
   34.8190   19.9620   32.1270 C   0  0  0  0  0  2  0  0  0  0  0  0
   35.9390   19.6380   31.1270 C   0  0  0  0  0  2  0  0  0  0  0  0
   37.0420   20.5500   31.6330 C   0  0  0  0  0  3  0  0  0  0  0  0
   37.8570   20.6710   30.9380 H   0  0  0  0  0  0  0  0  0  0  0  0
  1  6  1  6  0  0  0
  1  5  1  0  0  0  0
  1  2  1  0  0  0  0
  2  7  1  1  0  0  0
  2  3  1  0  0  0  0
  3  9  1  0  0  0  0
  3  8  1  0  0  0  0
  4  3  1  0  0  0  0
  5  4  1  0  0  0  0
 10  5  1  0  0  0  0
 11  5  1  0  0  0  0
 12 13  2  0  0  0  0
 12 17  1  0  0  0  0
 13 14  1  0  0  0  0
 14  2  1  0  0  0  0
 14 15  2  0  0  0  0
 16 15  1  0  0  0  0
 16 20  1  0  0  0  0
 17 16  2  0  0  0  0
 18 12  1  0  0  0  0
 19 13  1  0  0  0  0
 21  1  1  0  0  0  0
 23 22  1  0  0  0  0
 24 23  1  0  0  0  0
 24 21  1  0  0  0  0
 25 24  2  0  0  0  0
 26 27  2  0  0  0  0
 26 25  1  0  0  0  0
 27 28  1  0  0  0  0
 28 32  1  0  0  0  0
 28 23  2  0  0  0  0
 29 25  1  0  0  0  0
 30 26  1  0  0  0  0
 31 27  1  0  0  0  0
 32 33  1  0  0  0  0
 34 33  1  0  0  0  0
 35 36  1  0  0  0  0
 35 34  1  0  0  0  0
 36 32  1  0  0  0  0
 37 36  1  0  0  0  0
M  END
>  <minimizedAffinity>
-5.54052687

$$$$

 OpenBabel03272501093D

 37 40  0  0  1  0  0  0  0  0999 V2000
   39.3220   25.8780   33.1750 C   0  0  2  0  0  0  0  0  0  0  0  0
   39.6390   26.2450   34.6640 C   0  0  2  0  0  0  0  0  0  0  0  0
   41.0000   26.7380   34.5300 C   0  0  0  0  0  0  0  0  0  0  0  0
   41.0980   27.4250   33.3280 O   0  0  0  0  0  0  0  0  0  0  0  0
   40.0090   27.1350   32.5720 C   0  0  0  0  0  0  0  0  0  0  0  0
   39.9130   25.0300   32.8400 H   0  0  0  0  0  0  0  0  0  0  0  0
   38.9290   27.0770   34.8590 H   0  0  0  0  0  0  0  0  0  0  0  0
   41.1790   27.5130   35.3280 H   0  0  0  0  0  0  0  0  0  0  0  0
   41.8070   26.0060   34.5340 H   0  0  0  0  0  0  0  0  0  0  0  0
   40.2480   26.9440   31.5040 H   0  0  0  0  0  0  0  0  0  0  0  0
   39.2720   27.9780   32.5970 H   0  0  0  0  0  0  0  0  0  0  0  0
   37.9980   24.0350   37.2290 C   0  0  0  0  0  0  0  0  0  0  0  0
   38.1950   25.1440   36.3590 C   0  0  0  0  0  0  0  0  0  0  0  0
   39.3760   25.1480   35.5600 C   0  0  0  0  0  0  0  0  0  0  0  0
   40.2560   24.0980   35.6650 N   0  0  0  0  0  0  0  0  0  0  0  0
   40.0260   23.0790   36.4980 C   0  0  0  0  0  0  0  0  0  0  0  0
   38.9150   23.0310   37.2800 N   0  0  0  0  0  0  0  0  0  0  0  0
   37.0910   24.0720   37.8170 H   0  0  0  0  0  0  0  0  0  0  0  0
   37.4670   25.9420   36.3180 H   0  0  0  0  0  0  0  0  0  0  0  0
   40.6690   22.2280   36.6320 H   0  0  0  0  0  0  0  0  0  0  0  0
   37.9960   25.9360   32.9110 O   0  0  0  0  0  0  0  0  0  0  0  0
   37.9700   22.8830   33.2660 Cl  0  0  0  0  0  0  0  0  0  0  0  0
   36.8290   23.8060   32.3030 C   0  0  0  0  0  0  0  0  0  0  0  0
   37.0640   25.1660   32.3150 C   0  0  0  0  0  0  0  0  0  0  0  0
   36.1660   25.9070   31.5630 C   0  0  0  0  0  0  0  0  0  0  0  0
   35.1280   25.3270   30.8660 C   0  0  0  0  0  0  0  0  0  0  0  0
   34.9630   23.9520   30.9060 C   0  0  0  0  0  0  0  0  0  0  0  0
   35.8170   23.1660   31.6310 C   0  0  0  0  0  0  0  0  0  0  0  0
   36.2180   26.9930   31.4740 H   0  0  0  0  0  0  0  0  0  0  0  0
   34.4360   25.9520   30.2800 H   0  0  0  0  0  0  0  0  0  0  0  0
   34.1080   23.6080   30.3200 H   0  0  0  0  0  0  0  0  0  0  0  0
   35.6010   21.7620   31.6630 N   0  0  0  0  0  0  0  0  0  0  0  0
   36.3170   20.7670   30.8420 C   0  0  0  0  0  2  0  0  0  0  0  0
   36.8120   19.7580   31.8740 C   0  0  0  0  0  2  0  0  0  0  0  0
   35.7240   19.8160   32.9580 C   0  0  0  0  0  2  0  0  0  0  0  0
   34.7560   20.8050   32.3330 C   0  0  0  0  0  3  0  0  0  0  0  0
   34.0220   21.1860   33.0230 H   0  0  0  0  0  0  0  0  0  0  0  0
  1  6  1  6  0  0  0
  1  2  1  0  0  0  0
  2  7  1  1  0  0  0
  2 14  1  0  0  0  0
  3  9  1  0  0  0  0
  3  2  1  0  0  0  0
  3  8  1  0  0  0  0
  4  3  1  0  0  0  0
  5 11  1  0  0  0  0
  5  1  1  0  0  0  0
  5  4  1  0  0  0  0
 10  5  1  0  0  0  0
 12 17  1  0  0  0  0
 12 18  1  0  0  0  0
 13 12  2  0  0  0  0
 14 15  2  0  0  0  0
 14 13  1  0  0  0  0
 15 16  1  0  0  0  0
 16 20  1  0  0  0  0
 16 17  2  0  0  0  0
 19 13  1  0  0  0  0
 21  1  1  0  0  0  0
 23 24  1  0  0  0  0
 23 22  1  0  0  0  0
 24 21  1  0  0  0  0
 25 24  2  0  0  0  0
 26 27  2  0  0  0  0
 26 25  1  0  0  0  0
 27 28  1  0  0  0  0
 28 32  1  0  0  0  0
 28 23  2  0  0  0  0
 29 25  1  0  0  0  0
 30 26  1  0  0  0  0
 31 27  1  0  0  0  0
 32 36  1  0  0  0  0
 33 32  1  0  0  0  0
 33 34  1  0  0  0  0
 34 35  1  0  0  0  0
 36 35  1  0  0  0  0
 36 37  1  0  0  0  0
M  END
>  <minimizedAffinity>
-5.5085907

$$$$

 OpenBabel03272501093D

 37 40  0  0  1  0  0  0  0  0999 V2000
   39.0740   24.4840   35.7760 C   0  0  2  0  0  0  0  0  0  0  0  0
   39.3840   23.1590   36.5530 C   0  0  2  0  0  0  0  0  0  0  0  0
   38.8100   23.4750   37.8510 C   0  0  0  0  0  0  0  0  0  0  0  0
   37.6600   24.2250   37.6480 O   0  0  0  0  0  0  0  0  0  0  0  0
   37.6460   24.6590   36.3620 C   0  0  0  0  0  0  0  0  0  0  0  0
   39.6560   25.3170   36.1640 H   0  0  0  0  0  0  0  0  0  0  0  0
   38.7620   22.4160   36.0100 H   0  0  0  0  0  0  0  0  0  0  0  0
   38.4560   22.5160   38.3280 H   0  0  0  0  0  0  0  0  0  0  0  0
   39.4250   24.0360   38.5540 H   0  0  0  0  0  0  0  0  0  0  0  0
   37.3350   25.7200   36.2550 H   0  0  0  0  0  0  0  0  0  0  0  0
   36.9400   24.0460   35.7440 H   0  0  0  0  0  0  0  0  0  0  0  0
   42.6130   21.2610   36.9090 C   0  0  0  0  0  0  0  0  0  0  0  0
   41.2240   21.5560   37.0140 C   0  0  0  0  0  0  0  0  0  0  0  0
   40.7760   22.7970   36.4720 C   0  0  0  0  0  0  0  0  0  0  0  0
   41.6900   23.6370   35.8830 N   0  0  0  0  0  0  0  0  0  0  0  0
   42.9840   23.3140   35.8090 C   0  0  0  0  0  0  0  0  0  0  0  0
   43.4590   22.1430   36.3120 N   0  0  0  0  0  0  0  0  0  0  0  0
   42.9100   20.3120   37.3320 H   0  0  0  0  0  0  0  0  0  0  0  0
   40.5520   20.8560   37.4880 H   0  0  0  0  0  0  0  0  0  0  0  0
   43.7520   23.9200   35.3650 H   0  0  0  0  0  0  0  0  0  0  0  0
   38.9770   24.2770   34.4430 O   0  0  0  0  0  0  0  0  0  0  0  0
   38.0720   21.3860   33.9250 Cl  0  0  0  0  0  0  0  0  0  0  0  0
   37.4320   22.8120   33.1250 C   0  0  0  0  0  0  0  0  0  0  0  0
   38.0120   23.9920   33.5460 C   0  0  0  0  0  0  0  0  0  0  0  0
   37.5110   25.1260   32.9280 C   0  0  0  0  0  0  0  0  0  0  0  0
   36.5170   25.0720   31.9750 C   0  0  0  0  0  0  0  0  0  0  0  0
   35.9880   23.8450   31.6080 C   0  0  0  0  0  0  0  0  0  0  0  0
   36.4410   22.6890   32.1830 C   0  0  0  0  0  0  0  0  0  0  0  0
   37.8670   26.1330   33.1520 H   0  0  0  0  0  0  0  0  0  0  0  0
   36.1460   25.9980   31.5070 H   0  0  0  0  0  0  0  0  0  0  0  0
   35.2070   23.9270   30.8500 H   0  0  0  0  0  0  0  0  0  0  0  0
   35.8580   21.4530   31.7950 N   0  0  0  0  0  0  0  0  0  0  0  0
   36.3750   20.5560   30.7440 C   0  0  0  0  0  2  0  0  0  0  0  0
   36.4620   19.2060   31.4520 C   0  0  0  0  0  2  0  0  0  0  0  0
   35.3090   19.2790   32.4670 C   0  0  0  0  0  2  0  0  0  0  0  0
   34.7180   20.6340   32.1250 C   0  0  0  0  0  3  0  0  0  0  0  0
   34.0360   21.0090   32.8700 H   0  0  0  0  0  0  0  0  0  0  0  0
  1  6  1  1  0  0  0
  1  5  1  0  0  0  0
  1  2  1  0  0  0  0
  2  7  1  6  0  0  0
  2  3  1  0  0  0  0
  3  8  1  0  0  0  0
  3  9  1  0  0  0  0
  4  3  1  0  0  0  0
  5  4  1  0  0  0  0
 10  5  1  0  0  0  0
 11  5  1  0  0  0  0
 12 13  1  0  0  0  0
 12 18  1  0  0  0  0
 13 19  1  0  0  0  0
 14  2  1  0  0  0  0
 14 13  2  0  0  0  0
 15 14  1  0  0  0  0
 16 15  2  0  0  0  0
 16 17  1  0  0  0  0
 17 12  2  0  0  0  0
 20 16  1  0  0  0  0
 21  1  1  0  0  0  0
 23 24  1  0  0  0  0
 23 22  1  0  0  0  0
 24 21  1  0  0  0  0
 25 29  1  0  0  0  0
 25 24  2  0  0  0  0
 26 25  1  0  0  0  0
 27 26  2  0  0  0  0
 27 28  1  0  0  0  0
 28 23  2  0  0  0  0
 30 26  1  0  0  0  0
 31 27  1  0  0  0  0
 32 36  1  0  0  0  0
 32 28  1  0  0  0  0
 33 34  1  0  0  0  0
 33 32  1  0  0  0  0
 34 35  1  0  0  0  0
 36 35  1  0  0  0  0
 36 37  1  0  0  0  0
M  END
>  <minimizedAffinity>
-5.43335724

$$$$

 OpenBabel03272501093D

 37 40  0  0  1  0  0  0  0  0999 V2000
   38.8830   26.2520   33.9570 C   0  0  2  0  0  0  0  0  0  0  0  0
   38.3520   25.6020   35.2800 C   0  0  2  0  0  0  0  0  0  0  0  0
   38.1730   26.7870   36.1040 C   0  0  0  0  0  0  0  0  0  0  0  0
   37.7230   27.8180   35.2900 O   0  0  0  0  0  0  0  0  0  0  0  0
   37.9050   27.4600   33.9940 C   0  0  0  0  0  0  0  0  0  0  0  0
   39.8760   26.6730   34.0930 H   0  0  0  0  0  0  0  0  0  0  0  0
   37.3740   25.1830   34.9620 H   0  0  0  0  0  0  0  0  0  0  0  0
   37.3310   26.5940   36.8280 H   0  0  0  0  0  0  0  0  0  0  0  0
   39.0430   27.1710   36.6350 H   0  0  0  0  0  0  0  0  0  0  0  0
   38.3100   28.2770   33.3600 H   0  0  0  0  0  0  0  0  0  0  0  0
   36.9370   27.1350   33.5320 H   0  0  0  0  0  0  0  0  0  0  0  0
   39.6650   22.6350   37.1860 C   0  0  0  0  0  0  0  0  0  0  0  0
   38.7620   23.6490   36.7600 C   0  0  0  0  0  0  0  0  0  0  0  0
   39.2150   24.5480   35.7490 C   0  0  0  0  0  0  0  0  0  0  0  0
   40.4820   24.3950   35.2400 N   0  0  0  0  0  0  0  0  0  0  0  0
   41.2930   23.4250   35.6730 C   0  0  0  0  0  0  0  0  0  0  0  0
   40.9060   22.5460   36.6350 N   0  0  0  0  0  0  0  0  0  0  0  0
   39.2830   21.9770   37.9530 H   0  0  0  0  0  0  0  0  0  0  0  0
   37.7770   23.7210   37.1970 H   0  0  0  0  0  0  0  0  0  0  0  0
   42.2930   23.2480   35.3210 H   0  0  0  0  0  0  0  0  0  0  0  0
   38.6010   25.4940   32.8730 O   0  0  0  0  0  0  0  0  0  0  0  0
   38.3180   22.4380   33.0490 Cl  0  0  0  0  0  0  0  0  0  0  0  0
   37.1670   23.5250   32.2910 C   0  0  0  0  0  0  0  0  0  0  0  0
   37.5330   24.8550   32.3540 C   0  0  0  0  0  0  0  0  0  0  0  0
   36.6300   25.7240   31.7650 C   0  0  0  0  0  0  0  0  0  0  0  0
   35.4650   25.2910   31.1700 C   0  0  0  0  0  0  0  0  0  0  0  0
   35.1710   23.9370   31.1490 C   0  0  0  0  0  0  0  0  0  0  0  0
   36.0250   23.0280   31.7140 C   0  0  0  0  0  0  0  0  0  0  0  0
   36.7770   26.8050   31.7340 H   0  0  0  0  0  0  0  0  0  0  0  0
   34.7730   26.0150   30.7130 H   0  0  0  0  0  0  0  0  0  0  0  0
   34.2240   23.7140   30.6560 H   0  0  0  0  0  0  0  0  0  0  0  0
   35.6770   21.6510   31.6910 N   0  0  0  0  0  0  0  0  0  0  0  0
   36.2610   20.6360   30.7930 C   0  0  0  0  0  2  0  0  0  0  0  0
   36.7000   19.5350   31.7540 C   0  0  0  0  0  2  0  0  0  0  0  0
   35.6670   19.6390   32.8870 C   0  0  0  0  0  2  0  0  0  0  0  0
   34.7730   20.7430   32.3520 C   0  0  0  0  0  3  0  0  0  0  0  0
   34.1060   21.1560   33.0920 H   0  0  0  0  0  0  0  0  0  0  0  0
  1  5  1  0  0  0  0
  1  6  1  1  0  0  0
  1  2  1  0  0  0  0
  2  7  1  6  0  0  0
  2 14  1  0  0  0  0
  2  3  1  0  0  0  0
  3  9  1  0  0  0  0
  3  8  1  0  0  0  0
  4  3  1  0  0  0  0
  5  4  1  0  0  0  0
 10  5  1  0  0  0  0
 11  5  1  0  0  0  0
 12 18  1  0  0  0  0
 13 12  1  0  0  0  0
 13 19  1  0  0  0  0
 14 13  2  0  0  0  0
 15 16  2  0  0  0  0
 15 14  1  0  0  0  0
 16 17  1  0  0  0  0
 17 12  2  0  0  0  0
 20 16  1  0  0  0  0
 21  1  1  0  0  0  0
 23 24  1  0  0  0  0
 23 22  1  0  0  0  0
 24 21  1  0  0  0  0
 25 24  2  0  0  0  0
 26 25  1  0  0  0  0
 27 26  2  0  0  0  0
 27 28  1  0  0  0  0
 28 23  2  0  0  0  0
 29 25  1  0  0  0  0
 30 26  1  0  0  0  0
 31 27  1  0  0  0  0
 32 28  1  0  0  0  0
 32 36  1  0  0  0  0
 33 32  1  0  0  0  0
 33 34  1  0  0  0  0
 34 35  1  0  0  0  0
 36 35  1  0  0  0  0
 36 37  1  0  0  0  0
M  END
>  <minimizedAffinity>
-5.41515112

$$$$

 OpenBabel03272501093D

 37 40  0  0  1  0  0  0  0  0999 V2000
   39.2720   25.9710   33.0610 C   0  0  2  0  0  0  0  0  0  0  0  0
   39.3400   26.0980   34.6200 C   0  0  2  0  0  0  0  0  0  0  0  0
   40.7550   26.3840   34.8000 C   0  0  0  0  0  0  0  0  0  0  0  0
   41.1730   27.1890   33.7500 O   0  0  0  0  0  0  0  0  0  0  0  0
   40.2220   27.1680   32.7810 C   0  0  0  0  0  0  0  0  0  0  0  0
   39.8000   25.0880   32.7110 H   0  0  0  0  0  0  0  0  0  0  0  0
   38.7220   27.0000   34.8120 H   0  0  0  0  0  0  0  0  0  0  0  0
   40.8760   27.0180   35.7240 H   0  0  0  0  0  0  0  0  0  0  0  0
   41.4420   25.5390   34.8330 H   0  0  0  0  0  0  0  0  0  0  0  0
   40.6360   27.0750   31.7550 H   0  0  0  0  0  0  0  0  0  0  0  0
   39.6110   28.1080   32.8040 H   0  0  0  0  0  0  0  0  0  0  0  0
   37.5820   23.9370   37.1490 C   0  0  0  0  0  0  0  0  0  0  0  0
   38.1190   25.1070   36.5440 C   0  0  0  0  0  0  0  0  0  0  0  0
   38.7680   24.9540   35.2820 C   0  0  0  0  0  0  0  0  0  0  0  0
   38.8430   23.7030   34.7190 N   0  0  0  0  0  0  0  0  0  0  0  0
   38.3220   22.6340   35.3280 C   0  0  0  0  0  0  0  0  0  0  0  0
   37.6950   22.7300   36.5310 N   0  0  0  0  0  0  0  0  0  0  0  0
   37.1000   24.0970   38.1030 H   0  0  0  0  0  0  0  0  0  0  0  0
   38.0300   26.0660   37.0340 H   0  0  0  0  0  0  0  0  0  0  0  0
   38.3440   21.6280   34.9470 H   0  0  0  0  0  0  0  0  0  0  0  0
   38.0420   26.2680   32.5830 O   0  0  0  0  0  0  0  0  0  0  0  0
   36.6780   28.1080   34.6330 Cl  0  0  0  0  0  0  0  0  0  0  0  0
   36.6670   28.3390   32.8920 C   0  0  0  0  0  0  0  0  0  0  0  0
   37.3600   27.3670   32.1990 C   0  0  0  0  0  0  0  0  0  0  0  0
   37.3650   27.5400   30.8240 C   0  0  0  0  0  0  0  0  0  0  0  0
   36.7290   28.5960   30.2090 C   0  0  0  0  0  0  0  0  0  0  0  0
   36.0540   29.5290   30.9790 C   0  0  0  0  0  0  0  0  0  0  0  0
   36.0130   29.4130   32.3420 C   0  0  0  0  0  0  0  0  0  0  0  0
   37.8700   26.8560   30.1400 H   0  0  0  0  0  0  0  0  0  0  0  0
   36.7570   28.6980   29.1130 H   0  0  0  0  0  0  0  0  0  0  0  0
   35.5940   30.3210   30.3840 H   0  0  0  0  0  0  0  0  0  0  0  0
   35.3280   30.4020   33.0980 N   0  0  0  0  0  0  0  0  0  0  0  0
   33.8960   30.3710   33.4480 C   0  0  0  0  0  2  0  0  0  0  0  0
   33.9030   30.5800   34.9590 C   0  0  0  0  0  2  0  0  0  0  0  0
   35.1420   31.4640   35.1750 C   0  0  0  0  0  2  0  0  0  0  0  0
   35.5990   31.6640   33.7410 C   0  0  0  0  0  3  0  0  0  0  0  0
   36.5970   32.0610   33.6570 H   0  0  0  0  0  0  0  0  0  0  0  0
  1  6  1  6  0  0  0
  1  2  1  0  0  0  0
  2  3  1  0  0  0  0
  2  7  1  1  0  0  0
  2 14  1  0  0  0  0
  3  9  1  0  0  0  0
  3  8  1  0  0  0  0
  4  3  1  0  0  0  0
  5 11  1  0  0  0  0
  5  1  1  0  0  0  0
  5  4  1  0  0  0  0
 10  5  1  0  0  0  0
 12 18  1  0  0  0  0
 13 19  1  0  0  0  0
 13 12  1  0  0  0  0
 14 13  2  0  0  0  0
 15 14  1  0  0  0  0
 15 16  2  0  0  0  0
 16 17  1  0  0  0  0
 17 12  2  0  0  0  0
 20 16  1  0  0  0  0
 21  1  1  0  0  0  0
 23 22  1  0  0  0  0
 24 21  1  0  0  0  0
 24 23  2  0  0  0  0
 25 24  1  0  0  0  0
 26 25  2  0  0  0  0
 26 27  1  0  0  0  0
 27 28  2  0  0  0  0
 28 23  1  0  0  0  0
 28 32  1  0  0  0  0
 29 25  1  0  0  0  0
 30 26  1  0  0  0  0
 31 27  1  0  0  0  0
 32 33  1  0  0  0  0
 32 36  1  0  0  0  0
 33 34  1  0  0  0  0
 34 35  1  0  0  0  0
 36 35  1  0  0  0  0
 37 36  1  0  0  0  0
M  END
>  <minimizedAffinity>
-5.32088327

$$$$

 OpenBabel03272501093D

 37 40  0  0  1  0  0  0  0  0999 V2000
   36.7850   27.5370   34.2450 C   0  0  2  0  0  0  0  0  0  0  0  0
   36.9220   27.7590   32.7010 C   0  0  2  0  0  0  0  0  0  0  0  0
   35.6650   28.4350   32.4190 C   0  0  0  0  0  0  0  0  0  0  0  0
   35.3700   29.2680   33.4880 O   0  0  0  0  0  0  0  0  0  0  0  0
   36.1700   28.9350   34.5330 C   0  0  0  0  0  0  0  0  0  0  0  0
   36.0020   26.8180   34.4750 H   0  0  0  0  0  0  0  0  0  0  0  0
   37.7780   28.4630   32.6380 H   0  0  0  0  0  0  0  0  0  0  0  0
   35.8200   29.1240   31.5410 H   0  0  0  0  0  0  0  0  0  0  0  0
   34.7830   27.8160   32.2570 H   0  0  0  0  0  0  0  0  0  0  0  0
   35.6380   28.9070   35.5070 H   0  0  0  0  0  0  0  0  0  0  0  0
   37.0110   29.6680   34.6390 H   0  0  0  0  0  0  0  0  0  0  0  0
   38.5980   25.2460   30.4570 C   0  0  0  0  0  0  0  0  0  0  0  0
   38.3510   26.4800   31.1210 C   0  0  0  0  0  0  0  0  0  0  0  0
   37.2320   26.5370   32.0040 C   0  0  0  0  0  0  0  0  0  0  0  0
   36.4550   25.4150   32.1690 N   0  0  0  0  0  0  0  0  0  0  0  0
   36.7290   24.2780   31.5220 C   0  0  0  0  0  0  0  0  0  0  0  0
   37.7840   24.1760   30.6710 N   0  0  0  0  0  0  0  0  0  0  0  0
   39.4540   25.2470   29.7980 H   0  0  0  0  0  0  0  0  0  0  0  0
   38.9960   27.3300   30.9520 H   0  0  0  0  0  0  0  0  0  0  0  0
   36.1670   23.3660   31.6030 H   0  0  0  0  0  0  0  0  0  0  0  0
   37.9900   27.4570   34.8540 O   0  0  0  0  0  0  0  0  0  0  0  0
   37.6650   24.6440   36.0480 Cl  0  0  0  0  0  0  0  0  0  0  0  0
   39.1510   25.3020   35.3850 C   0  0  0  0  0  0  0  0  0  0  0  0
   39.0230   26.5920   34.9090 C   0  0  0  0  0  0  0  0  0  0  0  0
   40.1870   27.1210   34.3760 C   0  0  0  0  0  0  0  0  0  0  0  0
   41.3690   26.4140   34.3280 C   0  0  0  0  0  0  0  0  0  0  0  0
   41.4120   25.1220   34.8290 C   0  0  0  0  0  0  0  0  0  0  0  0
   40.2950   24.5440   35.3680 C   0  0  0  0  0  0  0  0  0  0  0  0
   40.2470   28.1280   33.9600 H   0  0  0  0  0  0  0  0  0  0  0  0
   42.2720   26.8710   33.8960 H   0  0  0  0  0  0  0  0  0  0  0  0
   42.3970   24.6610   34.7340 H   0  0  0  0  0  0  0  0  0  0  0  0
   40.3760   23.2110   35.8520 N   0  0  0  0  0  0  0  0  0  0  0  0
   40.9630   22.0700   35.1220 C   0  0  0  0  0  2  0  0  0  0  0  0
   41.9520   21.4880   36.1280 C   0  0  0  0  0  2  0  0  0  0  0  0
   41.2860   21.7950   37.4790 C   0  0  0  0  0  2  0  0  0  0  0  0
   39.9960   22.4480   37.0150 C   0  0  0  0  0  3  0  0  0  0  0  0
   39.4670   22.9650   37.7980 H   0  0  0  0  0  0  0  0  0  0  0  0
  1  6  1  1  0  0  0
  1  5  1  0  0  0  0
  1 21  1  0  0  0  0
  2  7  1  6  0  0  0
  2  1  1  0  0  0  0
  3  2  1  0  0  0  0
  3  4  1  0  0  0  0
  4  5  1  0  0  0  0
  5 11  1  0  0  0  0
  5 10  1  0  0  0  0
  8  3  1  0  0  0  0
  9  3  1  0  0  0  0
 12 17  2  0  0  0  0
 12 13  1  0  0  0  0
 13 14  2  0  0  0  0
 14 15  1  0  0  0  0
 14  2  1  0  0  0  0
 16 20  1  0  0  0  0
 16 15  2  0  0  0  0
 17 16  1  0  0  0  0
 18 12  1  0  0  0  0
 19 13  1  0  0  0  0
 21 24  1  0  0  0  0
 23 22  1  0  0  0  0
 24 23  2  0  0  0  0
 25 24  1  0  0  0  0
 26 25  2  0  0  0  0
 26 27  1  0  0  0  0
 27 28  2  0  0  0  0
 28 23  1  0  0  0  0
 28 32  1  0  0  0  0
 29 25  1  0  0  0  0
 30 26  1  0  0  0  0
 31 27  1  0  0  0  0
 32 36  1  0  0  0  0
 33 32  1  0  0  0  0
 33 34  1  0  0  0  0
 34 35  1  0  0  0  0
 36 35  1  0  0  0  0
 36 37  1  0  0  0  0
M  END
>  <minimizedAffinity>
-5.28492546

$$$$

 OpenBabel03272501093D

 37 40  0  0  1  0  0  0  0  0999 V2000
   35.9830   29.3300   33.1130 C   0  0  2  0  0  0  0  0  0  0  0  0
   34.5900   30.0260   33.2760 C   0  0  2  0  0  0  0  0  0  0  0  0
   34.5690   30.8590   32.0840 C   0  0  0  0  0  0  0  0  0  0  0  0
   35.1810   30.1600   31.0540 O   0  0  0  0  0  0  0  0  0  0  0  0
   35.8470   29.1010   31.5820 C   0  0  0  0  0  0  0  0  0  0  0  0
   36.7980   30.0400   33.2330 H   0  0  0  0  0  0  0  0  0  0  0  0
   33.8860   29.1720   33.1790 H   0  0  0  0  0  0  0  0  0  0  0  0
   33.4990   30.9900   31.7580 H   0  0  0  0  0  0  0  0  0  0  0  0
   35.0650   31.8290   32.1350 H   0  0  0  0  0  0  0  0  0  0  0  0
   36.8560   28.9490   31.1440 H   0  0  0  0  0  0  0  0  0  0  0  0
   35.2730   28.1520   31.4240 H   0  0  0  0  0  0  0  0  0  0  0  0
   35.3450   31.8860   36.4580 C   0  0  0  0  0  0  0  0  0  0  0  0
   35.5540   31.3000   35.1790 C   0  0  0  0  0  0  0  0  0  0  0  0
   34.4420   30.6470   34.5670 C   0  0  0  0  0  0  0  0  0  0  0  0
   33.2400   30.6150   35.2320 N   0  0  0  0  0  0  0  0  0  0  0  0
   33.0940   31.1810   36.4330 C   0  0  0  0  0  0  0  0  0  0  0  0
   34.1250   31.8130   37.0560 N   0  0  0  0  0  0  0  0  0  0  0  0
   36.2120   32.3690   36.8860 H   0  0  0  0  0  0  0  0  0  0  0  0
   36.5220   31.3560   34.7040 H   0  0  0  0  0  0  0  0  0  0  0  0
   32.1860   31.1930   37.0090 H   0  0  0  0  0  0  0  0  0  0  0  0
   36.0240   28.1290   33.7320 O   0  0  0  0  0  0  0  0  0  0  0  0
   36.5180   25.4250   32.3570 Cl  0  0  0  0  0  0  0  0  0  0  0  0
   37.3770   26.0210   33.7660 C   0  0  0  0  0  0  0  0  0  0  0  0
   36.9620   27.2710   34.1830 C   0  0  0  0  0  0  0  0  0  0  0  0
   37.6370   27.7570   35.2900 C   0  0  0  0  0  0  0  0  0  0  0  0
   38.6370   27.0470   35.9180 C   0  0  0  0  0  0  0  0  0  0  0  0
   38.9940   25.7970   35.4370 C   0  0  0  0  0  0  0  0  0  0  0  0
   38.3640   25.2630   34.3450 C   0  0  0  0  0  0  0  0  0  0  0  0
   37.4240   28.7290   35.7380 H   0  0  0  0  0  0  0  0  0  0  0  0
   39.1500   27.4690   36.7970 H   0  0  0  0  0  0  0  0  0  0  0  0
   39.7980   25.3330   36.0100 H   0  0  0  0  0  0  0  0  0  0  0  0
   38.7730   23.9890   33.8700 N   0  0  0  0  0  0  0  0  0  0  0  0
   38.3480   22.6910   34.4270 C   0  0  0  0  0  2  0  0  0  0  0  0
   37.8470   21.9340   33.2000 C   0  0  0  0  0  2  0  0  0  0  0  0
   38.7300   22.4900   32.0720 C   0  0  0  0  0  2  0  0  0  0  0  0
   39.6320   23.4270   32.8570 C   0  0  0  0  0  3  0  0  0  0  0  0
   40.1850   24.1140   32.2370 H   0  0  0  0  0  0  0  0  0  0  0  0
  1  6  1  1  0  0  0
  1  2  1  0  0  0  0
  1 21  1  0  0  0  0
  2  7  1  6  0  0  0
  2 14  1  0  0  0  0
  3  9  1  0  0  0  0
  3  2  1  0  0  0  0
  4  5  1  0  0  0  0
  4  3  1  0  0  0  0
  5  1  1  0  0  0  0
  8  3  1  0  0  0  0
 10  5  1  0  0  0  0
 11  5  1  0  0  0  0
 12 18  1  0  0  0  0
 12 17  1  0  0  0  0
 13 12  2  0  0  0  0
 14 13  1  0  0  0  0
 14 15  2  0  0  0  0
 15 16  1  0  0  0  0
 16 20  1  0  0  0  0
 16 17  2  0  0  0  0
 19 13  1  0  0  0  0
 21 24  1  0  0  0  0
 22 23  1  0  0  0  0
 23 24  2  0  0  0  0
 23 28  1  0  0  0  0
 24 25  1  0  0  0  0
 25 29  1  0  0  0  0
 25 26  2  0  0  0  0
 26 30  1  0  0  0  0
 27 26  1  0  0  0  0
 27 31  1  0  0  0  0
 28 27  2  0  0  0  0
 32 28  1  0  0  0  0
 32 33  1  0  0  0  0
 34 33  1  0  0  0  0
 35 36  1  0  0  0  0
 35 34  1  0  0  0  0
 36 32  1  0  0  0  0
 37 36  1  0  0  0  0
M  END
>  <minimizedAffinity>
-5.26741028

$$$$

 OpenBabel03272501093D

 37 40  0  0  1  0  0  0  0  0999 V2000
   35.9750   26.5660   31.8630 C   0  0  2  0  0  0  0  0  0  0  0  0
   37.2300   25.6550   32.0870 C   0  0  2  0  0  0  0  0  0  0  0  0
   36.6030   24.3430   32.1030 C   0  0  0  0  0  0  0  0  0  0  0  0
   35.5670   24.3440   31.1800 O   0  0  0  0  0  0  0  0  0  0  0  0
   35.3040   25.6270   30.8230 C   0  0  0  0  0  0  0  0  0  0  0  0
   35.3210   26.5610   32.7310 H   0  0  0  0  0  0  0  0  0  0  0  0
   37.8060   25.8120   31.1500 H   0  0  0  0  0  0  0  0  0  0  0  0
   37.3440   23.5880   31.7140 H   0  0  0  0  0  0  0  0  0  0  0  0
   36.1770   23.9970   33.0440 H   0  0  0  0  0  0  0  0  0  0  0  0
   34.2200   25.8590   30.7670 H   0  0  0  0  0  0  0  0  0  0  0  0
   35.7410   25.8560   29.8160 H   0  0  0  0  0  0  0  0  0  0  0  0
   40.0000   27.0770   34.1990 C   0  0  0  0  0  0  0  0  0  0  0  0
   39.2780   26.6940   33.0330 C   0  0  0  0  0  0  0  0  0  0  0  0
   38.0070   26.0740   33.2240 C   0  0  0  0  0  0  0  0  0  0  0  0
   37.5470   25.8780   34.5040 N   0  0  0  0  0  0  0  0  0  0  0  0
   38.2630   26.2560   35.5660 C   0  0  0  0  0  0  0  0  0  0  0  0
   39.4790   26.8500   35.4350 N   0  0  0  0  0  0  0  0  0  0  0  0
   40.9570   27.5430   34.0090 H   0  0  0  0  0  0  0  0  0  0  0  0
   39.6910   26.8740   32.0520 H   0  0  0  0  0  0  0  0  0  0  0  0
   37.9660   26.1330   36.5920 H   0  0  0  0  0  0  0  0  0  0  0  0
   36.2980   27.7310   31.2550 O   0  0  0  0  0  0  0  0  0  0  0  0
   35.6010   28.7840   34.0570 Cl  0  0  0  0  0  0  0  0  0  0  0  0
   35.8720   29.7770   32.6350 C   0  0  0  0  0  0  0  0  0  0  0  0
   36.1740   29.0510   31.5000 C   0  0  0  0  0  0  0  0  0  0  0  0
   36.3960   29.8230   30.3710 C   0  0  0  0  0  0  0  0  0  0  0  0
   36.3210   31.1980   30.3880 C   0  0  0  0  0  0  0  0  0  0  0  0
   36.0110   31.8510   31.5700 C   0  0  0  0  0  0  0  0  0  0  0  0
   35.7800   31.1440   32.7190 C   0  0  0  0  0  0  0  0  0  0  0  0
   36.6450   29.3960   29.3980 H   0  0  0  0  0  0  0  0  0  0  0  0
   36.5040   31.7750   29.4680 H   0  0  0  0  0  0  0  0  0  0  0  0
   35.9830   32.9370   31.4630 H   0  0  0  0  0  0  0  0  0  0  0  0
   35.4860   31.8520   33.9150 N   0  0  0  0  0  0  0  0  0  0  0  0
   34.1350   32.2170   34.3830 C   0  0  0  0  0  2  0  0  0  0  0  0
   34.1080   31.6850   35.8130 C   0  0  0  0  0  2  0  0  0  0  0  0
   35.5750   31.8170   36.2540 C   0  0  0  0  0  2  0  0  0  0  0  0
   36.1830   32.4610   35.0210 C   0  0  0  0  0  3  0  0  0  0  0  0
   37.2600   32.4340   35.0060 H   0  0  0  0  0  0  0  0  0  0  0  0
  1  2  1  0  0  0  0
  1  6  1  1  0  0  0
  2  7  1  6  0  0  0
  2  3  1  0  0  0  0
  2 14  1  0  0  0  0
  3  9  1  0  0  0  0
  4  3  1  0  0  0  0
  5  4  1  0  0  0  0
  5  1  1  0  0  0  0
  8  3  1  0  0  0  0
 10  5  1  0  0  0  0
 11  5  1  0  0  0  0
 12 17  1  0  0  0  0
 13 14  1  0  0  0  0
 13 12  2  0  0  0  0
 14 15  2  0  0  0  0
 15 16  1  0  0  0  0
 16 20  1  0  0  0  0
 17 16  2  0  0  0  0
 18 12  1  0  0  0  0
 19 13  1  0  0  0  0
 21 24  1  0  0  0  0
 21  1  1  0  0  0  0
 23 28  1  0  0  0  0
 23 22  1  0  0  0  0
 24 23  2  0  0  0  0
 25 26  2  0  0  0  0
 25 24  1  0  0  0  0
 26 27  1  0  0  0  0
 27 28  2  0  0  0  0
 28 32  1  0  0  0  0
 29 25  1  0  0  0  0
 30 26  1  0  0  0  0
 31 27  1  0  0  0  0
 32 33  1  0  0  0  0
 32 36  1  0  0  0  0
 33 34  1  0  0  0  0
 34 35  1  0  0  0  0
 36 35  1  0  0  0  0
 37 36  1  0  0  0  0
M  END
>  <minimizedAffinity>
-5.24109221

$$$$
