
 OpenBabel03272508133D

 31 33  0  0  0  0  0  0  0  0999 V2000
   38.1080   22.9150   33.4030 Cl  0  0  0  0  0  0  0  0  0  0  0  0
   37.0450   24.0050   32.4780 C   0  0  0  0  0  0  0  0  0  0  0  0
   37.1580   25.3970   32.4940 C   0  0  0  0  0  0  0  0  0  0  0  0
   36.2640   26.1200   31.7250 C   0  0  0  0  0  0  0  0  0  0  0  0
   35.3050   25.4890   30.9770 C   0  0  0  0  0  0  0  0  0  0  0  0
   35.1800   24.1200   30.9500 C   0  0  0  0  0  0  0  0  0  0  0  0
   36.0600   23.3850   31.7080 C   0  0  0  0  0  0  0  0  0  0  0  0
   36.4150   27.1840   31.7920 H   0  0  0  0  0  0  0  0  0  0  0  0
   34.6730   26.1740   30.4240 H   0  0  0  0  0  0  0  0  0  0  0  0
   34.4070   23.6710   30.3430 H   0  0  0  0  0  0  0  0  0  0  0  0
   35.8940   21.9710   31.6490 N   0  0  0  0  0  0  0  0  0  0  0  0
   34.9810   21.1470   32.4300 C   0  0  0  0  0  2  0  0  0  0  0  0
   35.5360   19.7300   32.3100 C   0  0  0  0  0  2  0  0  0  0  0  0
   36.1150   19.7450   30.8920 C   0  0  0  0  0  2  0  0  0  0  0  0
   36.6600   21.1280   30.7520 C   0  0  0  0  0  3  0  0  0  0  0  0
   36.6340   21.5090   29.7060 H   0  0  0  0  0  0  0  0  0  0  0  0
   38.1700   25.8160   33.2970 O   0  0  0  0  0  0  0  0  0  0  0  0
   39.4290   27.1560   35.1190 O   0  0  0  0  0  0  0  0  0  0  0  0
   38.0940   26.5780   34.7940 P   0  0  1  0  0  0  0  0  0  0  0  0
   36.9520   27.8300   34.5960 O   0  0  0  0  0  0  0  0  0  0  0  0
   37.3150   28.5260   33.9940 H   0  0  0  0  0  0  0  0  0  0  0  0
   37.5340   25.4830   35.9570 O   0  0  0  0  0  0  0  0  0  0  0  0
   38.8220   23.3250   38.6600 C   0  0  0  0  0  0  0  0  0  0  0  0
   37.9750   24.2610   38.0540 C   0  0  0  0  0  0  0  0  0  0  0  0
   38.2230   24.6080   36.7230 C   0  0  0  0  0  0  0  0  0  0  0  0
   39.2750   24.0160   36.0910 N   0  0  0  0  0  0  0  0  0  0  0  0
   40.0620   23.1230   36.7080 C   0  0  0  0  0  0  0  0  0  0  0  0
   39.8410   22.7770   37.9820 N   0  0  0  0  0  0  0  0  0  0  0  0
   38.6000   23.0810   39.6900 H   0  0  0  0  0  0  0  0  0  0  0  0
   37.1330   24.7560   38.5100 H   0  0  0  0  0  0  0  0  0  0  0  0
   40.8990   22.6520   36.2050 H   0  0  0  0  0  0  0  0  0  0  0  0
  2  3  1  0  0  0  0
  2  1  1  0  0  0  0
  3 17  1  0  0  0  0
  4  8  1  0  0  0  0
  4  3  2  0  0  0  0
  5  4  1  0  0  0  0
  6  5  2  0  0  0  0
  6  7  1  0  0  0  0
  7  2  2  0  0  0  0
  9  5  1  0  0  0  0
 10  6  1  0  0  0  0
 11  7  1  0  0  0  0
 11 12  1  0  0  0  0
 13 12  1  0  0  0  0
 14 13  1  0  0  0  0
 15 14  1  0  0  0  0
 15 11  1  0  0  0  0
 16 15  1  0  0  0  0
 17 19  1  0  0  0  0
 19 18  2  1  0  0  0
 19 22  1  0  0  0  0
 20 19  1  0  0  0  0
 21 20  1  0  0  0  0
 22 25  1  0  0  0  0
 23 29  1  0  0  0  0
 24 30  1  0  0  0  0
 24 23  1  0  0  0  0
 25 24  2  0  0  0  0
 26 27  2  0  0  0  0
 26 25  1  0  0  0  0
 27 28  1  0  0  0  0
 28 23  2  0  0  0  0
 31 27  1  0  0  0  0
M  END
>  <minimizedAffinity>
-5.68407965

$$$$

 OpenBabel03272508133D

 31 33  0  0  0  0  0  0  0  0999 V2000
   36.0120   30.5030   35.4800 Cl  0  0  0  0  0  0  0  0  0  0  0  0
   35.9810   29.7980   33.8460 C   0  0  0  0  0  0  0  0  0  0  0  0
   36.2430   28.4520   33.5760 C   0  0  0  0  0  0  0  0  0  0  0  0
   36.1840   28.0420   32.2560 C   0  0  0  0  0  0  0  0  0  0  0  0
   35.8790   28.9260   31.2540 C   0  0  0  0  0  0  0  0  0  0  0  0
   35.6180   30.2530   31.5030 C   0  0  0  0  0  0  0  0  0  0  0  0
   35.6730   30.6790   32.8080 C   0  0  0  0  0  0  0  0  0  0  0  0
   36.3980   26.9940   32.1310 H   0  0  0  0  0  0  0  0  0  0  0  0
   35.8670   28.4710   30.2700 H   0  0  0  0  0  0  0  0  0  0  0  0
   35.3820   30.9090   30.6770 H   0  0  0  0  0  0  0  0  0  0  0  0
   35.3960   32.0610   33.0180 N   0  0  0  0  0  0  0  0  0  0  0  0
   34.1070   32.6810   33.2950 C   0  0  0  0  0  2  0  0  0  0  0  0
   34.3080   34.1580   32.9700 C   0  0  0  0  0  2  0  0  0  0  0  0
   35.7720   34.3660   33.3710 C   0  0  0  0  0  2  0  0  0  0  0  0
   36.4260   33.0820   32.9800 C   0  0  0  0  0  3  0  0  0  0  0  0
   37.2940   32.8150   33.6240 H   0  0  0  0  0  0  0  0  0  0  0  0
   36.5230   27.7520   34.7050 O   0  0  0  0  0  0  0  0  0  0  0  0
   38.8190   26.8430   33.9270 O   0  0  0  0  0  0  0  0  0  0  0  0
   37.9180   26.9060   35.1140 P   0  0  1  0  0  0  0  0  0  0  0  0
   38.6490   27.8270   36.3500 O   0  0  0  0  0  0  0  0  0  0  0  0
   38.9880   28.6800   35.9800 H   0  0  0  0  0  0  0  0  0  0  0  0
   37.4970   25.3830   35.7200 O   0  0  0  0  0  0  0  0  0  0  0  0
   38.7970   23.3660   38.5240 C   0  0  0  0  0  0  0  0  0  0  0  0
   37.9430   24.2650   37.8730 C   0  0  0  0  0  0  0  0  0  0  0  0
   38.1920   24.5520   36.5270 C   0  0  0  0  0  0  0  0  0  0  0  0
   39.2520   23.9420   35.9270 N   0  0  0  0  0  0  0  0  0  0  0  0
   40.0460   23.0870   36.5870 C   0  0  0  0  0  0  0  0  0  0  0  0
   39.8240   22.7980   37.8750 N   0  0  0  0  0  0  0  0  0  0  0  0
   38.5730   23.1680   39.5640 H   0  0  0  0  0  0  0  0  0  0  0  0
   37.0940   24.7710   38.3020 H   0  0  0  0  0  0  0  0  0  0  0  0
   40.8900   22.6020   36.1090 H   0  0  0  0  0  0  0  0  0  0  0  0
  2  1  1  0  0  0  0
  3  2  1  0  0  0  0
  3 17  1  0  0  0  0
  4  3  2  0  0  0  0
  5  6  2  0  0  0  0
  5  4  1  0  0  0  0
  6  7  1  0  0  0  0
  7 11  1  0  0  0  0
  7  2  2  0  0  0  0
  8  4  1  0  0  0  0
  9  5  1  0  0  0  0
 10  6  1  0  0  0  0
 11 12  1  0  0  0  0
 13 12  1  0  0  0  0
 13 14  1  0  0  0  0
 15 11  1  0  0  0  0
 15 14  1  0  0  0  0
 15 16  1  0  0  0  0
 17 19  1  0  0  0  0
 19 18  2  6  0  0  0
 19 22  1  0  0  0  0
 19 20  1  0  0  0  0
 21 20  1  0  0  0  0
 22 25  1  0  0  0  0
 23 29  1  0  0  0  0
 24 30  1  0  0  0  0
 24 23  2  0  0  0  0
 25 24  1  0  0  0  0
 26 25  2  0  0  0  0
 26 27  1  0  0  0  0
 27 28  2  0  0  0  0
 28 23  1  0  0  0  0
 31 27  1  0  0  0  0
M  END
>  <minimizedAffinity>
-5.29286098

$$$$

 OpenBabel03272508133D

 31 33  0  0  0  0  0  0  0  0999 V2000
   38.8760   26.6160   32.2020 Cl  0  0  0  0  0  0  0  0  0  0  0  0
   37.4740   25.6130   31.7570 C   0  0  0  0  0  0  0  0  0  0  0  0
   37.4840   24.2160   31.7660 C   0  0  0  0  0  0  0  0  0  0  0  0
   36.3210   23.5650   31.3960 C   0  0  0  0  0  0  0  0  0  0  0  0
   35.2020   24.2690   31.0340 C   0  0  0  0  0  0  0  0  0  0  0  0
   35.1760   25.6440   31.0190 C   0  0  0  0  0  0  0  0  0  0  0  0
   36.3220   26.3080   31.3840 C   0  0  0  0  0  0  0  0  0  0  0  0
   36.4100   22.4930   31.4290 H   0  0  0  0  0  0  0  0  0  0  0  0
   34.3640   23.6350   30.7680 H   0  0  0  0  0  0  0  0  0  0  0  0
   34.2670   26.1520   30.7260 H   0  0  0  0  0  0  0  0  0  0  0  0
   36.2480   27.7300   31.3540 N   0  0  0  0  0  0  0  0  0  0  0  0
   35.7360   28.6190   32.3880 C   0  0  0  0  0  2  0  0  0  0  0  0
   35.4660   29.9380   31.6690 C   0  0  0  0  0  2  0  0  0  0  0  0
   36.5800   29.9500   30.6180 C   0  0  0  0  0  2  0  0  0  0  0  0
   36.7000   28.5150   30.2210 C   0  0  0  0  0  3  0  0  0  0  0  0
   37.7290   28.2300   29.9060 H   0  0  0  0  0  0  0  0  0  0  0  0
   38.6870   23.7190   32.1540 O   0  0  0  0  0  0  0  0  0  0  0  0
   39.0740   21.4450   33.3300 O   0  0  0  0  0  0  0  0  0  0  0  0
   39.0990   22.9160   33.5730 P   0  0  1  0  0  0  0  0  0  0  0  0
   40.6920   23.4190   33.9200 O   0  0  0  0  0  0  0  0  0  0  0  0
   41.3170   23.0490   33.2490 H   0  0  0  0  0  0  0  0  0  0  0  0
   38.0670   23.4090   34.8210 O   0  0  0  0  0  0  0  0  0  0  0  0
   37.9610   24.1320   38.4380 C   0  0  0  0  0  0  0  0  0  0  0  0
   37.5340   24.1720   37.1050 C   0  0  0  0  0  0  0  0  0  0  0  0
   38.2990   23.4970   36.1500 C   0  0  0  0  0  0  0  0  0  0  0  0
   39.4150   22.8380   36.5690 N   0  0  0  0  0  0  0  0  0  0  0  0
   39.7880   22.8240   37.8570 C   0  0  0  0  0  0  0  0  0  0  0  0
   39.0700   23.4650   38.7880 N   0  0  0  0  0  0  0  0  0  0  0  0
   37.3450   24.6660   39.1500 H   0  0  0  0  0  0  0  0  0  0  0  0
   36.6620   24.6780   36.7250 H   0  0  0  0  0  0  0  0  0  0  0  0
   40.6770   22.3000   38.1910 H   0  0  0  0  0  0  0  0  0  0  0  0
  2  3  1  0  0  0  0
  2  1  1  0  0  0  0
  3 17  1  0  0  0  0
  4  8  1  0  0  0  0
  4  3  2  0  0  0  0
  5  4  1  0  0  0  0
  6  5  2  0  0  0  0
  6  7  1  0  0  0  0
  7  2  2  0  0  0  0
  9  5  1  0  0  0  0
 10  6  1  0  0  0  0
 11  7  1  0  0  0  0
 11 12  1  0  0  0  0
 13 12  1  0  0  0  0
 14 13  1  0  0  0  0
 15 14  1  0  0  0  0
 15 11  1  0  0  0  0
 16 15  1  0  0  0  0
 17 19  1  0  0  0  0
 19 18  2  6  0  0  0
 19 20  1  0  0  0  0
 19 22  1  0  0  0  0
 21 20  1  0  0  0  0
 22 25  1  0  0  0  0
 23 28  1  0  0  0  0
 23 29  1  0  0  0  0
 24 23  2  0  0  0  0
 25 26  2  0  0  0  0
 25 24  1  0  0  0  0
 26 27  1  0  0  0  0
 27 31  1  0  0  0  0
 27 28  2  0  0  0  0
 30 24  1  0  0  0  0
M  END
>  <minimizedAffinity>
-5.27132177

$$$$

 OpenBabel03272508133D

 31 33  0  0  0  0  0  0  0  0999 V2000
   38.8770   23.3800   33.8660 Cl  0  0  0  0  0  0  0  0  0  0  0  0
   38.4810   25.0510   34.3370 C   0  0  0  0  0  0  0  0  0  0  0  0
   38.1700   26.0620   33.4250 C   0  0  0  0  0  0  0  0  0  0  0  0
   37.8820   27.3160   33.9330 C   0  0  0  0  0  0  0  0  0  0  0  0
   37.9020   27.5520   35.2830 C   0  0  0  0  0  0  0  0  0  0  0  0
   38.2060   26.5680   36.1940 C   0  0  0  0  0  0  0  0  0  0  0  0
   38.4950   25.3160   35.7080 C   0  0  0  0  0  0  0  0  0  0  0  0
   37.6540   28.0380   33.1680 H   0  0  0  0  0  0  0  0  0  0  0  0
   37.6570   28.5760   35.5420 H   0  0  0  0  0  0  0  0  0  0  0  0
   38.2080   26.8070   37.2490 H   0  0  0  0  0  0  0  0  0  0  0  0
   38.8040   24.3290   36.6870 N   0  0  0  0  0  0  0  0  0  0  0  0
   37.9640   23.8680   37.7850 C   0  0  0  0  0  2  0  0  0  0  0  0
   38.9280   23.1880   38.7530 C   0  0  0  0  0  2  0  0  0  0  0  0
   39.9610   22.5920   37.7930 C   0  0  0  0  0  2  0  0  0  0  0  0
   40.0690   23.6200   36.7150 C   0  0  0  0  0  3  0  0  0  0  0  0
   40.3210   23.1900   35.7200 H   0  0  0  0  0  0  0  0  0  0  0  0
   38.2070   25.6180   32.1420 O   0  0  0  0  0  0  0  0  0  0  0  0
   36.1010   26.2830   30.7910 O   0  0  0  0  0  0  0  0  0  0  0  0
   36.9440   25.1080   31.1560 P   0  0  1  0  0  0  0  0  0  0  0  0
   37.6970   24.4780   29.7610 O   0  0  0  0  0  0  0  0  0  0  0  0
   38.1200   25.2100   29.2460 H   0  0  0  0  0  0  0  0  0  0  0  0
   36.0800   23.8780   31.9340 O   0  0  0  0  0  0  0  0  0  0  0  0
   35.3360   20.2680   31.7510 C   0  0  0  0  0  0  0  0  0  0  0  0
   35.1130   21.6130   32.0700 C   0  0  0  0  0  0  0  0  0  0  0  0
   36.0960   22.5430   31.7220 C   0  0  0  0  0  0  0  0  0  0  0  0
   37.2160   22.0890   31.0930 N   0  0  0  0  0  0  0  0  0  0  0  0
   37.3910   20.7910   30.8060 C   0  0  0  0  0  0  0  0  0  0  0  0
   36.4620   19.8840   31.1300 N   0  0  0  0  0  0  0  0  0  0  0  0
   34.5540   19.5760   32.0350 H   0  0  0  0  0  0  0  0  0  0  0  0
   34.2470   22.0210   32.5640 H   0  0  0  0  0  0  0  0  0  0  0  0
   38.2830   20.4290   30.3060 H   0  0  0  0  0  0  0  0  0  0  0  0
  1  2  1  0  0  0  0
  2  7  1  0  0  0  0
  3  4  1  0  0  0  0
  3  2  2  0  0  0  0
  4  5  2  0  0  0  0
  5  9  1  0  0  0  0
  5  6  1  0  0  0  0
  6 10  1  0  0  0  0
  7  6  2  0  0  0  0
  7 11  1  0  0  0  0
  8  4  1  0  0  0  0
 11 15  1  0  0  0  0
 11 12  1  0  0  0  0
 12 13  1  0  0  0  0
 14 13  1  0  0  0  0
 15 14  1  0  0  0  0
 16 15  1  0  0  0  0
 17  3  1  0  0  0  0
 19 18  2  6  0  0  0
 19 22  1  0  0  0  0
 19 17  1  0  0  0  0
 20 19  1  0  0  0  0
 21 20  1  0  0  0  0
 23 29  1  0  0  0  0
 23 24  1  0  0  0  0
 24 30  1  0  0  0  0
 25 22  1  0  0  0  0
 25 24  2  0  0  0  0
 26 25  1  0  0  0  0
 27 26  2  0  0  0  0
 27 28  1  0  0  0  0
 28 23  2  0  0  0  0
 31 27  1  0  0  0  0
M  END
>  <minimizedAffinity>
-5.25777721

$$$$

 OpenBabel03272508133D

 31 33  0  0  0  0  0  0  0  0999 V2000
   34.4020   29.4070   34.2550 Cl  0  0  0  0  0  0  0  0  0  0  0  0
   35.3340   30.4150   33.1210 C   0  0  0  0  0  0  0  0  0  0  0  0
   35.8030   29.9620   31.8850 C   0  0  0  0  0  0  0  0  0  0  0  0
   36.5140   30.8560   31.1050 C   0  0  0  0  0  0  0  0  0  0  0  0
   36.7460   32.1370   31.5320 C   0  0  0  0  0  0  0  0  0  0  0  0
   36.2910   32.5980   32.7440 C   0  0  0  0  0  0  0  0  0  0  0  0
   35.5830   31.7240   33.5340 C   0  0  0  0  0  0  0  0  0  0  0  0
   36.8410   30.4310   30.1710 H   0  0  0  0  0  0  0  0  0  0  0  0
   37.3140   32.7290   30.8230 H   0  0  0  0  0  0  0  0  0  0  0  0
   36.5010   33.6180   33.0350 H   0  0  0  0  0  0  0  0  0  0  0  0
   35.1310   32.2450   34.7800 N   0  0  0  0  0  0  0  0  0  0  0  0
   35.7870   32.1500   36.0780 C   0  0  0  0  0  2  0  0  0  0  0  0
   34.6870   32.4480   37.0930 C   0  0  0  0  0  2  0  0  0  0  0  0
   33.8310   33.4640   36.3310 C   0  0  0  0  0  2  0  0  0  0  0  0
   33.8880   32.9790   34.9200 C   0  0  0  0  0  3  0  0  0  0  0  0
   33.8060   33.7970   34.1690 H   0  0  0  0  0  0  0  0  0  0  0  0
   35.4650   28.6660   31.6570 O   0  0  0  0  0  0  0  0  0  0  0  0
   35.6750   26.1230   31.2200 O   0  0  0  0  0  0  0  0  0  0  0  0
   36.4090   27.4110   31.0570 P   0  0  1  0  0  0  0  0  0  0  0  0
   36.6060   27.7590   29.3980 O   0  0  0  0  0  0  0  0  0  0  0  0
   35.7430   27.6540   28.9260 H   0  0  0  0  0  0  0  0  0  0  0  0
   37.9200   27.4260   31.8190 O   0  0  0  0  0  0  0  0  0  0  0  0
   37.8920   27.2620   35.5050 C   0  0  0  0  0  0  0  0  0  0  0  0
   37.3560   27.4050   34.2200 C   0  0  0  0  0  0  0  0  0  0  0  0
   38.2270   27.3180   33.1300 C   0  0  0  0  0  0  0  0  0  0  0  0
   39.5480   27.0980   33.3810 N   0  0  0  0  0  0  0  0  0  0  0  0
   40.0210   26.9670   34.6290 C   0  0  0  0  0  0  0  0  0  0  0  0
   39.2040   27.0470   35.6860 N   0  0  0  0  0  0  0  0  0  0  0  0
   37.1880   27.3350   36.3240 H   0  0  0  0  0  0  0  0  0  0  0  0
   36.3220   27.5790   33.9700 H   0  0  0  0  0  0  0  0  0  0  0  0
   41.0730   26.7920   34.8280 H   0  0  0  0  0  0  0  0  0  0  0  0
  2  7  1  0  0  0  0
  2  1  1  0  0  0  0
  3  2  2  0  0  0  0
  4  5  2  0  0  0  0
  4  3  1  0  0  0  0
  5  6  1  0  0  0  0
  6 10  1  0  0  0  0
  6  7  2  0  0  0  0
  7 11  1  0  0  0  0
  8  4  1  0  0  0  0
  9  5  1  0  0  0  0
 11 15  1  0  0  0  0
 11 12  1  0  0  0  0
 12 13  1  0  0  0  0
 14 13  1  0  0  0  0
 15 14  1  0  0  0  0
 16 15  1  0  0  0  0
 17  3  1  0  0  0  0
 19 18  2  1  0  0  0
 19 17  1  0  0  0  0
 19 22  1  0  0  0  0
 20 19  1  0  0  0  0
 21 20  1  0  0  0  0
 22 25  1  0  0  0  0
 23 28  1  0  0  0  0
 23 29  1  0  0  0  0
 24 23  2  0  0  0  0
 25 26  2  0  0  0  0
 25 24  1  0  0  0  0
 26 27  1  0  0  0  0
 27 31  1  0  0  0  0
 27 28  2  0  0  0  0
 30 24  1  0  0  0  0
M  END
>  <minimizedAffinity>
-5.23757601

$$$$

 OpenBabel03272508133D

 31 33  0  0  0  0  0  0  0  0999 V2000
   37.9460   23.6490   33.4690 Cl  0  0  0  0  0  0  0  0  0  0  0  0
   37.9380   25.2220   34.3040 C   0  0  0  0  0  0  0  0  0  0  0  0
   37.2750   26.3540   33.8210 C   0  0  0  0  0  0  0  0  0  0  0  0
   37.3540   27.5110   34.5750 C   0  0  0  0  0  0  0  0  0  0  0  0
   38.0570   27.5420   35.7510 C   0  0  0  0  0  0  0  0  0  0  0  0
   38.7150   26.4370   36.2390 C   0  0  0  0  0  0  0  0  0  0  0  0
   38.6480   25.2780   35.5040 C   0  0  0  0  0  0  0  0  0  0  0  0
   36.8190   28.3360   34.1360 H   0  0  0  0  0  0  0  0  0  0  0  0
   38.0360   28.5090   36.2380 H   0  0  0  0  0  0  0  0  0  0  0  0
   39.2550   26.5130   37.1730 H   0  0  0  0  0  0  0  0  0  0  0  0
   39.3430   24.1600   36.0480 N   0  0  0  0  0  0  0  0  0  0  0  0
   38.8760   23.2270   37.0640 C   0  0  0  0  0  2  0  0  0  0  0  0
   40.1420   22.5540   37.5870 C   0  0  0  0  0  2  0  0  0  0  0  0
   41.0110   22.5110   36.3260 C   0  0  0  0  0  2  0  0  0  0  0  0
   40.6840   23.7930   35.6330 C   0  0  0  0  0  3  0  0  0  0  0  0
   40.7690   23.7290   34.5250 H   0  0  0  0  0  0  0  0  0  0  0  0
   36.6420   26.1090   32.6450 O   0  0  0  0  0  0  0  0  0  0  0  0
   38.1400   26.1340   30.5330 O   0  0  0  0  0  0  0  0  0  0  0  0
   36.9280   26.7710   31.1250 P   0  0  1  0  0  0  0  0  0  0  0  0
   35.5510   26.3690   30.2010 O   0  0  0  0  0  0  0  0  0  0  0  0
   35.5290   25.3940   30.0350 H   0  0  0  0  0  0  0  0  0  0  0  0
   37.0480   28.4540   31.2560 O   0  0  0  0  0  0  0  0  0  0  0  0
   35.1800   31.4950   32.1910 C   0  0  0  0  0  0  0  0  0  0  0  0
   36.2530   30.7470   31.6940 C   0  0  0  0  0  0  0  0  0  0  0  0
   36.1380   29.3540   31.6880 C   0  0  0  0  0  0  0  0  0  0  0  0
   34.9880   28.8030   32.1680 N   0  0  0  0  0  0  0  0  0  0  0  0
   33.9830   29.5570   32.6360 C   0  0  0  0  0  0  0  0  0  0  0  0
   34.0730   30.8920   32.6500 N   0  0  0  0  0  0  0  0  0  0  0  0
   35.3040   32.5700   32.1800 H   0  0  0  0  0  0  0  0  0  0  0  0
   37.1810   31.1350   31.3040 H   0  0  0  0  0  0  0  0  0  0  0  0
   33.0670   29.1180   33.0180 H   0  0  0  0  0  0  0  0  0  0  0  0
  1  2  1  0  0  0  0
  2  7  1  0  0  0  0
  3  2  2  0  0  0  0
  3  4  1  0  0  0  0
  4  5  2  0  0  0  0
  5  9  1  0  0  0  0
  5  6  1  0  0  0  0
  6 10  1  0  0  0  0
  7 11  1  0  0  0  0
  7  6  2  0  0  0  0
  8  4  1  0  0  0  0
 11 12  1  0  0  0  0
 12 13  1  0  0  0  0
 14 13  1  0  0  0  0
 15 11  1  0  0  0  0
 15 14  1  0  0  0  0
 16 15  1  0  0  0  0
 17  3  1  0  0  0  0
 19 18  2  6  0  0  0
 19 22  1  0  0  0  0
 19 17  1  0  0  0  0
 20 19  1  0  0  0  0
 21 20  1  0  0  0  0
 22 25  1  0  0  0  0
 23 28  1  0  0  0  0
 24 23  2  0  0  0  0
 25 24  1  0  0  0  0
 25 26  2  0  0  0  0
 26 27  1  0  0  0  0
 27 28  2  0  0  0  0
 27 31  1  0  0  0  0
 29 23  1  0  0  0  0
 30 24  1  0  0  0  0
M  END
>  <minimizedAffinity>
-5.22256851

$$$$

 OpenBabel03272508133D

 31 33  0  0  0  0  0  0  0  0999 V2000
   38.2390   26.9190   35.8050 Cl  0  0  0  0  0  0  0  0  0  0  0  0
   38.0070   25.8180   34.4240 C   0  0  0  0  0  0  0  0  0  0  0  0
   37.7140   26.2500   33.1280 C   0  0  0  0  0  0  0  0  0  0  0  0
   37.5600   25.2820   32.1520 C   0  0  0  0  0  0  0  0  0  0  0  0
   37.6920   23.9510   32.4490 C   0  0  0  0  0  0  0  0  0  0  0  0
   37.9810   23.5100   33.7190 C   0  0  0  0  0  0  0  0  0  0  0  0
   38.1370   24.4570   34.7030 C   0  0  0  0  0  0  0  0  0  0  0  0
   37.3350   25.6940   31.1830 H   0  0  0  0  0  0  0  0  0  0  0  0
   37.5470   23.3030   31.5920 H   0  0  0  0  0  0  0  0  0  0  0  0
   38.0750   22.4490   33.9020 H   0  0  0  0  0  0  0  0  0  0  0  0
   38.4350   23.9540   36.0020 N   0  0  0  0  0  0  0  0  0  0  0  0
   37.5290   23.8150   37.1350 C   0  0  0  0  0  2  0  0  0  0  0  0
   38.4420   23.6840   38.3500 C   0  0  0  0  0  2  0  0  0  0  0  0
   39.6370   22.9290   37.7590 C   0  0  0  0  0  2  0  0  0  0  0  0
   39.7570   23.4920   36.3800 C   0  0  0  0  0  3  0  0  0  0  0  0
   40.1660   22.7670   35.6420 H   0  0  0  0  0  0  0  0  0  0  0  0
   37.6270   27.6030   33.0500 O   0  0  0  0  0  0  0  0  0  0  0  0
   36.6670   29.6960   31.8660 O   0  0  0  0  0  0  0  0  0  0  0  0
   36.2800   28.5670   32.7610 P   0  0  1  0  0  0  0  0  0  0  0  0
   35.1690   27.5470   31.9610 O   0  0  0  0  0  0  0  0  0  0  0  0
   35.5040   27.3290   31.0560 H   0  0  0  0  0  0  0  0  0  0  0  0
   35.6190   29.0720   34.2350 O   0  0  0  0  0  0  0  0  0  0  0  0
   35.6550   32.3150   35.9970 C   0  0  0  0  0  0  0  0  0  0  0  0
   36.0790   31.0190   35.6780 C   0  0  0  0  0  0  0  0  0  0  0  0
   35.3780   30.3220   34.6900 C   0  0  0  0  0  0  0  0  0  0  0  0
   34.3220   30.9420   34.0940 N   0  0  0  0  0  0  0  0  0  0  0  0
   33.9480   32.1850   34.4290 C   0  0  0  0  0  0  0  0  0  0  0  0
   34.6060   32.8700   35.3720 N   0  0  0  0  0  0  0  0  0  0  0  0
   36.2210   32.8240   36.7660 H   0  0  0  0  0  0  0  0  0  0  0  0
   36.9060   30.4870   36.1190 H   0  0  0  0  0  0  0  0  0  0  0  0
   33.1070   32.6790   33.9550 H   0  0  0  0  0  0  0  0  0  0  0  0
  2  7  1  0  0  0  0
  2  1  1  0  0  0  0
  3  2  2  0  0  0  0
  4  5  2  0  0  0  0
  4  3  1  0  0  0  0
  5  6  1  0  0  0  0
  6 10  1  0  0  0  0
  6  7  2  0  0  0  0
  7 11  1  0  0  0  0
  8  4  1  0  0  0  0
  9  5  1  0  0  0  0
 11 15  1  0  0  0  0
 11 12  1  0  0  0  0
 12 13  1  0  0  0  0
 14 13  1  0  0  0  0
 15 14  1  0  0  0  0
 16 15  1  0  0  0  0
 17  3  1  0  0  0  0
 19 18  2  6  0  0  0
 19 17  1  0  0  0  0
 19 22  1  0  0  0  0
 20 19  1  0  0  0  0
 21 20  1  0  0  0  0
 22 25  1  0  0  0  0
 23 29  1  0  0  0  0
 24 23  1  0  0  0  0
 24 30  1  0  0  0  0
 25 24  2  0  0  0  0
 26 27  2  0  0  0  0
 26 25  1  0  0  0  0
 27 28  1  0  0  0  0
 28 23  2  0  0  0  0
 31 27  1  0  0  0  0
M  END
>  <minimizedAffinity>
-5.19067144

$$$$

 OpenBabel03272508133D

 31 33  0  0  0  0  0  0  0  0999 V2000
   38.0300   23.2580   33.6180 Cl  0  0  0  0  0  0  0  0  0  0  0  0
   37.9910   24.9310   34.2260 C   0  0  0  0  0  0  0  0  0  0  0  0
   37.2130   25.9440   33.6610 C   0  0  0  0  0  0  0  0  0  0  0  0
   37.2810   27.2000   34.2380 C   0  0  0  0  0  0  0  0  0  0  0  0
   38.0820   27.4350   35.3240 C   0  0  0  0  0  0  0  0  0  0  0  0
   38.8530   26.4490   35.8930 C   0  0  0  0  0  0  0  0  0  0  0  0
   38.7990   25.1950   35.3330 C   0  0  0  0  0  0  0  0  0  0  0  0
   36.6540   27.9240   33.7450 H   0  0  0  0  0  0  0  0  0  0  0  0
   38.0390   28.4600   35.6750 H   0  0  0  0  0  0  0  0  0  0  0  0
   39.4680   26.6860   36.7500 H   0  0  0  0  0  0  0  0  0  0  0  0
   39.6140   24.2060   35.9540 N   0  0  0  0  0  0  0  0  0  0  0  0
   40.9750   23.8210   35.6020 C   0  0  0  0  0  2  0  0  0  0  0  0
   41.1730   22.4540   36.2520 C   0  0  0  0  0  2  0  0  0  0  0  0
   40.3300   22.5910   37.5230 C   0  0  0  0  0  2  0  0  0  0  0  0
   39.1630   23.4110   37.0800 C   0  0  0  0  0  3  0  0  0  0  0  0
   38.7380   24.0480   37.8890 H   0  0  0  0  0  0  0  0  0  0  0  0
   36.4960   25.5010   32.5960 O   0  0  0  0  0  0  0  0  0  0  0  0
   37.4320   24.3590   30.4700 O   0  0  0  0  0  0  0  0  0  0  0  0
   36.8340   25.6360   30.9550 P   0  0  1  0  0  0  0  0  0  0  0  0
   35.3200   25.8870   30.2100 O   0  0  0  0  0  0  0  0  0  0  0  0
   34.7720   25.0650   30.2720 H   0  0  0  0  0  0  0  0  0  0  0  0
   37.8230   26.9850   30.6910 O   0  0  0  0  0  0  0  0  0  0  0  0
   36.5270   30.4360   30.5370 C   0  0  0  0  0  0  0  0  0  0  0  0
   36.7620   29.1740   31.0960 C   0  0  0  0  0  0  0  0  0  0  0  0
   37.4880   28.2470   30.3430 C   0  0  0  0  0  0  0  0  0  0  0  0
   37.9250   28.6230   29.1090 N   0  0  0  0  0  0  0  0  0  0  0  0
   37.6780   29.8430   28.6110 C   0  0  0  0  0  0  0  0  0  0  0  0
   36.9850   30.7460   29.3150 N   0  0  0  0  0  0  0  0  0  0  0  0
   35.9620   31.1290   31.1480 H   0  0  0  0  0  0  0  0  0  0  0  0
   36.4390   28.8300   32.0650 H   0  0  0  0  0  0  0  0  0  0  0  0
   38.0260   30.1430   27.6280 H   0  0  0  0  0  0  0  0  0  0  0  0
  1  2  1  0  0  0  0
  2  7  1  0  0  0  0
  3  2  2  0  0  0  0
  3  4  1  0  0  0  0
  4  5  2  0  0  0  0
  5  9  1  0  0  0  0
  5  6  1  0  0  0  0
  6 10  1  0  0  0  0
  7  6  2  0  0  0  0
  7 11  1  0  0  0  0
  8  4  1  0  0  0  0
 11 15  1  0  0  0  0
 12 11  1  0  0  0  0
 12 13  1  0  0  0  0
 13 14  1  0  0  0  0
 15 14  1  0  0  0  0
 15 16  1  0  0  0  0
 17  3  1  0  0  0  0
 19 18  2  6  0  0  0
 19 17  1  0  0  0  0
 20 21  1  0  0  0  0
 20 19  1  0  0  0  0
 22 19  1  0  0  0  0
 23 24  1  0  0  0  0
 23 29  1  0  0  0  0
 24 30  1  0  0  0  0
 25 22  1  0  0  0  0
 25 24  2  0  0  0  0
 26 25  1  0  0  0  0
 27 26  2  0  0  0  0
 27 28  1  0  0  0  0
 28 23  2  0  0  0  0
 31 27  1  0  0  0  0
M  END
>  <minimizedAffinity>
-5.13925982

$$$$

 OpenBabel03272508133D

 31 33  0  0  0  0  0  0  0  0999 V2000
   38.1280   26.5800   35.5150 Cl  0  0  0  0  0  0  0  0  0  0  0  0
   37.8050   25.3260   34.2940 C   0  0  0  0  0  0  0  0  0  0  0  0
   37.2550   25.5890   33.0370 C   0  0  0  0  0  0  0  0  0  0  0  0
   37.0590   24.5150   32.1870 C   0  0  0  0  0  0  0  0  0  0  0  0
   37.3930   23.2420   32.5680 C   0  0  0  0  0  0  0  0  0  0  0  0
   37.9350   22.9660   33.8010 C   0  0  0  0  0  0  0  0  0  0  0  0
   38.1370   24.0200   34.6600 C   0  0  0  0  0  0  0  0  0  0  0  0
   36.6310   24.8010   31.2410 H   0  0  0  0  0  0  0  0  0  0  0  0
   37.1870   22.4990   31.8070 H   0  0  0  0  0  0  0  0  0  0  0  0
   38.1820   21.9440   34.0540 H   0  0  0  0  0  0  0  0  0  0  0  0
   38.7000   23.6870   35.9250 N   0  0  0  0  0  0  0  0  0  0  0  0
   40.1030   23.4540   36.2440 C   0  0  0  0  0  2  0  0  0  0  0  0
   40.0800   22.7000   37.5710 C   0  0  0  0  0  2  0  0  0  0  0  0
   38.8520   23.3120   38.2520 C   0  0  0  0  0  2  0  0  0  0  0  0
   37.8990   23.5290   37.1230 C   0  0  0  0  0  3  0  0  0  0  0  0
   37.2180   24.3950   37.2810 H   0  0  0  0  0  0  0  0  0  0  0  0
   36.9980   26.9110   32.8620 O   0  0  0  0  0  0  0  0  0  0  0  0
   38.5970   27.7470   31.0050 O   0  0  0  0  0  0  0  0  0  0  0  0
   37.1900   27.8590   31.4860 P   0  0  1  0  0  0  0  0  0  0  0  0
   36.1280   27.1850   30.3330 O   0  0  0  0  0  0  0  0  0  0  0  0
   36.4540   26.2930   30.0540 H   0  0  0  0  0  0  0  0  0  0  0  0
   36.7190   29.4490   31.8250 O   0  0  0  0  0  0  0  0  0  0  0  0
   34.3410   31.3140   33.9410 C   0  0  0  0  0  0  0  0  0  0  0  0
   35.5700   31.0200   33.3390 C   0  0  0  0  0  0  0  0  0  0  0  0
   35.6410   29.9050   32.4990 C   0  0  0  0  0  0  0  0  0  0  0  0
   34.5100   29.1680   32.3130 N   0  0  0  0  0  0  0  0  0  0  0  0
   33.3510   29.4860   32.9100 C   0  0  0  0  0  0  0  0  0  0  0  0
   33.2620   30.5490   33.7180 N   0  0  0  0  0  0  0  0  0  0  0  0
   34.3230   32.1840   34.5850 H   0  0  0  0  0  0  0  0  0  0  0  0
   36.4900   31.5700   33.4530 H   0  0  0  0  0  0  0  0  0  0  0  0
   32.4510   28.8990   32.7620 H   0  0  0  0  0  0  0  0  0  0  0  0
  2  7  1  0  0  0  0
  2  1  1  0  0  0  0
  3  2  2  0  0  0  0
  4  5  2  0  0  0  0
  4  3  1  0  0  0  0
  5  6  1  0  0  0  0
  6 10  1  0  0  0  0
  6  7  2  0  0  0  0
  7 11  1  0  0  0  0
  8  4  1  0  0  0  0
  9  5  1  0  0  0  0
 11 12  1  0  0  0  0
 11 15  1  0  0  0  0
 12 13  1  0  0  0  0
 13 14  1  0  0  0  0
 15 16  1  0  0  0  0
 15 14  1  0  0  0  0
 17  3  1  0  0  0  0
 19 18  2  6  0  0  0
 19 22  1  0  0  0  0
 19 17  1  0  0  0  0
 20 19  1  0  0  0  0
 21 20  1  0  0  0  0
 22 25  1  0  0  0  0
 23 29  1  0  0  0  0
 24 30  1  0  0  0  0
 24 23  2  0  0  0  0
 25 24  1  0  0  0  0
 26 25  2  0  0  0  0
 26 27  1  0  0  0  0
 27 28  2  0  0  0  0
 28 23  1  0  0  0  0
 31 27  1  0  0  0  0
M  END
>  <minimizedAffinity>
-5.1384058

$$$$
