
 OpenBabel03272501073D

 37 40  0  0  1  0  0  0  0  0999 V2000
   39.0590   32.4080   47.4710 C   0  0  2  0  0  0  0  0  0  0  0  0
   38.0990   32.7350   48.6660 C   0  0  2  0  0  0  0  0  0  0  0  0
   38.9920   33.5040   49.5190 C   0  0  0  0  0  0  0  0  0  0  0  0
   39.8150   34.2710   48.7070 O   0  0  0  0  0  0  0  0  0  0  0  0
   39.7180   33.8150   47.4330 C   0  0  0  0  0  0  0  0  0  0  0  0
   39.8460   31.7220   47.7720 H   0  0  0  0  0  0  0  0  0  0  0  0
   37.3410   33.3900   48.1870 H   0  0  0  0  0  0  0  0  0  0  0  0
   38.3770   34.2460   50.1020 H   0  0  0  0  0  0  0  0  0  0  0  0
   39.6490   32.9520   50.1910 H   0  0  0  0  0  0  0  0  0  0  0  0
   40.6960   33.7460   46.9100 H   0  0  0  0  0  0  0  0  0  0  0  0
   39.0650   34.4870   46.8190 H   0  0  0  0  0  0  0  0  0  0  0  0
   37.3790   29.7090   50.7820 C   0  0  0  0  0  0  0  0  0  0  0  0
   38.0440   30.8760   50.3120 C   0  0  0  0  0  0  0  0  0  0  0  0
   37.4710   31.5520   49.1950 C   0  0  0  0  0  0  0  0  0  0  0  0
   36.3210   31.0530   48.6310 N   0  0  0  0  0  0  0  0  0  0  0  0
   35.7340   29.9520   49.1090 C   0  0  0  0  0  0  0  0  0  0  0  0
   36.2430   29.2740   50.1720 N   0  0  0  0  0  0  0  0  0  0  0  0
   37.8470   29.2280   51.6290 H   0  0  0  0  0  0  0  0  0  0  0  0
   38.9460   31.2220   50.7960 H   0  0  0  0  0  0  0  0  0  0  0  0
   34.8370   29.5060   48.7190 H   0  0  0  0  0  0  0  0  0  0  0  0
   38.3810   32.2120   46.3170 O   0  0  0  0  0  0  0  0  0  0  0  0
   40.9050   31.2480   44.8520 Cl  0  0  0  0  0  0  0  0  0  0  0  0
   39.2710   30.6860   44.5420 C   0  0  0  0  0  0  0  0  0  0  0  0
   38.3180   31.2800   45.3450 C   0  0  0  0  0  0  0  0  0  0  0  0
   37.0240   30.8400   45.1150 C   0  0  0  0  0  0  0  0  0  0  0  0
   36.7230   29.8900   44.1640 C   0  0  0  0  0  0  0  0  0  0  0  0
   37.7410   29.3430   43.3990 C   0  0  0  0  0  0  0  0  0  0  0  0
   39.0390   29.7360   43.5790 C   0  0  0  0  0  0  0  0  0  0  0  0
   36.1610   31.2140   45.6680 H   0  0  0  0  0  0  0  0  0  0  0  0
   35.6810   29.5670   44.0130 H   0  0  0  0  0  0  0  0  0  0  0  0
   37.3840   28.5990   42.6830 H   0  0  0  0  0  0  0  0  0  0  0  0
   40.0560   29.1360   42.7890 N   0  0  0  0  0  0  0  0  0  0  0  0
   40.0820   27.7260   42.3560 C   0  0  0  0  0  0  0  0  0  0  0  0
   40.2930   27.8310   40.8480 C   0  0  0  0  0  0  0  0  0  0  0  0
   41.1280   29.1130   40.7080 C   0  0  0  0  0  0  0  0  0  0  0  0
   41.3070   29.4930   42.1680 C   0  0  0  0  0  0  0  0  0  0  0  0
   41.6650   30.4990   42.3120 H   0  0  0  0  0  0  0  0  0  0  0  0
  1  6  1  1  0  0  0
  1  2  1  0  0  0  0
  2  7  1  6  0  0  0
  2 14  1  0  0  0  0
  2  3  1  0  0  0  0
  3  8  1  0  0  0  0
  3  9  1  0  0  0  0
  4  3  1  0  0  0  0
  5  1  1  0  0  0  0
  5  4  1  0  0  0  0
 10  5  1  0  0  0  0
 11  5  1  0  0  0  0
 12 18  1  0  0  0  0
 13 12  1  0  0  0  0
 13 19  1  0  0  0  0
 14 13  2  0  0  0  0
 15 16  2  0  0  0  0
 15 14  1  0  0  0  0
 16 17  1  0  0  0  0
 17 12  2  0  0  0  0
 20 16  1  0  0  0  0
 21  1  1  0  0  0  0
 23 22  1  0  0  0  0
 23 24  1  0  0  0  0
 24 21  1  0  0  0  0
 25 24  2  0  0  0  0
 25 29  1  0  0  0  0
 26 25  1  0  0  0  0
 27 28  1  0  0  0  0
 27 26  2  0  0  0  0
 28 23  2  0  0  0  0
 30 26  1  0  0  0  0
 31 27  1  0  0  0  0
 32 28  1  0  0  0  0
 33 32  1  0  0  0  0
 34 33  1  0  0  0  0
 35 34  1  0  0  0  0
 35 36  1  0  0  0  0
 36 37  1  0  0  0  0
 36 32  1  0  0  0  0
M  END
>  <minimizedAffinity>
-6.19739771

>  <minimizedRMSD>
0.419539332

$$$$
