
 OpenBabel03272510243D

 29 32  0  0  1  0  0  0  0  0999 V2000
   36.0330   30.0910   46.9360 C   0  0  0  0  0  0  0  0  0  0  0  0
   36.9320   30.6710   47.8070 C   0  0  0  0  0  0  0  0  0  0  0  0
   37.8980   31.5670   47.3550 C   0  0  0  0  0  0  0  0  0  0  0  0
   37.8920   31.8320   45.9770 C   0  0  0  0  0  0  0  0  0  0  0  0
   38.7330   32.6680   45.2990 N   0  0  0  0  0  0  0  0  0  0  0  0
   38.3630   32.6130   44.0110 C   0  0  0  0  0  0  0  0  0  0  0  0
   37.3390   31.7850   43.8700 N   0  0  0  0  0  0  0  0  0  0  0  0
   37.0160   31.2780   45.0790 C   0  0  0  0  0  0  0  0  0  0  0  0
   36.0670   30.3880   45.5720 C   0  0  0  0  0  0  0  0  0  0  0  0
   35.2700   29.3920   47.2520 H   0  0  0  0  0  0  0  0  0  0  0  0
   38.5900   32.0120   48.0280 H   0  0  0  0  0  0  0  0  0  0  0  0
   39.5080   33.2310   45.7320 H   0  0  0  0  0  0  0  0  0  0  0  0
   35.3750   29.9500   44.8640 H   0  0  0  0  0  0  0  0  0  0  0  0
   37.5500   30.1780   51.4760 C   0  0  0  0  0  0  0  0  0  0  0  0
   37.7800   30.5830   50.1670 C   0  0  0  0  0  0  0  0  0  0  0  0
   36.8320   30.3110   49.2090 C   0  0  0  0  0  0  0  0  0  0  0  0
   35.7200   29.6530   49.6250 N   0  0  0  0  0  0  0  0  0  0  0  0
   35.5000   29.2610   50.8970 C   0  0  0  0  0  0  0  0  0  0  0  0
   36.4190   29.5290   51.8050 N   0  0  0  0  0  0  0  0  0  0  0  0
   38.3330   30.4220   52.1800 H   0  0  0  0  0  0  0  0  0  0  0  0
   38.6720   31.1080   49.8500 H   0  0  0  0  0  0  0  0  0  0  0  0
   34.5900   28.7390   51.1630 H   0  0  0  0  0  0  0  0  0  0  0  0
   39.0380   33.3670   43.0440 O   0  0  0  0  0  0  0  0  0  0  0  0
   40.3420   30.9330   42.7280 H   0  0  0  0  0  0  0  0  0  0  0  0
   39.6270   31.2720   42.0550 N   0  0  0  0  0  0  0  0  0  0  0  0
   39.7740   30.7750   40.7190 C   0  0  0  0  0  2  0  0  0  0  0  0
   39.3240   31.8680   39.7630 C   0  0  0  0  0  2  0  0  0  0  0  0
   38.6020   32.8320   40.7130 C   0  0  0  0  0  2  0  0  0  0  0  0
   39.5400   32.6920   41.9190 C   0  0  1  0  0  3  0  0  0  0  0  0
  1 10  1  0  0  0  0
  1  2  1  0  0  0  0
  2 16  1  0  0  0  0
  3  2  2  0  0  0  0
  3 11  1  0  0  0  0
  4  3  1  0  0  0  0
  5 12  1  0  0  0  0
  5  4  1  0  0  0  0
  6  5  1  0  0  0  0
  7  6  2  0  0  0  0
  7  8  1  0  0  0  0
  8  9  1  0  0  0  0
  8  4  2  0  0  0  0
  9  1  2  0  0  0  0
 13  9  1  0  0  0  0
 14 19  1  0  0  0  0
 14 20  1  0  0  0  0
 15 14  2  0  0  0  0
 16 17  2  0  0  0  0
 16 15  1  0  0  0  0
 17 18  1  0  0  0  0
 18 22  1  0  0  0  0
 18 19  2  0  0  0  0
 21 15  1  0  0  0  0
 23  6  1  0  0  0  0
 25 24  1  0  0  0  0
 26 25  1  0  0  0  0
 27 28  1  0  0  0  0
 27 26  1  0  0  0  0
 28 29  1  0  0  0  0
 29 25  1  0  0  0  0
 29 23  1  1  0  0  0
M  END
>  <minimizedAffinity>
-5.20735264

>  <minimizedRMSD>
1.97311962

$$$$
