
 OpenBabel03272504213D

 36 38  0  0  1  0  0  0  0  0999 V2000
   36.7420   31.4710   48.8260 O   0  0  0  0  0  0  0  0  0  0  0  0
   38.7050   32.2870   47.8830 C   0  0  2  0  0  0  0  0  0  0  0  0
   38.1030   31.2460   48.8060 C   0  0  1  0  0  0  0  0  0  0  0  0
   38.7170   31.7440   50.1240 C   0  0  0  0  0  0  0  0  0  0  0  0
   38.3980   33.0910   50.0790 O   0  0  0  0  0  0  0  0  0  0  0  0
   38.5780   33.5290   48.7750 C   0  0  0  0  0  0  0  0  0  0  0  0
   39.7700   32.0760   47.6750 H   0  0  0  0  0  0  0  0  0  0  0  0
   38.3900   30.2190   48.5740 H   0  0  0  0  0  0  0  0  0  0  0  0
   38.2110   31.2940   51.0070 H   0  0  0  0  0  0  0  0  0  0  0  0
   39.7840   31.5430   50.1690 H   0  0  0  0  0  0  0  0  0  0  0  0
   37.6630   34.0430   48.4460 H   0  0  0  0  0  0  0  0  0  0  0  0
   39.5020   34.1380   48.6820 H   0  0  0  0  0  0  0  0  0  0  0  0
   37.9240   32.3640   46.7520 O   0  0  0  0  0  0  0  0  0  0  0  0
   37.9270   32.9400   43.8840 H   0  0  0  0  0  0  0  0  0  0  0  0
   38.6620   33.0450   44.6170 N   0  0  0  0  0  0  0  0  0  0  0  0
   39.9400   32.7850   43.9450 C   0  0  0  0  0  2  0  0  0  0  0  0
   40.8420   32.5540   45.1400 C   0  0  0  0  0  2  0  0  0  0  0  0
   39.9780   31.5940   45.9530 C   0  0  0  0  0  2  0  0  0  0  0  0
   38.5530   31.9570   45.5890 C   0  0  1  0  0  3  0  0  0  0  0  0
   35.7790   29.8070   47.0660 O   0  0  0  0  0  0  0  0  0  0  0  0
   35.8370   30.0800   48.5420 P   0  0  1  0  0  0  0  0  0  0  0  0
   36.6020   28.7410   49.2970 O   0  0  0  0  0  0  0  0  0  0  0  0
   37.0830   28.2130   48.6310 H   0  0  0  0  0  0  0  0  0  0  0  0
   34.2730   30.2660   49.1790 O   0  0  0  0  0  0  0  0  0  0  0  0
   33.9780   29.1020   49.8640 C   0  0  0  0  0  0  0  0  0  0  0  0
   33.4000   29.4210   50.7710 H   0  0  0  0  0  0  0  0  0  0  0  0
   34.9000   28.5750   50.2260 H   0  0  0  0  0  0  0  0  0  0  0  0
   33.0970   28.1810   49.1110 C   0  0  0  0  0  0  0  0  0  0  0  0
   33.7090   27.3190   48.2330 C   0  0  0  0  0  0  0  0  0  0  0  0
   32.9340   26.4230   47.4920 C   0  0  0  0  0  0  0  0  0  0  0  0
   31.5860   26.4650   47.6910 N   0  0  0  0  0  0  0  0  0  0  0  0
   31.0090   27.3210   48.5570 C   0  0  0  0  0  0  0  0  0  0  0  0
   31.7640   28.1800   49.2680 N   0  0  0  0  0  0  0  0  0  0  0  0
   34.7550   27.2120   48.0090 H   0  0  0  0  0  0  0  0  0  0  0  0
   33.3360   25.7060   46.7740 H   0  0  0  0  0  0  0  0  0  0  0  0
   29.9350   27.3380   48.7030 H   0  0  0  0  0  0  0  0  0  0  0  0
  2  7  1  6  0  0  0
  2  6  1  0  0  0  0
  2  3  1  0  0  0  0
  3  8  1  6  0  0  0
  3  1  1  0  0  0  0
  3  4  1  0  0  0  0
  4 10  1  0  0  0  0
  4  9  1  0  0  0  0
  5  4  1  0  0  0  0
  6  5  1  0  0  0  0
 11  6  1  0  0  0  0
 12  6  1  0  0  0  0
 13  2  1  0  0  0  0
 14 15  1  0  0  0  0
 15 19  1  0  0  0  0
 16 15  1  0  0  0  0
 16 17  1  0  0  0  0
 17 18  1  0  0  0  0
 19 18  1  0  0  0  0
 19 13  1  1  0  0  0
 21 20  2  6  0  0  0
 21  1  1  0  0  0  0
 21 24  1  0  0  0  0
 21 22  1  0  0  0  0
 23 22  1  0  0  0  0
 24 25  1  0  0  0  0
 25 27  1  0  0  0  0
 25 26  1  0  0  0  0
 28 33  1  0  0  0  0
 28 25  1  0  0  0  0
 29 28  2  0  0  0  0
 30 31  2  0  0  0  0
 30 29  1  0  0  0  0
 31 32  1  0  0  0  0
 32 36  1  0  0  0  0
 32 33  2  0  0  0  0
 34 29  1  0  0  0  0
 35 30  1  0  0  0  0
M  END
>  <minimizedAffinity>
-4.88900614

>  <minimizedRMSD>
0.356255025

$$$$
