
 OpenBabel03272504243D

 36 38  0  0  1  0  0  0  0  0999 V2000
   37.6260   28.2590   33.7520 O   0  0  0  0  0  0  0  0  0  0  0  0
   35.4460   28.8820   33.2330 C   0  0  2  0  0  0  0  0  0  0  0  0
   36.4820   27.7780   33.1500 C   0  0  1  0  0  0  0  0  0  0  0  0
   36.6750   27.7780   31.6250 C   0  0  0  0  0  0  0  0  0  0  0  0
   36.8820   29.1250   31.3790 O   0  0  0  0  0  0  0  0  0  0  0  0
   36.0080   29.8450   32.1800 C   0  0  0  0  0  0  0  0  0  0  0  0
   34.4470   28.5230   32.9270 H   0  0  0  0  0  0  0  0  0  0  0  0
   36.1420   26.8130   33.5270 H   0  0  0  0  0  0  0  0  0  0  0  0
   37.5930   27.2230   31.3290 H   0  0  0  0  0  0  0  0  0  0  0  0
   35.8120   27.3620   31.1120 H   0  0  0  0  0  0  0  0  0  0  0  0
   36.5800   30.6010   32.7370 H   0  0  0  0  0  0  0  0  0  0  0  0
   35.1670   30.2580   31.5820 H   0  0  0  0  0  0  0  0  0  0  0  0
   35.4800   29.4090   34.5050 O   0  0  0  0  0  0  0  0  0  0  0  0
   33.4580   31.4380   33.9120 H   0  0  0  0  0  0  0  0  0  0  0  0
   33.9070   31.1400   34.8060 N   0  0  0  0  0  0  0  0  0  0  0  0
   33.9960   32.3500   35.6320 C   0  0  0  0  0  2  0  0  0  0  0  0
   35.0020   31.9030   36.6740 C   0  0  0  0  0  2  0  0  0  0  0  0
   36.0670   31.2780   35.7750 C   0  0  0  0  0  2  0  0  0  0  0  0
   35.3040   30.7800   34.5640 C   0  0  1  0  0  3  0  0  0  0  0  0
   39.8250   26.8880   34.0400 O   0  0  0  0  0  0  0  0  0  0  0  0
   38.4560   27.0850   34.6290 P   0  0  1  0  0  0  0  0  0  0  0  0
   38.6490   27.6170   36.2490 O   0  0  0  0  0  0  0  0  0  0  0  0
   39.5580   27.9460   36.3860 H   0  0  0  0  0  0  0  0  0  0  0  0
   37.5830   25.6280   34.6160 O   0  0  0  0  0  0  0  0  0  0  0  0
   38.5020   24.6090   34.7840 C   0  0  0  0  0  0  0  0  0  0  0  0
   39.4940   25.0430   34.4910 H   0  0  0  0  0  0  0  0  0  0  0  0
   38.3050   23.7400   34.1010 H   0  0  0  0  0  0  0  0  0  0  0  0
   38.6400   24.1640   36.1890 C   0  0  0  0  0  0  0  0  0  0  0  0
   39.6500   23.2710   36.4590 C   0  0  0  0  0  0  0  0  0  0  0  0
   39.8350   22.8130   37.7650 C   0  0  0  0  0  0  0  0  0  0  0  0
   38.9780   23.2910   38.7130 N   0  0  0  0  0  0  0  0  0  0  0  0
   37.9950   24.1650   38.4220 C   0  0  0  0  0  0  0  0  0  0  0  0
   37.8240   24.6020   37.1600 N   0  0  0  0  0  0  0  0  0  0  0  0
   40.3690   22.8410   35.7850 H   0  0  0  0  0  0  0  0  0  0  0  0
   40.6100   22.1060   38.0680 H   0  0  0  0  0  0  0  0  0  0  0  0
   37.3240   24.5340   39.1890 H   0  0  0  0  0  0  0  0  0  0  0  0
  1 21  1  0  0  0  0
  2  7  1  6  0  0  0
  2 13  1  0  0  0  0
  3  2  1  0  0  0  0
  3  8  1  1  0  0  0
  3  1  1  0  0  0  0
  4  3  1  0  0  0  0
  5  4  1  0  0  0  0
  5  6  1  0  0  0  0
  6 11  1  0  0  0  0
  6  2  1  0  0  0  0
  9  4  1  0  0  0  0
 10  4  1  0  0  0  0
 12  6  1  0  0  0  0
 14 15  1  0  0  0  0
 15 16  1  0  0  0  0
 16 17  1  0  0  0  0
 18 17  1  0  0  0  0
 19 13  1  1  0  0  0
 19 15  1  0  0  0  0
 19 18  1  0  0  0  0
 21 20  2  6  0  0  0
 21 22  1  0  0  0  0
 22 23  1  0  0  0  0
 24 21  1  0  0  0  0
 24 25  1  0  0  0  0
 25 28  1  0  0  0  0
 26 25  1  0  0  0  0
 27 25  1  0  0  0  0
 28 29  2  0  0  0  0
 28 33  1  0  0  0  0
 29 30  1  0  0  0  0
 30 35  1  0  0  0  0
 30 31  2  0  0  0  0
 32 31  1  0  0  0  0
 32 36  1  0  0  0  0
 33 32  2  0  0  0  0
 34 29  1  0  0  0  0
M  END
>  <minimizedAffinity>
-5.03585052

$$$$

 OpenBabel03272504243D

 36 38  0  0  1  0  0  0  0  0999 V2000
   36.9570   25.5400   32.8770 O   0  0  0  0  0  0  0  0  0  0  0  0
   36.3690   24.4090   30.9310 C   0  0  2  0  0  0  0  0  0  0  0  0
   37.1800   25.5500   31.5150 C   0  0  1  0  0  0  0  0  0  0  0  0
   36.4010   26.7140   30.8830 C   0  0  0  0  0  0  0  0  0  0  0  0
   35.0980   26.3750   31.2090 O   0  0  0  0  0  0  0  0  0  0  0  0
   34.9600   25.0040   31.0510 C   0  0  0  0  0  0  0  0  0  0  0  0
   36.6210   24.2370   29.8690 H   0  0  0  0  0  0  0  0  0  0  0  0
   38.2320   25.5470   31.2270 H   0  0  0  0  0  0  0  0  0  0  0  0
   36.6440   27.6830   31.3740 H   0  0  0  0  0  0  0  0  0  0  0  0
   36.5850   26.7860   29.8150 H   0  0  0  0  0  0  0  0  0  0  0  0
   34.5330   24.5830   31.9720 H   0  0  0  0  0  0  0  0  0  0  0  0
   34.3870   24.7640   30.1300 H   0  0  0  0  0  0  0  0  0  0  0  0
   36.5460   23.3010   31.7300 O   0  0  0  0  0  0  0  0  0  0  0  0
   37.0100   21.1180   29.8390 H   0  0  0  0  0  0  0  0  0  0  0  0
   36.9050   21.1320   30.8780 N   0  0  0  0  0  0  0  0  0  0  0  0
   36.2450   19.8690   31.2310 C   0  0  0  0  0  2  0  0  0  0  0  0
   35.7820   20.1810   32.6390 C   0  0  0  0  0  2  0  0  0  0  0  0
   35.1570   21.5570   32.4240 C   0  0  0  0  0  2  0  0  0  0  0  0
   35.9310   22.1530   31.2650 C   0  0  1  0  0  3  0  0  0  0  0  0
   38.9440   27.2240   32.9690 O   0  0  0  0  0  0  0  0  0  0  0  0
   38.2500   26.1540   33.7630 P   0  0  1  0  0  0  0  0  0  0  0  0
   37.6600   26.8680   35.2080 O   0  0  0  0  0  0  0  0  0  0  0  0
   37.6390   27.8400   35.1160 H   0  0  0  0  0  0  0  0  0  0  0  0
   39.3300   24.9030   34.1550 O   0  0  0  0  0  0  0  0  0  0  0  0
   38.5700   23.8550   34.6410 C   0  0  0  0  0  0  0  0  0  0  0  0
   39.0080   22.9260   34.1880 H   0  0  0  0  0  0  0  0  0  0  0  0
   37.5000   23.9140   34.3070 H   0  0  0  0  0  0  0  0  0  0  0  0
   38.6640   23.6890   36.1080 C   0  0  0  0  0  0  0  0  0  0  0  0
   39.7410   22.9800   36.5830 C   0  0  0  0  0  0  0  0  0  0  0  0
   39.8890   22.7880   37.9590 C   0  0  0  0  0  0  0  0  0  0  0  0
   38.9300   23.3290   38.7630 N   0  0  0  0  0  0  0  0  0  0  0  0
   37.8820   24.0200   38.2730 C   0  0  0  0  0  0  0  0  0  0  0  0
   37.7470   24.2010   36.9450 N   0  0  0  0  0  0  0  0  0  0  0  0
   40.5420   22.5190   36.0330 H   0  0  0  0  0  0  0  0  0  0  0  0
   40.7120   22.2390   38.4210 H   0  0  0  0  0  0  0  0  0  0  0  0
   37.1290   24.4440   38.9280 H   0  0  0  0  0  0  0  0  0  0  0  0
  1 21  1  0  0  0  0
  2  7  1  6  0  0  0
  2  6  1  0  0  0  0
  2  3  1  0  0  0  0
  2 13  1  0  0  0  0
  3  8  1  6  0  0  0
  3  1  1  0  0  0  0
  4  5  1  0  0  0  0
  4  9  1  0  0  0  0
  4  3  1  0  0  0  0
  6  5  1  0  0  0  0
  6 11  1  0  0  0  0
 10  4  1  0  0  0  0
 12  6  1  0  0  0  0
 14 15  1  0  0  0  0
 15 16  1  0  0  0  0
 15 19  1  0  0  0  0
 16 17  1  0  0  0  0
 18 17  1  0  0  0  0
 19 13  1  1  0  0  0
 19 18  1  0  0  0  0
 21 20  2  6  0  0  0
 21 24  1  0  0  0  0
 21 22  1  0  0  0  0
 23 22  1  0  0  0  0
 24 25  1  0  0  0  0
 25 28  1  0  0  0  0
 26 25  1  0  0  0  0
 27 25  1  0  0  0  0
 28 29  2  0  0  0  0
 28 33  1  0  0  0  0
 29 30  1  0  0  0  0
 30 35  1  0  0  0  0
 30 31  2  0  0  0  0
 32 31  1  0  0  0  0
 32 36  1  0  0  0  0
 33 32  2  0  0  0  0
 34 29  1  0  0  0  0
M  END
>  <minimizedAffinity>
-4.98743773

$$$$

 OpenBabel03272504243D

 36 38  0  0  1  0  0  0  0  0999 V2000
   37.5450   26.1200   34.2750 O   0  0  0  0  0  0  0  0  0  0  0  0
   37.4700   25.1150   32.1790 C   0  0  2  0  0  0  0  0  0  0  0  0
   38.2680   26.0100   33.1060 C   0  0  1  0  0  0  0  0  0  0  0  0
   38.1400   27.3170   32.3070 C   0  0  0  0  0  0  0  0  0  0  0  0
   36.7740   27.3660   32.0860 O   0  0  0  0  0  0  0  0  0  0  0  0
   36.3420   26.0810   31.7930 C   0  0  0  0  0  0  0  0  0  0  0  0
   38.0550   24.8350   31.2830 H   0  0  0  0  0  0  0  0  0  0  0  0
   39.3070   25.7050   33.2410 H   0  0  0  0  0  0  0  0  0  0  0  0
   38.4280   28.2000   32.9200 H   0  0  0  0  0  0  0  0  0  0  0  0
   38.7340   27.2910   31.3980 H   0  0  0  0  0  0  0  0  0  0  0  0
   35.4960   25.8330   32.4500 H   0  0  0  0  0  0  0  0  0  0  0  0
   36.1260   25.9700   30.7090 H   0  0  0  0  0  0  0  0  0  0  0  0
   37.0180   24.0360   32.9050 O   0  0  0  0  0  0  0  0  0  0  0  0
   38.4860   21.5100   33.0620 H   0  0  0  0  0  0  0  0  0  0  0  0
   37.4710   21.7360   33.1620 N   0  0  0  0  0  0  0  0  0  0  0  0
   36.7490   20.5760   32.6260 C   0  0  0  0  0  2  0  0  0  0  0  0
   35.3680   21.1710   32.4370 C   0  0  0  0  0  2  0  0  0  0  0  0
   35.7270   22.4790   31.7370 C   0  0  0  0  0  2  0  0  0  0  0  0
   37.1120   22.8210   32.2490 C   0  0  1  0  0  3  0  0  0  0  0  0
   39.9270   26.6400   35.1950 O   0  0  0  0  0  0  0  0  0  0  0  0
   38.4770   26.6130   35.5870 P   0  0  1  0  0  0  0  0  0  0  0  0
   38.0230   28.2060   36.0400 O   0  0  0  0  0  0  0  0  0  0  0  0
   38.6780   28.8470   35.7040 H   0  0  0  0  0  0  0  0  0  0  0  0
   38.2300   25.5640   36.9000 O   0  0  0  0  0  0  0  0  0  0  0  0
   37.9190   24.3250   36.3700 C   0  0  0  0  0  0  0  0  0  0  0  0
   37.5950   24.5200   35.3130 H   0  0  0  0  0  0  0  0  0  0  0  0
   37.0550   23.8410   36.8980 H   0  0  0  0  0  0  0  0  0  0  0  0
   39.0780   23.4090   36.2890 C   0  0  0  0  0  0  0  0  0  0  0  0
   39.6150   22.9830   37.4810 C   0  0  0  0  0  0  0  0  0  0  0  0
   40.7100   22.1160   37.4730 C   0  0  0  0  0  0  0  0  0  0  0  0
   41.1900   21.7400   36.2530 N   0  0  0  0  0  0  0  0  0  0  0  0
   40.6460   22.1720   35.0990 C   0  0  0  0  0  0  0  0  0  0  0  0
   39.5900   23.0070   35.1150 N   0  0  0  0  0  0  0  0  0  0  0  0
   39.3090   23.2230   38.4830 H   0  0  0  0  0  0  0  0  0  0  0  0
   41.1980   21.7300   38.3700 H   0  0  0  0  0  0  0  0  0  0  0  0
   41.0410   21.8610   34.1380 H   0  0  0  0  0  0  0  0  0  0  0  0
  1 21  1  0  0  0  0
  2  7  1  6  0  0  0
  2 13  1  0  0  0  0
  2  3  1  0  0  0  0
  3  8  1  1  0  0  0
  3  1  1  0  0  0  0
  4  9  1  0  0  0  0
  4  3  1  0  0  0  0
  5  4  1  0  0  0  0
  6  5  1  0  0  0  0
  6  2  1  0  0  0  0
  6 11  1  0  0  0  0
 10  4  1  0  0  0  0
 12  6  1  0  0  0  0
 14 15  1  0  0  0  0
 16 15  1  0  0  0  0
 17 16  1  0  0  0  0
 18 19  1  0  0  0  0
 18 17  1  0  0  0  0
 19 13  1  1  0  0  0
 19 15  1  0  0  0  0
 21 20  2  6  0  0  0
 21 22  1  0  0  0  0
 21 24  1  0  0  0  0
 23 22  1  0  0  0  0
 25 27  1  0  0  0  0
 25 24  1  0  0  0  0
 26 25  1  0  0  0  0
 28 25  1  0  0  0  0
 28 29  1  0  0  0  0
 29 34  1  0  0  0  0
 30 29  2  0  0  0  0
 30 35  1  0  0  0  0
 31 30  1  0  0  0  0
 32 33  1  0  0  0  0
 32 31  2  0  0  0  0
 33 28  2  0  0  0  0
 36 32  1  0  0  0  0
M  END
>  <minimizedAffinity>
-4.82269955

$$$$

 OpenBabel03272504243D

 36 38  0  0  1  0  0  0  0  0999 V2000
   38.5930   26.3540   33.3580 O   0  0  0  0  0  0  0  0  0  0  0  0
   38.2990   25.5920   35.5350 C   0  0  2  0  0  0  0  0  0  0  0  0
   37.6090   25.9340   34.2290 C   0  0  1  0  0  0  0  0  0  0  0  0
   36.8130   27.1540   34.7180 C   0  0  0  0  0  0  0  0  0  0  0  0
   37.8040   27.8900   35.3470 O   0  0  0  0  0  0  0  0  0  0  0  0
   38.6190   27.0060   36.0380 C   0  0  0  0  0  0  0  0  0  0  0  0
   37.6100   25.0860   36.2360 H   0  0  0  0  0  0  0  0  0  0  0  0
   36.9650   25.1440   33.8400 H   0  0  0  0  0  0  0  0  0  0  0  0
   36.4180   27.7530   33.8680 H   0  0  0  0  0  0  0  0  0  0  0  0
   35.9960   26.8620   35.3730 H   0  0  0  0  0  0  0  0  0  0  0  0
   39.6650   27.1960   35.7560 H   0  0  0  0  0  0  0  0  0  0  0  0
   38.4250   27.0540   37.1300 H   0  0  0  0  0  0  0  0  0  0  0  0
   39.4310   24.8630   35.2470 O   0  0  0  0  0  0  0  0  0  0  0  0
   41.2740   22.6400   35.7120 H   0  0  0  0  0  0  0  0  0  0  0  0
   40.7240   23.2390   36.3660 N   0  0  0  0  0  0  0  0  0  0  0  0
   40.3630   22.3730   37.4950 C   0  0  0  0  0  2  0  0  0  0  0  0
   39.2600   23.1940   38.1340 C   0  0  0  0  0  2  0  0  0  0  0  0
   38.4340   23.5500   36.9000 C   0  0  0  0  0  2  0  0  0  0  0  0
   39.4360   23.5800   35.7630 C   0  0  1  0  0  3  0  0  0  0  0  0
   38.4630   27.0250   30.8420 O   0  0  0  0  0  0  0  0  0  0  0  0
   38.3310   25.8520   31.7720 P   0  0  1  0  0  0  0  0  0  0  0  0
   39.5250   24.6970   31.3380 O   0  0  0  0  0  0  0  0  0  0  0  0
   40.2090   25.1180   30.7840 H   0  0  0  0  0  0  0  0  0  0  0  0
   36.7910   25.1470   31.6350 O   0  0  0  0  0  0  0  0  0  0  0  0
   36.9700   23.9020   31.0620 C   0  0  0  0  0  0  0  0  0  0  0  0
   38.0750   23.8020   30.8910 H   0  0  0  0  0  0  0  0  0  0  0  0
   36.4700   23.8170   30.0610 H   0  0  0  0  0  0  0  0  0  0  0  0
   36.5830   22.7830   31.9500 C   0  0  0  0  0  0  0  0  0  0  0  0
   35.4730   22.0590   31.5850 C   0  0  0  0  0  0  0  0  0  0  0  0
   35.0550   20.9880   32.3800 C   0  0  0  0  0  0  0  0  0  0  0  0
   35.7930   20.7250   33.4960 N   0  0  0  0  0  0  0  0  0  0  0  0
   36.8780   21.4510   33.8320 C   0  0  0  0  0  0  0  0  0  0  0  0
   37.2740   22.4800   33.0600 N   0  0  0  0  0  0  0  0  0  0  0  0
   34.8320   22.1890   30.7310 H   0  0  0  0  0  0  0  0  0  0  0  0
   34.1870   20.3620   32.1650 H   0  0  0  0  0  0  0  0  0  0  0  0
   37.4530   21.2250   34.7230 H   0  0  0  0  0  0  0  0  0  0  0  0
  1  3  1  0  0  0  0
  2  6  1  0  0  0  0
  2  7  1  1  0  0  0
  3  8  1  6  0  0  0
  3  4  1  0  0  0  0
  3  2  1  0  0  0  0
  4  5  1  0  0  0  0
  4 10  1  0  0  0  0
  5  6  1  0  0  0  0
  6 12  1  0  0  0  0
  9  4  1  0  0  0  0
 11  6  1  0  0  0  0
 13  2  1  0  0  0  0
 14 15  1  0  0  0  0
 15 16  1  0  0  0  0
 16 17  1  0  0  0  0
 18 17  1  0  0  0  0
 19 13  1  1  0  0  0
 19 15  1  0  0  0  0
 19 18  1  0  0  0  0
 21 20  2  6  0  0  0
 21  1  1  0  0  0  0
 22 21  1  0  0  0  0
 23 22  1  0  0  0  0
 24 21  1  0  0  0  0
 25 24  1  0  0  0  0
 25 28  1  0  0  0  0
 26 25  1  0  0  0  0
 27 25  1  0  0  0  0
 28 33  1  0  0  0  0
 29 28  2  0  0  0  0
 29 30  1  0  0  0  0
 30 31  2  0  0  0  0
 31 32  1  0  0  0  0
 32 36  1  0  0  0  0
 33 32  2  0  0  0  0
 34 29  1  0  0  0  0
 35 30  1  0  0  0  0
M  END
>  <minimizedAffinity>
-4.73592949

$$$$

 OpenBabel03272504243D

 36 38  0  0  1  0  0  0  0  0999 V2000
   41.0370   24.9100   34.1620 O   0  0  0  0  0  0  0  0  0  0  0  0
   40.7790   23.1470   35.6570 C   0  0  2  0  0  0  0  0  0  0  0  0
   41.4440   24.4860   35.4110 C   0  0  1  0  0  0  0  0  0  0  0  0
   42.8970   23.9940   35.3290 C   0  0  0  0  0  0  0  0  0  0  0  0
   42.7790   22.9510   34.4240 O   0  0  0  0  0  0  0  0  0  0  0  0
   41.6070   22.2670   34.7120 C   0  0  0  0  0  0  0  0  0  0  0  0
   40.9130   22.8150   36.7030 H   0  0  0  0  0  0  0  0  0  0  0  0
   41.2950   25.2160   36.2080 H   0  0  0  0  0  0  0  0  0  0  0  0
   43.5660   24.7660   34.8880 H   0  0  0  0  0  0  0  0  0  0  0  0
   43.2740   23.6940   36.3030 H   0  0  0  0  0  0  0  0  0  0  0  0
   41.0160   22.1760   33.7890 H   0  0  0  0  0  0  0  0  0  0  0  0
   41.8230   21.3000   35.2140 H   0  0  0  0  0  0  0  0  0  0  0  0
   39.4600   23.2430   35.2720 O   0  0  0  0  0  0  0  0  0  0  0  0
   39.1950   21.6260   37.6960 H   0  0  0  0  0  0  0  0  0  0  0  0
   39.2050   22.6590   37.5430 N   0  0  0  0  0  0  0  0  0  0  0  0
   38.3060   23.2230   38.5570 C   0  0  0  0  0  2  0  0  0  0  0  0
   38.0800   24.6090   37.9880 C   0  0  0  0  0  2  0  0  0  0  0  0
   37.7790   24.2620   36.5320 C   0  0  0  0  0  2  0  0  0  0  0  0
   38.5460   22.9800   36.2770 C   0  0  1  0  0  3  0  0  0  0  0  0
   39.8530   26.9060   35.3480 O   0  0  0  0  0  0  0  0  0  0  0  0
   40.6330   26.5430   34.1160 P   0  0  1  0  0  0  0  0  0  0  0  0
   42.0690   27.4840   34.1050 O   0  0  0  0  0  0  0  0  0  0  0  0
   42.2350   27.8480   34.9950 H   0  0  0  0  0  0  0  0  0  0  0  0
   39.7310   26.8780   32.7160 O   0  0  0  0  0  0  0  0  0  0  0  0
   38.4380   27.1460   33.1260 C   0  0  0  0  0  0  0  0  0  0  0  0
   38.2340   28.2040   32.8120 H   0  0  0  0  0  0  0  0  0  0  0  0
   38.3280   27.1030   34.2420 H   0  0  0  0  0  0  0  0  0  0  0  0
   37.4200   26.3070   32.4550 C   0  0  0  0  0  0  0  0  0  0  0  0
   37.5570   24.9450   32.5850 C   0  0  0  0  0  0  0  0  0  0  0  0
   36.6270   24.0980   31.9770 C   0  0  0  0  0  0  0  0  0  0  0  0
   35.6200   24.6910   31.2750 N   0  0  0  0  0  0  0  0  0  0  0  0
   35.5090   26.0290   31.1610 C   0  0  0  0  0  0  0  0  0  0  0  0
   36.4080   26.8390   31.7510 N   0  0  0  0  0  0  0  0  0  0  0  0
   38.3100   24.3890   33.1140 H   0  0  0  0  0  0  0  0  0  0  0  0
   36.6600   23.0080   32.0290 H   0  0  0  0  0  0  0  0  0  0  0  0
   34.7000   26.4820   30.5990 H   0  0  0  0  0  0  0  0  0  0  0  0
  1  3  1  0  0  0  0
  2  7  1  1  0  0  0
  3  2  1  0  0  0  0
  3  8  1  1  0  0  0
  4  3  1  0  0  0  0
  4 10  1  0  0  0  0
  5  6  1  0  0  0  0
  5  4  1  0  0  0  0
  6 12  1  0  0  0  0
  6  2  1  0  0  0  0
  9  4  1  0  0  0  0
 11  6  1  0  0  0  0
 13  2  1  0  0  0  0
 15 14  1  0  0  0  0
 15 16  1  0  0  0  0
 17 16  1  0  0  0  0
 18 17  1  0  0  0  0
 19 13  1  6  0  0  0
 19 18  1  0  0  0  0
 19 15  1  0  0  0  0
 21  1  1  0  0  0  0
 21 20  2  1  0  0  0
 22 21  1  0  0  0  0
 22 23  1  0  0  0  0
 24 25  1  0  0  0  0
 24 21  1  0  0  0  0
 25 27  1  0  0  0  0
 26 25  1  0  0  0  0
 28 29  1  0  0  0  0
 28 25  1  0  0  0  0
 29 34  1  0  0  0  0
 30 35  1  0  0  0  0
 30 29  2  0  0  0  0
 31 30  1  0  0  0  0
 32 31  2  0  0  0  0
 32 33  1  0  0  0  0
 33 28  2  0  0  0  0
 36 32  1  0  0  0  0
M  END
>  <minimizedAffinity>
-4.6307826

$$$$

 OpenBabel03272504243D

 36 38  0  0  1  0  0  0  0  0999 V2000
   36.9170   24.9010   32.7560 O   0  0  0  0  0  0  0  0  0  0  0  0
   37.9000   26.6750   33.8940 C   0  0  2  0  0  0  0  0  0  0  0  0
   38.0220   25.7260   32.7180 C   0  0  1  0  0  0  0  0  0  0  0  0
   39.2540   24.9440   33.1970 C   0  0  0  0  0  0  0  0  0  0  0  0
   38.8790   24.6140   34.4890 O   0  0  0  0  0  0  0  0  0  0  0  0
   38.2340   25.7110   35.0400 C   0  0  0  0  0  0  0  0  0  0  0  0
   38.6540   27.4810   33.8430 H   0  0  0  0  0  0  0  0  0  0  0  0
   38.1870   26.2190   31.7580 H   0  0  0  0  0  0  0  0  0  0  0  0
   39.3910   24.0020   32.6200 H   0  0  0  0  0  0  0  0  0  0  0  0
   40.1570   25.5450   33.1390 H   0  0  0  0  0  0  0  0  0  0  0  0
   37.2670   25.3830   35.4490 H   0  0  0  0  0  0  0  0  0  0  0  0
   38.8870   26.2320   35.7720 H   0  0  0  0  0  0  0  0  0  0  0  0
   36.6020   27.1320   33.9470 O   0  0  0  0  0  0  0  0  0  0  0  0
   35.8690   28.2270   31.3350 H   0  0  0  0  0  0  0  0  0  0  0  0
   35.3960   28.2620   32.2650 N   0  0  0  0  0  0  0  0  0  0  0  0
   34.7130   29.5600   32.3180 C   0  0  0  0  0  2  0  0  0  0  0  0
   34.4370   29.6700   33.8040 C   0  0  0  0  0  2  0  0  0  0  0  0
   35.8040   29.2860   34.3650 C   0  0  0  0  0  2  0  0  0  0  0  0
   36.3960   28.3520   33.3290 C   0  0  1  0  0  3  0  0  0  0  0  0
   35.3150   25.6210   30.8300 O   0  0  0  0  0  0  0  0  0  0  0  0
   36.2960   24.5560   31.2290 P   0  0  1  0  0  0  0  0  0  0  0  0
   37.5740   24.5570   30.0830 O   0  0  0  0  0  0  0  0  0  0  0  0
   37.5660   25.3920   29.5770 H   0  0  0  0  0  0  0  0  0  0  0  0
   35.5510   23.0290   31.2390 O   0  0  0  0  0  0  0  0  0  0  0  0
   36.1930   22.2760   32.2050 C   0  0  0  0  0  0  0  0  0  0  0  0
   35.6440   22.4780   33.1620 H   0  0  0  0  0  0  0  0  0  0  0  0
   37.2570   22.5980   32.3580 H   0  0  0  0  0  0  0  0  0  0  0  0
   36.1040   20.8170   31.9720 C   0  0  0  0  0  0  0  0  0  0  0  0
   35.5410   20.0640   32.9750 C   0  0  0  0  0  0  0  0  0  0  0  0
   35.4260   18.6810   32.8170 C   0  0  0  0  0  0  0  0  0  0  0  0
   35.8930   18.1530   31.6500 N   0  0  0  0  0  0  0  0  0  0  0  0
   36.4410   18.9130   30.6820 C   0  0  0  0  0  0  0  0  0  0  0  0
   36.5480   20.2460   30.8410 N   0  0  0  0  0  0  0  0  0  0  0  0
   35.1480   20.3860   33.9230 H   0  0  0  0  0  0  0  0  0  0  0  0
   34.9940   18.0080   33.5610 H   0  0  0  0  0  0  0  0  0  0  0  0
   36.8060   18.4750   29.7600 H   0  0  0  0  0  0  0  0  0  0  0  0
  2  7  1  6  0  0  0
  2 13  1  0  0  0  0
  2  6  1  0  0  0  0
  3  8  1  6  0  0  0
  3  1  1  0  0  0  0
  3  4  1  0  0  0  0
  3  2  1  0  0  0  0
  4  5  1  0  0  0  0
  5  6  1  0  0  0  0
  6 11  1  0  0  0  0
  6 12  1  0  0  0  0
  9  4  1  0  0  0  0
 10  4  1  0  0  0  0
 14 15  1  0  0  0  0
 15 16  1  0  0  0  0
 15 19  1  0  0  0  0
 16 17  1  0  0  0  0
 17 18  1  0  0  0  0
 19 13  1  1  0  0  0
 19 18  1  0  0  0  0
 21 20  2  6  0  0  0
 21 24  1  0  0  0  0
 21  1  1  0  0  0  0
 22 21  1  0  0  0  0
 23 22  1  0  0  0  0
 24 25  1  0  0  0  0
 25 27  1  0  0  0  0
 25 26  1  0  0  0  0
 28 25  1  0  0  0  0
 28 29  1  0  0  0  0
 29 34  1  0  0  0  0
 30 29  2  0  0  0  0
 30 35  1  0  0  0  0
 31 30  1  0  0  0  0
 32 33  1  0  0  0  0
 32 31  2  0  0  0  0
 33 28  2  0  0  0  0
 36 32  1  0  0  0  0
M  END
>  <minimizedAffinity>
-4.59767103

$$$$

 OpenBabel03272504243D

 36 38  0  0  1  0  0  0  0  0999 V2000
   35.4670   29.3540   31.2500 O   0  0  0  0  0  0  0  0  0  0  0  0
   37.4770   28.2560   31.6560 C   0  0  2  0  0  0  0  0  0  0  0  0
   36.8290   29.5730   31.2760 C   0  0  1  0  0  0  0  0  0  0  0  0
   37.3550   29.6640   29.8350 C   0  0  0  0  0  0  0  0  0  0  0  0
   37.0250   28.4100   29.3470 O   0  0  0  0  0  0  0  0  0  0  0  0
   37.2810   27.4820   30.3460 C   0  0  0  0  0  0  0  0  0  0  0  0
   38.5550   28.3820   31.8670 H   0  0  0  0  0  0  0  0  0  0  0  0
   37.1410   30.4210   31.8880 H   0  0  0  0  0  0  0  0  0  0  0  0
   36.7990   30.4260   29.2440 H   0  0  0  0  0  0  0  0  0  0  0  0
   38.4180   29.8830   29.8100 H   0  0  0  0  0  0  0  0  0  0  0  0
   36.3840   26.8640   30.4930 H   0  0  0  0  0  0  0  0  0  0  0  0
   38.2040   26.9040   30.1260 H   0  0  0  0  0  0  0  0  0  0  0  0
   36.7680   27.7130   32.7040 O   0  0  0  0  0  0  0  0  0  0  0  0
   39.4180   26.4820   32.8440 H   0  0  0  0  0  0  0  0  0  0  0  0
   38.9170   27.1360   33.4850 N   0  0  0  0  0  0  0  0  0  0  0  0
   39.3530   26.7800   34.8410 C   0  0  0  0  0  2  0  0  0  0  0  0
   38.2880   27.4720   35.6670 C   0  0  0  0  0  2  0  0  0  0  0  0
   37.0320   27.0290   34.9210 C   0  0  0  0  0  2  0  0  0  0  0  0
   37.4860   26.8290   33.4890 C   0  0  1  0  0  3  0  0  0  0  0  0
   35.5130   31.7020   32.3800 O   0  0  0  0  0  0  0  0  0  0  0  0
   34.5810   30.6080   31.9400 P   0  0  1  0  0  0  0  0  0  0  0  0
   33.5150   31.2640   30.7650 O   0  0  0  0  0  0  0  0  0  0  0  0
   33.8780   32.1000   30.4160 H   0  0  0  0  0  0  0  0  0  0  0  0
   33.6780   30.0240   33.2550 O   0  0  0  0  0  0  0  0  0  0  0  0
   34.5540   29.8950   34.3160 C   0  0  0  0  0  0  0  0  0  0  0  0
   35.5520   30.2330   33.9300 H   0  0  0  0  0  0  0  0  0  0  0  0
   34.6700   28.8280   34.6450 H   0  0  0  0  0  0  0  0  0  0  0  0
   34.2290   30.7750   35.4610 C   0  0  0  0  0  0  0  0  0  0  0  0
   32.9600   30.6740   35.9780 C   0  0  0  0  0  0  0  0  0  0  0  0
   32.5900   31.4770   37.0600 C   0  0  0  0  0  0  0  0  0  0  0  0
   33.5350   32.3310   37.5450 N   0  0  0  0  0  0  0  0  0  0  0  0
   34.7730   32.4120   37.0190 C   0  0  0  0  0  0  0  0  0  0  0  0
   35.1220   31.6340   35.9770 N   0  0  0  0  0  0  0  0  0  0  0  0
   32.1520   30.0360   35.6670 H   0  0  0  0  0  0  0  0  0  0  0  0
   31.6050   31.4620   37.5320 H   0  0  0  0  0  0  0  0  0  0  0  0
   35.5120   33.0980   37.4190 H   0  0  0  0  0  0  0  0  0  0  0  0
  1  3  1  0  0  0  0
  1 21  1  0  0  0  0
  2  7  1  1  0  0  0
  2 13  1  0  0  0  0
  3  2  1  0  0  0  0
  3  8  1  1  0  0  0
  4  3  1  0  0  0  0
  5  4  1  0  0  0  0
  5  6  1  0  0  0  0
  6 11  1  0  0  0  0
  6  2  1  0  0  0  0
  9  4  1  0  0  0  0
 10  4  1  0  0  0  0
 12  6  1  0  0  0  0
 14 15  1  0  0  0  0
 15 19  1  0  0  0  0
 15 16  1  0  0  0  0
 16 17  1  0  0  0  0
 18 17  1  0  0  0  0
 19 13  1  6  0  0  0
 19 18  1  0  0  0  0
 21 20  2  1  0  0  0
 21 24  1  0  0  0  0
 22 21  1  0  0  0  0
 23 22  1  0  0  0  0
 24 25  1  0  0  0  0
 25 27  1  0  0  0  0
 25 28  1  0  0  0  0
 26 25  1  0  0  0  0
 28 33  2  0  0  0  0
 28 29  1  0  0  0  0
 29 30  2  0  0  0  0
 30 35  1  0  0  0  0
 30 31  1  0  0  0  0
 32 36  1  0  0  0  0
 32 31  2  0  0  0  0
 33 32  1  0  0  0  0
 34 29  1  0  0  0  0
M  END
>  <minimizedAffinity>
-4.58492804

$$$$

 OpenBabel03272504243D

 36 38  0  0  1  0  0  0  0  0999 V2000
   39.5180   25.5380   34.1010 O   0  0  0  0  0  0  0  0  0  0  0  0
   37.9500   27.2040   33.6860 C   0  0  2  0  0  0  0  0  0  0  0  0
   39.3440   26.9020   34.2000 C   0  0  1  0  0  0  0  0  0  0  0  0
   39.1170   27.2780   35.6720 C   0  0  0  0  0  0  0  0  0  0  0  0
   37.9600   26.5700   35.9570 O   0  0  0  0  0  0  0  0  0  0  0  0
   37.1190   26.6680   34.8590 C   0  0  0  0  0  0  0  0  0  0  0  0
   37.7870   28.2910   33.5690 H   0  0  0  0  0  0  0  0  0  0  0  0
   40.1320   27.4960   33.7350 H   0  0  0  0  0  0  0  0  0  0  0  0
   39.9320   26.8930   36.3230 H   0  0  0  0  0  0  0  0  0  0  0  0
   39.0200   28.3530   35.8010 H   0  0  0  0  0  0  0  0  0  0  0  0
   36.8020   25.6560   34.5660 H   0  0  0  0  0  0  0  0  0  0  0  0
   36.2810   27.3690   35.0590 H   0  0  0  0  0  0  0  0  0  0  0  0
   37.7530   26.4870   32.5260 O   0  0  0  0  0  0  0  0  0  0  0  0
   35.0290   27.0140   31.5990 H   0  0  0  0  0  0  0  0  0  0  0  0
   35.7530   26.3300   31.2860 N   0  0  0  0  0  0  0  0  0  0  0  0
   35.0160   25.1380   30.8500 C   0  0  0  0  0  2  0  0  0  0  0  0
   36.1320   24.1130   30.8270 C   0  0  0  0  0  2  0  0  0  0  0  0
   36.7860   24.3900   32.1790 C   0  0  0  0  0  2  0  0  0  0  0  0
   36.5230   25.8600   32.4380 C   0  0  1  0  0  3  0  0  0  0  0  0
   41.6740   25.2160   32.6710 O   0  0  0  0  0  0  0  0  0  0  0  0
   41.1380   25.0780   34.0680 P   0  0  1  0  0  0  0  0  0  0  0  0
   42.0450   26.1210   35.0870 O   0  0  0  0  0  0  0  0  0  0  0  0
   42.5220   26.7810   34.5480 H   0  0  0  0  0  0  0  0  0  0  0  0
   41.2970   23.4780   34.6160 O   0  0  0  0  0  0  0  0  0  0  0  0
   40.9550   23.4780   35.9560 C   0  0  0  0  0  0  0  0  0  0  0  0
   41.0550   24.5440   36.2950 H   0  0  0  0  0  0  0  0  0  0  0  0
   41.6620   22.8650   36.5760 H   0  0  0  0  0  0  0  0  0  0  0  0
   39.5490   23.0900   36.2060 C   0  0  0  0  0  0  0  0  0  0  0  0
   38.9720   23.5670   37.3590 C   0  0  0  0  0  0  0  0  0  0  0  0
   37.6460   23.2380   37.6530 C   0  0  0  0  0  0  0  0  0  0  0  0
   36.9940   22.4450   36.7560 N   0  0  0  0  0  0  0  0  0  0  0  0
   37.5830   21.9890   35.6330 C   0  0  0  0  0  0  0  0  0  0  0  0
   38.8610   22.3110   35.3570 N   0  0  0  0  0  0  0  0  0  0  0  0
   39.4000   24.1930   38.1210 H   0  0  0  0  0  0  0  0  0  0  0  0
   37.1110   23.5720   38.5440 H   0  0  0  0  0  0  0  0  0  0  0  0
   37.0490   21.3590   34.9320 H   0  0  0  0  0  0  0  0  0  0  0  0
  1  3  1  0  0  0  0
  2  7  1  6  0  0  0
  2  3  1  0  0  0  0
  2  6  1  0  0  0  0
  3  8  1  6  0  0  0
  3  4  1  0  0  0  0
  4 10  1  0  0  0  0
  4  5  1  0  0  0  0
  4  9  1  0  0  0  0
  6 12  1  0  0  0  0
  6  5  1  0  0  0  0
 11  6  1  0  0  0  0
 13  2  1  0  0  0  0
 15 14  1  0  0  0  0
 15 19  1  0  0  0  0
 16 15  1  0  0  0  0
 17 16  1  0  0  0  0
 17 18  1  0  0  0  0
 18 19  1  0  0  0  0
 19 13  1  6  0  0  0
 21 20  2  6  0  0  0
 21  1  1  0  0  0  0
 21 24  1  0  0  0  0
 21 22  1  0  0  0  0
 23 22  1  0  0  0  0
 24 25  1  0  0  0  0
 25 28  1  0  0  0  0
 25 26  1  0  0  0  0
 25 27  1  0  0  0  0
 28 29  1  0  0  0  0
 29 30  2  0  0  0  0
 29 34  1  0  0  0  0
 30 35  1  0  0  0  0
 31 30  1  0  0  0  0
 32 31  2  0  0  0  0
 33 32  1  0  0  0  0
 33 28  2  0  0  0  0
 36 32  1  0  0  0  0
M  END
>  <minimizedAffinity>
-4.52661324

$$$$

 OpenBabel03272504243D

 36 38  0  0  1  0  0  0  0  0999 V2000
   37.9300   24.9440   35.4170 O   0  0  0  0  0  0  0  0  0  0  0  0
   37.9050   26.4870   33.6760 C   0  0  2  0  0  0  0  0  0  0  0  0
   38.7680   25.7700   34.6960 C   0  0  1  0  0  0  0  0  0  0  0  0
   39.1420   26.9870   35.5560 C   0  0  0  0  0  0  0  0  0  0  0  0
   37.8980   27.5530   35.7800 O   0  0  0  0  0  0  0  0  0  0  0  0
   37.1720   27.4680   34.6010 C   0  0  0  0  0  0  0  0  0  0  0  0
   38.5200   27.0410   32.9440 H   0  0  0  0  0  0  0  0  0  0  0  0
   39.6420   25.2720   34.2740 H   0  0  0  0  0  0  0  0  0  0  0  0
   39.5680   26.6790   36.5370 H   0  0  0  0  0  0  0  0  0  0  0  0
   39.8400   27.6410   35.0410 H   0  0  0  0  0  0  0  0  0  0  0  0
   36.1980   27.0070   34.8180 H   0  0  0  0  0  0  0  0  0  0  0  0
   37.1070   28.4580   34.1000 H   0  0  0  0  0  0  0  0  0  0  0  0
   37.0570   25.5650   33.1040 O   0  0  0  0  0  0  0  0  0  0  0  0
   38.6970   26.5580   30.8940 H   0  0  0  0  0  0  0  0  0  0  0  0
   38.5180   25.5940   31.2520 N   0  0  0  0  0  0  0  0  0  0  0  0
   38.5520   24.7170   30.0760 C   0  0  0  0  0  2  0  0  0  0  0  0
   37.8860   23.4750   30.6350 C   0  0  0  0  0  2  0  0  0  0  0  0
   36.6770   24.1010   31.3250 C   0  0  0  0  0  2  0  0  0  0  0  0
   37.1370   25.4880   31.7250 C   0  0  1  0  0  3  0  0  0  0  0  0
   40.0260   23.5140   36.0120 O   0  0  0  0  0  0  0  0  0  0  0  0
   38.5680   23.4060   35.6640 P   0  0  1  0  0  0  0  0  0  0  0  0
   37.7630   22.6630   36.9860 O   0  0  0  0  0  0  0  0  0  0  0  0
   38.3230   22.7070   37.7840 H   0  0  0  0  0  0  0  0  0  0  0  0
   38.3530   22.4590   34.2700 O   0  0  0  0  0  0  0  0  0  0  0  0
   37.1970   21.7250   34.4590 C   0  0  0  0  0  0  0  0  0  0  0  0
   36.3880   22.4770   34.6580 H   0  0  0  0  0  0  0  0  0  0  0  0
   37.2580   21.0580   35.3600 H   0  0  0  0  0  0  0  0  0  0  0  0
   36.7760   20.9670   33.2600 C   0  0  0  0  0  0  0  0  0  0  0  0
   35.4230   20.8300   33.0580 C   0  0  0  0  0  0  0  0  0  0  0  0
   34.9590   20.1260   31.9440 C   0  0  0  0  0  0  0  0  0  0  0  0
   35.9020   19.6070   31.1070 N   0  0  0  0  0  0  0  0  0  0  0  0
   37.2230   19.7550   31.3270 C   0  0  0  0  0  0  0  0  0  0  0  0
   37.6620   20.4350   32.4040 N   0  0  0  0  0  0  0  0  0  0  0  0
   34.6090   21.2000   33.6570 H   0  0  0  0  0  0  0  0  0  0  0  0
   33.9050   19.9690   31.7080 H   0  0  0  0  0  0  0  0  0  0  0  0
   37.9580   19.3350   30.6500 H   0  0  0  0  0  0  0  0  0  0  0  0
  1 21  1  0  0  0  0
  2  7  1  6  0  0  0
  2  6  1  0  0  0  0
  2  3  1  0  0  0  0
  3  8  1  6  0  0  0
  3  1  1  0  0  0  0
  3  4  1  0  0  0  0
  4  5  1  0  0  0  0
  4  9  1  0  0  0  0
  6 11  1  0  0  0  0
  6  5  1  0  0  0  0
 10  4  1  0  0  0  0
 12  6  1  0  0  0  0
 13  2  1  0  0  0  0
 14 15  1  0  0  0  0
 15 19  1  0  0  0  0
 16 17  1  0  0  0  0
 16 15  1  0  0  0  0
 17 18  1  0  0  0  0
 18 19  1  0  0  0  0
 19 13  1  1  0  0  0
 21 20  2  1  0  0  0
 21 22  1  0  0  0  0
 22 23  1  0  0  0  0
 24 25  1  0  0  0  0
 24 21  1  0  0  0  0
 25 26  1  0  0  0  0
 25 27  1  0  0  0  0
 28 25  1  0  0  0  0
 29 28  1  0  0  0  0
 29 34  1  0  0  0  0
 30 29  2  0  0  0  0
 31 32  2  0  0  0  0
 31 30  1  0  0  0  0
 32 33  1  0  0  0  0
 33 28  2  0  0  0  0
 35 30  1  0  0  0  0
 36 32  1  0  0  0  0
M  END
>  <minimizedAffinity>
-4.46994448

$$$$
