
 OpenBabel03272509453D

 16 17  0  0  1  0  0  0  0  0999 V2000
   37.8540   30.0970   50.2350 C   0  0  0  0  0  0  0  0  0  0  0  0
   38.5530   31.3190   50.3680 C   0  0  0  0  0  0  0  0  0  0  0  0
   38.4870   32.2420   49.3100 C   0  0  0  0  0  0  0  0  0  0  0  0
   37.7450   31.9030   48.2040 N   0  0  0  0  0  0  0  0  0  0  0  0
   37.0930   30.7150   48.1250 C   0  0  0  0  0  0  0  0  0  0  0  0
   37.1450   29.8180   49.1280 N   0  0  0  0  0  0  0  0  0  0  0  0
   37.8450   29.3320   50.9850 H   0  0  0  0  0  0  0  0  0  0  0  0
   39.0900   31.4630   51.2740 H   0  0  0  0  0  0  0  0  0  0  0  0
   39.0150   33.1600   49.4180 H   0  0  0  0  0  0  0  0  0  0  0  0
   36.4170   30.5910   46.9300 O   0  0  0  0  0  0  0  0  0  0  0  0
   38.7680   30.0060   46.4530 H   0  0  0  0  0  0  0  0  0  0  0  0
   38.4460   30.6180   45.6670 N   0  0  0  0  0  0  0  0  0  0  0  0
   38.5940   29.9420   44.4030 C   0  0  0  0  0  2  0  0  0  0  0  0
   37.2150   29.3920   44.1530 C   0  0  0  0  0  2  0  0  0  0  0  0
   36.3250   30.5390   44.5890 C   0  0  0  0  0  2  0  0  0  0  0  0
   37.1000   31.0800   45.7820 C   0  0  1  0  0  3  0  0  0  0  0  0
  1  2  1  0  0  0  0
  1  7  1  0  0  0  0
  2  8  1  0  0  0  0
  3  9  1  0  0  0  0
  3  2  2  0  0  0  0
  4  3  1  0  0  0  0
  5  4  2  0  0  0  0
  5  6  1  0  0  0  0
  6  1  2  0  0  0  0
 10  5  1  0  0  0  0
 12 16  1  0  0  0  0
 12 11  1  0  0  0  0
 13 12  1  0  0  0  0
 14 13  1  0  0  0  0
 14 15  1  0  0  0  0
 15 16  1  0  0  0  0
 16 10  1  1  0  0  0
M  END
>  <minimizedAffinity>
-3.20554543

>  <minimizedRMSD>
5.48859262

$$$$
