
 OpenBabel03272504213D

 36 38  0  0  1  0  0  0  0  0999 V2000
   36.8430   31.5960   48.7280 O   0  0  0  0  0  0  0  0  0  0  0  0
   38.8290   32.4150   47.8340 C   0  0  2  0  0  0  0  0  0  0  0  0
   38.2070   31.3900   48.7630 C   0  0  1  0  0  0  0  0  0  0  0  0
   38.7660   31.9310   50.0880 C   0  0  0  0  0  0  0  0  0  0  0  0
   38.4320   33.2720   49.9950 O   0  0  0  0  0  0  0  0  0  0  0  0
   38.6530   33.6780   48.6870 C   0  0  0  0  0  0  0  0  0  0  0  0
   39.9030   32.2130   47.6700 H   0  0  0  0  0  0  0  0  0  0  0  0
   38.5150   30.3620   48.5690 H   0  0  0  0  0  0  0  0  0  0  0  0
   38.2340   31.4980   50.9640 H   0  0  0  0  0  0  0  0  0  0  0  0
   39.8330   31.7470   50.1770 H   0  0  0  0  0  0  0  0  0  0  0  0
   37.7440   34.1710   48.3120 H   0  0  0  0  0  0  0  0  0  0  0  0
   39.5720   34.2970   48.6110 H   0  0  0  0  0  0  0  0  0  0  0  0
   38.0880   32.4510   46.6740 O   0  0  0  0  0  0  0  0  0  0  0  0
   40.7310   31.5620   45.7920 H   0  0  0  0  0  0  0  0  0  0  0  0
   39.7720   31.2040   45.5920 N   0  0  0  0  0  0  0  0  0  0  0  0
   39.8160   30.6890   44.2190 C   0  0  0  0  0  2  0  0  0  0  0  0
   38.3360   30.5970   43.9080 C   0  0  0  0  0  2  0  0  0  0  0  0
   37.8680   31.9630   44.4000 C   0  0  0  0  0  2  0  0  0  0  0  0
   38.8300   32.3220   45.5140 C   0  0  1  0  0  3  0  0  0  0  0  0
   35.9150   29.8830   46.9960 O   0  0  0  0  0  0  0  0  0  0  0  0
   35.9660   30.1830   48.4680 P   0  0  1  0  0  0  0  0  0  0  0  0
   36.7570   28.8730   49.2460 O   0  0  0  0  0  0  0  0  0  0  0  0
   37.2490   28.3430   48.5900 H   0  0  0  0  0  0  0  0  0  0  0  0
   34.3980   30.3490   49.1010 O   0  0  0  0  0  0  0  0  0  0  0  0
   34.1320   29.1980   49.8190 C   0  0  0  0  0  0  0  0  0  0  0  0
   33.5470   29.5300   50.7180 H   0  0  0  0  0  0  0  0  0  0  0  0
   35.0680   28.7050   50.1960 H   0  0  0  0  0  0  0  0  0  0  0  0
   33.2740   28.2350   49.0940 C   0  0  0  0  0  0  0  0  0  0  0  0
   33.9090   27.3530   48.2520 C   0  0  0  0  0  0  0  0  0  0  0  0
   33.1560   26.4170   47.5390 C   0  0  0  0  0  0  0  0  0  0  0  0
   31.8060   26.4400   47.7280 N   0  0  0  0  0  0  0  0  0  0  0  0
   31.2070   27.3150   48.5590 C   0  0  0  0  0  0  0  0  0  0  0  0
   31.9400   28.2140   49.2430 N   0  0  0  0  0  0  0  0  0  0  0  0
   34.9590   27.2580   48.0390 H   0  0  0  0  0  0  0  0  0  0  0  0
   33.5770   25.6810   46.8500 H   0  0  0  0  0  0  0  0  0  0  0  0
   30.1320   27.3180   48.6960 H   0  0  0  0  0  0  0  0  0  0  0  0
  1  3  1  0  0  0  0
  2  7  1  6  0  0  0
  2  6  1  0  0  0  0
  2  3  1  0  0  0  0
  3  8  1  6  0  0  0
  3  4  1  0  0  0  0
  4 10  1  0  0  0  0
  4  9  1  0  0  0  0
  5  4  1  0  0  0  0
  6  5  1  0  0  0  0
 11  6  1  0  0  0  0
 12  6  1  0  0  0  0
 13  2  1  0  0  0  0
 15 14  1  0  0  0  0
 16 15  1  0  0  0  0
 17 16  1  0  0  0  0
 17 18  1  0  0  0  0
 18 19  1  0  0  0  0
 19 15  1  0  0  0  0
 19 13  1  1  0  0  0
 21 20  2  6  0  0  0
 21  1  1  0  0  0  0
 21 24  1  0  0  0  0
 21 22  1  0  0  0  0
 23 22  1  0  0  0  0
 24 25  1  0  0  0  0
 25 27  1  0  0  0  0
 25 26  1  0  0  0  0
 28 33  1  0  0  0  0
 28 25  1  0  0  0  0
 29 28  2  0  0  0  0
 30 31  2  0  0  0  0
 30 29  1  0  0  0  0
 31 32  1  0  0  0  0
 32 36  1  0  0  0  0
 32 33  2  0  0  0  0
 34 29  1  0  0  0  0
 35 30  1  0  0  0  0
M  END
>  <minimizedAffinity>
-4.45084238

>  <minimizedRMSD>
0.0955478251

$$$$
