
 OpenBabel03272509453D

 16 17  0  0  1  0  0  0  0  0999 V2000
   37.7920   32.2890   48.7700 C   0  0  0  0  0  0  0  0  0  0  0  0
   38.2860   33.0550   49.8510 C   0  0  0  0  0  0  0  0  0  0  0  0
   39.3540   33.9360   49.6110 C   0  0  0  0  0  0  0  0  0  0  0  0
   39.8600   34.0020   48.3340 N   0  0  0  0  0  0  0  0  0  0  0  0
   39.3500   33.2440   47.3300 C   0  0  0  0  0  0  0  0  0  0  0  0
   38.3270   32.3940   47.5420 N   0  0  0  0  0  0  0  0  0  0  0  0
   36.9830   31.5920   48.8550 H   0  0  0  0  0  0  0  0  0  0  0  0
   37.8090   32.9130   50.7910 H   0  0  0  0  0  0  0  0  0  0  0  0
   39.7200   34.5090   50.4290 H   0  0  0  0  0  0  0  0  0  0  0  0
   40.0090   33.4730   46.1410 O   0  0  0  0  0  0  0  0  0  0  0  0
   39.5500   31.1820   46.9420 H   0  0  0  0  0  0  0  0  0  0  0  0
   40.1910   31.0900   46.1190 N   0  0  0  0  0  0  0  0  0  0  0  0
   39.5930   30.2650   45.0990 C   0  0  0  0  0  2  0  0  0  0  0  0
   38.9990   31.2770   44.1540 C   0  0  0  0  0  2  0  0  0  0  0  0
   40.0820   32.3360   44.0930 C   0  0  0  0  0  2  0  0  0  0  0  0
   40.5880   32.3280   45.5260 C   0  0  1  0  0  3  0  0  0  0  0  0
  1  7  1  0  0  0  0
  1  2  1  0  0  0  0
  2  8  1  0  0  0  0
  3  2  2  0  0  0  0
  3  9  1  0  0  0  0
  4  3  1  0  0  0  0
  5  6  1  0  0  0  0
  5  4  2  0  0  0  0
  6  1  2  0  0  0  0
 10  5  1  0  0  0  0
 12 11  1  0  0  0  0
 13 12  1  0  0  0  0
 14 13  1  0  0  0  0
 15 14  1  0  0  0  0
 15 16  1  0  0  0  0
 16 12  1  0  0  0  0
 16 10  1  1  0  0  0
M  END
>  <minimizedAffinity>
-3.54259324

>  <minimizedRMSD>
7.38818502

$$$$
