
 OpenBabel03272504213D

 36 38  0  0  1  0  0  0  0  0999 V2000
   36.8600   31.6110   48.6500 O   0  0  0  0  0  0  0  0  0  0  0  0
   38.8740   32.4550   47.8510 C   0  0  2  0  0  0  0  0  0  0  0  0
   38.2220   31.4050   48.7290 C   0  0  1  0  0  0  0  0  0  0  0  0
   38.7320   31.9120   50.0870 C   0  0  0  0  0  0  0  0  0  0  0  0
   38.3980   33.2550   50.0170 O   0  0  0  0  0  0  0  0  0  0  0  0
   38.6650   33.6960   48.7290 C   0  0  0  0  0  0  0  0  0  0  0  0
   39.9540   32.2590   47.7200 H   0  0  0  0  0  0  0  0  0  0  0  0
   38.5400   30.3830   48.5190 H   0  0  0  0  0  0  0  0  0  0  0  0
   38.1710   31.4550   50.9310 H   0  0  0  0  0  0  0  0  0  0  0  0
   39.7960   31.7270   50.2090 H   0  0  0  0  0  0  0  0  0  0  0  0
   37.7690   34.1960   48.3340 H   0  0  0  0  0  0  0  0  0  0  0  0
   39.5850   34.3170   48.7020 H   0  0  0  0  0  0  0  0  0  0  0  0
   38.1760   32.5210   46.6660 O   0  0  0  0  0  0  0  0  0  0  0  0
   37.6440   30.2150   44.9470 H   0  0  0  0  0  0  0  0  0  0  0  0
   37.7440   31.2320   44.7380 N   0  0  0  0  0  0  0  0  0  0  0  0
   38.3570   31.3090   43.4070 C   0  0  0  0  0  2  0  0  0  0  0  0
   38.8250   32.7500   43.3970 C   0  0  0  0  0  2  0  0  0  0  0  0
   39.4990   32.8270   44.7650 C   0  0  0  0  0  2  0  0  0  0  0  0
   38.7510   31.8240   45.6190 C   0  0  1  0  0  3  0  0  0  0  0  0
   35.9580   29.8750   46.9280 O   0  0  0  0  0  0  0  0  0  0  0  0
   35.9910   30.1910   48.3960 P   0  0  1  0  0  0  0  0  0  0  0  0
   36.7760   28.8930   49.1990 O   0  0  0  0  0  0  0  0  0  0  0  0
   37.2770   28.3580   48.5550 H   0  0  0  0  0  0  0  0  0  0  0  0
   34.4150   30.3600   49.0090 O   0  0  0  0  0  0  0  0  0  0  0  0
   34.1540   29.2290   49.7600 C   0  0  0  0  0  0  0  0  0  0  0  0
   33.5730   29.5850   50.6520 H   0  0  0  0  0  0  0  0  0  0  0  0
   35.0920   28.7480   50.1450 H   0  0  0  0  0  0  0  0  0  0  0  0
   33.2930   28.2450   49.0670 C   0  0  0  0  0  0  0  0  0  0  0  0
   33.9230   27.3500   48.2350 C   0  0  0  0  0  0  0  0  0  0  0  0
   33.1670   26.3940   47.5520 C   0  0  0  0  0  0  0  0  0  0  0  0
   31.8190   26.4130   47.7570 N   0  0  0  0  0  0  0  0  0  0  0  0
   31.2260   27.3020   48.5770 C   0  0  0  0  0  0  0  0  0  0  0  0
   31.9610   28.2190   49.2330 N   0  0  0  0  0  0  0  0  0  0  0  0
   34.9700   27.2570   48.0110 H   0  0  0  0  0  0  0  0  0  0  0  0
   33.5840   25.6470   46.8740 H   0  0  0  0  0  0  0  0  0  0  0  0
   30.1520   27.3000   48.7290 H   0  0  0  0  0  0  0  0  0  0  0  0
  1  3  1  0  0  0  0
  2  7  1  6  0  0  0
  2  3  1  0  0  0  0
  2  6  1  0  0  0  0
  3  8  1  6  0  0  0
  3  4  1  0  0  0  0
  4 10  1  0  0  0  0
  4  9  1  0  0  0  0
  5  4  1  0  0  0  0
  6  5  1  0  0  0  0
 11  6  1  0  0  0  0
 12  6  1  0  0  0  0
 13  2  1  0  0  0  0
 15 14  1  0  0  0  0
 15 19  1  0  0  0  0
 16 15  1  0  0  0  0
 17 16  1  0  0  0  0
 17 18  1  0  0  0  0
 18 19  1  0  0  0  0
 19 13  1  1  0  0  0
 21 20  2  6  0  0  0
 21  1  1  0  0  0  0
 21 24  1  0  0  0  0
 21 22  1  0  0  0  0
 23 22  1  0  0  0  0
 24 25  1  0  0  0  0
 25 27  1  0  0  0  0
 25 26  1  0  0  0  0
 28 33  1  0  0  0  0
 28 25  1  0  0  0  0
 29 28  2  0  0  0  0
 30 31  2  0  0  0  0
 30 29  1  0  0  0  0
 31 32  1  0  0  0  0
 32 36  1  0  0  0  0
 32 33  2  0  0  0  0
 34 29  1  0  0  0  0
 35 30  1  0  0  0  0
M  END
>  <minimizedAffinity>
-4.3737812

>  <minimizedRMSD>
0.381959289

$$$$
