
 OpenBabel03262521363D

 34 37  0  0  1  0  0  0  0  0999 V2000
   37.1540   25.4710   32.2550 C   0  0  1  0  0  0  0  0  0  0  0  0
   37.4670   26.5430   33.2020 C   0  0  2  0  0  0  0  0  0  0  0  0
   38.2120   27.5630   32.3220 C   0  0  0  0  0  0  0  0  0  0  0  0
   38.9670   26.7480   31.5340 O   0  0  0  0  0  0  0  0  0  0  0  0
   38.2940   25.5840   31.2310 C   0  0  0  0  0  0  0  0  0  0  0  0
   36.2500   25.6950   31.6560 H   0  0  0  0  0  0  0  0  0  0  0  0
   36.5500   27.0620   33.5350 H   0  0  0  0  0  0  0  0  0  0  0  0
   37.4710   28.2040   31.7800 H   0  0  0  0  0  0  0  0  0  0  0  0
   38.8170   28.1800   33.0060 H   0  0  0  0  0  0  0  0  0  0  0  0
   39.0010   24.7440   31.4590 H   0  0  0  0  0  0  0  0  0  0  0  0
   37.9410   25.5140   30.1980 H   0  0  0  0  0  0  0  0  0  0  0  0
   37.6970   25.7880   35.6950 C   0  0  1  0  0  0  0  0  0  0  0  0
   38.1950   27.1330   35.5580 C   0  0  0  0  0  0  0  0  0  0  0  0
   38.3600   26.1670   34.3690 C   0  0  2  0  0  0  0  0  0  0  0  0
   36.5840   25.6180   35.6010 H   0  0  0  0  0  0  0  0  0  0  0  0
   37.5270   28.0030   35.4490 H   0  0  0  0  0  0  0  0  0  0  0  0
   39.1890   27.4500   35.9700 H   0  0  0  0  0  0  0  0  0  0  0  0
   39.3430   25.7670   34.1280 H   0  0  0  0  0  0  0  0  0  0  0  0
   38.7380   23.3840   38.3680 C   0  0  0  0  0  0  0  0  0  0  0  0
   38.0250   24.3700   37.7000 C   0  0  0  0  0  0  0  0  0  0  0  0
   38.4110   24.7330   36.4220 C   0  0  0  0  0  0  0  0  0  0  0  0
   39.4970   24.0850   35.8800 N   0  0  0  0  0  0  0  0  0  0  0  0
   40.1850   23.1250   36.5400 C   0  0  0  0  0  0  0  0  0  0  0  0
   39.7950   22.7710   37.8080 N   0  0  0  0  0  0  0  0  0  0  0  0
   38.5100   23.0380   39.3600 H   0  0  0  0  0  0  0  0  0  0  0  0
   37.2050   24.7900   38.2320 H   0  0  0  0  0  0  0  0  0  0  0  0
   41.0310   22.6780   36.0130 H   0  0  0  0  0  0  0  0  0  0  0  0
   37.1260   24.1950   32.8170 O   0  0  0  0  0  0  0  0  0  0  0  0
   38.1190   21.5810   31.2410 H   0  0  0  0  0  0  0  0  0  0  0  0
   37.6470   22.0190   32.0620 N   0  0  0  0  0  0  0  0  0  0  0  0
   36.5350   21.1540   32.4660 C   0  0  0  0  0  2  0  0  0  0  0  0
   35.5270   21.4990   31.3940 C   0  0  0  0  0  2  0  0  0  0  0  0
   35.6240   23.0220   31.3590 C   0  0  0  0  0  2  0  0  0  0  0  0
   37.0360   23.2920   31.7520 C   0  0  1  0  0  3  0  0  0  0  0  0
  1  6  1  6  0  0  0
  1 28  1  0  0  0  0
  1  2  1  0  0  0  0
  2  7  1  1  0  0  0
  2 14  1  0  0  0  0
  3  9  1  0  0  0  0
  3  2  1  0  0  0  0
  4  3  1  0  0  0  0
  5 10  1  0  0  0  0
  5  4  1  0  0  0  0
  5  1  1  0  0  0  0
  8  3  1  0  0  0  0
 11  5  1  0  0  0  0
 12 15  1  6  0  0  0
 12 21  1  0  0  0  0
 13 12  1  0  0  0  0
 13 17  1  0  0  0  0
 14 18  1  6  0  0  0
 14 13  1  0  0  0  0
 14 12  1  0  0  0  0
 16 13  1  0  0  0  0
 19 25  1  0  0  0  0
 20 26  1  0  0  0  0
 20 19  2  0  0  0  0
 21 20  1  0  0  0  0
 22 21  2  0  0  0  0
 22 23  1  0  0  0  0
 23 24  2  0  0  0  0
 24 19  1  0  0  0  0
 27 23  1  0  0  0  0
 29 30  1  0  0  0  0
 30 31  1  0  0  0  0
 32 31  1  0  0  0  0
 33 32  1  0  0  0  0
 33 34  1  0  0  0  0
 34 30  1  0  0  0  0
 34 28  1  1  0  0  0
M  END
>  <minimizedAffinity>
-5.06557655

$$$$

 OpenBabel03262521363D

 34 37  0  0  1  0  0  0  0  0999 V2000
   37.1230   25.4780   32.2400 C   0  0  1  0  0  0  0  0  0  0  0  0
   37.4180   26.5540   33.1880 C   0  0  2  0  0  0  0  0  0  0  0  0
   38.1350   27.5910   32.3060 C   0  0  0  0  0  0  0  0  0  0  0  0
   38.9020   26.7960   31.5110 O   0  0  0  0  0  0  0  0  0  0  0  0
   38.2530   25.6180   31.2090 C   0  0  0  0  0  0  0  0  0  0  0  0
   36.2100   25.6830   31.6470 H   0  0  0  0  0  0  0  0  0  0  0  0
   36.4910   27.0520   33.5280 H   0  0  0  0  0  0  0  0  0  0  0  0
   37.3770   28.2180   31.7710 H   0  0  0  0  0  0  0  0  0  0  0  0
   38.7300   28.2200   32.9890 H   0  0  0  0  0  0  0  0  0  0  0  0
   38.9790   24.7930   31.4300 H   0  0  0  0  0  0  0  0  0  0  0  0
   37.8950   25.5430   30.1780 H   0  0  0  0  0  0  0  0  0  0  0  0
   37.6800   25.8110   35.6810 C   0  0  1  0  0  0  0  0  0  0  0  0
   38.1590   27.1620   35.5350 C   0  0  0  0  0  0  0  0  0  0  0  0
   38.3260   26.1940   34.3490 C   0  0  2  0  0  0  0  0  0  0  0  0
   36.5680   25.6250   35.5980 H   0  0  0  0  0  0  0  0  0  0  0  0
   37.4770   28.0220   35.4290 H   0  0  0  0  0  0  0  0  0  0  0  0
   39.1520   27.4940   35.9370 H   0  0  0  0  0  0  0  0  0  0  0  0
   39.3120   25.8070   34.1000 H   0  0  0  0  0  0  0  0  0  0  0  0
   40.1340   23.1120   36.5180 C   0  0  0  0  0  0  0  0  0  0  0  0
   39.4760   24.1090   35.8120 C   0  0  0  0  0  0  0  0  0  0  0  0
   38.4150   24.7690   36.4060 C   0  0  0  0  0  0  0  0  0  0  0  0
   38.0710   24.3920   37.6840 N   0  0  0  0  0  0  0  0  0  0  0  0
   38.7200   23.4190   38.3640 C   0  0  0  0  0  0  0  0  0  0  0  0
   39.7710   22.7690   37.7660 N   0  0  0  0  0  0  0  0  0  0  0  0
   40.9660   22.5480   36.1370 H   0  0  0  0  0  0  0  0  0  0  0  0
   39.8430   24.3040   34.8320 H   0  0  0  0  0  0  0  0  0  0  0  0
   38.3600   23.2020   39.3730 H   0  0  0  0  0  0  0  0  0  0  0  0
   37.1260   24.2000   32.7990 O   0  0  0  0  0  0  0  0  0  0  0  0
   38.1960   21.6290   31.2030 H   0  0  0  0  0  0  0  0  0  0  0  0
   37.7180   22.0460   32.0300 N   0  0  0  0  0  0  0  0  0  0  0  0
   36.6430   21.1410   32.4430 C   0  0  0  0  0  2  0  0  0  0  0  0
   35.6110   21.4520   31.3820 C   0  0  0  0  0  2  0  0  0  0  0  0
   35.6520   22.9780   31.3520 C   0  0  0  0  0  2  0  0  0  0  0  0
   37.0570   23.2980   31.7310 C   0  0  1  0  0  3  0  0  0  0  0  0
  1  6  1  6  0  0  0
  1 28  1  0  0  0  0
  1  2  1  0  0  0  0
  2  7  1  1  0  0  0
  2 14  1  0  0  0  0
  3  9  1  0  0  0  0
  3  2  1  0  0  0  0
  4  3  1  0  0  0  0
  5 10  1  0  0  0  0
  5  4  1  0  0  0  0
  5  1  1  0  0  0  0
  8  3  1  0  0  0  0
 11  5  1  0  0  0  0
 12 15  1  6  0  0  0
 12 21  1  0  0  0  0
 13 12  1  0  0  0  0
 13 17  1  0  0  0  0
 14 18  1  6  0  0  0
 14 13  1  0  0  0  0
 14 12  1  0  0  0  0
 16 13  1  0  0  0  0
 19 24  1  0  0  0  0
 20 21  1  0  0  0  0
 20 19  2  0  0  0  0
 21 22  2  0  0  0  0
 22 23  1  0  0  0  0
 23 27  1  0  0  0  0
 24 23  2  0  0  0  0
 25 19  1  0  0  0  0
 26 20  1  0  0  0  0
 29 30  1  0  0  0  0
 30 31  1  0  0  0  0
 32 31  1  0  0  0  0
 33 32  1  0  0  0  0
 33 34  1  0  0  0  0
 34 30  1  0  0  0  0
 34 28  1  1  0  0  0
M  END
>  <minimizedAffinity>
-4.98861742

$$$$

 OpenBabel03262521363D

 34 37  0  0  1  0  0  0  0  0999 V2000
   39.6870   23.3780   36.1050 C   0  0  1  0  0  0  0  0  0  0  0  0
   38.8370   24.4570   36.6130 C   0  0  2  0  0  0  0  0  0  0  0  0
   37.6220   23.6950   37.1690 C   0  0  0  0  0  0  0  0  0  0  0  0
   37.4540   22.7210   36.2320 O   0  0  0  0  0  0  0  0  0  0  0  0
   38.6660   22.2910   35.7370 C   0  0  0  0  0  0  0  0  0  0  0  0
   40.2840   22.9050   36.9090 H   0  0  0  0  0  0  0  0  0  0  0  0
   39.2980   24.9490   37.4890 H   0  0  0  0  0  0  0  0  0  0  0  0
   37.8460   23.3320   38.2040 H   0  0  0  0  0  0  0  0  0  0  0  0
   36.7890   24.4160   37.1940 H   0  0  0  0  0  0  0  0  0  0  0  0
   38.5760   22.3160   34.6190 H   0  0  0  0  0  0  0  0  0  0  0  0
   38.9710   21.2950   36.0720 H   0  0  0  0  0  0  0  0  0  0  0  0
   39.3070   26.5790   35.1590 C   0  0  1  0  0  0  0  0  0  0  0  0
   38.3170   26.8960   36.1560 C   0  0  0  0  0  0  0  0  0  0  0  0
   38.3510   25.4640   35.5880 C   0  0  2  0  0  0  0  0  0  0  0  0
   40.3710   26.4050   35.4960 H   0  0  0  0  0  0  0  0  0  0  0  0
   38.5760   27.0550   37.2160 H   0  0  0  0  0  0  0  0  0  0  0  0
   37.3550   27.4150   35.9040 H   0  0  0  0  0  0  0  0  0  0  0  0
   37.5710   25.1340   34.9050 H   0  0  0  0  0  0  0  0  0  0  0  0
   40.1100   27.2890   31.5720 C   0  0  0  0  0  0  0  0  0  0  0  0
   40.2670   26.9120   32.8990 C   0  0  0  0  0  0  0  0  0  0  0  0
   39.1730   26.9470   33.7440 C   0  0  0  0  0  0  0  0  0  0  0  0
   37.9730   27.3590   33.2110 N   0  0  0  0  0  0  0  0  0  0  0  0
   37.8310   27.7240   31.9160 C   0  0  0  0  0  0  0  0  0  0  0  0
   38.9220   27.6870   31.0840 N   0  0  0  0  0  0  0  0  0  0  0  0
   40.9020   27.2930   30.8460 H   0  0  0  0  0  0  0  0  0  0  0  0
   41.2480   26.6130   33.1830 H   0  0  0  0  0  0  0  0  0  0  0  0
   36.8310   28.0350   31.6020 H   0  0  0  0  0  0  0  0  0  0  0  0
   40.4560   23.7230   34.9950 O   0  0  0  0  0  0  0  0  0  0  0  0
   43.4650   23.1330   34.0460 H   0  0  0  0  0  0  0  0  0  0  0  0
   42.7460   23.7900   34.4180 N   0  0  0  0  0  0  0  0  0  0  0  0
   43.3960   24.6880   35.3760 C   0  0  0  0  0  2  0  0  0  0  0  0
   43.5200   23.7630   36.5650 C   0  0  0  0  0  2  0  0  0  0  0  0
   42.1330   23.1250   36.6040 C   0  0  0  0  0  2  0  0  0  0  0  0
   41.7080   23.1250   35.1750 C   0  0  1  0  0  3  0  0  0  0  0  0
  1  2  1  0  0  0  0
  1  6  1  1  0  0  0
  2  3  1  0  0  0  0
  2  7  1  1  0  0  0
  3  9  1  0  0  0  0
  3  8  1  0  0  0  0
  4  3  1  0  0  0  0
  5 11  1  0  0  0  0
  5  1  1  0  0  0  0
  5  4  1  0  0  0  0
 10  5  1  0  0  0  0
 12 15  1  1  0  0  0
 12 14  1  0  0  0  0
 12 13  1  0  0  0  0
 13 16  1  0  0  0  0
 14 18  1  6  0  0  0
 14 13  1  0  0  0  0
 14  2  1  0  0  0  0
 17 13  1  0  0  0  0
 19 20  1  0  0  0  0
 20 26  1  0  0  0  0
 20 21  2  0  0  0  0
 21 12  1  0  0  0  0
 22 21  1  0  0  0  0
 23 22  2  0  0  0  0
 24 19  2  0  0  0  0
 24 23  1  0  0  0  0
 25 19  1  0  0  0  0
 27 23  1  0  0  0  0
 28  1  1  0  0  0  0
 29 30  1  0  0  0  0
 30 34  1  0  0  0  0
 30 31  1  0  0  0  0
 31 32  1  0  0  0  0
 32 33  1  0  0  0  0
 34 28  1  1  0  0  0
 34 33  1  0  0  0  0
M  END
>  <minimizedAffinity>
-4.70550537

$$$$

 OpenBabel03262521363D

 34 37  0  0  1  0  0  0  0  0999 V2000
   38.0740   26.0250   34.3350 C   0  0  1  0  0  0  0  0  0  0  0  0
   38.0250   25.8880   32.8780 C   0  0  2  0  0  0  0  0  0  0  0  0
   37.5080   27.2660   32.4280 C   0  0  0  0  0  0  0  0  0  0  0  0
   36.5770   27.5380   33.3820 O   0  0  0  0  0  0  0  0  0  0  0  0
   36.9680   27.0550   34.6130 C   0  0  0  0  0  0  0  0  0  0  0  0
   38.9930   26.5410   34.6750 H   0  0  0  0  0  0  0  0  0  0  0  0
   39.0410   25.8050   32.4510 H   0  0  0  0  0  0  0  0  0  0  0  0
   38.3630   27.9880   32.3700 H   0  0  0  0  0  0  0  0  0  0  0  0
   37.0690   27.1200   31.4270 H   0  0  0  0  0  0  0  0  0  0  0  0
   36.0970   26.4750   35.0150 H   0  0  0  0  0  0  0  0  0  0  0  0
   37.2760   27.8230   35.3290 H   0  0  0  0  0  0  0  0  0  0  0  0
   37.6860   23.4540   31.9870 C   0  0  1  0  0  0  0  0  0  0  0  0
   37.4800   24.3870   30.9090 C   0  0  0  0  0  0  0  0  0  0  0  0
   37.0940   24.8200   32.3370 C   0  0  2  0  0  0  0  0  0  0  0  0
   38.7360   23.3120   32.3790 H   0  0  0  0  0  0  0  0  0  0  0  0
   38.3150   24.9000   30.4040 H   0  0  0  0  0  0  0  0  0  0  0  0
   36.5830   24.3400   30.2380 H   0  0  0  0  0  0  0  0  0  0  0  0
   36.0450   24.8950   32.6150 H   0  0  0  0  0  0  0  0  0  0  0  0
   35.0470   20.8260   31.6140 C   0  0  0  0  0  0  0  0  0  0  0  0
   35.9080   21.8690   31.3030 C   0  0  0  0  0  0  0  0  0  0  0  0
   36.7780   22.3370   32.2720 C   0  0  0  0  0  0  0  0  0  0  0  0
   36.7380   21.7300   33.5060 N   0  0  0  0  0  0  0  0  0  0  0  0
   35.8940   20.7130   33.7980 C   0  0  0  0  0  0  0  0  0  0  0  0
   35.0340   20.2560   32.8310 N   0  0  0  0  0  0  0  0  0  0  0  0
   34.3390   20.3990   30.9260 H   0  0  0  0  0  0  0  0  0  0  0  0
   35.8390   22.2480   30.3110 H   0  0  0  0  0  0  0  0  0  0  0  0
   35.9480   20.3070   34.8110 H   0  0  0  0  0  0  0  0  0  0  0  0
   37.8290   24.8440   35.0340 O   0  0  0  0  0  0  0  0  0  0  0  0
   38.5730   25.2970   38.1230 H   0  0  0  0  0  0  0  0  0  0  0  0
   38.0730   24.7600   37.3820 N   0  0  0  0  0  0  0  0  0  0  0  0
   38.0860   23.3430   37.7550 C   0  0  0  0  0  2  0  0  0  0  0  0
   39.5110   22.9870   37.3950 C   0  0  0  0  0  2  0  0  0  0  0  0
   39.6550   23.6430   36.0240 C   0  0  0  0  0  2  0  0  0  0  0  0
   38.7370   24.8150   36.0980 C   0  0  1  0  0  3  0  0  0  0  0  0
  1  5  1  0  0  0  0
  1  6  1  1  0  0  0
  1 28  1  0  0  0  0
  2  7  1  6  0  0  0
  2  1  1  0  0  0  0
  3  2  1  0  0  0  0
  3  4  1  0  0  0  0
  4  5  1  0  0  0  0
  5 10  1  0  0  0  0
  5 11  1  0  0  0  0
  8  3  1  0  0  0  0
  9  3  1  0  0  0  0
 12 21  1  0  0  0  0
 12 14  1  0  0  0  0
 12 15  1  1  0  0  0
 13 12  1  0  0  0  0
 13 14  1  0  0  0  0
 14 18  1  1  0  0  0
 14  2  1  0  0  0  0
 16 13  1  0  0  0  0
 17 13  1  0  0  0  0
 19 24  1  0  0  0  0
 20 19  2  0  0  0  0
 20 21  1  0  0  0  0
 21 22  2  0  0  0  0
 22 23  1  0  0  0  0
 23 27  1  0  0  0  0
 24 23  2  0  0  0  0
 25 19  1  0  0  0  0
 26 20  1  0  0  0  0
 30 31  1  0  0  0  0
 30 29  1  0  0  0  0
 32 31  1  0  0  0  0
 33 34  1  0  0  0  0
 33 32  1  0  0  0  0
 34 28  1  6  0  0  0
 34 30  1  0  0  0  0
M  END
>  <minimizedAffinity>
-4.69884205

$$$$

 OpenBabel03262521363D

 34 37  0  0  1  0  0  0  0  0999 V2000
   39.8130   26.3110   32.1790 C   0  0  1  0  0  0  0  0  0  0  0  0
   40.0460   27.1160   33.3800 C   0  0  2  0  0  0  0  0  0  0  0  0
   41.5450   27.4480   33.2770 C   0  0  0  0  0  0  0  0  0  0  0  0
   42.0570   26.2760   32.8120 O   0  0  0  0  0  0  0  0  0  0  0  0
   41.1840   25.6630   31.9380 C   0  0  0  0  0  0  0  0  0  0  0  0
   39.6670   26.9390   31.2780 H   0  0  0  0  0  0  0  0  0  0  0  0
   39.5270   28.0900   33.3150 H   0  0  0  0  0  0  0  0  0  0  0  0
   41.6890   28.3350   32.6080 H   0  0  0  0  0  0  0  0  0  0  0  0
   41.8800   27.6890   34.2990 H   0  0  0  0  0  0  0  0  0  0  0  0
   41.0900   24.6000   32.2820 H   0  0  0  0  0  0  0  0  0  0  0  0
   41.4890   25.6960   30.8880 H   0  0  0  0  0  0  0  0  0  0  0  0
   38.3420   26.2130   35.1460 C   0  0  1  0  0  0  0  0  0  0  0  0
   39.0470   27.3410   35.7000 C   0  0  0  0  0  0  0  0  0  0  0  0
   39.7920   26.4270   34.7070 C   0  0  2  0  0  0  0  0  0  0  0  0
   37.5960   26.4010   34.3180 H   0  0  0  0  0  0  0  0  0  0  0  0
   38.8250   28.3790   35.4040 H   0  0  0  0  0  0  0  0  0  0  0  0
   39.5190   27.3130   36.7170 H   0  0  0  0  0  0  0  0  0  0  0  0
   40.5670   25.7530   35.0680 H   0  0  0  0  0  0  0  0  0  0  0  0
   37.8540   22.5820   35.9140 C   0  0  0  0  0  0  0  0  0  0  0  0
   38.0750   23.7500   35.1970 C   0  0  0  0  0  0  0  0  0  0  0  0
   38.1340   24.9550   35.8730 C   0  0  0  0  0  0  0  0  0  0  0  0
   37.9690   24.9250   37.2390 N   0  0  0  0  0  0  0  0  0  0  0  0
   37.7540   23.7810   37.9280 C   0  0  0  0  0  0  0  0  0  0  0  0
   37.6960   22.5890   37.2490 N   0  0  0  0  0  0  0  0  0  0  0  0
   37.7920   21.6040   35.4740 H   0  0  0  0  0  0  0  0  0  0  0  0
   38.1870   23.6340   34.1450 H   0  0  0  0  0  0  0  0  0  0  0  0
   37.6360   23.8750   39.0100 H   0  0  0  0  0  0  0  0  0  0  0  0
   38.8280   25.3350   32.3210 O   0  0  0  0  0  0  0  0  0  0  0  0
   37.4280   24.9530   29.4580 H   0  0  0  0  0  0  0  0  0  0  0  0
   37.6600   24.5900   30.4080 N   0  0  0  0  0  0  0  0  0  0  0  0
   36.5230   23.8010   30.8880 C   0  0  0  0  0  2  0  0  0  0  0  0
   35.5750   24.9120   31.2780 C   0  0  0  0  0  2  0  0  0  0  0  0
   36.5030   25.8570   32.0360 C   0  0  0  0  0  2  0  0  0  0  0  0
   37.8290   25.6380   31.3900 C   0  0  1  0  0  3  0  0  0  0  0  0
  1  6  1  6  0  0  0
  1 28  1  0  0  0  0
  1  2  1  0  0  0  0
  2  7  1  6  0  0  0
  2 14  1  0  0  0  0
  3  2  1  0  0  0  0
  3  9  1  0  0  0  0
  4  3  1  0  0  0  0
  5  1  1  0  0  0  0
  5 10  1  0  0  0  0
  5  4  1  0  0  0  0
  8  3  1  0  0  0  0
 11  5  1  0  0  0  0
 12 15  1  6  0  0  0
 12 13  1  0  0  0  0
 12 21  1  0  0  0  0
 13 17  1  0  0  0  0
 14 18  1  1  0  0  0
 14 12  1  0  0  0  0
 14 13  1  0  0  0  0
 16 13  1  0  0  0  0
 19 24  1  0  0  0  0
 20 21  1  0  0  0  0
 20 19  2  0  0  0  0
 21 22  2  0  0  0  0
 22 23  1  0  0  0  0
 23 27  1  0  0  0  0
 24 23  2  0  0  0  0
 25 19  1  0  0  0  0
 26 20  1  0  0  0  0
 29 30  1  0  0  0  0
 30 31  1  0  0  0  0
 30 34  1  0  0  0  0
 31 32  1  0  0  0  0
 32 33  1  0  0  0  0
 34 33  1  0  0  0  0
 34 28  1  1  0  0  0
M  END
>  <minimizedAffinity>
-4.69776106

$$$$

 OpenBabel03262521363D

 34 37  0  0  1  0  0  0  0  0999 V2000
   38.8930   23.3970   35.3270 C   0  0  1  0  0  0  0  0  0  0  0  0
   38.7440   24.5570   36.2080 C   0  0  2  0  0  0  0  0  0  0  0  0
   38.1400   23.9370   37.4810 C   0  0  0  0  0  0  0  0  0  0  0  0
   37.2700   23.0290   36.9600 O   0  0  0  0  0  0  0  0  0  0  0  0
   37.7690   22.4650   35.8050 C   0  0  0  0  0  0  0  0  0  0  0  0
   39.8130   22.8210   35.5470 H   0  0  0  0  0  0  0  0  0  0  0  0
   39.7290   24.9530   36.5160 H   0  0  0  0  0  0  0  0  0  0  0  0
   38.9580   23.5110   38.1160 H   0  0  0  0  0  0  0  0  0  0  0  0
   37.6360   24.7580   38.0160 H   0  0  0  0  0  0  0  0  0  0  0  0
   36.9540   22.5420   35.0400 H   0  0  0  0  0  0  0  0  0  0  0  0
   38.0980   21.4260   35.9080 H   0  0  0  0  0  0  0  0  0  0  0  0
   38.3610   26.6530   34.6930 C   0  0  1  0  0  0  0  0  0  0  0  0
   38.3490   27.0580   36.0750 C   0  0  0  0  0  0  0  0  0  0  0  0
   37.8190   25.6550   35.7180 C   0  0  2  0  0  0  0  0  0  0  0  0
   39.3440   26.3320   34.2370 H   0  0  0  0  0  0  0  0  0  0  0  0
   39.2710   27.1430   36.6740 H   0  0  0  0  0  0  0  0  0  0  0  0
   37.5390   27.7050   36.5040 H   0  0  0  0  0  0  0  0  0  0  0  0
   36.7510   25.4530   35.7580 H   0  0  0  0  0  0  0  0  0  0  0  0
   35.6510   28.6010   32.9980 C   0  0  0  0  0  0  0  0  0  0  0  0
   36.6110   28.2320   33.9310 C   0  0  0  0  0  0  0  0  0  0  0  0
   37.3560   27.0870   33.7160 C   0  0  0  0  0  0  0  0  0  0  0  0
   37.0990   26.3690   32.5700 N   0  0  0  0  0  0  0  0  0  0  0  0
   36.1610   26.7380   31.6670 C   0  0  0  0  0  0  0  0  0  0  0  0
   35.4260   27.8760   31.8880 N   0  0  0  0  0  0  0  0  0  0  0  0
   35.0270   29.4720   33.0820 H   0  0  0  0  0  0  0  0  0  0  0  0
   36.7100   28.8760   34.7730 H   0  0  0  0  0  0  0  0  0  0  0  0
   36.0420   26.0920   30.7930 H   0  0  0  0  0  0  0  0  0  0  0  0
   38.7470   23.6810   33.9700 O   0  0  0  0  0  0  0  0  0  0  0  0
   36.0630   22.6060   32.5770 H   0  0  0  0  0  0  0  0  0  0  0  0
   36.9500   23.1510   32.5310 N   0  0  0  0  0  0  0  0  0  0  0  0
   37.5170   22.9910   31.1890 C   0  0  0  0  0  2  0  0  0  0  0  0
   38.0920   21.5990   31.3070 C   0  0  0  0  0  2  0  0  0  0  0  0
   38.7880   21.6670   32.6640 C   0  0  0  0  0  2  0  0  0  0  0  0
   37.9690   22.6520   33.4280 C   0  0  1  0  0  3  0  0  0  0  0  0
  1  6  1  1  0  0  0
  1  5  1  0  0  0  0
  1  2  1  0  0  0  0
  2  7  1  1  0  0  0
  2  3  1  0  0  0  0
  3  9  1  0  0  0  0
  3  8  1  0  0  0  0
  4  3  1  0  0  0  0
  5 11  1  0  0  0  0
  5  4  1  0  0  0  0
 10  5  1  0  0  0  0
 12 15  1  6  0  0  0
 12 14  1  0  0  0  0
 12 13  1  0  0  0  0
 13 17  1  0  0  0  0
 13 16  1  0  0  0  0
 14 18  1  1  0  0  0
 14 13  1  0  0  0  0
 14  2  1  0  0  0  0
 19 25  1  0  0  0  0
 19 20  1  0  0  0  0
 20 26  1  0  0  0  0
 21 20  2  0  0  0  0
 21 12  1  0  0  0  0
 22 21  1  0  0  0  0
 23 24  1  0  0  0  0
 23 22  2  0  0  0  0
 24 19  2  0  0  0  0
 27 23  1  0  0  0  0
 28  1  1  0  0  0  0
 30 29  1  0  0  0  0
 30 34  1  0  0  0  0
 31 32  1  0  0  0  0
 31 30  1  0  0  0  0
 32 33  1  0  0  0  0
 33 34  1  0  0  0  0
 34 28  1  6  0  0  0
M  END
>  <minimizedAffinity>
-4.68764353

$$$$

 OpenBabel03262521363D

 34 37  0  0  1  0  0  0  0  0999 V2000
   36.5710   26.5260   32.2160 C   0  0  1  0  0  0  0  0  0  0  0  0
   36.7280   27.1720   33.5210 C   0  0  2  0  0  0  0  0  0  0  0  0
   36.2540   28.6100   33.2430 C   0  0  0  0  0  0  0  0  0  0  0  0
   36.7740   28.8390   32.0060 O   0  0  0  0  0  0  0  0  0  0  0  0
   36.7540   27.6950   31.2370 C   0  0  0  0  0  0  0  0  0  0  0  0
   35.5270   26.2030   32.0350 H   0  0  0  0  0  0  0  0  0  0  0  0
   36.0110   26.7660   34.2570 H   0  0  0  0  0  0  0  0  0  0  0  0
   35.1370   28.6570   33.3120 H   0  0  0  0  0  0  0  0  0  0  0  0
   36.7060   29.2420   34.0240 H   0  0  0  0  0  0  0  0  0  0  0  0
   37.7860   27.5850   30.8120 H   0  0  0  0  0  0  0  0  0  0  0  0
   36.0100   27.6950   30.4350 H   0  0  0  0  0  0  0  0  0  0  0  0
   38.5630   26.1540   35.0810 C   0  0  1  0  0  0  0  0  0  0  0  0
   38.1530   27.4330   35.6020 C   0  0  0  0  0  0  0  0  0  0  0  0
   38.1390   27.2260   34.0750 C   0  0  2  0  0  0  0  0  0  0  0  0
   37.8360   25.2920   35.1420 H   0  0  0  0  0  0  0  0  0  0  0  0
   37.1950   27.5760   36.1290 H   0  0  0  0  0  0  0  0  0  0  0  0
   38.8890   28.2230   35.9030 H   0  0  0  0  0  0  0  0  0  0  0  0
   38.8930   27.7100   33.4560 H   0  0  0  0  0  0  0  0  0  0  0  0
   42.2290   26.2190   34.3280 C   0  0  0  0  0  0  0  0  0  0  0  0
   40.9140   26.6400   34.4660 C   0  0  0  0  0  0  0  0  0  0  0  0
   39.9680   25.7520   34.9440 C   0  0  0  0  0  0  0  0  0  0  0  0
   40.3940   24.4820   35.2610 N   0  0  0  0  0  0  0  0  0  0  0  0
   41.6790   24.0820   35.1230 C   0  0  0  0  0  0  0  0  0  0  0  0
   42.6110   24.9700   34.6470 N   0  0  0  0  0  0  0  0  0  0  0  0
   43.0290   26.8390   33.9650 H   0  0  0  0  0  0  0  0  0  0  0  0
   40.7170   27.6480   34.1860 H   0  0  0  0  0  0  0  0  0  0  0  0
   41.9040   23.0510   35.4050 H   0  0  0  0  0  0  0  0  0  0  0  0
   37.4990   25.5190   31.9560 O   0  0  0  0  0  0  0  0  0  0  0  0
   37.7200   23.2850   29.6610 H   0  0  0  0  0  0  0  0  0  0  0  0
   37.7700   23.5580   30.6670 N   0  0  0  0  0  0  0  0  0  0  0  0
   37.2440   22.4500   31.4690 C   0  0  0  0  0  2  0  0  0  0  0  0
   35.7620   22.6350   31.2380 C   0  0  0  0  0  2  0  0  0  0  0  0
   35.6060   24.1420   31.4260 C   0  0  0  0  0  2  0  0  0  0  0  0
   36.9240   24.6860   30.9900 C   0  0  1  0  0  3  0  0  0  0  0  0
  1  6  1  6  0  0  0
  1  2  1  0  0  0  0
  2 14  1  0  0  0  0
  2  7  1  1  0  0  0
  3  8  1  0  0  0  0
  3  2  1  0  0  0  0
  3  9  1  0  0  0  0
  4  3  1  0  0  0  0
  5  4  1  0  0  0  0
  5  1  1  0  0  0  0
 10  5  1  0  0  0  0
 11  5  1  0  0  0  0
 12 15  1  1  0  0  0
 12 13  1  0  0  0  0
 13 17  1  0  0  0  0
 13 16  1  0  0  0  0
 14 18  1  6  0  0  0
 14 12  1  0  0  0  0
 14 13  1  0  0  0  0
 19 20  2  0  0  0  0
 19 24  1  0  0  0  0
 20 21  1  0  0  0  0
 21 12  1  0  0  0  0
 21 22  2  0  0  0  0
 23 22  1  0  0  0  0
 23 27  1  0  0  0  0
 24 23  2  0  0  0  0
 25 19  1  0  0  0  0
 26 20  1  0  0  0  0
 28  1  1  0  0  0  0
 29 30  1  0  0  0  0
 30 34  1  0  0  0  0
 30 31  1  0  0  0  0
 32 33  1  0  0  0  0
 32 31  1  0  0  0  0
 34 33  1  0  0  0  0
 34 28  1  1  0  0  0
M  END
>  <minimizedAffinity>
-4.66637325

$$$$

 OpenBabel03262521363D

 34 37  0  0  1  0  0  0  0  0999 V2000
   37.7950   23.5870   34.0920 C   0  0  1  0  0  0  0  0  0  0  0  0
   37.7600   24.9480   33.5540 C   0  0  2  0  0  0  0  0  0  0  0  0
   37.0550   24.7570   32.2000 C   0  0  0  0  0  0  0  0  0  0  0  0
   37.5970   23.5840   31.7690 O   0  0  0  0  0  0  0  0  0  0  0  0
   37.8250   22.7240   32.8210 C   0  0  0  0  0  0  0  0  0  0  0  0
   36.8370   23.3030   34.5700 H   0  0  0  0  0  0  0  0  0  0  0  0
   37.0850   25.5940   34.1450 H   0  0  0  0  0  0  0  0  0  0  0  0
   35.9450   24.7460   32.3510 H   0  0  0  0  0  0  0  0  0  0  0  0
   37.3420   25.6190   31.5760 H   0  0  0  0  0  0  0  0  0  0  0  0
   38.8820   22.3670   32.7120 H   0  0  0  0  0  0  0  0  0  0  0  0
   37.1400   21.8720   32.8730 H   0  0  0  0  0  0  0  0  0  0  0  0
   39.7550   26.3700   34.4660 C   0  0  1  0  0  0  0  0  0  0  0  0
   39.0370   27.1370   33.4810 C   0  0  0  0  0  0  0  0  0  0  0  0
   39.1050   25.6070   33.3110 C   0  0  2  0  0  0  0  0  0  0  0  0
   39.2570   26.1770   35.4620 H   0  0  0  0  0  0  0  0  0  0  0  0
   38.0630   27.6070   33.6930 H   0  0  0  0  0  0  0  0  0  0  0  0
   39.5540   27.6670   32.6380 H   0  0  0  0  0  0  0  0  0  0  0  0
   39.7310   25.1750   32.5330 H   0  0  0  0  0  0  0  0  0  0  0  0
   43.3870   26.9810   33.7970 C   0  0  0  0  0  0  0  0  0  0  0  0
   42.0080   27.1340   33.7720 C   0  0  0  0  0  0  0  0  0  0  0  0
   41.2180   26.2540   34.4890 C   0  0  0  0  0  0  0  0  0  0  0  0
   41.8570   25.2630   35.1990 N   0  0  0  0  0  0  0  0  0  0  0  0
   43.2020   25.1230   35.2170 C   0  0  0  0  0  0  0  0  0  0  0  0
   43.9790   26.0000   34.5010 N   0  0  0  0  0  0  0  0  0  0  0  0
   44.0770   27.6160   33.2720 H   0  0  0  0  0  0  0  0  0  0  0  0
   41.6420   27.9430   33.1840 H   0  0  0  0  0  0  0  0  0  0  0  0
   43.6020   24.3000   35.8140 H   0  0  0  0  0  0  0  0  0  0  0  0
   38.9010   23.3120   34.8950 O   0  0  0  0  0  0  0  0  0  0  0  0
   38.8640   21.0890   37.2100 H   0  0  0  0  0  0  0  0  0  0  0  0
   39.3340   21.8840   36.7260 N   0  0  0  0  0  0  0  0  0  0  0  0
   40.0260   22.6900   37.7360 C   0  0  0  0  0  2  0  0  0  0  0  0
   38.8520   23.4300   38.3360 C   0  0  0  0  0  2  0  0  0  0  0  0
   38.0910   23.8650   37.0860 C   0  0  0  0  0  2  0  0  0  0  0  0
   38.4030   22.7950   36.0960 C   0  0  1  0  0  3  0  0  0  0  0  0
  1  6  1  1  0  0  0
  1 28  1  0  0  0  0
  2  1  1  0  0  0  0
  2  7  1  1  0  0  0
  3  8  1  0  0  0  0
  3  2  1  0  0  0  0
  4  3  1  0  0  0  0
  4  5  1  0  0  0  0
  5 11  1  0  0  0  0
  5  1  1  0  0  0  0
  9  3  1  0  0  0  0
 10  5  1  0  0  0  0
 12 21  1  0  0  0  0
 12 15  1  1  0  0  0
 13 16  1  0  0  0  0
 13 12  1  0  0  0  0
 14 18  1  6  0  0  0
 14 13  1  0  0  0  0
 14  2  1  0  0  0  0
 14 12  1  0  0  0  0
 17 13  1  0  0  0  0
 19 24  1  0  0  0  0
 20 19  2  0  0  0  0
 20 21  1  0  0  0  0
 21 22  2  0  0  0  0
 22 23  1  0  0  0  0
 23 27  1  0  0  0  0
 24 23  2  0  0  0  0
 25 19  1  0  0  0  0
 26 20  1  0  0  0  0
 30 29  1  0  0  0  0
 30 31  1  0  0  0  0
 31 32  1  0  0  0  0
 33 32  1  0  0  0  0
 34 28  1  6  0  0  0
 34 30  1  0  0  0  0
 34 33  1  0  0  0  0
M  END
>  <minimizedAffinity>
-4.63391161

$$$$

 OpenBabel03262521363D

 34 37  0  0  1  0  0  0  0  0999 V2000
   32.5700   31.9200   37.0930 C   0  0  1  0  0  0  0  0  0  0  0  0
   33.9990   32.2420   37.1010 C   0  0  2  0  0  0  0  0  0  0  0  0
   34.0100   33.7150   37.5450 C   0  0  0  0  0  0  0  0  0  0  0  0
   32.9330   34.2130   36.8770 O   0  0  0  0  0  0  0  0  0  0  0  0
   31.9210   33.2800   36.7960 C   0  0  0  0  0  0  0  0  0  0  0  0
   32.1930   31.6740   38.1050 H   0  0  0  0  0  0  0  0  0  0  0  0
   34.5270   31.6930   37.9020 H   0  0  0  0  0  0  0  0  0  0  0  0
   33.9510   33.7720   38.6620 H   0  0  0  0  0  0  0  0  0  0  0  0
   34.9660   34.1380   37.1950 H   0  0  0  0  0  0  0  0  0  0  0  0
   31.6100   33.2470   35.7190 H   0  0  0  0  0  0  0  0  0  0  0  0
   31.0570   33.4850   37.4360 H   0  0  0  0  0  0  0  0  0  0  0  0
   35.5630   30.8840   35.5050 C   0  0  1  0  0  0  0  0  0  0  0  0
   36.2470   32.0740   35.9410 C   0  0  0  0  0  0  0  0  0  0  0  0
   34.7170   32.1310   35.7690 C   0  0  2  0  0  0  0  0  0  0  0  0
   35.3870   30.0610   36.2580 H   0  0  0  0  0  0  0  0  0  0  0  0
   36.6740   32.1730   36.9530 H   0  0  0  0  0  0  0  0  0  0  0  0
   36.7660   32.7650   35.2260 H   0  0  0  0  0  0  0  0  0  0  0  0
   34.2860   32.6750   34.9310 H   0  0  0  0  0  0  0  0  0  0  0  0
   35.4560   28.7130   32.4580 C   0  0  0  0  0  0  0  0  0  0  0  0
   35.4670   29.0970   33.7920 C   0  0  0  0  0  0  0  0  0  0  0  0
   35.5250   30.4420   34.1060 C   0  0  0  0  0  0  0  0  0  0  0  0
   35.5700   31.3360   33.0610 N   0  0  0  0  0  0  0  0  0  0  0  0
   35.5590   30.9510   31.7640 C   0  0  0  0  0  0  0  0  0  0  0  0
   35.5010   29.6140   31.4610 N   0  0  0  0  0  0  0  0  0  0  0  0
   35.4120   27.6940   32.1210 H   0  0  0  0  0  0  0  0  0  0  0  0
   35.4270   28.3050   34.5020 H   0  0  0  0  0  0  0  0  0  0  0  0
   35.5980   31.7470   31.0160 H   0  0  0  0  0  0  0  0  0  0  0  0
   32.1960   30.9800   36.1350 O   0  0  0  0  0  0  0  0  0  0  0  0
   30.3220   29.2600   38.0930 H   0  0  0  0  0  0  0  0  0  0  0  0
   30.4900   29.7160   37.1700 N   0  0  0  0  0  0  0  0  0  0  0  0
   29.8990   28.8720   36.1290 C   0  0  0  0  0  2  0  0  0  0  0  0
   30.9370   27.7760   36.0530 C   0  0  0  0  0  2  0  0  0  0  0  0
   32.2340   28.5820   36.0440 C   0  0  0  0  0  2  0  0  0  0  0  0
   31.8930   29.8030   36.8280 C   0  0  1  0  0  3  0  0  0  0  0  0
  1  2  1  0  0  0  0
  1  6  1  1  0  0  0
  2  3  1  0  0  0  0
  2  7  1  1  0  0  0
  3  8  1  0  0  0  0
  4  3  1  0  0  0  0
  5  4  1  0  0  0  0
  5  1  1  0  0  0  0
  5 11  1  0  0  0  0
  9  3  1  0  0  0  0
 10  5  1  0  0  0  0
 12 14  1  0  0  0  0
 12 13  1  0  0  0  0
 12 15  1  1  0  0  0
 13 16  1  0  0  0  0
 14 18  1  6  0  0  0
 14 13  1  0  0  0  0
 14  2  1  0  0  0  0
 17 13  1  0  0  0  0
 19 20  1  0  0  0  0
 20 21  2  0  0  0  0
 20 26  1  0  0  0  0
 21 12  1  0  0  0  0
 22 21  1  0  0  0  0
 23 22  2  0  0  0  0
 24 23  1  0  0  0  0
 24 19  2  0  0  0  0
 25 19  1  0  0  0  0
 27 23  1  0  0  0  0
 28  1  1  0  0  0  0
 30 29  1  0  0  0  0
 31 30  1  0  0  0  0
 32 31  1  0  0  0  0
 33 32  1  0  0  0  0
 33 34  1  0  0  0  0
 34 28  1  6  0  0  0
 34 30  1  0  0  0  0
M  END
>  <minimizedAffinity>
-4.60650921

$$$$
