
 OpenBabel03272501193D

 27 29  0  0  1  0  0  0  0  0999 V2000
   37.8700   25.4610   34.1990 C   0  0  0  0  0  0  0  0  0  0  0  0
   38.5350   25.5290   35.4170 C   0  0  0  0  0  0  0  0  0  0  0  0
   38.4650   26.7660   36.0530 C   0  0  0  0  0  0  0  0  0  0  0  0
   37.7740   27.8310   35.4840 C   0  0  0  0  0  0  0  0  0  0  0  0
   37.1420   27.6670   34.2670 C   0  0  0  0  0  0  0  0  0  0  0  0
   37.1830   26.4640   33.6020 C   0  0  0  0  0  0  0  0  0  0  0  0
   38.9690   26.8700   37.0050 H   0  0  0  0  0  0  0  0  0  0  0  0
   37.7830   28.7450   36.0610 H   0  0  0  0  0  0  0  0  0  0  0  0
   36.6500   28.5700   33.9550 H   0  0  0  0  0  0  0  0  0  0  0  0
   38.7020   23.7090   37.0620 C   0  0  0  0  0  0  0  0  0  0  0  0
   39.2500   24.4220   35.9980 C   0  0  0  0  0  0  0  0  0  0  0  0
   40.5030   24.0130   35.5340 C   0  0  0  0  0  0  0  0  0  0  0  0
   41.1090   22.9540   36.1430 N   0  0  0  0  0  0  0  0  0  0  0  0
   40.5430   22.2950   37.1680 C   0  0  0  0  0  0  0  0  0  0  0  0
   39.3400   22.6730   37.6260 N   0  0  0  0  0  0  0  0  0  0  0  0
   37.7250   24.0290   37.4210 H   0  0  0  0  0  0  0  0  0  0  0  0
   40.9420   24.5590   34.7050 H   0  0  0  0  0  0  0  0  0  0  0  0
   41.0270   21.4570   37.6470 H   0  0  0  0  0  0  0  0  0  0  0  0
   37.8940   24.2470   33.4970 O   0  0  0  0  0  0  0  0  0  0  0  0
   38.1580   23.3960   33.9730 H   0  0  0  0  0  0  0  0  0  0  0  0
   36.5480   26.3260   32.3960 O   0  0  0  0  0  0  0  0  0  0  0  0
   36.6730   27.0070   29.2910 H   0  0  0  0  0  0  0  0  0  0  0  0
   36.1930   27.0130   30.2240 N   0  0  0  0  0  0  0  0  0  0  0  0
   36.3350   28.3960   30.7050 C   0  0  0  0  0  2  0  0  0  0  0  0
   37.8340   28.5580   30.5520 C   0  0  0  0  0  2  0  0  0  0  0  0
   38.3350   27.2840   31.1980 C   0  0  0  0  0  2  0  0  0  0  0  0
   37.1450   26.3460   31.1330 C   0  0  1  0  0  3  0  0  0  0  0  0
  1  2  1  0  0  0  0
  2 11  1  0  0  0  0
  2  3  2  0  0  0  0
  3  7  1  0  0  0  0
  4  3  1  0  0  0  0
  4  8  1  0  0  0  0
  5  4  2  0  0  0  0
  6  1  2  0  0  0  0
  6  5  1  0  0  0  0
  9  5  1  0  0  0  0
 10 16  1  0  0  0  0
 10 15  1  0  0  0  0
 11 10  2  0  0  0  0
 12 11  1  0  0  0  0
 12 13  2  0  0  0  0
 13 14  1  0  0  0  0
 14 15  2  0  0  0  0
 14 18  1  0  0  0  0
 17 12  1  0  0  0  0
 19 20  1  0  0  0  0
 19  1  1  0  0  0  0
 21  6  1  0  0  0  0
 22 23  1  0  0  0  0
 23 24  1  0  0  0  0
 23 27  1  0  0  0  0
 25 24  1  0  0  0  0
 25 26  1  0  0  0  0
 27 26  1  0  0  0  0
 27 21  1  1  0  0  0
M  END
>  <minimizedAffinity>
-5.22647762

$$$$

 OpenBabel03272501193D

 27 29  0  0  1  0  0  0  0  0999 V2000
   38.7770   25.7320   33.5150 C   0  0  0  0  0  0  0  0  0  0  0  0
   39.5440   25.6300   34.6700 C   0  0  0  0  0  0  0  0  0  0  0  0
   40.7000   26.4050   34.6740 C   0  0  0  0  0  0  0  0  0  0  0  0
   41.0330   27.2100   33.5890 C   0  0  0  0  0  0  0  0  0  0  0  0
   40.2070   27.2460   32.4830 C   0  0  0  0  0  0  0  0  0  0  0  0
   39.0550   26.4980   32.4330 C   0  0  0  0  0  0  0  0  0  0  0  0
   41.3310   26.3590   35.5520 H   0  0  0  0  0  0  0  0  0  0  0  0
   41.9510   27.7690   33.6970 H   0  0  0  0  0  0  0  0  0  0  0  0
   40.5900   27.9090   31.7280 H   0  0  0  0  0  0  0  0  0  0  0  0
   38.2240   25.2060   36.7010 C   0  0  0  0  0  0  0  0  0  0  0  0
   39.1910   24.7940   35.7880 C   0  0  0  0  0  0  0  0  0  0  0  0
   39.7900   23.5500   36.0110 C   0  0  0  0  0  0  0  0  0  0  0  0
   39.3960   22.8230   37.0950 N   0  0  0  0  0  0  0  0  0  0  0  0
   38.4570   23.2620   37.9510 C   0  0  0  0  0  0  0  0  0  0  0  0
   37.8720   24.4520   37.7530 N   0  0  0  0  0  0  0  0  0  0  0  0
   37.7590   26.1750   36.5240 H   0  0  0  0  0  0  0  0  0  0  0  0
   40.5450   23.2160   35.3070 H   0  0  0  0  0  0  0  0  0  0  0  0
   38.1490   22.6820   38.8080 H   0  0  0  0  0  0  0  0  0  0  0  0
   37.5960   24.9810   33.4330 O   0  0  0  0  0  0  0  0  0  0  0  0
   37.1900   24.5900   34.2720 H   0  0  0  0  0  0  0  0  0  0  0  0
   38.2520   26.5510   31.3240 O   0  0  0  0  0  0  0  0  0  0  0  0
   35.9310   28.0400   29.7380 H   0  0  0  0  0  0  0  0  0  0  0  0
   36.4070   27.1740   30.0890 N   0  0  0  0  0  0  0  0  0  0  0  0
   35.5790   26.7290   31.2210 C   0  0  0  0  0  2  0  0  0  0  0  0
   35.5310   28.0180   32.0150 C   0  0  0  0  0  2  0  0  0  0  0  0
   36.9920   28.4140   32.0210 C   0  0  0  0  0  2  0  0  0  0  0  0
   37.5780   27.6730   30.8340 C   0  0  1  0  0  3  0  0  0  0  0  0
  1  2  1  0  0  0  0
  2  3  2  0  0  0  0
  2 11  1  0  0  0  0
  3  7  1  0  0  0  0
  4  8  1  0  0  0  0
  4  3  1  0  0  0  0
  5  4  2  0  0  0  0
  6  5  1  0  0  0  0
  6  1  2  0  0  0  0
  9  5  1  0  0  0  0
 10 15  1  0  0  0  0
 11 12  1  0  0  0  0
 11 10  2  0  0  0  0
 12 13  2  0  0  0  0
 13 14  1  0  0  0  0
 14 18  1  0  0  0  0
 15 14  2  0  0  0  0
 16 10  1  0  0  0  0
 17 12  1  0  0  0  0
 19  1  1  0  0  0  0
 19 20  1  0  0  0  0
 21  6  1  0  0  0  0
 22 23  1  0  0  0  0
 23 27  1  0  0  0  0
 23 24  1  0  0  0  0
 24 25  1  0  0  0  0
 25 26  1  0  0  0  0
 27 21  1  1  0  0  0
 27 26  1  0  0  0  0
M  END
>  <minimizedAffinity>
-4.92949963

$$$$

 OpenBabel03272501193D

 27 29  0  0  1  0  0  0  0  0999 V2000
   38.7700   24.7540   34.2060 C   0  0  0  0  0  0  0  0  0  0  0  0
   39.9420   24.7880   34.9530 C   0  0  0  0  0  0  0  0  0  0  0  0
   40.6190   26.0040   34.9220 C   0  0  0  0  0  0  0  0  0  0  0  0
   40.1330   27.0830   34.1900 C   0  0  0  0  0  0  0  0  0  0  0  0
   38.9560   26.9530   33.4780 C   0  0  0  0  0  0  0  0  0  0  0  0
   38.2530   25.7720   33.4780 C   0  0  0  0  0  0  0  0  0  0  0  0
   41.5380   26.0810   35.4880 H   0  0  0  0  0  0  0  0  0  0  0  0
   40.7360   27.9780   34.2350 H   0  0  0  0  0  0  0  0  0  0  0  0
   38.7060   27.8640   32.9640 H   0  0  0  0  0  0  0  0  0  0  0  0
   41.5040   22.9080   35.2260 C   0  0  0  0  0  0  0  0  0  0  0  0
   40.4390   23.6660   35.7070 C   0  0  0  0  0  0  0  0  0  0  0  0
   39.8900   23.2880   36.9360 C   0  0  0  0  0  0  0  0  0  0  0  0
   40.4220   22.2120   37.5830 N   0  0  0  0  0  0  0  0  0  0  0  0
   41.4510   21.5090   37.0800 C   0  0  0  0  0  0  0  0  0  0  0  0
   41.9910   21.8580   35.9030 N   0  0  0  0  0  0  0  0  0  0  0  0
   41.9300   23.2060   34.2690 H   0  0  0  0  0  0  0  0  0  0  0  0
   39.0600   23.8700   37.3230 H   0  0  0  0  0  0  0  0  0  0  0  0
   41.8690   20.6580   37.5970 H   0  0  0  0  0  0  0  0  0  0  0  0
   38.0300   23.5620   34.1860 O   0  0  0  0  0  0  0  0  0  0  0  0
   38.2010   22.8540   34.8850 H   0  0  0  0  0  0  0  0  0  0  0  0
   37.0880   25.6690   32.7630 O   0  0  0  0  0  0  0  0  0  0  0  0
   36.7950   24.8100   29.7140 H   0  0  0  0  0  0  0  0  0  0  0  0
   36.9180   24.5900   30.7320 N   0  0  0  0  0  0  0  0  0  0  0  0
   35.5980   24.1110   31.1690 C   0  0  0  0  0  2  0  0  0  0  0  0
   34.7420   25.2590   30.6750 C   0  0  0  0  0  2  0  0  0  0  0  0
   35.5240   26.4500   31.1870 C   0  0  0  0  0  2  0  0  0  0  0  0
   36.9250   25.9080   31.3960 C   0  0  1  0  0  3  0  0  0  0  0  0
  1  2  1  0  0  0  0
  2 11  1  0  0  0  0
  3  2  2  0  0  0  0
  3  7  1  0  0  0  0
  4  8  1  0  0  0  0
  4  3  1  0  0  0  0
  5  6  1  0  0  0  0
  5  4  2  0  0  0  0
  6  1  2  0  0  0  0
  9  5  1  0  0  0  0
 10 11  2  0  0  0  0
 10 15  1  0  0  0  0
 11 12  1  0  0  0  0
 12 17  1  0  0  0  0
 12 13  2  0  0  0  0
 14 13  1  0  0  0  0
 14 18  1  0  0  0  0
 15 14  2  0  0  0  0
 16 10  1  0  0  0  0
 19  1  1  0  0  0  0
 19 20  1  0  0  0  0
 21  6  1  0  0  0  0
 22 23  1  0  0  0  0
 23 24  1  0  0  0  0
 23 27  1  0  0  0  0
 25 24  1  0  0  0  0
 25 26  1  0  0  0  0
 26 27  1  0  0  0  0
 27 21  1  1  0  0  0
M  END
>  <minimizedAffinity>
-4.85004473

$$$$

 OpenBabel03272501193D

 27 29  0  0  1  0  0  0  0  0999 V2000
   37.8750   22.8200   33.7960 C   0  0  0  0  0  0  0  0  0  0  0  0
   38.1860   23.8620   34.6610 C   0  0  0  0  0  0  0  0  0  0  0  0
   38.2070   25.1230   34.0720 C   0  0  0  0  0  0  0  0  0  0  0  0
   37.9320   25.2930   32.7190 C   0  0  0  0  0  0  0  0  0  0  0  0
   37.6330   24.1940   31.9370 C   0  0  0  0  0  0  0  0  0  0  0  0
   37.6000   22.9290   32.4740 C   0  0  0  0  0  0  0  0  0  0  0  0
   38.4440   25.9680   34.7050 H   0  0  0  0  0  0  0  0  0  0  0  0
   37.9760   26.3130   32.3660 H   0  0  0  0  0  0  0  0  0  0  0  0
   37.4440   24.4780   30.9180 H   0  0  0  0  0  0  0  0  0  0  0  0
   37.5630   24.1080   37.0280 C   0  0  0  0  0  0  0  0  0  0  0  0
   38.4700   23.6770   36.0610 C   0  0  0  0  0  0  0  0  0  0  0  0
   39.6440   23.0690   36.5130 C   0  0  0  0  0  0  0  0  0  0  0  0
   39.8320   22.9350   37.8570 N   0  0  0  0  0  0  0  0  0  0  0  0
   38.9290   23.3660   38.7550 C   0  0  0  0  0  0  0  0  0  0  0  0
   37.7960   23.9510   38.3390 N   0  0  0  0  0  0  0  0  0  0  0  0
   36.6490   24.5800   36.6720 H   0  0  0  0  0  0  0  0  0  0  0  0
   40.3590   22.7280   35.7710 H   0  0  0  0  0  0  0  0  0  0  0  0
   39.0830   23.2570   39.8180 H   0  0  0  0  0  0  0  0  0  0  0  0
   37.8350   21.5160   34.3130 O   0  0  0  0  0  0  0  0  0  0  0  0
   37.7770   21.3740   35.3120 H   0  0  0  0  0  0  0  0  0  0  0  0
   37.3010   21.8550   31.6770 O   0  0  0  0  0  0  0  0  0  0  0  0
   35.2490   20.0660   30.0320 H   0  0  0  0  0  0  0  0  0  0  0  0
   36.1900   20.2410   30.4620 N   0  0  0  0  0  0  0  0  0  0  0  0
   36.2050   19.4080   31.6740 C   0  0  0  0  0  2  0  0  0  0  0  0
   34.9120   19.8740   32.3110 C   0  0  0  0  0  2  0  0  0  0  0  0
   35.0570   21.3770   32.2050 C   0  0  0  0  0  2  0  0  0  0  0  0
   36.0660   21.5710   31.0890 C   0  0  1  0  0  3  0  0  0  0  0  0
  1 19  1  0  0  0  0
  1  2  1  0  0  0  0
  2 11  1  0  0  0  0
  3  2  2  0  0  0  0
  3  7  1  0  0  0  0
  4  3  1  0  0  0  0
  5  6  1  0  0  0  0
  5  4  2  0  0  0  0
  6  1  2  0  0  0  0
  8  4  1  0  0  0  0
  9  5  1  0  0  0  0
 10 15  1  0  0  0  0
 11 12  1  0  0  0  0
 11 10  2  0  0  0  0
 12 13  2  0  0  0  0
 13 14  1  0  0  0  0
 14 18  1  0  0  0  0
 15 14  2  0  0  0  0
 16 10  1  0  0  0  0
 17 12  1  0  0  0  0
 19 20  1  0  0  0  0
 21  6  1  0  0  0  0
 22 23  1  0  0  0  0
 23 27  1  0  0  0  0
 23 24  1  0  0  0  0
 24 25  1  0  0  0  0
 26 25  1  0  0  0  0
 27 21  1  1  0  0  0
 27 26  1  0  0  0  0
M  END
>  <minimizedAffinity>
-4.81058598

$$$$

 OpenBabel03272501193D

 27 29  0  0  1  0  0  0  0  0999 V2000
   37.7080   25.0760   33.2500 C   0  0  0  0  0  0  0  0  0  0  0  0
   37.1460   25.4250   32.0280 C   0  0  0  0  0  0  0  0  0  0  0  0
   36.7240   24.3500   31.2510 C   0  0  0  0  0  0  0  0  0  0  0  0
   36.8670   23.0400   31.6940 C   0  0  0  0  0  0  0  0  0  0  0  0
   37.4380   22.7910   32.9270 C   0  0  0  0  0  0  0  0  0  0  0  0
   37.8710   23.8190   33.7290 C   0  0  0  0  0  0  0  0  0  0  0  0
   36.2800   24.5710   30.2890 H   0  0  0  0  0  0  0  0  0  0  0  0
   36.5060   22.2820   31.0130 H   0  0  0  0  0  0  0  0  0  0  0  0
   37.4820   21.7370   33.1330 H   0  0  0  0  0  0  0  0  0  0  0  0
   38.0120   27.3930   30.8320 C   0  0  0  0  0  0  0  0  0  0  0  0
   37.0030   26.7860   31.5770 C   0  0  0  0  0  0  0  0  0  0  0  0
   35.8670   27.5510   31.8570 C   0  0  0  0  0  0  0  0  0  0  0  0
   35.8140   28.8310   31.3910 N   0  0  0  0  0  0  0  0  0  0  0  0
   36.8130   29.3770   30.6750 C   0  0  0  0  0  0  0  0  0  0  0  0
   37.9100   28.6570   30.3970 N   0  0  0  0  0  0  0  0  0  0  0  0
   38.8940   26.7940   30.6160 H   0  0  0  0  0  0  0  0  0  0  0  0
   35.0730   27.0910   32.4350 H   0  0  0  0  0  0  0  0  0  0  0  0
   36.7660   30.3910   30.3090 H   0  0  0  0  0  0  0  0  0  0  0  0
   38.1590   26.1040   34.0920 O   0  0  0  0  0  0  0  0  0  0  0  0
   37.8540   27.0540   33.9320 H   0  0  0  0  0  0  0  0  0  0  0  0
   38.4340   23.5470   34.9480 O   0  0  0  0  0  0  0  0  0  0  0  0
   38.4940   21.3410   37.2390 H   0  0  0  0  0  0  0  0  0  0  0  0
   38.9500   21.9000   36.4770 N   0  0  0  0  0  0  0  0  0  0  0  0
   39.7600   22.9020   37.1870 C   0  0  0  0  0  2  0  0  0  0  0  0
   38.6980   23.4750   38.1040 C   0  0  0  0  0  2  0  0  0  0  0  0
   37.5640   23.7070   37.1290 C   0  0  0  0  0  2  0  0  0  0  0  0
   37.8770   22.7780   35.9720 C   0  0  1  0  0  3  0  0  0  0  0  0
  1  6  1  0  0  0  0
  1 19  1  0  0  0  0
  2  1  2  0  0  0  0
  3  4  2  0  0  0  0
  3  2  1  0  0  0  0
  4  5  1  0  0  0  0
  5  9  1  0  0  0  0
  5  6  2  0  0  0  0
  6 21  1  0  0  0  0
  7  3  1  0  0  0  0
  8  4  1  0  0  0  0
 10 11  1  0  0  0  0
 11 12  2  0  0  0  0
 11  2  1  0  0  0  0
 12 17  1  0  0  0  0
 13 12  1  0  0  0  0
 14 13  2  0  0  0  0
 15 14  1  0  0  0  0
 15 10  2  0  0  0  0
 16 10  1  0  0  0  0
 18 14  1  0  0  0  0
 20 19  1  0  0  0  0
 23 24  1  0  0  0  0
 23 22  1  0  0  0  0
 24 25  1  0  0  0  0
 26 25  1  0  0  0  0
 27 21  1  6  0  0  0
 27 23  1  0  0  0  0
 27 26  1  0  0  0  0
M  END
>  <minimizedAffinity>
-4.71885586

$$$$

 OpenBabel03272501193D

 27 29  0  0  1  0  0  0  0  0999 V2000
   35.7930   29.1660   33.2190 C   0  0  0  0  0  0  0  0  0  0  0  0
   35.4950   30.5050   33.4400 C   0  0  0  0  0  0  0  0  0  0  0  0
   35.7200   31.3410   32.3490 C   0  0  0  0  0  0  0  0  0  0  0  0
   36.2060   30.8420   31.1450 C   0  0  0  0  0  0  0  0  0  0  0  0
   36.4740   29.4920   31.0210 C   0  0  0  0  0  0  0  0  0  0  0  0
   36.2680   28.6280   32.0700 C   0  0  0  0  0  0  0  0  0  0  0  0
   35.5020   32.3940   32.4710 H   0  0  0  0  0  0  0  0  0  0  0  0
   36.3440   31.5770   30.3650 H   0  0  0  0  0  0  0  0  0  0  0  0
   36.8420   29.2540   30.0390 H   0  0  0  0  0  0  0  0  0  0  0  0
   33.6230   31.0210   34.9500 C   0  0  0  0  0  0  0  0  0  0  0  0
   34.9920   31.0140   34.6900 C   0  0  0  0  0  0  0  0  0  0  0  0
   35.8330   31.5170   35.6860 C   0  0  0  0  0  0  0  0  0  0  0  0
   35.2720   31.9790   36.8400 N   0  0  0  0  0  0  0  0  0  0  0  0
   33.9440   31.9670   37.0480 C   0  0  0  0  0  0  0  0  0  0  0  0
   33.1220   31.4870   36.1030 N   0  0  0  0  0  0  0  0  0  0  0  0
   32.9710   30.6280   34.1720 H   0  0  0  0  0  0  0  0  0  0  0  0
   36.9020   31.5170   35.4970 H   0  0  0  0  0  0  0  0  0  0  0  0
   33.5050   32.3340   37.9630 H   0  0  0  0  0  0  0  0  0  0  0  0
   35.5940   28.2600   34.2710 O   0  0  0  0  0  0  0  0  0  0  0  0
   35.0180   28.5230   35.0580 H   0  0  0  0  0  0  0  0  0  0  0  0
   36.5420   27.2940   31.9220 O   0  0  0  0  0  0  0  0  0  0  0  0
   37.2300   24.9840   29.8460 H   0  0  0  0  0  0  0  0  0  0  0  0
   37.4280   25.5430   30.7110 N   0  0  0  0  0  0  0  0  0  0  0  0
   37.0330   24.6600   31.8200 C   0  0  0  0  0  2  0  0  0  0  0  0
   35.6290   24.3110   31.3700 C   0  0  0  0  0  2  0  0  0  0  0  0
   35.0830   25.6800   31.0220 C   0  0  0  0  0  2  0  0  0  0  0  0
   36.3230   26.5190   30.7810 C   0  0  1  0  0  3  0  0  0  0  0  0
  1  2  1  0  0  0  0
  1 19  1  0  0  0  0
  2 11  1  0  0  0  0
  3  7  1  0  0  0  0
  3  2  2  0  0  0  0
  4  3  1  0  0  0  0
  5  4  2  0  0  0  0
  5  6  1  0  0  0  0
  6  1  2  0  0  0  0
  8  4  1  0  0  0  0
  9  5  1  0  0  0  0
 10 15  1  0  0  0  0
 11 10  2  0  0  0  0
 11 12  1  0  0  0  0
 12 13  2  0  0  0  0
 13 14  1  0  0  0  0
 14 18  1  0  0  0  0
 15 14  2  0  0  0  0
 16 10  1  0  0  0  0
 17 12  1  0  0  0  0
 19 20  1  0  0  0  0
 21  6  1  0  0  0  0
 22 23  1  0  0  0  0
 23 27  1  0  0  0  0
 23 24  1  0  0  0  0
 25 24  1  0  0  0  0
 26 25  1  0  0  0  0
 27 26  1  0  0  0  0
 27 21  1  1  0  0  0
M  END
>  <minimizedAffinity>
-4.68904352

$$$$

 OpenBabel03272501193D

 27 29  0  0  1  0  0  0  0  0999 V2000
   37.9490   24.9630   33.9030 C   0  0  0  0  0  0  0  0  0  0  0  0
   38.0420   23.7210   34.5190 C   0  0  0  0  0  0  0  0  0  0  0  0
   37.7270   22.6380   33.7030 C   0  0  0  0  0  0  0  0  0  0  0  0
   37.3520   22.8210   32.3760 C   0  0  0  0  0  0  0  0  0  0  0  0
   37.2880   24.0970   31.8500 C   0  0  0  0  0  0  0  0  0  0  0  0
   37.5900   25.1960   32.6170 C   0  0  0  0  0  0  0  0  0  0  0  0
   37.7840   21.6490   34.1370 H   0  0  0  0  0  0  0  0  0  0  0  0
   37.1290   21.9140   31.8330 H   0  0  0  0  0  0  0  0  0  0  0  0
   36.9860   24.0820   30.8180 H   0  0  0  0  0  0  0  0  0  0  0  0
   37.5460   23.8540   36.9250 C   0  0  0  0  0  0  0  0  0  0  0  0
   38.4310   23.5420   35.8940 C   0  0  0  0  0  0  0  0  0  0  0  0
   39.6900   23.0550   36.2590 C   0  0  0  0  0  0  0  0  0  0  0  0
   39.9740   22.9160   37.5860 N   0  0  0  0  0  0  0  0  0  0  0  0
   39.0880   23.2300   38.5470 C   0  0  0  0  0  0  0  0  0  0  0  0
   37.8760   23.6980   38.2150 N   0  0  0  0  0  0  0  0  0  0  0  0
   36.5670   24.2320   36.6370 H   0  0  0  0  0  0  0  0  0  0  0  0
   40.3890   22.8070   35.4670 H   0  0  0  0  0  0  0  0  0  0  0  0
   39.3190   23.1180   39.5950 H   0  0  0  0  0  0  0  0  0  0  0  0
   38.2510   26.1050   34.6600 O   0  0  0  0  0  0  0  0  0  0  0  0
   38.7600   26.0120   35.5280 H   0  0  0  0  0  0  0  0  0  0  0  0
   37.5190   26.4520   32.0730 O   0  0  0  0  0  0  0  0  0  0  0  0
   36.4620   27.4570   29.2460 H   0  0  0  0  0  0  0  0  0  0  0  0
   36.3220   27.2180   30.2580 N   0  0  0  0  0  0  0  0  0  0  0  0
   36.2460   28.5210   30.9390 C   0  0  0  0  0  2  0  0  0  0  0  0
   37.5210   29.1490   30.4120 C   0  0  0  0  0  2  0  0  0  0  0  0
   38.5150   28.0300   30.6380 C   0  0  0  0  0  2  0  0  0  0  0  0
   37.6530   26.7850   30.7230 C   0  0  1  0  0  3  0  0  0  0  0  0
  1  2  1  0  0  0  0
  1 19  1  0  0  0  0
  2 11  1  0  0  0  0
  3  7  1  0  0  0  0
  3  2  2  0  0  0  0
  4  3  1  0  0  0  0
  5  4  2  0  0  0  0
  5  6  1  0  0  0  0
  6  1  2  0  0  0  0
  8  4  1  0  0  0  0
  9  5  1  0  0  0  0
 10 15  1  0  0  0  0
 11 12  1  0  0  0  0
 11 10  2  0  0  0  0
 12 13  2  0  0  0  0
 13 14  1  0  0  0  0
 14 18  1  0  0  0  0
 15 14  2  0  0  0  0
 16 10  1  0  0  0  0
 17 12  1  0  0  0  0
 19 20  1  0  0  0  0
 21  6  1  0  0  0  0
 22 23  1  0  0  0  0
 23 27  1  0  0  0  0
 23 24  1  0  0  0  0
 25 26  1  0  0  0  0
 25 24  1  0  0  0  0
 26 27  1  0  0  0  0
 27 21  1  1  0  0  0
M  END
>  <minimizedAffinity>
-4.67654514

$$$$

 OpenBabel03272501193D

 27 29  0  0  1  0  0  0  0  0999 V2000
   39.0710   25.6840   33.7300 C   0  0  0  0  0  0  0  0  0  0  0  0
   38.7480   26.5740   32.7130 C   0  0  0  0  0  0  0  0  0  0  0  0
   37.6820   27.4240   32.9970 C   0  0  0  0  0  0  0  0  0  0  0  0
   37.0140   27.3610   34.2150 C   0  0  0  0  0  0  0  0  0  0  0  0
   37.4080   26.4410   35.1670 C   0  0  0  0  0  0  0  0  0  0  0  0
   38.4550   25.5810   34.9330 C   0  0  0  0  0  0  0  0  0  0  0  0
   37.3910   28.1350   32.2360 H   0  0  0  0  0  0  0  0  0  0  0  0
   36.2020   28.0650   34.3310 H   0  0  0  0  0  0  0  0  0  0  0  0
   36.8040   26.5090   36.0540 H   0  0  0  0  0  0  0  0  0  0  0  0
   38.9960   25.8890   30.3640 C   0  0  0  0  0  0  0  0  0  0  0  0
   39.4440   26.6320   31.4540 C   0  0  0  0  0  0  0  0  0  0  0  0
   40.5820   27.4220   31.2640 C   0  0  0  0  0  0  0  0  0  0  0  0
   41.1800   27.4170   30.0380 N   0  0  0  0  0  0  0  0  0  0  0  0
   40.7120   26.6830   29.0140 C   0  0  0  0  0  0  0  0  0  0  0  0
   39.6210   25.9200   29.1780 N   0  0  0  0  0  0  0  0  0  0  0  0
   38.1090   25.2760   30.5160 H   0  0  0  0  0  0  0  0  0  0  0  0
   40.9420   28.0060   32.1040 H   0  0  0  0  0  0  0  0  0  0  0  0
   41.1900   26.6830   28.0460 H   0  0  0  0  0  0  0  0  0  0  0  0
   40.1340   24.7940   33.5200 O   0  0  0  0  0  0  0  0  0  0  0  0
   40.7950   24.9670   32.7760 H   0  0  0  0  0  0  0  0  0  0  0  0
   38.8280   24.6770   35.8920 O   0  0  0  0  0  0  0  0  0  0  0  0
   38.0020   21.8910   37.1870 H   0  0  0  0  0  0  0  0  0  0  0  0
   38.6630   22.5070   36.6530 N   0  0  0  0  0  0  0  0  0  0  0  0
   39.7280   22.8310   37.6150 C   0  0  0  0  0  2  0  0  0  0  0  0
   38.8780   23.3380   38.7630 C   0  0  0  0  0  2  0  0  0  0  0  0
   37.9460   24.2880   38.0410 C   0  0  0  0  0  2  0  0  0  0  0  0
   37.9850   23.8160   36.5990 C   0  0  1  0  0  3  0  0  0  0  0  0
  1  6  1  0  0  0  0
  2  3  1  0  0  0  0
  2  1  2  0  0  0  0
  3  4  2  0  0  0  0
  4  8  1  0  0  0  0
  4  5  1  0  0  0  0
  5  9  1  0  0  0  0
  6  5  2  0  0  0  0
  6 21  1  0  0  0  0
  7  3  1  0  0  0  0
 10 16  1  0  0  0  0
 10 11  1  0  0  0  0
 11  2  1  0  0  0  0
 12 11  2  0  0  0  0
 12 17  1  0  0  0  0
 13 12  1  0  0  0  0
 14 15  1  0  0  0  0
 14 13  2  0  0  0  0
 15 10  2  0  0  0  0
 18 14  1  0  0  0  0
 19  1  1  0  0  0  0
 20 19  1  0  0  0  0
 23 22  1  0  0  0  0
 23 24  1  0  0  0  0
 24 25  1  0  0  0  0
 26 25  1  0  0  0  0
 27 21  1  6  0  0  0
 27 23  1  0  0  0  0
 27 26  1  0  0  0  0
M  END
>  <minimizedAffinity>
-4.67207384

$$$$

 OpenBabel03272501193D

 27 29  0  0  1  0  0  0  0  0999 V2000
   37.0780   28.0620   34.3360 C   0  0  0  0  0  0  0  0  0  0  0  0
   37.8030   27.1530   33.5740 C   0  0  0  0  0  0  0  0  0  0  0  0
   37.3320   26.9720   32.2760 C   0  0  0  0  0  0  0  0  0  0  0  0
   36.2200   27.6650   31.8090 C   0  0  0  0  0  0  0  0  0  0  0  0
   35.5630   28.5500   32.6430 C   0  0  0  0  0  0  0  0  0  0  0  0
   35.9910   28.7610   33.9310 C   0  0  0  0  0  0  0  0  0  0  0  0
   37.8630   26.2740   31.6430 H   0  0  0  0  0  0  0  0  0  0  0  0
   35.9400   27.4500   30.7880 H   0  0  0  0  0  0  0  0  0  0  0  0
   34.7270   29.0090   32.1470 H   0  0  0  0  0  0  0  0  0  0  0  0
   40.2220   27.0100   33.9930 C   0  0  0  0  0  0  0  0  0  0  0  0
   38.9530   26.4400   34.0660 C   0  0  0  0  0  0  0  0  0  0  0  0
   38.8580   25.1640   34.6310 C   0  0  0  0  0  0  0  0  0  0  0  0
   39.9990   24.5610   35.0710 N   0  0  0  0  0  0  0  0  0  0  0  0
   41.2050   25.1500   34.9800 C   0  0  0  0  0  0  0  0  0  0  0  0
   41.3140   26.3740   34.4410 N   0  0  0  0  0  0  0  0  0  0  0  0
   40.2920   28.0040   33.5530 H   0  0  0  0  0  0  0  0  0  0  0  0
   37.8760   24.7080   34.6950 H   0  0  0  0  0  0  0  0  0  0  0  0
   42.1040   24.6680   35.3300 H   0  0  0  0  0  0  0  0  0  0  0  0
   37.4900   28.2990   35.6560 O   0  0  0  0  0  0  0  0  0  0  0  0
   38.4150   28.0220   35.9510 H   0  0  0  0  0  0  0  0  0  0  0  0
   35.3230   29.6440   34.7390 O   0  0  0  0  0  0  0  0  0  0  0  0
   34.0220   32.5470   34.6920 H   0  0  0  0  0  0  0  0  0  0  0  0
   33.9570   31.5020   34.7600 N   0  0  0  0  0  0  0  0  0  0  0  0
   33.7260   31.2370   36.1880 C   0  0  0  0  0  2  0  0  0  0  0  0
   34.8760   32.0280   36.7770 C   0  0  0  0  0  2  0  0  0  0  0  0
   36.0270   31.5600   35.9110 C   0  0  0  0  0  2  0  0  0  0  0  0
   35.3540   31.0380   34.6560 C   0  0  1  0  0  3  0  0  0  0  0  0
  1 19  1  0  0  0  0
  2 11  1  0  0  0  0
  2  1  2  0  0  0  0
  3  2  1  0  0  0  0
  4  3  2  0  0  0  0
  4  5  1  0  0  0  0
  5  6  2  0  0  0  0
  6  1  1  0  0  0  0
  6 21  1  0  0  0  0
  7  3  1  0  0  0  0
  8  4  1  0  0  0  0
  9  5  1  0  0  0  0
 10 11  2  0  0  0  0
 10 15  1  0  0  0  0
 11 12  1  0  0  0  0
 12 17  1  0  0  0  0
 12 13  2  0  0  0  0
 14 13  1  0  0  0  0
 14 18  1  0  0  0  0
 15 14  2  0  0  0  0
 16 10  1  0  0  0  0
 19 20  1  0  0  0  0
 22 23  1  0  0  0  0
 23 24  1  0  0  0  0
 24 25  1  0  0  0  0
 26 25  1  0  0  0  0
 27 21  1  1  0  0  0
 27 23  1  0  0  0  0
 27 26  1  0  0  0  0
M  END
>  <minimizedAffinity>
-4.66484642

$$$$
