
 OpenBabel03272509453D

 16 17  0  0  1  0  0  0  0  0999 V2000
   38.7930   32.7830   48.2240 C   0  0  0  0  0  0  0  0  0  0  0  0
   39.3910   32.5850   46.9570 C   0  0  0  0  0  0  0  0  0  0  0  0
   38.8460   31.6060   46.1090 C   0  0  0  0  0  0  0  0  0  0  0  0
   37.7600   30.8940   46.5610 N   0  0  0  0  0  0  0  0  0  0  0  0
   37.2230   31.1220   47.7870 C   0  0  0  0  0  0  0  0  0  0  0  0
   37.7320   32.0550   48.6130 N   0  0  0  0  0  0  0  0  0  0  0  0
   39.1360   33.5030   48.9380 H   0  0  0  0  0  0  0  0  0  0  0  0
   40.2260   33.2000   46.7250 H   0  0  0  0  0  0  0  0  0  0  0  0
   39.3010   31.4640   45.1570 H   0  0  0  0  0  0  0  0  0  0  0  0
   36.1470   30.2950   48.0260 O   0  0  0  0  0  0  0  0  0  0  0  0
   36.9060   30.8550   50.3090 H   0  0  0  0  0  0  0  0  0  0  0  0
   36.7680   29.8170   50.2840 N   0  0  0  0  0  0  0  0  0  0  0  0
   35.8220   29.4070   51.2900 C   0  0  0  0  0  2  0  0  0  0  0  0
   34.5340   29.3020   50.5170 C   0  0  0  0  0  2  0  0  0  0  0  0
   34.9850   28.6510   49.2250 C   0  0  0  0  0  2  0  0  0  0  0  0
   36.3440   29.2990   49.0230 C   0  0  1  0  0  3  0  0  0  0  0  0
  1  6  1  0  0  0  0
  1  7  1  0  0  0  0
  2  1  2  0  0  0  0
  3  4  2  0  0  0  0
  3  2  1  0  0  0  0
  4  5  1  0  0  0  0
  5 10  1  0  0  0  0
  5  6  2  0  0  0  0
  8  2  1  0  0  0  0
  9  3  1  0  0  0  0
 12 11  1  0  0  0  0
 12 13  1  0  0  0  0
 14 13  1  0  0  0  0
 15 14  1  0  0  0  0
 16 10  1  6  0  0  0
 16 15  1  0  0  0  0
 16 12  1  0  0  0  0
M  END
>  <minimizedAffinity>
-4.01389408

>  <minimizedRMSD>
3.31950116

$$$$
