
 OpenBabel03272504213D

 36 38  0  0  1  0  0  0  0  0999 V2000
   36.8360   31.5840   48.6640 O   0  0  0  0  0  0  0  0  0  0  0  0
   38.8550   32.3800   47.8260 C   0  0  2  0  0  0  0  0  0  0  0  0
   38.1970   31.3700   48.7450 C   0  0  1  0  0  0  0  0  0  0  0  0
   38.7170   31.9220   50.0810 C   0  0  0  0  0  0  0  0  0  0  0  0
   38.3940   33.2640   49.9630 O   0  0  0  0  0  0  0  0  0  0  0  0
   38.6600   33.6540   48.6580 C   0  0  0  0  0  0  0  0  0  0  0  0
   39.9320   32.1700   47.6990 H   0  0  0  0  0  0  0  0  0  0  0  0
   38.5050   30.3380   48.5720 H   0  0  0  0  0  0  0  0  0  0  0  0
   38.1540   31.5020   50.9440 H   0  0  0  0  0  0  0  0  0  0  0  0
   39.7790   31.7330   50.2060 H   0  0  0  0  0  0  0  0  0  0  0  0
   37.7670   34.1480   48.2480 H   0  0  0  0  0  0  0  0  0  0  0  0
   39.5850   34.2660   48.6050 H   0  0  0  0  0  0  0  0  0  0  0  0
   38.1520   32.4080   46.6420 O   0  0  0  0  0  0  0  0  0  0  0  0
   38.8060   29.7600   45.5890 H   0  0  0  0  0  0  0  0  0  0  0  0
   38.2170   30.5330   45.2120 N   0  0  0  0  0  0  0  0  0  0  0  0
   38.3680   30.4770   43.7530 C   0  0  0  0  0  2  0  0  0  0  0  0
   37.8420   31.8440   43.3650 C   0  0  0  0  0  2  0  0  0  0  0  0
   38.5880   32.7190   44.3690 C   0  0  0  0  0  2  0  0  0  0  0  0
   38.8050   31.8260   45.5710 C   0  0  1  0  0  3  0  0  0  0  0  0
   35.8890   29.8470   46.9670 O   0  0  0  0  0  0  0  0  0  0  0  0
   35.9560   30.1680   48.4330 P   0  0  1  0  0  0  0  0  0  0  0  0
   36.7540   28.8690   49.2230 O   0  0  0  0  0  0  0  0  0  0  0  0
   37.2380   28.3290   48.5690 H   0  0  0  0  0  0  0  0  0  0  0  0
   34.3950   30.3450   49.0810 O   0  0  0  0  0  0  0  0  0  0  0  0
   34.1310   29.1990   49.8080 C   0  0  0  0  0  0  0  0  0  0  0  0
   33.5520   29.5380   50.7090 H   0  0  0  0  0  0  0  0  0  0  0  0
   35.0670   28.7060   50.1810 H   0  0  0  0  0  0  0  0  0  0  0  0
   33.2640   28.2340   49.0960 C   0  0  0  0  0  0  0  0  0  0  0  0
   33.8910   27.3390   48.2620 C   0  0  0  0  0  0  0  0  0  0  0  0
   33.1300   26.4000   47.5600 C   0  0  0  0  0  0  0  0  0  0  0  0
   31.7810   26.4340   47.7520 N   0  0  0  0  0  0  0  0  0  0  0  0
   31.1900   27.3220   48.5750 C   0  0  0  0  0  0  0  0  0  0  0  0
   31.9310   28.2230   49.2480 N   0  0  0  0  0  0  0  0  0  0  0  0
   34.9400   27.2350   48.0470 H   0  0  0  0  0  0  0  0  0  0  0  0
   33.5450   25.6550   46.8790 H   0  0  0  0  0  0  0  0  0  0  0  0
   30.1150   27.3330   48.7150 H   0  0  0  0  0  0  0  0  0  0  0  0
  1  3  1  0  0  0  0
  2  7  1  6  0  0  0
  2  6  1  0  0  0  0
  2  3  1  0  0  0  0
  3  8  1  6  0  0  0
  3  4  1  0  0  0  0
  4 10  1  0  0  0  0
  4  9  1  0  0  0  0
  5  4  1  0  0  0  0
  6  5  1  0  0  0  0
 11  6  1  0  0  0  0
 12  6  1  0  0  0  0
 13  2  1  0  0  0  0
 15 19  1  0  0  0  0
 15 14  1  0  0  0  0
 16 15  1  0  0  0  0
 17 16  1  0  0  0  0
 17 18  1  0  0  0  0
 18 19  1  0  0  0  0
 19 13  1  1  0  0  0
 21 20  2  6  0  0  0
 21  1  1  0  0  0  0
 21 24  1  0  0  0  0
 21 22  1  0  0  0  0
 23 22  1  0  0  0  0
 24 25  1  0  0  0  0
 25 27  1  0  0  0  0
 25 26  1  0  0  0  0
 28 33  1  0  0  0  0
 28 25  1  0  0  0  0
 29 28  2  0  0  0  0
 30 31  2  0  0  0  0
 30 29  1  0  0  0  0
 31 32  1  0  0  0  0
 32 36  1  0  0  0  0
 32 33  2  0  0  0  0
 34 29  1  0  0  0  0
 35 30  1  0  0  0  0
M  END
>  <minimizedAffinity>
-4.32751656

>  <minimizedRMSD>
0.292552322

$$$$
