
 OpenBabel03272504213D

 36 38  0  0  1  0  0  0  0  0999 V2000
   36.8580   31.5930   48.7160 O   0  0  0  0  0  0  0  0  0  0  0  0
   38.8610   32.4010   47.8540 C   0  0  2  0  0  0  0  0  0  0  0  0
   38.2210   31.3920   48.7860 C   0  0  1  0  0  0  0  0  0  0  0  0
   38.7490   31.9590   50.1130 C   0  0  0  0  0  0  0  0  0  0  0  0
   38.4130   33.2970   49.9880 O   0  0  0  0  0  0  0  0  0  0  0  0
   38.6630   33.6800   48.6780 C   0  0  0  0  0  0  0  0  0  0  0  0
   39.9390   32.2000   47.7180 H   0  0  0  0  0  0  0  0  0  0  0  0
   38.5370   30.3610   48.6180 H   0  0  0  0  0  0  0  0  0  0  0  0
   38.1990   31.5400   50.9850 H   0  0  0  0  0  0  0  0  0  0  0  0
   39.8140   31.7800   50.2300 H   0  0  0  0  0  0  0  0  0  0  0  0
   37.7610   34.1620   48.2730 H   0  0  0  0  0  0  0  0  0  0  0  0
   39.5820   34.3000   48.6120 H   0  0  0  0  0  0  0  0  0  0  0  0
   38.1470   32.4140   46.6760 O   0  0  0  0  0  0  0  0  0  0  0  0
   39.5940   29.9850   45.9290 H   0  0  0  0  0  0  0  0  0  0  0  0
   38.7100   30.4080   45.5710 N   0  0  0  0  0  0  0  0  0  0  0  0
   38.6610   30.0840   44.1400 C   0  0  0  0  0  2  0  0  0  0  0  0
   37.6100   31.0670   43.6670 C   0  0  0  0  0  2  0  0  0  0  0  0
   38.1060   32.3440   44.3410 C   0  0  0  0  0  2  0  0  0  0  0  0
   38.8130   31.8680   45.5940 C   0  0  1  0  0  3  0  0  0  0  0  0
   35.9870   29.8670   46.9690 O   0  0  0  0  0  0  0  0  0  0  0  0
   35.9930   30.1760   48.4390 P   0  0  1  0  0  0  0  0  0  0  0  0
   36.7630   28.8730   49.2490 O   0  0  0  0  0  0  0  0  0  0  0  0
   37.2760   28.3410   48.6110 H   0  0  0  0  0  0  0  0  0  0  0  0
   34.4070   30.3420   49.0240 O   0  0  0  0  0  0  0  0  0  0  0  0
   34.1350   29.2110   49.7710 C   0  0  0  0  0  0  0  0  0  0  0  0
   33.5460   29.5670   50.6580 H   0  0  0  0  0  0  0  0  0  0  0  0
   35.0670   28.7250   50.1640 H   0  0  0  0  0  0  0  0  0  0  0  0
   33.2770   28.2310   49.0680 C   0  0  0  0  0  0  0  0  0  0  0  0
   33.9100   27.3430   48.2310 C   0  0  0  0  0  0  0  0  0  0  0  0
   33.1570   26.3910   47.5390 C   0  0  0  0  0  0  0  0  0  0  0  0
   31.8090   26.4060   47.7410 N   0  0  0  0  0  0  0  0  0  0  0  0
   31.2120   27.2890   48.5660 C   0  0  0  0  0  0  0  0  0  0  0  0
   31.9450   28.2020   49.2300 N   0  0  0  0  0  0  0  0  0  0  0  0
   34.9580   27.2540   48.0090 H   0  0  0  0  0  0  0  0  0  0  0  0
   33.5770   25.6500   46.8560 H   0  0  0  0  0  0  0  0  0  0  0  0
   30.1380   27.2840   48.7150 H   0  0  0  0  0  0  0  0  0  0  0  0
  1  3  1  0  0  0  0
  2  7  1  6  0  0  0
  2  6  1  0  0  0  0
  2  3  1  0  0  0  0
  3  8  1  6  0  0  0
  3  4  1  0  0  0  0
  4 10  1  0  0  0  0
  4  9  1  0  0  0  0
  5  4  1  0  0  0  0
  6  5  1  0  0  0  0
 11  6  1  0  0  0  0
 12  6  1  0  0  0  0
 13  2  1  0  0  0  0
 15 19  1  0  0  0  0
 15 14  1  0  0  0  0
 16 15  1  0  0  0  0
 17 16  1  0  0  0  0
 17 18  1  0  0  0  0
 18 19  1  0  0  0  0
 19 13  1  1  0  0  0
 21 20  2  6  0  0  0
 21  1  1  0  0  0  0
 21 24  1  0  0  0  0
 21 22  1  0  0  0  0
 23 22  1  0  0  0  0
 24 25  1  0  0  0  0
 25 27  1  0  0  0  0
 25 26  1  0  0  0  0
 28 33  1  0  0  0  0
 28 25  1  0  0  0  0
 29 28  2  0  0  0  0
 30 31  2  0  0  0  0
 30 29  1  0  0  0  0
 31 32  1  0  0  0  0
 32 36  1  0  0  0  0
 32 33  2  0  0  0  0
 34 29  1  0  0  0  0
 35 30  1  0  0  0  0
M  END
>  <minimizedAffinity>
-4.37006712

>  <minimizedRMSD>
0.333027005

$$$$
