
 OpenBabel03272509453D

 16 17  0  0  1  0  0  0  0  0999 V2000
   37.7140   32.8380   49.3280 C   0  0  0  0  0  0  0  0  0  0  0  0
   38.4400   32.3720   48.2070 C   0  0  0  0  0  0  0  0  0  0  0  0
   38.2940   31.0260   47.8300 C   0  0  0  0  0  0  0  0  0  0  0  0
   37.4500   30.2370   48.5750 N   0  0  0  0  0  0  0  0  0  0  0  0
   36.7760   30.7320   49.6450 C   0  0  0  0  0  0  0  0  0  0  0  0
   36.9040   32.0190   50.0210 N   0  0  0  0  0  0  0  0  0  0  0  0
   37.7610   33.8440   49.6910 H   0  0  0  0  0  0  0  0  0  0  0  0
   39.0590   33.0820   47.7140 H   0  0  0  0  0  0  0  0  0  0  0  0
   38.8420   30.6840   46.9850 H   0  0  0  0  0  0  0  0  0  0  0  0
   35.9930   29.7650   50.2380 O   0  0  0  0  0  0  0  0  0  0  0  0
   35.2050   31.0070   48.2540 H   0  0  0  0  0  0  0  0  0  0  0  0
   34.3780   30.4860   48.6310 N   0  0  0  0  0  0  0  0  0  0  0  0
   33.8260   29.6140   47.6250 C   0  0  0  0  0  2  0  0  0  0  0  0
   34.4470   28.2820   47.9570 C   0  0  0  0  0  2  0  0  0  0  0  0
   34.3700   28.2590   49.4710 C   0  0  0  0  0  2  0  0  0  0  0  0
   34.6380   29.7180   49.8050 C   0  0  1  0  0  3  0  0  0  0  0  0
  1  7  1  0  0  0  0
  1  6  1  0  0  0  0
  2  1  2  0  0  0  0
  3  2  1  0  0  0  0
  3  4  2  0  0  0  0
  4  5  1  0  0  0  0
  5  6  2  0  0  0  0
  5 10  1  0  0  0  0
  8  2  1  0  0  0  0
  9  3  1  0  0  0  0
 11 12  1  0  0  0  0
 12 16  1  0  0  0  0
 13 14  1  0  0  0  0
 13 12  1  0  0  0  0
 14 15  1  0  0  0  0
 15 16  1  0  0  0  0
 16 10  1  6  0  0  0
M  END
>  <minimizedAffinity>
-4.21421814

>  <minimizedRMSD>
3.16186881

$$$$
