
 OpenBabel03272503493D

 34 36  0  0  1  0  0  0  0  0999 V2000
   33.1890   27.2840   45.8750 C   0  0  1  0  0  0  0  0  0  0  0  0
   33.9100   27.4540   47.2310 C   0  0  2  0  0  0  0  0  0  0  0  0
   33.7520   26.2380   47.8200 O   0  0  0  0  0  0  0  0  0  0  0  0
   34.0540   25.3270   46.8150 C   0  0  0  0  0  0  0  0  0  0  0  0
   33.5760   25.8890   45.5070 C   0  0  2  0  0  0  0  0  0  0  0  0
   33.5900   28.0500   45.1640 H   0  0  0  0  0  0  0  0  0  0  0  0
   34.9610   27.7190   46.9520 H   0  0  0  0  0  0  0  0  0  0  0  0
   33.4310   24.4150   47.0490 H   0  0  0  0  0  0  0  0  0  0  0  0
   35.1150   25.0200   46.8170 H   0  0  0  0  0  0  0  0  0  0  0  0
   32.7200   25.3440   45.0610 H   0  0  0  0  0  0  0  0  0  0  0  0
   31.8320   27.4980   46.0190 O   0  0  0  0  0  0  0  0  0  0  0  0
   31.4720   27.0170   46.7980 H   0  0  0  0  0  0  0  0  0  0  0  0
   33.2870   28.5140   47.8210 O   0  0  0  0  0  0  0  0  0  0  0  0
   35.3470   29.7940   46.7820 O   0  0  0  0  0  0  0  0  0  0  0  0
   34.0850   29.9800   47.6130 P   0  0  1  0  0  0  0  0  0  0  0  0
   33.1190   31.0460   46.7160 O   0  0  0  0  0  0  0  0  0  0  0  0
   32.2440   31.1900   47.1990 H   0  0  0  0  0  0  0  0  0  0  0  0
   34.3870   30.6150   49.1710 O   0  0  0  0  0  0  0  0  0  0  0  0
   35.6190   30.4950   49.7840 C   0  0  0  0  0  0  0  0  0  0  0  0
   35.9650   29.4770   50.7040 C   0  0  0  0  0  0  0  0  0  0  0  0
   37.2460   29.4900   51.2370 C   0  0  0  0  0  0  0  0  0  0  0  0
   38.1080   30.4810   50.8480 N   0  0  0  0  0  0  0  0  0  0  0  0
   37.7460   31.4480   49.9620 C   0  0  0  0  0  0  0  0  0  0  0  0
   36.4920   31.4490   49.4290 N   0  0  0  0  0  0  0  0  0  0  0  0
   35.2130   28.7600   50.9310 H   0  0  0  0  0  0  0  0  0  0  0  0
   37.5240   28.7250   51.9360 H   0  0  0  0  0  0  0  0  0  0  0  0
   38.4440   32.2190   49.6700 H   0  0  0  0  0  0  0  0  0  0  0  0
   34.5930   25.8860   44.5760 O   0  0  0  0  0  0  0  0  0  0  0  0
   33.7170   25.0620   42.4150 H   0  0  0  0  0  0  0  0  0  0  0  0
   34.6180   24.6050   42.6810 N   0  0  0  0  0  0  0  0  0  0  0  0
   35.7490   25.1400   41.9530 C   0  0  0  0  0  0  0  0  0  0  0  0
   36.8610   25.3570   42.9750 C   0  0  0  0  0  0  0  0  0  0  0  0
   36.4240   24.4130   44.0780 C   0  0  0  0  0  0  0  0  0  0  0  0
   34.9310   24.6540   44.0750 C   0  0  1  0  0  0  0  0  0  0  0  0
  1  6  1  6  0  0  0
  1 11  1  0  0  0  0
  1  2  1  0  0  0  0
  2  7  1  6  0  0  0
  2  3  1  0  0  0  0
  2 13  1  0  0  0  0
  4  9  1  0  0  0  0
  4  8  1  0  0  0  0
  4  3  1  0  0  0  0
  5 10  1  6  0  0  0
  5  1  1  0  0  0  0
  5  4  1  0  0  0  0
 11 12  1  0  0  0  0
 15 14  2  6  0  0  0
 15 13  1  0  0  0  0
 15 18  1  0  0  0  0
 16 17  1  0  0  0  0
 16 15  1  0  0  0  0
 18 19  1  0  0  0  0
 19 20  1  0  0  0  0
 20 25  1  0  0  0  0
 20 21  2  0  0  0  0
 21 26  1  0  0  0  0
 22 21  1  0  0  0  0
 23 22  2  0  0  0  0
 24 19  2  0  0  0  0
 24 23  1  0  0  0  0
 27 23  1  0  0  0  0
 28  5  1  0  0  0  0
 29 30  1  0  0  0  0
 30 34  1  0  0  0  0
 31 30  1  0  0  0  0
 31 32  1  0  0  0  0
 32 33  1  0  0  0  0
 34 33  1  0  0  0  0
 34 28  1  6  0  0  0
M  END
>  <minimizedAffinity>
-4.1605792

>  <minimizedRMSD>
1.44220412

$$$$
