
 OpenBabel03272506453D

 29 31  0  0  1  0  0  0  0  0999 V2000
   38.0060   25.0720   30.7680 C   0  0  2  0  0  0  0  0  0  0  0  0
   37.7020   23.5860   30.6790 C   0  0  1  0  0  0  0  0  0  0  0  0
   38.5970   22.9190   31.4610 O   0  0  0  0  0  0  0  0  0  0  0  0
   39.3390   23.8240   32.1910 C   0  0  0  0  0  0  0  0  0  0  0  0
   38.5190   25.1140   32.1970 C   0  0  1  0  0  0  0  0  0  0  0  0
   38.7520   25.3730   30.0290 H   0  0  0  0  0  0  0  0  0  0  0  0
   37.7060   23.2100   29.6390 H   0  0  0  0  0  0  0  0  0  0  0  0
   40.2920   23.9980   31.6510 H   0  0  0  0  0  0  0  0  0  0  0  0
   39.5290   23.4650   33.2210 H   0  0  0  0  0  0  0  0  0  0  0  0
   37.6850   25.0020   32.8890 H   0  0  0  0  0  0  0  0  0  0  0  0
   36.8570   25.8400   30.5980 O   0  0  0  0  0  0  0  0  0  0  0  0
   36.4150   26.0520   31.4580 H   0  0  0  0  0  0  0  0  0  0  0  0
   36.0460   23.3630   31.4380 S   0  0  0  0  0  0  0  0  0  0  0  0
   35.4770   20.0560   33.5450 C   0  0  0  0  0  0  0  0  0  0  0  0
   35.5530   19.0160   32.6330 C   0  0  0  0  0  0  0  0  0  0  0  0
   35.7930   19.3500   31.2860 C   0  0  0  0  0  0  0  0  0  0  0  0
   35.9360   20.6580   30.9650 N   0  0  0  0  0  0  0  0  0  0  0  0
   35.8540   21.6410   31.8900 C   0  0  0  0  0  0  0  0  0  0  0  0
   35.6250   21.3600   33.1860 N   0  0  0  0  0  0  0  0  0  0  0  0
   35.2930   19.8940   34.6130 H   0  0  0  0  0  0  0  0  0  0  0  0
   35.4300   17.9990   32.9560 H   0  0  0  0  0  0  0  0  0  0  0  0
   35.8610   18.5730   30.5400 H   0  0  0  0  0  0  0  0  0  0  0  0
   39.3370   26.2140   32.4260 O   0  0  0  0  0  0  0  0  0  0  0  0
   37.4950   25.4680   34.1180 H   0  0  0  0  0  0  0  0  0  0  0  0
   37.3980   26.4510   33.7810 N   0  0  0  0  0  0  0  0  0  0  0  0
   37.1320   27.2520   34.9620 C   0  0  0  0  0  2  0  0  0  0  0  0
   38.4190   27.1700   35.7300 C   0  0  0  0  0  2  0  0  0  0  0  0
   39.4710   27.0100   34.6710 C   0  0  0  0  0  2  0  0  0  0  0  0
   38.6770   26.9930   33.3750 C   0  0  1  0  0  3  0  0  0  0  0  0
  1  6  1  6  0  0  0
  1  5  1  0  0  0  0
  2  7  1  6  0  0  0
  2  1  1  0  0  0  0
  2 13  1  0  0  0  0
  2  3  1  0  0  0  0
  3  4  1  0  0  0  0
  4  5  1  0  0  0  0
  4  9  1  0  0  0  0
  5 23  1  0  0  0  0
  5 10  1  1  0  0  0
  8  4  1  0  0  0  0
 11  1  1  0  0  0  0
 11 12  1  0  0  0  0
 13 18  1  0  0  0  0
 14 20  1  0  0  0  0
 15 21  1  0  0  0  0
 15 14  2  0  0  0  0
 16 15  1  0  0  0  0
 17 16  2  0  0  0  0
 17 18  1  0  0  0  0
 18 19  2  0  0  0  0
 19 14  1  0  0  0  0
 22 16  1  0  0  0  0
 25 24  1  0  0  0  0
 25 26  1  0  0  0  0
 26 27  1  0  0  0  0
 28 27  1  0  0  0  0
 29 23  1  6  0  0  0
 29 25  1  0  0  0  0
 29 28  1  0  0  0  0
M  END
>  <minimizedAffinity>
-4.5518899

$$$$

 OpenBabel03272506453D

 29 31  0  0  1  0  0  0  0  0999 V2000
   37.2500   24.0010   31.2940 C   0  0  2  0  0  0  0  0  0  0  0  0
   38.3580   23.7040   32.2890 C   0  0  1  0  0  0  0  0  0  0  0  0
   38.5850   24.8280   33.0270 O   0  0  0  0  0  0  0  0  0  0  0  0
   37.6190   25.7710   32.7420 C   0  0  0  0  0  0  0  0  0  0  0  0
   36.4550   24.9910   32.1290 C   0  0  1  0  0  0  0  0  0  0  0  0
   37.6460   24.4300   30.3710 H   0  0  0  0  0  0  0  0  0  0  0  0
   39.2830   23.3410   31.8030 H   0  0  0  0  0  0  0  0  0  0  0  0
   38.0340   26.4650   31.9840 H   0  0  0  0  0  0  0  0  0  0  0  0
   37.3000   26.3210   33.6480 H   0  0  0  0  0  0  0  0  0  0  0  0
   35.9260   24.4620   32.9200 H   0  0  0  0  0  0  0  0  0  0  0  0
   36.5140   22.8590   30.9910 O   0  0  0  0  0  0  0  0  0  0  0  0
   35.7260   22.7510   31.5800 H   0  0  0  0  0  0  0  0  0  0  0  0
   37.6870   22.4320   33.4290 S   0  0  0  0  0  0  0  0  0  0  0  0
   40.4010   22.2430   36.3090 C   0  0  0  0  0  0  0  0  0  0  0  0
   39.8070   22.8220   37.4190 C   0  0  0  0  0  0  0  0  0  0  0  0
   38.4910   23.3010   37.2750 C   0  0  0  0  0  0  0  0  0  0  0  0
   37.8880   23.1680   36.0690 N   0  0  0  0  0  0  0  0  0  0  0  0
   38.5070   22.5960   35.0130 C   0  0  0  0  0  0  0  0  0  0  0  0
   39.7650   22.1260   35.1130 N   0  0  0  0  0  0  0  0  0  0  0  0
   41.4210   21.8430   36.3250 H   0  0  0  0  0  0  0  0  0  0  0  0
   40.3440   22.8960   38.3460 H   0  0  0  0  0  0  0  0  0  0  0  0
   37.9880   23.7600   38.1120 H   0  0  0  0  0  0  0  0  0  0  0  0
   35.6680   25.8240   31.3420 O   0  0  0  0  0  0  0  0  0  0  0  0
   35.5620   27.5420   29.3800 H   0  0  0  0  0  0  0  0  0  0  0  0
   36.5000   27.4580   29.8290 N   0  0  0  0  0  0  0  0  0  0  0  0
   36.9690   28.8170   30.0300 C   0  0  0  0  0  2  0  0  0  0  0  0
   36.0270   29.3550   31.0670 C   0  0  0  0  0  2  0  0  0  0  0  0
   35.6370   28.1500   31.8730 C   0  0  0  0  0  2  0  0  0  0  0  0
   36.3860   27.0100   31.2010 C   0  0  1  0  0  3  0  0  0  0  0  0
  1  6  1  6  0  0  0
  1  5  1  0  0  0  0
  1  2  1  0  0  0  0
  2  7  1  6  0  0  0
  2  3  1  0  0  0  0
  2 13  1  0  0  0  0
  4  3  1  0  0  0  0
  4  9  1  0  0  0  0
  5  4  1  0  0  0  0
  5 10  1  1  0  0  0
  8  4  1  0  0  0  0
 11  1  1  0  0  0  0
 11 12  1  0  0  0  0
 13 18  1  0  0  0  0
 14 20  1  0  0  0  0
 14 15  1  0  0  0  0
 15 21  1  0  0  0  0
 16 15  2  0  0  0  0
 16 22  1  0  0  0  0
 17 16  1  0  0  0  0
 18 19  1  0  0  0  0
 18 17  2  0  0  0  0
 19 14  2  0  0  0  0
 23  5  1  0  0  0  0
 24 25  1  0  0  0  0
 25 26  1  0  0  0  0
 25 29  1  0  0  0  0
 26 27  1  0  0  0  0
 27 28  1  0  0  0  0
 29 23  1  6  0  0  0
 29 28  1  0  0  0  0
M  END
>  <minimizedAffinity>
-4.51214027

$$$$

 OpenBabel03272506453D

 29 31  0  0  1  0  0  0  0  0999 V2000
   37.8200   24.8620   32.6150 C   0  0  2  0  0  0  0  0  0  0  0  0
   37.7000   23.7810   31.5540 C   0  0  1  0  0  0  0  0  0  0  0  0
   38.4100   22.6930   31.9690 O   0  0  0  0  0  0  0  0  0  0  0  0
   38.8310   22.8840   33.2680 C   0  0  0  0  0  0  0  0  0  0  0  0
   37.9170   23.9680   33.8390 C   0  0  1  0  0  0  0  0  0  0  0  0
   38.7060   25.4810   32.4570 H   0  0  0  0  0  0  0  0  0  0  0  0
   38.0250   24.1240   30.5550 H   0  0  0  0  0  0  0  0  0  0  0  0
   39.8720   23.2620   33.2370 H   0  0  0  0  0  0  0  0  0  0  0  0
   38.7670   21.9520   33.8630 H   0  0  0  0  0  0  0  0  0  0  0  0
   36.9410   23.5340   34.0550 H   0  0  0  0  0  0  0  0  0  0  0  0
   36.6910   25.6760   32.6450 O   0  0  0  0  0  0  0  0  0  0  0  0
   36.0120   25.3550   33.2910 H   0  0  0  0  0  0  0  0  0  0  0  0
   35.9300   23.2960   31.5250 S   0  0  0  0  0  0  0  0  0  0  0  0
   35.4620   19.8430   33.4130 C   0  0  0  0  0  0  0  0  0  0  0  0
   35.6280   18.8650   32.4450 C   0  0  0  0  0  0  0  0  0  0  0  0
   35.9000   19.2910   31.1320 C   0  0  0  0  0  0  0  0  0  0  0  0
   35.9830   20.6220   30.8930 N   0  0  0  0  0  0  0  0  0  0  0  0
   35.8140   21.5410   31.8680 C   0  0  0  0  0  0  0  0  0  0  0  0
   35.5530   21.1720   33.1360 N   0  0  0  0  0  0  0  0  0  0  0  0
   35.2470   19.6090   34.4610 H   0  0  0  0  0  0  0  0  0  0  0  0
   35.5480   17.8250   32.7040 H   0  0  0  0  0  0  0  0  0  0  0  0
   36.0370   18.5650   30.3440 H   0  0  0  0  0  0  0  0  0  0  0  0
   38.5290   24.6120   34.9080 O   0  0  0  0  0  0  0  0  0  0  0  0
   40.3740   24.4600   36.7490 H   0  0  0  0  0  0  0  0  0  0  0  0
   40.0140   23.5370   36.4220 N   0  0  0  0  0  0  0  0  0  0  0  0
   39.7770   22.7530   37.6200 C   0  0  0  0  0  2  0  0  0  0  0  0
   38.6330   23.4670   38.2770 C   0  0  0  0  0  2  0  0  0  0  0  0
   37.8660   24.0660   37.1340 C   0  0  0  0  0  2  0  0  0  0  0  0
   38.6660   23.6510   35.9090 C   0  0  1  0  0  3  0  0  0  0  0  0
  1  6  1  6  0  0  0
  1 11  1  0  0  0  0
  1  5  1  0  0  0  0
  2  7  1  6  0  0  0
  2  3  1  0  0  0  0
  2  1  1  0  0  0  0
  3  4  1  0  0  0  0
  4  5  1  0  0  0  0
  4  9  1  0  0  0  0
  5 10  1  1  0  0  0
  5 23  1  0  0  0  0
  8  4  1  0  0  0  0
 11 12  1  0  0  0  0
 13  2  1  0  0  0  0
 13 18  1  0  0  0  0
 14 20  1  0  0  0  0
 15 21  1  0  0  0  0
 15 14  2  0  0  0  0
 16 15  1  0  0  0  0
 17 16  2  0  0  0  0
 17 18  1  0  0  0  0
 18 19  2  0  0  0  0
 19 14  1  0  0  0  0
 22 16  1  0  0  0  0
 25 24  1  0  0  0  0
 25 26  1  0  0  0  0
 26 27  1  0  0  0  0
 28 27  1  0  0  0  0
 29 23  1  6  0  0  0
 29 25  1  0  0  0  0
 29 28  1  0  0  0  0
M  END
>  <minimizedAffinity>
-4.51089478

$$$$

 OpenBabel03272506453D

 29 31  0  0  1  0  0  0  0  0999 V2000
   36.9500   25.3000   32.6660 C   0  0  2  0  0  0  0  0  0  0  0  0
   37.9490   24.1680   32.8330 C   0  0  1  0  0  0  0  0  0  0  0  0
   38.4550   23.8580   31.6060 O   0  0  0  0  0  0  0  0  0  0  0  0
   38.0270   24.7890   30.6810 C   0  0  0  0  0  0  0  0  0  0  0  0
   37.6080   26.0120   31.4960 C   0  0  1  0  0  0  0  0  0  0  0  0
   35.9510   24.9220   32.4390 H   0  0  0  0  0  0  0  0  0  0  0  0
   37.5120   23.2820   33.3300 H   0  0  0  0  0  0  0  0  0  0  0  0
   37.1400   24.3720   30.1640 H   0  0  0  0  0  0  0  0  0  0  0  0
   38.8230   25.0440   29.9550 H   0  0  0  0  0  0  0  0  0  0  0  0
   38.5010   26.5340   31.8400 H   0  0  0  0  0  0  0  0  0  0  0  0
   36.8900   26.1010   33.8040 O   0  0  0  0  0  0  0  0  0  0  0  0
   37.5130   26.8690   33.7570 H   0  0  0  0  0  0  0  0  0  0  0  0
   39.3280   24.8530   33.8320 S   0  0  0  0  0  0  0  0  0  0  0  0
   38.0300   24.2390   37.5250 C   0  0  0  0  0  0  0  0  0  0  0  0
   38.9080   23.3220   38.0810 C   0  0  0  0  0  0  0  0  0  0  0  0
   39.9630   22.8620   37.2710 C   0  0  0  0  0  0  0  0  0  0  0  0
   40.0590   23.3410   36.0070 N   0  0  0  0  0  0  0  0  0  0  0  0
   39.1790   24.2360   35.5070 C   0  0  0  0  0  0  0  0  0  0  0  0
   38.1570   24.6980   36.2510 N   0  0  0  0  0  0  0  0  0  0  0  0
   37.1790   24.6530   38.0770 H   0  0  0  0  0  0  0  0  0  0  0  0
   38.7730   22.9830   39.0910 H   0  0  0  0  0  0  0  0  0  0  0  0
   40.6720   22.1460   37.6600 H   0  0  0  0  0  0  0  0  0  0  0  0
   36.7030   26.7900   30.7830 O   0  0  0  0  0  0  0  0  0  0  0  0
   36.0330   28.3670   28.8140 H   0  0  0  0  0  0  0  0  0  0  0  0
   37.0550   28.1600   28.8720 N   0  0  0  0  0  0  0  0  0  0  0  0
   37.7310   29.4330   28.7020 C   0  0  0  0  0  2  0  0  0  0  0  0
   37.3600   30.1870   29.9450 C   0  0  0  0  0  2  0  0  0  0  0  0
   37.1790   29.1190   30.9850 C   0  0  0  0  0  2  0  0  0  0  0  0
   37.4460   27.8300   30.2250 C   0  0  1  0  0  3  0  0  0  0  0  0
  1  6  1  6  0  0  0
  1  2  1  0  0  0  0
  1 11  1  0  0  0  0
  2  7  1  1  0  0  0
  2 13  1  0  0  0  0
  3  2  1  0  0  0  0
  4  5  1  0  0  0  0
  4  3  1  0  0  0  0
  5 10  1  1  0  0  0
  5  1  1  0  0  0  0
  8  4  1  0  0  0  0
  9  4  1  0  0  0  0
 12 11  1  0  0  0  0
 13 18  1  0  0  0  0
 14 20  1  0  0  0  0
 14 15  1  0  0  0  0
 15 21  1  0  0  0  0
 16 22  1  0  0  0  0
 16 15  2  0  0  0  0
 17 16  1  0  0  0  0
 18 17  2  0  0  0  0
 18 19  1  0  0  0  0
 19 14  2  0  0  0  0
 23  5  1  0  0  0  0
 24 25  1  0  0  0  0
 25 29  1  0  0  0  0
 26 25  1  0  0  0  0
 26 27  1  0  0  0  0
 27 28  1  0  0  0  0
 29 23  1  1  0  0  0
 29 28  1  0  0  0  0
M  END
>  <minimizedAffinity>
-4.5066061

$$$$

 OpenBabel03272506453D

 29 31  0  0  1  0  0  0  0  0999 V2000
   39.0580   26.2570   33.9590 C   0  0  2  0  0  0  0  0  0  0  0  0
   38.9820   26.1090   35.4690 C   0  0  1  0  0  0  0  0  0  0  0  0
   37.9490   26.8730   35.9240 O   0  0  0  0  0  0  0  0  0  0  0  0
   37.2300   27.3620   34.8530 C   0  0  0  0  0  0  0  0  0  0  0  0
   37.5770   26.4510   33.6760 C   0  0  1  0  0  0  0  0  0  0  0  0
   39.6710   27.1150   33.6720 H   0  0  0  0  0  0  0  0  0  0  0  0
   39.9330   26.3650   35.9720 H   0  0  0  0  0  0  0  0  0  0  0  0
   37.5900   28.3890   34.6420 H   0  0  0  0  0  0  0  0  0  0  0  0
   36.1410   27.3600   35.0530 H   0  0  0  0  0  0  0  0  0  0  0  0
   37.0550   25.5020   33.7940 H   0  0  0  0  0  0  0  0  0  0  0  0
   39.5630   25.1090   33.3560 O   0  0  0  0  0  0  0  0  0  0  0  0
   38.8490   24.4780   33.0890 H   0  0  0  0  0  0  0  0  0  0  0  0
   38.5400   24.3550   35.7820 S   0  0  0  0  0  0  0  0  0  0  0  0
   41.0880   21.8120   37.4370 C   0  0  0  0  0  0  0  0  0  0  0  0
   42.3030   22.0400   36.8100 C   0  0  0  0  0  0  0  0  0  0  0  0
   42.3420   23.0370   35.8160 C   0  0  0  0  0  0  0  0  0  0  0  0
   41.2000   23.7090   35.5350 N   0  0  0  0  0  0  0  0  0  0  0  0
   40.0370   23.4520   36.1730 C   0  0  0  0  0  0  0  0  0  0  0  0
   39.9600   22.5060   37.1280 N   0  0  0  0  0  0  0  0  0  0  0  0
   40.9600   21.0570   38.2210 H   0  0  0  0  0  0  0  0  0  0  0  0
   43.1710   21.4700   37.0820 H   0  0  0  0  0  0  0  0  0  0  0  0
   43.2670   23.2500   35.3000 H   0  0  0  0  0  0  0  0  0  0  0  0
   37.3580   27.1050   32.4690 O   0  0  0  0  0  0  0  0  0  0  0  0
   36.0120   24.9400   33.0300 H   0  0  0  0  0  0  0  0  0  0  0  0
   36.6520   24.8490   32.2110 N   0  0  0  0  0  0  0  0  0  0  0  0
   35.8810   24.1870   31.1740 C   0  0  0  0  0  2  0  0  0  0  0  0
   34.8400   25.2080   30.8160 C   0  0  0  0  0  2  0  0  0  0  0  0
   35.5100   26.5260   31.0750 C   0  0  0  0  0  2  0  0  0  0  0  0
   36.8880   26.1330   31.5860 C   0  0  1  0  0  3  0  0  0  0  0  0
  1  6  1  6  0  0  0
  1  2  1  0  0  0  0
  2 13  1  0  0  0  0
  2  3  1  0  0  0  0
  2  7  1  1  0  0  0
  4  9  1  0  0  0  0
  4  3  1  0  0  0  0
  5 10  1  1  0  0  0
  5  1  1  0  0  0  0
  5  4  1  0  0  0  0
  8  4  1  0  0  0  0
 11  1  1  0  0  0  0
 12 11  1  0  0  0  0
 13 18  1  0  0  0  0
 14 20  1  0  0  0  0
 15 21  1  0  0  0  0
 15 14  2  0  0  0  0
 16 15  1  0  0  0  0
 17 16  2  0  0  0  0
 17 18  1  0  0  0  0
 18 19  2  0  0  0  0
 19 14  1  0  0  0  0
 22 16  1  0  0  0  0
 23  5  1  0  0  0  0
 25 24  1  0  0  0  0
 26 25  1  0  0  0  0
 27 28  1  0  0  0  0
 27 26  1  0  0  0  0
 28 29  1  0  0  0  0
 29 25  1  0  0  0  0
 29 23  1  1  0  0  0
M  END
>  <minimizedAffinity>
-4.43097687

$$$$

 OpenBabel03272506453D

 29 31  0  0  1  0  0  0  0  0999 V2000
   37.3850   25.5050   31.2050 C   0  0  2  0  0  0  0  0  0  0  0  0
   37.4540   23.9990   31.3890 C   0  0  1  0  0  0  0  0  0  0  0  0
   38.0070   23.7410   32.6080 O   0  0  0  0  0  0  0  0  0  0  0  0
   38.1410   24.9190   33.3140 C   0  0  0  0  0  0  0  0  0  0  0  0
   37.1720   25.9010   32.6570 C   0  0  1  0  0  0  0  0  0  0  0  0
   38.3100   25.8990   30.7780 H   0  0  0  0  0  0  0  0  0  0  0  0
   38.0050   23.4930   30.5750 H   0  0  0  0  0  0  0  0  0  0  0  0
   39.1790   25.2810   33.1780 H   0  0  0  0  0  0  0  0  0  0  0  0
   37.9080   24.7840   34.3880 H   0  0  0  0  0  0  0  0  0  0  0  0
   36.1550   25.6540   32.9580 H   0  0  0  0  0  0  0  0  0  0  0  0
   36.3130   25.8740   30.3960 O   0  0  0  0  0  0  0  0  0  0  0  0
   35.4960   26.0700   30.9190 H   0  0  0  0  0  0  0  0  0  0  0  0
   35.7140   23.4170   31.4480 S   0  0  0  0  0  0  0  0  0  0  0  0
   35.4620   19.9660   33.3780 C   0  0  0  0  0  0  0  0  0  0  0  0
   35.6980   18.9880   32.4250 C   0  0  0  0  0  0  0  0  0  0  0  0
   35.9490   19.4150   31.1070 C   0  0  0  0  0  0  0  0  0  0  0  0
   35.9470   20.7450   30.8510 N   0  0  0  0  0  0  0  0  0  0  0  0
   35.7120   21.6640   31.8140 C   0  0  0  0  0  0  0  0  0  0  0  0
   35.4670   21.2940   33.0850 N   0  0  0  0  0  0  0  0  0  0  0  0
   35.2570   19.7310   34.4280 H   0  0  0  0  0  0  0  0  0  0  0  0
   35.6850   17.9490   32.6970 H   0  0  0  0  0  0  0  0  0  0  0  0
   36.1390   18.6890   30.3300 H   0  0  0  0  0  0  0  0  0  0  0  0
   37.5620   27.2130   32.9020 O   0  0  0  0  0  0  0  0  0  0  0  0
   37.1550   29.1040   34.6550 H   0  0  0  0  0  0  0  0  0  0  0  0
   36.3200   28.5080   34.4610 N   0  0  0  0  0  0  0  0  0  0  0  0
   35.2060   29.4240   34.2930 C   0  0  0  0  0  2  0  0  0  0  0  0
   35.5430   30.1430   33.0190 C   0  0  0  0  0  2  0  0  0  0  0  0
   36.3280   29.1390   32.2250 C   0  0  0  0  0  2  0  0  0  0  0  0
   36.3870   27.9250   33.1390 C   0  0  1  0  0  3  0  0  0  0  0  0
  1  6  1  6  0  0  0
  1  2  1  0  0  0  0
  1  5  1  0  0  0  0
  2  7  1  6  0  0  0
  2 13  1  0  0  0  0
  2  3  1  0  0  0  0
  3  4  1  0  0  0  0
  4  9  1  0  0  0  0
  5 23  1  0  0  0  0
  5 10  1  1  0  0  0
  5  4  1  0  0  0  0
  8  4  1  0  0  0  0
 11 12  1  0  0  0  0
 11  1  1  0  0  0  0
 13 18  1  0  0  0  0
 14 20  1  0  0  0  0
 15 21  1  0  0  0  0
 15 14  2  0  0  0  0
 16 15  1  0  0  0  0
 17 16  2  0  0  0  0
 17 18  1  0  0  0  0
 18 19  2  0  0  0  0
 19 14  1  0  0  0  0
 22 16  1  0  0  0  0
 25 24  1  0  0  0  0
 26 25  1  0  0  0  0
 27 26  1  0  0  0  0
 28 27  1  0  0  0  0
 28 29  1  0  0  0  0
 29 23  1  1  0  0  0
 29 25  1  0  0  0  0
M  END
>  <minimizedAffinity>
-4.41110277

$$$$

 OpenBabel03272506453D

 29 31  0  0  1  0  0  0  0  0999 V2000
   38.3230   23.3010   35.9010 C   0  0  2  0  0  0  0  0  0  0  0  0
   37.6160   24.4720   36.5620 C   0  0  1  0  0  0  0  0  0  0  0  0
   37.8170   24.3900   37.9080 O   0  0  0  0  0  0  0  0  0  0  0  0
   38.7300   23.3920   38.1790 C   0  0  0  0  0  0  0  0  0  0  0  0
   39.4850   23.1620   36.8710 C   0  0  1  0  0  0  0  0  0  0  0  0
   37.6820   22.4170   35.8620 H   0  0  0  0  0  0  0  0  0  0  0  0
   36.5400   24.5180   36.3110 H   0  0  0  0  0  0  0  0  0  0  0  0
   38.1640   22.4760   38.4420 H   0  0  0  0  0  0  0  0  0  0  0  0
   39.4210   23.6770   38.9960 H   0  0  0  0  0  0  0  0  0  0  0  0
   40.1890   23.9790   36.7180 H   0  0  0  0  0  0  0  0  0  0  0  0
   38.7470   23.6190   34.6130 O   0  0  0  0  0  0  0  0  0  0  0  0
   39.6730   23.9680   34.5970 H   0  0  0  0  0  0  0  0  0  0  0  0
   38.4810   25.9800   35.9740 S   0  0  0  0  0  0  0  0  0  0  0  0
   36.7050   26.5400   32.4770 C   0  0  0  0  0  0  0  0  0  0  0  0
   36.0700   27.7690   32.5740 C   0  0  0  0  0  0  0  0  0  0  0  0
   36.1940   28.4680   33.7890 C   0  0  0  0  0  0  0  0  0  0  0  0
   36.9220   27.9050   34.7830 N   0  0  0  0  0  0  0  0  0  0  0  0
   37.5240   26.7030   34.6430 C   0  0  0  0  0  0  0  0  0  0  0  0
   37.4280   26.0050   33.4970 N   0  0  0  0  0  0  0  0  0  0  0  0
   36.6640   25.9230   31.5730 H   0  0  0  0  0  0  0  0  0  0  0  0
   35.5070   28.1570   31.7450 H   0  0  0  0  0  0  0  0  0  0  0  0
   35.7170   29.4290   33.9110 H   0  0  0  0  0  0  0  0  0  0  0  0
   40.0390   21.8870   36.8420 O   0  0  0  0  0  0  0  0  0  0  0  0
   41.7690   23.8420   36.8010 H   0  0  0  0  0  0  0  0  0  0  0  0
   41.6500   23.3530   35.8870 N   0  0  0  0  0  0  0  0  0  0  0  0
   42.9900   23.1220   35.3800 C   0  0  0  0  0  2  0  0  0  0  0  0
   43.5570   22.1250   36.3470 C   0  0  0  0  0  2  0  0  0  0  0  0
   42.3620   21.3440   36.8150 C   0  0  0  0  0  2  0  0  0  0  0  0
   41.2000   21.9900   36.0770 C   0  0  1  0  0  3  0  0  0  0  0  0
  1  6  1  1  0  0  0
  1  2  1  0  0  0  0
  1  5  1  0  0  0  0
  2  7  1  6  0  0  0
  2  3  1  0  0  0  0
  3  4  1  0  0  0  0
  4  8  1  0  0  0  0
  4  9  1  0  0  0  0
  5 10  1  6  0  0  0
  5  4  1  0  0  0  0
 11  1  1  0  0  0  0
 12 11  1  0  0  0  0
 13  2  1  0  0  0  0
 14 15  2  0  0  0  0
 14 19  1  0  0  0  0
 15 16  1  0  0  0  0
 16 22  1  0  0  0  0
 16 17  2  0  0  0  0
 18 17  1  0  0  0  0
 18 13  1  0  0  0  0
 19 18  2  0  0  0  0
 20 14  1  0  0  0  0
 21 15  1  0  0  0  0
 23  5  1  0  0  0  0
 25 29  1  0  0  0  0
 25 24  1  0  0  0  0
 26 25  1  0  0  0  0
 26 27  1  0  0  0  0
 27 28  1  0  0  0  0
 29 28  1  0  0  0  0
 29 23  1  1  0  0  0
M  END
>  <minimizedAffinity>
-4.39678431

$$$$

 OpenBabel03272506453D

 29 31  0  0  1  0  0  0  0  0999 V2000
   37.5060   24.7540   30.9720 C   0  0  2  0  0  0  0  0  0  0  0  0
   36.6530   25.9850   31.2210 C   0  0  1  0  0  0  0  0  0  0  0  0
   35.3480   25.5970   31.2840 O   0  0  0  0  0  0  0  0  0  0  0  0
   35.2740   24.2200   31.2820 C   0  0  0  0  0  0  0  0  0  0  0  0
   36.6580   23.7360   31.7170 C   0  0  1  0  0  0  0  0  0  0  0  0
   37.6020   24.5420   29.9040 H   0  0  0  0  0  0  0  0  0  0  0  0
   36.8090   26.7740   30.4620 H   0  0  0  0  0  0  0  0  0  0  0  0
   35.0810   23.8900   30.2420 H   0  0  0  0  0  0  0  0  0  0  0  0
   34.4870   23.8480   31.9670 H   0  0  0  0  0  0  0  0  0  0  0  0
   36.7670   23.8850   32.7900 H   0  0  0  0  0  0  0  0  0  0  0  0
   38.7760   24.8890   31.5280 O   0  0  0  0  0  0  0  0  0  0  0  0
   38.8240   24.5290   32.4490 H   0  0  0  0  0  0  0  0  0  0  0  0
   37.1200   26.5950   32.8890 S   0  0  0  0  0  0  0  0  0  0  0  0
   35.9530   30.3110   32.1640 C   0  0  0  0  0  0  0  0  0  0  0  0
   35.4550   30.7860   33.3670 C   0  0  0  0  0  0  0  0  0  0  0  0
   35.4770   29.9100   34.4690 C   0  0  0  0  0  0  0  0  0  0  0  0
   35.9820   28.6660   34.2910 N   0  0  0  0  0  0  0  0  0  0  0  0
   36.4580   28.2460   33.0980 C   0  0  0  0  0  0  0  0  0  0  0  0
   36.4530   29.0540   32.0220 N   0  0  0  0  0  0  0  0  0  0  0  0
   35.9760   30.9180   31.2530 H   0  0  0  0  0  0  0  0  0  0  0  0
   35.0680   31.7860   33.4390 H   0  0  0  0  0  0  0  0  0  0  0  0
   35.0990   30.2360   35.4270 H   0  0  0  0  0  0  0  0  0  0  0  0
   36.8870   22.4400   31.2700 O   0  0  0  0  0  0  0  0  0  0  0  0
   36.5290   19.8650   31.0330 H   0  0  0  0  0  0  0  0  0  0  0  0
   35.6470   20.4200   31.0860 N   0  0  0  0  0  0  0  0  0  0  0  0
   34.7900   19.7190   32.0250 C   0  0  0  0  0  2  0  0  0  0  0  0
   35.5030   19.8910   33.3350 C   0  0  0  0  0  2  0  0  0  0  0  0
   36.2120   21.2080   33.1980 C   0  0  0  0  0  2  0  0  0  0  0  0
   35.8530   21.6650   31.7940 C   0  0  1  0  0  3  0  0  0  0  0  0
  1  6  1  6  0  0  0
  1  2  1  0  0  0  0
  1 11  1  0  0  0  0
  1  5  1  0  0  0  0
  2  7  1  6  0  0  0
  2  3  1  0  0  0  0
  2 13  1  0  0  0  0
  4  3  1  0  0  0  0
  4  5  1  0  0  0  0
  4  9  1  0  0  0  0
  5 10  1  1  0  0  0
  8  4  1  0  0  0  0
 11 12  1  0  0  0  0
 13 18  1  0  0  0  0
 14 15  1  0  0  0  0
 15 21  1  0  0  0  0
 15 16  2  0  0  0  0
 16 22  1  0  0  0  0
 17 16  1  0  0  0  0
 18 17  2  0  0  0  0
 19 14  2  0  0  0  0
 19 18  1  0  0  0  0
 20 14  1  0  0  0  0
 23  5  1  0  0  0  0
 24 25  1  0  0  0  0
 25 29  1  0  0  0  0
 25 26  1  0  0  0  0
 26 27  1  0  0  0  0
 28 27  1  0  0  0  0
 29 23  1  6  0  0  0
 29 28  1  0  0  0  0
M  END
>  <minimizedAffinity>
-4.38784647

$$$$

 OpenBabel03272506453D

 29 31  0  0  1  0  0  0  0  0999 V2000
   35.4880   24.6550   31.4420 C   0  0  2  0  0  0  0  0  0  0  0  0
   36.6140   25.3430   32.1940 C   0  0  1  0  0  0  0  0  0  0  0  0
   37.3580   24.3880   32.8200 O   0  0  0  0  0  0  0  0  0  0  0  0
   36.9450   23.1370   32.4090 C   0  0  0  0  0  0  0  0  0  0  0  0
   36.2070   23.3640   31.0900 C   0  0  1  0  0  0  0  0  0  0  0  0
   34.6130   24.5060   32.0790 H   0  0  0  0  0  0  0  0  0  0  0  0
   36.2490   26.1080   32.9050 H   0  0  0  0  0  0  0  0  0  0  0  0
   36.2340   22.7490   33.1650 H   0  0  0  0  0  0  0  0  0  0  0  0
   37.7980   22.4440   32.2770 H   0  0  0  0  0  0  0  0  0  0  0  0
   36.9350   23.5530   30.3020 H   0  0  0  0  0  0  0  0  0  0  0  0
   35.1140   25.3750   30.3100 O   0  0  0  0  0  0  0  0  0  0  0  0
   35.6040   25.0860   29.5000 H   0  0  0  0  0  0  0  0  0  0  0  0
   37.6810   26.1120   30.9130 S   0  0  0  0  0  0  0  0  0  0  0  0
   37.7260   29.9520   29.9370 C   0  0  0  0  0  0  0  0  0  0  0  0
   36.5600   30.4840   30.4660 C   0  0  0  0  0  0  0  0  0  0  0  0
   35.7070   29.6090   31.1640 C   0  0  0  0  0  0  0  0  0  0  0  0
   36.0730   28.3100   31.2790 N   0  0  0  0  0  0  0  0  0  0  0  0
   37.2210   27.8350   30.7470 C   0  0  0  0  0  0  0  0  0  0  0  0
   38.0620   28.6400   30.0720 N   0  0  0  0  0  0  0  0  0  0  0  0
   38.4510   30.5530   29.3780 H   0  0  0  0  0  0  0  0  0  0  0  0
   36.3310   31.5250   30.3370 H   0  0  0  0  0  0  0  0  0  0  0  0
   34.7870   29.9780   31.5930 H   0  0  0  0  0  0  0  0  0  0  0  0
   35.3190   22.3240   30.8400 O   0  0  0  0  0  0  0  0  0  0  0  0
   33.9550   20.2370   31.6130 H   0  0  0  0  0  0  0  0  0  0  0  0
   34.6890   20.5470   32.2880 N   0  0  0  0  0  0  0  0  0  0  0  0
   35.3830   19.3420   32.7030 C   0  0  0  0  0  2  0  0  0  0  0  0
   36.0870   18.9020   31.4530 C   0  0  0  0  0  2  0  0  0  0  0  0
   36.3590   20.1810   30.7140 C   0  0  0  0  0  2  0  0  0  0  0  0
   35.7580   21.2500   31.6120 C   0  0  1  0  0  3  0  0  0  0  0  0
  1  6  1  1  0  0  0
  1  2  1  0  0  0  0
  2  3  1  0  0  0  0
  2  7  1  1  0  0  0
  4  3  1  0  0  0  0
  4  8  1  0  0  0  0
  5 10  1  6  0  0  0
  5  1  1  0  0  0  0
  5  4  1  0  0  0  0
  9  4  1  0  0  0  0
 11  1  1  0  0  0  0
 12 11  1  0  0  0  0
 13  2  1  0  0  0  0
 14 19  2  0  0  0  0
 14 15  1  0  0  0  0
 15 16  2  0  0  0  0
 16 17  1  0  0  0  0
 16 22  1  0  0  0  0
 18 13  1  0  0  0  0
 18 17  2  0  0  0  0
 19 18  1  0  0  0  0
 20 14  1  0  0  0  0
 21 15  1  0  0  0  0
 23  5  1  0  0  0  0
 24 25  1  0  0  0  0
 25 26  1  0  0  0  0
 27 26  1  0  0  0  0
 28 27  1  0  0  0  0
 28 29  1  0  0  0  0
 29 23  1  6  0  0  0
 29 25  1  0  0  0  0
M  END
>  <minimizedAffinity>
-4.33151054

$$$$
