
 OpenBabel03272501063D

 27 29  0  0  1  0  0  0  0  0999 V2000
   37.9510   25.9220   34.8350 C   0  0  2  0  0  0  0  0  0  0  0  0
   38.3720   25.7160   33.3640 C   0  0  2  0  0  0  0  0  0  0  0  0
   39.0620   26.9900   33.1030 C   0  0  0  0  0  0  0  0  0  0  0  0
   39.7630   27.3060   34.2610 O   0  0  0  0  0  0  0  0  0  0  0  0
   39.2430   26.6070   35.3000 C   0  0  0  0  0  0  0  0  0  0  0  0
   37.1100   26.6060   34.9170 H   0  0  0  0  0  0  0  0  0  0  0  0
   39.1030   24.8700   33.4360 H   0  0  0  0  0  0  0  0  0  0  0  0
   38.3500   27.8200   32.8690 H   0  0  0  0  0  0  0  0  0  0  0  0
   39.7650   26.9460   32.2550 H   0  0  0  0  0  0  0  0  0  0  0  0
   39.9390   25.8160   35.6100 H   0  0  0  0  0  0  0  0  0  0  0  0
   39.0250   27.2990   36.1520 H   0  0  0  0  0  0  0  0  0  0  0  0
   35.3710   26.0000   31.0940 C   0  0  0  0  0  0  0  0  0  0  0  0
   36.4580   26.4020   31.9100 C   0  0  0  0  0  0  0  0  0  0  0  0
   37.2540   25.3900   32.5050 C   0  0  0  0  0  0  0  0  0  0  0  0
   36.9220   24.0760   32.2540 N   0  0  0  0  0  0  0  0  0  0  0  0
   35.8880   23.7440   31.4780 C   0  0  0  0  0  0  0  0  0  0  0  0
   35.1100   24.6860   30.8970 N   0  0  0  0  0  0  0  0  0  0  0  0
   34.8130   26.8280   30.6770 H   0  0  0  0  0  0  0  0  0  0  0  0
   36.6680   27.4520   32.0680 H   0  0  0  0  0  0  0  0  0  0  0  0
   35.6450   22.6990   31.2960 H   0  0  0  0  0  0  0  0  0  0  0  0
   37.8030   24.7010   35.4540 O   0  0  0  0  0  0  0  0  0  0  0  0
   37.1080   24.7830   38.2340 H   0  0  0  0  0  0  0  0  0  0  0  0
   37.6790   24.0690   37.7460 N   0  0  0  0  0  0  0  0  0  0  0  0
   38.7170   23.5830   38.6710 C   0  0  0  0  0  2  0  0  0  0  0  0
   39.6390   22.7950   37.8020 C   0  0  0  0  0  2  0  0  0  0  0  0
   39.4150   23.3690   36.4390 C   0  0  0  0  0  2  0  0  0  0  0  0
   38.4580   24.5530   36.6570 C   0  0  1  0  0  3  0  0  0  0  0  0
  1  6  1  1  0  0  0
  1  5  1  0  0  0  0
  1 21  1  0  0  0  0
  2  7  1  6  0  0  0
  2  1  1  0  0  0  0
  3  2  1  0  0  0  0
  3  4  1  0  0  0  0
  4  5  1  0  0  0  0
  5 10  1  0  0  0  0
  5 11  1  0  0  0  0
  8  3  1  0  0  0  0
  9  3  1  0  0  0  0
 12 13  1  0  0  0  0
 13 19  1  0  0  0  0
 13 14  2  0  0  0  0
 14  2  1  0  0  0  0
 15 14  1  0  0  0  0
 16 15  2  0  0  0  0
 17 12  2  0  0  0  0
 17 16  1  0  0  0  0
 18 12  1  0  0  0  0
 20 16  1  0  0  0  0
 23 22  1  0  0  0  0
 23 24  1  0  0  0  0
 25 24  1  0  0  0  0
 26 27  1  0  0  0  0
 26 25  1  0  0  0  0
 27 21  1  6  0  0  0
 27 23  1  0  0  0  0
M  END
>  <minimizedAffinity>
-4.55128193

$$$$

 OpenBabel03272501063D

 27 29  0  0  1  0  0  0  0  0999 V2000
   37.8940   23.8870   33.4760 C   0  0  2  0  0  0  0  0  0  0  0  0
   38.5780   22.7010   34.1890 C   0  0  2  0  0  0  0  0  0  0  0  0
   37.6910   21.5980   33.7820 C   0  0  0  0  0  0  0  0  0  0  0  0
   37.3370   21.8410   32.4610 O   0  0  0  0  0  0  0  0  0  0  0  0
   37.5580   23.1480   32.1740 C   0  0  0  0  0  0  0  0  0  0  0  0
   36.9830   24.1880   33.9870 H   0  0  0  0  0  0  0  0  0  0  0  0
   39.5650   22.6370   33.6640 H   0  0  0  0  0  0  0  0  0  0  0  0
   36.7640   21.5450   34.4060 H   0  0  0  0  0  0  0  0  0  0  0  0
   38.1610   20.6040   33.8550 H   0  0  0  0  0  0  0  0  0  0  0  0
   38.4250   23.2470   31.5080 H   0  0  0  0  0  0  0  0  0  0  0  0
   36.6450   23.5940   31.7050 H   0  0  0  0  0  0  0  0  0  0  0  0
   39.9440   22.6840   37.7070 C   0  0  0  0  0  0  0  0  0  0  0  0
   39.8710   22.4400   36.3130 C   0  0  0  0  0  0  0  0  0  0  0  0
   38.7370   22.9220   35.6110 C   0  0  0  0  0  0  0  0  0  0  0  0
   37.7730   23.5980   36.3270 N   0  0  0  0  0  0  0  0  0  0  0  0
   37.8840   23.8040   37.6410 C   0  0  0  0  0  0  0  0  0  0  0  0
   38.9530   23.3560   38.3380 N   0  0  0  0  0  0  0  0  0  0  0  0
   40.8370   22.2860   38.1700 H   0  0  0  0  0  0  0  0  0  0  0  0
   40.6620   21.9020   35.8070 H   0  0  0  0  0  0  0  0  0  0  0  0
   37.1090   24.3400   38.1850 H   0  0  0  0  0  0  0  0  0  0  0  0
   38.8150   24.8830   33.2400 O   0  0  0  0  0  0  0  0  0  0  0  0
   36.4160   26.3280   33.8520 H   0  0  0  0  0  0  0  0  0  0  0  0
   37.2620   26.2310   34.4410 N   0  0  0  0  0  0  0  0  0  0  0  0
   37.4530   27.4770   35.2010 C   0  0  0  0  0  2  0  0  0  0  0  0
   38.8220   27.3460   35.7800 C   0  0  0  0  0  2  0  0  0  0  0  0
   39.5020   26.3820   34.8600 C   0  0  0  0  0  2  0  0  0  0  0  0
   38.4910   26.1300   33.7280 C   0  0  1  0  0  3  0  0  0  0  0  0
  1  6  1  1  0  0  0
  1  2  1  0  0  0  0
  2  7  1  6  0  0  0
  2 14  1  0  0  0  0
  3  9  1  0  0  0  0
  3  2  1  0  0  0  0
  3  8  1  0  0  0  0
  4  3  1  0  0  0  0
  5  4  1  0  0  0  0
  5  1  1  0  0  0  0
 10  5  1  0  0  0  0
 11  5  1  0  0  0  0
 12 18  1  0  0  0  0
 12 17  1  0  0  0  0
 13 12  2  0  0  0  0
 14 13  1  0  0  0  0
 14 15  2  0  0  0  0
 15 16  1  0  0  0  0
 16 20  1  0  0  0  0
 16 17  2  0  0  0  0
 19 13  1  0  0  0  0
 21  1  1  0  0  0  0
 22 23  1  0  0  0  0
 23 24  1  0  0  0  0
 24 25  1  0  0  0  0
 26 25  1  0  0  0  0
 27 21  1  1  0  0  0
 27 23  1  0  0  0  0
 27 26  1  0  0  0  0
M  END
>  <minimizedAffinity>
-4.38143492

$$$$

 OpenBabel03272501063D

 27 29  0  0  1  0  0  0  0  0999 V2000
   41.8980   22.9700   35.6520 C   0  0  2  0  0  0  0  0  0  0  0  0
   41.3080   22.6070   37.0320 C   0  0  2  0  0  0  0  0  0  0  0  0
   41.8680   21.2570   37.2150 C   0  0  0  0  0  0  0  0  0  0  0  0
   43.1620   21.2940   36.7100 O   0  0  0  0  0  0  0  0  0  0  0  0
   43.2870   22.3600   35.8820 C   0  0  0  0  0  0  0  0  0  0  0  0
   41.3840   22.4480   34.8490 H   0  0  0  0  0  0  0  0  0  0  0  0
   41.8060   23.3450   37.7120 H   0  0  0  0  0  0  0  0  0  0  0  0
   41.2840   20.4760   36.6670 H   0  0  0  0  0  0  0  0  0  0  0  0
   41.8980   20.9310   38.2670 H   0  0  0  0  0  0  0  0  0  0  0  0
   43.9100   23.1330   36.3520 H   0  0  0  0  0  0  0  0  0  0  0  0
   43.7290   22.0340   34.9070 H   0  0  0  0  0  0  0  0  0  0  0  0
   37.7810   23.3160   38.1720 C   0  0  0  0  0  0  0  0  0  0  0  0
   39.1970   23.2460   38.2080 C   0  0  0  0  0  0  0  0  0  0  0  0
   39.8660   22.7270   37.0700 C   0  0  0  0  0  0  0  0  0  0  0  0
   39.1010   22.3210   35.9990 N   0  0  0  0  0  0  0  0  0  0  0  0
   37.7680   22.4060   36.0100 C   0  0  0  0  0  0  0  0  0  0  0  0
   37.1010   22.8950   37.0800 N   0  0  0  0  0  0  0  0  0  0  0  0
   37.3450   23.7220   39.0750 H   0  0  0  0  0  0  0  0  0  0  0  0
   39.7420   23.5810   39.0800 H   0  0  0  0  0  0  0  0  0  0  0  0
   37.1850   22.0780   35.1520 H   0  0  0  0  0  0  0  0  0  0  0  0
   41.9880   24.3380   35.5280 O   0  0  0  0  0  0  0  0  0  0  0  0
   39.5710   23.9900   34.0250 H   0  0  0  0  0  0  0  0  0  0  0  0
   40.0030   24.8810   34.3290 N   0  0  0  0  0  0  0  0  0  0  0  0
   39.7470   25.9040   33.3020 C   0  0  0  0  0  2  0  0  0  0  0  0
   40.6350   27.0400   33.6880 C   0  0  0  0  0  2  0  0  0  0  0  0
   41.7140   26.3860   34.4900 C   0  0  0  0  0  2  0  0  0  0  0  0
   41.4260   24.8770   34.3920 C   0  0  1  0  0  3  0  0  0  0  0  0
  1  6  1  6  0  0  0
  1  5  1  0  0  0  0
  1  2  1  0  0  0  0
  2 14  1  0  0  0  0
  2  3  1  0  0  0  0
  2  7  1  1  0  0  0
  3  9  1  0  0  0  0
  4  3  1  0  0  0  0
  5 10  1  0  0  0  0
  5  4  1  0  0  0  0
  8  3  1  0  0  0  0
 11  5  1  0  0  0  0
 12 13  1  0  0  0  0
 12 18  1  0  0  0  0
 13 19  1  0  0  0  0
 14 13  2  0  0  0  0
 15 16  2  0  0  0  0
 15 14  1  0  0  0  0
 16 17  1  0  0  0  0
 17 12  2  0  0  0  0
 20 16  1  0  0  0  0
 21  1  1  0  0  0  0
 22 23  1  0  0  0  0
 23 27  1  0  0  0  0
 24 25  1  0  0  0  0
 24 23  1  0  0  0  0
 25 26  1  0  0  0  0
 27 26  1  0  0  0  0
 27 21  1  1  0  0  0
M  END
>  <minimizedAffinity>
-4.2096715

$$$$

 OpenBabel03272501063D

 27 29  0  0  1  0  0  0  0  0999 V2000
   38.7510   26.0800   33.3520 C   0  0  2  0  0  0  0  0  0  0  0  0
   39.3530   26.3300   34.7510 C   0  0  2  0  0  0  0  0  0  0  0  0
   40.7550   26.6060   34.3930 C   0  0  0  0  0  0  0  0  0  0  0  0
   40.7240   27.3510   33.2200 O   0  0  0  0  0  0  0  0  0  0  0  0
   39.5170   27.1910   32.6230 C   0  0  0  0  0  0  0  0  0  0  0  0
   39.0360   25.1050   32.9640 H   0  0  0  0  0  0  0  0  0  0  0  0
   38.8300   27.2650   35.0790 H   0  0  0  0  0  0  0  0  0  0  0  0
   41.3410   25.6710   34.2170 H   0  0  0  0  0  0  0  0  0  0  0  0
   41.3050   27.1680   35.1650 H   0  0  0  0  0  0  0  0  0  0  0  0
   38.9260   28.1110   32.7140 H   0  0  0  0  0  0  0  0  0  0  0  0
   39.6600   26.9160   31.5470 H   0  0  0  0  0  0  0  0  0  0  0  0
   37.9110   24.1650   37.4850 C   0  0  0  0  0  0  0  0  0  0  0  0
   38.0660   25.2750   36.6170 C   0  0  0  0  0  0  0  0  0  0  0  0
   39.1160   25.2320   35.6640 C   0  0  0  0  0  0  0  0  0  0  0  0
   39.9230   24.1150   35.6410 N   0  0  0  0  0  0  0  0  0  0  0  0
   39.7390   23.0930   36.4800 C   0  0  0  0  0  0  0  0  0  0  0  0
   38.7470   23.1040   37.4000 N   0  0  0  0  0  0  0  0  0  0  0  0
   37.0900   24.2720   38.1810 H   0  0  0  0  0  0  0  0  0  0  0  0
   37.3990   26.1230   36.6840 H   0  0  0  0  0  0  0  0  0  0  0  0
   40.3900   22.2220   36.4430 H   0  0  0  0  0  0  0  0  0  0  0  0
   37.4020   26.3570   33.3680 O   0  0  0  0  0  0  0  0  0  0  0  0
   36.2330   27.7680   31.1640 H   0  0  0  0  0  0  0  0  0  0  0  0
   35.9760   27.8360   32.1650 N   0  0  0  0  0  0  0  0  0  0  0  0
   35.5580   29.2180   32.4520 C   0  0  0  0  0  2  0  0  0  0  0  0
   35.4910   29.2780   33.9420 C   0  0  0  0  0  2  0  0  0  0  0  0
   36.4130   28.1850   34.3790 C   0  0  0  0  0  2  0  0  0  0  0  0
   37.0510   27.6570   33.0830 C   0  0  1  0  0  3  0  0  0  0  0  0
  1  6  1  6  0  0  0
  1 21  1  0  0  0  0
  1  2  1  0  0  0  0
  2  7  1  1  0  0  0
  2 14  1  0  0  0  0
  3  2  1  0  0  0  0
  3  9  1  0  0  0  0
  4  3  1  0  0  0  0
  5 10  1  0  0  0  0
  5  4  1  0  0  0  0
  5  1  1  0  0  0  0
  8  3  1  0  0  0  0
 11  5  1  0  0  0  0
 12 18  1  0  0  0  0
 13 19  1  0  0  0  0
 13 12  2  0  0  0  0
 14 13  1  0  0  0  0
 15 14  2  0  0  0  0
 15 16  1  0  0  0  0
 16 17  2  0  0  0  0
 17 12  1  0  0  0  0
 20 16  1  0  0  0  0
 22 23  1  0  0  0  0
 23 24  1  0  0  0  0
 23 27  1  0  0  0  0
 24 25  1  0  0  0  0
 25 26  1  0  0  0  0
 27 21  1  1  0  0  0
 27 26  1  0  0  0  0
M  END
>  <minimizedAffinity>
-4.20704603

$$$$

 OpenBabel03272501063D

 27 29  0  0  1  0  0  0  0  0999 V2000
   37.5680   25.3490   31.7050 C   0  0  2  0  0  0  0  0  0  0  0  0
   36.2360   26.1140   31.8590 C   0  0  2  0  0  0  0  0  0  0  0  0
   35.3130   25.1800   31.1920 C   0  0  0  0  0  0  0  0  0  0  0  0
   35.7240   23.9000   31.5430 O   0  0  0  0  0  0  0  0  0  0  0  0
   37.0060   23.9480   31.9810 C   0  0  0  0  0  0  0  0  0  0  0  0
   37.9480   25.4110   30.6880 H   0  0  0  0  0  0  0  0  0  0  0  0
   36.0790   26.1110   32.9680 H   0  0  0  0  0  0  0  0  0  0  0  0
   35.3370   25.2800   30.0780 H   0  0  0  0  0  0  0  0  0  0  0  0
   34.2590   25.3150   31.4850 H   0  0  0  0  0  0  0  0  0  0  0  0
   37.0410   23.7900   33.0670 H   0  0  0  0  0  0  0  0  0  0  0  0
   37.6190   23.1770   31.4490 H   0  0  0  0  0  0  0  0  0  0  0  0
   35.7440   29.8240   31.3750 C   0  0  0  0  0  0  0  0  0  0  0  0
   35.6450   28.5410   31.9690 C   0  0  0  0  0  0  0  0  0  0  0  0
   36.3010   27.4590   31.3270 C   0  0  0  0  0  0  0  0  0  0  0  0
   36.9950   27.7200   30.1660 N   0  0  0  0  0  0  0  0  0  0  0  0
   37.0610   28.9480   29.6430 C   0  0  0  0  0  0  0  0  0  0  0  0
   36.4460   29.9990   30.2310 N   0  0  0  0  0  0  0  0  0  0  0  0
   35.2180   30.5950   31.9220 H   0  0  0  0  0  0  0  0  0  0  0  0
   35.0840   28.3990   32.8830 H   0  0  0  0  0  0  0  0  0  0  0  0
   37.6150   29.1290   28.7250 H   0  0  0  0  0  0  0  0  0  0  0  0
   38.4400   25.7240   32.7030 O   0  0  0  0  0  0  0  0  0  0  0  0
   38.1530   23.9190   34.9110 H   0  0  0  0  0  0  0  0  0  0  0  0
   38.4990   24.8950   34.9340 N   0  0  0  0  0  0  0  0  0  0  0  0
   38.0820   25.5130   36.2040 C   0  0  0  0  0  2  0  0  0  0  0  0
   38.3710   26.9660   36.0140 C   0  0  0  0  0  2  0  0  0  0  0  0
   38.3500   27.1380   34.5290 C   0  0  0  0  0  2  0  0  0  0  0  0
   37.9140   25.7700   33.9740 C   0  0  1  0  0  3  0  0  0  0  0  0
  1  6  1  6  0  0  0
  1  2  1  0  0  0  0
  1  5  1  0  0  0  0
  1 21  1  0  0  0  0
  2  7  1  1  0  0  0
  3  9  1  0  0  0  0
  3  4  1  0  0  0  0
  3  2  1  0  0  0  0
  4  5  1  0  0  0  0
  5 10  1  0  0  0  0
  8  3  1  0  0  0  0
 11  5  1  0  0  0  0
 12 18  1  0  0  0  0
 12 13  1  0  0  0  0
 13 19  1  0  0  0  0
 14  2  1  0  0  0  0
 14 13  2  0  0  0  0
 15 14  1  0  0  0  0
 16 15  2  0  0  0  0
 16 17  1  0  0  0  0
 17 12  2  0  0  0  0
 20 16  1  0  0  0  0
 22 23  1  0  0  0  0
 23 24  1  0  0  0  0
 25 24  1  0  0  0  0
 26 25  1  0  0  0  0
 27 21  1  6  0  0  0
 27 26  1  0  0  0  0
 27 23  1  0  0  0  0
M  END
>  <minimizedAffinity>
-4.17325115

$$$$

 OpenBabel03272501063D

 27 29  0  0  1  0  0  0  0  0999 V2000
   38.8730   24.0700   36.2740 C   0  0  2  0  0  0  0  0  0  0  0  0
   39.3970   22.8650   37.0850 C   0  0  2  0  0  0  0  0  0  0  0  0
   39.0390   23.2860   38.4500 C   0  0  0  0  0  0  0  0  0  0  0  0
   37.8000   23.9090   38.3610 O   0  0  0  0  0  0  0  0  0  0  0  0
   37.5800   24.2790   37.0740 C   0  0  0  0  0  0  0  0  0  0  0  0
   39.5250   24.9340   36.3770 H   0  0  0  0  0  0  0  0  0  0  0  0
   38.7370   22.0300   36.7360 H   0  0  0  0  0  0  0  0  0  0  0  0
   39.7790   24.0050   38.8820 H   0  0  0  0  0  0  0  0  0  0  0  0
   38.9740   22.4510   39.1670 H   0  0  0  0  0  0  0  0  0  0  0  0
   36.8090   23.6400   36.6240 H   0  0  0  0  0  0  0  0  0  0  0  0
   37.2750   25.3560   37.0360 H   0  0  0  0  0  0  0  0  0  0  0  0
   42.7600   21.1610   36.9180 C   0  0  0  0  0  0  0  0  0  0  0  0
   41.3800   21.3460   37.1850 C   0  0  0  0  0  0  0  0  0  0  0  0
   40.7950   22.5890   36.8320 C   0  0  0  0  0  0  0  0  0  0  0  0
   41.6030   23.5420   36.2510 N   0  0  0  0  0  0  0  0  0  0  0  0
   42.9000   23.3230   36.0180 C   0  0  0  0  0  0  0  0  0  0  0  0
   43.4860   22.1480   36.3440 N   0  0  0  0  0  0  0  0  0  0  0  0
   43.1310   20.1890   37.2160 H   0  0  0  0  0  0  0  0  0  0  0  0
   40.7980   20.5590   37.6440 H   0  0  0  0  0  0  0  0  0  0  0  0
   43.5180   24.0910   35.5590 H   0  0  0  0  0  0  0  0  0  0  0  0
   38.5840   23.6760   34.9870 O   0  0  0  0  0  0  0  0  0  0  0  0
   37.0650   24.7670   32.8140 H   0  0  0  0  0  0  0  0  0  0  0  0
   37.6010   25.2850   33.5330 N   0  0  0  0  0  0  0  0  0  0  0  0
   38.1630   26.4990   32.9170 C   0  0  0  0  0  2  0  0  0  0  0  0
   39.1310   27.0080   33.9330 C   0  0  0  0  0  2  0  0  0  0  0  0
   39.4810   25.7910   34.7270 C   0  0  0  0  0  2  0  0  0  0  0  0
   38.7720   24.6290   34.0100 C   0  0  1  0  0  3  0  0  0  0  0  0
  1  6  1  1  0  0  0
  1  5  1  0  0  0  0
  1  2  1  0  0  0  0
  2  7  1  6  0  0  0
  2  3  1  0  0  0  0
  3  8  1  0  0  0  0
  3  9  1  0  0  0  0
  4  3  1  0  0  0  0
  5  4  1  0  0  0  0
 10  5  1  0  0  0  0
 11  5  1  0  0  0  0
 12 13  1  0  0  0  0
 12 18  1  0  0  0  0
 13 19  1  0  0  0  0
 14  2  1  0  0  0  0
 14 13  2  0  0  0  0
 15 14  1  0  0  0  0
 16 15  2  0  0  0  0
 16 17  1  0  0  0  0
 17 12  2  0  0  0  0
 20 16  1  0  0  0  0
 21  1  1  0  0  0  0
 22 23  1  0  0  0  0
 23 27  1  0  0  0  0
 24 23  1  0  0  0  0
 24 25  1  0  0  0  0
 25 26  1  0  0  0  0
 27 26  1  0  0  0  0
 27 21  1  1  0  0  0
M  END
>  <minimizedAffinity>
-4.15044832

$$$$

 OpenBabel03272501063D

 27 29  0  0  1  0  0  0  0  0999 V2000
   37.7560   25.1970   34.1340 C   0  0  2  0  0  0  0  0  0  0  0  0
   38.5530   23.9260   34.4980 C   0  0  2  0  0  0  0  0  0  0  0  0
   37.7940   22.9120   33.7470 C   0  0  0  0  0  0  0  0  0  0  0  0
   37.4350   23.4990   32.5400 O   0  0  0  0  0  0  0  0  0  0  0  0
   37.5190   24.8470   32.6590 C   0  0  0  0  0  0  0  0  0  0  0  0
   36.8110   25.2430   34.6690 H   0  0  0  0  0  0  0  0  0  0  0  0
   39.5490   24.1170   34.0230 H   0  0  0  0  0  0  0  0  0  0  0  0
   36.8700   22.5860   34.2860 H   0  0  0  0  0  0  0  0  0  0  0  0
   38.3670   21.9910   33.5470 H   0  0  0  0  0  0  0  0  0  0  0  0
   38.3800   25.2230   32.0910 H   0  0  0  0  0  0  0  0  0  0  0  0
   36.5700   25.3200   32.3000 H   0  0  0  0  0  0  0  0  0  0  0  0
   37.9070   24.0500   38.2140 C   0  0  0  0  0  0  0  0  0  0  0  0
   37.7140   24.2730   36.8280 C   0  0  0  0  0  0  0  0  0  0  0  0
   38.6670   23.7310   35.9280 C   0  0  0  0  0  0  0  0  0  0  0  0
   39.7240   23.0210   36.4560 N   0  0  0  0  0  0  0  0  0  0  0  0
   39.8640   22.8360   37.7710 C   0  0  0  0  0  0  0  0  0  0  0  0
   38.9730   23.3410   38.6540 N   0  0  0  0  0  0  0  0  0  0  0  0
   37.1390   24.4940   38.8340 H   0  0  0  0  0  0  0  0  0  0  0  0
   36.8630   24.8400   36.4750 H   0  0  0  0  0  0  0  0  0  0  0  0
   40.7080   22.2720   38.1640 H   0  0  0  0  0  0  0  0  0  0  0  0
   38.5680   26.3040   34.2420 O   0  0  0  0  0  0  0  0  0  0  0  0
   39.4690   27.0550   31.6260 H   0  0  0  0  0  0  0  0  0  0  0  0
   39.9290   27.2510   32.5330 N   0  0  0  0  0  0  0  0  0  0  0  0
   41.3880   27.2250   32.3370 C   0  0  0  0  0  2  0  0  0  0  0  0
   41.9430   27.2290   33.7220 C   0  0  0  0  0  2  0  0  0  0  0  0
   40.8300   26.6670   34.5480 C   0  0  0  0  0  2  0  0  0  0  0  0
   39.7490   26.2550   33.5350 C   0  0  1  0  0  3  0  0  0  0  0  0
  1 21  1  0  0  0  0
  1  2  1  0  0  0  0
  1  6  1  1  0  0  0
  2  7  1  6  0  0  0
  2 14  1  0  0  0  0
  3  8  1  0  0  0  0
  3  2  1  0  0  0  0
  4  5  1  0  0  0  0
  4  3  1  0  0  0  0
  5  1  1  0  0  0  0
  9  3  1  0  0  0  0
 10  5  1  0  0  0  0
 11  5  1  0  0  0  0
 12 17  1  0  0  0  0
 12 18  1  0  0  0  0
 13 12  2  0  0  0  0
 14 15  2  0  0  0  0
 14 13  1  0  0  0  0
 15 16  1  0  0  0  0
 16 20  1  0  0  0  0
 16 17  2  0  0  0  0
 19 13  1  0  0  0  0
 22 23  1  0  0  0  0
 23 27  1  0  0  0  0
 24 23  1  0  0  0  0
 24 25  1  0  0  0  0
 25 26  1  0  0  0  0
 27 21  1  1  0  0  0
 27 26  1  0  0  0  0
M  END
>  <minimizedAffinity>
-4.13047791

$$$$

 OpenBabel03272501063D

 27 29  0  0  1  0  0  0  0  0999 V2000
   35.3020   30.3420   35.1180 C   0  0  2  0  0  0  0  0  0  0  0  0
   33.8980   30.9760   35.2060 C   0  0  2  0  0  0  0  0  0  0  0  0
   33.9610   31.5770   36.5490 C   0  0  0  0  0  0  0  0  0  0  0  0
   35.2470   32.0830   36.6970 O   0  0  0  0  0  0  0  0  0  0  0  0
   36.0640   31.4920   35.7910 C   0  0  0  0  0  0  0  0  0  0  0  0
   35.3710   29.4390   35.7190 H   0  0  0  0  0  0  0  0  0  0  0  0
   33.9350   31.7640   34.4110 H   0  0  0  0  0  0  0  0  0  0  0  0
   33.7660   30.8310   37.3590 H   0  0  0  0  0  0  0  0  0  0  0  0
   33.2320   32.3900   36.7040 H   0  0  0  0  0  0  0  0  0  0  0  0
   36.3370   32.2080   35.0050 H   0  0  0  0  0  0  0  0  0  0  0  0
   36.9780   31.0980   36.3030 H   0  0  0  0  0  0  0  0  0  0  0  0
   31.2010   28.9270   33.5410 C   0  0  0  0  0  0  0  0  0  0  0  0
   32.2450   29.8760   33.6880 C   0  0  0  0  0  0  0  0  0  0  0  0
   32.8380   30.0190   34.9680 C   0  0  0  0  0  0  0  0  0  0  0  0
   32.3650   29.2280   35.9920 N   0  0  0  0  0  0  0  0  0  0  0  0
   31.3790   28.3470   35.8070 C   0  0  0  0  0  0  0  0  0  0  0  0
   30.7930   28.1880   34.5980 N   0  0  0  0  0  0  0  0  0  0  0  0
   30.8010   28.8770   32.5370 H   0  0  0  0  0  0  0  0  0  0  0  0
   32.5720   30.4680   32.8440 H   0  0  0  0  0  0  0  0  0  0  0  0
   31.0220   27.7340   36.6320 H   0  0  0  0  0  0  0  0  0  0  0  0
   35.6780   30.2230   33.7980 O   0  0  0  0  0  0  0  0  0  0  0  0
   36.3700   28.9740   31.3130 H   0  0  0  0  0  0  0  0  0  0  0  0
   36.7300   28.7450   32.2560 N   0  0  0  0  0  0  0  0  0  0  0  0
   36.9780   27.2950   32.3260 C   0  0  0  0  0  2  0  0  0  0  0  0
   37.2100   27.0340   33.7770 C   0  0  0  0  0  2  0  0  0  0  0  0
   36.5100   28.1680   34.4550 C   0  0  0  0  0  2  0  0  0  0  0  0
   35.8060   28.9370   33.3230 C   0  0  1  0  0  3  0  0  0  0  0  0
  1  2  1  0  0  0  0
  1  6  1  1  0  0  0
  1  5  1  0  0  0  0
  2  7  1  6  0  0  0
  2  3  1  0  0  0  0
  3  4  1  0  0  0  0
  3  9  1  0  0  0  0
  3  8  1  0  0  0  0
  5 11  1  0  0  0  0
  5  4  1  0  0  0  0
 10  5  1  0  0  0  0
 12 13  2  0  0  0  0
 12 17  1  0  0  0  0
 13 14  1  0  0  0  0
 14  2  1  0  0  0  0
 14 15  2  0  0  0  0
 16 15  1  0  0  0  0
 16 20  1  0  0  0  0
 17 16  2  0  0  0  0
 18 12  1  0  0  0  0
 19 13  1  0  0  0  0
 21  1  1  0  0  0  0
 22 23  1  0  0  0  0
 23 24  1  0  0  0  0
 23 27  1  0  0  0  0
 24 25  1  0  0  0  0
 25 26  1  0  0  0  0
 27 21  1  1  0  0  0
 27 26  1  0  0  0  0
M  END
>  <minimizedAffinity>
-4.11756325

$$$$

 OpenBabel03272501063D

 27 29  0  0  1  0  0  0  0  0999 V2000
   38.5330   23.2980   33.6070 C   0  0  2  0  0  0  0  0  0  0  0  0
   37.3160   22.9880   32.7080 C   0  0  2  0  0  0  0  0  0  0  0  0
   37.8960   21.9700   31.8160 C   0  0  0  0  0  0  0  0  0  0  0  0
   38.7260   21.1800   32.6030 O   0  0  0  0  0  0  0  0  0  0  0  0
   39.0330   21.8530   33.7400 C   0  0  0  0  0  0  0  0  0  0  0  0
   39.2680   23.9070   33.0880 H   0  0  0  0  0  0  0  0  0  0  0  0
   36.5920   22.5270   33.4270 H   0  0  0  0  0  0  0  0  0  0  0  0
   38.4980   22.4220   30.9890 H   0  0  0  0  0  0  0  0  0  0  0  0
   37.1430   21.3300   31.3280 H   0  0  0  0  0  0  0  0  0  0  0  0
   38.5130   21.4040   34.5960 H   0  0  0  0  0  0  0  0  0  0  0  0
   40.1410   21.8440   33.8990 H   0  0  0  0  0  0  0  0  0  0  0  0
   35.0270   25.3710   30.8860 C   0  0  0  0  0  0  0  0  0  0  0  0
   35.4800   24.1740   31.4950 C   0  0  0  0  0  0  0  0  0  0  0  0
   36.7720   24.1730   32.0800 C   0  0  0  0  0  0  0  0  0  0  0  0
   37.5100   25.3360   32.0200 N   0  0  0  0  0  0  0  0  0  0  0  0
   37.0410   26.4410   31.4350 C   0  0  0  0  0  0  0  0  0  0  0  0
   35.8130   26.4730   30.8680 N   0  0  0  0  0  0  0  0  0  0  0  0
   34.0340   25.2920   30.4640 H   0  0  0  0  0  0  0  0  0  0  0  0
   34.8530   23.2930   31.5100 H   0  0  0  0  0  0  0  0  0  0  0  0
   37.6430   27.3470   31.3990 H   0  0  0  0  0  0  0  0  0  0  0  0
   38.1030   23.7720   34.8270 O   0  0  0  0  0  0  0  0  0  0  0  0
   40.5360   25.1640   34.2240 H   0  0  0  0  0  0  0  0  0  0  0  0
   39.6000   25.5730   34.3960 N   0  0  0  0  0  0  0  0  0  0  0  0
   39.7690   26.8690   35.0740 C   0  0  0  0  0  2  0  0  0  0  0  0
   38.3920   27.2280   35.5240 C   0  0  0  0  0  2  0  0  0  0  0  0
   37.6950   25.9080   35.6110 C   0  0  0  0  0  2  0  0  0  0  0  0
   38.7850   24.8610   35.3220 C   0  0  1  0  0  3  0  0  0  0  0  0
  1  6  1  6  0  0  0
  1  5  1  0  0  0  0
  1 21  1  0  0  0  0
  2  7  1  1  0  0  0
  2  1  1  0  0  0  0
  3  4  1  0  0  0  0
  3  2  1  0  0  0  0
  4  5  1  0  0  0  0
  5 11  1  0  0  0  0
  5 10  1  0  0  0  0
  8  3  1  0  0  0  0
  9  3  1  0  0  0  0
 12 13  1  0  0  0  0
 13 19  1  0  0  0  0
 13 14  2  0  0  0  0
 14  2  1  0  0  0  0
 15 14  1  0  0  0  0
 16 15  2  0  0  0  0
 17 12  2  0  0  0  0
 17 16  1  0  0  0  0
 18 12  1  0  0  0  0
 20 16  1  0  0  0  0
 22 23  1  0  0  0  0
 23 24  1  0  0  0  0
 23 27  1  0  0  0  0
 24 25  1  0  0  0  0
 25 26  1  0  0  0  0
 27 21  1  6  0  0  0
 27 26  1  0  0  0  0
M  END
>  <minimizedAffinity>
-4.0990324

$$$$
