
 OpenBabel03272508273D

 35 38  0  0  1  0  0  0  0  0999 V2000
   33.8660   28.9270   47.2460 C   0  0  2  0  0  0  0  0  0  0  0  0
   34.5750   28.1530   48.3480 C   0  0  2  0  0  0  0  0  0  0  0  0
   33.6500   28.0010   49.3420 O   0  0  0  0  0  0  0  0  0  0  0  0
   32.3880   28.0840   48.8450 C   0  0  0  0  0  0  0  0  0  0  0  0
   32.4820   28.2750   47.3430 C   0  0  1  0  0  0  0  0  0  0  0  0
   33.7210   29.9900   47.4780 H   0  0  0  0  0  0  0  0  0  0  0  0
   34.8650   27.1760   47.8960 H   0  0  0  0  0  0  0  0  0  0  0  0
   31.7590   27.1950   49.0680 H   0  0  0  0  0  0  0  0  0  0  0  0
   31.8810   28.9560   49.3310 H   0  0  0  0  0  0  0  0  0  0  0  0
   32.5320   27.2580   46.9180 H   0  0  0  0  0  0  0  0  0  0  0  0
   35.6620   30.3970   49.0440 C   0  0  1  0  0  0  0  0  0  0  0  0
   35.7410   28.9790   48.7880 C   0  0  1  0  0  0  0  0  0  0  0  0
   35.8960   29.4200   50.2070 C   0  0  0  0  0  0  0  0  0  0  0  0
   34.7560   31.0080   49.2200 H   0  0  0  0  0  0  0  0  0  0  0  0
   36.7050   28.6230   48.3200 H   0  0  0  0  0  0  0  0  0  0  0  0
   36.8810   29.4130   50.6970 H   0  0  0  0  0  0  0  0  0  0  0  0
   35.0260   29.1720   50.8430 H   0  0  0  0  0  0  0  0  0  0  0  0
   36.8540   31.3110   48.8210 C   0  0  0  0  0  0  0  0  0  0  0  0
   37.0490   32.3440   49.7360 C   0  0  0  0  0  0  0  0  0  0  0  0
   38.1400   33.1620   49.4620 C   0  0  0  0  0  0  0  0  0  0  0  0
   38.9400   32.9460   48.3740 N   0  0  0  0  0  0  0  0  0  0  0  0
   38.7050   31.9210   47.5110 C   0  0  0  0  0  0  0  0  0  0  0  0
   37.6530   31.1000   47.7430 N   0  0  0  0  0  0  0  0  0  0  0  0
   36.4090   32.4890   50.5750 H   0  0  0  0  0  0  0  0  0  0  0  0
   38.3240   33.9720   50.1440 H   0  0  0  0  0  0  0  0  0  0  0  0
   39.3680   31.7940   46.6680 H   0  0  0  0  0  0  0  0  0  0  0  0
   34.4200   28.7500   45.9940 O   0  0  0  0  0  0  0  0  0  0  0  0
   34.2740   29.5700   45.4430 H   0  0  0  0  0  0  0  0  0  0  0  0
   31.5090   29.0720   46.8030 O   0  0  0  0  0  0  0  0  0  0  0  0
   28.8170   29.3340   45.6980 H   0  0  0  0  0  0  0  0  0  0  0  0
   29.7390   29.0500   45.2570 N   0  0  0  0  0  0  0  0  0  0  0  0
   29.3600   28.1550   44.1740 C   0  0  0  0  0  2  0  0  0  0  0  0
   29.7750   26.7590   44.6590 C   0  0  0  0  0  2  0  0  0  0  0  0
   31.0610   27.1610   45.3960 C   0  0  0  0  0  2  0  0  0  0  0  0
   30.5160   28.3150   46.2050 C   0  0  1  0  0  3  0  0  0  0  0  0
  1  5  1  0  0  0  0
  1  6  1  1  0  0  0
  1  2  1  0  0  0  0
  2  7  1  6  0  0  0
  2 12  1  0  0  0  0
  2  3  1  0  0  0  0
  4  8  1  0  0  0  0
  4  9  1  0  0  0  0
  4  3  1  0  0  0  0
  5 10  1  6  0  0  0
  5  4  1  0  0  0  0
 11 14  1  6  0  0  0
 11 13  1  0  0  0  0
 12 15  1  6  0  0  0
 12 11  1  0  0  0  0
 12 13  1  0  0  0  0
 13 16  1  0  0  0  0
 13 17  1  0  0  0  0
 18 11  1  0  0  0  0
 18 19  1  0  0  0  0
 19 24  1  0  0  0  0
 20 19  2  0  0  0  0
 20 25  1  0  0  0  0
 21 20  1  0  0  0  0
 22 23  1  0  0  0  0
 22 21  2  0  0  0  0
 23 18  2  0  0  0  0
 26 22  1  0  0  0  0
 27  1  1  0  0  0  0
 28 27  1  0  0  0  0
 29  5  1  0  0  0  0
 31 30  1  0  0  0  0
 31 35  1  0  0  0  0
 32 33  1  0  0  0  0
 32 31  1  0  0  0  0
 33 34  1  0  0  0  0
 34 35  1  0  0  0  0
 35 29  1  6  0  0  0
M  END
>  <minimizedAffinity>
-4.73091125

>  <minimizedRMSD>
0.473366767

$$$$
