
 OpenBabel03272501053D

 27 29  0  0  1  0  0  0  0  0999 V2000
   39.0120   32.2700   47.7020 C   0  0  2  0  0  0  0  0  0  0  0  0
   38.0240   32.6950   48.8100 C   0  0  2  0  0  0  0  0  0  0  0  0
   38.9010   33.5390   49.6400 C   0  0  0  0  0  0  0  0  0  0  0  0
   39.7140   34.2470   48.7630 O   0  0  0  0  0  0  0  0  0  0  0  0
   39.7180   33.6250   47.5580 C   0  0  0  0  0  0  0  0  0  0  0  0
   39.7090   31.5150   48.0580 H   0  0  0  0  0  0  0  0  0  0  0  0
   37.2810   33.3170   48.2490 H   0  0  0  0  0  0  0  0  0  0  0  0
   39.5430   32.9370   50.3290 H   0  0  0  0  0  0  0  0  0  0  0  0
   38.3530   34.2490   50.2800 H   0  0  0  0  0  0  0  0  0  0  0  0
   39.1500   34.2140   46.8270 H   0  0  0  0  0  0  0  0  0  0  0  0
   40.7720   33.4730   47.2130 H   0  0  0  0  0  0  0  0  0  0  0  0
   37.3760   29.7490   51.0780 C   0  0  0  0  0  0  0  0  0  0  0  0
   38.0510   30.8550   50.5020 C   0  0  0  0  0  0  0  0  0  0  0  0
   37.3980   31.5650   49.4620 C   0  0  0  0  0  0  0  0  0  0  0  0
   36.1470   31.1370   49.0730 N   0  0  0  0  0  0  0  0  0  0  0  0
   35.5490   30.0880   49.6450 C   0  0  0  0  0  0  0  0  0  0  0  0
   36.1460   29.3910   50.6390 N   0  0  0  0  0  0  0  0  0  0  0  0
   37.9380   29.2610   51.8630 H   0  0  0  0  0  0  0  0  0  0  0  0
   39.0330   31.1420   50.8520 H   0  0  0  0  0  0  0  0  0  0  0  0
   34.5610   29.7690   49.3210 H   0  0  0  0  0  0  0  0  0  0  0  0
   38.3190   31.9630   46.5520 O   0  0  0  0  0  0  0  0  0  0  0  0
   40.7520   31.4600   45.1210 H   0  0  0  0  0  0  0  0  0  0  0  0
   39.7870   31.4680   44.7440 N   0  0  0  0  0  0  0  0  0  0  0  0
   39.8240   31.9810   43.3640 C   0  0  0  0  0  0  0  0  0  0  0  0
   38.3910   32.2190   43.0250 C   0  0  0  0  0  0  0  0  0  0  0  0
   37.7390   32.4020   44.3580 C   0  0  0  0  0  0  0  0  0  0  0  0
   38.8950   32.3830   45.3740 C   0  0  1  0  0  0  0  0  0  0  0  0
  1  6  1  1  0  0  0
  1  2  1  0  0  0  0
  2  7  1  6  0  0  0
  2 14  1  0  0  0  0
  2  3  1  0  0  0  0
  3  9  1  0  0  0  0
  3  8  1  0  0  0  0
  4  3  1  0  0  0  0
  5  1  1  0  0  0  0
  5  4  1  0  0  0  0
 10  5  1  0  0  0  0
 11  5  1  0  0  0  0
 12 18  1  0  0  0  0
 13 19  1  0  0  0  0
 13 12  2  0  0  0  0
 14 13  1  0  0  0  0
 15 14  2  0  0  0  0
 15 16  1  0  0  0  0
 16 17  2  0  0  0  0
 17 12  1  0  0  0  0
 20 16  1  0  0  0  0
 21  1  1  0  0  0  0
 23 22  1  0  0  0  0
 23 27  1  0  0  0  0
 24 23  1  0  0  0  0
 25 24  1  0  0  0  0
 25 26  1  0  0  0  0
 26 27  1  0  0  0  0
 27 21  1  1  0  0  0
M  END
>  <minimizedAffinity>
-5.1200304

>  <minimizedRMSD>
2.91665101

$$$$
