
 OpenBabel03272507383D

 20 21  0  0  1  0  0  0  0  0999 V2000
   39.5180   23.6470   35.7790 C   0  0  0  0  0  0  0  0  0  0  0  0
   39.5140   22.9410   36.9680 C   0  0  0  0  0  0  0  0  0  0  0  0
   40.7250   22.5230   37.5120 C   0  0  0  0  0  0  0  0  0  0  0  0
   41.8590   22.8470   36.8120 N   0  0  0  0  0  0  0  0  0  0  0  0
   41.8350   23.5330   35.6570 C   0  0  0  0  0  0  0  0  0  0  0  0
   40.6680   23.9350   35.1370 N   0  0  0  0  0  0  0  0  0  0  0  0
   40.8000   21.9670   38.4370 H   0  0  0  0  0  0  0  0  0  0  0  0
   42.7690   23.7610   35.1480 H   0  0  0  0  0  0  0  0  0  0  0  0
   37.7920   23.5230   38.5800 C   0  0  0  0  0  0  0  0  0  0  0  0
   38.0270   24.7460   38.9250 O   0  0  0  0  0  0  0  0  0  0  0  0
   38.3930   22.5890   37.7140 N   0  0  0  0  0  0  0  0  0  0  0  0
   36.9560   23.6160   39.2640 H   0  0  0  0  0  0  0  0  0  0  0  0
   37.8230   21.7200   37.8070 H   0  0  0  0  0  0  0  0  0  0  0  0
   38.2320   23.9850   35.3820 O   0  0  0  0  0  0  0  0  0  0  0  0
   38.0310   26.2330   37.1400 H   0  0  0  0  0  0  0  0  0  0  0  0
   38.4640   26.1610   36.1960 N   0  0  0  0  0  0  0  0  0  0  0  0
   38.5970   27.4390   35.5390 C   0  0  0  0  0  2  0  0  0  0  0  0
   38.5830   27.1720   34.0540 C   0  0  0  0  0  2  0  0  0  0  0  0
   37.8100   25.8780   33.9200 C   0  0  0  0  0  2  0  0  0  0  0  0
   37.7490   25.2890   35.3040 C   0  0  1  0  0  3  0  0  0  0  0  0
  1  2  1  0  0  0  0
  2  3  2  0  0  0  0
  2 11  1  0  0  0  0
  3  7  1  0  0  0  0
  4  3  1  0  0  0  0
  5  4  2  0  0  0  0
  6  5  1  0  0  0  0
  6  1  2  0  0  0  0
  8  5  1  0  0  0  0
  9 10  2  0  0  0  0
  9 12  1  0  0  0  0
 11 13  1  0  0  0  0
 11  9  1  0  0  0  0
 14  1  1  0  0  0  0
 16 15  1  0  0  0  0
 17 16  1  0  0  0  0
 18 17  1  0  0  0  0
 19 18  1  0  0  0  0
 19 20  1  0  0  0  0
 20 14  1  6  0  0  0
 20 16  1  0  0  0  0
M  END
>  <minimizedAffinity>
-4.19001007

$$$$

 OpenBabel03272507383D

 20 21  0  0  1  0  0  0  0  0999 V2000
   39.8750   24.5320   35.5460 C   0  0  0  0  0  0  0  0  0  0  0  0
   38.5960   24.7950   36.0000 C   0  0  0  0  0  0  0  0  0  0  0  0
   38.0720   26.0750   35.8480 C   0  0  0  0  0  0  0  0  0  0  0  0
   38.8820   27.0040   35.2440 N   0  0  0  0  0  0  0  0  0  0  0  0
   40.1220   26.7210   34.8120 C   0  0  0  0  0  0  0  0  0  0  0  0
   40.6230   25.4880   34.9600 N   0  0  0  0  0  0  0  0  0  0  0  0
   37.0810   26.3540   36.1790 H   0  0  0  0  0  0  0  0  0  0  0  0
   40.7170   27.5010   34.3400 H   0  0  0  0  0  0  0  0  0  0  0  0
   37.7660   23.7200   38.0150 C   0  0  0  0  0  0  0  0  0  0  0  0
   38.4530   24.2160   38.9900 O   0  0  0  0  0  0  0  0  0  0  0  0
   37.7380   23.8890   36.6170 N   0  0  0  0  0  0  0  0  0  0  0  0
   37.2750   23.1600   38.8020 H   0  0  0  0  0  0  0  0  0  0  0  0
   37.0020   23.2330   36.2750 H   0  0  0  0  0  0  0  0  0  0  0  0
   40.2370   23.2120   35.7770 O   0  0  0  0  0  0  0  0  0  0  0  0
   40.1910   21.5700   38.1190 H   0  0  0  0  0  0  0  0  0  0  0  0
   40.8040   21.5170   37.2800 N   0  0  0  0  0  0  0  0  0  0  0  0
   42.0330   20.8020   37.5240 C   0  0  0  0  0  2  0  0  0  0  0  0
   43.0530   21.3380   36.5500 C   0  0  0  0  0  2  0  0  0  0  0  0
   42.5730   22.7400   36.2470 C   0  0  0  0  0  2  0  0  0  0  0  0
   41.1540   22.8050   36.7440 C   0  0  1  0  0  3  0  0  0  0  0  0
  1 14  1  0  0  0  0
  1  2  1  0  0  0  0
  2 11  1  0  0  0  0
  3  2  2  0  0  0  0
  3  7  1  0  0  0  0
  4  3  1  0  0  0  0
  5  6  1  0  0  0  0
  5  4  2  0  0  0  0
  6  1  2  0  0  0  0
  8  5  1  0  0  0  0
  9 12  1  0  0  0  0
  9 10  2  0  0  0  0
 11  9  1  0  0  0  0
 13 11  1  0  0  0  0
 16 17  1  0  0  0  0
 16 15  1  0  0  0  0
 18 17  1  0  0  0  0
 19 18  1  0  0  0  0
 19 20  1  0  0  0  0
 20 14  1  6  0  0  0
 20 16  1  0  0  0  0
M  END
>  <minimizedAffinity>
-4.17806339

$$$$

 OpenBabel03272507383D

 20 21  0  0  1  0  0  0  0  0999 V2000
   40.9500   23.5560   35.6990 C   0  0  0  0  0  0  0  0  0  0  0  0
   41.0540   24.7060   34.9380 C   0  0  0  0  0  0  0  0  0  0  0  0
   42.2610   25.3980   34.9190 C   0  0  0  0  0  0  0  0  0  0  0  0
   43.2820   24.8780   35.6740 N   0  0  0  0  0  0  0  0  0  0  0  0
   43.1530   23.7590   36.4050 C   0  0  0  0  0  0  0  0  0  0  0  0
   41.9900   23.0940   36.4220 N   0  0  0  0  0  0  0  0  0  0  0  0
   42.4170   26.3040   34.3480 H   0  0  0  0  0  0  0  0  0  0  0  0
   43.9990   23.3950   36.9850 H   0  0  0  0  0  0  0  0  0  0  0  0
   39.3490   26.4040   34.6110 C   0  0  0  0  0  0  0  0  0  0  0  0
   39.3690   27.1370   35.6750 O   0  0  0  0  0  0  0  0  0  0  0  0
   40.0510   25.2710   34.1570 N   0  0  0  0  0  0  0  0  0  0  0  0
   38.5670   27.0870   34.2990 H   0  0  0  0  0  0  0  0  0  0  0  0
   39.6400   25.0480   33.2240 H   0  0  0  0  0  0  0  0  0  0  0  0
   39.6840   22.9950   35.6040 O   0  0  0  0  0  0  0  0  0  0  0  0
   39.7520   21.7040   38.1570 H   0  0  0  0  0  0  0  0  0  0  0  0
   39.5320   22.6920   37.9150 N   0  0  0  0  0  0  0  0  0  0  0  0
   38.7700   23.3660   38.9380 C   0  0  0  0  0  2  0  0  0  0  0  0
   37.9820   24.4540   38.2530 C   0  0  0  0  0  2  0  0  0  0  0  0
   37.8220   23.9560   36.8330 C   0  0  0  0  0  2  0  0  0  0  0  0
   38.8120   22.8320   36.6780 C   0  0  1  0  0  3  0  0  0  0  0  0
  1  6  1  0  0  0  0
  2  1  2  0  0  0  0
  3  2  1  0  0  0  0
  3  4  2  0  0  0  0
  4  5  1  0  0  0  0
  5  6  2  0  0  0  0
  5  8  1  0  0  0  0
  7  3  1  0  0  0  0
  9 10  2  0  0  0  0
 11  9  1  0  0  0  0
 11  2  1  0  0  0  0
 12  9  1  0  0  0  0
 13 11  1  0  0  0  0
 14  1  1  0  0  0  0
 16 15  1  0  0  0  0
 16 17  1  0  0  0  0
 18 17  1  0  0  0  0
 19 18  1  0  0  0  0
 20 14  1  6  0  0  0
 20 19  1  0  0  0  0
 20 16  1  0  0  0  0
M  END
>  <minimizedAffinity>
-4.04403496

$$$$

 OpenBabel03272507383D

 20 21  0  0  1  0  0  0  0  0999 V2000
   39.2320   24.4050   35.0640 C   0  0  0  0  0  0  0  0  0  0  0  0
   38.2700   23.7550   35.8150 C   0  0  0  0  0  0  0  0  0  0  0  0
   37.9310   22.4440   35.4930 C   0  0  0  0  0  0  0  0  0  0  0  0
   38.5910   21.8810   34.4300 N   0  0  0  0  0  0  0  0  0  0  0  0
   39.5220   22.5360   33.7170 C   0  0  0  0  0  0  0  0  0  0  0  0
   39.8460   23.7970   34.0290 N   0  0  0  0  0  0  0  0  0  0  0  0
   37.1890   21.8730   36.0340 H   0  0  0  0  0  0  0  0  0  0  0  0
   40.0110   22.0360   32.8830 H   0  0  0  0  0  0  0  0  0  0  0  0
   38.0140   24.0340   38.2140 C   0  0  0  0  0  0  0  0  0  0  0  0
   38.9800   23.3670   38.7540 O   0  0  0  0  0  0  0  0  0  0  0  0
   37.5760   24.2820   36.8990 N   0  0  0  0  0  0  0  0  0  0  0  0
   37.7610   24.2700   39.2420 H   0  0  0  0  0  0  0  0  0  0  0  0
   36.7230   24.8760   37.0000 H   0  0  0  0  0  0  0  0  0  0  0  0
   39.4470   25.6990   35.5200 O   0  0  0  0  0  0  0  0  0  0  0  0
   39.3300   26.5720   32.7980 H   0  0  0  0  0  0  0  0  0  0  0  0
   38.5800   26.5360   33.5200 N   0  0  0  0  0  0  0  0  0  0  0  0
   37.4760   27.4180   33.2300 C   0  0  0  0  0  2  0  0  0  0  0  0
   36.8440   27.7790   34.5520 C   0  0  0  0  0  2  0  0  0  0  0  0
   37.9680   27.6260   35.5520 C   0  0  0  0  0  2  0  0  0  0  0  0
   39.0460   26.8490   34.8450 C   0  0  1  0  0  3  0  0  0  0  0  0
  1 14  1  0  0  0  0
  1  2  1  0  0  0  0
  2 11  1  0  0  0  0
  3  2  2  0  0  0  0
  3  7  1  0  0  0  0
  4  3  1  0  0  0  0
  5  6  1  0  0  0  0
  5  4  2  0  0  0  0
  6  1  2  0  0  0  0
  8  5  1  0  0  0  0
  9 10  2  0  0  0  0
  9 12  1  0  0  0  0
 11 13  1  0  0  0  0
 11  9  1  0  0  0  0
 15 16  1  0  0  0  0
 16 20  1  0  0  0  0
 17 16  1  0  0  0  0
 17 18  1  0  0  0  0
 18 19  1  0  0  0  0
 20 14  1  1  0  0  0
 20 19  1  0  0  0  0
M  END
>  <minimizedAffinity>
-3.94168282

$$$$

 OpenBabel03272507383D

 20 21  0  0  1  0  0  0  0  0999 V2000
   36.2710   23.7710   31.9760 C   0  0  0  0  0  0  0  0  0  0  0  0
   37.3370   24.5970   32.2790 C   0  0  0  0  0  0  0  0  0  0  0  0
   37.3170   25.9180   31.8410 C   0  0  0  0  0  0  0  0  0  0  0  0
   36.2160   26.3110   31.1230 N   0  0  0  0  0  0  0  0  0  0  0  0
   35.1940   25.4870   30.8420 C   0  0  0  0  0  0  0  0  0  0  0  0
   35.2160   24.2170   31.2650 N   0  0  0  0  0  0  0  0  0  0  0  0
   38.1140   26.6210   32.0400 H   0  0  0  0  0  0  0  0  0  0  0  0
   34.3470   25.8580   30.2670 H   0  0  0  0  0  0  0  0  0  0  0  0
   38.5650   24.5490   34.3750 C   0  0  0  0  0  0  0  0  0  0  0  0
   37.8130   25.1430   35.2410 O   0  0  0  0  0  0  0  0  0  0  0  0
   38.4730   24.2450   33.0030 N   0  0  0  0  0  0  0  0  0  0  0  0
   39.2380   24.4300   35.2170 H   0  0  0  0  0  0  0  0  0  0  0  0
   39.3680   23.7640   32.7660 H   0  0  0  0  0  0  0  0  0  0  0  0
   36.4540   22.4930   32.4880 O   0  0  0  0  0  0  0  0  0  0  0  0
   34.3340   21.3320   30.9570 H   0  0  0  0  0  0  0  0  0  0  0  0
   35.0860   20.8720   31.5110 N   0  0  0  0  0  0  0  0  0  0  0  0
   34.7620   19.5170   31.8840 C   0  0  0  0  0  2  0  0  0  0  0  0
   35.5290   19.2140   33.1480 C   0  0  0  0  0  2  0  0  0  0  0  0
   35.7350   20.5700   33.7860 C   0  0  0  0  0  2  0  0  0  0  0  0
   35.4260   21.5810   32.7150 C   0  0  1  0  0  3  0  0  0  0  0  0
  1  2  1  0  0  0  0
  1 14  1  0  0  0  0
  2 11  1  0  0  0  0
  3  7  1  0  0  0  0
  3  2  2  0  0  0  0
  4  3  1  0  0  0  0
  5  4  2  0  0  0  0
  5  6  1  0  0  0  0
  6  1  2  0  0  0  0
  8  5  1  0  0  0  0
  9 12  1  0  0  0  0
  9 10  2  0  0  0  0
 11  9  1  0  0  0  0
 13 11  1  0  0  0  0
 15 16  1  0  0  0  0
 16 17  1  0  0  0  0
 16 20  1  0  0  0  0
 17 18  1  0  0  0  0
 18 19  1  0  0  0  0
 20 14  1  6  0  0  0
 20 19  1  0  0  0  0
M  END
>  <minimizedAffinity>
-3.8217659

$$$$

 OpenBabel03272507383D

 20 21  0  0  1  0  0  0  0  0999 V2000
   39.8570   24.0440   35.7230 C   0  0  0  0  0  0  0  0  0  0  0  0
   39.5550   22.8220   36.2940 C   0  0  0  0  0  0  0  0  0  0  0  0
   40.5750   21.8970   36.4970 C   0  0  0  0  0  0  0  0  0  0  0  0
   41.8340   22.2740   36.1050 N   0  0  0  0  0  0  0  0  0  0  0  0
   42.1000   23.4680   35.5510 C   0  0  0  0  0  0  0  0  0  0  0  0
   41.1170   24.3560   35.3580 N   0  0  0  0  0  0  0  0  0  0  0  0
   40.4140   20.9220   36.9380 H   0  0  0  0  0  0  0  0  0  0  0  0
   43.1210   23.7100   35.2600 H   0  0  0  0  0  0  0  0  0  0  0  0
   37.3710   21.8940   35.7710 C   0  0  0  0  0  0  0  0  0  0  0  0
   37.3590   21.7160   34.4920 O   0  0  0  0  0  0  0  0  0  0  0  0
   38.2960   22.3940   36.7080 N   0  0  0  0  0  0  0  0  0  0  0  0
   36.3700   21.4810   35.7190 H   0  0  0  0  0  0  0  0  0  0  0  0
   37.8100   22.3440   37.6300 H   0  0  0  0  0  0  0  0  0  0  0  0
   38.7280   24.8410   35.5950 O   0  0  0  0  0  0  0  0  0  0  0  0
   38.0010   25.4660   32.8990 H   0  0  0  0  0  0  0  0  0  0  0  0
   37.6450   25.8600   33.7940 N   0  0  0  0  0  0  0  0  0  0  0  0
   37.0290   27.1550   33.6340 C   0  0  0  0  0  2  0  0  0  0  0  0
   37.1680   27.8730   34.9530 C   0  0  0  0  0  2  0  0  0  0  0  0
   38.3900   27.2460   35.5870 C   0  0  0  0  0  2  0  0  0  0  0  0
   38.6580   25.9870   34.8070 C   0  0  1  0  0  3  0  0  0  0  0  0
  1  2  1  0  0  0  0
  2  3  2  0  0  0  0
  2 11  1  0  0  0  0
  3  7  1  0  0  0  0
  4  3  1  0  0  0  0
  5  4  2  0  0  0  0
  6  5  1  0  0  0  0
  6  1  2  0  0  0  0
  8  5  1  0  0  0  0
  9 11  1  0  0  0  0
 10  9  2  0  0  0  0
 11 13  1  0  0  0  0
 12  9  1  0  0  0  0
 14  1  1  0  0  0  0
 15 16  1  0  0  0  0
 16 20  1  0  0  0  0
 17 16  1  0  0  0  0
 17 18  1  0  0  0  0
 18 19  1  0  0  0  0
 20 19  1  0  0  0  0
 20 14  1  1  0  0  0
M  END
>  <minimizedAffinity>
-3.80646515

$$$$

 OpenBabel03272507383D

 20 21  0  0  1  0  0  0  0  0999 V2000
   39.3640   24.9570   34.5550 C   0  0  0  0  0  0  0  0  0  0  0  0
   39.5950   26.2720   34.9110 C   0  0  0  0  0  0  0  0  0  0  0  0
   40.6530   26.9580   34.3220 C   0  0  0  0  0  0  0  0  0  0  0  0
   41.4070   26.2620   33.4110 N   0  0  0  0  0  0  0  0  0  0  0  0
   41.1610   24.9830   33.0840 C   0  0  0  0  0  0  0  0  0  0  0  0
   40.1410   24.3260   33.6520 N   0  0  0  0  0  0  0  0  0  0  0  0
   40.8940   27.9880   34.5510 H   0  0  0  0  0  0  0  0  0  0  0  0
   41.7950   24.4840   32.3540 H   0  0  0  0  0  0  0  0  0  0  0  0
   37.6940   27.6970   35.4210 C   0  0  0  0  0  0  0  0  0  0  0  0
   37.0550   27.8470   34.3080 O   0  0  0  0  0  0  0  0  0  0  0  0
   38.8600   27.0190   35.8270 N   0  0  0  0  0  0  0  0  0  0  0  0
   36.9040   28.3230   35.8210 H   0  0  0  0  0  0  0  0  0  0  0  0
   38.9600   27.2300   36.8450 H   0  0  0  0  0  0  0  0  0  0  0  0
   38.2750   24.4280   35.2350 O   0  0  0  0  0  0  0  0  0  0  0  0
   40.0500   22.2600   35.8160 H   0  0  0  0  0  0  0  0  0  0  0  0
   39.7240   23.0380   36.4260 N   0  0  0  0  0  0  0  0  0  0  0  0
   39.8550   22.7420   37.8320 C   0  0  0  0  0  2  0  0  0  0  0  0
   38.8110   23.5600   38.5520 C   0  0  0  0  0  2  0  0  0  0  0  0
   37.7340   23.7790   37.5120 C   0  0  0  0  0  2  0  0  0  0  0  0
   38.3580   23.4180   36.1910 C   0  0  1  0  0  3  0  0  0  0  0  0
  1  2  1  0  0  0  0
  1 14  1  0  0  0  0
  2 11  1  0  0  0  0
  3  7  1  0  0  0  0
  3  2  2  0  0  0  0
  4  3  1  0  0  0  0
  5  4  2  0  0  0  0
  5  6  1  0  0  0  0
  6  1  2  0  0  0  0
  8  5  1  0  0  0  0
  9 12  1  0  0  0  0
  9 11  1  0  0  0  0
 10  9  2  0  0  0  0
 11 13  1  0  0  0  0
 15 16  1  0  0  0  0
 16 17  1  0  0  0  0
 17 18  1  0  0  0  0
 19 18  1  0  0  0  0
 20 14  1  6  0  0  0
 20 16  1  0  0  0  0
 20 19  1  0  0  0  0
M  END
>  <minimizedAffinity>
-3.79055166

$$$$

 OpenBabel03272507383D

 20 21  0  0  1  0  0  0  0  0999 V2000
   38.3420   23.7440   36.1470 C   0  0  0  0  0  0  0  0  0  0  0  0
   39.4920   23.0130   36.3780 C   0  0  0  0  0  0  0  0  0  0  0  0
   39.8680   22.7380   37.6890 C   0  0  0  0  0  0  0  0  0  0  0  0
   39.0520   23.2250   38.6790 N   0  0  0  0  0  0  0  0  0  0  0  0
   37.9400   23.9340   38.4260 C   0  0  0  0  0  0  0  0  0  0  0  0
   37.5800   24.1970   37.1630 N   0  0  0  0  0  0  0  0  0  0  0  0
   40.7530   22.1720   37.9470 H   0  0  0  0  0  0  0  0  0  0  0  0
   37.3320   24.2940   39.2540 H   0  0  0  0  0  0  0  0  0  0  0  0
   41.5550   23.1580   35.1040 C   0  0  0  0  0  0  0  0  0  0  0  0
   42.1440   24.2360   35.5050 O   0  0  0  0  0  0  0  0  0  0  0  0
   40.3500   22.4980   35.4110 N   0  0  0  0  0  0  0  0  0  0  0  0
   42.4260   23.0610   34.4660 H   0  0  0  0  0  0  0  0  0  0  0  0
   40.3280   21.6610   34.7870 H   0  0  0  0  0  0  0  0  0  0  0  0
   38.1170   23.9250   34.7890 O   0  0  0  0  0  0  0  0  0  0  0  0
   36.2910   26.1280   34.8040 H   0  0  0  0  0  0  0  0  0  0  0  0
   37.3160   26.1100   34.9850 N   0  0  0  0  0  0  0  0  0  0  0  0
   37.9420   27.3970   34.8050 C   0  0  0  0  0  2  0  0  0  0  0  0
   39.3830   27.1370   34.4390 C   0  0  0  0  0  2  0  0  0  0  0  0
   39.3590   25.7650   33.8020 C   0  0  0  0  0  2  0  0  0  0  0  0
   38.0260   25.1660   34.1640 C   0  0  1  0  0  3  0  0  0  0  0  0
  1  2  2  0  0  0  0
  1  6  1  0  0  0  0
  2  3  1  0  0  0  0
  3  7  1  0  0  0  0
  3  4  2  0  0  0  0
  5  4  1  0  0  0  0
  5  8  1  0  0  0  0
  6  5  2  0  0  0  0
  9 11  1  0  0  0  0
  9 10  2  0  0  0  0
 11  2  1  0  0  0  0
 12  9  1  0  0  0  0
 13 11  1  0  0  0  0
 14  1  1  0  0  0  0
 15 16  1  0  0  0  0
 17 16  1  0  0  0  0
 18 17  1  0  0  0  0
 19 20  1  0  0  0  0
 19 18  1  0  0  0  0
 20 14  1  1  0  0  0
 20 16  1  0  0  0  0
M  END
>  <minimizedAffinity>
-3.77834725

$$$$

 OpenBabel03272507383D

 20 21  0  0  1  0  0  0  0  0999 V2000
   38.8990   23.1770   35.8080 C   0  0  0  0  0  0  0  0  0  0  0  0
   38.6080   24.3460   35.1300 C   0  0  0  0  0  0  0  0  0  0  0  0
   38.0210   24.2710   33.8700 C   0  0  0  0  0  0  0  0  0  0  0  0
   37.7700   23.0140   33.3820 N   0  0  0  0  0  0  0  0  0  0  0  0
   38.0640   21.8940   34.0620 C   0  0  0  0  0  0  0  0  0  0  0  0
   38.6280   21.9690   35.2740 N   0  0  0  0  0  0  0  0  0  0  0  0
   37.7660   25.1420   33.2810 H   0  0  0  0  0  0  0  0  0  0  0  0
   37.8400   20.9240   33.6210 H   0  0  0  0  0  0  0  0  0  0  0  0
   39.9760   26.3540   35.1450 C   0  0  0  0  0  0  0  0  0  0  0  0
   40.9770   26.1070   34.3660 O   0  0  0  0  0  0  0  0  0  0  0  0
   38.8430   25.6410   35.5820 N   0  0  0  0  0  0  0  0  0  0  0  0
   40.4540   27.3200   35.2570 H   0  0  0  0  0  0  0  0  0  0  0  0
   38.3430   26.2890   36.2310 H   0  0  0  0  0  0  0  0  0  0  0  0
   39.4770   23.4340   37.0430 O   0  0  0  0  0  0  0  0  0  0  0  0
   40.4820   21.3710   38.7520 H   0  0  0  0  0  0  0  0  0  0  0  0
   40.6880   21.5670   37.7510 N   0  0  0  0  0  0  0  0  0  0  0  0
   41.9340   20.9880   37.3080 C   0  0  0  0  0  2  0  0  0  0  0  0
   42.4290   21.8360   36.1630 C   0  0  0  0  0  2  0  0  0  0  0  0
   41.8120   23.1940   36.4160 C   0  0  0  0  0  2  0  0  0  0  0  0
   40.7300   22.9700   37.4380 C   0  0  1  0  0  3  0  0  0  0  0  0
  1 14  1  0  0  0  0
  2 11  1  0  0  0  0
  2  1  2  0  0  0  0
  3  2  1  0  0  0  0
  4  3  2  0  0  0  0
  4  5  1  0  0  0  0
  5  6  2  0  0  0  0
  6  1  1  0  0  0  0
  7  3  1  0  0  0  0
  8  5  1  0  0  0  0
  9 12  1  0  0  0  0
  9 11  1  0  0  0  0
 10  9  2  0  0  0  0
 11 13  1  0  0  0  0
 16 15  1  0  0  0  0
 17 16  1  0  0  0  0
 18 19  1  0  0  0  0
 18 17  1  0  0  0  0
 19 20  1  0  0  0  0
 20 14  1  6  0  0  0
 20 16  1  0  0  0  0
M  END
>  <minimizedAffinity>
-3.76160812

$$$$
