
 OpenBabel03272506423D

 29 31  0  0  1  0  0  0  0  0999 V2000
   32.3790   28.3480   47.5500 C   0  0  2  0  0  0  0  0  0  0  0  0
   33.5870   28.4030   48.4690 C   0  0  1  0  0  0  0  0  0  0  0  0
   34.2110   27.1920   48.4290 O   0  0  0  0  0  0  0  0  0  0  0  0
   33.6430   26.4110   47.4450 C   0  0  0  0  0  0  0  0  0  0  0  0
   32.9300   27.3870   46.5100 C   0  0  1  0  0  0  0  0  0  0  0  0
   31.4970   27.9680   48.0700 H   0  0  0  0  0  0  0  0  0  0  0  0
   33.3250   28.6940   49.5030 H   0  0  0  0  0  0  0  0  0  0  0  0
   32.8940   25.7490   47.9240 H   0  0  0  0  0  0  0  0  0  0  0  0
   34.4020   25.8170   46.9000 H   0  0  0  0  0  0  0  0  0  0  0  0
   33.6700   27.8970   45.8950 H   0  0  0  0  0  0  0  0  0  0  0  0
   32.0890   29.5990   47.0100 O   0  0  0  0  0  0  0  0  0  0  0  0
   32.5340   29.7450   46.1380 H   0  0  0  0  0  0  0  0  0  0  0  0
   34.7330   29.6290   47.7250 S   0  0  0  0  0  0  0  0  0  0  0  0
   37.4160   29.3340   50.6250 C   0  0  0  0  0  0  0  0  0  0  0  0
   37.9210   30.6130   50.7970 C   0  0  0  0  0  0  0  0  0  0  0  0
   37.4060   31.6300   49.9700 C   0  0  0  0  0  0  0  0  0  0  0  0
   36.4550   31.3010   49.0640 N   0  0  0  0  0  0  0  0  0  0  0  0
   35.9920   30.0380   48.9320 C   0  0  0  0  0  0  0  0  0  0  0  0
   36.4600   29.0390   49.7040 N   0  0  0  0  0  0  0  0  0  0  0  0
   37.7550   28.4790   51.2200 H   0  0  0  0  0  0  0  0  0  0  0  0
   38.6770   30.8040   51.5360 H   0  0  0  0  0  0  0  0  0  0  0  0
   37.7700   32.6420   50.0680 H   0  0  0  0  0  0  0  0  0  0  0  0
   31.9170   26.7430   45.8070 O   0  0  0  0  0  0  0  0  0  0  0  0
   31.2860   29.0760   44.8220 H   0  0  0  0  0  0  0  0  0  0  0  0
   31.1510   28.2790   44.1630 N   0  0  0  0  0  0  0  0  0  0  0  0
   31.7180   28.7070   42.8970 C   0  0  0  0  0  0  0  0  0  0  0  0
   33.1870   28.7960   43.1910 C   0  0  0  0  0  0  0  0  0  0  0  0
   33.4140   27.7580   44.2520 C   0  0  0  0  0  0  0  0  0  0  0  0
   32.0300   27.1760   44.4870 C   0  0  1  0  0  0  0  0  0  0  0  0
  1  6  1  1  0  0  0
  1  2  1  0  0  0  0
  2  7  1  1  0  0  0
  3  2  1  0  0  0  0
  4  8  1  0  0  0  0
  4  3  1  0  0  0  0
  5 10  1  6  0  0  0
  5  4  1  0  0  0  0
  5  1  1  0  0  0  0
  9  4  1  0  0  0  0
 11  1  1  0  0  0  0
 12 11  1  0  0  0  0
 13  2  1  0  0  0  0
 13 18  1  0  0  0  0
 14 15  1  0  0  0  0
 14 20  1  0  0  0  0
 15 21  1  0  0  0  0
 16 22  1  0  0  0  0
 16 15  2  0  0  0  0
 17 16  1  0  0  0  0
 18 17  2  0  0  0  0
 18 19  1  0  0  0  0
 19 14  2  0  0  0  0
 23  5  1  0  0  0  0
 25 29  1  0  0  0  0
 25 24  1  0  0  0  0
 26 27  1  0  0  0  0
 26 25  1  0  0  0  0
 27 28  1  0  0  0  0
 28 29  1  0  0  0  0
 29 23  1  1  0  0  0
M  END
>  <minimizedAffinity>
-3.79342818

>  <minimizedRMSD>
0.361840278

$$$$
