
 OpenBabel03272508263D

 35 38  0  0  1  0  0  0  0  0999 V2000
   33.9630   29.0200   47.3220 C   0  0  2  0  0  0  0  0  0  0  0  0
   34.7150   28.2390   48.3880 C   0  0  2  0  0  0  0  0  0  0  0  0
   33.8180   28.0420   49.3990 O   0  0  0  0  0  0  0  0  0  0  0  0
   32.5420   28.1060   48.9340 C   0  0  0  0  0  0  0  0  0  0  0  0
   32.5970   28.3330   47.4350 C   0  0  1  0  0  0  0  0  0  0  0  0
   33.7980   30.0740   47.5810 H   0  0  0  0  0  0  0  0  0  0  0  0
   35.0170   27.2790   47.9070 H   0  0  0  0  0  0  0  0  0  0  0  0
   31.9410   27.1970   49.1500 H   0  0  0  0  0  0  0  0  0  0  0  0
   32.0260   28.9540   49.4520 H   0  0  0  0  0  0  0  0  0  0  0  0
   32.6600   27.3270   46.9850 H   0  0  0  0  0  0  0  0  0  0  0  0
   35.7820   30.5070   49.0350 C   0  0  1  0  0  0  0  0  0  0  0  0
   35.8720   29.0820   48.8200 C   0  0  1  0  0  0  0  0  0  0  0  0
   36.0060   29.5640   50.2280 C   0  0  0  0  0  0  0  0  0  0  0  0
   34.8710   31.1180   49.1820 H   0  0  0  0  0  0  0  0  0  0  0  0
   36.8430   28.7180   48.3760 H   0  0  0  0  0  0  0  0  0  0  0  0
   36.9840   29.5760   50.7310 H   0  0  0  0  0  0  0  0  0  0  0  0
   35.1280   29.3300   50.8590 H   0  0  0  0  0  0  0  0  0  0  0  0
   36.9740   31.4200   48.8030 C   0  0  0  0  0  0  0  0  0  0  0  0
   37.1580   32.4720   49.6980 C   0  0  0  0  0  0  0  0  0  0  0  0
   38.2480   33.2880   49.4150 C   0  0  0  0  0  0  0  0  0  0  0  0
   39.0570   33.0530   48.3380 N   0  0  0  0  0  0  0  0  0  0  0  0
   38.8320   32.0090   47.4940 C   0  0  0  0  0  0  0  0  0  0  0  0
   37.7800   31.1900   47.7350 N   0  0  0  0  0  0  0  0  0  0  0  0
   36.5110   32.6320   50.5290 H   0  0  0  0  0  0  0  0  0  0  0  0
   38.4250   34.1120   50.0820 H   0  0  0  0  0  0  0  0  0  0  0  0
   39.5020   31.8680   46.6590 H   0  0  0  0  0  0  0  0  0  0  0  0
   34.4900   28.8850   46.0530 O   0  0  0  0  0  0  0  0  0  0  0  0
   34.3120   29.7140   45.5240 H   0  0  0  0  0  0  0  0  0  0  0  0
   31.5930   29.1180   46.9360 O   0  0  0  0  0  0  0  0  0  0  0  0
   29.3670   27.2610   46.5770 H   0  0  0  0  0  0  0  0  0  0  0  0
   29.5140   28.2600   46.2540 N   0  0  0  0  0  0  0  0  0  0  0  0
   28.7370   28.3620   45.0280 C   0  0  0  0  0  2  0  0  0  0  0  0
   29.7830   28.4100   43.9070 C   0  0  0  0  0  2  0  0  0  0  0  0
   30.8480   29.2370   44.6420 C   0  0  0  0  0  2  0  0  0  0  0  0
   30.8920   28.4620   45.9380 C   0  0  1  0  0  3  0  0  0  0  0  0
  1  5  1  0  0  0  0
  1  6  1  1  0  0  0
  1  2  1  0  0  0  0
  2  7  1  6  0  0  0
  2 12  1  0  0  0  0
  2  3  1  0  0  0  0
  4  8  1  0  0  0  0
  4  3  1  0  0  0  0
  4  9  1  0  0  0  0
  5 10  1  6  0  0  0
  5  4  1  0  0  0  0
 11 14  1  6  0  0  0
 11 13  1  0  0  0  0
 12 15  1  6  0  0  0
 12 11  1  0  0  0  0
 12 13  1  0  0  0  0
 13 16  1  0  0  0  0
 13 17  1  0  0  0  0
 18 11  1  0  0  0  0
 18 19  1  0  0  0  0
 19 24  1  0  0  0  0
 20 19  2  0  0  0  0
 20 25  1  0  0  0  0
 21 20  1  0  0  0  0
 22 23  1  0  0  0  0
 22 21  2  0  0  0  0
 23 18  2  0  0  0  0
 26 22  1  0  0  0  0
 27  1  1  0  0  0  0
 28 27  1  0  0  0  0
 29  5  1  0  0  0  0
 31 30  1  0  0  0  0
 32 31  1  0  0  0  0
 33 34  1  0  0  0  0
 33 32  1  0  0  0  0
 34 35  1  0  0  0  0
 35 31  1  0  0  0  0
 35 29  1  1  0  0  0
M  END
>  <minimizedAffinity>
-4.74076557

>  <minimizedRMSD>
0.106488332

$$$$
