
 OpenBabel03272508273D

 35 38  0  0  1  0  0  0  0  0999 V2000
   33.8380   28.8910   47.2260 C   0  0  2  0  0  0  0  0  0  0  0  0
   34.5390   28.1350   48.3440 C   0  0  2  0  0  0  0  0  0  0  0  0
   33.6090   28.0040   49.3370 O   0  0  0  0  0  0  0  0  0  0  0  0
   32.3490   28.0830   48.8330 C   0  0  0  0  0  0  0  0  0  0  0  0
   32.4510   28.2470   47.3290 C   0  0  1  0  0  0  0  0  0  0  0  0
   33.6960   29.9590   47.4380 H   0  0  0  0  0  0  0  0  0  0  0  0
   34.8270   27.1480   47.9110 H   0  0  0  0  0  0  0  0  0  0  0  0
   31.7170   27.2000   49.0690 H   0  0  0  0  0  0  0  0  0  0  0  0
   31.8440   28.9650   49.3020 H   0  0  0  0  0  0  0  0  0  0  0  0
   32.4980   27.2220   46.9210 H   0  0  0  0  0  0  0  0  0  0  0  0
   35.6260   30.3820   49.0300 C   0  0  1  0  0  0  0  0  0  0  0  0
   35.7070   28.9630   48.7750 C   0  0  1  0  0  0  0  0  0  0  0  0
   35.8720   29.4060   50.1920 C   0  0  0  0  0  0  0  0  0  0  0  0
   34.7200   30.9900   49.2120 H   0  0  0  0  0  0  0  0  0  0  0  0
   36.6670   28.6090   48.3000 H   0  0  0  0  0  0  0  0  0  0  0  0
   36.8600   29.4020   50.6740 H   0  0  0  0  0  0  0  0  0  0  0  0
   35.0070   29.1570   50.8350 H   0  0  0  0  0  0  0  0  0  0  0  0
   36.8150   31.2970   48.7970 C   0  0  0  0  0  0  0  0  0  0  0  0
   37.0490   32.2950   49.7420 C   0  0  0  0  0  0  0  0  0  0  0  0
   38.1330   33.1180   49.4590 C   0  0  0  0  0  0  0  0  0  0  0  0
   38.8910   32.9390   48.3350 N   0  0  0  0  0  0  0  0  0  0  0  0
   38.6190   31.9480   47.4430 C   0  0  0  0  0  0  0  0  0  0  0  0
   37.5710   31.1240   47.6830 N   0  0  0  0  0  0  0  0  0  0  0  0
   36.4410   32.4110   50.6090 H   0  0  0  0  0  0  0  0  0  0  0  0
   38.3470   33.9010   50.1630 H   0  0  0  0  0  0  0  0  0  0  0  0
   39.2500   31.8500   46.5720 H   0  0  0  0  0  0  0  0  0  0  0  0
   34.3960   28.6900   45.9800 O   0  0  0  0  0  0  0  0  0  0  0  0
   34.2560   29.5010   45.4130 H   0  0  0  0  0  0  0  0  0  0  0  0
   31.4830   29.0380   46.7710 O   0  0  0  0  0  0  0  0  0  0  0  0
   28.9260   29.3090   45.3830 H   0  0  0  0  0  0  0  0  0  0  0  0
   29.8830   28.9940   45.0500 N   0  0  0  0  0  0  0  0  0  0  0  0
   29.5990   28.0690   43.9630 C   0  0  0  0  0  2  0  0  0  0  0  0
   29.9330   26.6840   44.5320 C   0  0  0  0  0  2  0  0  0  0  0  0
   31.1430   27.0890   45.3870 C   0  0  0  0  0  2  0  0  0  0  0  0
   30.5410   28.2780   46.0970 C   0  0  1  0  0  3  0  0  0  0  0  0
  1  5  1  0  0  0  0
  1  6  1  1  0  0  0
  1  2  1  0  0  0  0
  2  7  1  6  0  0  0
  2 12  1  0  0  0  0
  2  3  1  0  0  0  0
  4  8  1  0  0  0  0
  4  9  1  0  0  0  0
  4  3  1  0  0  0  0
  5 10  1  6  0  0  0
  5  4  1  0  0  0  0
 11 14  1  6  0  0  0
 11 13  1  0  0  0  0
 12 15  1  6  0  0  0
 12 11  1  0  0  0  0
 12 13  1  0  0  0  0
 13 16  1  0  0  0  0
 13 17  1  0  0  0  0
 18 11  1  0  0  0  0
 18 19  1  0  0  0  0
 19 24  1  0  0  0  0
 20 19  2  0  0  0  0
 20 25  1  0  0  0  0
 21 20  1  0  0  0  0
 22 23  1  0  0  0  0
 22 21  2  0  0  0  0
 23 18  2  0  0  0  0
 26 22  1  0  0  0  0
 27  1  1  0  0  0  0
 28 27  1  0  0  0  0
 29  5  1  0  0  0  0
 31 30  1  0  0  0  0
 31 35  1  0  0  0  0
 32 33  1  0  0  0  0
 32 31  1  0  0  0  0
 33 34  1  0  0  0  0
 34 35  1  0  0  0  0
 35 29  1  6  0  0  0
M  END
>  <minimizedAffinity>
-4.72116709

>  <minimizedRMSD>
0.446137458

$$$$
