
 OpenBabel03272507373D

 20 21  0  0  1  0  0  0  0  0999 V2000
   37.8930   30.6120   46.1950 C   0  0  0  0  0  0  0  0  0  0  0  0
   39.0180   30.4800   45.4030 C   0  0  0  0  0  0  0  0  0  0  0  0
   38.8660   30.1820   44.0520 C   0  0  0  0  0  0  0  0  0  0  0  0
   37.5800   30.0360   43.5950 N   0  0  0  0  0  0  0  0  0  0  0  0
   36.5040   30.1680   44.3880 C   0  0  0  0  0  0  0  0  0  0  0  0
   36.6540   30.4560   45.6870 N   0  0  0  0  0  0  0  0  0  0  0  0
   39.6990   30.0640   43.3720 H   0  0  0  0  0  0  0  0  0  0  0  0
   35.5080   30.0400   43.9670 H   0  0  0  0  0  0  0  0  0  0  0  0
   41.0470   31.8080   45.5550 C   0  0  0  0  0  0  0  0  0  0  0  0
   40.7880   32.9220   44.9560 O   0  0  0  0  0  0  0  0  0  0  0  0
   40.3400   30.6190   45.8180 N   0  0  0  0  0  0  0  0  0  0  0  0
   42.0180   32.2610   45.7230 H   0  0  0  0  0  0  0  0  0  0  0  0
   41.0120   30.0040   46.3280 H   0  0  0  0  0  0  0  0  0  0  0  0
   38.2260   30.9090   47.5090 O   0  0  0  0  0  0  0  0  0  0  0  0
   39.1460   29.4720   49.8060 H   0  0  0  0  0  0  0  0  0  0  0  0
   38.5450   30.3210   49.7460 N   0  0  0  0  0  0  0  0  0  0  0  0
   37.7530   30.5340   50.9330 C   0  0  0  0  0  0  0  0  0  0  0  0
   36.5270   31.3040   50.5090 C   0  0  0  0  0  0  0  0  0  0  0  0
   36.3490   30.9410   49.0510 C   0  0  0  0  0  0  0  0  0  0  0  0
   37.6470   30.3080   48.6240 C   0  0  1  0  0  0  0  0  0  0  0  0
  1 14  1  0  0  0  0
  2 11  1  0  0  0  0
  2  1  2  0  0  0  0
  3  2  1  0  0  0  0
  4  3  2  0  0  0  0
  4  5  1  0  0  0  0
  5  6  2  0  0  0  0
  6  1  1  0  0  0  0
  7  3  1  0  0  0  0
  8  5  1  0  0  0  0
  9 12  1  0  0  0  0
  9 11  1  0  0  0  0
 10  9  2  0  0  0  0
 11 13  1  0  0  0  0
 16 15  1  0  0  0  0
 16 17  1  0  0  0  0
 18 17  1  0  0  0  0
 19 18  1  0  0  0  0
 20 14  1  6  0  0  0
 20 19  1  0  0  0  0
 20 16  1  0  0  0  0
M  END
>  <minimizedAffinity>
-4.76319981

>  <minimizedRMSD>
5.08222294

$$$$
