
 OpenBabel03262522293D

 43 46  0  0  1  0  0  0  0  0999 V2000
   36.9390   24.6140   32.6760 C   0  0  0  0  0  0  0  0  0  0  0  0
   37.9540   24.5630   33.6210 C   0  0  0  0  0  0  0  0  0  0  0  0
   38.6780   25.7070   33.8220 C   0  0  0  0  0  0  0  0  0  0  0  0
   38.3640   26.8120   33.0940 N   0  0  0  0  0  0  0  0  0  0  0  0
   37.4010   26.8260   32.2100 C   0  0  0  0  0  0  0  0  0  0  0  0
   36.6340   25.7110   31.9590 N   0  0  0  0  0  0  0  0  0  0  0  0
   36.3360   23.7310   32.4800 H   0  0  0  0  0  0  0  0  0  0  0  0
   39.4870   25.7120   34.5570 H   0  0  0  0  0  0  0  0  0  0  0  0
   38.1630   23.3980   34.2800 O   0  0  0  0  0  0  0  0  0  0  0  0
   38.4240   23.4200   35.6480 C   0  0  0  0  0  0  0  0  0  0  0  0
   37.7130   24.0600   36.6310 C   0  0  0  0  0  0  0  0  0  0  0  0
   38.1290   23.9620   37.9210 C   0  0  0  0  0  0  0  0  0  0  0  0
   39.2390   23.2340   38.2080 C   0  0  0  0  0  0  0  0  0  0  0  0
   39.9540   22.5870   37.1870 C   0  0  0  0  0  0  0  0  0  0  0  0
   39.5240   22.6950   35.9080 N   0  0  0  0  0  0  0  0  0  0  0  0
   36.8400   24.6130   36.2790 H   0  0  0  0  0  0  0  0  0  0  0  0
   37.5670   24.4660   38.6880 H   0  0  0  0  0  0  0  0  0  0  0  0
   39.6270   23.1160   39.2170 H   0  0  0  0  0  0  0  0  0  0  0  0
   41.1940   21.7780   37.5390 C   0  0  0  0  0  0  0  0  0  0  0  0
   42.0320   22.4400   37.1970 H   0  0  0  0  0  0  0  0  0  0  0  0
   41.2480   20.8700   36.9410 H   0  0  0  0  0  0  0  0  0  0  0  0
   41.1840   21.6360   38.6280 H   0  0  0  0  0  0  0  0  0  0  0  0
   37.2140   28.4340   31.3950 S   0  0  0  0  0  0  0  0  0  0  0  0
   35.5730   29.0080   31.9070 C   0  0  0  0  0  0  0  0  0  0  0  0
   35.1740   28.2520   32.6240 H   0  0  0  0  0  0  0  0  0  0  0  0
   34.8560   29.0740   31.0830 H   0  0  0  0  0  0  0  0  0  0  0  0
   35.2530   29.0910   34.6350 F   0  0  0  0  0  0  0  0  0  0  0  0
   35.5810   30.2500   33.9830 C   0  0  0  0  0  0  0  0  0  0  0  0
   35.7690   30.3300   32.6000 C   0  0  0  0  0  0  0  0  0  0  0  0
   36.0970   31.4980   31.9880 C   0  0  0  0  0  0  0  0  0  0  0  0
   36.2520   32.6590   32.7480 C   0  0  0  0  0  0  0  0  0  0  0  0
   36.0700   32.5980   34.1170 C   0  0  0  0  0  0  0  0  0  0  0  0
   35.7400   31.4110   34.7210 C   0  0  0  0  0  0  0  0  0  0  0  0
   36.2210   31.4640   30.9210 H   0  0  0  0  0  0  0  0  0  0  0  0
   36.5080   33.5300   32.1970 H   0  0  0  0  0  0  0  0  0  0  0  0
   36.2190   33.5540   34.5770 H   0  0  0  0  0  0  0  0  0  0  0  0
   35.5700   31.4060   36.0870 O   0  0  0  0  0  0  0  0  0  0  0  0
   34.8390   32.5160   38.7050 H   0  0  0  0  0  0  0  0  0  0  0  0
   34.7080   32.8080   37.7090 N   0  0  0  0  0  0  0  0  0  0  0  0
   33.6090   33.7210   37.6300 C   0  0  0  0  0  2  0  0  0  0  0  0
   32.5550   33.0870   36.7480 C   0  0  0  0  0  2  0  0  0  0  0  0
   33.3990   32.2400   35.8200 C   0  0  0  0  0  2  0  0  0  0  0  0
   34.4320   31.7010   36.8140 C   0  0  1  0  0  3  0  0  0  0  0  0
  1  2  1  0  0  0  0
  2  3  2  0  0  0  0
  2  9  1  0  0  0  0
  3  8  1  0  0  0  0
  4  3  1  0  0  0  0
  5  4  2  0  0  0  0
  6  5  1  0  0  0  0
  6  1  2  0  0  0  0
  7  1  1  0  0  0  0
  9 10  1  0  0  0  0
 10 15  2  0  0  0  0
 10 11  1  0  0  0  0
 11 12  2  0  0  0  0
 12 13  1  0  0  0  0
 12 17  1  0  0  0  0
 13 18  1  0  0  0  0
 14 19  1  0  0  0  0
 14 13  2  0  0  0  0
 15 14  1  0  0  0  0
 16 11  1  0  0  0  0
 19 22  1  0  0  0  0
 20 19  1  0  0  0  0
 21 19  1  0  0  0  0
 23 24  1  0  0  0  0
 23  5  1  0  0  0  0
 24 29  1  0  0  0  0
 24 25  1  0  0  0  0
 26 24  1  0  0  0  0
 28 27  1  0  0  0  0
 28 33  1  0  0  0  0
 29 28  2  0  0  0  0
 30 29  1  0  0  0  0
 30 31  2  0  0  0  0
 31 32  1  0  0  0  0
 32 36  1  0  0  0  0
 32 33  2  0  0  0  0
 33 37  1  0  0  0  0
 34 30  1  0  0  0  0
 35 31  1  0  0  0  0
 39 38  1  0  0  0  0
 40 39  1  0  0  0  0
 41 40  1  0  0  0  0
 42 41  1  0  0  0  0
 42 43  1  0  0  0  0
 43 37  1  6  0  0  0
 43 39  1  0  0  0  0
M  END
>  <minimizedAffinity>
-6.17774725

$$$$

 OpenBabel03262522293D

 43 46  0  0  1  0  0  0  0  0999 V2000
   35.2060   28.8800   32.5220 C   0  0  0  0  0  0  0  0  0  0  0  0
   35.3210   30.2470   32.3100 C   0  0  0  0  0  0  0  0  0  0  0  0
   36.3250   30.6680   31.4800 C   0  0  0  0  0  0  0  0  0  0  0  0
   37.1390   29.7340   30.9180 N   0  0  0  0  0  0  0  0  0  0  0  0
   37.0030   28.4530   31.1390 C   0  0  0  0  0  0  0  0  0  0  0  0
   36.0160   27.9630   31.9630 N   0  0  0  0  0  0  0  0  0  0  0  0
   34.4260   28.4960   33.1730 H   0  0  0  0  0  0  0  0  0  0  0  0
   36.4520   31.7360   31.2840 H   0  0  0  0  0  0  0  0  0  0  0  0
   34.4430   31.0710   32.9310 O   0  0  0  0  0  0  0  0  0  0  0  0
   34.6760   31.4530   34.2500 C   0  0  0  0  0  0  0  0  0  0  0  0
   35.7770   32.0880   34.7620 C   0  0  0  0  0  0  0  0  0  0  0  0
   35.8180   32.3800   36.0900 C   0  0  0  0  0  0  0  0  0  0  0  0
   34.7680   32.0340   36.8780 C   0  0  0  0  0  0  0  0  0  0  0  0
   33.6490   31.3830   36.3350 C   0  0  0  0  0  0  0  0  0  0  0  0
   33.6260   31.1010   35.0110 N   0  0  0  0  0  0  0  0  0  0  0  0
   36.5560   32.3150   34.0310 H   0  0  0  0  0  0  0  0  0  0  0  0
   36.6850   32.8790   36.4850 H   0  0  0  0  0  0  0  0  0  0  0  0
   34.7370   32.2360   37.9460 H   0  0  0  0  0  0  0  0  0  0  0  0
   32.4870   31.0080   37.2440 C   0  0  0  0  0  0  0  0  0  0  0  0
   32.6090   29.9000   37.3640 H   0  0  0  0  0  0  0  0  0  0  0  0
   31.5340   31.1660   36.7400 H   0  0  0  0  0  0  0  0  0  0  0  0
   32.6300   31.5550   38.1850 H   0  0  0  0  0  0  0  0  0  0  0  0
   38.2300   27.4510   30.2570 S   0  0  0  0  0  0  0  0  0  0  0  0
   38.3270   25.9160   31.2170 C   0  0  0  0  0  0  0  0  0  0  0  0
   38.9390   25.1990   30.6200 H   0  0  0  0  0  0  0  0  0  0  0  0
   37.3540   25.4430   31.3830 H   0  0  0  0  0  0  0  0  0  0  0  0
   37.1000   25.2030   33.5700 F   0  0  0  0  0  0  0  0  0  0  0  0
   38.3100   25.8410   33.6340 C   0  0  0  0  0  0  0  0  0  0  0  0
   39.0270   26.2510   32.5060 C   0  0  0  0  0  0  0  0  0  0  0  0
   40.2280   26.8790   32.6090 C   0  0  0  0  0  0  0  0  0  0  0  0
   40.7730   27.1310   33.8710 C   0  0  0  0  0  0  0  0  0  0  0  0
   40.0760   26.7320   34.9970 C   0  0  0  0  0  0  0  0  0  0  0  0
   38.8650   26.0980   34.8760 C   0  0  0  0  0  0  0  0  0  0  0  0
   40.7060   27.1580   31.6890 H   0  0  0  0  0  0  0  0  0  0  0  0
   41.7120   27.6250   33.8680 H   0  0  0  0  0  0  0  0  0  0  0  0
   40.6030   26.9840   35.8950 H   0  0  0  0  0  0  0  0  0  0  0  0
   38.2150   25.7230   36.0300 O   0  0  0  0  0  0  0  0  0  0  0  0
   39.1220   22.9800   35.5060 H   0  0  0  0  0  0  0  0  0  0  0  0
   39.2530   23.6730   36.2780 N   0  0  0  0  0  0  0  0  0  0  0  0
   39.6170   22.9780   37.4750 C   0  0  0  0  0  2  0  0  0  0  0  0
   38.5340   23.2430   38.5000 C   0  0  0  0  0  2  0  0  0  0  0  0
   38.0450   24.6130   38.0840 C   0  0  0  0  0  2  0  0  0  0  0  0
   38.0650   24.4560   36.5610 C   0  0  1  0  0  3  0  0  0  0  0  0
  1  7  1  0  0  0  0
  2  1  1  0  0  0  0
  2  9  1  0  0  0  0
  3  2  2  0  0  0  0
  4  5  2  0  0  0  0
  4  3  1  0  0  0  0
  5  6  1  0  0  0  0
  6  1  2  0  0  0  0
  8  3  1  0  0  0  0
  9 10  1  0  0  0  0
 10 11  2  0  0  0  0
 10 15  1  0  0  0  0
 11 12  1  0  0  0  0
 12 17  1  0  0  0  0
 12 13  2  0  0  0  0
 13 18  1  0  0  0  0
 14 13  1  0  0  0  0
 14 19  1  0  0  0  0
 15 14  2  0  0  0  0
 16 11  1  0  0  0  0
 19 20  1  0  0  0  0
 19 22  1  0  0  0  0
 21 19  1  0  0  0  0
 23  5  1  0  0  0  0
 23 24  1  0  0  0  0
 24 26  1  0  0  0  0
 24 29  1  0  0  0  0
 25 24  1  0  0  0  0
 27 28  1  0  0  0  0
 28 33  1  0  0  0  0
 29 30  1  0  0  0  0
 29 28  2  0  0  0  0
 30 31  2  0  0  0  0
 31 32  1  0  0  0  0
 32 36  1  0  0  0  0
 33 32  2  0  0  0  0
 33 37  1  0  0  0  0
 34 30  1  0  0  0  0
 35 31  1  0  0  0  0
 38 39  1  0  0  0  0
 39 43  1  0  0  0  0
 39 40  1  0  0  0  0
 40 41  1  0  0  0  0
 42 41  1  0  0  0  0
 43 37  1  6  0  0  0
 43 42  1  0  0  0  0
M  END
>  <minimizedAffinity>
-6.15272188

$$$$

 OpenBabel03262522293D

 43 46  0  0  1  0  0  0  0  0999 V2000
   36.8590   22.6330   32.6690 C   0  0  0  0  0  0  0  0  0  0  0  0
   37.8220   22.9470   33.6170 C   0  0  0  0  0  0  0  0  0  0  0  0
   38.1720   24.2650   33.7390 C   0  0  0  0  0  0  0  0  0  0  0  0
   37.5620   25.1770   32.9340 N   0  0  0  0  0  0  0  0  0  0  0  0
   36.6580   24.8470   32.0500 C   0  0  0  0  0  0  0  0  0  0  0  0
   36.2600   23.5400   31.8760 N   0  0  0  0  0  0  0  0  0  0  0  0
   36.5480   21.6000   32.5340 H   0  0  0  0  0  0  0  0  0  0  0  0
   38.9260   24.5590   34.4730 H   0  0  0  0  0  0  0  0  0  0  0  0
   38.3510   21.9430   34.3560 O   0  0  0  0  0  0  0  0  0  0  0  0
   39.0590   22.2450   35.5170 C   0  0  0  0  0  0  0  0  0  0  0  0
   40.3700   21.9630   35.8020 C   0  0  0  0  0  0  0  0  0  0  0  0
   40.8860   22.3430   37.0010 C   0  0  0  0  0  0  0  0  0  0  0  0
   40.0910   22.9920   37.8900 C   0  0  0  0  0  0  0  0  0  0  0  0
   38.7500   23.2710   37.5800 C   0  0  0  0  0  0  0  0  0  0  0  0
   38.2550   22.8860   36.3810 N   0  0  0  0  0  0  0  0  0  0  0  0
   40.9090   21.4380   35.0090 H   0  0  0  0  0  0  0  0  0  0  0  0
   41.9150   22.1180   37.2180 H   0  0  0  0  0  0  0  0  0  0  0  0
   40.4380   23.3220   38.8650 H   0  0  0  0  0  0  0  0  0  0  0  0
   37.8830   24.0010   38.5970 C   0  0  0  0  0  0  0  0  0  0  0  0
   37.2320   23.1840   39.0030 H   0  0  0  0  0  0  0  0  0  0  0  0
   37.2230   24.7130   38.1030 H   0  0  0  0  0  0  0  0  0  0  0  0
   38.5610   24.4180   39.3520 H   0  0  0  0  0  0  0  0  0  0  0  0
   36.0230   26.2690   31.1230 S   0  0  0  0  0  0  0  0  0  0  0  0
   37.2160   27.5920   31.4580 C   0  0  0  0  0  0  0  0  0  0  0  0
   37.8190   27.7280   30.5300 H   0  0  0  0  0  0  0  0  0  0  0  0
   37.9190   27.3510   32.2620 H   0  0  0  0  0  0  0  0  0  0  0  0
   36.5330   28.1010   34.0710 F   0  0  0  0  0  0  0  0  0  0  0  0
   36.1320   28.9890   33.1080 C   0  0  0  0  0  0  0  0  0  0  0  0
   36.4200   28.8350   31.7490 C   0  0  0  0  0  0  0  0  0  0  0  0
   36.0070   29.7390   30.8220 C   0  0  0  0  0  0  0  0  0  0  0  0
   35.2730   30.8580   31.2230 C   0  0  0  0  0  0  0  0  0  0  0  0
   34.9800   31.0260   32.5640 C   0  0  0  0  0  0  0  0  0  0  0  0
   35.4040   30.1040   33.4880 C   0  0  0  0  0  0  0  0  0  0  0  0
   36.2750   29.5390   29.8010 H   0  0  0  0  0  0  0  0  0  0  0  0
   34.9880   31.5170   30.4410 H   0  0  0  0  0  0  0  0  0  0  0  0
   34.4150   31.9200   32.7350 H   0  0  0  0  0  0  0  0  0  0  0  0
   35.0840   30.3200   34.8100 O   0  0  0  0  0  0  0  0  0  0  0  0
   32.2450   30.8180   35.3660 H   0  0  0  0  0  0  0  0  0  0  0  0
   33.1090   30.7040   35.9450 N   0  0  0  0  0  0  0  0  0  0  0  0
   32.8990   31.3120   37.2230 C   0  0  0  0  0  2  0  0  0  0  0  0
   33.9140   32.4270   37.3660 C   0  0  0  0  0  2  0  0  0  0  0  0
   35.0620   31.9080   36.5290 C   0  0  0  0  0  2  0  0  0  0  0  0
   34.2860   31.3090   35.3520 C   0  0  1  0  0  3  0  0  0  0  0  0
  1  2  1  0  0  0  0
  2  3  2  0  0  0  0
  2  9  1  0  0  0  0
  3  8  1  0  0  0  0
  4  3  1  0  0  0  0
  5  4  2  0  0  0  0
  6  5  1  0  0  0  0
  6  1  2  0  0  0  0
  7  1  1  0  0  0  0
  9 10  1  0  0  0  0
 10 11  2  0  0  0  0
 10 15  1  0  0  0  0
 11 12  1  0  0  0  0
 12 17  1  0  0  0  0
 12 13  2  0  0  0  0
 13 18  1  0  0  0  0
 14 13  1  0  0  0  0
 14 19  1  0  0  0  0
 15 14  2  0  0  0  0
 16 11  1  0  0  0  0
 19 20  1  0  0  0  0
 19 22  1  0  0  0  0
 21 19  1  0  0  0  0
 23 24  1  0  0  0  0
 23  5  1  0  0  0  0
 24 29  1  0  0  0  0
 24 26  1  0  0  0  0
 25 24  1  0  0  0  0
 28 33  1  0  0  0  0
 28 27  1  0  0  0  0
 29 28  2  0  0  0  0
 30 31  2  0  0  0  0
 30 29  1  0  0  0  0
 31 32  1  0  0  0  0
 32 36  1  0  0  0  0
 32 33  2  0  0  0  0
 33 37  1  0  0  0  0
 34 30  1  0  0  0  0
 35 31  1  0  0  0  0
 38 39  1  0  0  0  0
 39 40  1  0  0  0  0
 40 41  1  0  0  0  0
 42 41  1  0  0  0  0
 43 37  1  1  0  0  0
 43 39  1  0  0  0  0
 43 42  1  0  0  0  0
M  END
>  <minimizedAffinity>
-6.14304113

$$$$

 OpenBabel03262522293D

 43 46  0  0  1  0  0  0  0  0999 V2000
   35.7170   28.5230   32.7970 C   0  0  0  0  0  0  0  0  0  0  0  0
   35.5290   29.2470   33.9660 C   0  0  0  0  0  0  0  0  0  0  0  0
   36.3580   28.9610   35.0170 C   0  0  0  0  0  0  0  0  0  0  0  0
   37.3050   27.9980   34.8550 N   0  0  0  0  0  0  0  0  0  0  0  0
   37.4550   27.3340   33.7400 C   0  0  0  0  0  0  0  0  0  0  0  0
   36.6550   27.5710   32.6440 N   0  0  0  0  0  0  0  0  0  0  0  0
   35.0830   28.7130   31.9340 H   0  0  0  0  0  0  0  0  0  0  0  0
   36.2470   29.5070   35.9570 H   0  0  0  0  0  0  0  0  0  0  0  0
   34.5490   30.1810   33.9950 O   0  0  0  0  0  0  0  0  0  0  0  0
   33.6500   30.2000   35.0590 C   0  0  0  0  0  0  0  0  0  0  0  0
   33.5790   31.1040   36.0870 C   0  0  0  0  0  0  0  0  0  0  0  0
   32.6220   30.9530   37.0400 C   0  0  0  0  0  0  0  0  0  0  0  0
   31.7590   29.9080   36.9540 C   0  0  0  0  0  0  0  0  0  0  0  0
   31.8480   28.9920   35.8940 C   0  0  0  0  0  0  0  0  0  0  0  0
   32.8070   29.1590   34.9540 N   0  0  0  0  0  0  0  0  0  0  0  0
   34.3260   31.9010   36.0480 H   0  0  0  0  0  0  0  0  0  0  0  0
   32.5720   31.6660   37.8430 H   0  0  0  0  0  0  0  0  0  0  0  0
   30.9720   29.7280   37.6820 H   0  0  0  0  0  0  0  0  0  0  0  0
   30.8660   27.8310   35.8250 C   0  0  0  0  0  0  0  0  0  0  0  0
   31.4880   26.9550   36.1440 H   0  0  0  0  0  0  0  0  0  0  0  0
   30.5620   27.6410   34.7960 H   0  0  0  0  0  0  0  0  0  0  0  0
   30.0560   28.0560   36.5310 H   0  0  0  0  0  0  0  0  0  0  0  0
   38.7940   26.1150   33.8180 S   0  0  0  0  0  0  0  0  0  0  0  0
   37.9490   24.5400   34.1220 C   0  0  0  0  0  0  0  0  0  0  0  0
   38.3490   23.8090   33.3800 H   0  0  0  0  0  0  0  0  0  0  0  0
   36.8660   24.5890   33.9680 H   0  0  0  0  0  0  0  0  0  0  0  0
   39.6900   22.4350   34.4170 F   0  0  0  0  0  0  0  0  0  0  0  0
   39.1990   23.0360   35.5450 C   0  0  0  0  0  0  0  0  0  0  0  0
   38.3090   24.1140   35.5190 C   0  0  0  0  0  0  0  0  0  0  0  0
   37.8440   24.6880   36.6600 C   0  0  0  0  0  0  0  0  0  0  0  0
   38.2590   24.1980   37.9010 C   0  0  0  0  0  0  0  0  0  0  0  0
   39.1390   23.1320   37.9450 C   0  0  0  0  0  0  0  0  0  0  0  0
   39.5990   22.5640   36.7840 C   0  0  0  0  0  0  0  0  0  0  0  0
   37.1640   25.5110   36.5440 H   0  0  0  0  0  0  0  0  0  0  0  0
   37.8520   24.6990   38.7450 H   0  0  0  0  0  0  0  0  0  0  0  0
   39.3740   22.8570   38.9530 H   0  0  0  0  0  0  0  0  0  0  0  0
   40.4740   21.5060   36.8850 O   0  0  0  0  0  0  0  0  0  0  0  0
   42.4130   20.5030   38.8490 H   0  0  0  0  0  0  0  0  0  0  0  0
   42.2280   20.3370   37.8330 N   0  0  0  0  0  0  0  0  0  0  0  0
   43.4140   19.8240   37.2190 C   0  0  0  0  0  2  0  0  0  0  0  0
   43.8430   20.8170   36.1600 C   0  0  0  0  0  2  0  0  0  0  0  0
   42.5170   21.4180   35.7460 C   0  0  0  0  0  2  0  0  0  0  0  0
   41.8360   21.5340   37.1130 C   0  0  1  0  0  3  0  0  0  0  0  0
  1  2  1  0  0  0  0
  2  9  1  0  0  0  0
  2  3  2  0  0  0  0
  3  8  1  0  0  0  0
  4  3  1  0  0  0  0
  5 23  1  0  0  0  0
  5  4  2  0  0  0  0
  6  1  2  0  0  0  0
  6  5  1  0  0  0  0
  7  1  1  0  0  0  0
  9 10  1  0  0  0  0
 10 11  1  0  0  0  0
 11 12  2  0  0  0  0
 12 17  1  0  0  0  0
 13 12  1  0  0  0  0
 13 18  1  0  0  0  0
 14 13  2  0  0  0  0
 15 10  2  0  0  0  0
 15 14  1  0  0  0  0
 16 11  1  0  0  0  0
 19 14  1  0  0  0  0
 19 20  1  0  0  0  0
 19 22  1  0  0  0  0
 21 19  1  0  0  0  0
 23 24  1  0  0  0  0
 24 29  1  0  0  0  0
 25 24  1  0  0  0  0
 26 24  1  0  0  0  0
 27 28  1  0  0  0  0
 28 33  1  0  0  0  0
 29 28  2  0  0  0  0
 29 30  1  0  0  0  0
 30 31  2  0  0  0  0
 31 32  1  0  0  0  0
 31 35  1  0  0  0  0
 32 36  1  0  0  0  0
 33 37  1  0  0  0  0
 33 32  2  0  0  0  0
 34 30  1  0  0  0  0
 39 38  1  0  0  0  0
 40 39  1  0  0  0  0
 41 40  1  0  0  0  0
 42 41  1  0  0  0  0
 42 43  1  0  0  0  0
 43 37  1  6  0  0  0
 43 39  1  0  0  0  0
M  END
>  <minimizedAffinity>
-5.90338516

$$$$

 OpenBabel03262522293D

 43 46  0  0  1  0  0  0  0  0999 V2000
   35.4990   25.0420   31.5210 C   0  0  0  0  0  0  0  0  0  0  0  0
   36.7350   25.5780   31.1850 C   0  0  0  0  0  0  0  0  0  0  0  0
   37.7280   24.6970   30.8540 C   0  0  0  0  0  0  0  0  0  0  0  0
   37.4510   23.3650   30.8740 N   0  0  0  0  0  0  0  0  0  0  0  0
   36.2750   22.8930   31.1960 C   0  0  0  0  0  0  0  0  0  0  0  0
   35.2320   23.7230   31.5390 N   0  0  0  0  0  0  0  0  0  0  0  0
   34.6780   25.7000   31.7920 H   0  0  0  0  0  0  0  0  0  0  0  0
   38.7170   25.0740   30.5810 H   0  0  0  0  0  0  0  0  0  0  0  0
   36.8790   26.9240   31.2030 O   0  0  0  0  0  0  0  0  0  0  0  0
   36.6240   27.6250   32.3800 C   0  0  0  0  0  0  0  0  0  0  0  0
   35.7120   28.6280   32.5820 C   0  0  0  0  0  0  0  0  0  0  0  0
   35.6100   29.1940   33.8140 C   0  0  0  0  0  0  0  0  0  0  0  0
   36.4150   28.7540   34.8150 C   0  0  0  0  0  0  0  0  0  0  0  0
   37.3440   27.7270   34.5880 C   0  0  0  0  0  0  0  0  0  0  0  0
   37.4310   27.1750   33.3550 N   0  0  0  0  0  0  0  0  0  0  0  0
   35.1210   28.8940   31.7030 H   0  0  0  0  0  0  0  0  0  0  0  0
   34.8910   29.9800   33.9660 H   0  0  0  0  0  0  0  0  0  0  0  0
   36.3860   29.1640   35.8220 H   0  0  0  0  0  0  0  0  0  0  0  0
   38.2330   27.2560   35.7300 C   0  0  0  0  0  0  0  0  0  0  0  0
   39.2280   27.7060   35.4770 H   0  0  0  0  0  0  0  0  0  0  0  0
   38.3620   26.1740   35.7000 H   0  0  0  0  0  0  0  0  0  0  0  0
   37.8060   27.6640   36.6550 H   0  0  0  0  0  0  0  0  0  0  0  0
   36.2000   21.0830   31.1360 S   0  0  0  0  0  0  0  0  0  0  0  0
   37.5140   20.5420   32.2610 C   0  0  0  0  0  0  0  0  0  0  0  0
   38.4450   21.0740   31.9530 H   0  0  0  0  0  0  0  0  0  0  0  0
   37.7260   19.4700   32.2010 H   0  0  0  0  0  0  0  0  0  0  0  0
   39.0740   22.4000   33.5510 F   0  0  0  0  0  0  0  0  0  0  0  0
   37.9720   21.9120   34.2010 C   0  0  0  0  0  0  0  0  0  0  0  0
   37.1050   20.9650   33.6460 C   0  0  0  0  0  0  0  0  0  0  0  0
   36.0180   20.5060   34.3200 C   0  0  0  0  0  0  0  0  0  0  0  0
   35.7470   20.9830   35.6050 C   0  0  0  0  0  0  0  0  0  0  0  0
   36.5930   21.9190   36.1690 C   0  0  0  0  0  0  0  0  0  0  0  0
   37.6860   22.3730   35.4750 C   0  0  0  0  0  0  0  0  0  0  0  0
   35.4090   19.7790   33.8150 H   0  0  0  0  0  0  0  0  0  0  0  0
   34.8810   20.5760   36.0660 H   0  0  0  0  0  0  0  0  0  0  0  0
   36.2720   22.1990   37.1520 H   0  0  0  0  0  0  0  0  0  0  0  0
   38.4960   23.3060   36.0840 O   0  0  0  0  0  0  0  0  0  0  0  0
   39.6360   21.2710   37.8670 H   0  0  0  0  0  0  0  0  0  0  0  0
   39.8910   21.6710   36.9350 N   0  0  0  0  0  0  0  0  0  0  0  0
   41.2840   21.4520   36.6960 C   0  0  0  0  0  2  0  0  0  0  0  0
   41.9420   22.8090   36.5660 C   0  0  0  0  0  2  0  0  0  0  0  0
   40.8110   23.6470   36.0100 C   0  0  0  0  0  2  0  0  0  0  0  0
   39.6400   23.0960   36.8300 C   0  0  1  0  0  3  0  0  0  0  0  0
  1  6  1  0  0  0  0
  1  7  1  0  0  0  0
  2  9  1  0  0  0  0
  2  1  2  0  0  0  0
  3  4  2  0  0  0  0
  3  2  1  0  0  0  0
  4  5  1  0  0  0  0
  5  6  2  0  0  0  0
  8  3  1  0  0  0  0
  9 10  1  0  0  0  0
 10 11  2  0  0  0  0
 10 15  1  0  0  0  0
 11 12  1  0  0  0  0
 12 17  1  0  0  0  0
 12 13  2  0  0  0  0
 13 18  1  0  0  0  0
 14 13  1  0  0  0  0
 14 19  1  0  0  0  0
 15 14  2  0  0  0  0
 16 11  1  0  0  0  0
 19 22  1  0  0  0  0
 20 19  1  0  0  0  0
 21 19  1  0  0  0  0
 23  5  1  0  0  0  0
 23 24  1  0  0  0  0
 24 29  1  0  0  0  0
 25 24  1  0  0  0  0
 26 24  1  0  0  0  0
 27 28  1  0  0  0  0
 28 33  1  0  0  0  0
 29 28  2  0  0  0  0
 29 30  1  0  0  0  0
 30 31  2  0  0  0  0
 31 35  1  0  0  0  0
 31 32  1  0  0  0  0
 32 36  1  0  0  0  0
 33 37  1  0  0  0  0
 33 32  2  0  0  0  0
 34 30  1  0  0  0  0
 39 38  1  0  0  0  0
 40 39  1  0  0  0  0
 41 40  1  0  0  0  0
 42 41  1  0  0  0  0
 42 43  1  0  0  0  0
 43 37  1  6  0  0  0
 43 39  1  0  0  0  0
M  END
>  <minimizedAffinity>
-5.83404016

$$$$

 OpenBabel03262522293D

 43 46  0  0  1  0  0  0  0  0999 V2000
   35.8280   28.7340   32.9910 C   0  0  0  0  0  0  0  0  0  0  0  0
   35.4600   29.9240   32.3790 C   0  0  0  0  0  0  0  0  0  0  0  0
   36.0880   30.2440   31.2060 C   0  0  0  0  0  0  0  0  0  0  0  0
   37.0240   29.3870   30.7150 N   0  0  0  0  0  0  0  0  0  0  0  0
   37.3480   28.2730   31.3170 C   0  0  0  0  0  0  0  0  0  0  0  0
   36.7540   27.8920   32.5000 N   0  0  0  0  0  0  0  0  0  0  0  0
   35.3570   28.4370   33.9250 H   0  0  0  0  0  0  0  0  0  0  0  0
   35.8300   31.1710   30.6890 H   0  0  0  0  0  0  0  0  0  0  0  0
   34.5120   30.6880   32.9730 O   0  0  0  0  0  0  0  0  0  0  0  0
   34.7350   31.1850   34.2550 C   0  0  0  0  0  0  0  0  0  0  0  0
   35.8450   31.8370   34.7250 C   0  0  0  0  0  0  0  0  0  0  0  0
   35.8750   32.2500   36.0200 C   0  0  0  0  0  0  0  0  0  0  0  0
   34.8040   32.0060   36.8190 C   0  0  0  0  0  0  0  0  0  0  0  0
   33.6760   31.3360   36.3200 C   0  0  0  0  0  0  0  0  0  0  0  0
   33.6650   30.9330   35.0280 N   0  0  0  0  0  0  0  0  0  0  0  0
   36.6410   31.9750   33.9890 H   0  0  0  0  0  0  0  0  0  0  0  0
   36.7490   32.7610   36.3820 H   0  0  0  0  0  0  0  0  0  0  0  0
   34.7630   32.3070   37.8630 H   0  0  0  0  0  0  0  0  0  0  0  0
   32.4910   31.0770   37.2400 C   0  0  0  0  0  0  0  0  0  0  0  0
   32.5820   29.9830   37.4640 H   0  0  0  0  0  0  0  0  0  0  0  0
   31.5510   31.2110   36.7070 H   0  0  0  0  0  0  0  0  0  0  0  0
   32.6350   31.7060   38.1280 H   0  0  0  0  0  0  0  0  0  0  0  0
   38.6230   27.3370   30.4330 S   0  0  0  0  0  0  0  0  0  0  0  0
   39.6740   26.6600   31.7450 C   0  0  0  0  0  0  0  0  0  0  0  0
   39.6410   27.3850   32.5930 H   0  0  0  0  0  0  0  0  0  0  0  0
   40.7240   26.5580   31.4540 H   0  0  0  0  0  0  0  0  0  0  0  0
   40.2220   25.7270   34.2710 F   0  0  0  0  0  0  0  0  0  0  0  0
   39.4150   24.9740   33.4600 C   0  0  0  0  0  0  0  0  0  0  0  0
   39.0660   25.3470   32.1580 C   0  0  0  0  0  0  0  0  0  0  0  0
   38.2600   24.5750   31.3830 C   0  0  0  0  0  0  0  0  0  0  0  0
   37.7560   23.3730   31.8880 C   0  0  0  0  0  0  0  0  0  0  0  0
   38.0910   22.9900   33.1730 C   0  0  0  0  0  0  0  0  0  0  0  0
   38.9070   23.7800   33.9430 C   0  0  0  0  0  0  0  0  0  0  0  0
   38.0460   24.9410   30.3960 H   0  0  0  0  0  0  0  0  0  0  0  0
   37.1340   22.8280   31.2220 H   0  0  0  0  0  0  0  0  0  0  0  0
   37.6410   22.0540   33.4340 H   0  0  0  0  0  0  0  0  0  0  0  0
   39.2080   23.3510   35.2160 O   0  0  0  0  0  0  0  0  0  0  0  0
   38.7440   21.5810   37.5130 H   0  0  0  0  0  0  0  0  0  0  0  0
   39.0620   22.5690   37.3860 N   0  0  0  0  0  0  0  0  0  0  0  0
   38.8340   23.2930   38.5990 C   0  0  0  0  0  2  0  0  0  0  0  0
   37.8600   24.4090   38.2850 C   0  0  0  0  0  2  0  0  0  0  0  0
   38.1770   24.6940   36.8320 C   0  0  0  0  0  2  0  0  0  0  0  0
   38.3750   23.2660   36.3150 C   0  0  1  0  0  3  0  0  0  0  0  0
  1  7  1  0  0  0  0
  2  9  1  0  0  0  0
  2  1  2  0  0  0  0
  3  2  1  0  0  0  0
  4  3  2  0  0  0  0
  4  5  1  0  0  0  0
  5  6  2  0  0  0  0
  6  1  1  0  0  0  0
  8  3  1  0  0  0  0
  9 10  1  0  0  0  0
 10 11  2  0  0  0  0
 10 15  1  0  0  0  0
 11 12  1  0  0  0  0
 12 17  1  0  0  0  0
 12 13  2  0  0  0  0
 13 18  1  0  0  0  0
 14 13  1  0  0  0  0
 14 19  1  0  0  0  0
 15 14  2  0  0  0  0
 16 11  1  0  0  0  0
 19 20  1  0  0  0  0
 19 22  1  0  0  0  0
 21 19  1  0  0  0  0
 23  5  1  0  0  0  0
 23 24  1  0  0  0  0
 24 29  1  0  0  0  0
 24 25  1  0  0  0  0
 26 24  1  0  0  0  0
 28 33  1  0  0  0  0
 28 27  1  0  0  0  0
 29 28  2  0  0  0  0
 30 31  2  0  0  0  0
 30 29  1  0  0  0  0
 31 32  1  0  0  0  0
 32 36  1  0  0  0  0
 32 33  2  0  0  0  0
 33 37  1  0  0  0  0
 34 30  1  0  0  0  0
 35 31  1  0  0  0  0
 39 38  1  0  0  0  0
 39 40  1  0  0  0  0
 41 40  1  0  0  0  0
 42 41  1  0  0  0  0
 43 37  1  6  0  0  0
 43 42  1  0  0  0  0
 43 39  1  0  0  0  0
M  END
>  <minimizedAffinity>
-5.79021597

$$$$

 OpenBabel03262522293D

 43 46  0  0  1  0  0  0  0  0999 V2000
   39.1600   25.0060   33.6820 C   0  0  0  0  0  0  0  0  0  0  0  0
   38.0250   24.2130   33.5820 C   0  0  0  0  0  0  0  0  0  0  0  0
   37.0800   24.5890   32.6660 C   0  0  0  0  0  0  0  0  0  0  0  0
   37.3040   25.7020   31.9180 N   0  0  0  0  0  0  0  0  0  0  0  0
   38.3850   26.4280   32.0390 C   0  0  0  0  0  0  0  0  0  0  0  0
   39.3750   26.1070   32.9390 N   0  0  0  0  0  0  0  0  0  0  0  0
   39.9390   24.7500   34.3950 H   0  0  0  0  0  0  0  0  0  0  0  0
   36.1700   23.9930   32.5530 H   0  0  0  0  0  0  0  0  0  0  0  0
   37.9250   23.1280   34.3870 O   0  0  0  0  0  0  0  0  0  0  0  0
   38.2960   23.2300   35.7250 C   0  0  0  0  0  0  0  0  0  0  0  0
   37.6630   23.9210   36.7250 C   0  0  0  0  0  0  0  0  0  0  0  0
   38.1850   23.8980   37.9810 C   0  0  0  0  0  0  0  0  0  0  0  0
   39.3210   23.1940   38.2150 C   0  0  0  0  0  0  0  0  0  0  0  0
   39.9560   22.4930   37.1770 C   0  0  0  0  0  0  0  0  0  0  0  0
   39.4210   22.5260   35.9340 N   0  0  0  0  0  0  0  0  0  0  0  0
   36.7580   24.4490   36.4160 H   0  0  0  0  0  0  0  0  0  0  0  0
   37.6830   24.4430   38.7610 H   0  0  0  0  0  0  0  0  0  0  0  0
   39.7920   23.1350   39.1940 H   0  0  0  0  0  0  0  0  0  0  0  0
   41.2290   21.7120   37.4710 C   0  0  0  0  0  0  0  0  0  0  0  0
   42.0290   22.3570   37.0230 H   0  0  0  0  0  0  0  0  0  0  0  0
   41.2420   20.7710   36.9220 H   0  0  0  0  0  0  0  0  0  0  0  0
   41.3090   21.6320   38.5630 H   0  0  0  0  0  0  0  0  0  0  0  0
   38.4090   27.8500   30.9140 S   0  0  0  0  0  0  0  0  0  0  0  0
   36.6590   28.2270   30.6310 C   0  0  0  0  0  0  0  0  0  0  0  0
   36.0680   27.4400   31.1560 H   0  0  0  0  0  0  0  0  0  0  0  0
   36.3700   28.1910   29.5760 H   0  0  0  0  0  0  0  0  0  0  0  0
   35.5800   28.2970   33.1570 F   0  0  0  0  0  0  0  0  0  0  0  0
   35.8490   29.4850   32.5310 C   0  0  0  0  0  0  0  0  0  0  0  0
   36.3970   29.5750   31.2480 C   0  0  0  0  0  0  0  0  0  0  0  0
   36.6530   30.7720   30.6600 C   0  0  0  0  0  0  0  0  0  0  0  0
   36.3650   31.9570   31.3430 C   0  0  0  0  0  0  0  0  0  0  0  0
   35.8230   31.8870   32.6130 C   0  0  0  0  0  0  0  0  0  0  0  0
   35.5700   30.6690   33.1940 C   0  0  0  0  0  0  0  0  0  0  0  0
   37.0750   30.7440   29.6720 H   0  0  0  0  0  0  0  0  0  0  0  0
   36.5930   32.8500   30.8170 H   0  0  0  0  0  0  0  0  0  0  0  0
   35.6510   32.8610   33.0220 H   0  0  0  0  0  0  0  0  0  0  0  0
   35.0300   30.6570   34.4600 O   0  0  0  0  0  0  0  0  0  0  0  0
   32.3880   29.4460   34.0390 H   0  0  0  0  0  0  0  0  0  0  0  0
   33.0190   29.5910   34.8610 N   0  0  0  0  0  0  0  0  0  0  0  0
   32.2430   29.5390   36.0620 C   0  0  0  0  0  2  0  0  0  0  0  0
   32.3660   30.8860   36.7410 C   0  0  0  0  0  2  0  0  0  0  0  0
   33.7420   31.3300   36.2950 C   0  0  0  0  0  2  0  0  0  0  0  0
   33.7160   30.8620   34.8370 C   0  0  1  0  0  3  0  0  0  0  0  0
  1  7  1  0  0  0  0
  2  1  1  0  0  0  0
  2  9  1  0  0  0  0
  3  2  2  0  0  0  0
  4  5  2  0  0  0  0
  4  3  1  0  0  0  0
  5  6  1  0  0  0  0
  6  1  2  0  0  0  0
  8  3  1  0  0  0  0
  9 10  1  0  0  0  0
 10 15  2  0  0  0  0
 10 11  1  0  0  0  0
 11 12  2  0  0  0  0
 12 13  1  0  0  0  0
 12 17  1  0  0  0  0
 13 18  1  0  0  0  0
 14 19  1  0  0  0  0
 14 13  2  0  0  0  0
 15 14  1  0  0  0  0
 16 11  1  0  0  0  0
 19 22  1  0  0  0  0
 20 19  1  0  0  0  0
 21 19  1  0  0  0  0
 23  5  1  0  0  0  0
 24 23  1  0  0  0  0
 24 25  1  0  0  0  0
 24 29  1  0  0  0  0
 26 24  1  0  0  0  0
 28 27  1  0  0  0  0
 28 33  1  0  0  0  0
 29 28  2  0  0  0  0
 30 29  1  0  0  0  0
 30 31  2  0  0  0  0
 31 32  1  0  0  0  0
 32 36  1  0  0  0  0
 32 33  2  0  0  0  0
 33 37  1  0  0  0  0
 34 30  1  0  0  0  0
 35 31  1  0  0  0  0
 38 39  1  0  0  0  0
 39 40  1  0  0  0  0
 40 41  1  0  0  0  0
 42 41  1  0  0  0  0
 43 37  1  1  0  0  0
 43 39  1  0  0  0  0
 43 42  1  0  0  0  0
M  END
>  <minimizedAffinity>
-5.75061369

$$$$

 OpenBabel03262522293D

 43 46  0  0  1  0  0  0  0  0999 V2000
   36.2730   28.3950   33.7960 C   0  0  0  0  0  0  0  0  0  0  0  0
   35.7200   29.4680   33.1090 C   0  0  0  0  0  0  0  0  0  0  0  0
   36.1750   29.6980   31.8390 C   0  0  0  0  0  0  0  0  0  0  0  0
   37.1300   28.8730   31.3310 N   0  0  0  0  0  0  0  0  0  0  0  0
   37.6310   27.8720   32.0050 C   0  0  0  0  0  0  0  0  0  0  0  0
   37.2180   27.5840   33.2870 N   0  0  0  0  0  0  0  0  0  0  0  0
   35.9450   28.1720   34.8080 H   0  0  0  0  0  0  0  0  0  0  0  0
   35.7670   30.5310   31.2610 H   0  0  0  0  0  0  0  0  0  0  0  0
   34.7740   30.2110   33.7310 O   0  0  0  0  0  0  0  0  0  0  0  0
   33.5000   29.6790   33.9230 C   0  0  0  0  0  0  0  0  0  0  0  0
   32.6320   29.2080   32.9740 C   0  0  0  0  0  0  0  0  0  0  0  0
   31.4230   28.7230   33.3620 C   0  0  0  0  0  0  0  0  0  0  0  0
   31.1020   28.7180   34.6810 C   0  0  0  0  0  0  0  0  0  0  0  0
   32.0050   29.2070   35.6390 C   0  0  0  0  0  0  0  0  0  0  0  0
   33.2040   29.6850   35.2340 N   0  0  0  0  0  0  0  0  0  0  0  0
   33.0010   29.2620   31.9470 H   0  0  0  0  0  0  0  0  0  0  0  0
   30.7460   28.3540   32.6120 H   0  0  0  0  0  0  0  0  0  0  0  0
   30.1530   28.3470   35.0600 H   0  0  0  0  0  0  0  0  0  0  0  0
   31.6160   29.1890   37.1110 C   0  0  0  0  0  0  0  0  0  0  0  0
   31.3850   30.2650   37.3230 H   0  0  0  0  0  0  0  0  0  0  0  0
   32.4700   28.9230   37.7340 H   0  0  0  0  0  0  0  0  0  0  0  0
   30.7360   28.5390   37.2000 H   0  0  0  0  0  0  0  0  0  0  0  0
   38.8840   26.9500   31.0750 S   0  0  0  0  0  0  0  0  0  0  0  0
   39.9130   26.1780   32.3520 C   0  0  0  0  0  0  0  0  0  0  0  0
   39.9320   26.8780   33.2200 H   0  0  0  0  0  0  0  0  0  0  0  0
   40.9520   26.0260   32.0420 H   0  0  0  0  0  0  0  0  0  0  0  0
   40.5030   25.1000   34.8100 F   0  0  0  0  0  0  0  0  0  0  0  0
   39.6150   24.4380   34.0050 C   0  0  0  0  0  0  0  0  0  0  0  0
   39.2380   24.8890   32.7360 C   0  0  0  0  0  0  0  0  0  0  0  0
   38.3510   24.2060   31.9660 C   0  0  0  0  0  0  0  0  0  0  0  0
   37.7910   23.0170   32.4420 C   0  0  0  0  0  0  0  0  0  0  0  0
   38.1530   22.5560   33.6940 C   0  0  0  0  0  0  0  0  0  0  0  0
   39.0500   23.2580   34.4600 C   0  0  0  0  0  0  0  0  0  0  0  0
   38.1210   24.6280   31.0060 H   0  0  0  0  0  0  0  0  0  0  0  0
   37.1080   22.5430   31.7820 H   0  0  0  0  0  0  0  0  0  0  0  0
   37.6540   21.6400   33.9360 H   0  0  0  0  0  0  0  0  0  0  0  0
   39.3740   22.7550   35.6990 O   0  0  0  0  0  0  0  0  0  0  0  0
   39.4990   21.7000   38.4370 H   0  0  0  0  0  0  0  0  0  0  0  0
   39.5100   22.6520   38.0040 N   0  0  0  0  0  0  0  0  0  0  0  0
   39.1050   23.6150   38.9810 C   0  0  0  0  0  2  0  0  0  0  0  0
   37.8400   24.2730   38.4730 C   0  0  0  0  0  2  0  0  0  0  0  0
   38.0280   24.1840   36.9740 C   0  0  0  0  0  2  0  0  0  0  0  0
   38.6260   22.7780   36.8610 C   0  0  1  0  0  3  0  0  0  0  0  0
  1  7  1  0  0  0  0
  2  9  1  0  0  0  0
  2  1  2  0  0  0  0
  3  2  1  0  0  0  0
  4  3  2  0  0  0  0
  4  5  1  0  0  0  0
  5  6  2  0  0  0  0
  6  1  1  0  0  0  0
  8  3  1  0  0  0  0
  9 10  1  0  0  0  0
 10 15  1  0  0  0  0
 11 12  1  0  0  0  0
 11 10  2  0  0  0  0
 12 13  2  0  0  0  0
 13 18  1  0  0  0  0
 13 14  1  0  0  0  0
 14 19  1  0  0  0  0
 15 14  2  0  0  0  0
 16 11  1  0  0  0  0
 17 12  1  0  0  0  0
 19 22  1  0  0  0  0
 19 20  1  0  0  0  0
 19 21  1  0  0  0  0
 23  5  1  0  0  0  0
 23 24  1  0  0  0  0
 24 29  1  0  0  0  0
 24 25  1  0  0  0  0
 26 24  1  0  0  0  0
 28 33  1  0  0  0  0
 28 27  1  0  0  0  0
 29 28  2  0  0  0  0
 30 31  2  0  0  0  0
 30 29  1  0  0  0  0
 31 32  1  0  0  0  0
 32 36  1  0  0  0  0
 32 33  2  0  0  0  0
 33 37  1  0  0  0  0
 34 30  1  0  0  0  0
 35 31  1  0  0  0  0
 39 38  1  0  0  0  0
 39 40  1  0  0  0  0
 41 40  1  0  0  0  0
 42 41  1  0  0  0  0
 43 37  1  6  0  0  0
 43 42  1  0  0  0  0
 43 39  1  0  0  0  0
M  END
>  <minimizedAffinity>
-5.5965476

$$$$

 OpenBabel03262522293D

 43 46  0  0  1  0  0  0  0  0999 V2000
   37.9710   24.9790   33.7500 C   0  0  0  0  0  0  0  0  0  0  0  0
   38.7160   23.9490   33.1940 C   0  0  0  0  0  0  0  0  0  0  0  0
   39.2340   24.1570   31.9440 C   0  0  0  0  0  0  0  0  0  0  0  0
   38.9920   25.3460   31.3290 N   0  0  0  0  0  0  0  0  0  0  0  0
   38.2850   26.2970   31.8820 C   0  0  0  0  0  0  0  0  0  0  0  0
   37.7350   26.1520   33.1350 N   0  0  0  0  0  0  0  0  0  0  0  0
   37.5380   24.8620   34.7400 H   0  0  0  0  0  0  0  0  0  0  0  0
   39.8280   23.3730   31.4670 H   0  0  0  0  0  0  0  0  0  0  0  0
   38.8840   22.8140   33.9130 O   0  0  0  0  0  0  0  0  0  0  0  0
   37.7660   22.0930   34.3270 C   0  0  0  0  0  0  0  0  0  0  0  0
   37.3490   21.8470   35.6090 C   0  0  0  0  0  0  0  0  0  0  0  0
   36.2210   21.1160   35.8120 C   0  0  0  0  0  0  0  0  0  0  0  0
   35.5340   20.6440   34.7400 C   0  0  0  0  0  0  0  0  0  0  0  0
   35.9770   20.9050   33.4340 C   0  0  0  0  0  0  0  0  0  0  0  0
   37.1020   21.6360   33.2520 N   0  0  0  0  0  0  0  0  0  0  0  0
   37.9820   22.2790   36.3880 H   0  0  0  0  0  0  0  0  0  0  0  0
   35.8990   20.9270   36.8210 H   0  0  0  0  0  0  0  0  0  0  0  0
   34.6260   20.0520   34.8310 H   0  0  0  0  0  0  0  0  0  0  0  0
   35.1860   20.3630   32.2530 C   0  0  0  0  0  0  0  0  0  0  0  0
   35.8180   19.5070   31.8980 H   0  0  0  0  0  0  0  0  0  0  0  0
   35.1560   21.0880   31.4400 H   0  0  0  0  0  0  0  0  0  0  0  0
   34.2130   20.0380   32.6430 H   0  0  0  0  0  0  0  0  0  0  0  0
   38.1290   27.7640   30.8290 S   0  0  0  0  0  0  0  0  0  0  0  0
   36.3590   28.1500   30.8570 C   0  0  0  0  0  0  0  0  0  0  0  0
   35.8700   27.3890   31.5110 H   0  0  0  0  0  0  0  0  0  0  0  0
   35.8810   28.0800   29.8750 H   0  0  0  0  0  0  0  0  0  0  0  0
   35.5630   28.3240   33.4820 F   0  0  0  0  0  0  0  0  0  0  0  0
   35.8100   29.4850   32.7990 C   0  0  0  0  0  0  0  0  0  0  0  0
   36.2200   29.5210   31.4630 C   0  0  0  0  0  0  0  0  0  0  0  0
   36.4590   30.6930   30.8170 C   0  0  0  0  0  0  0  0  0  0  0  0
   36.2950   31.9040   31.4950 C   0  0  0  0  0  0  0  0  0  0  0  0
   35.8900   31.8870   32.8170 C   0  0  0  0  0  0  0  0  0  0  0  0
   35.6530   30.6940   33.4550 C   0  0  0  0  0  0  0  0  0  0  0  0
   36.7700   30.6240   29.7920 H   0  0  0  0  0  0  0  0  0  0  0  0
   36.5010   32.7750   30.9240 H   0  0  0  0  0  0  0  0  0  0  0  0
   35.8040   32.8770   33.2160 H   0  0  0  0  0  0  0  0  0  0  0  0
   35.2530   30.7340   34.7710 O   0  0  0  0  0  0  0  0  0  0  0  0
   32.3410   30.8270   35.1400 H   0  0  0  0  0  0  0  0  0  0  0  0
   33.1690   30.7400   35.7720 N   0  0  0  0  0  0  0  0  0  0  0  0
   32.7970   31.1510   37.0910 C   0  0  0  0  0  2  0  0  0  0  0  0
   33.6510   32.3480   37.4510 C   0  0  0  0  0  2  0  0  0  0  0  0
   34.9110   32.0770   36.6580 C   0  0  0  0  0  2  0  0  0  0  0  0
   34.3010   31.5470   35.3570 C   0  0  1  0  0  3  0  0  0  0  0  0
  1  7  1  0  0  0  0
  2  1  1  0  0  0  0
  2  9  1  0  0  0  0
  3  2  2  0  0  0  0
  4  5  2  0  0  0  0
  4  3  1  0  0  0  0
  5  6  1  0  0  0  0
  6  1  2  0  0  0  0
  8  3  1  0  0  0  0
  9 10  1  0  0  0  0
 10 11  1  0  0  0  0
 11 12  2  0  0  0  0
 11 16  1  0  0  0  0
 12 17  1  0  0  0  0
 13 18  1  0  0  0  0
 13 12  1  0  0  0  0
 14 13  2  0  0  0  0
 15 14  1  0  0  0  0
 15 10  2  0  0  0  0
 19 22  1  0  0  0  0
 19 14  1  0  0  0  0
 20 19  1  0  0  0  0
 21 19  1  0  0  0  0
 23 24  1  0  0  0  0
 23  5  1  0  0  0  0
 24 29  1  0  0  0  0
 24 25  1  0  0  0  0
 26 24  1  0  0  0  0
 28 33  1  0  0  0  0
 28 27  1  0  0  0  0
 29 28  2  0  0  0  0
 30 29  1  0  0  0  0
 30 31  2  0  0  0  0
 31 32  1  0  0  0  0
 32 36  1  0  0  0  0
 32 33  2  0  0  0  0
 33 37  1  0  0  0  0
 34 30  1  0  0  0  0
 35 31  1  0  0  0  0
 38 39  1  0  0  0  0
 39 40  1  0  0  0  0
 40 41  1  0  0  0  0
 42 41  1  0  0  0  0
 43 37  1  1  0  0  0
 43 39  1  0  0  0  0
 43 42  1  0  0  0  0
M  END
>  <minimizedAffinity>
-5.56082153

$$$$
