
 OpenBabel03272508273D

 35 38  0  0  1  0  0  0  0  0999 V2000
   33.8800   28.9290   47.2580 C   0  0  2  0  0  0  0  0  0  0  0  0
   34.5890   28.1610   48.3630 C   0  0  2  0  0  0  0  0  0  0  0  0
   33.6630   28.0100   49.3570 O   0  0  0  0  0  0  0  0  0  0  0  0
   32.4010   28.0880   48.8580 C   0  0  0  0  0  0  0  0  0  0  0  0
   32.4970   28.2740   47.3550 C   0  0  1  0  0  0  0  0  0  0  0  0
   33.7320   29.9930   47.4860 H   0  0  0  0  0  0  0  0  0  0  0  0
   34.8830   27.1830   47.9160 H   0  0  0  0  0  0  0  0  0  0  0  0
   31.7750   27.1980   49.0830 H   0  0  0  0  0  0  0  0  0  0  0  0
   31.8910   28.9600   49.3400 H   0  0  0  0  0  0  0  0  0  0  0  0
   32.5500   27.2560   46.9330 H   0  0  0  0  0  0  0  0  0  0  0  0
   35.6710   30.4120   49.0480 C   0  0  1  0  0  0  0  0  0  0  0  0
   35.7530   28.9910   48.8020 C   0  0  1  0  0  0  0  0  0  0  0  0
   35.9010   29.4440   50.2190 C   0  0  0  0  0  0  0  0  0  0  0  0
   34.7630   31.0220   49.2150 H   0  0  0  0  0  0  0  0  0  0  0  0
   36.7180   28.6330   48.3420 H   0  0  0  0  0  0  0  0  0  0  0  0
   36.8840   29.4420   50.7130 H   0  0  0  0  0  0  0  0  0  0  0  0
   35.0290   29.1990   50.8520 H   0  0  0  0  0  0  0  0  0  0  0  0
   36.8630   31.3250   48.8230 C   0  0  0  0  0  0  0  0  0  0  0  0
   37.0610   32.3560   49.7400 C   0  0  0  0  0  0  0  0  0  0  0  0
   38.1520   33.1740   49.4640 C   0  0  0  0  0  0  0  0  0  0  0  0
   38.9480   32.9600   48.3730 N   0  0  0  0  0  0  0  0  0  0  0  0
   38.7100   31.9370   47.5090 C   0  0  0  0  0  0  0  0  0  0  0  0
   37.6580   31.1160   47.7420 N   0  0  0  0  0  0  0  0  0  0  0  0
   36.4240   32.4990   50.5810 H   0  0  0  0  0  0  0  0  0  0  0  0
   38.3380   33.9820   50.1470 H   0  0  0  0  0  0  0  0  0  0  0  0
   39.3700   31.8110   46.6630 H   0  0  0  0  0  0  0  0  0  0  0  0
   34.4360   28.7500   46.0080 O   0  0  0  0  0  0  0  0  0  0  0  0
   34.2890   29.5670   45.4530 H   0  0  0  0  0  0  0  0  0  0  0  0
   31.5230   29.0660   46.8110 O   0  0  0  0  0  0  0  0  0  0  0  0
   31.1310   29.7430   43.9960 H   0  0  0  0  0  0  0  0  0  0  0  0
   31.7150   28.9940   44.4700 N   0  0  0  0  0  0  0  0  0  0  0  0
   31.7740   27.9120   43.4980 C   0  0  0  0  0  2  0  0  0  0  0  0
   30.8690   26.8180   44.0780 C   0  0  0  0  0  2  0  0  0  0  0  0
   31.2050   27.0240   45.5610 C   0  0  0  0  0  2  0  0  0  0  0  0
   31.0340   28.5230   45.6350 C   0  0  1  0  0  3  0  0  0  0  0  0
  1  5  1  0  0  0  0
  1  6  1  1  0  0  0
  1  2  1  0  0  0  0
  2  7  1  6  0  0  0
  2 12  1  0  0  0  0
  2  3  1  0  0  0  0
  4  8  1  0  0  0  0
  4  9  1  0  0  0  0
  4  3  1  0  0  0  0
  5 10  1  6  0  0  0
  5  4  1  0  0  0  0
 11 14  1  6  0  0  0
 11 13  1  0  0  0  0
 12 15  1  6  0  0  0
 12 11  1  0  0  0  0
 12 13  1  0  0  0  0
 13 16  1  0  0  0  0
 13 17  1  0  0  0  0
 18 11  1  0  0  0  0
 18 19  1  0  0  0  0
 19 24  1  0  0  0  0
 20 19  2  0  0  0  0
 20 25  1  0  0  0  0
 21 20  1  0  0  0  0
 22 23  1  0  0  0  0
 22 21  2  0  0  0  0
 23 18  2  0  0  0  0
 26 22  1  0  0  0  0
 27  1  1  0  0  0  0
 28 27  1  0  0  0  0
 29  5  1  0  0  0  0
 30 31  1  0  0  0  0
 31 35  1  0  0  0  0
 32 33  1  0  0  0  0
 32 31  1  0  0  0  0
 33 34  1  0  0  0  0
 34 35  1  0  0  0  0
 35 29  1  1  0  0  0
M  END
>  <minimizedAffinity>
-4.65820646

>  <minimizedRMSD>
0.372589201

$$$$
