
 OpenBabel03272508273D

 35 38  0  0  1  0  0  0  0  0999 V2000
   33.7970   28.9000   47.2580 C   0  0  2  0  0  0  0  0  0  0  0  0
   34.5510   28.1170   48.3220 C   0  0  2  0  0  0  0  0  0  0  0  0
   33.6470   27.8960   49.3230 O   0  0  0  0  0  0  0  0  0  0  0  0
   32.3750   27.9480   48.8460 C   0  0  0  0  0  0  0  0  0  0  0  0
   32.4400   28.1940   47.3510 C   0  0  1  0  0  0  0  0  0  0  0  0
   33.6150   29.9490   47.5280 H   0  0  0  0  0  0  0  0  0  0  0  0
   34.8700   27.1670   47.8320 H   0  0  0  0  0  0  0  0  0  0  0  0
   31.7840   27.0280   49.0460 H   0  0  0  0  0  0  0  0  0  0  0  0
   31.8430   28.7820   49.3690 H   0  0  0  0  0  0  0  0  0  0  0  0
   32.5210   27.1940   46.8890 H   0  0  0  0  0  0  0  0  0  0  0  0
   35.5930   30.3990   48.9590 C   0  0  1  0  0  0  0  0  0  0  0  0
   35.6910   28.9710   48.7740 C   0  0  1  0  0  0  0  0  0  0  0  0
   35.7800   29.4800   50.1760 C   0  0  0  0  0  0  0  0  0  0  0  0
   34.6770   31.0110   49.0650 H   0  0  0  0  0  0  0  0  0  0  0  0
   36.6770   28.6000   48.3680 H   0  0  0  0  0  0  0  0  0  0  0  0
   36.7410   29.5030   50.7100 H   0  0  0  0  0  0  0  0  0  0  0  0
   34.8830   29.2560   50.7830 H   0  0  0  0  0  0  0  0  0  0  0  0
   36.7900   31.3090   48.7480 C   0  0  0  0  0  0  0  0  0  0  0  0
   37.0410   32.2740   49.7220 C   0  0  0  0  0  0  0  0  0  0  0  0
   38.1320   33.0940   49.4570 C   0  0  0  0  0  0  0  0  0  0  0  0
   38.8810   32.9440   48.3230 N   0  0  0  0  0  0  0  0  0  0  0  0
   38.5920   31.9840   47.4020 C   0  0  0  0  0  0  0  0  0  0  0  0
   37.5370   31.1640   47.6230 N   0  0  0  0  0  0  0  0  0  0  0  0
   36.4400   32.3690   50.5960 H   0  0  0  0  0  0  0  0  0  0  0  0
   38.3590   33.8520   50.1840 H   0  0  0  0  0  0  0  0  0  0  0  0
   39.2160   31.9080   46.5240 H   0  0  0  0  0  0  0  0  0  0  0  0
   34.3370   28.7880   45.9930 O   0  0  0  0  0  0  0  0  0  0  0  0
   34.1530   29.6210   45.4720 H   0  0  0  0  0  0  0  0  0  0  0  0
   31.4300   28.9710   46.8530 O   0  0  0  0  0  0  0  0  0  0  0  0
   29.1990   28.9990   48.7390 H   0  0  0  0  0  0  0  0  0  0  0  0
   29.2590   29.2470   47.7080 N   0  0  0  0  0  0  0  0  0  0  0  0
   27.9290   28.9640   47.1910 C   0  0  0  0  0  2  0  0  0  0  0  0
   28.1020   27.6950   46.3460 C   0  0  0  0  0  2  0  0  0  0  0  0
   29.4940   28.0040   45.7770 C   0  0  0  0  0  2  0  0  0  0  0  0
   30.1930   28.3820   47.0630 C   0  0  1  0  0  3  0  0  0  0  0  0
  1  5  1  0  0  0  0
  1  6  1  1  0  0  0
  1  2  1  0  0  0  0
  2  7  1  6  0  0  0
  2 12  1  0  0  0  0
  2  3  1  0  0  0  0
  4  8  1  0  0  0  0
  4  3  1  0  0  0  0
  4  9  1  0  0  0  0
  5 10  1  6  0  0  0
  5  4  1  0  0  0  0
 11 14  1  6  0  0  0
 11 13  1  0  0  0  0
 12 15  1  6  0  0  0
 12 11  1  0  0  0  0
 12 13  1  0  0  0  0
 13 16  1  0  0  0  0
 13 17  1  0  0  0  0
 18 11  1  0  0  0  0
 18 19  1  0  0  0  0
 19 24  1  0  0  0  0
 20 19  2  0  0  0  0
 20 25  1  0  0  0  0
 21 20  1  0  0  0  0
 22 23  1  0  0  0  0
 22 21  2  0  0  0  0
 23 18  2  0  0  0  0
 26 22  1  0  0  0  0
 27  1  1  0  0  0  0
 28 27  1  0  0  0  0
 29  5  1  0  0  0  0
 31 30  1  0  0  0  0
 32 31  1  0  0  0  0
 33 32  1  0  0  0  0
 34 33  1  0  0  0  0
 34 35  1  0  0  0  0
 35 29  1  6  0  0  0
 35 31  1  0  0  0  0
M  END
>  <minimizedAffinity>
-5.35292387

>  <minimizedRMSD>
1.20136964

$$$$
