
 OpenBabel03272505463D

 25 27  0  0  1  0  0  0  0  0999 V2000
   36.3580   30.1980   48.2330 C   0  0  0  0  0  0  0  0  0  0  0  0
   35.0640   29.5560   48.2410 C   0  0  0  0  0  0  0  0  0  0  0  0
   35.1840   30.8960   48.8800 C   0  0  0  0  0  0  0  0  0  0  0  0
   34.5100   29.5640   47.2590 H   0  0  0  0  0  0  0  0  0  0  0  0
   34.8650   28.6620   48.8710 H   0  0  0  0  0  0  0  0  0  0  0  0
   35.0640   30.8920   49.9830 H   0  0  0  0  0  0  0  0  0  0  0  0
   34.8490   31.8030   48.3720 H   0  0  0  0  0  0  0  0  0  0  0  0
   38.3920   32.3480   46.0170 C   0  0  0  0  0  0  0  0  0  0  0  0
   37.9110   32.0230   44.7470 C   0  0  0  0  0  0  0  0  0  0  0  0
   36.8980   31.0640   44.6230 C   0  0  0  0  0  0  0  0  0  0  0  0
   36.4470   30.5100   45.7620 N   0  0  0  0  0  0  0  0  0  0  0  0
   36.9250   30.8350   47.0000 C   0  0  0  0  0  0  0  0  0  0  0  0
   37.9070   31.7630   47.1230 N   0  0  0  0  0  0  0  0  0  0  0  0
   39.1830   33.1010   46.0680 H   0  0  0  0  0  0  0  0  0  0  0  0
   38.3170   32.5090   43.8530 H   0  0  0  0  0  0  0  0  0  0  0  0
   36.4960   30.7800   43.6710 H   0  0  0  0  0  0  0  0  0  0  0  0
   37.6090   30.7240   50.3580 C   0  0  1  0  0  0  0  0  0  0  0  0
   37.3830   29.7160   49.2610 C   0  0  1  0  0  0  0  0  0  0  0  0
   36.8620   28.5780   49.8720 O   0  0  0  0  0  0  0  0  0  0  0  0
   37.4580   28.4730   51.1120 C   0  0  0  0  0  0  0  0  0  0  0  0
   37.7150   29.8770   51.5850 C   0  0  2  0  0  0  0  0  0  0  0  0
   38.8730   31.3150   50.1430 O   0  0  0  0  0  0  0  0  0  0  0  0
   39.5080   30.6250   49.8230 H   0  0  0  0  0  0  0  0  0  0  0  0
   36.8620   30.2890   52.6040 O   0  0  0  0  0  0  0  0  0  0  0  0
   37.3020   30.8920   53.2410 H   0  0  0  0  0  0  0  0  0  0  0  0
  1  2  1  0  0  0  0
  1  3  1  0  0  0  0
  2  5  1  0  0  0  0
  2  3  1  0  0  0  0
  3  6  1  0  0  0  0
  4  2  1  0  0  0  0
  7  3  1  0  0  0  0
  8 14  1  0  0  0  0
  8 13  1  0  0  0  0
  9  8  2  0  0  0  0
 10  9  1  0  0  0  0
 10 11  2  0  0  0  0
 11 12  1  0  0  0  0
 12 13  2  0  0  0  0
 12  1  1  0  0  0  0
 15  9  1  0  0  0  0
 16 10  1  0  0  0  0
 17 22  1  6  0  0  0
 17 21  1  0  0  0  0
 18  1  1  6  0  0  0
 18 19  1  0  0  0  0
 18 17  1  0  0  0  0
 19 20  1  0  0  0  0
 20 21  1  0  0  0  0
 21 24  1  1  0  0  0
 23 22  1  0  0  0  0
 24 25  1  0  0  0  0
M  END
>  <minimizedAffinity>
-3.75820541

>  <minimizedRMSD>
2.82335377

$$$$
