
 OpenBabel03272501333D

 27 29  0  0  1  0  0  0  0  0999 V2000
   37.6100   26.2040   34.9080 C   0  0  2  0  0  0  0  0  0  0  0  0
   39.1860   26.1990   34.7970 C   0  0  0  0  0  0  0  0  0  0  0  0
   38.3830   25.0040   35.1980 C   0  0  1  0  0  0  0  0  0  0  0  0
   37.3820   27.0340   35.6320 H   0  0  0  0  0  0  0  0  0  0  0  0
   39.6070   26.1700   33.7730 H   0  0  0  0  0  0  0  0  0  0  0  0
   39.7440   26.8220   35.4770 H   0  0  0  0  0  0  0  0  0  0  0  0
   38.2810   24.2050   34.3960 H   0  0  0  0  0  0  0  0  0  0  0  0
   37.7640   23.2500   36.8240 C   0  0  2  0  0  3  0  0  0  0  0  0
   38.5410   24.4880   36.5720 C   0  0  2  0  0  3  0  0  0  0  0  0
   38.2130   25.3870   37.5730 O   0  0  0  0  0  0  0  0  0  0  0  0
   37.8730   24.6580   38.6970 C   0  0  0  0  0  2  0  0  0  0  0  0
   37.8150   23.1940   38.3550 C   0  0  2  0  0  3  0  0  0  0  0  0
   38.3710   22.1300   36.2730 O   0  0  0  0  0  0  0  0  0  0  0  0
   39.2360   21.9340   36.7050 H   0  0  0  0  0  0  0  0  0  0  0  0
   38.9700   22.5260   38.7030 O   0  0  0  0  0  0  0  0  0  0  0  0
   38.9160   21.9970   39.5300 H   0  0  0  0  0  0  0  0  0  0  0  0
   37.0370   26.4710   33.5560 C   0  0  0  0  0  0  0  0  0  0  0  0
   36.9310   25.4800   32.7520 O   0  0  0  0  0  0  0  0  0  0  0  0
   35.6100   29.9160   33.8090 C   0  0  0  0  0  0  0  0  0  0  0  0
   36.0200   28.6370   34.1540 C   0  0  0  0  0  0  0  0  0  0  0  0
   36.6390   27.8130   33.2060 C   0  0  0  0  0  0  0  0  0  0  0  0
   36.8090   28.3100   31.9810 N   0  0  0  0  0  0  0  0  0  0  0  0
   36.3980   29.5730   31.6680 C   0  0  0  0  0  0  0  0  0  0  0  0
   35.8060   30.3740   32.5560 N   0  0  0  0  0  0  0  0  0  0  0  0
   35.1290   30.5730   34.5210 H   0  0  0  0  0  0  0  0  0  0  0  0
   35.8490   28.3090   35.1560 H   0  0  0  0  0  0  0  0  0  0  0  0
   36.5940   29.8560   30.6460 H   0  0  0  0  0  0  0  0  0  0  0  0
  1  3  1  0  0  0  0
  1  4  1  1  0  0  0
  2  1  1  0  0  0  0
  2  3  1  0  0  0  0
  2  6  1  0  0  0  0
  3  7  1  6  0  0  0
  3  9  1  0  0  0  0
  5  2  1  0  0  0  0
  8 13  1  6  0  0  0
  8 12  1  0  0  0  0
  9  8  1  0  0  0  0
  9 10  1  1  0  0  0
 10 11  1  0  0  0  0
 12 11  1  0  0  0  0
 12 15  1  6  0  0  0
 13 14  1  0  0  0  0
 15 16  1  0  0  0  0
 17  1  1  0  0  0  0
 18 17  2  0  0  0  0
 19 20  1  0  0  0  0
 19 25  1  0  0  0  0
 20 26  1  0  0  0  0
 21 17  1  0  0  0  0
 21 20  2  0  0  0  0
 22 21  1  0  0  0  0
 23 22  2  0  0  0  0
 23 24  1  0  0  0  0
 24 19  2  0  0  0  0
 27 23  1  0  0  0  0
M  END
>  <minimizedAffinity>
-5.14619923

$$$$

 OpenBabel03272501333D

 27 29  0  0  1  0  0  0  0  0999 V2000
   37.6260   26.0600   34.8010 C   0  0  2  0  0  0  0  0  0  0  0  0
   39.2030   26.1470   34.7580 C   0  0  0  0  0  0  0  0  0  0  0  0
   38.4530   24.9160   35.1570 C   0  0  1  0  0  0  0  0  0  0  0  0
   37.3170   26.8930   35.4910 H   0  0  0  0  0  0  0  0  0  0  0  0
   39.6700   26.1180   33.7540 H   0  0  0  0  0  0  0  0  0  0  0  0
   39.6920   26.8190   35.4440 H   0  0  0  0  0  0  0  0  0  0  0  0
   38.4350   24.0930   34.3740 H   0  0  0  0  0  0  0  0  0  0  0  0
   37.8200   23.1990   36.8160 C   0  0  2  0  0  3  0  0  0  0  0  0
   38.5790   24.4450   36.5500 C   0  0  2  0  0  3  0  0  0  0  0  0
   38.2040   25.3670   37.5130 O   0  0  0  0  0  0  0  0  0  0  0  0
   37.8440   24.6650   38.6480 C   0  0  0  0  0  2  0  0  0  0  0  0
   37.8240   23.1900   38.3490 C   0  0  2  0  0  3  0  0  0  0  0  0
   38.4650   22.0760   36.3180 O   0  0  0  0  0  0  0  0  0  0  0  0
   39.3200   21.9110   36.7820 H   0  0  0  0  0  0  0  0  0  0  0  0
   38.9820   22.5570   38.7520 O   0  0  0  0  0  0  0  0  0  0  0  0
   38.9120   22.0520   39.5930 H   0  0  0  0  0  0  0  0  0  0  0  0
   37.0990   26.2590   33.4180 C   0  0  0  0  0  0  0  0  0  0  0  0
   37.0270   25.2300   32.6590 O   0  0  0  0  0  0  0  0  0  0  0  0
   36.7190   29.3290   31.3220 C   0  0  0  0  0  0  0  0  0  0  0  0
   37.0700   28.0490   31.7220 C   0  0  0  0  0  0  0  0  0  0  0  0
   36.7060   27.5800   32.9900 C   0  0  0  0  0  0  0  0  0  0  0  0
   36.0200   28.4080   33.7760 N   0  0  0  0  0  0  0  0  0  0  0  0
   35.6850   29.6630   33.3580 C   0  0  0  0  0  0  0  0  0  0  0  0
   36.0230   30.1300   32.1540 N   0  0  0  0  0  0  0  0  0  0  0  0
   36.9880   29.7180   30.3490 H   0  0  0  0  0  0  0  0  0  0  0  0
   37.6220   27.4430   31.0360 H   0  0  0  0  0  0  0  0  0  0  0  0
   35.1300   30.2340   34.0850 H   0  0  0  0  0  0  0  0  0  0  0  0
  1  3  1  0  0  0  0
  1  4  1  1  0  0  0
  2  1  1  0  0  0  0
  2  3  1  0  0  0  0
  2  6  1  0  0  0  0
  3  7  1  6  0  0  0
  3  9  1  0  0  0  0
  5  2  1  0  0  0  0
  8 13  1  6  0  0  0
  8 12  1  0  0  0  0
  9  8  1  0  0  0  0
  9 10  1  1  0  0  0
 10 11  1  0  0  0  0
 12 11  1  0  0  0  0
 12 15  1  6  0  0  0
 13 14  1  0  0  0  0
 15 16  1  0  0  0  0
 17  1  1  0  0  0  0
 18 17  2  0  0  0  0
 19 20  2  0  0  0  0
 19 24  1  0  0  0  0
 20 21  1  0  0  0  0
 21 17  1  0  0  0  0
 21 22  2  0  0  0  0
 23 22  1  0  0  0  0
 23 27  1  0  0  0  0
 24 23  2  0  0  0  0
 25 19  1  0  0  0  0
 26 20  1  0  0  0  0
M  END
>  <minimizedAffinity>
-5.0962615

$$$$

 OpenBabel03272501333D

 27 29  0  0  1  0  0  0  0  0999 V2000
   37.3790   26.7420   34.7570 C   0  0  2  0  0  0  0  0  0  0  0  0
   38.5270   27.3390   35.6630 C   0  0  0  0  0  0  0  0  0  0  0  0
   38.6170   26.0090   34.9860 C   0  0  1  0  0  0  0  0  0  0  0  0
   36.4720   26.7310   35.4220 H   0  0  0  0  0  0  0  0  0  0  0  0
   39.1380   28.1460   35.2130 H   0  0  0  0  0  0  0  0  0  0  0  0
   38.3220   27.4840   36.7110 H   0  0  0  0  0  0  0  0  0  0  0  0
   39.2930   25.9820   34.0730 H   0  0  0  0  0  0  0  0  0  0  0  0
   38.1360   23.5920   35.1530 C   0  0  2  0  0  3  0  0  0  0  0  0
   38.6660   24.8000   35.8310 C   0  0  2  0  0  3  0  0  0  0  0  0
   38.0080   24.9110   37.0450 O   0  0  0  0  0  0  0  0  0  0  0  0
   37.6590   23.6360   37.4500 C   0  0  0  0  0  2  0  0  0  0  0  0
   37.9600   22.6520   36.3520 C   0  0  2  0  0  3  0  0  0  0  0  0
   39.0400   23.0620   34.2440 O   0  0  0  0  0  0  0  0  0  0  0  0
   39.8500   22.7200   34.6920 H   0  0  0  0  0  0  0  0  0  0  0  0
   39.1630   22.0030   36.5430 O   0  0  0  0  0  0  0  0  0  0  0  0
   39.0930   21.0870   36.8940 H   0  0  0  0  0  0  0  0  0  0  0  0
   37.1910   27.6320   33.5740 C   0  0  0  0  0  0  0  0  0  0  0  0
   38.0500   27.5490   32.6280 O   0  0  0  0  0  0  0  0  0  0  0  0
   34.7510   30.2700   34.6000 C   0  0  0  0  0  0  0  0  0  0  0  0
   35.8410   29.4130   34.6170 C   0  0  0  0  0  0  0  0  0  0  0  0
   36.0740   28.5460   33.5430 C   0  0  0  0  0  0  0  0  0  0  0  0
   35.2150   28.5850   32.5250 N   0  0  0  0  0  0  0  0  0  0  0  0
   34.1510   29.4390   32.5330 C   0  0  0  0  0  0  0  0  0  0  0  0
   33.9090   30.2730   33.5470 N   0  0  0  0  0  0  0  0  0  0  0  0
   34.5460   30.9490   35.4170 H   0  0  0  0  0  0  0  0  0  0  0  0
   36.4860   29.4390   35.4680 H   0  0  0  0  0  0  0  0  0  0  0  0
   33.5310   29.3750   31.6530 H   0  0  0  0  0  0  0  0  0  0  0  0
  1  3  1  0  0  0  0
  1  4  1  1  0  0  0
  1  2  1  0  0  0  0
  2  6  1  0  0  0  0
  3  7  1  6  0  0  0
  3  2  1  0  0  0  0
  3  9  1  0  0  0  0
  5  2  1  0  0  0  0
  8 13  1  6  0  0  0
  8  9  1  0  0  0  0
  8 12  1  0  0  0  0
  9 10  1  1  0  0  0
 10 11  1  0  0  0  0
 12 15  1  1  0  0  0
 12 11  1  0  0  0  0
 13 14  1  0  0  0  0
 15 16  1  0  0  0  0
 17  1  1  0  0  0  0
 18 17  2  0  0  0  0
 19 20  1  0  0  0  0
 19 25  1  0  0  0  0
 20 26  1  0  0  0  0
 21 17  1  0  0  0  0
 21 20  2  0  0  0  0
 22 23  2  0  0  0  0
 22 21  1  0  0  0  0
 23 24  1  0  0  0  0
 24 19  2  0  0  0  0
 27 23  1  0  0  0  0
M  END
>  <minimizedAffinity>
-4.9002142

$$$$

 OpenBabel03272501333D

 27 29  0  0  1  0  0  0  0  0999 V2000
   37.4510   26.5140   35.0880 C   0  0  2  0  0  0  0  0  0  0  0  0
   38.8990   27.0750   35.3800 C   0  0  0  0  0  0  0  0  0  0  0  0
   38.5720   25.6160   35.3320 C   0  0  1  0  0  0  0  0  0  0  0  0
   36.8020   26.9890   35.8740 H   0  0  0  0  0  0  0  0  0  0  0  0
   39.4590   27.4680   34.5080 H   0  0  0  0  0  0  0  0  0  0  0  0
   39.0510   27.6430   36.2830 H   0  0  0  0  0  0  0  0  0  0  0  0
   38.9230   25.0790   34.3950 H   0  0  0  0  0  0  0  0  0  0  0  0
   38.0810   23.4880   36.4840 C   0  0  2  0  0  3  0  0  0  0  0  0
   38.6920   24.8360   36.5790 C   0  0  2  0  0  3  0  0  0  0  0  0
   38.1630   25.4480   37.7030 O   0  0  0  0  0  0  0  0  0  0  0  0
   37.8410   24.4540   38.6090 C   0  0  0  0  0  2  0  0  0  0  0  0
   38.0170   23.1040   37.9680 C   0  0  2  0  0  3  0  0  0  0  0  0
   38.8810   22.5970   35.7830 O   0  0  0  0  0  0  0  0  0  0  0  0
   39.7280   22.4180   36.2560 H   0  0  0  0  0  0  0  0  0  0  0  0
   39.2250   22.5210   38.2920 O   0  0  0  0  0  0  0  0  0  0  0  0
   39.1800   21.8210   38.9820 H   0  0  0  0  0  0  0  0  0  0  0  0
   37.0480   26.9240   33.7110 C   0  0  0  0  0  0  0  0  0  0  0  0
   36.4590   28.0530   33.5780 O   0  0  0  0  0  0  0  0  0  0  0  0
   38.6290   25.4950   30.6410 C   0  0  0  0  0  0  0  0  0  0  0  0
   38.3830   26.3220   31.7260 C   0  0  0  0  0  0  0  0  0  0  0  0
   37.3240   26.0460   32.5990 C   0  0  0  0  0  0  0  0  0  0  0  0
   36.5790   24.9720   32.3390 N   0  0  0  0  0  0  0  0  0  0  0  0
   36.8440   24.1730   31.2650 C   0  0  0  0  0  0  0  0  0  0  0  0
   37.8480   24.4180   30.4200 N   0  0  0  0  0  0  0  0  0  0  0  0
   39.4400   25.6860   29.9500 H   0  0  0  0  0  0  0  0  0  0  0  0
   39.0230   27.1650   31.8690 H   0  0  0  0  0  0  0  0  0  0  0  0
   36.1710   23.3360   31.1650 H   0  0  0  0  0  0  0  0  0  0  0  0
  1  3  1  0  0  0  0
  1  2  1  0  0  0  0
  1  4  1  1  0  0  0
  2  6  1  0  0  0  0
  3  7  1  6  0  0  0
  3  2  1  0  0  0  0
  3  9  1  0  0  0  0
  5  2  1  0  0  0  0
  8 13  1  6  0  0  0
  8  9  1  0  0  0  0
  8 12  1  0  0  0  0
  9 10  1  1  0  0  0
 10 11  1  0  0  0  0
 12 15  1  1  0  0  0
 12 11  1  0  0  0  0
 13 14  1  0  0  0  0
 15 16  1  0  0  0  0
 17  1  1  0  0  0  0
 18 17  2  0  0  0  0
 19 20  1  0  0  0  0
 20 26  1  0  0  0  0
 20 21  2  0  0  0  0
 21 17  1  0  0  0  0
 22 21  1  0  0  0  0
 23 22  2  0  0  0  0
 24 19  2  0  0  0  0
 24 23  1  0  0  0  0
 25 19  1  0  0  0  0
 27 23  1  0  0  0  0
M  END
>  <minimizedAffinity>
-4.84596062

$$$$

 OpenBabel03272501333D

 27 29  0  0  1  0  0  0  0  0999 V2000
   35.7550   28.6200   33.3100 C   0  0  2  0  0  0  0  0  0  0  0  0
   36.7510   28.1040   34.4220 C   0  0  0  0  0  0  0  0  0  0  0  0
   37.0440   28.0410   32.9570 C   0  0  1  0  0  0  0  0  0  0  0  0
   34.8040   28.0510   33.4970 H   0  0  0  0  0  0  0  0  0  0  0  0
   37.3030   28.8810   34.9870 H   0  0  0  0  0  0  0  0  0  0  0  0
   36.4460   27.2650   35.0260 H   0  0  0  0  0  0  0  0  0  0  0  0
   37.7920   28.8120   32.5860 H   0  0  0  0  0  0  0  0  0  0  0  0
   36.0370   26.4030   31.4080 C   0  0  2  0  0  3  0  0  0  0  0  0
   37.1590   26.7110   32.3270 C   0  0  2  0  0  3  0  0  0  0  0  0
   37.2640   25.6530   33.2150 O   0  0  0  0  0  0  0  0  0  0  0  0
   36.8130   24.5170   32.5680 C   0  0  0  0  0  2  0  0  0  0  0  0
   36.2230   24.8910   31.2350 C   0  0  2  0  0  3  0  0  0  0  0  0
   36.1640   27.0540   30.1890 O   0  0  0  0  0  0  0  0  0  0  0  0
   36.9500   26.7350   29.6850 H   0  0  0  0  0  0  0  0  0  0  0  0
   37.1110   24.7030   30.1960 O   0  0  0  0  0  0  0  0  0  0  0  0
   36.9660   23.8910   29.6620 H   0  0  0  0  0  0  0  0  0  0  0  0
   35.5670   30.0910   33.4820 C   0  0  0  0  0  0  0  0  0  0  0  0
   36.0270   30.8580   32.5660 O   0  0  0  0  0  0  0  0  0  0  0  0
   34.9320   31.8780   36.7020 C   0  0  0  0  0  0  0  0  0  0  0  0
   35.5680   31.4250   35.5570 C   0  0  0  0  0  0  0  0  0  0  0  0
   34.8940   30.5880   34.6580 C   0  0  0  0  0  0  0  0  0  0  0  0
   33.6380   30.2570   34.9540 N   0  0  0  0  0  0  0  0  0  0  0  0
   33.0350   30.7180   36.0870 C   0  0  0  0  0  0  0  0  0  0  0  0
   33.6590   31.5160   36.9570 N   0  0  0  0  0  0  0  0  0  0  0  0
   35.4290   32.5250   37.4130 H   0  0  0  0  0  0  0  0  0  0  0  0
   36.5770   31.7340   35.3880 H   0  0  0  0  0  0  0  0  0  0  0  0
   32.0180   30.3790   36.2110 H   0  0  0  0  0  0  0  0  0  0  0  0
  1 17  1  0  0  0  0
  1  4  1  6  0  0  0
  1  2  1  0  0  0  0
  2  5  1  0  0  0  0
  2  6  1  0  0  0  0
  3  7  1  6  0  0  0
  3  1  1  0  0  0  0
  3  2  1  0  0  0  0
  8 13  1  6  0  0  0
  8  9  1  0  0  0  0
  9  3  1  0  0  0  0
  9 10  1  1  0  0  0
 11 10  1  0  0  0  0
 12 15  1  6  0  0  0
 12  8  1  0  0  0  0
 12 11  1  0  0  0  0
 14 13  1  0  0  0  0
 16 15  1  0  0  0  0
 17 21  1  0  0  0  0
 18 17  2  0  0  0  0
 19 24  1  0  0  0  0
 19 25  1  0  0  0  0
 20 19  2  0  0  0  0
 21 22  2  0  0  0  0
 21 20  1  0  0  0  0
 22 23  1  0  0  0  0
 23 27  1  0  0  0  0
 23 24  2  0  0  0  0
 26 20  1  0  0  0  0
M  END
>  <minimizedAffinity>
-4.82062054

$$$$

 OpenBabel03272501333D

 27 29  0  0  1  0  0  0  0  0999 V2000
   38.0160   23.4090   33.9280 C   0  0  2  0  0  0  0  0  0  0  0  0
   39.5450   23.1100   33.6660 C   0  0  0  0  0  0  0  0  0  0  0  0
   38.6720   22.2560   34.5290 C   0  0  1  0  0  0  0  0  0  0  0  0
   38.0000   24.4530   34.3450 H   0  0  0  0  0  0  0  0  0  0  0  0
   39.8000   22.6840   32.6760 H   0  0  0  0  0  0  0  0  0  0  0  0
   40.2700   23.8180   34.0330 H   0  0  0  0  0  0  0  0  0  0  0  0
   38.3550   21.2700   34.0610 H   0  0  0  0  0  0  0  0  0  0  0  0
   38.6400   23.4440   36.6950 C   0  0  2  0  0  3  0  0  0  0  0  0
   38.9710   22.1910   35.9730 C   0  0  2  0  0  3  0  0  0  0  0  0
   40.2830   21.8750   36.2820 O   0  0  0  0  0  0  0  0  0  0  0  0
   40.5490   22.3770   37.5430 C   0  0  0  0  0  2  0  0  0  0  0  0
   39.3910   23.2160   38.0120 C   0  0  2  0  0  3  0  0  0  0  0  0
   37.2770   23.5710   36.9250 O   0  0  0  0  0  0  0  0  0  0  0  0
   36.9440   22.8740   37.5390 H   0  0  0  0  0  0  0  0  0  0  0  0
   38.5450   22.5220   38.8520 O   0  0  0  0  0  0  0  0  0  0  0  0
   38.6500   22.7210   39.8090 H   0  0  0  0  0  0  0  0  0  0  0  0
   37.2830   23.3170   32.6310 C   0  0  0  0  0  0  0  0  0  0  0  0
   37.2110   24.3760   31.9150 O   0  0  0  0  0  0  0  0  0  0  0  0
   36.6450   20.1190   30.8060 C   0  0  0  0  0  0  0  0  0  0  0  0
   37.2380   21.3080   31.2010 C   0  0  0  0  0  0  0  0  0  0  0  0
   36.6830   22.0640   32.2410 C   0  0  0  0  0  0  0  0  0  0  0  0
   35.5790   21.5920   32.8190 N   0  0  0  0  0  0  0  0  0  0  0  0
   35.0170   20.4170   32.4120 C   0  0  0  0  0  0  0  0  0  0  0  0
   35.5290   19.6820   31.4230 N   0  0  0  0  0  0  0  0  0  0  0  0
   37.0520   19.5170   30.0040 H   0  0  0  0  0  0  0  0  0  0  0  0
   38.1220   21.6220   30.6880 H   0  0  0  0  0  0  0  0  0  0  0  0
   34.1280   20.1440   32.9600 H   0  0  0  0  0  0  0  0  0  0  0  0
  1  4  1  1  0  0  0
  1  3  1  0  0  0  0
  2  1  1  0  0  0  0
  2  6  1  0  0  0  0
  2  3  1  0  0  0  0
  3  7  1  6  0  0  0
  3  9  1  0  0  0  0
  5  2  1  0  0  0  0
  8 13  1  1  0  0  0
  8 12  1  0  0  0  0
  9 10  1  6  0  0  0
  9  8  1  0  0  0  0
 10 11  1  0  0  0  0
 11 12  1  0  0  0  0
 12 15  1  1  0  0  0
 13 14  1  0  0  0  0
 15 16  1  0  0  0  0
 17  1  1  0  0  0  0
 18 17  2  0  0  0  0
 19 20  2  0  0  0  0
 19 24  1  0  0  0  0
 20 21  1  0  0  0  0
 21 17  1  0  0  0  0
 21 22  2  0  0  0  0
 23 22  1  0  0  0  0
 23 27  1  0  0  0  0
 24 23  2  0  0  0  0
 25 19  1  0  0  0  0
 26 20  1  0  0  0  0
M  END
>  <minimizedAffinity>
-4.77197742

$$$$

 OpenBabel03272501333D

 27 29  0  0  1  0  0  0  0  0999 V2000
   37.7390   25.5300   34.3840 C   0  0  2  0  0  0  0  0  0  0  0  0
   39.2710   25.8910   34.5190 C   0  0  0  0  0  0  0  0  0  0  0  0
   38.6910   24.5800   34.9430 C   0  0  1  0  0  0  0  0  0  0  0  0
   37.2080   26.3440   34.9500 H   0  0  0  0  0  0  0  0  0  0  0  0
   39.8650   25.8700   33.5840 H   0  0  0  0  0  0  0  0  0  0  0  0
   39.5470   26.6880   35.1900 H   0  0  0  0  0  0  0  0  0  0  0  0
   38.9130   23.7110   34.2460 H   0  0  0  0  0  0  0  0  0  0  0  0
   37.9420   23.0150   36.7020 C   0  0  2  0  0  3  0  0  0  0  0  0
   38.7080   24.2440   36.3800 C   0  0  2  0  0  3  0  0  0  0  0  0
   38.2460   25.2450   37.2180 O   0  0  0  0  0  0  0  0  0  0  0  0
   37.8020   24.6460   38.3830 C   0  0  0  0  0  2  0  0  0  0  0  0
   37.8220   23.1500   38.2250 C   0  0  2  0  0  3  0  0  0  0  0  0
   38.6370   21.8620   36.3660 O   0  0  0  0  0  0  0  0  0  0  0  0
   39.4530   21.7560   36.9100 H   0  0  0  0  0  0  0  0  0  0  0  0
   38.9500   22.5780   38.7770 O   0  0  0  0  0  0  0  0  0  0  0  0
   38.8170   22.1530   39.6540 H   0  0  0  0  0  0  0  0  0  0  0  0
   37.3740   25.5290   32.9370 C   0  0  0  0  0  0  0  0  0  0  0  0
   37.1050   26.6560   32.3930 O   0  0  0  0  0  0  0  0  0  0  0  0
   36.0700   22.4010   31.3620 C   0  0  0  0  0  0  0  0  0  0  0  0
   36.1100   23.6160   32.0270 C   0  0  0  0  0  0  0  0  0  0  0  0
   37.3290   24.2790   32.2160 C   0  0  0  0  0  0  0  0  0  0  0  0
   38.4250   23.6950   31.7350 N   0  0  0  0  0  0  0  0  0  0  0  0
   38.3570   22.4980   31.0820 C   0  0  0  0  0  0  0  0  0  0  0  0
   37.2060   21.8500   30.8910 N   0  0  0  0  0  0  0  0  0  0  0  0
   35.1420   21.8670   31.2030 H   0  0  0  0  0  0  0  0  0  0  0  0
   35.1880   24.0230   32.3860 H   0  0  0  0  0  0  0  0  0  0  0  0
   39.3130   22.1310   30.7400 H   0  0  0  0  0  0  0  0  0  0  0  0
  1  2  1  0  0  0  0
  1  3  1  0  0  0  0
  1  4  1  1  0  0  0
  2  3  1  0  0  0  0
  2  6  1  0  0  0  0
  3  7  1  6  0  0  0
  3  9  1  0  0  0  0
  5  2  1  0  0  0  0
  8 13  1  1  0  0  0
  8 12  1  0  0  0  0
  9  8  1  0  0  0  0
  9 10  1  1  0  0  0
 10 11  1  0  0  0  0
 12 11  1  0  0  0  0
 12 15  1  1  0  0  0
 13 14  1  0  0  0  0
 15 16  1  0  0  0  0
 17  1  1  0  0  0  0
 18 17  2  0  0  0  0
 19 20  1  0  0  0  0
 20 21  2  0  0  0  0
 20 26  1  0  0  0  0
 21 17  1  0  0  0  0
 22 21  1  0  0  0  0
 23 22  2  0  0  0  0
 24 23  1  0  0  0  0
 24 19  2  0  0  0  0
 25 19  1  0  0  0  0
 27 23  1  0  0  0  0
M  END
>  <minimizedAffinity>
-4.73901749

$$$$

 OpenBabel03272501333D

 27 29  0  0  1  0  0  0  0  0999 V2000
   37.7430   23.3660   33.3960 C   0  0  2  0  0  0  0  0  0  0  0  0
   36.8560   22.2770   32.6740 C   0  0  0  0  0  0  0  0  0  0  0  0
   37.5990   23.3520   31.9470 C   0  0  1  0  0  0  0  0  0  0  0  0
   37.0440   23.8610   34.1250 H   0  0  0  0  0  0  0  0  0  0  0  0
   37.2910   21.2610   32.5970 H   0  0  0  0  0  0  0  0  0  0  0  0
   35.7950   22.2810   32.8620 H   0  0  0  0  0  0  0  0  0  0  0  0
   38.5390   23.0040   31.4100 H   0  0  0  0  0  0  0  0  0  0  0  0
   36.8350   25.7000   31.8950 C   0  0  2  0  0  3  0  0  0  0  0  0
   36.8160   24.3750   31.2280 C   0  0  2  0  0  3  0  0  0  0  0  0
   35.4880   24.0460   31.0100 O   0  0  0  0  0  0  0  0  0  0  0  0
   34.7820   25.2260   30.8630 C   0  0  0  0  0  2  0  0  0  0  0  0
   35.6770   26.3960   31.1700 C   0  0  2  0  0  3  0  0  0  0  0  0
   38.0260   26.3780   31.6780 O   0  0  0  0  0  0  0  0  0  0  0  0
   38.1440   26.6140   30.7270 H   0  0  0  0  0  0  0  0  0  0  0  0
   36.1950   26.9750   30.0300 O   0  0  0  0  0  0  0  0  0  0  0  0
   35.7560   27.8080   29.7470 H   0  0  0  0  0  0  0  0  0  0  0  0
   38.8740   22.6800   34.0880 C   0  0  0  0  0  0  0  0  0  0  0  0
   39.6840   21.9990   33.3660 O   0  0  0  0  0  0  0  0  0  0  0  0
   38.1110   23.4890   37.6550 C   0  0  0  0  0  0  0  0  0  0  0  0
   37.9710   23.3490   36.2830 C   0  0  0  0  0  0  0  0  0  0  0  0
   39.0070   22.7970   35.5200 C   0  0  0  0  0  0  0  0  0  0  0  0
   40.1110   22.4220   36.1650 N   0  0  0  0  0  0  0  0  0  0  0  0
   40.2230   22.5700   37.5170 C   0  0  0  0  0  0  0  0  0  0  0  0
   39.2470   23.0940   38.2630 N   0  0  0  0  0  0  0  0  0  0  0  0
   37.3270   23.9130   38.2690 H   0  0  0  0  0  0  0  0  0  0  0  0
   37.0560   23.6730   35.8370 H   0  0  0  0  0  0  0  0  0  0  0  0
   41.1630   22.2280   37.9190 H   0  0  0  0  0  0  0  0  0  0  0  0
  1 17  1  0  0  0  0
  1  4  1  1  0  0  0
  2  6  1  0  0  0  0
  2  1  1  0  0  0  0
  3  7  1  6  0  0  0
  3  2  1  0  0  0  0
  3  1  1  0  0  0  0
  5  2  1  0  0  0  0
  8 13  1  6  0  0  0
  9 10  1  1  0  0  0
  9  8  1  0  0  0  0
  9  3  1  0  0  0  0
 11 10  1  0  0  0  0
 11 12  1  0  0  0  0
 12 15  1  6  0  0  0
 12  8  1  0  0  0  0
 14 13  1  0  0  0  0
 16 15  1  0  0  0  0
 17 21  1  0  0  0  0
 18 17  2  0  0  0  0
 19 24  1  0  0  0  0
 19 25  1  0  0  0  0
 20 19  2  0  0  0  0
 21 22  2  0  0  0  0
 21 20  1  0  0  0  0
 22 23  1  0  0  0  0
 23 27  1  0  0  0  0
 23 24  2  0  0  0  0
 26 20  1  0  0  0  0
M  END
>  <minimizedAffinity>
-4.71969366

$$$$

 OpenBabel03272501333D

 27 29  0  0  1  0  0  0  0  0999 V2000
   37.4240   22.8680   31.9820 C   0  0  2  0  0  0  0  0  0  0  0  0
   36.0810   23.4240   31.3630 C   0  0  0  0  0  0  0  0  0  0  0  0
   36.1350   22.2930   32.3400 C   0  0  1  0  0  0  0  0  0  0  0  0
   38.0490   22.5860   31.0910 H   0  0  0  0  0  0  0  0  0  0  0  0
   35.7150   24.3880   31.7690 H   0  0  0  0  0  0  0  0  0  0  0  0
   35.9280   23.3140   30.3020 H   0  0  0  0  0  0  0  0  0  0  0  0
   35.8080   22.5570   33.3960 H   0  0  0  0  0  0  0  0  0  0  0  0
   36.1320   19.8660   32.7980 C   0  0  2  0  0  3  0  0  0  0  0  0
   35.7200   20.9540   31.8780 C   0  0  2  0  0  3  0  0  0  0  0  0
   36.1650   20.6110   30.6120 O   0  0  0  0  0  0  0  0  0  0  0  0
   36.2000   19.2310   30.5400 C   0  0  0  0  0  2  0  0  0  0  0  0
   35.9210   18.6430   31.8970 C   0  0  2  0  0  3  0  0  0  0  0  0
   35.3190   19.7930   33.9200 O   0  0  0  0  0  0  0  0  0  0  0  0
   34.3950   19.5390   33.6850 H   0  0  0  0  0  0  0  0  0  0  0  0
   34.6060   18.2500   32.0400 O   0  0  0  0  0  0  0  0  0  0  0  0
   34.4460   17.2840   31.9520 H   0  0  0  0  0  0  0  0  0  0  0  0
   38.0620   23.9500   32.7890 C   0  0  0  0  0  0  0  0  0  0  0  0
   38.3830   25.0310   32.1820 O   0  0  0  0  0  0  0  0  0  0  0  0
   39.0440   22.3190   36.0050 C   0  0  0  0  0  0  0  0  0  0  0  0
   38.8440   22.5330   34.6500 C   0  0  0  0  0  0  0  0  0  0  0  0
   38.2990   23.7400   34.1970 C   0  0  0  0  0  0  0  0  0  0  0  0
   37.9900   24.6550   35.1150 N   0  0  0  0  0  0  0  0  0  0  0  0
   38.1980   24.4210   36.4430 C   0  0  0  0  0  0  0  0  0  0  0  0
   38.7150   23.2760   36.8960 N   0  0  0  0  0  0  0  0  0  0  0  0
   39.4620   21.3950   36.3820 H   0  0  0  0  0  0  0  0  0  0  0  0
   39.1170   21.7510   33.9740 H   0  0  0  0  0  0  0  0  0  0  0  0
   37.9070   25.2380   37.0830 H   0  0  0  0  0  0  0  0  0  0  0  0
  1  4  1  6  0  0  0
  1  3  1  0  0  0  0
  1 17  1  0  0  0  0
  2  5  1  0  0  0  0
  2  1  1  0  0  0  0
  2  3  1  0  0  0  0
  3  7  1  1  0  0  0
  6  2  1  0  0  0  0
  8 13  1  1  0  0  0
  9 10  1  6  0  0  0
  9  3  1  0  0  0  0
  9  8  1  0  0  0  0
 11 10  1  0  0  0  0
 11 12  1  0  0  0  0
 12 15  1  6  0  0  0
 12  8  1  0  0  0  0
 14 13  1  0  0  0  0
 16 15  1  0  0  0  0
 17 21  1  0  0  0  0
 18 17  2  0  0  0  0
 19 25  1  0  0  0  0
 19 24  1  0  0  0  0
 20 19  2  0  0  0  0
 21 20  1  0  0  0  0
 21 22  2  0  0  0  0
 22 23  1  0  0  0  0
 23 24  2  0  0  0  0
 23 27  1  0  0  0  0
 26 20  1  0  0  0  0
M  END
>  <minimizedAffinity>
-4.64911604

$$$$
