
 OpenBabel03272505303D

 40 43  0  0  1  0  0  0  0  0999 V2000
   37.3930   31.2420   47.0220 N   0  0  0  0  0  0  0  0  0  0  0  0
   36.7040   31.0530   45.8730 C   0  0  0  0  0  0  0  0  0  0  0  0
   37.1150   31.5930   44.6660 C   0  0  0  0  0  0  0  0  0  0  0  0
   38.2930   32.3550   44.6800 C   0  0  0  0  0  0  0  0  0  0  0  0
   38.7210   32.8740   43.6190 O   0  0  0  0  0  0  0  0  0  0  0  0
   38.9930   32.5460   45.8510 N   0  0  0  0  0  0  0  0  0  0  0  0
   38.4860   31.9700   46.9390 C   0  0  0  0  0  0  0  0  0  0  0  0
   39.1460   32.1640   47.9770 O   0  0  0  0  0  0  0  0  0  0  0  0
   35.7920   30.4560   45.8860 H   0  0  0  0  0  0  0  0  0  0  0  0
   37.4090   29.5280   50.3240 C   0  0  0  0  0  0  0  0  0  0  0  0
   37.8430   30.0870   49.1120 C   0  0  0  0  0  0  0  0  0  0  0  0
   36.9580   30.6850   48.2300 C   0  0  0  0  0  0  0  0  0  0  0  0
   35.6590   30.7070   48.5840 N   0  0  0  0  0  0  0  0  0  0  0  0
   35.2040   30.1710   49.7590 C   0  0  0  0  0  0  0  0  0  0  0  0
   36.0920   29.5870   50.6150 N   0  0  0  0  0  0  0  0  0  0  0  0
   38.1570   29.0780   50.9610 H   0  0  0  0  0  0  0  0  0  0  0  0
   38.8840   30.0710   48.8250 H   0  0  0  0  0  0  0  0  0  0  0  0
   34.1530   30.2020   50.0200 H   0  0  0  0  0  0  0  0  0  0  0  0
   36.4250   31.4270   43.4160 C   0  0  0  0  0  0  0  0  0  0  0  0
   36.7080   30.4290   42.5140 C   0  0  0  0  0  0  0  0  0  0  0  0
   36.0780   30.2310   41.3100 C   0  0  0  0  0  0  0  0  0  0  0  0
   35.0610   31.1090   40.9550 C   0  0  0  0  0  0  0  0  0  0  0  0
   34.7920   32.1140   41.8870 C   0  0  0  0  0  0  0  0  0  0  0  0
   35.4390   32.2590   43.0470 N   0  0  0  0  0  0  0  0  0  0  0  0
   37.5060   29.7160   42.7600 H   0  0  0  0  0  0  0  0  0  0  0  0
   36.3500   29.4230   40.6420 H   0  0  0  0  0  0  0  0  0  0  0  0
   34.5150   31.0230   40.0230 H   0  0  0  0  0  0  0  0  0  0  0  0
   34.1350   34.4610   42.1930 C   0  0  1  0  0  0  0  0  0  0  0  0
   33.7220   33.1090   41.6110 C   0  0  1  0  0  0  0  0  0  0  0  0
   33.6100   33.4260   40.2740 O   0  0  0  0  0  0  0  0  0  0  0  0
   32.9070   34.6030   40.2150 C   0  0  0  0  0  0  0  0  0  0  0  0
   33.0590   35.3270   41.5320 C   0  0  1  0  0  0  0  0  0  0  0  0
   34.0580   34.4810   43.5780 O   0  0  0  0  0  0  0  0  0  0  0  0
   34.1280   33.5090   43.8410 H   0  0  0  0  0  0  0  0  0  0  0  0
   31.8620   35.1220   42.2460 O   0  0  0  0  0  0  0  0  0  0  0  0
   32.0370   34.6080   43.0890 H   0  0  0  0  0  0  0  0  0  0  0  0
   40.1950   33.3270   45.8500 C   0  0  0  0  0  0  0  0  0  0  0  0
   40.1610   34.2740   44.8860 F   0  0  0  0  0  0  0  0  0  0  0  0
   41.3380   32.5800   45.6110 F   0  0  0  0  0  0  0  0  0  0  0  0
   40.3100   33.9680   47.0810 F   0  0  0  0  0  0  0  0  0  0  0  0
  1 12  1  0  0  0  0
  2  9  1  0  0  0  0
  2  1  1  0  0  0  0
  3  4  1  0  0  0  0
  3  2  2  0  0  0  0
  4  6  1  0  0  0  0
  5  4  2  0  0  0  0
  6  7  1  0  0  0  0
  7  1  1  0  0  0  0
  7  8  2  0  0  0  0
 10 15  1  0  0  0  0
 10 16  1  0  0  0  0
 11 10  2  0  0  0  0
 12 13  2  0  0  0  0
 12 11  1  0  0  0  0
 13 14  1  0  0  0  0
 14 18  1  0  0  0  0
 14 15  2  0  0  0  0
 17 11  1  0  0  0  0
 19  3  1  0  0  0  0
 20 25  1  0  0  0  0
 20 19  2  0  0  0  0
 21 20  1  0  0  0  0
 22 21  2  0  0  0  0
 22 23  1  0  0  0  0
 23 24  2  0  0  0  0
 24 19  1  0  0  0  0
 26 21  1  0  0  0  0
 27 22  1  0  0  0  0
 28 33  1  1  0  0  0
 29 23  1  6  0  0  0
 29 28  1  0  0  0  0
 30 29  1  0  0  0  0
 31 30  1  0  0  0  0
 31 32  1  0  0  0  0
 32 28  1  0  0  0  0
 32 35  1  1  0  0  0
 33 34  1  0  0  0  0
 35 36  1  0  0  0  0
 37  6  1  0  0  0  0
 37 40  1  0  0  0  0
 38 37  1  0  0  0  0
 39 37  1  0  0  0  0
M  END
>  <minimizedAffinity>
-7.36922789

>  <minimizedRMSD>
1.42845571

$$$$
