
 OpenBabel03272509503D

 33 35  0  0  1  0  0  0  0  0999 V2000
   37.3310   30.4420   50.9800 C   0  0  0  0  0  0  0  0  0  0  0  0
   38.1840   30.9840   50.0070 C   0  0  0  0  0  0  0  0  0  0  0  0
   37.9520   30.6590   48.6830 C   0  0  0  0  0  0  0  0  0  0  0  0
   36.9120   29.8330   48.3880 N   0  0  0  0  0  0  0  0  0  0  0  0
   36.1050   29.3230   49.3420 C   0  0  0  0  0  0  0  0  0  0  0  0
   36.3360   29.6430   50.6330 N   0  0  0  0  0  0  0  0  0  0  0  0
   37.5510   30.7240   52.0000 H   0  0  0  0  0  0  0  0  0  0  0  0
   39.0070   31.6390   50.2490 H   0  0  0  0  0  0  0  0  0  0  0  0
   38.1730   31.0270   46.2210 C   0  0  1  0  0  3  0  0  0  0  0  0
   38.8100   31.1890   47.5640 C   0  0  1  0  0  3  0  0  0  0  0  0
   38.8940   32.5840   47.7280 O   0  0  0  0  0  0  0  0  0  0  0  0
   39.4620   33.0310   46.5520 C   0  0  0  0  0  2  0  0  0  0  0  0
   38.7560   32.2370   45.4820 C   0  0  2  0  0  3  0  0  0  0  0  0
   38.7060   29.8820   45.6410 O   0  0  0  0  0  0  0  0  0  0  0  0
   39.6700   29.8340   45.9210 H   0  0  0  0  0  0  0  0  0  0  0  0
   37.7690   33.0070   44.9140 O   0  0  0  0  0  0  0  0  0  0  0  0
   37.1960   32.4520   44.3170 H   0  0  0  0  0  0  0  0  0  0  0  0
   35.1230   28.5190   48.8500 O   0  0  0  0  0  0  0  0  0  0  0  0
   34.2670   29.0600   47.8360 C   0  0  0  0  0  0  0  0  0  0  0  0
   34.8210   29.6820   47.1280 H   0  0  0  0  0  0  0  0  0  0  0  0
   33.5440   29.6960   48.4140 H   0  0  0  0  0  0  0  0  0  0  0  0
   33.4420   27.9650   47.2190 C   0  0  0  0  0  0  0  0  0  0  0  0
   33.4860   28.0660   46.1150 H   0  0  0  0  0  0  0  0  0  0  0  0
   33.8300   26.9540   47.4560 H   0  0  0  0  0  0  0  0  0  0  0  0
   31.9990   28.0850   47.5650 C   0  0  0  0  0  0  0  0  0  0  0  0
   31.6160   27.6200   48.7990 C   0  0  0  0  0  0  0  0  0  0  0  0
   30.2970   27.6820   49.2240 C   0  0  0  0  0  0  0  0  0  0  0  0
   29.3840   28.2080   48.4090 N   0  0  0  0  0  0  0  0  0  0  0  0
   29.7690   28.6630   47.1950 C   0  0  0  0  0  0  0  0  0  0  0  0
   31.0450   28.6090   46.7700 N   0  0  0  0  0  0  0  0  0  0  0  0
   32.3390   27.1880   49.4800 H   0  0  0  0  0  0  0  0  0  0  0  0
   30.0340   27.3030   50.2070 H   0  0  0  0  0  0  0  0  0  0  0  0
   28.9830   29.0750   46.5860 H   0  0  0  0  0  0  0  0  0  0  0  0
  1  7  1  0  0  0  0
  2  8  1  0  0  0  0
  2  1  2  0  0  0  0
  3  2  1  0  0  0  0
  4  3  2  0  0  0  0
  4  5  1  0  0  0  0
  5  6  2  0  0  0  0
  6  1  1  0  0  0  0
  9 14  1  6  0  0  0
  9 10  1  0  0  0  0
 10 11  1  0  0  0  0
 10  3  1  1  0  0  0
 12 11  1  0  0  0  0
 13 16  1  1  0  0  0
 13  9  1  0  0  0  0
 13 12  1  0  0  0  0
 14 15  1  0  0  0  0
 17 16  1  0  0  0  0
 18  5  1  0  0  0  0
 19 21  1  0  0  0  0
 19 18  1  0  0  0  0
 20 19  1  0  0  0  0
 22 24  1  0  0  0  0
 22 25  1  0  0  0  0
 22 19  1  0  0  0  0
 23 22  1  0  0  0  0
 25 26  1  0  0  0  0
 26 27  2  0  0  0  0
 26 31  1  0  0  0  0
 27 32  1  0  0  0  0
 28 27  1  0  0  0  0
 29 28  2  0  0  0  0
 30 29  1  0  0  0  0
 30 25  2  0  0  0  0
 33 29  1  0  0  0  0
M  END
>  <minimizedAffinity>
-5.50722742

>  <minimizedRMSD>
1.24499059

$$$$
