
 OpenBabel03272503383D

 19 20  0  0  1  0  0  0  0  0999 V2000
   39.5920   22.6890   37.2070 C   0  0  0  0  0  0  0  0  0  0  0  0
   39.5980   23.3220   35.9570 C   0  0  0  0  0  0  0  0  0  0  0  0
   38.8430   24.4820   35.7950 C   0  0  0  0  0  0  0  0  0  0  0  0
   38.1390   24.9370   36.8620 N   0  0  0  0  0  0  0  0  0  0  0  0
   38.1500   24.3000   38.0710 C   0  0  0  0  0  0  0  0  0  0  0  0
   38.8730   23.1930   38.2190 N   0  0  0  0  0  0  0  0  0  0  0  0
   40.1260   23.0110   35.0950 H   0  0  0  0  0  0  0  0  0  0  0  0
   37.5850   24.6720   38.9160 H   0  0  0  0  0  0  0  0  0  0  0  0
   39.4680   26.5580   34.5710 C   0  0  1  0  0  3  0  0  0  0  0  0
   38.7940   25.2160   34.5000 C   0  0  2  0  0  3  0  0  0  0  0  0
   37.5000   25.5000   34.1080 O   0  0  0  0  0  0  0  0  0  0  0  0
   37.1120   26.6490   34.8170 C   0  0  0  0  0  2  0  0  0  0  0  0
   38.3410   27.4740   35.0040 C   0  0  1  0  0  3  0  0  0  0  0  0
   40.5700   26.6030   35.3890 O   0  0  0  0  0  0  0  0  0  0  0  0
   41.1380   27.3550   35.0370 H   0  0  0  0  0  0  0  0  0  0  0  0
   38.5830   27.8740   36.2940 O   0  0  0  0  0  0  0  0  0  0  0  0
   38.0130   28.6130   36.6060 H   0  0  0  0  0  0  0  0  0  0  0  0
   40.3930   21.5460   37.2080 O   0  0  0  0  0  0  0  0  0  0  0  0
   40.1430   20.7900   37.8320 H   0  0  0  0  0  0  0  0  0  0  0  0
  1 18  1  0  0  0  0
  1  6  1  0  0  0  0
  2  1  2  0  0  0  0
  3  2  1  0  0  0  0
  3  4  2  0  0  0  0
  4  5  1  0  0  0  0
  5  6  2  0  0  0  0
  5  8  1  0  0  0  0
  7  2  1  0  0  0  0
  9 13  1  0  0  0  0
  9 14  1  1  0  0  0
 10  9  1  0  0  0  0
 10  3  1  1  0  0  0
 11 10  1  0  0  0  0
 11 12  1  0  0  0  0
 12 13  1  0  0  0  0
 13 16  1  1  0  0  0
 15 14  1  0  0  0  0
 16 17  1  0  0  0  0
 18 19  1  0  0  0  0
M  END
>  <minimizedAffinity>
-4.91453457

$$$$

 OpenBabel03272503383D

 19 20  0  0  1  0  0  0  0  0999 V2000
   39.2240   22.9720   37.9480 C   0  0  0  0  0  0  0  0  0  0  0  0
   38.4820   23.8130   37.1090 C   0  0  0  0  0  0  0  0  0  0  0  0
   39.0650   24.2500   35.9210 C   0  0  0  0  0  0  0  0  0  0  0  0
   40.3260   23.8350   35.6410 N   0  0  0  0  0  0  0  0  0  0  0  0
   41.0280   23.0140   36.4770 C   0  0  0  0  0  0  0  0  0  0  0  0
   40.4660   22.6000   37.6100 N   0  0  0  0  0  0  0  0  0  0  0  0
   37.4990   24.1660   37.2780 H   0  0  0  0  0  0  0  0  0  0  0  0
   42.0340   22.6880   36.2430 H   0  0  0  0  0  0  0  0  0  0  0  0
   39.2550   25.7300   33.9270 C   0  0  1  0  0  3  0  0  0  0  0  0
   38.3460   25.1460   34.9730 C   0  0  2  0  0  3  0  0  0  0  0  0
   37.7970   26.2450   35.6050 O   0  0  0  0  0  0  0  0  0  0  0  0
   38.8370   27.1770   35.7570 C   0  0  0  0  0  2  0  0  0  0  0  0
   39.7430   27.0040   34.5860 C   0  0  1  0  0  3  0  0  0  0  0  0
   40.2620   24.8930   33.5120 O   0  0  0  0  0  0  0  0  0  0  0  0
   40.5030   25.1990   32.5850 H   0  0  0  0  0  0  0  0  0  0  0  0
   41.0710   26.8470   34.8950 O   0  0  0  0  0  0  0  0  0  0  0  0
   41.5310   27.6770   35.1560 H   0  0  0  0  0  0  0  0  0  0  0  0
   38.5050   22.6230   39.0930 O   0  0  0  0  0  0  0  0  0  0  0  0
   39.0230   22.4270   39.9380 H   0  0  0  0  0  0  0  0  0  0  0  0
  1 18  1  0  0  0  0
  2  7  1  0  0  0  0
  2  1  2  0  0  0  0
  3  2  1  0  0  0  0
  4  3  2  0  0  0  0
  4  5  1  0  0  0  0
  5  6  2  0  0  0  0
  6  1  1  0  0  0  0
  8  5  1  0  0  0  0
  9 14  1  1  0  0  0
  9 13  1  0  0  0  0
  9 10  1  0  0  0  0
 10 11  1  0  0  0  0
 10  3  1  1  0  0  0
 11 12  1  0  0  0  0
 13 16  1  1  0  0  0
 13 12  1  0  0  0  0
 15 14  1  0  0  0  0
 16 17  1  0  0  0  0
 18 19  1  0  0  0  0
M  END
>  <minimizedAffinity>
-4.64121532

$$$$

 OpenBabel03272503383D

 19 20  0  0  1  0  0  0  0  0999 V2000
   34.1670   31.4550   36.5600 C   0  0  0  0  0  0  0  0  0  0  0  0
   32.8690   31.1430   36.9840 C   0  0  0  0  0  0  0  0  0  0  0  0
   32.1180   30.2480   36.2250 C   0  0  0  0  0  0  0  0  0  0  0  0
   32.6870   29.7260   35.1110 N   0  0  0  0  0  0  0  0  0  0  0  0
   33.9560   30.0460   34.7190 C   0  0  0  0  0  0  0  0  0  0  0  0
   34.6690   30.9010   35.4480 N   0  0  0  0  0  0  0  0  0  0  0  0
   32.3770   31.5210   37.8420 H   0  0  0  0  0  0  0  0  0  0  0  0
   34.4010   29.6230   33.8270 H   0  0  0  0  0  0  0  0  0  0  0  0
   30.6940   28.6980   37.5550 C   0  0  1  0  0  3  0  0  0  0  0  0
   30.7300   29.8630   36.6060 C   0  0  2  0  0  3  0  0  0  0  0  0
   29.9860   29.4460   35.5190 O   0  0  0  0  0  0  0  0  0  0  0  0
   30.3350   28.1050   35.2880 C   0  0  0  0  0  2  0  0  0  0  0  0
   30.6460   27.5070   36.6190 C   0  0  1  0  0  3  0  0  0  0  0  0
   31.7290   28.6600   38.4560 O   0  0  0  0  0  0  0  0  0  0  0  0
   31.3830   28.1400   39.2440 H   0  0  0  0  0  0  0  0  0  0  0  0
   31.8500   26.8520   36.6950 O   0  0  0  0  0  0  0  0  0  0  0  0
   31.8600   25.9650   36.2700 H   0  0  0  0  0  0  0  0  0  0  0  0
   34.7860   32.3610   37.4230 O   0  0  0  0  0  0  0  0  0  0  0  0
   35.4800   32.9870   37.0370 H   0  0  0  0  0  0  0  0  0  0  0  0
  1  2  1  0  0  0  0
  1 18  1  0  0  0  0
  2  7  1  0  0  0  0
  3  2  2  0  0  0  0
  4  3  1  0  0  0  0
  5  4  2  0  0  0  0
  5  6  1  0  0  0  0
  6  1  2  0  0  0  0
  8  5  1  0  0  0  0
  9 14  1  6  0  0  0
 10  3  1  6  0  0  0
 10  9  1  0  0  0  0
 11 10  1  0  0  0  0
 12 11  1  0  0  0  0
 12 13  1  0  0  0  0
 13 16  1  6  0  0  0
 13  9  1  0  0  0  0
 14 15  1  0  0  0  0
 17 16  1  0  0  0  0
 19 18  1  0  0  0  0
M  END
>  <minimizedAffinity>
-4.4032836

$$$$

 OpenBabel03272503383D

 19 20  0  0  1  0  0  0  0  0999 V2000
   38.6820   23.0120   37.1990 C   0  0  0  0  0  0  0  0  0  0  0  0
   38.3790   24.3690   37.0290 C   0  0  0  0  0  0  0  0  0  0  0  0
   38.0960   24.8320   35.7450 C   0  0  0  0  0  0  0  0  0  0  0  0
   38.1310   23.9390   34.7250 N   0  0  0  0  0  0  0  0  0  0  0  0
   38.4300   22.6190   34.9180 C   0  0  0  0  0  0  0  0  0  0  0  0
   38.6990   22.1830   36.1450 N   0  0  0  0  0  0  0  0  0  0  0  0
   38.3380   25.1060   37.7870 H   0  0  0  0  0  0  0  0  0  0  0  0
   38.4550   21.9150   34.0960 H   0  0  0  0  0  0  0  0  0  0  0  0
   37.6260   26.5540   34.0090 C   0  0  1  0  0  3  0  0  0  0  0  0
   37.7640   26.2590   35.4770 C   0  0  2  0  0  3  0  0  0  0  0  0
   38.7570   27.1170   35.9090 O   0  0  0  0  0  0  0  0  0  0  0  0
   39.7440   27.1190   34.9100 C   0  0  0  0  0  2  0  0  0  0  0  0
   39.0400   26.9250   33.6100 C   0  0  1  0  0  3  0  0  0  0  0  0
   37.0850   25.5330   33.2680 O   0  0  0  0  0  0  0  0  0  0  0  0
   36.6700   25.9720   32.4640 H   0  0  0  0  0  0  0  0  0  0  0  0
   39.5420   25.9200   32.8210 O   0  0  0  0  0  0  0  0  0  0  0  0
   40.3810   26.1440   32.3580 H   0  0  0  0  0  0  0  0  0  0  0  0
   38.9400   22.7060   38.5360 O   0  0  0  0  0  0  0  0  0  0  0  0
   39.5750   21.9450   38.7360 H   0  0  0  0  0  0  0  0  0  0  0  0
  1 18  1  0  0  0  0
  2  1  1  0  0  0  0
  2  7  1  0  0  0  0
  3  2  2  0  0  0  0
  4  5  2  0  0  0  0
  4  3  1  0  0  0  0
  5  6  1  0  0  0  0
  6  1  2  0  0  0  0
  8  5  1  0  0  0  0
  9 14  1  6  0  0  0
  9 10  1  0  0  0  0
 10  3  1  6  0  0  0
 10 11  1  0  0  0  0
 12 11  1  0  0  0  0
 13 16  1  1  0  0  0
 13  9  1  0  0  0  0
 13 12  1  0  0  0  0
 15 14  1  0  0  0  0
 17 16  1  0  0  0  0
 18 19  1  0  0  0  0
M  END
>  <minimizedAffinity>
-4.28495359

$$$$

 OpenBabel03272503383D

 19 20  0  0  1  0  0  0  0  0999 V2000
   36.8990   21.5340   33.3570 C   0  0  0  0  0  0  0  0  0  0  0  0
   37.8870   22.4140   33.8180 C   0  0  0  0  0  0  0  0  0  0  0  0
   38.0220   22.6000   35.1930 C   0  0  0  0  0  0  0  0  0  0  0  0
   37.1850   21.9180   36.0130 N   0  0  0  0  0  0  0  0  0  0  0  0
   36.2290   21.0650   35.5370 C   0  0  0  0  0  0  0  0  0  0  0  0
   36.1050   20.8910   34.2240 N   0  0  0  0  0  0  0  0  0  0  0  0
   38.5640   22.9700   33.2250 H   0  0  0  0  0  0  0  0  0  0  0  0
   35.5660   20.5250   36.2000 H   0  0  0  0  0  0  0  0  0  0  0  0
   39.6130   23.0110   37.0630 C   0  0  1  0  0  3  0  0  0  0  0  0
   39.0460   23.5180   35.7660 C   0  0  2  0  0  3  0  0  0  0  0  0
   38.5230   24.7570   36.0800 O   0  0  0  0  0  0  0  0  0  0  0  0
   37.8920   24.6190   37.3270 C   0  0  0  0  0  2  0  0  0  0  0  0
   38.6710   23.6020   38.0920 C   0  0  1  0  0  3  0  0  0  0  0  0
   39.7390   21.6450   37.1390 O   0  0  0  0  0  0  0  0  0  0  0  0
   40.4720   21.4780   37.8070 H   0  0  0  0  0  0  0  0  0  0  0  0
   37.9260   22.5820   38.6300 O   0  0  0  0  0  0  0  0  0  0  0  0
   37.4170   22.8290   39.4350 H   0  0  0  0  0  0  0  0  0  0  0  0
   36.8900   21.4560   31.9630 O   0  0  0  0  0  0  0  0  0  0  0  0
   36.0140   21.2490   31.5040 H   0  0  0  0  0  0  0  0  0  0  0  0
  1  2  2  0  0  0  0
  1  6  1  0  0  0  0
  2  3  1  0  0  0  0
  3  4  2  0  0  0  0
  5  4  1  0  0  0  0
  5  8  1  0  0  0  0
  6  5  2  0  0  0  0
  7  2  1  0  0  0  0
  9 14  1  6  0  0  0
  9 13  1  0  0  0  0
 10  3  1  1  0  0  0
 10 11  1  0  0  0  0
 10  9  1  0  0  0  0
 11 12  1  0  0  0  0
 12 13  1  0  0  0  0
 13 16  1  6  0  0  0
 14 15  1  0  0  0  0
 16 17  1  0  0  0  0
 18  1  1  0  0  0  0
 19 18  1  0  0  0  0
M  END
>  <minimizedAffinity>
-4.26838017

$$$$

 OpenBabel03272503383D

 19 20  0  0  1  0  0  0  0  0999 V2000
   40.3680   26.6360   34.8490 C   0  0  0  0  0  0  0  0  0  0  0  0
   40.7650   25.2970   34.7350 C   0  0  0  0  0  0  0  0  0  0  0  0
   39.9510   24.3120   35.2930 C   0  0  0  0  0  0  0  0  0  0  0  0
   38.8140   24.7060   35.9190 N   0  0  0  0  0  0  0  0  0  0  0  0
   38.4490   26.0200   36.0150 C   0  0  0  0  0  0  0  0  0  0  0  0
   39.2300   26.9550   35.4810 N   0  0  0  0  0  0  0  0  0  0  0  0
   41.6380   24.9360   34.2600 H   0  0  0  0  0  0  0  0  0  0  0  0
   37.5390   26.3230   36.5170 H   0  0  0  0  0  0  0  0  0  0  0  0
   39.5800   22.0440   36.2510 C   0  0  1  0  0  3  0  0  0  0  0  0
   40.2990   22.8660   35.2180 C   0  0  2  0  0  3  0  0  0  0  0  0
   41.6390   22.6370   35.4660 O   0  0  0  0  0  0  0  0  0  0  0  0
   41.7910   22.6400   36.8620 C   0  0  0  0  0  2  0  0  0  0  0  0
   40.5250   22.0950   37.4340 C   0  0  1  0  0  3  0  0  0  0  0  0
   38.3050   22.4690   36.5350 O   0  0  0  0  0  0  0  0  0  0  0  0
   37.8180   21.6570   36.8720 H   0  0  0  0  0  0  0  0  0  0  0  0
   39.9490   22.8660   38.4120 O   0  0  0  0  0  0  0  0  0  0  0  0
   40.3930   22.8130   39.2890 H   0  0  0  0  0  0  0  0  0  0  0  0
   41.2830   27.4970   34.2420 O   0  0  0  0  0  0  0  0  0  0  0  0
   41.3740   28.4330   34.6130 H   0  0  0  0  0  0  0  0  0  0  0  0
  1  6  1  0  0  0  0
  2  1  2  0  0  0  0
  2  3  1  0  0  0  0
  3  4  2  0  0  0  0
  4  5  1  0  0  0  0
  5  8  1  0  0  0  0
  6  5  2  0  0  0  0
  7  2  1  0  0  0  0
  9 14  1  1  0  0  0
  9 13  1  0  0  0  0
 10  3  1  1  0  0  0
 10 11  1  0  0  0  0
 10  9  1  0  0  0  0
 11 12  1  0  0  0  0
 12 13  1  0  0  0  0
 13 16  1  1  0  0  0
 14 15  1  0  0  0  0
 16 17  1  0  0  0  0
 18 19  1  0  0  0  0
 18  1  1  0  0  0  0
M  END
>  <minimizedAffinity>
-4.23917103

$$$$

 OpenBabel03272503383D

 19 20  0  0  1  0  0  0  0  0999 V2000
   35.5560   21.0080   36.2820 C   0  0  0  0  0  0  0  0  0  0  0  0
   36.5750   21.8260   36.7860 C   0  0  0  0  0  0  0  0  0  0  0  0
   37.5560   22.2840   35.9080 C   0  0  0  0  0  0  0  0  0  0  0  0
   37.4700   21.9110   34.6070 N   0  0  0  0  0  0  0  0  0  0  0  0
   36.4640   21.1120   34.1410 C   0  0  0  0  0  0  0  0  0  0  0  0
   35.5300   20.6770   34.9830 N   0  0  0  0  0  0  0  0  0  0  0  0
   36.6900   22.1450   37.7880 H   0  0  0  0  0  0  0  0  0  0  0  0
   36.4050   20.8200   33.1000 H   0  0  0  0  0  0  0  0  0  0  0  0
   39.0760   24.1670   35.3240 C   0  0  1  0  0  3  0  0  0  0  0  0
   38.6740   23.1570   36.3620 C   0  0  2  0  0  3  0  0  0  0  0  0
   39.8280   22.4410   36.6130 O   0  0  0  0  0  0  0  0  0  0  0  0
   40.4460   22.2330   35.3690 C   0  0  0  0  0  2  0  0  0  0  0  0
   40.1300   23.4230   34.5270 C   0  0  1  0  0  3  0  0  0  0  0  0
   38.0400   24.6520   34.5640 O   0  0  0  0  0  0  0  0  0  0  0  0
   38.3400   25.5570   34.2450 H   0  0  0  0  0  0  0  0  0  0  0  0
   39.6120   23.1400   33.2890 O   0  0  0  0  0  0  0  0  0  0  0  0
   40.2730   22.8250   32.6320 H   0  0  0  0  0  0  0  0  0  0  0  0
   34.6550   20.6330   37.2800 O   0  0  0  0  0  0  0  0  0  0  0  0
   34.1790   19.7470   37.1840 H   0  0  0  0  0  0  0  0  0  0  0  0
  1  2  1  0  0  0  0
  1 18  1  0  0  0  0
  2  7  1  0  0  0  0
  3  2  2  0  0  0  0
  4  3  1  0  0  0  0
  5  4  2  0  0  0  0
  5  6  1  0  0  0  0
  6  1  2  0  0  0  0
  8  5  1  0  0  0  0
  9 14  1  6  0  0  0
  9 10  1  0  0  0  0
 10  3  1  6  0  0  0
 10 11  1  0  0  0  0
 12 11  1  0  0  0  0
 13 16  1  6  0  0  0
 13  9  1  0  0  0  0
 13 12  1  0  0  0  0
 15 14  1  0  0  0  0
 17 16  1  0  0  0  0
 19 18  1  0  0  0  0
M  END
>  <minimizedAffinity>
-4.09232712

$$$$

 OpenBabel03272503383D

 19 20  0  0  1  0  0  0  0  0999 V2000
   38.3360   26.8920   35.3780 C   0  0  0  0  0  0  0  0  0  0  0  0
   39.1550   25.7560   35.3360 C   0  0  0  0  0  0  0  0  0  0  0  0
   38.9250   24.8060   34.3420 C   0  0  0  0  0  0  0  0  0  0  0  0
   37.9150   25.0340   33.4670 N   0  0  0  0  0  0  0  0  0  0  0  0
   37.1290   26.1510   33.5300 C   0  0  0  0  0  0  0  0  0  0  0  0
   37.3540   27.0540   34.4800 N   0  0  0  0  0  0  0  0  0  0  0  0
   39.9540   25.5300   35.9910 H   0  0  0  0  0  0  0  0  0  0  0  0
   36.3250   26.3220   32.8250 H   0  0  0  0  0  0  0  0  0  0  0  0
   38.9800   22.3280   34.5770 C   0  0  1  0  0  3  0  0  0  0  0  0
   39.7500   23.5710   34.2260 C   0  0  2  0  0  3  0  0  0  0  0  0
   40.8200   23.5720   35.1000 O   0  0  0  0  0  0  0  0  0  0  0  0
   40.3160   23.1660   36.3470 C   0  0  0  0  0  2  0  0  0  0  0  0
   39.2080   22.2060   36.0710 C   0  0  1  0  0  3  0  0  0  0  0  0
   37.6550   22.3530   34.2140 O   0  0  0  0  0  0  0  0  0  0  0  0
   37.3860   21.3900   34.1080 H   0  0  0  0  0  0  0  0  0  0  0  0
   38.0260   22.4820   36.7110 O   0  0  0  0  0  0  0  0  0  0  0  0
   38.0160   22.2520   37.6670 H   0  0  0  0  0  0  0  0  0  0  0  0
   38.6920   27.7440   36.4240 O   0  0  0  0  0  0  0  0  0  0  0  0
   37.9680   28.3160   36.8390 H   0  0  0  0  0  0  0  0  0  0  0  0
  1 18  1  0  0  0  0
  2  1  1  0  0  0  0
  2  7  1  0  0  0  0
  3  2  2  0  0  0  0
  4  5  2  0  0  0  0
  4  3  1  0  0  0  0
  5  6  1  0  0  0  0
  6  1  2  0  0  0  0
  8  5  1  0  0  0  0
  9 14  1  1  0  0  0
  9 13  1  0  0  0  0
 10  3  1  1  0  0  0
 10  9  1  0  0  0  0
 10 11  1  0  0  0  0
 11 12  1  0  0  0  0
 13 12  1  0  0  0  0
 13 16  1  1  0  0  0
 15 14  1  0  0  0  0
 16 17  1  0  0  0  0
 18 19  1  0  0  0  0
M  END
>  <minimizedAffinity>
-4.08498001

$$$$

 OpenBabel03272503383D

 19 20  0  0  1  0  0  0  0  0999 V2000
   36.6490   27.5520   31.7450 C   0  0  0  0  0  0  0  0  0  0  0  0
   37.1340   26.6180   32.6710 C   0  0  0  0  0  0  0  0  0  0  0  0
   37.0180   26.9060   34.0290 C   0  0  0  0  0  0  0  0  0  0  0  0
   36.4400   28.0800   34.3840 N   0  0  0  0  0  0  0  0  0  0  0  0
   35.9750   28.9740   33.4610 C   0  0  0  0  0  0  0  0  0  0  0  0
   36.0880   28.6940   32.1650 N   0  0  0  0  0  0  0  0  0  0  0  0
   37.5930   25.6910   32.4500 H   0  0  0  0  0  0  0  0  0  0  0  0
   35.5150   29.9090   33.7550 H   0  0  0  0  0  0  0  0  0  0  0  0
   38.6610   26.5310   35.8620 C   0  0  1  0  0  3  0  0  0  0  0  0
   37.5080   25.9680   35.0780 C   0  0  2  0  0  3  0  0  0  0  0  0
   37.9970   24.7920   34.5420 O   0  0  0  0  0  0  0  0  0  0  0  0
   39.3080   25.0630   34.1170 C   0  0  0  0  0  2  0  0  0  0  0  0
   39.8630   26.0800   35.0570 C   0  0  1  0  0  3  0  0  0  0  0  0
   38.6040   27.8870   36.0710 O   0  0  0  0  0  0  0  0  0  0  0  0
   39.1400   28.0550   36.9050 H   0  0  0  0  0  0  0  0  0  0  0  0
   40.4180   27.1840   34.4590 O   0  0  0  0  0  0  0  0  0  0  0  0
   41.3070   27.0310   34.0650 H   0  0  0  0  0  0  0  0  0  0  0  0
   36.8370   27.1200   30.4320 O   0  0  0  0  0  0  0  0  0  0  0  0
   36.9600   27.8210   29.7130 H   0  0  0  0  0  0  0  0  0  0  0  0
  1  6  2  0  0  0  0
  1  2  1  0  0  0  0
  2  3  2  0  0  0  0
  3  4  1  0  0  0  0
  5  8  1  0  0  0  0
  5  4  2  0  0  0  0
  6  5  1  0  0  0  0
  7  2  1  0  0  0  0
  9 14  1  6  0  0  0
 10  3  1  6  0  0  0
 10  9  1  0  0  0  0
 11 10  1  0  0  0  0
 12 11  1  0  0  0  0
 12 13  1  0  0  0  0
 13 16  1  6  0  0  0
 13  9  1  0  0  0  0
 14 15  1  0  0  0  0
 17 16  1  0  0  0  0
 18  1  1  0  0  0  0
 19 18  1  0  0  0  0
M  END
>  <minimizedAffinity>
-4.07354689

$$$$
