
 OpenBabel03272509503D

 33 35  0  0  1  0  0  0  0  0999 V2000
   37.3230   30.4880   50.9610 C   0  0  0  0  0  0  0  0  0  0  0  0
   37.9900   30.7160   49.7480 C   0  0  0  0  0  0  0  0  0  0  0  0
   37.4380   30.1910   48.5930 C   0  0  0  0  0  0  0  0  0  0  0  0
   36.2810   29.4820   48.6870 N   0  0  0  0  0  0  0  0  0  0  0  0
   35.6580   29.2760   49.8660 C   0  0  0  0  0  0  0  0  0  0  0  0
   36.2000   29.7890   50.9910 N   0  0  0  0  0  0  0  0  0  0  0  0
   37.7900   30.9170   51.8360 H   0  0  0  0  0  0  0  0  0  0  0  0
   38.9070   31.2800   49.6810 H   0  0  0  0  0  0  0  0  0  0  0  0
   37.1540   31.0140   46.2500 C   0  0  1  0  0  3  0  0  0  0  0  0
   38.0750   30.3810   47.2410 C   0  0  1  0  0  3  0  0  0  0  0  0
   39.1050   31.3260   47.3940 O   0  0  0  0  0  0  0  0  0  0  0  0
   39.4700   31.6430   46.1020 C   0  0  0  0  0  2  0  0  0  0  0  0
   38.1560   31.7720   45.3730 C   0  0  2  0  0  3  0  0  0  0  0  0
   36.6040   29.9960   45.4800 O   0  0  0  0  0  0  0  0  0  0  0  0
   37.3190   29.3010   45.3610 H   0  0  0  0  0  0  0  0  0  0  0  0
   37.8240   33.1000   45.2550 O   0  0  0  0  0  0  0  0  0  0  0  0
   36.8920   33.1970   44.9160 H   0  0  0  0  0  0  0  0  0  0  0  0
   34.5150   28.5430   49.7570 O   0  0  0  0  0  0  0  0  0  0  0  0
   33.7780   28.6440   48.5330 C   0  0  0  0  0  0  0  0  0  0  0  0
   34.4320   28.8390   47.6800 H   0  0  0  0  0  0  0  0  0  0  0  0
   33.1050   29.5280   48.7030 H   0  0  0  0  0  0  0  0  0  0  0  0
   32.8640   27.4600   48.3820 C   0  0  0  0  0  0  0  0  0  0  0  0
   33.0500   26.9910   47.3950 H   0  0  0  0  0  0  0  0  0  0  0  0
   33.0540   26.6760   49.1420 H   0  0  0  0  0  0  0  0  0  0  0  0
   31.4280   27.8560   48.3630 C   0  0  0  0  0  0  0  0  0  0  0  0
   30.7380   27.7450   49.5450 C   0  0  0  0  0  0  0  0  0  0  0  0
   29.3970   28.0860   49.6400 C   0  0  0  0  0  0  0  0  0  0  0  0
   28.7690   28.5320   48.5520 N   0  0  0  0  0  0  0  0  0  0  0  0
   29.4560   28.6380   47.3920 C   0  0  0  0  0  0  0  0  0  0  0  0
   30.7570   28.3110   47.2870 N   0  0  0  0  0  0  0  0  0  0  0  0
   31.2250   27.3850   50.4420 H   0  0  0  0  0  0  0  0  0  0  0  0
   28.8860   27.9840   50.5920 H   0  0  0  0  0  0  0  0  0  0  0  0
   28.8910   29.0050   46.5530 H   0  0  0  0  0  0  0  0  0  0  0  0
  1  6  1  0  0  0  0
  1  7  1  0  0  0  0
  2  1  2  0  0  0  0
  3  4  2  0  0  0  0
  3  2  1  0  0  0  0
  4  5  1  0  0  0  0
  5  6  2  0  0  0  0
  8  2  1  0  0  0  0
  9 14  1  6  0  0  0
  9 10  1  0  0  0  0
 10 11  1  0  0  0  0
 10  3  1  1  0  0  0
 12 11  1  0  0  0  0
 13 16  1  1  0  0  0
 13 12  1  0  0  0  0
 13  9  1  0  0  0  0
 15 14  1  0  0  0  0
 17 16  1  0  0  0  0
 18  5  1  0  0  0  0
 19 21  1  0  0  0  0
 19 18  1  0  0  0  0
 20 19  1  0  0  0  0
 22 19  1  0  0  0  0
 22 24  1  0  0  0  0
 23 22  1  0  0  0  0
 25 22  1  0  0  0  0
 25 26  1  0  0  0  0
 26 27  2  0  0  0  0
 26 31  1  0  0  0  0
 27 32  1  0  0  0  0
 28 27  1  0  0  0  0
 29 28  2  0  0  0  0
 30 29  1  0  0  0  0
 30 25  2  0  0  0  0
 33 29  1  0  0  0  0
M  END
>  <minimizedAffinity>
-5.37635422

>  <minimizedRMSD>
0.653305471

$$$$
