
 OpenBabel03272508533D

 38 41  0  0  1  0  0  0  0  0999 V2000
   38.4370   31.7840   44.6020 C   0  0  0  0  0  0  0  0  0  0  0  0
   37.4170   32.5100   44.4880 O   0  0  0  0  0  0  0  0  0  0  0  0
   38.8740   31.3510   45.9050 N   0  0  0  0  0  0  0  0  0  0  0  0
   39.7910   30.9230   46.0810 H   0  0  0  0  0  0  0  0  0  0  0  0
   39.2110   31.3550   43.4220 C   0  0  0  0  0  0  0  0  0  0  0  0
   40.2060   30.4310   43.5950 C   0  0  0  0  0  0  0  0  0  0  0  0
   40.9260   30.0430   42.4770 C   0  0  0  0  0  0  0  0  0  0  0  0
   40.6000   30.6050   41.2630 C   0  0  0  0  0  0  0  0  0  0  0  0
   39.5830   31.5500   41.0850 C   0  0  0  0  0  0  0  0  0  0  0  0
   38.9210   31.8850   42.2130 N   0  0  0  0  0  0  0  0  0  0  0  0
   40.4680   29.9860   44.5370 H   0  0  0  0  0  0  0  0  0  0  0  0
   41.7150   29.3260   42.5400 H   0  0  0  0  0  0  0  0  0  0  0  0
   41.1400   30.3260   40.3670 H   0  0  0  0  0  0  0  0  0  0  0  0
   37.9600   31.7050   39.1960 C   0  0  1  0  0  3  0  0  0  0  0  0
   39.2950   32.1040   39.7560 C   0  0  2  0  0  3  0  0  0  0  0  0
   40.2520   31.7630   38.8110 O   0  0  0  0  0  0  0  0  0  0  0  0
   39.7660   30.7020   38.0850 C   0  0  0  0  0  2  0  0  0  0  0  0
   38.2710   30.7710   38.0680 C   0  0  2  0  0  3  0  0  0  0  0  0
   37.2410   30.9900   40.1630 O   0  0  0  0  0  0  0  0  0  0  0  0
   37.3210   30.0000   40.0370 H   0  0  0  0  0  0  0  0  0  0  0  0
   37.7720   31.2470   36.8430 O   0  0  0  0  0  0  0  0  0  0  0  0
   38.5450   31.5210   36.2720 H   0  0  0  0  0  0  0  0  0  0  0  0
   38.1030   30.7040   48.1820 C   0  0  2  0  0  0  0  0  0  0  0  0
   38.6690   32.0590   48.2970 C   0  0  0  0  0  0  0  0  0  0  0  0
   37.9590   31.5400   47.0170 C   0  0  1  0  0  0  0  0  0  0  0  0
   38.8820   29.9030   48.2210 H   0  0  0  0  0  0  0  0  0  0  0  0
   38.1370   32.8850   48.7770 H   0  0  0  0  0  0  0  0  0  0  0  0
   39.7580   32.2030   48.2530 H   0  0  0  0  0  0  0  0  0  0  0  0
   36.9750   32.0070   46.8000 H   0  0  0  0  0  0  0  0  0  0  0  0
   34.5710   30.0560   49.0640 C   0  0  0  0  0  0  0  0  0  0  0  0
   34.6780   29.5160   50.3850 C   0  0  0  0  0  0  0  0  0  0  0  0
   36.0050   29.3950   50.9430 C   0  0  0  0  0  0  0  0  0  0  0  0
   37.0650   29.7930   50.2060 N   0  0  0  0  0  0  0  0  0  0  0  0
   36.8890   30.2990   48.9540 C   0  0  0  0  0  0  0  0  0  0  0  0
   35.6550   30.4440   48.3560 N   0  0  0  0  0  0  0  0  0  0  0  0
   33.5600   30.1220   48.7000 H   0  0  0  0  0  0  0  0  0  0  0  0
   33.8160   29.2140   50.9320 H   0  0  0  0  0  0  0  0  0  0  0  0
   36.1190   28.9930   51.9310 H   0  0  0  0  0  0  0  0  0  0  0  0
  1  3  1  0  0  0  0
  2  1  2  0  0  0  0
  3  4  1  0  0  0  0
  3 25  1  0  0  0  0
  5  6  1  0  0  0  0
  5  1  1  0  0  0  0
  6 11  1  0  0  0  0
  7 12  1  0  0  0  0
  7  6  2  0  0  0  0
  8  7  1  0  0  0  0
  9  8  2  0  0  0  0
  9 10  1  0  0  0  0
 10  5  2  0  0  0  0
 13  8  1  0  0  0  0
 14 15  1  0  0  0  0
 14 19  1  1  0  0  0
 15  9  1  1  0  0  0
 16 15  1  0  0  0  0
 17 16  1  0  0  0  0
 18 21  1  6  0  0  0
 18 17  1  0  0  0  0
 18 14  1  0  0  0  0
 20 19  1  0  0  0  0
 22 21  1  0  0  0  0
 23 26  1  6  0  0  0
 23 24  1  0  0  0  0
 23 34  1  0  0  0  0
 24 27  1  0  0  0  0
 25 29  1  6  0  0  0
 25 23  1  0  0  0  0
 25 24  1  0  0  0  0
 28 24  1  0  0  0  0
 30 31  1  0  0  0  0
 31 37  1  0  0  0  0
 31 32  2  0  0  0  0
 32 38  1  0  0  0  0
 33 32  1  0  0  0  0
 34 33  2  0  0  0  0
 35 34  1  0  0  0  0
 35 30  2  0  0  0  0
 36 30  1  0  0  0  0
M  END
>  <minimizedAffinity>
-5.13425064

>  <minimizedRMSD>
1.13236284

$$$$
