
 OpenBabel03272504163D

 24 25  0  0  1  0  0  0  0  0999 V2000
   38.1880   23.5740   35.6390 C   0  0  0  0  0  0  0  0  0  0  0  0
   38.9590   24.4300   34.8300 C   0  0  0  0  0  0  0  0  0  0  0  0
   39.3690   23.9040   33.6050 C   0  0  0  0  0  0  0  0  0  0  0  0
   39.0310   22.6430   33.2370 N   0  0  0  0  0  0  0  0  0  0  0  0
   38.2790   21.8500   34.0590 C   0  0  0  0  0  0  0  0  0  0  0  0
   37.8690   22.3280   35.2460 N   0  0  0  0  0  0  0  0  0  0  0  0
   39.9610   24.4970   32.9400 H   0  0  0  0  0  0  0  0  0  0  0  0
   38.0030   20.8470   33.7790 H   0  0  0  0  0  0  0  0  0  0  0  0
   38.1400   26.5910   35.7680 C   0  0  2  0  0  3  0  0  0  0  0  0
   39.2820   25.7930   35.2930 C   0  0  2  0  0  3  0  0  0  0  0  0
   39.6820   26.4890   34.1670 O   0  0  0  0  0  0  0  0  0  0  0  0
   38.6480   27.2360   33.6470 C   0  0  0  0  0  2  0  0  0  0  0  0
   37.4060   26.8360   34.4690 C   0  0  2  0  0  3  0  0  0  0  0  0
   38.6190   27.8330   36.1860 O   0  0  0  0  0  0  0  0  0  0  0  0
   38.1000   28.2210   36.9190 H   0  0  0  0  0  0  0  0  0  0  0  0
   36.4740   27.8390   34.5220 O   0  0  0  0  0  0  0  0  0  0  0  0
   35.5770   27.4110   34.5650 H   0  0  0  0  0  0  0  0  0  0  0  0
   37.7010   23.9350   36.8840 O   0  0  0  0  0  0  0  0  0  0  0  0
   38.6830   24.3440   39.3560 O   0  0  0  0  0  0  0  0  0  0  0  0
   38.2990   23.2740   38.3380 P   0  0  0  0  0  0  0  0  0  0  0  0
   37.0520   22.3070   38.9530 O   0  0  0  0  0  0  0  0  0  0  0  0
   37.3520   21.7090   39.6740 H   0  0  0  0  0  0  0  0  0  0  0  0
   39.6860   22.3560   38.0550 O   0  0  0  0  0  0  0  0  0  0  0  0
   39.5180   21.7040   37.3050 H   0  0  0  0  0  0  0  0  0  0  0  0
  1 18  1  0  0  0  0
  2  1  2  0  0  0  0
  3  2  1  0  0  0  0
  4  3  2  0  0  0  0
  4  5  1  0  0  0  0
  5  6  2  0  0  0  0
  6  1  1  0  0  0  0
  7  3  1  0  0  0  0
  8  5  1  0  0  0  0
  9 14  1  6  0  0  0
 10  2  1  6  0  0  0
 10  9  1  0  0  0  0
 11 10  1  0  0  0  0
 12 11  1  0  0  0  0
 12 13  1  0  0  0  0
 13 16  1  1  0  0  0
 13  9  1  0  0  0  0
 14 15  1  0  0  0  0
 16 17  1  0  0  0  0
 18 20  1  0  0  0  0
 20 21  1  0  0  0  0
 20 19  2  0  0  0  0
 21 22  1  0  0  0  0
 23 20  1  0  0  0  0
 24 23  1  0  0  0  0
M  END
>  <minimizedAffinity>
-5.11087513

$$$$

 OpenBabel03272504163D

 24 25  0  0  1  0  0  0  0  0999 V2000
   37.1420   22.6110   32.8520 C   0  0  0  0  0  0  0  0  0  0  0  0
   37.9650   23.4910   33.5790 C   0  0  0  0  0  0  0  0  0  0  0  0
   37.7830   24.8490   33.3200 C   0  0  0  0  0  0  0  0  0  0  0  0
   36.8610   25.2730   32.4190 N   0  0  0  0  0  0  0  0  0  0  0  0
   36.0840   24.3760   31.7380 C   0  0  0  0  0  0  0  0  0  0  0  0
   36.2360   23.0620   31.9650 N   0  0  0  0  0  0  0  0  0  0  0  0
   38.3770   25.5760   33.8340 H   0  0  0  0  0  0  0  0  0  0  0  0
   35.3480   24.6990   31.0200 H   0  0  0  0  0  0  0  0  0  0  0  0
   38.3830   22.1100   35.6140 C   0  0  2  0  0  3  0  0  0  0  0  0
   38.9410   22.9580   34.5490 C   0  0  2  0  0  3  0  0  0  0  0  0
   39.4070   24.0530   35.2540 O   0  0  0  0  0  0  0  0  0  0  0  0
   38.7450   24.1920   36.4550 C   0  0  0  0  0  2  0  0  0  0  0  0
   37.6220   23.1350   36.4230 C   0  0  2  0  0  3  0  0  0  0  0  0
   39.4330   21.6760   36.4220 O   0  0  0  0  0  0  0  0  0  0  0  0
   39.2820   20.7920   36.8130 H   0  0  0  0  0  0  0  0  0  0  0  0
   37.2650   22.7200   37.6790 O   0  0  0  0  0  0  0  0  0  0  0  0
   36.2950   22.5030   37.6570 H   0  0  0  0  0  0  0  0  0  0  0  0
   37.1920   21.2330   32.9850 O   0  0  0  0  0  0  0  0  0  0  0  0
   36.0210   18.8200   32.7730 O   0  0  0  0  0  0  0  0  0  0  0  0
   35.7960   20.2730   33.1810 P   0  0  0  0  0  0  0  0  0  0  0  0
   35.4030   20.3610   34.8260 O   0  0  0  0  0  0  0  0  0  0  0  0
   34.5010   20.0220   35.0220 H   0  0  0  0  0  0  0  0  0  0  0  0
   34.5290   20.8520   32.2300 O   0  0  0  0  0  0  0  0  0  0  0  0
   34.4130   21.8420   32.3790 H   0  0  0  0  0  0  0  0  0  0  0  0
  1 18  1  0  0  0  0
  1  2  1  0  0  0  0
  3  2  2  0  0  0  0
  3  7  1  0  0  0  0
  4  3  1  0  0  0  0
  5  6  1  0  0  0  0
  5  4  2  0  0  0  0
  6  1  2  0  0  0  0
  8  5  1  0  0  0  0
  9 14  1  1  0  0  0
  9 13  1  0  0  0  0
 10  2  1  6  0  0  0
 10 11  1  0  0  0  0
 10  9  1  0  0  0  0
 11 12  1  0  0  0  0
 13 12  1  0  0  0  0
 13 16  1  1  0  0  0
 14 15  1  0  0  0  0
 17 16  1  0  0  0  0
 18 20  1  0  0  0  0
 19 20  2  0  0  0  0
 20 21  1  0  0  0  0
 21 22  1  0  0  0  0
 23 24  1  0  0  0  0
 23 20  1  0  0  0  0
M  END
>  <minimizedAffinity>
-4.83418322

$$$$

 OpenBabel03272504163D

 24 25  0  0  1  0  0  0  0  0999 V2000
   38.2020   25.0120   33.6500 C   0  0  0  0  0  0  0  0  0  0  0  0
   38.3560   24.8820   35.0430 C   0  0  0  0  0  0  0  0  0  0  0  0
   39.1680   25.8340   35.6580 C   0  0  0  0  0  0  0  0  0  0  0  0
   39.7610   26.8190   34.9370 N   0  0  0  0  0  0  0  0  0  0  0  0
   39.5790   26.9040   33.5840 C   0  0  0  0  0  0  0  0  0  0  0  0
   38.8040   26.0010   32.9630 N   0  0  0  0  0  0  0  0  0  0  0  0
   39.3320   25.7940   36.7140 H   0  0  0  0  0  0  0  0  0  0  0  0
   40.0440   27.6810   33.0000 H   0  0  0  0  0  0  0  0  0  0  0  0
   38.0550   23.6190   37.1730 C   0  0  2  0  0  3  0  0  0  0  0  0
   37.6740   23.7890   35.7620 C   0  0  2  0  0  3  0  0  0  0  0  0
   38.1310   22.6170   35.1870 O   0  0  0  0  0  0  0  0  0  0  0  0
   39.1510   22.0620   35.9290 C   0  0  0  0  0  2  0  0  0  0  0  0
   39.4670   23.1010   37.0240 C   0  0  2  0  0  3  0  0  0  0  0  0
   37.3070   22.5680   37.7040 O   0  0  0  0  0  0  0  0  0  0  0  0
   37.1100   22.6760   38.6560 H   0  0  0  0  0  0  0  0  0  0  0  0
   39.9840   22.5230   38.1540 O   0  0  0  0  0  0  0  0  0  0  0  0
   40.6180   23.1740   38.5580 H   0  0  0  0  0  0  0  0  0  0  0  0
   37.4330   24.1540   32.8820 O   0  0  0  0  0  0  0  0  0  0  0  0
   35.5520   23.6740   31.0190 O   0  0  0  0  0  0  0  0  0  0  0  0
   36.6440   24.6480   31.4530 P   0  0  0  0  0  0  0  0  0  0  0  0
   35.9680   26.1620   31.7990 O   0  0  0  0  0  0  0  0  0  0  0  0
   35.6710   26.6400   30.9930 H   0  0  0  0  0  0  0  0  0  0  0  0
   37.7340   24.7560   30.1710 O   0  0  0  0  0  0  0  0  0  0  0  0
   38.5360   25.3010   30.4480 H   0  0  0  0  0  0  0  0  0  0  0  0
  1  2  1  0  0  0  0
  2  3  2  0  0  0  0
  3  7  1  0  0  0  0
  4  3  1  0  0  0  0
  5  4  2  0  0  0  0
  6  5  1  0  0  0  0
  6  1  2  0  0  0  0
  8  5  1  0  0  0  0
  9 14  1  6  0  0  0
 10  2  1  6  0  0  0
 10  9  1  0  0  0  0
 11 10  1  0  0  0  0
 11 12  1  0  0  0  0
 12 13  1  0  0  0  0
 13  9  1  0  0  0  0
 13 16  1  1  0  0  0
 14 15  1  0  0  0  0
 16 17  1  0  0  0  0
 18  1  1  0  0  0  0
 19 20  2  0  0  0  0
 20 21  1  0  0  0  0
 20 18  1  0  0  0  0
 22 21  1  0  0  0  0
 23 24  1  0  0  0  0
 23 20  1  0  0  0  0
M  END
>  <minimizedAffinity>
-4.7932601

$$$$

 OpenBabel03272504163D

 24 25  0  0  1  0  0  0  0  0999 V2000
   38.5540   25.0930   34.7410 C   0  0  0  0  0  0  0  0  0  0  0  0
   38.1640   25.6550   33.5110 C   0  0  0  0  0  0  0  0  0  0  0  0
   37.7510   26.9860   33.5520 C   0  0  0  0  0  0  0  0  0  0  0  0
   37.7360   27.6780   34.7190 N   0  0  0  0  0  0  0  0  0  0  0  0
   38.1260   27.0880   35.8890 C   0  0  0  0  0  0  0  0  0  0  0  0
   38.5280   25.8070   35.8820 N   0  0  0  0  0  0  0  0  0  0  0  0
   37.4370   27.4770   32.6550 H   0  0  0  0  0  0  0  0  0  0  0  0
   38.1190   27.6260   36.8230 H   0  0  0  0  0  0  0  0  0  0  0  0
   37.6950   25.4950   31.0660 C   0  0  2  0  0  3  0  0  0  0  0  0
   38.2140   24.8430   32.2800 C   0  0  2  0  0  3  0  0  0  0  0  0
   37.3110   23.8130   32.4720 O   0  0  0  0  0  0  0  0  0  0  0  0
   36.1000   24.0920   31.8780 C   0  0  0  0  0  2  0  0  0  0  0  0
   36.2180   25.5470   31.3810 C   0  0  2  0  0  3  0  0  0  0  0  0
   37.8360   24.6060   30.0000 O   0  0  0  0  0  0  0  0  0  0  0  0
   37.9910   25.0510   29.1420 H   0  0  0  0  0  0  0  0  0  0  0  0
   35.4130   25.7930   30.3000 O   0  0  0  0  0  0  0  0  0  0  0  0
   35.1220   26.7430   30.3550 H   0  0  0  0  0  0  0  0  0  0  0  0
   38.9900   23.7860   34.8800 O   0  0  0  0  0  0  0  0  0  0  0  0
   37.3140   21.7050   35.1990 O   0  0  0  0  0  0  0  0  0  0  0  0
   38.2430   22.6700   35.9310 P   0  0  0  0  0  0  0  0  0  0  0  0
   39.5050   21.8150   36.6690 O   0  0  0  0  0  0  0  0  0  0  0  0
   39.2090   21.2930   37.4480 H   0  0  0  0  0  0  0  0  0  0  0  0
   37.3030   23.4660   37.0840 O   0  0  0  0  0  0  0  0  0  0  0  0
   37.8420   24.1970   37.5210 H   0  0  0  0  0  0  0  0  0  0  0  0
  1 18  1  0  0  0  0
  1  6  1  0  0  0  0
  2  3  1  0  0  0  0
  2  1  2  0  0  0  0
  3  4  2  0  0  0  0
  4  5  1  0  0  0  0
  5  8  1  0  0  0  0
  6  5  2  0  0  0  0
  7  3  1  0  0  0  0
  9 14  1  6  0  0  0
  9 13  1  0  0  0  0
  9 10  1  0  0  0  0
 10 11  1  0  0  0  0
 10  2  1  1  0  0  0
 12 11  1  0  0  0  0
 13 16  1  6  0  0  0
 13 12  1  0  0  0  0
 15 14  1  0  0  0  0
 16 17  1  0  0  0  0
 18 20  1  0  0  0  0
 19 20  2  0  0  0  0
 20 21  1  0  0  0  0
 20 23  1  0  0  0  0
 21 22  1  0  0  0  0
 23 24  1  0  0  0  0
M  END
>  <minimizedAffinity>
-4.66315746

$$$$

 OpenBabel03272504163D

 24 25  0  0  1  0  0  0  0  0999 V2000
   37.7800   24.9910   33.6760 C   0  0  0  0  0  0  0  0  0  0  0  0
   38.2690   25.0790   34.9930 C   0  0  0  0  0  0  0  0  0  0  0  0
   38.0180   26.2800   35.6560 C   0  0  0  0  0  0  0  0  0  0  0  0
   37.3400   27.2860   35.0500 N   0  0  0  0  0  0  0  0  0  0  0  0
   36.8840   27.1510   33.7680 C   0  0  0  0  0  0  0  0  0  0  0  0
   37.1100   26.0070   33.1020 N   0  0  0  0  0  0  0  0  0  0  0  0
   38.3640   26.4180   36.6600 H   0  0  0  0  0  0  0  0  0  0  0  0
   36.3430   27.9420   33.2750 H   0  0  0  0  0  0  0  0  0  0  0  0
   38.2400   22.6770   35.6670 C   0  0  2  0  0  3  0  0  0  0  0  0
   38.9920   23.9400   35.5900 C   0  0  2  0  0  3  0  0  0  0  0  0
   39.1670   24.2630   36.9240 O   0  0  0  0  0  0  0  0  0  0  0  0
   38.2030   23.6740   37.7110 C   0  0  0  0  0  2  0  0  0  0  0  0
   37.2140   23.0230   36.7220 C   0  0  2  0  0  3  0  0  0  0  0  0
   39.0690   21.7090   36.2310 O   0  0  0  0  0  0  0  0  0  0  0  0
   38.8900   20.8050   35.9010 H   0  0  0  0  0  0  0  0  0  0  0  0
   36.5710   21.9420   37.2670 O   0  0  0  0  0  0  0  0  0  0  0  0
   35.6610   21.9040   36.8660 H   0  0  0  0  0  0  0  0  0  0  0  0
   37.9420   23.8730   32.8750 O   0  0  0  0  0  0  0  0  0  0  0  0
   37.4580   22.3530   30.7080 O   0  0  0  0  0  0  0  0  0  0  0  0
   37.1780   23.7050   31.3580 P   0  0  0  0  0  0  0  0  0  0  0  0
   35.5200   23.8760   31.6560 O   0  0  0  0  0  0  0  0  0  0  0  0
   34.9960   24.0090   30.8340 H   0  0  0  0  0  0  0  0  0  0  0  0
   37.7190   24.8820   30.2790 O   0  0  0  0  0  0  0  0  0  0  0  0
   37.6620   25.7930   30.7080 H   0  0  0  0  0  0  0  0  0  0  0  0
  1  2  1  0  0  0  0
  2  3  2  0  0  0  0
  3  7  1  0  0  0  0
  4  3  1  0  0  0  0
  5  4  2  0  0  0  0
  6  1  2  0  0  0  0
  6  5  1  0  0  0  0
  8  5  1  0  0  0  0
  9 14  1  1  0  0  0
  9 13  1  0  0  0  0
 10  2  1  6  0  0  0
 10  9  1  0  0  0  0
 10 11  1  0  0  0  0
 11 12  1  0  0  0  0
 13 16  1  1  0  0  0
 13 12  1  0  0  0  0
 15 14  1  0  0  0  0
 17 16  1  0  0  0  0
 18  1  1  0  0  0  0
 19 20  2  0  0  0  0
 20 21  1  0  0  0  0
 20 18  1  0  0  0  0
 22 21  1  0  0  0  0
 23 24  1  0  0  0  0
 23 20  1  0  0  0  0
M  END
>  <minimizedAffinity>
-4.62090254

$$$$

 OpenBabel03272504163D

 24 25  0  0  1  0  0  0  0  0999 V2000
   39.6210   23.1050   36.4890 C   0  0  0  0  0  0  0  0  0  0  0  0
   39.0060   24.2320   35.9120 C   0  0  0  0  0  0  0  0  0  0  0  0
   38.1680   24.9650   36.7520 C   0  0  0  0  0  0  0  0  0  0  0  0
   37.9740   24.5960   38.0430 N   0  0  0  0  0  0  0  0  0  0  0  0
   38.5970   23.4920   38.5570 C   0  0  0  0  0  0  0  0  0  0  0  0
   39.4100   22.7650   37.7740 N   0  0  0  0  0  0  0  0  0  0  0  0
   37.6640   25.8320   36.3800 H   0  0  0  0  0  0  0  0  0  0  0  0
   38.4530   23.1890   39.5820 H   0  0  0  0  0  0  0  0  0  0  0  0
   40.6620   24.9280   34.1810 C   0  0  2  0  0  3  0  0  0  0  0  0
   39.2690   24.5760   34.5020 C   0  0  2  0  0  3  0  0  0  0  0  0
   38.6030   25.7670   34.2750 O   0  0  0  0  0  0  0  0  0  0  0  0
   39.4540   26.8450   34.3820 C   0  0  0  0  0  2  0  0  0  0  0  0
   40.7880   26.2590   34.8880 C   0  0  2  0  0  3  0  0  0  0  0  0
   40.7400   25.2020   32.8160 O   0  0  0  0  0  0  0  0  0  0  0  0
   41.6060   24.9710   32.4240 H   0  0  0  0  0  0  0  0  0  0  0  0
   41.8650   27.0110   34.4990 O   0  0  0  0  0  0  0  0  0  0  0  0
   42.5520   26.9400   35.2150 H   0  0  0  0  0  0  0  0  0  0  0  0
   40.4810   22.2670   35.7990 O   0  0  0  0  0  0  0  0  0  0  0  0
   42.7380   20.8370   35.4780 O   0  0  0  0  0  0  0  0  0  0  0  0
   41.9720   21.7410   36.4390 P   0  0  0  0  0  0  0  0  0  0  0  0
   42.8620   23.1480   36.7500 O   0  0  0  0  0  0  0  0  0  0  0  0
   43.6500   22.9840   37.3150 H   0  0  0  0  0  0  0  0  0  0  0  0
   41.7380   20.8550   37.8550 O   0  0  0  0  0  0  0  0  0  0  0  0
   41.1380   21.3650   38.4840 H   0  0  0  0  0  0  0  0  0  0  0  0
  1  6  1  0  0  0  0
  2  1  2  0  0  0  0
  2  3  1  0  0  0  0
  3  4  2  0  0  0  0
  4  5  1  0  0  0  0
  5  8  1  0  0  0  0
  6  5  2  0  0  0  0
  7  3  1  0  0  0  0
  9 14  1  6  0  0  0
  9 10  1  0  0  0  0
  9 13  1  0  0  0  0
 10  2  1  1  0  0  0
 11 12  1  0  0  0  0
 11 10  1  0  0  0  0
 12 13  1  0  0  0  0
 13 16  1  6  0  0  0
 15 14  1  0  0  0  0
 16 17  1  0  0  0  0
 18 20  1  0  0  0  0
 18  1  1  0  0  0  0
 19 20  2  0  0  0  0
 20 21  1  0  0  0  0
 20 23  1  0  0  0  0
 21 22  1  0  0  0  0
 23 24  1  0  0  0  0
M  END
>  <minimizedAffinity>
-4.53778076

$$$$

 OpenBabel03272504163D

 24 25  0  0  1  0  0  0  0  0999 V2000
   39.4260   27.0940   33.5200 C   0  0  0  0  0  0  0  0  0  0  0  0
   38.1090   27.2500   33.0480 C   0  0  0  0  0  0  0  0  0  0  0  0
   37.1200   27.3550   34.0250 C   0  0  0  0  0  0  0  0  0  0  0  0
   37.4320   27.3090   35.3450 N   0  0  0  0  0  0  0  0  0  0  0  0
   38.7280   27.1570   35.7530 C   0  0  0  0  0  0  0  0  0  0  0  0
   39.7030   27.0520   34.8360 N   0  0  0  0  0  0  0  0  0  0  0  0
   36.0950   27.4720   33.7390 H   0  0  0  0  0  0  0  0  0  0  0  0
   38.9900   27.1190   36.7980 H   0  0  0  0  0  0  0  0  0  0  0  0
   36.4260   27.2900   31.2060 C   0  0  2  0  0  3  0  0  0  0  0  0
   37.8450   27.3000   31.5970 C   0  0  2  0  0  3  0  0  0  0  0  0
   38.3010   26.0960   31.0900 O   0  0  0  0  0  0  0  0  0  0  0  0
   37.2700   25.1950   30.9410 C   0  0  0  0  0  2  0  0  0  0  0  0
   36.0400   25.8760   31.5760 C   0  0  2  0  0  3  0  0  0  0  0  0
   36.3560   27.3630   29.8160 O   0  0  0  0  0  0  0  0  0  0  0  0
   35.5600   27.8320   29.4920 H   0  0  0  0  0  0  0  0  0  0  0  0
   34.8640   25.4430   31.0230 O   0  0  0  0  0  0  0  0  0  0  0  0
   34.1720   25.4670   31.7380 H   0  0  0  0  0  0  0  0  0  0  0  0
   40.5260   26.9740   32.6880 O   0  0  0  0  0  0  0  0  0  0  0  0
   42.9270   25.9450   32.0430 O   0  0  0  0  0  0  0  0  0  0  0  0
   42.0080   26.3070   33.2060 P   0  0  0  0  0  0  0  0  0  0  0  0
   42.7340   27.4930   34.1730 O   0  0  0  0  0  0  0  0  0  0  0  0
   43.4900   27.1470   34.6990 H   0  0  0  0  0  0  0  0  0  0  0  0
   41.7550   24.8900   34.0830 O   0  0  0  0  0  0  0  0  0  0  0  0
   41.0640   25.0480   34.8000 H   0  0  0  0  0  0  0  0  0  0  0  0
  1  6  1  0  0  0  0
  2  1  2  0  0  0  0
  2  3  1  0  0  0  0
  3  4  2  0  0  0  0
  4  5  1  0  0  0  0
  5  8  1  0  0  0  0
  6  5  2  0  0  0  0
  7  3  1  0  0  0  0
  9 14  1  6  0  0  0
  9 13  1  0  0  0  0
  9 10  1  0  0  0  0
 10  2  1  1  0  0  0
 11 10  1  0  0  0  0
 12 11  1  0  0  0  0
 12 13  1  0  0  0  0
 13 16  1  6  0  0  0
 15 14  1  0  0  0  0
 16 17  1  0  0  0  0
 18 20  1  0  0  0  0
 18  1  1  0  0  0  0
 19 20  2  0  0  0  0
 20 23  1  0  0  0  0
 20 21  1  0  0  0  0
 21 22  1  0  0  0  0
 23 24  1  0  0  0  0
M  END
>  <minimizedAffinity>
-4.53236341

$$$$

 OpenBabel03272504163D

 24 25  0  0  1  0  0  0  0  0999 V2000
   37.4110   25.9240   33.7360 C   0  0  0  0  0  0  0  0  0  0  0  0
   38.4600   25.3790   34.5000 C   0  0  0  0  0  0  0  0  0  0  0  0
   38.9040   26.1570   35.5680 C   0  0  0  0  0  0  0  0  0  0  0  0
   38.3440   27.3630   35.8360 N   0  0  0  0  0  0  0  0  0  0  0  0
   37.3250   27.8500   35.0640 C   0  0  0  0  0  0  0  0  0  0  0  0
   36.8760   27.1240   34.0270 N   0  0  0  0  0  0  0  0  0  0  0  0
   39.7010   25.8060   36.1900 H   0  0  0  0  0  0  0  0  0  0  0  0
   36.8710   28.8060   35.2660 H   0  0  0  0  0  0  0  0  0  0  0  0
   38.0870   22.9210   34.2840 C   0  0  2  0  0  3  0  0  0  0  0  0
   39.0150   24.0570   34.1540 C   0  0  2  0  0  3  0  0  0  0  0  0
   39.9610   23.7790   35.1250 O   0  0  0  0  0  0  0  0  0  0  0  0
   39.4430   22.9680   36.1100 C   0  0  0  0  0  2  0  0  0  0  0  0
   37.9390   22.8470   35.7860 C   0  0  2  0  0  3  0  0  0  0  0  0
   38.7600   21.7620   33.9000 O   0  0  0  0  0  0  0  0  0  0  0  0
   38.1750   21.0920   33.4920 H   0  0  0  0  0  0  0  0  0  0  0  0
   37.4020   21.6750   36.2490 O   0  0  0  0  0  0  0  0  0  0  0  0
   36.4550   21.8580   36.4950 H   0  0  0  0  0  0  0  0  0  0  0  0
   36.8510   25.2870   32.6420 O   0  0  0  0  0  0  0  0  0  0  0  0
   38.3890   26.6720   30.9220 O   0  0  0  0  0  0  0  0  0  0  0  0
   37.1740   25.7550   31.0340 P   0  0  0  0  0  0  0  0  0  0  0  0
   37.4490   24.3180   30.1810 O   0  0  0  0  0  0  0  0  0  0  0  0
   37.4360   24.4440   29.2060 H   0  0  0  0  0  0  0  0  0  0  0  0
   35.8690   26.6000   30.3800 O   0  0  0  0  0  0  0  0  0  0  0  0
   35.0160   26.0830   30.5310 H   0  0  0  0  0  0  0  0  0  0  0  0
  1  6  2  0  0  0  0
  1  2  1  0  0  0  0
  2  3  2  0  0  0  0
  3  4  1  0  0  0  0
  3  7  1  0  0  0  0
  5  8  1  0  0  0  0
  5  4  2  0  0  0  0
  6  5  1  0  0  0  0
  9 14  1  1  0  0  0
  9 13  1  0  0  0  0
 10  9  1  0  0  0  0
 10  2  1  1  0  0  0
 10 11  1  0  0  0  0
 11 12  1  0  0  0  0
 13 12  1  0  0  0  0
 13 16  1  6  0  0  0
 15 14  1  0  0  0  0
 16 17  1  0  0  0  0
 18  1  1  0  0  0  0
 19 20  2  0  0  0  0
 20 18  1  0  0  0  0
 21 20  1  0  0  0  0
 22 21  1  0  0  0  0
 23 24  1  0  0  0  0
 23 20  1  0  0  0  0
M  END
>  <minimizedAffinity>
-4.52959824

$$$$

 OpenBabel03272504163D

 24 25  0  0  1  0  0  0  0  0999 V2000
   38.6930   24.5050   36.1860 C   0  0  0  0  0  0  0  0  0  0  0  0
   39.6680   23.4980   36.3130 C   0  0  0  0  0  0  0  0  0  0  0  0
   39.7560   22.8890   37.5640 C   0  0  0  0  0  0  0  0  0  0  0  0
   38.9400   23.2600   38.5820 N   0  0  0  0  0  0  0  0  0  0  0  0
   38.0060   24.2450   38.4080 C   0  0  0  0  0  0  0  0  0  0  0  0
   37.8970   24.8510   37.2150 N   0  0  0  0  0  0  0  0  0  0  0  0
   40.4780   22.1180   37.7340 H   0  0  0  0  0  0  0  0  0  0  0  0
   37.3510   24.5490   39.2080 H   0  0  0  0  0  0  0  0  0  0  0  0
   41.5520   22.1290   35.4180 C   0  0  2  0  0  3  0  0  0  0  0  0
   40.5160   23.1420   35.1590 C   0  0  2  0  0  3  0  0  0  0  0  0
   41.2670   24.2700   34.8810 O   0  0  0  0  0  0  0  0  0  0  0  0
   42.5210   24.1870   35.4440 C   0  0  0  0  0  2  0  0  0  0  0  0
   42.4940   22.9090   36.3070 C   0  0  2  0  0  3  0  0  0  0  0  0
   42.2420   21.8960   34.2290 O   0  0  0  0  0  0  0  0  0  0  0  0
   42.5730   20.9780   34.1470 H   0  0  0  0  0  0  0  0  0  0  0  0
   43.7380   22.3510   36.4480 O   0  0  0  0  0  0  0  0  0  0  0  0
   43.7730   21.9230   37.3450 H   0  0  0  0  0  0  0  0  0  0  0  0
   38.4720   25.2110   35.0160 O   0  0  0  0  0  0  0  0  0  0  0  0
   37.9020   27.5870   33.8880 O   0  0  0  0  0  0  0  0  0  0  0  0
   38.8410   26.8690   34.8530 P   0  0  0  0  0  0  0  0  0  0  0  0
   38.6960   27.5280   36.4060 O   0  0  0  0  0  0  0  0  0  0  0  0
   39.0880   28.4270   36.4770 H   0  0  0  0  0  0  0  0  0  0  0  0
   40.4030   27.0800   34.2540 O   0  0  0  0  0  0  0  0  0  0  0  0
   41.0540   26.5300   34.7930 H   0  0  0  0  0  0  0  0  0  0  0  0
  1  2  2  0  0  0  0
  1  6  1  0  0  0  0
  2  3  1  0  0  0  0
  3  7  1  0  0  0  0
  3  4  2  0  0  0  0
  5  4  1  0  0  0  0
  5  8  1  0  0  0  0
  6  5  2  0  0  0  0
  9 14  1  6  0  0  0
  9 13  1  0  0  0  0
 10  9  1  0  0  0  0
 10  2  1  1  0  0  0
 11 10  1  0  0  0  0
 11 12  1  0  0  0  0
 12 13  1  0  0  0  0
 13 16  1  6  0  0  0
 15 14  1  0  0  0  0
 16 17  1  0  0  0  0
 18  1  1  0  0  0  0
 19 20  2  0  0  0  0
 20 18  1  0  0  0  0
 20 21  1  0  0  0  0
 21 22  1  0  0  0  0
 23 24  1  0  0  0  0
 23 20  1  0  0  0  0
M  END
>  <minimizedAffinity>
-4.51391792

$$$$
