
 OpenBabel03272508253D

 25 27  0  0  1  0  0  0  0  0999 V2000
   37.4060   26.2700   35.0150 C   0  0  1  0  0  0  0  0  0  0  0  0
   38.7290   25.6610   34.9470 C   0  0  1  0  0  0  0  0  0  0  0  0
   38.4870   26.7250   35.9850 C   0  0  0  0  0  0  0  0  0  0  0  0
   36.5740   25.7050   35.5300 H   0  0  0  0  0  0  0  0  0  0  0  0
   39.3470   25.9880   34.0600 H   0  0  0  0  0  0  0  0  0  0  0  0
   38.9680   27.7090   35.8140 H   0  0  0  0  0  0  0  0  0  0  0  0
   38.3750   26.4540   37.0390 H   0  0  0  0  0  0  0  0  0  0  0  0
   36.9940   27.3540   34.0460 C   0  0  0  0  0  0  0  0  0  0  0  0
   37.5510   27.3090   32.7550 C   0  0  0  0  0  0  0  0  0  0  0  0
   37.1640   28.3330   31.9080 C   0  0  0  0  0  0  0  0  0  0  0  0
   36.3020   29.3040   32.3270 N   0  0  0  0  0  0  0  0  0  0  0  0
   35.7930   29.3060   33.5790 C   0  0  0  0  0  0  0  0  0  0  0  0
   36.1440   28.3190   34.4470 N   0  0  0  0  0  0  0  0  0  0  0  0
   38.2230   26.5330   32.4600 H   0  0  0  0  0  0  0  0  0  0  0  0
   37.5570   28.3560   30.8990 H   0  0  0  0  0  0  0  0  0  0  0  0
   35.1090   30.0530   33.9540 H   0  0  0  0  0  0  0  0  0  0  0  0
   38.5920   24.0570   36.7770 C   0  0  2  0  0  3  0  0  0  0  0  0
   38.9860   24.2400   35.3250 C   0  0  2  0  0  3  0  0  0  0  0  0
   40.3240   23.9430   35.2790 O   0  0  0  0  0  0  0  0  0  0  0  0
   40.6780   23.1300   36.3200 C   0  0  0  0  0  2  0  0  0  0  0  0
   39.4390   22.8260   37.1210 C   0  0  1  0  0  3  0  0  0  0  0  0
   37.2480   23.8060   36.9560 O   0  0  0  0  0  0  0  0  0  0  0  0
   36.7740   24.6510   37.1520 H   0  0  0  0  0  0  0  0  0  0  0  0
   39.6520   22.7020   38.4730 O   0  0  0  0  0  0  0  0  0  0  0  0
   38.8710   22.1980   38.8320 H   0  0  0  0  0  0  0  0  0  0  0  0
  1  4  1  1  0  0  0
  1  3  1  0  0  0  0
  2  5  1  6  0  0  0
  2  1  1  0  0  0  0
  2 18  1  0  0  0  0
  2  3  1  0  0  0  0
  3  7  1  0  0  0  0
  6  3  1  0  0  0  0
  8 13  1  0  0  0  0
  8  1  1  0  0  0  0
  9  8  2  0  0  0  0
 10 11  2  0  0  0  0
 10  9  1  0  0  0  0
 11 12  1  0  0  0  0
 12 16  1  0  0  0  0
 12 13  2  0  0  0  0
 14  9  1  0  0  0  0
 15 10  1  0  0  0  0
 17 22  1  6  0  0  0
 17 21  1  0  0  0  0
 18 19  1  1  0  0  0
 18 17  1  0  0  0  0
 19 20  1  0  0  0  0
 20 21  1  0  0  0  0
 21 24  1  1  0  0  0
 22 23  1  0  0  0  0
 24 25  1  0  0  0  0
M  END
>  <minimizedAffinity>
-4.8422246

$$$$

 OpenBabel03272508253D

 25 27  0  0  1  0  0  0  0  0999 V2000
   38.2030   25.4360   33.8440 C   0  0  1  0  0  0  0  0  0  0  0  0
   38.4130   24.2070   34.6000 C   0  0  1  0  0  0  0  0  0  0  0  0
   39.3710   24.5290   33.4830 C   0  0  0  0  0  0  0  0  0  0  0  0
   38.5400   26.4160   34.2960 H   0  0  0  0  0  0  0  0  0  0  0  0
   37.6690   23.3870   34.3710 H   0  0  0  0  0  0  0  0  0  0  0  0
   39.2960   23.9130   32.5660 H   0  0  0  0  0  0  0  0  0  0  0  0
   40.3810   24.8850   33.7080 H   0  0  0  0  0  0  0  0  0  0  0  0
   37.1620   25.5130   32.7520 C   0  0  0  0  0  0  0  0  0  0  0  0
   36.8180   26.7920   32.2780 C   0  0  0  0  0  0  0  0  0  0  0  0
   35.8450   26.8170   31.2950 C   0  0  0  0  0  0  0  0  0  0  0  0
   35.2770   25.6630   30.8390 N   0  0  0  0  0  0  0  0  0  0  0  0
   35.6390   24.4560   31.3260 C   0  0  0  0  0  0  0  0  0  0  0  0
   36.5920   24.3810   32.2930 N   0  0  0  0  0  0  0  0  0  0  0  0
   37.2840   27.6750   32.6580 H   0  0  0  0  0  0  0  0  0  0  0  0
   35.5360   27.7720   30.8860 H   0  0  0  0  0  0  0  0  0  0  0  0
   35.2170   23.5180   30.9950 H   0  0  0  0  0  0  0  0  0  0  0  0
   38.3950   22.8940   36.6540 C   0  0  2  0  0  3  0  0  0  0  0  0
   38.8460   24.1990   36.0290 C   0  0  2  0  0  3  0  0  0  0  0  0
   38.2130   25.1780   36.7500 O   0  0  0  0  0  0  0  0  0  0  0  0
   37.8800   24.7250   37.9960 C   0  0  0  0  0  2  0  0  0  0  0  0
   38.3760   23.3090   38.1300 C   0  0  1  0  0  3  0  0  0  0  0  0
   39.2680   21.8490   36.4380 O   0  0  0  0  0  0  0  0  0  0  0  0
   38.9770   21.3280   35.6490 H   0  0  0  0  0  0  0  0  0  0  0  0
   37.5720   22.4940   38.8890 O   0  0  0  0  0  0  0  0  0  0  0  0
   38.1400   21.7240   39.1680 H   0  0  0  0  0  0  0  0  0  0  0  0
  1  4  1  1  0  0  0
  1  2  1  0  0  0  0
  2  5  1  6  0  0  0
  2 18  1  0  0  0  0
  3  7  1  0  0  0  0
  3  1  1  0  0  0  0
  3  2  1  0  0  0  0
  6  3  1  0  0  0  0
  8  1  1  0  0  0  0
  9 14  1  0  0  0  0
  9  8  2  0  0  0  0
 10  9  1  0  0  0  0
 11 10  2  0  0  0  0
 11 12  1  0  0  0  0
 12 13  2  0  0  0  0
 13  8  1  0  0  0  0
 15 10  1  0  0  0  0
 16 12  1  0  0  0  0
 17 22  1  1  0  0  0
 17 21  1  0  0  0  0
 18 17  1  0  0  0  0
 18 19  1  1  0  0  0
 19 20  1  0  0  0  0
 20 21  1  0  0  0  0
 21 24  1  1  0  0  0
 23 22  1  0  0  0  0
 24 25  1  0  0  0  0
M  END
>  <minimizedAffinity>
-4.76158714

$$$$

 OpenBabel03272508253D

 25 27  0  0  1  0  0  0  0  0999 V2000
   37.4550   26.6490   35.1760 C   0  0  1  0  0  0  0  0  0  0  0  0
   38.7420   25.9720   35.2800 C   0  0  1  0  0  0  0  0  0  0  0  0
   38.5510   27.2620   36.0340 C   0  0  0  0  0  0  0  0  0  0  0  0
   36.5880   26.2650   35.7900 H   0  0  0  0  0  0  0  0  0  0  0  0
   39.3850   26.0500   34.3540 H   0  0  0  0  0  0  0  0  0  0  0  0
   39.0880   28.1510   35.6490 H   0  0  0  0  0  0  0  0  0  0  0  0
   38.4150   27.2510   37.1200 H   0  0  0  0  0  0  0  0  0  0  0  0
   37.1120   27.4950   33.9710 C   0  0  0  0  0  0  0  0  0  0  0  0
   36.1370   28.4940   34.1410 C   0  0  0  0  0  0  0  0  0  0  0  0
   35.8380   29.2280   33.0070 C   0  0  0  0  0  0  0  0  0  0  0  0
   36.4640   28.9760   31.8210 N   0  0  0  0  0  0  0  0  0  0  0  0
   37.3950   28.0040   31.7060 C   0  0  0  0  0  0  0  0  0  0  0  0
   37.7230   27.2560   32.7930 N   0  0  0  0  0  0  0  0  0  0  0  0
   35.6670   28.6640   35.0850 H   0  0  0  0  0  0  0  0  0  0  0  0
   35.0950   30.0150   33.0710 H   0  0  0  0  0  0  0  0  0  0  0  0
   37.9160   27.7690   30.7880 H   0  0  0  0  0  0  0  0  0  0  0  0
   38.2320   23.5910   35.1670 C   0  0  2  0  0  3  0  0  0  0  0  0
   38.9160   24.6680   35.9850 C   0  0  2  0  0  3  0  0  0  0  0  0
   38.2700   24.6630   37.1950 O   0  0  0  0  0  0  0  0  0  0  0  0
   37.6800   23.4510   37.4250 C   0  0  0  0  0  2  0  0  0  0  0  0
   37.9980   22.5450   36.2640 C   0  0  1  0  0  3  0  0  0  0  0  0
   39.0170   23.0870   34.1530 O   0  0  0  0  0  0  0  0  0  0  0  0
   38.8160   23.5610   33.3090 H   0  0  0  0  0  0  0  0  0  0  0  0
   36.9940   21.6650   35.9380 O   0  0  0  0  0  0  0  0  0  0  0  0
   37.4220   20.9380   35.4100 H   0  0  0  0  0  0  0  0  0  0  0  0
  1  2  1  0  0  0  0
  1  4  1  1  0  0  0
  1  3  1  0  0  0  0
  2  5  1  6  0  0  0
  2 18  1  0  0  0  0
  2  3  1  0  0  0  0
  3  7  1  0  0  0  0
  6  3  1  0  0  0  0
  8  9  1  0  0  0  0
  8  1  1  0  0  0  0
  9 14  1  0  0  0  0
 10 15  1  0  0  0  0
 10  9  2  0  0  0  0
 11 10  1  0  0  0  0
 12 11  2  0  0  0  0
 12 13  1  0  0  0  0
 13  8  2  0  0  0  0
 16 12  1  0  0  0  0
 17 22  1  6  0  0  0
 17 18  1  0  0  0  0
 17 21  1  0  0  0  0
 18 19  1  1  0  0  0
 19 20  1  0  0  0  0
 21 24  1  6  0  0  0
 21 20  1  0  0  0  0
 23 22  1  0  0  0  0
 25 24  1  0  0  0  0
M  END
>  <minimizedAffinity>
-4.71637774

$$$$

 OpenBabel03272508253D

 25 27  0  0  1  0  0  0  0  0999 V2000
   37.4090   26.6220   35.1910 C   0  0  1  0  0  0  0  0  0  0  0  0
   38.7120   25.9730   35.2880 C   0  0  1  0  0  0  0  0  0  0  0  0
   38.4900   27.2470   36.0610 C   0  0  0  0  0  0  0  0  0  0  0  0
   36.5500   26.2080   35.7980 H   0  0  0  0  0  0  0  0  0  0  0  0
   39.3540   26.0790   34.3650 H   0  0  0  0  0  0  0  0  0  0  0  0
   39.0060   28.1540   35.6900 H   0  0  0  0  0  0  0  0  0  0  0  0
   38.3520   27.2170   37.1460 H   0  0  0  0  0  0  0  0  0  0  0  0
   37.0490   27.4770   33.9980 C   0  0  0  0  0  0  0  0  0  0  0  0
   37.7360   27.2290   32.7970 C   0  0  0  0  0  0  0  0  0  0  0  0
   37.3920   28.0500   31.7380 C   0  0  0  0  0  0  0  0  0  0  0  0
   36.4470   29.0250   31.8820 N   0  0  0  0  0  0  0  0  0  0  0  0
   35.8140   29.2270   33.0580 C   0  0  0  0  0  0  0  0  0  0  0  0
   36.1190   28.4440   34.1280 N   0  0  0  0  0  0  0  0  0  0  0  0
   38.4700   26.4570   32.7190 H   0  0  0  0  0  0  0  0  0  0  0  0
   37.8840   27.9100   30.7820 H   0  0  0  0  0  0  0  0  0  0  0  0
   35.0610   29.9850   33.2190 H   0  0  0  0  0  0  0  0  0  0  0  0
   38.2370   23.5860   35.1520 C   0  0  2  0  0  3  0  0  0  0  0  0
   38.9150   24.6630   35.9750 C   0  0  2  0  0  3  0  0  0  0  0  0
   38.2850   24.6320   37.1920 O   0  0  0  0  0  0  0  0  0  0  0  0
   37.7160   23.4090   37.4140 C   0  0  0  0  0  2  0  0  0  0  0  0
   38.0330   22.5230   36.2380 C   0  0  1  0  0  3  0  0  0  0  0  0
   39.0170   23.1070   34.1210 O   0  0  0  0  0  0  0  0  0  0  0  0
   38.7980   23.5890   33.2850 H   0  0  0  0  0  0  0  0  0  0  0  0
   37.0390   21.6320   35.9130 O   0  0  0  0  0  0  0  0  0  0  0  0
   37.4720   20.9180   35.3700 H   0  0  0  0  0  0  0  0  0  0  0  0
  1  2  1  0  0  0  0
  1  4  1  1  0  0  0
  1  3  1  0  0  0  0
  2  5  1  6  0  0  0
  2 18  1  0  0  0  0
  2  3  1  0  0  0  0
  3  7  1  0  0  0  0
  6  3  1  0  0  0  0
  8 13  1  0  0  0  0
  8  1  1  0  0  0  0
  9  8  2  0  0  0  0
 10 11  2  0  0  0  0
 10  9  1  0  0  0  0
 11 12  1  0  0  0  0
 12 16  1  0  0  0  0
 12 13  2  0  0  0  0
 14  9  1  0  0  0  0
 15 10  1  0  0  0  0
 17 22  1  6  0  0  0
 17 18  1  0  0  0  0
 17 21  1  0  0  0  0
 18 19  1  1  0  0  0
 19 20  1  0  0  0  0
 21 24  1  6  0  0  0
 21 20  1  0  0  0  0
 23 22  1  0  0  0  0
 25 24  1  0  0  0  0
M  END
>  <minimizedAffinity>
-4.70899582

$$$$

 OpenBabel03272508253D

 25 27  0  0  1  0  0  0  0  0999 V2000
   38.6930   25.5170   34.8640 C   0  0  1  0  0  0  0  0  0  0  0  0
   37.5450   26.3960   34.6720 C   0  0  1  0  0  0  0  0  0  0  0  0
   38.8230   26.9970   35.1950 C   0  0  0  0  0  0  0  0  0  0  0  0
   39.3070   25.2200   33.9630 H   0  0  0  0  0  0  0  0  0  0  0  0
   36.7270   26.2670   35.4400 H   0  0  0  0  0  0  0  0  0  0  0  0
   38.8340   27.3010   36.2610 H   0  0  0  0  0  0  0  0  0  0  0  0
   39.4510   27.6130   34.5430 H   0  0  0  0  0  0  0  0  0  0  0  0
   38.8040   24.6330   36.0850 C   0  0  0  0  0  0  0  0  0  0  0  0
   39.8390   23.6820   36.0990 C   0  0  0  0  0  0  0  0  0  0  0  0
   39.8890   22.8780   37.2250 C   0  0  0  0  0  0  0  0  0  0  0  0
   38.9800   23.0230   38.2330 N   0  0  0  0  0  0  0  0  0  0  0  0
   38.0000   23.9520   38.1730 C   0  0  0  0  0  0  0  0  0  0  0  0
   37.9120   24.7650   37.0870 N   0  0  0  0  0  0  0  0  0  0  0  0
   40.5340   23.5950   35.2930 H   0  0  0  0  0  0  0  0  0  0  0  0
   40.6650   22.1250   37.2990 H   0  0  0  0  0  0  0  0  0  0  0  0
   37.2600   24.1020   38.9460 H   0  0  0  0  0  0  0  0  0  0  0  0
   37.4360   25.6610   32.3500 C   0  0  2  0  0  3  0  0  0  0  0  0
   37.0090   26.7430   33.3220 C   0  0  2  0  0  3  0  0  0  0  0  0
   37.5710   27.8970   32.8410 O   0  0  0  0  0  0  0  0  0  0  0  0
   37.8200   27.7940   31.5010 C   0  0  0  0  0  2  0  0  0  0  0  0
   37.3400   26.4440   31.0360 C   0  0  1  0  0  3  0  0  0  0  0  0
   36.5990   24.5650   32.3430 O   0  0  0  0  0  0  0  0  0  0  0  0
   36.9550   23.8690   32.9480 H   0  0  0  0  0  0  0  0  0  0  0  0
   38.1000   25.8830   30.0390 O   0  0  0  0  0  0  0  0  0  0  0  0
   37.5270   25.1920   29.6070 H   0  0  0  0  0  0  0  0  0  0  0  0
  1  4  1  6  0  0  0
  1  3  1  0  0  0  0
  1  8  1  0  0  0  0
  2  1  1  0  0  0  0
  2  3  1  0  0  0  0
  2  5  1  1  0  0  0
  3  6  1  0  0  0  0
  7  3  1  0  0  0  0
  8  9  2  0  0  0  0
  8 13  1  0  0  0  0
  9 10  1  0  0  0  0
 10 15  1  0  0  0  0
 10 11  2  0  0  0  0
 12 11  1  0  0  0  0
 12 16  1  0  0  0  0
 13 12  2  0  0  0  0
 14  9  1  0  0  0  0
 17 22  1  6  0  0  0
 17 18  1  0  0  0  0
 18 19  1  6  0  0  0
 18  2  1  0  0  0  0
 20 19  1  0  0  0  0
 21 24  1  6  0  0  0
 21 20  1  0  0  0  0
 21 17  1  0  0  0  0
 22 23  1  0  0  0  0
 25 24  1  0  0  0  0
M  END
>  <minimizedAffinity>
-4.54285383

$$$$

 OpenBabel03272508253D

 25 27  0  0  1  0  0  0  0  0999 V2000
   36.2290   22.8420   31.2800 C   0  0  1  0  0  0  0  0  0  0  0  0
   36.9360   23.7440   32.1820 C   0  0  1  0  0  0  0  0  0  0  0  0
   37.6950   23.1580   31.0210 C   0  0  0  0  0  0  0  0  0  0  0  0
   35.5460   23.2830   30.4960 H   0  0  0  0  0  0  0  0  0  0  0  0
   37.1820   23.2970   33.1900 H   0  0  0  0  0  0  0  0  0  0  0  0
   38.4510   22.3830   31.2570 H   0  0  0  0  0  0  0  0  0  0  0  0
   37.9380   23.7760   30.1510 H   0  0  0  0  0  0  0  0  0  0  0  0
   35.9980   21.3950   31.6470 C   0  0  0  0  0  0  0  0  0  0  0  0
   35.6320   21.1170   32.9770 C   0  0  0  0  0  0  0  0  0  0  0  0
   35.4530   19.7780   33.2740 C   0  0  0  0  0  0  0  0  0  0  0  0
   35.6270   18.8170   32.3210 N   0  0  0  0  0  0  0  0  0  0  0  0
   35.9800   19.1320   31.0550 C   0  0  0  0  0  0  0  0  0  0  0  0
   36.1670   20.4350   30.7150 N   0  0  0  0  0  0  0  0  0  0  0  0
   35.5040   21.8950   33.6970 H   0  0  0  0  0  0  0  0  0  0  0  0
   35.1690   19.4970   34.2820 H   0  0  0  0  0  0  0  0  0  0  0  0
   36.1290   18.4060   30.2690 H   0  0  0  0  0  0  0  0  0  0  0  0
   36.0260   25.6390   30.9480 C   0  0  2  0  0  3  0  0  0  0  0  0
   36.6350   25.2040   32.2660 C   0  0  2  0  0  3  0  0  0  0  0  0
   37.7820   25.9460   32.3920 O   0  0  0  0  0  0  0  0  0  0  0  0
   37.7000   27.0950   31.6550 C   0  0  0  0  0  2  0  0  0  0  0  0
   36.3440   27.1380   31.0010 C   0  0  1  0  0  3  0  0  0  0  0  0
   34.6670   25.4180   30.8700 O   0  0  0  0  0  0  0  0  0  0  0  0
   34.4960   24.5530   30.4230 H   0  0  0  0  0  0  0  0  0  0  0  0
   36.3320   27.7170   29.7550 O   0  0  0  0  0  0  0  0  0  0  0  0
   35.3870   27.9780   29.5780 H   0  0  0  0  0  0  0  0  0  0  0  0
  1  4  1  6  0  0  0
  1  8  1  0  0  0  0
  1  2  1  0  0  0  0
  2 18  1  0  0  0  0
  2  5  1  1  0  0  0
  3  6  1  0  0  0  0
  3  1  1  0  0  0  0
  3  2  1  0  0  0  0
  7  3  1  0  0  0  0
  8  9  1  0  0  0  0
  9 10  2  0  0  0  0
  9 14  1  0  0  0  0
 10 15  1  0  0  0  0
 11 10  1  0  0  0  0
 12 11  2  0  0  0  0
 13 12  1  0  0  0  0
 13  8  2  0  0  0  0
 16 12  1  0  0  0  0
 17 22  1  1  0  0  0
 17 21  1  0  0  0  0
 17 18  1  0  0  0  0
 18 19  1  6  0  0  0
 20 19  1  0  0  0  0
 21 24  1  6  0  0  0
 21 20  1  0  0  0  0
 23 22  1  0  0  0  0
 25 24  1  0  0  0  0
M  END
>  <minimizedAffinity>
-4.50896978

$$$$

 OpenBabel03272508253D

 25 27  0  0  1  0  0  0  0  0999 V2000
   39.6140   25.5350   34.4390 C   0  0  1  0  0  0  0  0  0  0  0  0
   38.8060   26.6860   34.0550 C   0  0  1  0  0  0  0  0  0  0  0  0
   40.0460   26.9270   34.8750 C   0  0  0  0  0  0  0  0  0  0  0  0
   40.3140   25.0830   33.6750 H   0  0  0  0  0  0  0  0  0  0  0  0
   37.8320   26.7810   34.6210 H   0  0  0  0  0  0  0  0  0  0  0  0
   39.8980   27.2180   35.9340 H   0  0  0  0  0  0  0  0  0  0  0  0
   40.9410   27.3520   34.4100 H   0  0  0  0  0  0  0  0  0  0  0  0
   39.2160   24.6540   35.6010 C   0  0  0  0  0  0  0  0  0  0  0  0
   37.9600   24.8890   36.1870 C   0  0  0  0  0  0  0  0  0  0  0  0
   37.6460   24.0760   37.2620 C   0  0  0  0  0  0  0  0  0  0  0  0
   38.5190   23.1210   37.6990 N   0  0  0  0  0  0  0  0  0  0  0  0
   39.7170   22.9330   37.1040 C   0  0  0  0  0  0  0  0  0  0  0  0
   40.0690   23.7080   36.0430 N   0  0  0  0  0  0  0  0  0  0  0  0
   37.3010   25.6450   35.8190 H   0  0  0  0  0  0  0  0  0  0  0  0
   36.6920   24.2050   37.7580 H   0  0  0  0  0  0  0  0  0  0  0  0
   40.4390   22.1910   37.4150 H   0  0  0  0  0  0  0  0  0  0  0  0
   37.2220   27.3460   32.3230 C   0  0  2  0  0  3  0  0  0  0  0  0
   38.6920   27.1620   32.6450 C   0  0  2  0  0  3  0  0  0  0  0  0
   39.1350   26.2130   31.7590 O   0  0  0  0  0  0  0  0  0  0  0  0
   38.3390   26.1760   30.6480 C   0  0  0  0  0  2  0  0  0  0  0  0
   37.2780   27.2350   30.7950 C   0  0  1  0  0  3  0  0  0  0  0  0
   36.7210   28.5670   32.7190 O   0  0  0  0  0  0  0  0  0  0  0  0
   36.2990   28.4820   33.6100 H   0  0  0  0  0  0  0  0  0  0  0  0
   36.0610   26.8990   30.2530 O   0  0  0  0  0  0  0  0  0  0  0  0
   35.5700   27.7560   30.1200 H   0  0  0  0  0  0  0  0  0  0  0  0
  1  4  1  6  0  0  0
  1  3  1  0  0  0  0
  1  8  1  0  0  0  0
  2  1  1  0  0  0  0
  2  5  1  1  0  0  0
  2  3  1  0  0  0  0
  3  6  1  0  0  0  0
  7  3  1  0  0  0  0
  8 13  2  0  0  0  0
  8  9  1  0  0  0  0
  9 10  2  0  0  0  0
 10 11  1  0  0  0  0
 10 15  1  0  0  0  0
 12 16  1  0  0  0  0
 12 11  2  0  0  0  0
 13 12  1  0  0  0  0
 14  9  1  0  0  0  0
 17 18  1  0  0  0  0
 17 22  1  6  0  0  0
 18 19  1  6  0  0  0
 18  2  1  0  0  0  0
 20 21  1  0  0  0  0
 20 19  1  0  0  0  0
 21 24  1  1  0  0  0
 21 17  1  0  0  0  0
 22 23  1  0  0  0  0
 25 24  1  0  0  0  0
M  END
>  <minimizedAffinity>
-4.44764376

$$$$

 OpenBabel03272508253D

 25 27  0  0  1  0  0  0  0  0999 V2000
   35.8670   29.6510   33.8190 C   0  0  1  0  0  0  0  0  0  0  0  0
   35.6310   28.6920   32.7460 C   0  0  1  0  0  0  0  0  0  0  0  0
   35.7310   30.1520   32.3890 C   0  0  0  0  0  0  0  0  0  0  0  0
   36.9170   29.7690   34.2210 H   0  0  0  0  0  0  0  0  0  0  0  0
   34.5850   28.2640   32.7260 H   0  0  0  0  0  0  0  0  0  0  0  0
   34.7920   30.6610   32.0950 H   0  0  0  0  0  0  0  0  0  0  0  0
   36.6280   30.5390   31.8960 H   0  0  0  0  0  0  0  0  0  0  0  0
   34.7410   30.1160   34.7130 C   0  0  0  0  0  0  0  0  0  0  0  0
   34.9980   31.2120   35.5560 C   0  0  0  0  0  0  0  0  0  0  0  0
   33.9470   31.5890   36.3730 C   0  0  0  0  0  0  0  0  0  0  0  0
   32.7560   30.9230   36.3390 N   0  0  0  0  0  0  0  0  0  0  0  0
   32.5560   29.8730   35.5120 C   0  0  0  0  0  0  0  0  0  0  0  0
   33.5600   29.4660   34.6900 N   0  0  0  0  0  0  0  0  0  0  0  0
   35.9420   31.7100   35.5560 H   0  0  0  0  0  0  0  0  0  0  0  0
   34.0800   32.4280   37.0460 H   0  0  0  0  0  0  0  0  0  0  0  0
   31.6320   29.3170   35.4510 H   0  0  0  0  0  0  0  0  0  0  0  0
   36.1150   26.9620   31.0980 C   0  0  2  0  0  3  0  0  0  0  0  0
   36.6580   27.7030   32.3030 C   0  0  2  0  0  3  0  0  0  0  0  0
   36.8650   26.7360   33.2530 O   0  0  0  0  0  0  0  0  0  0  0  0
   37.0300   25.5100   32.6700 C   0  0  0  0  0  2  0  0  0  0  0  0
   36.9620   25.6870   31.1760 C   0  0  1  0  0  3  0  0  0  0  0  0
   36.3170   27.6260   29.9060 O   0  0  0  0  0  0  0  0  0  0  0  0
   35.5130   28.1560   29.6790 H   0  0  0  0  0  0  0  0  0  0  0  0
   36.3850   24.6370   30.5040 O   0  0  0  0  0  0  0  0  0  0  0  0
   36.6840   24.7130   29.5570 H   0  0  0  0  0  0  0  0  0  0  0  0
  1  4  1  1  0  0  0
  1  8  1  0  0  0  0
  2  5  1  6  0  0  0
  2  1  1  0  0  0  0
  3  2  1  0  0  0  0
  3  1  1  0  0  0  0
  6  3  1  0  0  0  0
  7  3  1  0  0  0  0
  8  9  1  0  0  0  0
  9 10  2  0  0  0  0
 10 15  1  0  0  0  0
 11 10  1  0  0  0  0
 12 11  2  0  0  0  0
 13  8  2  0  0  0  0
 13 12  1  0  0  0  0
 14  9  1  0  0  0  0
 16 12  1  0  0  0  0
 17 22  1  6  0  0  0
 17 21  1  0  0  0  0
 17 18  1  0  0  0  0
 18  2  1  0  0  0  0
 18 19  1  1  0  0  0
 20 19  1  0  0  0  0
 21 24  1  6  0  0  0
 21 20  1  0  0  0  0
 23 22  1  0  0  0  0
 25 24  1  0  0  0  0
M  END
>  <minimizedAffinity>
-4.43705559

$$$$

 OpenBabel03272508253D

 25 27  0  0  1  0  0  0  0  0999 V2000
   38.3910   25.5650   34.9360 C   0  0  1  0  0  0  0  0  0  0  0  0
   37.5260   26.7080   35.2040 C   0  0  1  0  0  0  0  0  0  0  0  0
   39.0100   26.9450   35.1020 C   0  0  0  0  0  0  0  0  0  0  0  0
   38.4700   25.1800   33.8760 H   0  0  0  0  0  0  0  0  0  0  0  0
   37.1080   26.7390   36.2530 H   0  0  0  0  0  0  0  0  0  0  0  0
   39.5470   27.1720   36.0440 H   0  0  0  0  0  0  0  0  0  0  0  0
   39.4330   27.4250   34.2140 H   0  0  0  0  0  0  0  0  0  0  0  0
   38.7870   24.6090   36.0370 C   0  0  0  0  0  0  0  0  0  0  0  0
   37.9830   24.5880   37.1910 C   0  0  0  0  0  0  0  0  0  0  0  0
   38.3950   23.7150   38.1830 C   0  0  0  0  0  0  0  0  0  0  0  0
   39.5090   22.9430   38.0220 N   0  0  0  0  0  0  0  0  0  0  0  0
   40.2510   22.9990   36.8950 C   0  0  0  0  0  0  0  0  0  0  0  0
   39.8850   23.8410   35.8920 N   0  0  0  0  0  0  0  0  0  0  0  0
   37.1170   25.2060   37.2840 H   0  0  0  0  0  0  0  0  0  0  0  0
   37.8180   23.6500   39.0980 H   0  0  0  0  0  0  0  0  0  0  0  0
   41.1390   22.4070   36.7240 H   0  0  0  0  0  0  0  0  0  0  0  0
   37.3480   27.5710   32.9310 C   0  0  2  0  0  3  0  0  0  0  0  0
   36.5720   27.2560   34.1950 C   0  0  2  0  0  3  0  0  0  0  0  0
   36.0480   28.4570   34.6010 O   0  0  0  0  0  0  0  0  0  0  0  0
   35.9410   29.3210   33.5470 C   0  0  0  0  0  2  0  0  0  0  0  0
   36.4080   28.6080   32.3050 C   0  0  1  0  0  3  0  0  0  0  0  0
   37.5170   26.4820   32.1030 O   0  0  0  0  0  0  0  0  0  0  0  0
   38.3920   26.0580   32.2830 H   0  0  0  0  0  0  0  0  0  0  0  0
   37.0530   29.4120   31.3960 O   0  0  0  0  0  0  0  0  0  0  0  0
   37.0170   28.9310   30.5240 H   0  0  0  0  0  0  0  0  0  0  0  0
  1  4  1  6  0  0  0
  1  3  1  0  0  0  0
  1  2  1  0  0  0  0
  1  8  1  0  0  0  0
  2  5  1  1  0  0  0
  3  2  1  0  0  0  0
  3  6  1  0  0  0  0
  7  3  1  0  0  0  0
  8  9  1  0  0  0  0
  9 14  1  0  0  0  0
  9 10  2  0  0  0  0
 10 15  1  0  0  0  0
 11 10  1  0  0  0  0
 12 11  2  0  0  0  0
 13  8  2  0  0  0  0
 13 12  1  0  0  0  0
 16 12  1  0  0  0  0
 17 22  1  6  0  0  0
 17 18  1  0  0  0  0
 18 19  1  1  0  0  0
 18  2  1  0  0  0  0
 20 19  1  0  0  0  0
 21 24  1  6  0  0  0
 21 17  1  0  0  0  0
 21 20  1  0  0  0  0
 22 23  1  0  0  0  0
 25 24  1  0  0  0  0
M  END
>  <minimizedAffinity>
-4.39420414

$$$$
