
 OpenBabel03272507093D

 27 29  0  0  1  0  0  0  0  0999 V2000
   35.8000   29.2700   49.2310 C   0  0  0  0  0  0  0  0  0  0  0  0
   34.8950   28.6860   50.0750 C   0  0  0  0  0  0  0  0  0  0  0  0
   33.7280   28.4740   49.3280 C   0  0  0  0  0  0  0  0  0  0  0  0
   34.0150   28.9570   48.0500 C   0  0  0  0  0  0  0  0  0  0  0  0
   35.2410   29.4110   48.0480 O   0  0  0  0  0  0  0  0  0  0  0  0
   34.9140   28.3860   51.1160 H   0  0  0  0  0  0  0  0  0  0  0  0
   32.7460   28.0510   49.5290 H   0  0  0  0  0  0  0  0  0  0  0  0
   33.1080   30.4300   46.2420 C   0  0  2  0  0  3  0  0  0  0  0  0
   33.2380   29.0330   46.8150 C   0  0  2  0  0  3  0  0  0  0  0  0
   31.9000   28.6730   46.9670 O   0  0  0  0  0  0  0  0  0  0  0  0
   31.2870   29.0340   45.7950 C   0  0  0  0  0  2  0  0  0  0  0  0
   32.0880   30.1310   45.1410 C   0  0  2  0  0  3  0  0  0  0  0  0
   34.3510   30.7350   45.6940 O   0  0  0  0  0  0  0  0  0  0  0  0
   34.9950   30.7370   46.4520 H   0  0  0  0  0  0  0  0  0  0  0  0
   32.8300   29.5620   44.0860 O   0  0  0  0  0  0  0  0  0  0  0  0
   32.6500   28.5710   44.0170 H   0  0  0  0  0  0  0  0  0  0  0  0
   37.1390   29.6360   49.6710 C   0  0  0  0  0  0  0  0  0  0  0  0
   37.6580   29.0050   50.6090 O   0  0  0  0  0  0  0  0  0  0  0  0
   37.7900   30.7250   48.9770 C   0  0  0  0  0  0  0  0  0  0  0  0
   37.9200   31.9230   49.6750 C   0  0  0  0  0  0  0  0  0  0  0  0
   38.5440   32.9930   49.0300 C   0  0  0  0  0  0  0  0  0  0  0  0
   38.9920   32.8100   47.7560 N   0  0  0  0  0  0  0  0  0  0  0  0
   38.8550   31.6420   47.1030 C   0  0  0  0  0  0  0  0  0  0  0  0
   38.2540   30.5990   47.7130 N   0  0  0  0  0  0  0  0  0  0  0  0
   37.5950   32.1360   50.6650 H   0  0  0  0  0  0  0  0  0  0  0  0
   38.6770   33.9590   49.5230 H   0  0  0  0  0  0  0  0  0  0  0  0
   39.2020   31.4750   46.0940 H   0  0  0  0  0  0  0  0  0  0  0  0
  1 17  1  0  0  0  0
  1  2  2  0  0  0  0
  2  6  1  0  0  0  0
  3  7  1  0  0  0  0
  3  2  1  0  0  0  0
  4  3  2  0  0  0  0
  5  4  1  0  0  0  0
  5  1  1  0  0  0  0
  8 13  1  6  0  0  0
  8  9  1  0  0  0  0
  9 10  1  0  0  0  0
  9  4  1  1  0  0  0
 11 10  1  0  0  0  0
 12 15  1  6  0  0  0
 12 11  1  0  0  0  0
 12  8  1  0  0  0  0
 13 14  1  0  0  0  0
 16 15  1  0  0  0  0
 17 18  2  0  0  0  0
 19 17  1  0  0  0  0
 19 20  1  0  0  0  0
 20 25  1  0  0  0  0
 21 26  1  0  0  0  0
 21 20  2  0  0  0  0
 22 21  1  0  0  0  0
 23 24  1  0  0  0  0
 23 22  2  0  0  0  0
 24 19  2  0  0  0  0
 27 23  1  0  0  0  0
M  END
>  <minimizedAffinity>
-5.51129341

>  <minimizedRMSD>
2.93539262

$$$$
