
 OpenBabel03272506103D

 44 47  0  0  1  0  0  0  0  0999 V2000
   36.6430   26.3640   32.4560 C   0  0  0  0  0  0  0  0  0  0  0  0
   36.3300   26.1230   31.4110 H   0  0  0  0  0  0  0  0  0  0  0  0
   35.7070   26.4200   33.0660 H   0  0  0  0  0  0  0  0  0  0  0  0
   37.5280   25.2590   32.9850 C   0  0  0  0  0  0  0  0  0  0  0  0
   38.1810   24.3660   32.0490 C   0  0  0  0  0  0  0  0  0  0  0  0
   39.0560   23.3090   33.1600 S   0  0  0  0  0  0  0  0  0  0  0  0
   38.4490   24.1810   34.7230 C   0  0  0  0  0  0  0  0  0  0  0  0
   37.7690   25.0260   34.2390 N   0  0  0  0  0  0  0  0  0  0  0  0
   38.7200   23.9190   36.1190 N   0  0  0  0  0  0  0  0  0  0  0  0
   39.9920   23.3610   36.4380 C   0  0  0  0  0  0  0  0  0  0  0  0
   40.0600   22.7200   37.7830 C   0  0  0  0  0  0  0  0  0  0  0  0
   38.7710   22.6580   38.4740 N   0  0  0  0  0  0  0  0  0  0  0  0
   38.2390   24.0050   38.4710 C   0  0  0  0  0  0  0  0  0  0  0  0
   37.6930   24.2350   37.0890 C   0  0  0  0  0  0  0  0  0  0  0  0
   38.1070   24.3980   31.0080 H   0  0  0  0  0  0  0  0  0  0  0  0
   40.8060   24.1420   36.3780 H   0  0  0  0  0  0  0  0  0  0  0  0
   40.2710   22.6230   35.6550 H   0  0  0  0  0  0  0  0  0  0  0  0
   40.7460   23.2870   38.4630 H   0  0  0  0  0  0  0  0  0  0  0  0
   40.4540   21.6790   37.7760 H   0  0  0  0  0  0  0  0  0  0  0  0
   38.9410   22.2730   39.4080 H   0  0  0  0  0  0  0  0  0  0  0  0
   37.4270   24.0520   39.2370 H   0  0  0  0  0  0  0  0  0  0  0  0
   38.9890   24.7590   38.7070 H   0  0  0  0  0  0  0  0  0  0  0  0
   37.4690   25.3170   36.9820 H   0  0  0  0  0  0  0  0  0  0  0  0
   36.7440   23.6970   36.8930 H   0  0  0  0  0  0  0  0  0  0  0  0
   37.3330   27.6700   32.4520 C   0  0  0  0  0  0  0  0  0  0  0  0
   37.9490   27.8100   31.5300 H   0  0  0  0  0  0  0  0  0  0  0  0
   37.9990   27.8580   33.3020 H   0  0  0  0  0  0  0  0  0  0  0  0
   35.0530   30.4230   31.4340 C   0  0  0  0  0  0  0  0  0  0  0  0
   34.5100   30.8530   32.6480 C   0  0  0  0  0  0  0  0  0  0  0  0
   34.9410   30.1840   33.7920 C   0  0  0  0  0  0  0  0  0  0  0  0
   35.8460   29.1740   33.6610 N   0  0  0  0  0  0  0  0  0  0  0  0
   36.3370   28.8030   32.4610 C   0  0  0  0  0  0  0  0  0  0  0  0
   35.9470   29.4180   31.3570 N   0  0  0  0  0  0  0  0  0  0  0  0
   34.6980   30.9630   30.5570 H   0  0  0  0  0  0  0  0  0  0  0  0
   33.8030   31.6410   32.7490 H   0  0  0  0  0  0  0  0  0  0  0  0
   35.3120   31.5870   35.8130 C   0  0  1  0  0  3  0  0  0  0  0  0
   34.4420   30.5450   35.1190 C   0  0  1  0  0  3  0  0  0  0  0  0
   33.2050   31.1480   35.1490 O   0  0  0  0  0  0  0  0  0  0  0  0
   33.0710   31.4900   36.4990 C   0  0  0  0  0  2  0  0  0  0  0  0
   34.4170   31.8640   37.0250 C   0  0  2  0  0  3  0  0  0  0  0  0
   36.5170   31.0140   36.2010 O   0  0  0  0  0  0  0  0  0  0  0  0
   36.8110   30.4510   35.4150 H   0  0  0  0  0  0  0  0  0  0  0  0
   34.5320   33.1630   37.4760 O   0  0  0  0  0  0  0  0  0  0  0  0
   35.1290   33.1330   38.2880 H   0  0  0  0  0  0  0  0  0  0  0  0
  1  4  1  0  0  0  0
  1  3  1  0  0  0  0
  2  1  1  0  0  0  0
  4  8  1  0  0  0  0
  5  4  2  0  0  0  0
  5  6  1  0  0  0  0
  6  7  1  0  0  0  0
  7  9  1  0  0  0  0
  8  7  2  0  0  0  0
  9 10  1  0  0  0  0
  9 14  1  0  0  0  0
 10 11  1  0  0  0  0
 11 18  1  0  0  0  0
 11 12  1  0  0  0  0
 12 20  1  0  0  0  0
 13 12  1  0  0  0  0
 13 22  1  0  0  0  0
 13 21  1  0  0  0  0
 14 13  1  0  0  0  0
 15  5  1  0  0  0  0
 16 10  1  0  0  0  0
 17 10  1  0  0  0  0
 19 11  1  0  0  0  0
 23 14  1  0  0  0  0
 24 14  1  0  0  0  0
 25  1  1  0  0  0  0
 25 32  1  0  0  0  0
 25 27  1  0  0  0  0
 26 25  1  0  0  0  0
 28 29  1  0  0  0  0
 29 35  1  0  0  0  0
 29 30  2  0  0  0  0
 31 30  1  0  0  0  0
 32 31  2  0  0  0  0
 33 28  2  0  0  0  0
 33 32  1  0  0  0  0
 34 28  1  0  0  0  0
 36 41  1  1  0  0  0
 36 40  1  0  0  0  0
 37 30  1  6  0  0  0
 37 38  1  0  0  0  0
 37 36  1  0  0  0  0
 38 39  1  0  0  0  0
 39 40  1  0  0  0  0
 40 43  1  6  0  0  0
 42 41  1  0  0  0  0
 43 44  1  0  0  0  0
M  END
>  <minimizedAffinity>
-6.39831734

$$$$

 OpenBabel03272506103D

 44 47  0  0  1  0  0  0  0  0999 V2000
   36.7540   26.6400   32.6160 C   0  0  0  0  0  0  0  0  0  0  0  0
   37.0900   26.9590   31.5990 H   0  0  0  0  0  0  0  0  0  0  0  0
   35.6890   26.3170   32.5150 H   0  0  0  0  0  0  0  0  0  0  0  0
   37.5970   25.4750   33.0810 C   0  0  0  0  0  0  0  0  0  0  0  0
   38.1820   24.5870   32.0970 C   0  0  0  0  0  0  0  0  0  0  0  0
   39.0300   23.4480   33.1460 S   0  0  0  0  0  0  0  0  0  0  0  0
   38.5050   24.2890   34.7550 C   0  0  0  0  0  0  0  0  0  0  0  0
   37.8560   25.1840   34.3190 N   0  0  0  0  0  0  0  0  0  0  0  0
   38.7950   23.9620   36.1330 N   0  0  0  0  0  0  0  0  0  0  0  0
   40.0460   23.3320   36.3990 C   0  0  0  0  0  0  0  0  0  0  0  0
   40.1140   22.6390   37.7180 C   0  0  0  0  0  0  0  0  0  0  0  0
   38.8400   22.6140   38.4390 N   0  0  0  0  0  0  0  0  0  0  0  0
   38.3760   23.9830   38.4980 C   0  0  0  0  0  0  0  0  0  0  0  0
   37.8090   24.2910   37.1400 C   0  0  0  0  0  0  0  0  0  0  0  0
   38.0850   24.6610   31.0610 H   0  0  0  0  0  0  0  0  0  0  0  0
   40.8950   24.0740   36.3460 H   0  0  0  0  0  0  0  0  0  0  0  0
   40.2690   22.6110   35.5830 H   0  0  0  0  0  0  0  0  0  0  0  0
   40.8440   23.1460   38.4000 H   0  0  0  0  0  0  0  0  0  0  0  0
   40.4560   21.5810   37.6620 H   0  0  0  0  0  0  0  0  0  0  0  0
   39.0140   22.1860   39.3540 H   0  0  0  0  0  0  0  0  0  0  0  0
   37.5850   24.0410   39.2860 H   0  0  0  0  0  0  0  0  0  0  0  0
   39.1670   24.6910   38.7420 H   0  0  0  0  0  0  0  0  0  0  0  0
   37.6360   25.3860   37.0780 H   0  0  0  0  0  0  0  0  0  0  0  0
   36.8300   23.8070   36.9490 H   0  0  0  0  0  0  0  0  0  0  0  0
   36.8580   27.7960   33.5310 C   0  0  0  0  0  0  0  0  0  0  0  0
   37.8490   28.3060   33.4440 H   0  0  0  0  0  0  0  0  0  0  0  0
   36.7150   27.5730   34.5950 H   0  0  0  0  0  0  0  0  0  0  0  0
   34.7480   30.2790   31.7430 C   0  0  0  0  0  0  0  0  0  0  0  0
   33.8850   30.7400   32.7400 C   0  0  0  0  0  0  0  0  0  0  0  0
   34.0480   30.1850   34.0080 C   0  0  0  0  0  0  0  0  0  0  0  0
   35.0180   29.2470   34.1950 N   0  0  0  0  0  0  0  0  0  0  0  0
   35.8230   28.8410   33.1930 C   0  0  0  0  0  0  0  0  0  0  0  0
   35.6930   29.3480   31.9790 N   0  0  0  0  0  0  0  0  0  0  0  0
   34.5980   30.7300   30.7630 H   0  0  0  0  0  0  0  0  0  0  0  0
   33.1270   31.4730   32.5940 H   0  0  0  0  0  0  0  0  0  0  0  0
   32.4660   29.4160   35.7690 C   0  0  1  0  0  3  0  0  0  0  0  0
   33.2010   30.5900   35.1310 C   0  0  1  0  0  3  0  0  0  0  0  0
   33.8590   31.1290   36.2120 O   0  0  0  0  0  0  0  0  0  0  0  0
   32.8280   31.2800   37.1460 C   0  0  0  0  0  2  0  0  0  0  0  0
   31.8720   30.1450   36.9780 C   0  0  2  0  0  3  0  0  0  0  0  0
   31.4670   28.9650   34.9160 O   0  0  0  0  0  0  0  0  0  0  0  0
   31.8860   28.9480   33.9960 H   0  0  0  0  0  0  0  0  0  0  0  0
   31.7400   29.3200   38.0750 O   0  0  0  0  0  0  0  0  0  0  0  0
   30.7670   29.0570   38.1210 H   0  0  0  0  0  0  0  0  0  0  0  0
  1  4  1  0  0  0  0
  1 25  1  0  0  0  0
  2  1  1  0  0  0  0
  3  1  1  0  0  0  0
  4  8  1  0  0  0  0
  5  4  2  0  0  0  0
  5  6  1  0  0  0  0
  6  7  1  0  0  0  0
  7  9  1  0  0  0  0
  8  7  2  0  0  0  0
  9 10  1  0  0  0  0
  9 14  1  0  0  0  0
 10 11  1  0  0  0  0
 11 18  1  0  0  0  0
 11 12  1  0  0  0  0
 12 13  1  0  0  0  0
 12 20  1  0  0  0  0
 13 22  1  0  0  0  0
 13 21  1  0  0  0  0
 14 13  1  0  0  0  0
 15  5  1  0  0  0  0
 16 10  1  0  0  0  0
 17 10  1  0  0  0  0
 19 11  1  0  0  0  0
 23 14  1  0  0  0  0
 24 14  1  0  0  0  0
 25 27  1  0  0  0  0
 26 25  1  0  0  0  0
 28 33  2  0  0  0  0
 28 29  1  0  0  0  0
 29 30  2  0  0  0  0
 30 31  1  0  0  0  0
 32 25  1  0  0  0  0
 32 31  2  0  0  0  0
 33 32  1  0  0  0  0
 34 28  1  0  0  0  0
 35 29  1  0  0  0  0
 36 41  1  6  0  0  0
 36 40  1  0  0  0  0
 37 30  1  6  0  0  0
 37 36  1  0  0  0  0
 37 38  1  0  0  0  0
 38 39  1  0  0  0  0
 40 39  1  0  0  0  0
 40 43  1  1  0  0  0
 42 41  1  0  0  0  0
 43 44  1  0  0  0  0
M  END
>  <minimizedAffinity>
-6.31738758

$$$$

 OpenBabel03272506103D

 44 47  0  0  1  0  0  0  0  0999 V2000
   37.0570   26.9730   33.1980 C   0  0  0  0  0  0  0  0  0  0  0  0
   38.1510   27.1760   33.2940 H   0  0  0  0  0  0  0  0  0  0  0  0
   36.7180   26.5670   34.1830 H   0  0  0  0  0  0  0  0  0  0  0  0
   36.3290   28.2640   32.9040 C   0  0  0  0  0  0  0  0  0  0  0  0
   35.9970   28.5930   31.5320 C   0  0  0  0  0  0  0  0  0  0  0  0
   35.1870   30.1460   31.7550 S   0  0  0  0  0  0  0  0  0  0  0  0
   35.3870   30.1650   33.6330 C   0  0  0  0  0  0  0  0  0  0  0  0
   35.9580   29.1350   33.7920 N   0  0  0  0  0  0  0  0  0  0  0  0
   34.9720   31.1370   34.6210 N   0  0  0  0  0  0  0  0  0  0  0  0
   33.7950   31.8880   34.3340 C   0  0  0  0  0  0  0  0  0  0  0  0
   33.6570   33.1380   35.1370 C   0  0  0  0  0  0  0  0  0  0  0  0
   34.8220   33.4360   35.9720 N   0  0  0  0  0  0  0  0  0  0  0  0
   35.0850   32.2440   36.7500 C   0  0  0  0  0  0  0  0  0  0  0  0
   35.7700   31.2820   35.8190 C   0  0  0  0  0  0  0  0  0  0  0  0
   36.2130   28.0190   30.6880 H   0  0  0  0  0  0  0  0  0  0  0  0
   32.8660   31.2650   34.4890 H   0  0  0  0  0  0  0  0  0  0  0  0
   33.7770   32.1330   33.2510 H   0  0  0  0  0  0  0  0  0  0  0  0
   32.7850   33.0700   35.8380 H   0  0  0  0  0  0  0  0  0  0  0  0
   33.4710   34.0530   34.5310 H   0  0  0  0  0  0  0  0  0  0  0  0
   34.5940   34.2640   36.5320 H   0  0  0  0  0  0  0  0  0  0  0  0
   35.7550   32.5310   37.5970 H   0  0  0  0  0  0  0  0  0  0  0  0
   34.1800   31.7910   37.1550 H   0  0  0  0  0  0  0  0  0  0  0  0
   35.8000   30.2870   36.3120 H   0  0  0  0  0  0  0  0  0  0  0  0
   36.8220   31.5540   35.5990 H   0  0  0  0  0  0  0  0  0  0  0  0
   36.8550   25.9700   32.1310 C   0  0  0  0  0  0  0  0  0  0  0  0
   37.5310   26.1510   31.2600 H   0  0  0  0  0  0  0  0  0  0  0  0
   35.8380   25.9030   31.7280 H   0  0  0  0  0  0  0  0  0  0  0  0
   37.1210   22.2810   32.4980 C   0  0  0  0  0  0  0  0  0  0  0  0
   37.8660   22.1300   33.6700 C   0  0  0  0  0  0  0  0  0  0  0  0
   38.2610   23.3030   34.3090 C   0  0  0  0  0  0  0  0  0  0  0  0
   37.9050   24.5000   33.7660 N   0  0  0  0  0  0  0  0  0  0  0  0
   37.1840   24.5840   32.6300 C   0  0  0  0  0  0  0  0  0  0  0  0
   36.7940   23.4890   31.9990 N   0  0  0  0  0  0  0  0  0  0  0  0
   36.8260   21.3480   32.0190 H   0  0  0  0  0  0  0  0  0  0  0  0
   38.1440   21.1950   34.0940 H   0  0  0  0  0  0  0  0  0  0  0  0
   38.1890   23.4550   36.7920 C   0  0  1  0  0  3  0  0  0  0  0  0
   39.0450   23.2700   35.5450 C   0  0  1  0  0  3  0  0  0  0  0  0
   39.6840   22.0820   35.8160 O   0  0  0  0  0  0  0  0  0  0  0  0
   40.2150   22.3120   37.0900 C   0  0  0  0  0  2  0  0  0  0  0  0
   39.2590   23.1700   37.8510 C   0  0  2  0  0  3  0  0  0  0  0  0
   37.7450   24.7690   36.8710 O   0  0  0  0  0  0  0  0  0  0  0  0
   37.4540   25.0100   35.9340 H   0  0  0  0  0  0  0  0  0  0  0  0
   38.7310   22.5950   38.9880 O   0  0  0  0  0  0  0  0  0  0  0  0
   38.6610   23.3300   39.6750 H   0  0  0  0  0  0  0  0  0  0  0  0
  1  2  1  0  0  0  0
  1  3  1  0  0  0  0
  4  1  1  0  0  0  0
  4  8  1  0  0  0  0
  5  6  1  0  0  0  0
  5  4  2  0  0  0  0
  6  7  1  0  0  0  0
  7  8  2  0  0  0  0
  7  9  1  0  0  0  0
  9 14  1  0  0  0  0
 10 16  1  0  0  0  0
 10  9  1  0  0  0  0
 10 11  1  0  0  0  0
 11 18  1  0  0  0  0
 11 12  1  0  0  0  0
 12 20  1  0  0  0  0
 12 13  1  0  0  0  0
 13 22  1  0  0  0  0
 13 21  1  0  0  0  0
 14 23  1  0  0  0  0
 14 13  1  0  0  0  0
 15  5  1  0  0  0  0
 17 10  1  0  0  0  0
 19 11  1  0  0  0  0
 24 14  1  0  0  0  0
 25 32  1  0  0  0  0
 25  1  1  0  0  0  0
 26 25  1  0  0  0  0
 27 25  1  0  0  0  0
 28 29  1  0  0  0  0
 29 35  1  0  0  0  0
 29 30  2  0  0  0  0
 31 30  1  0  0  0  0
 32 31  2  0  0  0  0
 33 28  2  0  0  0  0
 33 32  1  0  0  0  0
 34 28  1  0  0  0  0
 36 41  1  1  0  0  0
 36 40  1  0  0  0  0
 37 30  1  6  0  0  0
 37 38  1  0  0  0  0
 37 36  1  0  0  0  0
 38 39  1  0  0  0  0
 39 40  1  0  0  0  0
 40 43  1  1  0  0  0
 42 41  1  0  0  0  0
 43 44  1  0  0  0  0
M  END
>  <minimizedAffinity>
-6.09511852

$$$$

 OpenBabel03272506103D

 44 47  0  0  1  0  0  0  0  0999 V2000
   36.6000   27.5160   33.4860 C   0  0  0  0  0  0  0  0  0  0  0  0
   35.6210   27.4670   34.0220 H   0  0  0  0  0  0  0  0  0  0  0  0
   37.1760   28.3560   33.9470 H   0  0  0  0  0  0  0  0  0  0  0  0
   37.3490   26.2180   33.6870 C   0  0  0  0  0  0  0  0  0  0  0  0
   37.6860   25.4100   32.5320 C   0  0  0  0  0  0  0  0  0  0  0  0
   38.5210   24.0620   33.3090 S   0  0  0  0  0  0  0  0  0  0  0  0
   38.3200   24.7360   35.0630 C   0  0  0  0  0  0  0  0  0  0  0  0
   37.7320   25.7430   34.8320 N   0  0  0  0  0  0  0  0  0  0  0  0
   38.7490   24.2040   36.3370 N   0  0  0  0  0  0  0  0  0  0  0  0
   39.9380   23.4180   36.3430 C   0  0  0  0  0  0  0  0  0  0  0  0
   40.0950   22.5550   37.5500 C   0  0  0  0  0  0  0  0  0  0  0  0
   38.9340   22.5700   38.4420 N   0  0  0  0  0  0  0  0  0  0  0  0
   38.6510   23.9610   38.7250 C   0  0  0  0  0  0  0  0  0  0  0  0
   37.9520   24.5000   37.5080 C   0  0  0  0  0  0  0  0  0  0  0  0
   37.4630   25.6280   31.5370 H   0  0  0  0  0  0  0  0  0  0  0  0
   40.8560   24.0680   36.2520 H   0  0  0  0  0  0  0  0  0  0  0  0
   39.9610   22.7900   35.4260 H   0  0  0  0  0  0  0  0  0  0  0  0
   40.9650   22.8910   38.1720 H   0  0  0  0  0  0  0  0  0  0  0  0
   40.2960   21.4840   37.3250 H   0  0  0  0  0  0  0  0  0  0  0  0
   39.1740   22.0110   39.2670 H   0  0  0  0  0  0  0  0  0  0  0  0
   37.9860   23.9970   39.6220 H   0  0  0  0  0  0  0  0  0  0  0  0
   39.5490   24.5450   38.9300 H   0  0  0  0  0  0  0  0  0  0  0  0
   37.9060   25.6060   37.5990 H   0  0  0  0  0  0  0  0  0  0  0  0
   36.9050   24.1500   37.4090 H   0  0  0  0  0  0  0  0  0  0  0  0
   36.3430   27.7900   32.0570 C   0  0  0  0  0  0  0  0  0  0  0  0
   35.3600   27.3740   31.7260 H   0  0  0  0  0  0  0  0  0  0  0  0
   37.0950   27.4070   31.3580 H   0  0  0  0  0  0  0  0  0  0  0  0
   36.4530   31.1430   30.4570 C   0  0  0  0  0  0  0  0  0  0  0  0
   36.0970   32.0040   31.4980 C   0  0  0  0  0  0  0  0  0  0  0  0
   35.8260   31.4110   32.7290 C   0  0  0  0  0  0  0  0  0  0  0  0
   35.9230   30.0570   32.8430 N   0  0  0  0  0  0  0  0  0  0  0  0
   36.2720   29.2750   31.8010 C   0  0  0  0  0  0  0  0  0  0  0  0
   36.5350   29.8080   30.6200 N   0  0  0  0  0  0  0  0  0  0  0  0
   36.6590   31.6330   29.5070 H   0  0  0  0  0  0  0  0  0  0  0  0
   36.0220   33.0610   31.4090 H   0  0  0  0  0  0  0  0  0  0  0  0
   34.9460   31.3630   35.0560 C   0  0  1  0  0  3  0  0  0  0  0  0
   35.4430   32.2120   33.8930 C   0  0  1  0  0  3  0  0  0  0  0  0
   36.4560   32.9320   34.4830 O   0  0  0  0  0  0  0  0  0  0  0  0
   35.8260   33.4640   35.6140 C   0  0  0  0  0  2  0  0  0  0  0  0
   34.8390   32.4630   36.1170 C   0  0  2  0  0  3  0  0  0  0  0  0
   33.6970   30.8330   34.7560 O   0  0  0  0  0  0  0  0  0  0  0  0
   33.7640   30.5140   33.8000 H   0  0  0  0  0  0  0  0  0  0  0  0
   35.0790   31.9900   37.3900 O   0  0  0  0  0  0  0  0  0  0  0  0
   34.1770   31.8800   37.8300 H   0  0  0  0  0  0  0  0  0  0  0  0
  1  4  1  0  0  0  0
  1  3  1  0  0  0  0
  1  2  1  0  0  0  0
  4  8  1  0  0  0  0
  5  6  1  0  0  0  0
  5  4  2  0  0  0  0
  6  7  1  0  0  0  0
  7  9  1  0  0  0  0
  8  7  2  0  0  0  0
  9 10  1  0  0  0  0
  9 14  1  0  0  0  0
 10 11  1  0  0  0  0
 11 18  1  0  0  0  0
 11 12  1  0  0  0  0
 12 13  1  0  0  0  0
 12 20  1  0  0  0  0
 13 22  1  0  0  0  0
 13 21  1  0  0  0  0
 14 23  1  0  0  0  0
 14 13  1  0  0  0  0
 15  5  1  0  0  0  0
 16 10  1  0  0  0  0
 17 10  1  0  0  0  0
 19 11  1  0  0  0  0
 24 14  1  0  0  0  0
 25  1  1  0  0  0  0
 26 25  1  0  0  0  0
 27 25  1  0  0  0  0
 28 33  2  0  0  0  0
 28 29  1  0  0  0  0
 29 30  2  0  0  0  0
 30 31  1  0  0  0  0
 32 25  1  0  0  0  0
 32 31  2  0  0  0  0
 33 32  1  0  0  0  0
 34 28  1  0  0  0  0
 35 29  1  0  0  0  0
 36 41  1  6  0  0  0
 36 40  1  0  0  0  0
 37 30  1  6  0  0  0
 37 38  1  0  0  0  0
 37 36  1  0  0  0  0
 38 39  1  0  0  0  0
 39 40  1  0  0  0  0
 40 43  1  1  0  0  0
 42 41  1  0  0  0  0
 43 44  1  0  0  0  0
M  END
>  <minimizedAffinity>
-6.08643913

$$$$

 OpenBabel03272506103D

 44 47  0  0  1  0  0  0  0  0999 V2000
   37.3190   27.1870   35.1110 C   0  0  0  0  0  0  0  0  0  0  0  0
   37.2120   27.8060   36.0350 H   0  0  0  0  0  0  0  0  0  0  0  0
   36.6830   26.2790   35.2560 H   0  0  0  0  0  0  0  0  0  0  0  0
   36.8220   27.9710   33.9190 C   0  0  0  0  0  0  0  0  0  0  0  0
   35.6070   28.7520   34.0420 C   0  0  0  0  0  0  0  0  0  0  0  0
   35.4920   29.4370   32.4190 S   0  0  0  0  0  0  0  0  0  0  0  0
   37.0640   28.6050   31.7800 C   0  0  0  0  0  0  0  0  0  0  0  0
   37.3980   28.0150   32.7560 N   0  0  0  0  0  0  0  0  0  0  0  0
   37.7030   28.6560   30.4840 N   0  0  0  0  0  0  0  0  0  0  0  0
   37.5530   29.8590   29.7350 C   0  0  0  0  0  0  0  0  0  0  0  0
   37.8410   29.7140   28.2790 C   0  0  0  0  0  0  0  0  0  0  0  0
   38.0910   28.3330   27.8610 N   0  0  0  0  0  0  0  0  0  0  0  0
   39.1230   27.8200   28.7360 C   0  0  0  0  0  0  0  0  0  0  0  0
   38.4430   27.4950   30.0380 C   0  0  0  0  0  0  0  0  0  0  0  0
   35.0110   28.8390   34.8940 H   0  0  0  0  0  0  0  0  0  0  0  0
   38.2130   30.6790   30.1450 H   0  0  0  0  0  0  0  0  0  0  0  0
   36.5220   30.2480   29.8780 H   0  0  0  0  0  0  0  0  0  0  0  0
   38.7560   30.2930   27.9920 H   0  0  0  0  0  0  0  0  0  0  0  0
   37.0360   30.0950   27.6120 H   0  0  0  0  0  0  0  0  0  0  0  0
   38.3490   28.3550   26.8700 H   0  0  0  0  0  0  0  0  0  0  0  0
   39.5450   26.9000   28.2620 H   0  0  0  0  0  0  0  0  0  0  0  0
   39.9320   28.5310   28.9040 H   0  0  0  0  0  0  0  0  0  0  0  0
   39.2290   27.2990   30.7970 H   0  0  0  0  0  0  0  0  0  0  0  0
   37.8160   26.5830   29.9920 H   0  0  0  0  0  0  0  0  0  0  0  0
   38.7390   26.8020   34.9640 C   0  0  0  0  0  0  0  0  0  0  0  0
   39.3380   27.0800   35.8660 H   0  0  0  0  0  0  0  0  0  0  0  0
   39.2600   27.2280   34.1000 H   0  0  0  0  0  0  0  0  0  0  0  0
   38.2160   23.2470   34.0130 C   0  0  0  0  0  0  0  0  0  0  0  0
   39.2630   22.5860   34.6620 C   0  0  0  0  0  0  0  0  0  0  0  0
   40.1260   23.3800   35.4140 C   0  0  0  0  0  0  0  0  0  0  0  0
   39.9040   24.7230   35.4700 N   0  0  0  0  0  0  0  0  0  0  0  0
   38.8760   25.3060   34.8210 C   0  0  0  0  0  0  0  0  0  0  0  0
   38.0380   24.5800   34.1000 N   0  0  0  0  0  0  0  0  0  0  0  0
   37.5570   22.6020   33.4330 H   0  0  0  0  0  0  0  0  0  0  0  0
   39.4360   21.5380   34.6180 H   0  0  0  0  0  0  0  0  0  0  0  0
   40.8410   21.6870   37.0910 C   0  0  1  0  0  3  0  0  0  0  0  0
   41.2590   22.8000   36.1370 C   0  0  1  0  0  3  0  0  0  0  0  0
   42.2020   22.1660   35.3620 O   0  0  0  0  0  0  0  0  0  0  0  0
   43.0560   21.6120   36.3220 C   0  0  0  0  0  2  0  0  0  0  0  0
   42.2340   21.1970   37.4980 C   0  0  2  0  0  3  0  0  0  0  0  0
   40.1620   22.2250   38.1770 O   0  0  0  0  0  0  0  0  0  0  0  0
   39.5330   22.9120   37.7870 H   0  0  0  0  0  0  0  0  0  0  0  0
   42.2530   19.8470   37.7810 O   0  0  0  0  0  0  0  0  0  0  0  0
   42.2480   19.7650   38.7870 H   0  0  0  0  0  0  0  0  0  0  0  0
  1  3  1  0  0  0  0
  1  2  1  0  0  0  0
  4  5  2  0  0  0  0
  4  1  1  0  0  0  0
  5 15  1  0  0  0  0
  6  5  1  0  0  0  0
  7  6  1  0  0  0  0
  7  8  2  0  0  0  0
  8  4  1  0  0  0  0
  9  7  1  0  0  0  0
 10 17  1  0  0  0  0
 10 16  1  0  0  0  0
 10  9  1  0  0  0  0
 11 10  1  0  0  0  0
 12 11  1  0  0  0  0
 12 13  1  0  0  0  0
 13 22  1  0  0  0  0
 13 14  1  0  0  0  0
 14  9  1  0  0  0  0
 14 23  1  0  0  0  0
 18 11  1  0  0  0  0
 19 11  1  0  0  0  0
 20 12  1  0  0  0  0
 21 13  1  0  0  0  0
 24 14  1  0  0  0  0
 25  1  1  0  0  0  0
 25 26  1  0  0  0  0
 27 25  1  0  0  0  0
 28 33  2  0  0  0  0
 28 29  1  0  0  0  0
 29 30  2  0  0  0  0
 30 31  1  0  0  0  0
 32 25  1  0  0  0  0
 32 31  2  0  0  0  0
 33 32  1  0  0  0  0
 34 28  1  0  0  0  0
 35 29  1  0  0  0  0
 36 40  1  0  0  0  0
 36 41  1  1  0  0  0
 37 30  1  6  0  0  0
 37 36  1  0  0  0  0
 38 37  1  0  0  0  0
 38 39  1  0  0  0  0
 39 40  1  0  0  0  0
 40 43  1  6  0  0  0
 42 41  1  0  0  0  0
 43 44  1  0  0  0  0
M  END
>  <minimizedAffinity>
-6.02983046

$$$$

 OpenBabel03272506103D

 44 47  0  0  1  0  0  0  0  0999 V2000
   36.1640   28.8080   34.7520 C   0  0  0  0  0  0  0  0  0  0  0  0
   35.4900   28.6120   35.6210 H   0  0  0  0  0  0  0  0  0  0  0  0
   36.9670   29.4950   35.1170 H   0  0  0  0  0  0  0  0  0  0  0  0
   36.7790   27.5070   34.2890 C   0  0  0  0  0  0  0  0  0  0  0  0
   36.8110   27.2030   32.8730 C   0  0  0  0  0  0  0  0  0  0  0  0
   37.6070   25.6270   32.8940 S   0  0  0  0  0  0  0  0  0  0  0  0
   37.7990   25.5680   34.7720 C   0  0  0  0  0  0  0  0  0  0  0  0
   37.3020   26.6070   35.0650 N   0  0  0  0  0  0  0  0  0  0  0  0
   38.3820   24.5640   35.6340 N   0  0  0  0  0  0  0  0  0  0  0  0
   39.4530   23.7920   35.0960 C   0  0  0  0  0  0  0  0  0  0  0  0
   39.7200   22.5210   35.8300 C   0  0  0  0  0  0  0  0  0  0  0  0
   38.7450   22.2300   36.8820 N   0  0  0  0  0  0  0  0  0  0  0  0
   38.6810   23.4090   37.7190 C   0  0  0  0  0  0  0  0  0  0  0  0
   37.8450   24.4090   36.9690 C   0  0  0  0  0  0  0  0  0  0  0  0
   36.4410   27.8020   32.1030 H   0  0  0  0  0  0  0  0  0  0  0  0
   40.4110   24.3900   35.0670 H   0  0  0  0  0  0  0  0  0  0  0  0
   39.2410   23.5730   34.0280 H   0  0  0  0  0  0  0  0  0  0  0  0
   40.7190   22.5520   36.3350 H   0  0  0  0  0  0  0  0  0  0  0  0
   39.7510   21.6170   35.1820 H   0  0  0  0  0  0  0  0  0  0  0  0
   39.0610   21.3840   37.3670 H   0  0  0  0  0  0  0  0  0  0  0  0
   38.1940   23.1170   38.6820 H   0  0  0  0  0  0  0  0  0  0  0  0
   39.6630   23.8310   37.9370 H   0  0  0  0  0  0  0  0  0  0  0  0
   37.9450   25.3920   37.4750 H   0  0  0  0  0  0  0  0  0  0  0  0
   36.7630   24.1660   36.9670 H   0  0  0  0  0  0  0  0  0  0  0  0
   35.3770   29.4570   33.6830 C   0  0  0  0  0  0  0  0  0  0  0  0
   35.1960   28.7650   32.8240 H   0  0  0  0  0  0  0  0  0  0  0  0
   35.8120   30.3700   33.2610 H   0  0  0  0  0  0  0  0  0  0  0  0
   31.7110   29.6920   34.2480 C   0  0  0  0  0  0  0  0  0  0  0  0
   31.6010   30.6960   35.2130 C   0  0  0  0  0  0  0  0  0  0  0  0
   32.7930   31.2710   35.6490 C   0  0  0  0  0  0  0  0  0  0  0  0
   33.9680   30.8300   35.1190 N   0  0  0  0  0  0  0  0  0  0  0  0
   34.0120   29.8550   34.1890 C   0  0  0  0  0  0  0  0  0  0  0  0
   32.8990   29.2900   33.7540 N   0  0  0  0  0  0  0  0  0  0  0  0
   30.7640   29.2600   33.9260 H   0  0  0  0  0  0  0  0  0  0  0  0
   30.6830   31.0410   35.6260 H   0  0  0  0  0  0  0  0  0  0  0  0
   34.1840   32.9440   36.8560 C   0  0  1  0  0  3  0  0  0  0  0  0
   32.8030   32.3320   36.6570 C   0  0  1  0  0  3  0  0  0  0  0  0
   32.0430   33.4410   36.3650 O   0  0  0  0  0  0  0  0  0  0  0  0
   32.3600   34.3070   37.4180 C   0  0  0  0  0  2  0  0  0  0  0  0
   33.7940   34.1000   37.7810 C   0  0  2  0  0  3  0  0  0  0  0  0
   35.0130   32.0400   37.5070 O   0  0  0  0  0  0  0  0  0  0  0  0
   34.8390   31.1490   37.0640 H   0  0  0  0  0  0  0  0  0  0  0  0
   34.6060   35.2030   37.6150 O   0  0  0  0  0  0  0  0  0  0  0  0
   35.2620   35.1940   38.3820 H   0  0  0  0  0  0  0  0  0  0  0  0
  1  3  1  0  0  0  0
  1  2  1  0  0  0  0
  4  1  1  0  0  0  0
  4  8  1  0  0  0  0
  5  6  1  0  0  0  0
  5  4  2  0  0  0  0
  6  7  1  0  0  0  0
  7  8  2  0  0  0  0
  7  9  1  0  0  0  0
  9 14  1  0  0  0  0
 10  9  1  0  0  0  0
 10 11  1  0  0  0  0
 11 18  1  0  0  0  0
 11 12  1  0  0  0  0
 12 20  1  0  0  0  0
 12 13  1  0  0  0  0
 13 22  1  0  0  0  0
 13 21  1  0  0  0  0
 14 23  1  0  0  0  0
 14 13  1  0  0  0  0
 15  5  1  0  0  0  0
 16 10  1  0  0  0  0
 17 10  1  0  0  0  0
 19 11  1  0  0  0  0
 24 14  1  0  0  0  0
 25 32  1  0  0  0  0
 25  1  1  0  0  0  0
 26 25  1  0  0  0  0
 27 25  1  0  0  0  0
 28 29  1  0  0  0  0
 29 35  1  0  0  0  0
 29 30  2  0  0  0  0
 31 30  1  0  0  0  0
 32 31  2  0  0  0  0
 33 32  1  0  0  0  0
 33 28  2  0  0  0  0
 34 28  1  0  0  0  0
 36 41  1  1  0  0  0
 36 40  1  0  0  0  0
 37 30  1  6  0  0  0
 37 36  1  0  0  0  0
 38 37  1  0  0  0  0
 38 39  1  0  0  0  0
 39 40  1  0  0  0  0
 40 43  1  6  0  0  0
 42 41  1  0  0  0  0
 43 44  1  0  0  0  0
M  END
>  <minimizedAffinity>
-5.96919298

$$$$

 OpenBabel03272506103D

 44 47  0  0  1  0  0  0  0  0999 V2000
   37.8180   25.7500   31.1360 C   0  0  0  0  0  0  0  0  0  0  0  0
   38.7250   26.2350   31.5710 H   0  0  0  0  0  0  0  0  0  0  0  0
   37.5750   26.3070   30.1980 H   0  0  0  0  0  0  0  0  0  0  0  0
   38.1270   24.3080   30.8070 C   0  0  0  0  0  0  0  0  0  0  0  0
   39.2790   24.0020   29.9820 C   0  0  0  0  0  0  0  0  0  0  0  0
   39.1740   22.2410   29.9150 S   0  0  0  0  0  0  0  0  0  0  0  0
   37.6210   22.1300   30.9850 C   0  0  0  0  0  0  0  0  0  0  0  0
   37.4370   23.2830   31.2050 N   0  0  0  0  0  0  0  0  0  0  0  0
   36.8550   20.9860   31.4280 N   0  0  0  0  0  0  0  0  0  0  0  0
   37.5680   19.7680   31.6270 C   0  0  0  0  0  0  0  0  0  0  0  0
   36.7050   18.5510   31.6540 C   0  0  0  0  0  0  0  0  0  0  0  0
   35.3010   18.8150   31.3330 N   0  0  0  0  0  0  0  0  0  0  0  0
   34.8720   19.8810   32.2140 C   0  0  0  0  0  0  0  0  0  0  0  0
   35.4320   21.1510   31.6360 C   0  0  0  0  0  0  0  0  0  0  0  0
   39.9470   24.6900   29.5720 H   0  0  0  0  0  0  0  0  0  0  0  0
   38.1650   19.7980   32.5850 H   0  0  0  0  0  0  0  0  0  0  0  0
   38.3380   19.6650   30.8330 H   0  0  0  0  0  0  0  0  0  0  0  0
   36.7050   18.0820   32.6720 H   0  0  0  0  0  0  0  0  0  0  0  0
   37.0310   17.7430   30.9630 H   0  0  0  0  0  0  0  0  0  0  0  0
   34.7890   17.9360   31.4530 H   0  0  0  0  0  0  0  0  0  0  0  0
   33.7550   19.8950   32.2110 H   0  0  0  0  0  0  0  0  0  0  0  0
   35.2190   19.7520   33.2390 H   0  0  0  0  0  0  0  0  0  0  0  0
   35.3050   21.9580   32.3880 H   0  0  0  0  0  0  0  0  0  0  0  0
   34.9050   21.4890   30.7210 H   0  0  0  0  0  0  0  0  0  0  0  0
   36.7090   25.8690   32.1070 C   0  0  0  0  0  0  0  0  0  0  0  0
   36.1690   24.9000   32.2380 H   0  0  0  0  0  0  0  0  0  0  0  0
   35.9480   26.6200   31.8680 H   0  0  0  0  0  0  0  0  0  0  0  0
   37.9550   27.7570   35.0560 C   0  0  0  0  0  0  0  0  0  0  0  0
   38.1780   26.7550   36.0040 C   0  0  0  0  0  0  0  0  0  0  0  0
   37.8950   25.4500   35.6070 C   0  0  0  0  0  0  0  0  0  0  0  0
   37.4270   25.2330   34.3460 N   0  0  0  0  0  0  0  0  0  0  0  0
   37.2310   26.2420   33.4730 C   0  0  0  0  0  0  0  0  0  0  0  0
   37.4900   27.4910   33.8190 N   0  0  0  0  0  0  0  0  0  0  0  0
   38.1840   28.7670   35.3940 H   0  0  0  0  0  0  0  0  0  0  0  0
   38.5430   26.9250   36.9890 H   0  0  0  0  0  0  0  0  0  0  0  0
   39.4360   23.6310   36.3200 C   0  0  1  0  0  3  0  0  0  0  0  0
   38.0900   24.3180   36.5140 C   0  0  1  0  0  3  0  0  0  0  0  0
   38.1220   24.6260   37.8550 O   0  0  0  0  0  0  0  0  0  0  0  0
   38.4530   23.3970   38.4360 C   0  0  0  0  0  2  0  0  0  0  0  0
   39.3840   22.6770   37.5170 C   0  0  2  0  0  3  0  0  0  0  0  0
   39.4410   22.9310   35.1210 O   0  0  0  0  0  0  0  0  0  0  0  0
   39.0090   23.5480   34.4470 H   0  0  0  0  0  0  0  0  0  0  0  0
   40.6350   22.4150   38.0350 O   0  0  0  0  0  0  0  0  0  0  0  0
   40.9030   21.5050   37.6900 H   0  0  0  0  0  0  0  0  0  0  0  0
  1  2  1  0  0  0  0
  1 25  1  0  0  0  0
  3  1  1  0  0  0  0
  4  1  1  0  0  0  0
  4  8  1  0  0  0  0
  5  4  2  0  0  0  0
  6  5  1  0  0  0  0
  6  7  1  0  0  0  0
  7  8  2  0  0  0  0
  7  9  1  0  0  0  0
  9 10  1  0  0  0  0
  9 14  1  0  0  0  0
 10 11  1  0  0  0  0
 10 16  1  0  0  0  0
 11 18  1  0  0  0  0
 12 20  1  0  0  0  0
 12 11  1  0  0  0  0
 12 13  1  0  0  0  0
 13 22  1  0  0  0  0
 14 13  1  0  0  0  0
 14 23  1  0  0  0  0
 15  5  1  0  0  0  0
 17 10  1  0  0  0  0
 19 11  1  0  0  0  0
 21 13  1  0  0  0  0
 24 14  1  0  0  0  0
 25 26  1  0  0  0  0
 25 32  1  0  0  0  0
 27 25  1  0  0  0  0
 28 34  1  0  0  0  0
 28 29  1  0  0  0  0
 29 35  1  0  0  0  0
 30 29  2  0  0  0  0
 31 30  1  0  0  0  0
 32 33  1  0  0  0  0
 32 31  2  0  0  0  0
 33 28  2  0  0  0  0
 36 41  1  6  0  0  0
 36 37  1  0  0  0  0
 36 40  1  0  0  0  0
 37 30  1  6  0  0  0
 37 38  1  0  0  0  0
 38 39  1  0  0  0  0
 40 43  1  1  0  0  0
 40 39  1  0  0  0  0
 42 41  1  0  0  0  0
 44 43  1  0  0  0  0
M  END
>  <minimizedAffinity>
-5.88917875

$$$$

 OpenBabel03272506103D

 44 47  0  0  1  0  0  0  0  0999 V2000
   35.9780   28.3150   32.3190 C   0  0  0  0  0  0  0  0  0  0  0  0
   35.5170   27.4400   31.7990 H   0  0  0  0  0  0  0  0  0  0  0  0
   36.7250   28.7520   31.6110 H   0  0  0  0  0  0  0  0  0  0  0  0
   34.9090   29.3380   32.6240 C   0  0  0  0  0  0  0  0  0  0  0  0
   34.9010   30.5930   31.8990 C   0  0  0  0  0  0  0  0  0  0  0  0
   33.4980   31.3820   32.6240 S   0  0  0  0  0  0  0  0  0  0  0  0
   33.0970   29.9540   33.7950 C   0  0  0  0  0  0  0  0  0  0  0  0
   33.9640   29.1960   33.5030 N   0  0  0  0  0  0  0  0  0  0  0  0
   32.0430   29.7990   34.7730 N   0  0  0  0  0  0  0  0  0  0  0  0
   30.8070   30.4570   34.5030 C   0  0  0  0  0  0  0  0  0  0  0  0
   29.9320   30.6300   35.6990 C   0  0  0  0  0  0  0  0  0  0  0  0
   30.5610   30.2190   36.9550 N   0  0  0  0  0  0  0  0  0  0  0  0
   31.0430   28.8700   36.7500 C   0  0  0  0  0  0  0  0  0  0  0  0
   32.3090   28.9970   35.9480 C   0  0  0  0  0  0  0  0  0  0  0  0
   35.5770   30.8840   31.1590 H   0  0  0  0  0  0  0  0  0  0  0  0
   30.2180   29.9080   33.7110 H   0  0  0  0  0  0  0  0  0  0  0  0
   31.0170   31.4460   34.0430 H   0  0  0  0  0  0  0  0  0  0  0  0
   29.0000   30.0170   35.6060 H   0  0  0  0  0  0  0  0  0  0  0  0
   29.5790   31.6730   35.8600 H   0  0  0  0  0  0  0  0  0  0  0  0
   29.8560   30.3070   37.6940 H   0  0  0  0  0  0  0  0  0  0  0  0
   31.2460   28.4240   37.7540 H   0  0  0  0  0  0  0  0  0  0  0  0
   30.3290   28.2370   36.2230 H   0  0  0  0  0  0  0  0  0  0  0  0
   32.5960   27.9850   35.5920 H   0  0  0  0  0  0  0  0  0  0  0  0
   33.1680   29.3770   36.5360 H   0  0  0  0  0  0  0  0  0  0  0  0
   36.6490   27.8350   33.5450 C   0  0  0  0  0  0  0  0  0  0  0  0
   35.9750   27.8900   34.4340 H   0  0  0  0  0  0  0  0  0  0  0  0
   37.5700   28.3620   33.8190 H   0  0  0  0  0  0  0  0  0  0  0  0
   37.0930   24.3630   32.2950 C   0  0  0  0  0  0  0  0  0  0  0  0
   37.8270   23.7490   33.3130 C   0  0  0  0  0  0  0  0  0  0  0  0
   38.1530   24.5450   34.4090 C   0  0  0  0  0  0  0  0  0  0  0  0
   37.7470   25.8450   34.4220 N   0  0  0  0  0  0  0  0  0  0  0  0
   37.0390   26.3840   33.4090 C   0  0  0  0  0  0  0  0  0  0  0  0
   36.7130   25.6550   32.3540 N   0  0  0  0  0  0  0  0  0  0  0  0
   36.8520   23.7180   31.4510 H   0  0  0  0  0  0  0  0  0  0  0  0
   38.1440   22.7340   33.3020 H   0  0  0  0  0  0  0  0  0  0  0  0
   38.1540   24.0750   36.8530 C   0  0  1  0  0  3  0  0  0  0  0  0
   38.9190   24.0120   35.5360 C   0  0  1  0  0  3  0  0  0  0  0  0
   39.2400   22.6760   35.4620 O   0  0  0  0  0  0  0  0  0  0  0  0
   39.8290   22.4390   36.7100 C   0  0  0  0  0  2  0  0  0  0  0  0
   39.1300   23.2820   37.7260 C   0  0  2  0  0  3  0  0  0  0  0  0
   38.0570   25.3930   37.2800 O   0  0  0  0  0  0  0  0  0  0  0  0
   37.8250   25.9280   36.4550 H   0  0  0  0  0  0  0  0  0  0  0  0
   38.4880   22.5820   38.7270 O   0  0  0  0  0  0  0  0  0  0  0  0
   38.6150   23.1140   39.5750 H   0  0  0  0  0  0  0  0  0  0  0  0
  1  4  1  0  0  0  0
  1 25  1  0  0  0  0
  2  1  1  0  0  0  0
  3  1  1  0  0  0  0
  4  8  1  0  0  0  0
  5  6  1  0  0  0  0
  5  4  2  0  0  0  0
  6  7  1  0  0  0  0
  7  9  1  0  0  0  0
  8  7  2  0  0  0  0
  9 14  1  0  0  0  0
 10  9  1  0  0  0  0
 10 11  1  0  0  0  0
 11 19  1  0  0  0  0
 11 12  1  0  0  0  0
 12 20  1  0  0  0  0
 13 12  1  0  0  0  0
 13 21  1  0  0  0  0
 14 24  1  0  0  0  0
 14 13  1  0  0  0  0
 15  5  1  0  0  0  0
 16 10  1  0  0  0  0
 17 10  1  0  0  0  0
 18 11  1  0  0  0  0
 22 13  1  0  0  0  0
 23 14  1  0  0  0  0
 25 27  1  0  0  0  0
 25 26  1  0  0  0  0
 28 33  2  0  0  0  0
 28 29  1  0  0  0  0
 29 30  2  0  0  0  0
 30 31  1  0  0  0  0
 32 25  1  0  0  0  0
 32 31  2  0  0  0  0
 33 32  1  0  0  0  0
 34 28  1  0  0  0  0
 35 29  1  0  0  0  0
 36 41  1  1  0  0  0
 36 40  1  0  0  0  0
 37 30  1  6  0  0  0
 37 36  1  0  0  0  0
 38 37  1  0  0  0  0
 38 39  1  0  0  0  0
 39 40  1  0  0  0  0
 40 43  1  1  0  0  0
 42 41  1  0  0  0  0
 43 44  1  0  0  0  0
M  END
>  <minimizedAffinity>
-5.79472303

$$$$

 OpenBabel03272506103D

 44 47  0  0  1  0  0  0  0  0999 V2000
   37.6800   26.5860   32.5280 C   0  0  0  0  0  0  0  0  0  0  0  0
   38.7670   26.6400   32.2730 H   0  0  0  0  0  0  0  0  0  0  0  0
   37.6180   26.3790   33.6250 H   0  0  0  0  0  0  0  0  0  0  0  0
   37.0250   27.9130   32.2230 C   0  0  0  0  0  0  0  0  0  0  0  0
   36.0180   28.4300   33.1280 C   0  0  0  0  0  0  0  0  0  0  0  0
   35.6030   29.9460   32.3250 S   0  0  0  0  0  0  0  0  0  0  0  0
   36.8130   29.7070   30.8940 C   0  0  0  0  0  0  0  0  0  0  0  0
   37.2870   28.6600   31.1940 N   0  0  0  0  0  0  0  0  0  0  0  0
   37.1030   30.5420   29.7490 N   0  0  0  0  0  0  0  0  0  0  0  0
   36.9570   31.9490   29.9210 C   0  0  0  0  0  0  0  0  0  0  0  0
   36.8400   32.7130   28.6440 C   0  0  0  0  0  0  0  0  0  0  0  0
   36.7580   31.8650   27.4540 N   0  0  0  0  0  0  0  0  0  0  0  0
   37.8860   30.9600   27.5160 C   0  0  0  0  0  0  0  0  0  0  0  0
   37.5160   29.9010   28.5190 C   0  0  0  0  0  0  0  0  0  0  0  0
   35.6780   27.9720   34.0020 H   0  0  0  0  0  0  0  0  0  0  0  0
   37.8180   32.3790   30.5120 H   0  0  0  0  0  0  0  0  0  0  0  0
   36.0690   32.1460   30.5590 H   0  0  0  0  0  0  0  0  0  0  0  0
   37.7310   33.3740   28.4900 H   0  0  0  0  0  0  0  0  0  0  0  0
   35.9620   33.3940   28.5970 H   0  0  0  0  0  0  0  0  0  0  0  0
   36.7570   32.4830   26.6360 H   0  0  0  0  0  0  0  0  0  0  0  0
   38.0260   30.5190   26.4990 H   0  0  0  0  0  0  0  0  0  0  0  0
   38.8110   31.4510   27.8170 H   0  0  0  0  0  0  0  0  0  0  0  0
   38.4280   29.3120   28.7500 H   0  0  0  0  0  0  0  0  0  0  0  0
   36.7630   29.1800   28.1420 H   0  0  0  0  0  0  0  0  0  0  0  0
   37.0710   25.4800   31.7600 C   0  0  0  0  0  0  0  0  0  0  0  0
   37.5560   25.3530   30.7610 H   0  0  0  0  0  0  0  0  0  0  0  0
   35.9940   25.5670   31.5750 H   0  0  0  0  0  0  0  0  0  0  0  0
   36.9570   21.8880   32.7090 C   0  0  0  0  0  0  0  0  0  0  0  0
   37.6740   21.8520   33.9070 C   0  0  0  0  0  0  0  0  0  0  0  0
   38.1820   23.0670   34.3630 C   0  0  0  0  0  0  0  0  0  0  0  0
   37.9540   24.1910   33.6300 N   0  0  0  0  0  0  0  0  0  0  0  0
   37.2530   24.1650   32.4780 C   0  0  0  0  0  0  0  0  0  0  0  0
   36.7580   23.0280   32.0190 N   0  0  0  0  0  0  0  0  0  0  0  0
   36.5720   20.9250   32.3760 H   0  0  0  0  0  0  0  0  0  0  0  0
   37.8520   20.9730   34.4800 H   0  0  0  0  0  0  0  0  0  0  0  0
   38.0640   23.3030   36.8380 C   0  0  1  0  0  3  0  0  0  0  0  0
   38.9500   23.1530   35.6060 C   0  0  1  0  0  3  0  0  0  0  0  0
   39.6920   22.0400   35.9290 O   0  0  0  0  0  0  0  0  0  0  0  0
   40.1830   22.3650   37.1980 C   0  0  0  0  0  2  0  0  0  0  0  0
   39.1410   23.1580   37.9170 C   0  0  2  0  0  3  0  0  0  0  0  0
   37.4980   24.5710   36.8620 O   0  0  0  0  0  0  0  0  0  0  0  0
   37.1980   24.7500   35.9140 H   0  0  0  0  0  0  0  0  0  0  0  0
   38.6540   22.5780   39.0700 O   0  0  0  0  0  0  0  0  0  0  0  0
   38.5070   23.3290   39.7280 H   0  0  0  0  0  0  0  0  0  0  0  0
  1  3  1  0  0  0  0
  2  1  1  0  0  0  0
  4  1  1  0  0  0  0
  4  5  2  0  0  0  0
  5 15  1  0  0  0  0
  6  5  1  0  0  0  0
  7  8  2  0  0  0  0
  7  6  1  0  0  0  0
  8  4  1  0  0  0  0
  9 10  1  0  0  0  0
  9  7  1  0  0  0  0
 10 16  1  0  0  0  0
 10 17  1  0  0  0  0
 11 10  1  0  0  0  0
 12 13  1  0  0  0  0
 12 11  1  0  0  0  0
 13 22  1  0  0  0  0
 13 14  1  0  0  0  0
 14 23  1  0  0  0  0
 14  9  1  0  0  0  0
 18 11  1  0  0  0  0
 19 11  1  0  0  0  0
 20 12  1  0  0  0  0
 21 13  1  0  0  0  0
 24 14  1  0  0  0  0
 25 32  1  0  0  0  0
 25  1  1  0  0  0  0
 26 25  1  0  0  0  0
 27 25  1  0  0  0  0
 28 29  1  0  0  0  0
 29 30  2  0  0  0  0
 29 35  1  0  0  0  0
 31 30  1  0  0  0  0
 32 31  2  0  0  0  0
 33 32  1  0  0  0  0
 33 28  2  0  0  0  0
 34 28  1  0  0  0  0
 36 41  1  6  0  0  0
 36 40  1  0  0  0  0
 37 30  1  6  0  0  0
 37 38  1  0  0  0  0
 37 36  1  0  0  0  0
 38 39  1  0  0  0  0
 39 40  1  0  0  0  0
 40 43  1  1  0  0  0
 42 41  1  0  0  0  0
 43 44  1  0  0  0  0
M  END
>  <minimizedAffinity>
-5.79343796

$$$$
