
 OpenBabel03262522443D

 35 38  0  0  1  0  0  0  0  0999 V2000
   37.7590   31.4500   46.0010 C   0  0  1  0  0  0  0  0  0  0  0  0
   36.3190   31.1330   45.9640 C   0  0  0  0  0  0  0  0  0  0  0  0
   37.1530   30.1510   46.6180 C   0  0  2  0  0  0  0  0  0  0  0  0
   38.2620   31.9970   46.8020 H   0  0  0  0  0  0  0  0  0  0  0  0
   35.9250   30.9140   44.9170 H   0  0  0  0  0  0  0  0  0  0  0  0
   35.7360   31.9530   46.4100 H   0  0  0  0  0  0  0  0  0  0  0  0
   37.7690   29.3630   46.1160 H   0  0  0  0  0  0  0  0  0  0  0  0
   34.7920   28.6440   48.0050 Cl  0  0  0  0  0  0  0  0  0  0  0  0
   36.0730   29.4510   48.8740 C   0  0  0  0  0  0  0  0  0  0  0  0
   37.0570   29.9960   48.0660 C   0  0  0  0  0  0  0  0  0  0  0  0
   38.1100   30.5710   48.7120 C   0  0  0  0  0  0  0  0  0  0  0  0
   38.2000   30.6130   50.1240 C   0  0  0  0  0  0  0  0  0  0  0  0
   37.1820   30.0490   50.8920 C   0  0  0  0  0  0  0  0  0  0  0  0
   37.1860   30.0080   52.6500 Cl  0  0  0  0  0  0  0  0  0  0  0  0
   36.1100   29.4640   50.2310 C   0  0  0  0  0  0  0  0  0  0  0  0
   38.9720   31.0490   48.2650 H   0  0  0  0  0  0  0  0  0  0  0  0
   39.0230   31.0630   50.6600 H   0  0  0  0  0  0  0  0  0  0  0  0
   35.2720   29.0030   50.7330 H   0  0  0  0  0  0  0  0  0  0  0  0
   37.9200   31.3930   43.4440 C   0  0  0  0  0  0  0  0  0  0  0  0
   38.5530   31.2740   44.7430 C   0  0  0  0  0  0  0  0  0  0  0  0
   39.9080   30.9490   44.7880 C   0  0  0  0  0  0  0  0  0  0  0  0
   40.5820   30.7570   43.6010 N   0  0  0  0  0  0  0  0  0  0  0  0
   39.9430   30.8800   42.4160 C   0  0  0  0  0  0  0  0  0  0  0  0
   38.6370   31.1940   42.3340 N   0  0  0  0  0  0  0  0  0  0  0  0
   36.8660   31.6480   43.4280 H   0  0  0  0  0  0  0  0  0  0  0  0
   40.3740   30.8620   45.7590 H   0  0  0  0  0  0  0  0  0  0  0  0
   40.0270   30.3950   39.9880 C   0  0  2  0  0  0  0  0  0  0  0  0
   40.8150   30.6400   41.2280 C   0  0  2  0  0  0  0  0  0  0  0  0
   41.7120   29.6170   41.4250 O   0  0  0  0  0  0  0  0  0  0  0  0
   41.4170   28.5910   40.5520 C   0  0  0  0  0  0  0  0  0  0  0  0
   40.5740   29.1060   39.4430 C   0  0  1  0  0  0  0  0  0  0  0  0
   40.1710   31.4450   39.0710 O   0  0  0  0  0  0  0  0  0  0  0  0
   39.8720   32.2570   39.5760 H   0  0  0  0  0  0  0  0  0  0  0  0
   39.4810   28.2330   39.2770 O   0  0  0  0  0  0  0  0  0  0  0  0
   38.6190   28.7200   39.2350 H   0  0  0  0  0  0  0  0  0  0  0  0
  1  3  1  0  0  0  0
  1  4  1  1  0  0  0
  2  1  1  0  0  0  0
  2  6  1  0  0  0  0
  2  3  1  0  0  0  0
  3  7  1  6  0  0  0
  3 10  1  0  0  0  0
  5  2  1  0  0  0  0
  8  9  1  0  0  0  0
  9 15  1  0  0  0  0
 10 11  1  0  0  0  0
 10  9  2  0  0  0  0
 11 12  2  0  0  0  0
 12 17  1  0  0  0  0
 12 13  1  0  0  0  0
 13 14  1  0  0  0  0
 15 18  1  0  0  0  0
 15 13  2  0  0  0  0
 16 11  1  0  0  0  0
 19 20  1  0  0  0  0
 20 21  2  0  0  0  0
 20  1  1  0  0  0  0
 21 26  1  0  0  0  0
 22 21  1  0  0  0  0
 23 22  2  0  0  0  0
 24 23  1  0  0  0  0
 24 19  2  0  0  0  0
 25 19  1  0  0  0  0
 27 32  1  6  0  0  0
 27 28  1  0  0  0  0
 28 29  1  0  0  0  0
 28 23  1  1  0  0  0
 30 29  1  0  0  0  0
 31 34  1  1  0  0  0
 31 27  1  0  0  0  0
 31 30  1  0  0  0  0
 32 33  1  0  0  0  0
 35 34  1  0  0  0  0
M  END
>  <minimizedAffinity>
-4.90206623

>  <minimizedRMSD>
2.46048903

$$$$
