
 OpenBabel03272508363D

 44 47  0  0  1  0  0  0  0  0999 V2000
   40.4210   31.7440   44.3230 C   0  0  0  0  0  0  0  0  0  0  0  0
   40.2250   30.6680   44.6110 H   0  0  0  0  0  0  0  0  0  0  0  0
   41.5320   31.7980   44.3080 H   0  0  0  0  0  0  0  0  0  0  0  0
   39.9690   31.9110   43.0120 N   0  0  0  0  0  0  0  0  0  0  0  0
   39.3390   33.0990   42.6810 C   0  0  0  0  0  0  0  0  0  0  0  0
   37.9210   33.0010   42.2460 C   0  0  0  0  0  0  0  0  0  0  0  0
   37.7020   31.9320   41.3970 O   0  0  0  0  0  0  0  0  0  0  0  0
   38.1360   30.7570   41.9700 C   0  0  0  0  0  0  0  0  0  0  0  0
   39.5710   30.7570   42.2670 C   0  0  1  0  0  0  0  0  0  0  0  0
   39.9100   33.3270   41.7160 H   0  0  0  0  0  0  0  0  0  0  0  0
   39.5670   34.0050   43.2230 H   0  0  0  0  0  0  0  0  0  0  0  0
   37.8200   33.8600   41.4730 H   0  0  0  0  0  0  0  0  0  0  0  0
   37.1310   33.3230   42.8970 H   0  0  0  0  0  0  0  0  0  0  0  0
   37.4650   30.3280   42.7270 H   0  0  0  0  0  0  0  0  0  0  0  0
   37.9810   30.0510   41.1400 H   0  0  0  0  0  0  0  0  0  0  0  0
   39.7860   29.8810   42.9230 H   0  0  0  0  0  0  0  0  0  0  0  0
   40.0990   29.4880   40.1270 C   0  0  1  0  0  0  0  0  0  0  0  0
   40.5010   30.5780   41.0740 C   0  0  2  0  0  0  0  0  0  0  0  0
   41.6930   29.9890   41.6040 O   0  0  0  0  0  0  0  0  0  0  0  0
   41.3710   28.6750   41.9030 C   0  0  0  0  0  0  0  0  0  0  0  0
   40.2880   28.2120   40.9590 C   0  0  2  0  0  0  0  0  0  0  0  0
   38.8580   29.4800   39.6040 O   0  0  0  0  0  0  0  0  0  0  0  0
   38.8200   29.3580   38.6060 H   0  0  0  0  0  0  0  0  0  0  0  0
   40.6700   27.1370   40.1740 O   0  0  0  0  0  0  0  0  0  0  0  0
   39.9790   27.0020   39.4950 H   0  0  0  0  0  0  0  0  0  0  0  0
   39.8500   32.5890   45.3570 C   0  0  0  0  0  0  0  0  0  0  0  0
   40.6800   32.8490   46.0850 H   0  0  0  0  0  0  0  0  0  0  0  0
   39.3950   33.5540   45.1510 H   0  0  0  0  0  0  0  0  0  0  0  0
   37.7580   30.9610   47.7760 C   0  0  0  0  0  0  0  0  0  0  0  0
   36.9990   30.8000   46.6330 C   0  0  0  0  0  0  0  0  0  0  0  0
   37.7040   31.3930   45.5860 C   0  0  0  0  0  0  0  0  0  0  0  0
   38.8290   31.8780   46.1130 N   0  0  0  0  0  0  0  0  0  0  0  0
   38.8660   31.6200   47.4340 N   0  0  0  0  0  0  0  0  0  0  0  0
   36.0170   30.2900   46.5790 H   0  0  0  0  0  0  0  0  0  0  0  0
   37.2610   31.3510   44.6590 H   0  0  0  0  0  0  0  0  0  0  0  0
   37.4740   30.2140   51.4480 C   0  0  0  0  0  0  0  0  0  0  0  0
   37.9760   30.7500   50.2640 C   0  0  0  0  0  0  0  0  0  0  0  0
   37.3420   30.4690   49.0650 C   0  0  0  0  0  0  0  0  0  0  0  0
   36.2540   29.6660   49.1580 N   0  0  0  0  0  0  0  0  0  0  0  0
   35.7750   29.1500   50.3090 C   0  0  0  0  0  0  0  0  0  0  0  0
   36.3960   29.4320   51.4480 N   0  0  0  0  0  0  0  0  0  0  0  0
   37.9990   30.4570   52.3810 H   0  0  0  0  0  0  0  0  0  0  0  0
   38.8480   31.3880   50.2240 H   0  0  0  0  0  0  0  0  0  0  0  0
   34.8940   28.5320   50.1700 H   0  0  0  0  0  0  0  0  0  0  0  0
  1  2  1  0  0  0  0
  1 26  1  0  0  0  0
  3  1  1  0  0  0  0
  4  1  1  0  0  0  0
  5  4  1  0  0  0  0
  5 11  1  0  0  0  0
  6  5  1  0  0  0  0
  6 13  1  0  0  0  0
  7  8  1  0  0  0  0
  7  6  1  0  0  0  0
  8  9  1  0  0  0  0
  8 14  1  0  0  0  0
  9 16  1  1  0  0  0
  9  4  1  0  0  0  0
 10  5  1  0  0  0  0
 12  6  1  0  0  0  0
 15  8  1  0  0  0  0
 17 22  1  1  0  0  0
 17 21  1  0  0  0  0
 17 18  1  0  0  0  0
 18 19  1  1  0  0  0
 18  9  1  0  0  0  0
 19 20  1  0  0  0  0
 21 24  1  6  0  0  0
 21 20  1  0  0  0  0
 23 22  1  0  0  0  0
 25 24  1  0  0  0  0
 26 27  1  0  0  0  0
 26 32  1  0  0  0  0
 28 26  1  0  0  0  0
 29 38  1  0  0  0  0
 30 29  1  0  0  0  0
 31 32  1  0  0  0  0
 31 30  2  0  0  0  0
 32 33  1  0  0  0  0
 33 29  2  0  0  0  0
 34 30  1  0  0  0  0
 35 31  1  0  0  0  0
 36 41  1  0  0  0  0
 36 42  1  0  0  0  0
 37 36  2  0  0  0  0
 38 39  2  0  0  0  0
 38 37  1  0  0  0  0
 39 40  1  0  0  0  0
 40 41  2  0  0  0  0
 43 37  1  0  0  0  0
 44 40  1  0  0  0  0
M  END
>  <minimizedAffinity>
-5.79485035

>  <minimizedRMSD>
1.68831944

$$$$
