
 OpenBabel03272508053D

 35 38  0  0  1  0  0  0  0  0999 V2000
   38.9000   30.8940   45.7710 C   0  0  0  0  0  0  0  0  0  0  0  0
   40.1290   31.4320   46.0400 C   0  0  0  0  0  0  0  0  0  0  0  0
   40.9410   31.3960   44.9150 C   0  0  0  0  0  0  0  0  0  0  0  0
   40.1410   30.8150   43.9740 N   0  0  0  0  0  0  0  0  0  0  0  0
   38.9600   30.5250   44.4690 N   0  0  0  0  0  0  0  0  0  0  0  0
   40.4670   31.8430   46.9880 H   0  0  0  0  0  0  0  0  0  0  0  0
   41.9520   31.7230   44.7510 H   0  0  0  0  0  0  0  0  0  0  0  0
   37.7700   30.7430   46.6680 C   0  0  0  0  0  0  0  0  0  0  0  0
   38.0000   30.9770   48.0510 C   0  0  0  0  0  0  0  0  0  0  0  0
   36.9230   30.8340   48.9210 C   0  0  0  0  0  0  0  0  0  0  0  0
   35.7230   30.4800   48.3980 N   0  0  0  0  0  0  0  0  0  0  0  0
   35.5320   30.2630   47.0760 C   0  0  0  0  0  0  0  0  0  0  0  0
   36.5680   30.3990   46.2230 N   0  0  0  0  0  0  0  0  0  0  0  0
   38.9540   31.2590   48.4680 H   0  0  0  0  0  0  0  0  0  0  0  0
   34.5420   29.9800   46.7080 H   0  0  0  0  0  0  0  0  0  0  0  0
   37.1500   31.0770   50.3800 C   0  0  0  0  0  0  0  0  0  0  0  0
   36.6160   32.3110   50.6320 F   0  0  0  0  0  0  0  0  0  0  0  0
   36.4890   30.1340   51.1690 F   0  0  0  0  0  0  0  0  0  0  0  0
   38.4990   31.0760   50.7030 F   0  0  0  0  0  0  0  0  0  0  0  0
   40.4680   30.5240   42.5830 C   0  0  0  0  0  0  0  0  0  0  0  0
   40.0200   31.3560   41.5440 C   0  0  0  0  0  0  0  0  0  0  0  0
   40.3700   31.0340   40.2660 C   0  0  0  0  0  0  0  0  0  0  0  0
   41.1700   29.8770   40.0200 C   0  0  0  0  0  0  0  0  0  0  0  0
   41.4280   29.2230   41.7350 S   0  0  0  0  0  0  0  0  0  0  0  0
   39.4120   32.2380   41.6900 H   0  0  0  0  0  0  0  0  0  0  0  0
   40.1310   31.5350   39.3420 H   0  0  0  0  0  0  0  0  0  0  0  0
   42.8710   29.9920   38.3300 C   0  0  2  0  0  3  0  0  0  0  0  0
   41.7200   29.2280   38.9110 C   0  0  1  0  0  3  0  0  0  0  0  0
   42.3280   28.0170   39.3170 O   0  0  0  0  0  0  0  0  0  0  0  0
   43.0210   27.5980   38.1780 C   0  0  0  0  0  2  0  0  0  0  0  0
   43.6910   28.8570   37.7090 C   0  0  2  0  0  3  0  0  0  0  0  0
   43.6210   30.5170   39.3750 O   0  0  0  0  0  0  0  0  0  0  0  0
   44.1720   31.2920   39.1010 H   0  0  0  0  0  0  0  0  0  0  0  0
   45.0270   28.9270   38.0570 O   0  0  0  0  0  0  0  0  0  0  0  0
   45.3040   28.2980   38.7590 H   0  0  0  0  0  0  0  0  0  0  0  0
  1  2  1  0  0  0  0
  1  8  1  0  0  0  0
  2  6  1  0  0  0  0
  3  2  2  0  0  0  0
  4  5  1  0  0  0  0
  4  3  1  0  0  0  0
  5  1  2  0  0  0  0
  7  3  1  0  0  0  0
  8  9  1  0  0  0  0
  9 14  1  0  0  0  0
  9 10  2  0  0  0  0
 10 16  1  0  0  0  0
 11 10  1  0  0  0  0
 12 11  2  0  0  0  0
 13  8  2  0  0  0  0
 13 12  1  0  0  0  0
 15 12  1  0  0  0  0
 16 17  1  0  0  0  0
 16 19  1  0  0  0  0
 16 18  1  0  0  0  0
 20  4  1  0  0  0  0
 21 25  1  0  0  0  0
 21 20  2  0  0  0  0
 22 21  1  0  0  0  0
 23 22  2  0  0  0  0
 23 24  1  0  0  0  0
 24 20  1  0  0  0  0
 26 22  1  0  0  0  0
 27 28  1  0  0  0  0
 27 32  1  1  0  0  0
 28 29  1  0  0  0  0
 28 23  1  1  0  0  0
 30 29  1  0  0  0  0
 31 34  1  1  0  0  0
 31 30  1  0  0  0  0
 31 27  1  0  0  0  0
 33 32  1  0  0  0  0
 34 35  1  0  0  0  0
M  END
>  <minimizedAffinity>
-6.69045687

>  <minimizedRMSD>
1.26096833

$$$$
