
 OpenBabel03272509233D

 46 50  0  0  1  0  0  0  0  0999 V2000
   37.8200   25.7860   31.9260 C   0  0  0  0  0  0  0  0  0  0  0  0
   36.7440   26.4690   31.3800 C   0  0  0  0  0  0  0  0  0  0  0  0
   35.6410   25.6420   31.1030 C   0  0  0  0  0  0  0  0  0  0  0  0
   35.6600   24.2720   31.3650 C   0  0  0  0  0  0  0  0  0  0  0  0
   36.8170   23.6910   31.9240 C   0  0  0  0  0  0  0  0  0  0  0  0
   37.9120   24.4750   32.2060 C   0  0  0  0  0  0  0  0  0  0  0  0
   34.7330   26.0520   30.6730 H   0  0  0  0  0  0  0  0  0  0  0  0
   34.7900   23.6610   31.1390 H   0  0  0  0  0  0  0  0  0  0  0  0
   36.7600   22.6380   32.0970 H   0  0  0  0  0  0  0  0  0  0  0  0
   37.0100   28.3340   29.8360 C   0  0  0  0  0  0  0  0  0  0  0  0
   36.7230   27.8660   31.1130 C   0  0  0  0  0  0  0  0  0  0  0  0
   36.4200   28.8160   32.1030 C   0  0  0  0  0  0  0  0  0  0  0  0
   36.4230   30.1270   31.7580 N   0  0  0  0  0  0  0  0  0  0  0  0
   36.7110   30.5360   30.4920 C   0  0  0  0  0  0  0  0  0  0  0  0
   37.0010   29.6460   29.5400 N   0  0  0  0  0  0  0  0  0  0  0  0
   37.2460   27.6150   29.0650 H   0  0  0  0  0  0  0  0  0  0  0  0
   36.6900   31.6060   30.3050 H   0  0  0  0  0  0  0  0  0  0  0  0
   36.1050   28.3670   33.4870 C   0  0  0  0  0  0  0  0  0  0  0  0
   35.2120   27.7100   33.4690 H   0  0  0  0  0  0  0  0  0  0  0  0
   36.9650   27.9270   34.0190 H   0  0  0  0  0  0  0  0  0  0  0  0
   35.7950   29.2610   34.0590 H   0  0  0  0  0  0  0  0  0  0  0  0
   38.9790   26.5330   32.2400 O   0  0  0  0  0  0  0  0  0  0  0  0
   39.4600   26.9040   31.4420 H   0  0  0  0  0  0  0  0  0  0  0  0
   39.0080   23.8480   32.7490 O   0  0  0  0  0  0  0  0  0  0  0  0
   40.5030   23.4630   34.7050 C   0  0  0  0  0  0  0  0  0  0  0  0
   39.2840   23.6780   34.0730 C   0  0  0  0  0  0  0  0  0  0  0  0
   38.1410   23.7400   34.8460 C   0  0  0  0  0  0  0  0  0  0  0  0
   38.2030   23.5900   36.2470 C   0  0  0  0  0  0  0  0  0  0  0  0
   37.2960   23.6000   37.2390 N   0  0  0  0  0  0  0  0  0  0  0  0
   37.9070   23.4030   38.4270 C   0  0  0  0  0  0  0  0  0  0  0  0
   39.2300   23.2680   38.1510 N   0  0  0  0  0  0  0  0  0  0  0  0
   39.4260   23.3800   36.8240 C   0  0  0  0  0  0  0  0  0  0  0  0
   40.5740   23.3140   36.0790 C   0  0  0  0  0  0  0  0  0  0  0  0
   41.3300   23.4320   34.0030 H   0  0  0  0  0  0  0  0  0  0  0  0
   37.1300   23.9000   34.4990 H   0  0  0  0  0  0  0  0  0  0  0  0
   36.2770   23.7380   37.1180 H   0  0  0  0  0  0  0  0  0  0  0  0
   37.5320   23.3480   39.4190 H   0  0  0  0  0  0  0  0  0  0  0  0
   42.1730   21.6840   37.0980 C   0  0  2  0  0  3  0  0  0  0  0  0
   41.9360   23.0860   36.6570 C   0  0  1  0  0  3  0  0  0  0  0  0
   42.8550   23.4520   35.7120 O   0  0  0  0  0  0  0  0  0  0  0  0
   43.7970   22.4410   35.6010 C   0  0  0  0  0  2  0  0  0  0  0  0
   43.1600   21.1750   36.0680 C   0  0  2  0  0  3  0  0  0  0  0  0
   41.0160   20.9110   37.1260 O   0  0  0  0  0  0  0  0  0  0  0  0
   41.0090   20.3710   36.3020 H   0  0  0  0  0  0  0  0  0  0  0  0
   42.5530   20.4290   35.0620 O   0  0  0  0  0  0  0  0  0  0  0  0
   42.9560   20.5710   34.1690 H   0  0  0  0  0  0  0  0  0  0  0  0
  1  6  1  0  0  0  0
  1 22  1  0  0  0  0
  2  1  2  0  0  0  0
  3  4  2  0  0  0  0
  3  2  1  0  0  0  0
  4  5  1  0  0  0  0
  5  9  1  0  0  0  0
  5  6  2  0  0  0  0
  6 24  1  0  0  0  0
  7  3  1  0  0  0  0
  8  4  1  0  0  0  0
 10 11  1  0  0  0  0
 11  2  1  0  0  0  0
 11 12  2  0  0  0  0
 12 18  1  0  0  0  0
 13 12  1  0  0  0  0
 14 13  2  0  0  0  0
 15 10  2  0  0  0  0
 15 14  1  0  0  0  0
 16 10  1  0  0  0  0
 17 14  1  0  0  0  0
 18 20  1  0  0  0  0
 18 21  1  0  0  0  0
 19 18  1  0  0  0  0
 23 22  1  0  0  0  0
 24 26  1  0  0  0  0
 25 33  1  0  0  0  0
 26 25  2  0  0  0  0
 26 27  1  0  0  0  0
 27 28  2  0  0  0  0
 28 32  1  0  0  0  0
 28 29  1  0  0  0  0
 29 30  1  0  0  0  0
 30 37  1  0  0  0  0
 31 30  2  0  0  0  0
 32 31  1  0  0  0  0
 33 32  2  0  0  0  0
 34 25  1  0  0  0  0
 35 27  1  0  0  0  0
 36 29  1  0  0  0  0
 38 43  1  6  0  0  0
 39 33  1  6  0  0  0
 39 38  1  0  0  0  0
 40 39  1  0  0  0  0
 41 40  1  0  0  0  0
 41 42  1  0  0  0  0
 42 45  1  6  0  0  0
 42 38  1  0  0  0  0
 44 43  1  0  0  0  0
 46 45  1  0  0  0  0
M  END
>  <minimizedAffinity>
-6.5454874

$$$$

 OpenBabel03272509233D

 46 50  0  0  1  0  0  0  0  0999 V2000
   37.3920   27.3280   34.7430 C   0  0  0  0  0  0  0  0  0  0  0  0
   37.5930   25.9890   34.4440 C   0  0  0  0  0  0  0  0  0  0  0  0
   37.0890   25.6170   33.1850 C   0  0  0  0  0  0  0  0  0  0  0  0
   36.4540   26.5300   32.3430 C   0  0  0  0  0  0  0  0  0  0  0  0
   36.3090   27.8690   32.7600 C   0  0  0  0  0  0  0  0  0  0  0  0
   36.7930   28.2630   33.9870 C   0  0  0  0  0  0  0  0  0  0  0  0
   37.1810   24.5960   32.8290 H   0  0  0  0  0  0  0  0  0  0  0  0
   36.0760   26.2100   31.3760 H   0  0  0  0  0  0  0  0  0  0  0  0
   35.8140   28.5120   32.0660 H   0  0  0  0  0  0  0  0  0  0  0  0
   37.5210   24.4210   36.3070 C   0  0  0  0  0  0  0  0  0  0  0  0
   38.2390   25.0570   35.3010 C   0  0  0  0  0  0  0  0  0  0  0  0
   39.6030   24.7420   35.1760 C   0  0  0  0  0  0  0  0  0  0  0  0
   40.1370   23.8400   36.0370 N   0  0  0  0  0  0  0  0  0  0  0  0
   39.3900   23.2450   37.0060 C   0  0  0  0  0  0  0  0  0  0  0  0
   38.0930   23.5320   37.1390 N   0  0  0  0  0  0  0  0  0  0  0  0
   36.4720   24.6550   36.4150 H   0  0  0  0  0  0  0  0  0  0  0  0
   39.9000   22.5340   37.6520 H   0  0  0  0  0  0  0  0  0  0  0  0
   40.4190   25.3940   34.1150 C   0  0  0  0  0  0  0  0  0  0  0  0
   39.9980   25.1460   33.1190 H   0  0  0  0  0  0  0  0  0  0  0  0
   40.5710   26.4740   34.2720 H   0  0  0  0  0  0  0  0  0  0  0  0
   41.4190   24.9210   34.1320 H   0  0  0  0  0  0  0  0  0  0  0  0
   37.8640   27.7990   35.9900 O   0  0  0  0  0  0  0  0  0  0  0  0
   37.3830   27.4210   36.7830 H   0  0  0  0  0  0  0  0  0  0  0  0
   36.6190   29.5820   34.3340 O   0  0  0  0  0  0  0  0  0  0  0  0
   34.1970   29.7510   34.8880 C   0  0  0  0  0  0  0  0  0  0  0  0
   35.5300   30.1360   34.9390 C   0  0  0  0  0  0  0  0  0  0  0  0
   35.8720   31.2370   35.7000 C   0  0  0  0  0  0  0  0  0  0  0  0
   34.8930   31.9590   36.4120 C   0  0  0  0  0  0  0  0  0  0  0  0
   34.9110   33.0380   37.2130 N   0  0  0  0  0  0  0  0  0  0  0  0
   33.6630   33.3180   37.6420 C   0  0  0  0  0  0  0  0  0  0  0  0
   32.8540   32.3790   37.0850 N   0  0  0  0  0  0  0  0  0  0  0  0
   33.5920   31.5420   36.3310 C   0  0  0  0  0  0  0  0  0  0  0  0
   33.2280   30.4540   35.5840 C   0  0  0  0  0  0  0  0  0  0  0  0
   34.0430   28.8770   34.2630 H   0  0  0  0  0  0  0  0  0  0  0  0
   36.8620   31.6520   35.8340 H   0  0  0  0  0  0  0  0  0  0  0  0
   35.7560   33.5800   37.4680 H   0  0  0  0  0  0  0  0  0  0  0  0
   33.2820   34.0790   38.2780 H   0  0  0  0  0  0  0  0  0  0  0  0
   30.9930   30.7320   34.4980 C   0  0  2  0  0  3  0  0  0  0  0  0
   31.8210   29.9550   35.4590 C   0  0  1  0  0  3  0  0  0  0  0  0
   31.8790   28.6400   35.0870 O   0  0  0  0  0  0  0  0  0  0  0  0
   31.0100   28.4460   34.0230 C   0  0  0  0  0  2  0  0  0  0  0  0
   30.8230   29.7630   33.3460 C   0  0  2  0  0  3  0  0  0  0  0  0
   31.5920   31.9190   34.0870 O   0  0  0  0  0  0  0  0  0  0  0  0
   31.9880   31.7510   33.2000 H   0  0  0  0  0  0  0  0  0  0  0  0
   31.7100   30.0060   32.3020 O   0  0  0  0  0  0  0  0  0  0  0  0
   32.0400   29.1820   31.8660 H   0  0  0  0  0  0  0  0  0  0  0  0
  1 22  1  0  0  0  0
  2  1  1  0  0  0  0
  2 11  1  0  0  0  0
  3  2  2  0  0  0  0
  4  5  2  0  0  0  0
  4  3  1  0  0  0  0
  5  6  1  0  0  0  0
  6 24  1  0  0  0  0
  6  1  2  0  0  0  0
  7  3  1  0  0  0  0
  8  4  1  0  0  0  0
  9  5  1  0  0  0  0
 10 16  1  0  0  0  0
 10 15  1  0  0  0  0
 11 10  2  0  0  0  0
 12 11  1  0  0  0  0
 12 13  2  0  0  0  0
 13 14  1  0  0  0  0
 14 15  2  0  0  0  0
 14 17  1  0  0  0  0
 18 21  1  0  0  0  0
 18 20  1  0  0  0  0
 18 12  1  0  0  0  0
 19 18  1  0  0  0  0
 22 23  1  0  0  0  0
 24 26  1  0  0  0  0
 25 26  2  0  0  0  0
 25 33  1  0  0  0  0
 26 27  1  0  0  0  0
 27 35  1  0  0  0  0
 27 28  2  0  0  0  0
 28 29  1  0  0  0  0
 29 36  1  0  0  0  0
 29 30  1  0  0  0  0
 30 37  1  0  0  0  0
 31 30  2  0  0  0  0
 32 28  1  0  0  0  0
 32 31  1  0  0  0  0
 33 32  2  0  0  0  0
 34 25  1  0  0  0  0
 38 43  1  6  0  0  0
 38 39  1  0  0  0  0
 39 33  1  6  0  0  0
 40 39  1  0  0  0  0
 41 40  1  0  0  0  0
 42 45  1  6  0  0  0
 42 41  1  0  0  0  0
 42 38  1  0  0  0  0
 44 43  1  0  0  0  0
 46 45  1  0  0  0  0
M  END
>  <minimizedAffinity>
-6.49153519

$$$$

 OpenBabel03272509233D

 46 50  0  0  1  0  0  0  0  0999 V2000
   36.4350   25.3100   31.5810 C   0  0  0  0  0  0  0  0  0  0  0  0
   36.9160   24.1710   32.2090 C   0  0  0  0  0  0  0  0  0  0  0  0
   37.6950   24.4480   33.3460 C   0  0  0  0  0  0  0  0  0  0  0  0
   37.9410   25.7520   33.7740 C   0  0  0  0  0  0  0  0  0  0  0  0
   37.3960   26.8320   33.0490 C   0  0  0  0  0  0  0  0  0  0  0  0
   36.6290   26.5920   31.9310 C   0  0  0  0  0  0  0  0  0  0  0  0
   38.1320   23.6440   33.9300 H   0  0  0  0  0  0  0  0  0  0  0  0
   38.5480   25.9320   34.6580 H   0  0  0  0  0  0  0  0  0  0  0  0
   37.6250   27.8020   33.4330 H   0  0  0  0  0  0  0  0  0  0  0  0
   35.5260   22.1690   32.2030 C   0  0  0  0  0  0  0  0  0  0  0  0
   36.6650   22.8400   31.7740 C   0  0  0  0  0  0  0  0  0  0  0  0
   37.5380   22.1560   30.9110 C   0  0  0  0  0  0  0  0  0  0  0  0
   37.2200   20.8890   30.5470 N   0  0  0  0  0  0  0  0  0  0  0  0
   36.0910   20.2750   30.9960 C   0  0  0  0  0  0  0  0  0  0  0  0
   35.2520   20.9110   31.8160 N   0  0  0  0  0  0  0  0  0  0  0  0
   34.8470   22.6840   32.8680 H   0  0  0  0  0  0  0  0  0  0  0  0
   35.9150   19.2580   30.6530 H   0  0  0  0  0  0  0  0  0  0  0  0
   38.7730   22.8280   30.4210 C   0  0  0  0  0  0  0  0  0  0  0  0
   38.4970   23.7380   29.8500 H   0  0  0  0  0  0  0  0  0  0  0  0
   39.5220   23.0120   31.2080 H   0  0  0  0  0  0  0  0  0  0  0  0
   39.2420   22.1540   29.6800 H   0  0  0  0  0  0  0  0  0  0  0  0
   35.6400   25.1340   30.4250 O   0  0  0  0  0  0  0  0  0  0  0  0
   36.1320   24.7570   29.6380 H   0  0  0  0  0  0  0  0  0  0  0  0
   36.1270   27.6870   31.2690 O   0  0  0  0  0  0  0  0  0  0  0  0
   34.5590   29.0290   32.6640 C   0  0  0  0  0  0  0  0  0  0  0  0
   35.6510   28.8360   31.8270 C   0  0  0  0  0  0  0  0  0  0  0  0
   36.4100   29.9330   31.4660 C   0  0  0  0  0  0  0  0  0  0  0  0
   36.0890   31.2230   31.9360 C   0  0  0  0  0  0  0  0  0  0  0  0
   36.6170   32.4480   31.7690 N   0  0  0  0  0  0  0  0  0  0  0  0
   35.9010   33.3590   32.4590 C   0  0  0  0  0  0  0  0  0  0  0  0
   34.9020   32.6690   33.0690 N   0  0  0  0  0  0  0  0  0  0  0  0
   35.0040   31.3640   32.7590 C   0  0  0  0  0  0  0  0  0  0  0  0
   34.2360   30.2920   33.1300 C   0  0  0  0  0  0  0  0  0  0  0  0
   34.0370   28.1020   32.8800 H   0  0  0  0  0  0  0  0  0  0  0  0
   37.2810   29.9380   30.8270 H   0  0  0  0  0  0  0  0  0  0  0  0
   37.4510   32.6670   31.1950 H   0  0  0  0  0  0  0  0  0  0  0  0
   36.0060   34.4100   32.5720 H   0  0  0  0  0  0  0  0  0  0  0  0
   31.7430   30.3670   33.2970 C   0  0  2  0  0  3  0  0  0  0  0  0
   33.0400   30.3880   34.0260 C   0  0  1  0  0  3  0  0  0  0  0  0
   33.1050   29.3530   34.9180 O   0  0  0  0  0  0  0  0  0  0  0  0
   31.8690   28.7260   34.9530 C   0  0  0  0  0  2  0  0  0  0  0  0
   31.1810   29.0070   33.6590 C   0  0  2  0  0  3  0  0  0  0  0  0
   31.8800   30.5150   31.9200 O   0  0  0  0  0  0  0  0  0  0  0  0
   31.8140   29.6150   31.5240 H   0  0  0  0  0  0  0  0  0  0  0  0
   31.3990   28.0530   32.6700 O   0  0  0  0  0  0  0  0  0  0  0  0
   31.5950   27.1520   33.0290 H   0  0  0  0  0  0  0  0  0  0  0  0
  1  6  2  0  0  0  0
  1  2  1  0  0  0  0
  2  3  2  0  0  0  0
  3  4  1  0  0  0  0
  3  7  1  0  0  0  0
  4  8  1  0  0  0  0
  5  9  1  0  0  0  0
  5  4  2  0  0  0  0
  6  5  1  0  0  0  0
 10 16  1  0  0  0  0
 11 10  2  0  0  0  0
 11  2  1  0  0  0  0
 12 11  1  0  0  0  0
 13 12  2  0  0  0  0
 13 14  1  0  0  0  0
 14 15  2  0  0  0  0
 15 10  1  0  0  0  0
 17 14  1  0  0  0  0
 18 12  1  0  0  0  0
 18 20  1  0  0  0  0
 19 18  1  0  0  0  0
 21 18  1  0  0  0  0
 22  1  1  0  0  0  0
 23 22  1  0  0  0  0
 24 26  1  0  0  0  0
 24  6  1  0  0  0  0
 25 34  1  0  0  0  0
 25 33  1  0  0  0  0
 26 25  2  0  0  0  0
 27 26  1  0  0  0  0
 27 28  2  0  0  0  0
 28 32  1  0  0  0  0
 29 28  1  0  0  0  0
 29 30  1  0  0  0  0
 30 37  1  0  0  0  0
 30 31  2  0  0  0  0
 32 31  1  0  0  0  0
 32 33  2  0  0  0  0
 35 27  1  0  0  0  0
 36 29  1  0  0  0  0
 38 43  1  6  0  0  0
 38 42  1  0  0  0  0
 38 39  1  0  0  0  0
 39 33  1  6  0  0  0
 39 40  1  0  0  0  0
 40 41  1  0  0  0  0
 42 45  1  6  0  0  0
 42 41  1  0  0  0  0
 44 43  1  0  0  0  0
 45 46  1  0  0  0  0
M  END
>  <minimizedAffinity>
-6.30317116

$$$$

 OpenBabel03272509233D

 46 50  0  0  1  0  0  0  0  0999 V2000
   36.7900   27.7210   32.7500 C   0  0  0  0  0  0  0  0  0  0  0  0
   36.8710   27.1680   31.4820 C   0  0  0  0  0  0  0  0  0  0  0  0
   36.5950   28.0870   30.4540 C   0  0  0  0  0  0  0  0  0  0  0  0
   36.2750   29.4180   30.7180 C   0  0  0  0  0  0  0  0  0  0  0  0
   36.2240   29.8640   32.0560 C   0  0  0  0  0  0  0  0  0  0  0  0
   36.4900   28.9880   33.0830 C   0  0  0  0  0  0  0  0  0  0  0  0
   36.6240   27.7820   29.4120 H   0  0  0  0  0  0  0  0  0  0  0  0
   36.0670   30.1040   29.9010 H   0  0  0  0  0  0  0  0  0  0  0  0
   35.9730   30.8950   32.1830 H   0  0  0  0  0  0  0  0  0  0  0  0
   38.5270   25.4240   31.0910 C   0  0  0  0  0  0  0  0  0  0  0  0
   37.1970   25.8110   31.2100 C   0  0  0  0  0  0  0  0  0  0  0  0
   36.2140   24.8190   31.0520 C   0  0  0  0  0  0  0  0  0  0  0  0
   36.6150   23.5500   30.7950 N   0  0  0  0  0  0  0  0  0  0  0  0
   37.9320   23.2220   30.6870 C   0  0  0  0  0  0  0  0  0  0  0  0
   38.8790   24.1520   30.8350 N   0  0  0  0  0  0  0  0  0  0  0  0
   39.2930   26.1770   31.2090 H   0  0  0  0  0  0  0  0  0  0  0  0
   38.1630   22.1800   30.4800 H   0  0  0  0  0  0  0  0  0  0  0  0
   34.7740   25.1790   31.1700 C   0  0  0  0  0  0  0  0  0  0  0  0
   34.5760   25.5880   32.1820 H   0  0  0  0  0  0  0  0  0  0  0  0
   34.4080   25.8250   30.3550 H   0  0  0  0  0  0  0  0  0  0  0  0
   34.1950   24.2380   31.1210 H   0  0  0  0  0  0  0  0  0  0  0  0
   37.0520   26.8750   33.8530 O   0  0  0  0  0  0  0  0  0  0  0  0
   36.3700   26.1520   33.9890 H   0  0  0  0  0  0  0  0  0  0  0  0
   36.4230   29.4850   34.3630 O   0  0  0  0  0  0  0  0  0  0  0  0
   34.0110   29.7530   34.9220 C   0  0  0  0  0  0  0  0  0  0  0  0
   35.3560   30.0960   34.9520 C   0  0  0  0  0  0  0  0  0  0  0  0
   35.7390   31.2130   35.6700 C   0  0  0  0  0  0  0  0  0  0  0  0
   34.7870   31.9920   36.3600 C   0  0  0  0  0  0  0  0  0  0  0  0
   34.8460   33.0990   37.1200 N   0  0  0  0  0  0  0  0  0  0  0  0
   33.6100   33.4350   37.5450 C   0  0  0  0  0  0  0  0  0  0  0  0
   32.7680   32.5030   37.0270 N   0  0  0  0  0  0  0  0  0  0  0  0
   33.4730   31.6150   36.3010 C   0  0  0  0  0  0  0  0  0  0  0  0
   33.0690   30.5120   35.5960 C   0  0  0  0  0  0  0  0  0  0  0  0
   33.8250   28.8620   34.3310 H   0  0  0  0  0  0  0  0  0  0  0  0
   36.7420   31.6000   35.7840 H   0  0  0  0  0  0  0  0  0  0  0  0
   35.7090   33.6220   37.3510 H   0  0  0  0  0  0  0  0  0  0  0  0
   33.2580   34.2310   38.1540 H   0  0  0  0  0  0  0  0  0  0  0  0
   30.8490   30.7960   34.4830 C   0  0  2  0  0  3  0  0  0  0  0  0
   31.6470   30.0550   35.4980 C   0  0  1  0  0  3  0  0  0  0  0  0
   31.6600   28.7170   35.2130 O   0  0  0  0  0  0  0  0  0  0  0  0
   30.7880   28.4840   34.1600 C   0  0  0  0  0  2  0  0  0  0  0  0
   30.6490   29.7590   33.3970 C   0  0  2  0  0  3  0  0  0  0  0  0
   31.4910   31.9310   33.9970 O   0  0  0  0  0  0  0  0  0  0  0  0
   31.8820   31.6910   33.1260 H   0  0  0  0  0  0  0  0  0  0  0  0
   31.5460   29.9020   32.3430 O   0  0  0  0  0  0  0  0  0  0  0  0
   31.8490   29.0400   31.9640 H   0  0  0  0  0  0  0  0  0  0  0  0
  1  6  1  0  0  0  0
  1 22  1  0  0  0  0
  2  1  2  0  0  0  0
  3  4  2  0  0  0  0
  3  2  1  0  0  0  0
  4  5  1  0  0  0  0
  5  9  1  0  0  0  0
  5  6  2  0  0  0  0
  6 24  1  0  0  0  0
  7  3  1  0  0  0  0
  8  4  1  0  0  0  0
 10 16  1  0  0  0  0
 10 11  1  0  0  0  0
 11  2  1  0  0  0  0
 12 18  1  0  0  0  0
 12 11  2  0  0  0  0
 13 12  1  0  0  0  0
 14 13  2  0  0  0  0
 14 15  1  0  0  0  0
 15 10  2  0  0  0  0
 17 14  1  0  0  0  0
 18 19  1  0  0  0  0
 20 18  1  0  0  0  0
 21 18  1  0  0  0  0
 22 23  1  0  0  0  0
 24 26  1  0  0  0  0
 25 26  2  0  0  0  0
 25 33  1  0  0  0  0
 26 27  1  0  0  0  0
 27 35  1  0  0  0  0
 27 28  2  0  0  0  0
 28 29  1  0  0  0  0
 29 36  1  0  0  0  0
 29 30  1  0  0  0  0
 30 37  1  0  0  0  0
 31 30  2  0  0  0  0
 32 28  1  0  0  0  0
 32 31  1  0  0  0  0
 33 32  2  0  0  0  0
 34 25  1  0  0  0  0
 38 43  1  6  0  0  0
 38 39  1  0  0  0  0
 39 33  1  6  0  0  0
 40 39  1  0  0  0  0
 41 40  1  0  0  0  0
 42 45  1  6  0  0  0
 42 41  1  0  0  0  0
 42 38  1  0  0  0  0
 44 43  1  0  0  0  0
 46 45  1  0  0  0  0
M  END
>  <minimizedAffinity>
-6.28920937

$$$$

 OpenBabel03272509233D

 46 50  0  0  1  0  0  0  0  0999 V2000
   36.8890   27.6730   32.2850 C   0  0  0  0  0  0  0  0  0  0  0  0
   37.4540   26.4490   32.6070 C   0  0  0  0  0  0  0  0  0  0  0  0
   37.4940   26.2000   33.9910 C   0  0  0  0  0  0  0  0  0  0  0  0
   37.0050   27.1160   34.9210 C   0  0  0  0  0  0  0  0  0  0  0  0
   36.4520   28.3330   34.4690 C   0  0  0  0  0  0  0  0  0  0  0  0
   36.3990   28.6040   33.1210 C   0  0  0  0  0  0  0  0  0  0  0  0
   37.9120   25.2760   34.3770 H   0  0  0  0  0  0  0  0  0  0  0  0
   37.0510   26.8930   35.9840 H   0  0  0  0  0  0  0  0  0  0  0  0
   36.0980   28.9850   35.2360 H   0  0  0  0  0  0  0  0  0  0  0  0
   39.2860   25.5610   31.2690 C   0  0  0  0  0  0  0  0  0  0  0  0
   37.9530   25.5130   31.6590 C   0  0  0  0  0  0  0  0  0  0  0  0
   37.1410   24.5200   31.0860 C   0  0  0  0  0  0  0  0  0  0  0  0
   37.7010   23.6690   30.1900 N   0  0  0  0  0  0  0  0  0  0  0  0
   39.0140   23.7580   29.8410 C   0  0  0  0  0  0  0  0  0  0  0  0
   39.7990   24.6960   30.3760 N   0  0  0  0  0  0  0  0  0  0  0  0
   39.9210   26.3210   31.7020 H   0  0  0  0  0  0  0  0  0  0  0  0
   39.3790   23.0350   29.1160 H   0  0  0  0  0  0  0  0  0  0  0  0
   35.7060   24.4240   31.4690 C   0  0  0  0  0  0  0  0  0  0  0  0
   35.6260   24.2330   32.5590 H   0  0  0  0  0  0  0  0  0  0  0  0
   35.0950   25.2750   31.1250 H   0  0  0  0  0  0  0  0  0  0  0  0
   35.2970   23.5160   30.9870 H   0  0  0  0  0  0  0  0  0  0  0  0
   36.8040   28.0160   30.9150 O   0  0  0  0  0  0  0  0  0  0  0  0
   37.6890   28.1660   30.4720 H   0  0  0  0  0  0  0  0  0  0  0  0
   35.8480   29.8060   32.7450 O   0  0  0  0  0  0  0  0  0  0  0  0
   34.4650   31.4610   33.9920 C   0  0  0  0  0  0  0  0  0  0  0  0
   34.6780   30.3480   33.1900 C   0  0  0  0  0  0  0  0  0  0  0  0
   33.5820   29.6370   32.7390 C   0  0  0  0  0  0  0  0  0  0  0  0
   32.2720   30.0300   33.0830 C   0  0  0  0  0  0  0  0  0  0  0  0
   31.0430   29.5600   32.8100 N   0  0  0  0  0  0  0  0  0  0  0  0
   30.1090   30.3310   33.4050 C   0  0  0  0  0  0  0  0  0  0  0  0
   30.7900   31.3050   34.0640 N   0  0  0  0  0  0  0  0  0  0  0  0
   32.1120   31.1340   33.8760 C   0  0  0  0  0  0  0  0  0  0  0  0
   33.1830   31.8540   34.3350 C   0  0  0  0  0  0  0  0  0  0  0  0
   35.3940   31.9400   34.2870 H   0  0  0  0  0  0  0  0  0  0  0  0
   33.5920   28.7570   32.1120 H   0  0  0  0  0  0  0  0  0  0  0  0
   30.8360   28.7290   32.2290 H   0  0  0  0  0  0  0  0  0  0  0  0
   29.0490   30.2800   33.4210 H   0  0  0  0  0  0  0  0  0  0  0  0
   32.8330   32.7550   36.6410 C   0  0  2  0  0  3  0  0  0  0  0  0
   33.0660   33.0680   35.2050 C   0  0  1  0  0  3  0  0  0  0  0  0
   34.2130   33.7980   35.0540 O   0  0  0  0  0  0  0  0  0  0  0  0
   34.6860   34.1370   36.3130 C   0  0  0  0  0  2  0  0  0  0  0  0
   34.1510   33.1360   37.2820 C   0  0  2  0  0  3  0  0  0  0  0  0
   32.5170   31.4190   36.8710 O   0  0  0  0  0  0  0  0  0  0  0  0
   33.3410   30.9770   37.1830 H   0  0  0  0  0  0  0  0  0  0  0  0
   34.9830   32.0410   37.4980 O   0  0  0  0  0  0  0  0  0  0  0  0
   35.9410   32.2390   37.3510 H   0  0  0  0  0  0  0  0  0  0  0  0
  1  2  2  0  0  0  0
  1  6  1  0  0  0  0
  2  3  1  0  0  0  0
  3  7  1  0  0  0  0
  3  4  2  0  0  0  0
  4  8  1  0  0  0  0
  5  4  1  0  0  0  0
  5  9  1  0  0  0  0
  6  5  2  0  0  0  0
 10 11  1  0  0  0  0
 10 16  1  0  0  0  0
 11  2  1  0  0  0  0
 12 18  1  0  0  0  0
 12 11  2  0  0  0  0
 13 12  1  0  0  0  0
 14 13  2  0  0  0  0
 14 15  1  0  0  0  0
 15 10  2  0  0  0  0
 17 14  1  0  0  0  0
 18 19  1  0  0  0  0
 20 18  1  0  0  0  0
 21 18  1  0  0  0  0
 22  1  1  0  0  0  0
 23 22  1  0  0  0  0
 24  6  1  0  0  0  0
 24 26  1  0  0  0  0
 25 34  1  0  0  0  0
 25 33  1  0  0  0  0
 26 25  2  0  0  0  0
 27 28  2  0  0  0  0
 27 26  1  0  0  0  0
 28 32  1  0  0  0  0
 29 28  1  0  0  0  0
 29 30  1  0  0  0  0
 30 37  1  0  0  0  0
 30 31  2  0  0  0  0
 32 31  1  0  0  0  0
 32 33  2  0  0  0  0
 35 27  1  0  0  0  0
 36 29  1  0  0  0  0
 38 43  1  6  0  0  0
 38 42  1  0  0  0  0
 39 33  1  6  0  0  0
 39 38  1  0  0  0  0
 40 39  1  0  0  0  0
 40 41  1  0  0  0  0
 41 42  1  0  0  0  0
 42 45  1  6  0  0  0
 43 44  1  0  0  0  0
 46 45  1  0  0  0  0
M  END
>  <minimizedAffinity>
-6.28184938

$$$$

 OpenBabel03272509233D

 46 50  0  0  1  0  0  0  0  0999 V2000
   35.2810   30.2110   32.9160 C   0  0  0  0  0  0  0  0  0  0  0  0
   35.3680   31.4660   33.4980 C   0  0  0  0  0  0  0  0  0  0  0  0
   36.1330   32.3770   32.7480 C   0  0  0  0  0  0  0  0  0  0  0  0
   36.7300   32.0210   31.5390 C   0  0  0  0  0  0  0  0  0  0  0  0
   36.5690   30.7090   31.0480 C   0  0  0  0  0  0  0  0  0  0  0  0
   35.8260   29.7950   31.7610 C   0  0  0  0  0  0  0  0  0  0  0  0
   36.2800   33.3960   33.0920 H   0  0  0  0  0  0  0  0  0  0  0  0
   37.3140   32.7500   30.9830 H   0  0  0  0  0  0  0  0  0  0  0  0
   37.0530   30.5070   30.1180 H   0  0  0  0  0  0  0  0  0  0  0  0
   35.4740   31.7260   35.9190 C   0  0  0  0  0  0  0  0  0  0  0  0
   34.7590   31.8310   34.7310 C   0  0  0  0  0  0  0  0  0  0  0  0
   33.4380   32.3030   34.8050 C   0  0  0  0  0  0  0  0  0  0  0  0
   32.9390   32.6280   36.0230 N   0  0  0  0  0  0  0  0  0  0  0  0
   33.6800   32.5070   37.1580 C   0  0  0  0  0  0  0  0  0  0  0  0
   34.9370   32.0600   37.1050 N   0  0  0  0  0  0  0  0  0  0  0  0
   36.4910   31.3630   35.8760 H   0  0  0  0  0  0  0  0  0  0  0  0
   33.1990   32.7910   38.0910 H   0  0  0  0  0  0  0  0  0  0  0  0
   32.6280   32.4350   33.5620 C   0  0  0  0  0  0  0  0  0  0  0  0
   33.1250   33.1460   32.8710 H   0  0  0  0  0  0  0  0  0  0  0  0
   32.3730   31.4710   33.0930 H   0  0  0  0  0  0  0  0  0  0  0  0
   31.6750   32.9210   33.8420 H   0  0  0  0  0  0  0  0  0  0  0  0
   34.5320   29.2230   33.5970 O   0  0  0  0  0  0  0  0  0  0  0  0
   34.9320   28.9290   34.4670 H   0  0  0  0  0  0  0  0  0  0  0  0
   35.7070   28.5330   31.2280 O   0  0  0  0  0  0  0  0  0  0  0  0
   37.3920   27.2200   32.5090 C   0  0  0  0  0  0  0  0  0  0  0  0
   36.2790   27.3870   31.6950 C   0  0  0  0  0  0  0  0  0  0  0  0
   35.6030   26.2640   31.2600 C   0  0  0  0  0  0  0  0  0  0  0  0
   36.0300   24.9720   31.6300 C   0  0  0  0  0  0  0  0  0  0  0  0
   35.5970   23.7250   31.3750 N   0  0  0  0  0  0  0  0  0  0  0  0
   36.3900   22.8240   31.9910 C   0  0  0  0  0  0  0  0  0  0  0  0
   37.3400   23.5440   32.6440 N   0  0  0  0  0  0  0  0  0  0  0  0
   37.1320   24.8570   32.4320 C   0  0  0  0  0  0  0  0  0  0  0  0
   37.8190   25.9560   32.8770 C   0  0  0  0  0  0  0  0  0  0  0  0
   37.8430   28.1670   32.7900 H   0  0  0  0  0  0  0  0  0  0  0  0
   34.7270   26.2380   30.6270 H   0  0  0  0  0  0  0  0  0  0  0  0
   34.7750   23.4840   30.7930 H   0  0  0  0  0  0  0  0  0  0  0  0
   36.3690   21.7630   32.0260 H   0  0  0  0  0  0  0  0  0  0  0  0
   38.7130   25.7560   35.2030 C   0  0  2  0  0  3  0  0  0  0  0  0
   39.0300   25.8880   33.7550 C   0  0  1  0  0  3  0  0  0  0  0  0
   39.7910   24.8320   33.3330 O   0  0  0  0  0  0  0  0  0  0  0  0
   40.1430   24.0750   34.4400 C   0  0  0  0  0  2  0  0  0  0  0  0
   39.1290   24.3310   35.5060 C   0  0  2  0  0  3  0  0  0  0  0  0
   37.3690   25.9710   35.4960 O   0  0  0  0  0  0  0  0  0  0  0  0
   36.9490   25.0850   35.5950 H   0  0  0  0  0  0  0  0  0  0  0  0
   38.0560   23.4440   35.5060 O   0  0  0  0  0  0  0  0  0  0  0  0
   38.2800   22.5570   35.1310 H   0  0  0  0  0  0  0  0  0  0  0  0
  1  2  1  0  0  0  0
  1 22  1  0  0  0  0
  2 11  1  0  0  0  0
  3  7  1  0  0  0  0
  3  2  2  0  0  0  0
  4  3  1  0  0  0  0
  5  4  2  0  0  0  0
  5  6  1  0  0  0  0
  6  1  2  0  0  0  0
  8  4  1  0  0  0  0
  9  5  1  0  0  0  0
 10 15  1  0  0  0  0
 11 12  1  0  0  0  0
 11 10  2  0  0  0  0
 12 13  2  0  0  0  0
 13 14  1  0  0  0  0
 14 17  1  0  0  0  0
 15 14  2  0  0  0  0
 16 10  1  0  0  0  0
 18 21  1  0  0  0  0
 18 12  1  0  0  0  0
 19 18  1  0  0  0  0
 20 18  1  0  0  0  0
 22 23  1  0  0  0  0
 24 26  1  0  0  0  0
 24  6  1  0  0  0  0
 25 34  1  0  0  0  0
 25 33  1  0  0  0  0
 26 25  2  0  0  0  0
 27 28  2  0  0  0  0
 27 26  1  0  0  0  0
 28 32  1  0  0  0  0
 29 28  1  0  0  0  0
 29 30  1  0  0  0  0
 30 37  1  0  0  0  0
 30 31  2  0  0  0  0
 32 31  1  0  0  0  0
 32 33  2  0  0  0  0
 35 27  1  0  0  0  0
 36 29  1  0  0  0  0
 38 43  1  6  0  0  0
 38 42  1  0  0  0  0
 39 33  1  6  0  0  0
 39 38  1  0  0  0  0
 40 39  1  0  0  0  0
 40 41  1  0  0  0  0
 41 42  1  0  0  0  0
 42 45  1  6  0  0  0
 43 44  1  0  0  0  0
 46 45  1  0  0  0  0
M  END
>  <minimizedAffinity>
-6.2716074

$$$$

 OpenBabel03272509233D

 46 50  0  0  1  0  0  0  0  0999 V2000
   36.9880   27.5160   32.4860 C   0  0  0  0  0  0  0  0  0  0  0  0
   37.8540   26.4390   32.5920 C   0  0  0  0  0  0  0  0  0  0  0  0
   38.2130   26.1410   33.9190 C   0  0  0  0  0  0  0  0  0  0  0  0
   37.7270   26.8770   35.0000 C   0  0  0  0  0  0  0  0  0  0  0  0
   36.8480   27.9550   34.7630 C   0  0  0  0  0  0  0  0  0  0  0  0
   36.4790   28.2700   33.4740 C   0  0  0  0  0  0  0  0  0  0  0  0
   38.8870   25.3190   34.1420 H   0  0  0  0  0  0  0  0  0  0  0  0
   38.0230   26.6200   36.0130 H   0  0  0  0  0  0  0  0  0  0  0  0
   36.5160   28.4720   35.6360 H   0  0  0  0  0  0  0  0  0  0  0  0
   39.5250   26.0760   30.8570 C   0  0  0  0  0  0  0  0  0  0  0  0
   38.3510   25.6880   31.4920 C   0  0  0  0  0  0  0  0  0  0  0  0
   37.6940   24.5450   31.0050 C   0  0  0  0  0  0  0  0  0  0  0  0
   38.2400   23.8890   29.9510 N   0  0  0  0  0  0  0  0  0  0  0  0
   39.3930   24.3100   29.3630 C   0  0  0  0  0  0  0  0  0  0  0  0
   40.0300   25.3940   29.8130 N   0  0  0  0  0  0  0  0  0  0  0  0
   40.0400   26.9540   31.2210 H   0  0  0  0  0  0  0  0  0  0  0  0
   39.7590   23.7240   28.5240 H   0  0  0  0  0  0  0  0  0  0  0  0
   36.4330   24.0850   31.6490 C   0  0  0  0  0  0  0  0  0  0  0  0
   36.6280   23.8440   32.7140 H   0  0  0  0  0  0  0  0  0  0  0  0
   35.5820   24.7700   31.5010 H   0  0  0  0  0  0  0  0  0  0  0  0
   36.1570   23.1220   31.1810 H   0  0  0  0  0  0  0  0  0  0  0  0
   36.5690   27.8940   31.1890 O   0  0  0  0  0  0  0  0  0  0  0  0
   37.2990   28.2640   30.6110 H   0  0  0  0  0  0  0  0  0  0  0  0
   35.6210   29.3310   33.3110 O   0  0  0  0  0  0  0  0  0  0  0  0
   33.6090   29.6170   34.7520 C   0  0  0  0  0  0  0  0  0  0  0  0
   34.8740   29.9380   34.2760 C   0  0  0  0  0  0  0  0  0  0  0  0
   35.5290   31.0260   34.8220 C   0  0  0  0  0  0  0  0  0  0  0  0
   34.9310   31.7970   35.8400 C   0  0  0  0  0  0  0  0  0  0  0  0
   35.3020   32.8780   36.5480 N   0  0  0  0  0  0  0  0  0  0  0  0
   34.3290   33.2180   37.4180 C   0  0  0  0  0  0  0  0  0  0  0  0
   33.3300   32.3160   37.2360 N   0  0  0  0  0  0  0  0  0  0  0  0
   33.6830   31.4420   36.2760 C   0  0  0  0  0  0  0  0  0  0  0  0
   33.0130   30.3680   35.7510 C   0  0  0  0  0  0  0  0  0  0  0  0
   33.1900   28.7480   34.2540 H   0  0  0  0  0  0  0  0  0  0  0  0
   36.5090   31.3940   34.5550 H   0  0  0  0  0  0  0  0  0  0  0  0
   36.2010   33.3800   36.4450 H   0  0  0  0  0  0  0  0  0  0  0  0
   34.2550   34.0000   38.1330 H   0  0  0  0  0  0  0  0  0  0  0  0
   30.5450   30.7320   35.5860 C   0  0  2  0  0  3  0  0  0  0  0  0
   31.6490   29.9350   36.1890 C   0  0  1  0  0  3  0  0  0  0  0  0
   31.5110   28.6110   35.8730 O   0  0  0  0  0  0  0  0  0  0  0  0
   30.2970   28.4380   35.2280 C   0  0  0  0  0  2  0  0  0  0  0  0
   29.9140   29.7480   34.6230 C   0  0  2  0  0  3  0  0  0  0  0  0
   30.9860   31.8790   34.9320 O   0  0  0  0  0  0  0  0  0  0  0  0
   31.0070   31.6720   33.9690 H   0  0  0  0  0  0  0  0  0  0  0  0
   30.3440   29.9250   33.3110 O   0  0  0  0  0  0  0  0  0  0  0  0
   30.4530   29.0760   32.8150 H   0  0  0  0  0  0  0  0  0  0  0  0
  1  2  2  0  0  0  0
  1  6  1  0  0  0  0
  2  3  1  0  0  0  0
  3  7  1  0  0  0  0
  3  4  2  0  0  0  0
  4  8  1  0  0  0  0
  5  4  1  0  0  0  0
  5  9  1  0  0  0  0
  6  5  2  0  0  0  0
 10 16  1  0  0  0  0
 10 11  1  0  0  0  0
 11  2  1  0  0  0  0
 12 11  2  0  0  0  0
 12 18  1  0  0  0  0
 13 12  1  0  0  0  0
 14 15  1  0  0  0  0
 14 13  2  0  0  0  0
 15 10  2  0  0  0  0
 17 14  1  0  0  0  0
 18 19  1  0  0  0  0
 20 18  1  0  0  0  0
 21 18  1  0  0  0  0
 22  1  1  0  0  0  0
 23 22  1  0  0  0  0
 24  6  1  0  0  0  0
 24 26  1  0  0  0  0
 25 33  1  0  0  0  0
 26 25  2  0  0  0  0
 26 27  1  0  0  0  0
 27 28  2  0  0  0  0
 28 32  1  0  0  0  0
 28 29  1  0  0  0  0
 29 30  1  0  0  0  0
 30 37  1  0  0  0  0
 31 30  2  0  0  0  0
 32 31  1  0  0  0  0
 33 32  2  0  0  0  0
 34 25  1  0  0  0  0
 35 27  1  0  0  0  0
 36 29  1  0  0  0  0
 38 43  1  6  0  0  0
 38 39  1  0  0  0  0
 39 33  1  6  0  0  0
 40 39  1  0  0  0  0
 41 40  1  0  0  0  0
 42 45  1  6  0  0  0
 42 41  1  0  0  0  0
 42 38  1  0  0  0  0
 44 43  1  0  0  0  0
 46 45  1  0  0  0  0
M  END
>  <minimizedAffinity>
-6.2087059

$$$$

 OpenBabel03272509233D

 46 50  0  0  1  0  0  0  0  0999 V2000
   37.8090   26.4730   32.6930 C   0  0  0  0  0  0  0  0  0  0  0  0
   38.7830   25.9150   33.5060 C   0  0  0  0  0  0  0  0  0  0  0  0
   40.0930   26.2460   33.1140 C   0  0  0  0  0  0  0  0  0  0  0  0
   40.3520   27.0580   32.0110 C   0  0  0  0  0  0  0  0  0  0  0  0
   39.2720   27.5680   31.2590 C   0  0  0  0  0  0  0  0  0  0  0  0
   37.9790   27.2610   31.6190 C   0  0  0  0  0  0  0  0  0  0  0  0
   40.9500   25.8730   33.6670 H   0  0  0  0  0  0  0  0  0  0  0  0
   41.3760   27.2950   31.7350 H   0  0  0  0  0  0  0  0  0  0  0  0
   39.5440   28.1820   30.4290 H   0  0  0  0  0  0  0  0  0  0  0  0
   38.4530   23.7060   34.4800 C   0  0  0  0  0  0  0  0  0  0  0  0
   38.5210   25.0860   34.6320 C   0  0  0  0  0  0  0  0  0  0  0  0
   38.3230   25.6100   35.9210 C   0  0  0  0  0  0  0  0  0  0  0  0
   38.0790   24.7460   36.9360 N   0  0  0  0  0  0  0  0  0  0  0  0
   38.0220   23.4010   36.7350 C   0  0  0  0  0  0  0  0  0  0  0  0
   38.2080   22.8860   35.5170 N   0  0  0  0  0  0  0  0  0  0  0  0
   38.6030   23.2900   33.4940 H   0  0  0  0  0  0  0  0  0  0  0  0
   37.8210   22.7820   37.6060 H   0  0  0  0  0  0  0  0  0  0  0  0
   38.3860   27.0820   36.1390 C   0  0  0  0  0  0  0  0  0  0  0  0
   39.3900   27.4560   35.8530 H   0  0  0  0  0  0  0  0  0  0  0  0
   37.5590   27.6370   35.6670 H   0  0  0  0  0  0  0  0  0  0  0  0
   38.3120   27.2560   37.2290 H   0  0  0  0  0  0  0  0  0  0  0  0
   36.4570   26.1980   33.0070 O   0  0  0  0  0  0  0  0  0  0  0  0
   36.1910   25.2400   32.8800 H   0  0  0  0  0  0  0  0  0  0  0  0
   36.9730   27.7890   30.8450 O   0  0  0  0  0  0  0  0  0  0  0  0
   35.4430   29.3460   32.0450 C   0  0  0  0  0  0  0  0  0  0  0  0
   36.3240   28.9720   31.0380 C   0  0  0  0  0  0  0  0  0  0  0  0
   36.6310   29.8910   30.0530 C   0  0  0  0  0  0  0  0  0  0  0  0
   36.0660   31.1830   30.0640 C   0  0  0  0  0  0  0  0  0  0  0  0
   36.1650   32.2640   29.2720 N   0  0  0  0  0  0  0  0  0  0  0  0
   35.3930   33.2610   29.7500 C   0  0  0  0  0  0  0  0  0  0  0  0
   34.8010   32.7740   30.8720 N   0  0  0  0  0  0  0  0  0  0  0  0
   35.2030   31.5060   31.0760 C   0  0  0  0  0  0  0  0  0  0  0  0
   34.8830   30.6120   32.0640 C   0  0  0  0  0  0  0  0  0  0  0  0
   35.2740   28.5490   32.7620 H   0  0  0  0  0  0  0  0  0  0  0  0
   37.2950   29.7440   29.2130 H   0  0  0  0  0  0  0  0  0  0  0  0
   36.7480   32.3290   28.4180 H   0  0  0  0  0  0  0  0  0  0  0  0
   35.2120   34.2500   29.4050 H   0  0  0  0  0  0  0  0  0  0  0  0
   32.5080   30.8510   32.8100 C   0  0  2  0  0  3  0  0  0  0  0  0
   33.9460   30.9120   33.1930 C   0  0  1  0  0  3  0  0  0  0  0  0
   34.2110   30.0240   34.1990 O   0  0  0  0  0  0  0  0  0  0  0  0
   33.0110   29.4800   34.6320 C   0  0  0  0  0  2  0  0  0  0  0  0
   32.0310   29.5970   33.5130 C   0  0  2  0  0  3  0  0  0  0  0  0
   32.3060   30.7780   31.4350 O   0  0  0  0  0  0  0  0  0  0  0  0
   32.1290   29.8330   31.2190 H   0  0  0  0  0  0  0  0  0  0  0  0
   31.9830   28.4910   32.6700 O   0  0  0  0  0  0  0  0  0  0  0  0
   32.2460   27.6470   33.1130 H   0  0  0  0  0  0  0  0  0  0  0  0
  1 22  1  0  0  0  0
  1  2  1  0  0  0  0
  2 11  1  0  0  0  0
  3  2  2  0  0  0  0
  3  7  1  0  0  0  0
  4  3  1  0  0  0  0
  5  6  1  0  0  0  0
  5  4  2  0  0  0  0
  6  1  2  0  0  0  0
  8  4  1  0  0  0  0
  9  5  1  0  0  0  0
 10 11  2  0  0  0  0
 10 15  1  0  0  0  0
 11 12  1  0  0  0  0
 12 18  1  0  0  0  0
 12 13  2  0  0  0  0
 14 13  1  0  0  0  0
 14 17  1  0  0  0  0
 15 14  2  0  0  0  0
 16 10  1  0  0  0  0
 18 21  1  0  0  0  0
 19 18  1  0  0  0  0
 20 18  1  0  0  0  0
 23 22  1  0  0  0  0
 24 26  1  0  0  0  0
 24  6  1  0  0  0  0
 25 33  1  0  0  0  0
 25 34  1  0  0  0  0
 26 25  2  0  0  0  0
 27 28  2  0  0  0  0
 27 26  1  0  0  0  0
 28 32  1  0  0  0  0
 29 30  1  0  0  0  0
 29 28  1  0  0  0  0
 30 31  2  0  0  0  0
 31 32  1  0  0  0  0
 32 33  2  0  0  0  0
 35 27  1  0  0  0  0
 36 29  1  0  0  0  0
 37 30  1  0  0  0  0
 38 43  1  6  0  0  0
 38 39  1  0  0  0  0
 38 42  1  0  0  0  0
 39 33  1  6  0  0  0
 39 40  1  0  0  0  0
 40 41  1  0  0  0  0
 42 45  1  6  0  0  0
 42 41  1  0  0  0  0
 44 43  1  0  0  0  0
 45 46  1  0  0  0  0
M  END
>  <minimizedAffinity>
-6.20823812

$$$$

 OpenBabel03272509233D

 46 50  0  0  1  0  0  0  0  0999 V2000
   36.9880   27.0440   33.1760 C   0  0  0  0  0  0  0  0  0  0  0  0
   37.6050   25.8170   33.3720 C   0  0  0  0  0  0  0  0  0  0  0  0
   38.1160   25.6510   34.6720 C   0  0  0  0  0  0  0  0  0  0  0  0
   37.9960   26.6430   35.6450 C   0  0  0  0  0  0  0  0  0  0  0  0
   37.3450   27.8520   35.3240 C   0  0  0  0  0  0  0  0  0  0  0  0
   36.8350   28.0440   34.0600 C   0  0  0  0  0  0  0  0  0  0  0  0
   38.6230   24.7350   34.9570 H   0  0  0  0  0  0  0  0  0  0  0  0
   38.4020   26.4830   36.6410 H   0  0  0  0  0  0  0  0  0  0  0  0
   37.2910   28.5660   36.1170 H   0  0  0  0  0  0  0  0  0  0  0  0
   36.7620   23.8100   32.2780 C   0  0  0  0  0  0  0  0  0  0  0  0
   37.7280   24.8050   32.3800 C   0  0  0  0  0  0  0  0  0  0  0  0
   38.8050   24.7630   31.4800 C   0  0  0  0  0  0  0  0  0  0  0  0
   38.8410   23.7620   30.5660 N   0  0  0  0  0  0  0  0  0  0  0  0
   37.8700   22.8100   30.5060 C   0  0  0  0  0  0  0  0  0  0  0  0
   36.8400   22.8350   31.3550 N   0  0  0  0  0  0  0  0  0  0  0  0
   35.9290   23.8300   32.9650 H   0  0  0  0  0  0  0  0  0  0  0  0
   37.9800   22.0440   29.7420 H   0  0  0  0  0  0  0  0  0  0  0  0
   39.8670   25.8050   31.5460 C   0  0  0  0  0  0  0  0  0  0  0  0
   39.4160   26.8040   31.3730 H   0  0  0  0  0  0  0  0  0  0  0  0
   40.4850   25.7530   32.4570 H   0  0  0  0  0  0  0  0  0  0  0  0
   40.5430   25.6400   30.6870 H   0  0  0  0  0  0  0  0  0  0  0  0
   36.4420   27.3050   31.8980 O   0  0  0  0  0  0  0  0  0  0  0  0
   37.1230   27.3910   31.1680 H   0  0  0  0  0  0  0  0  0  0  0  0
   36.2130   29.2440   33.8110 O   0  0  0  0  0  0  0  0  0  0  0  0
   33.9390   29.5540   34.7780 C   0  0  0  0  0  0  0  0  0  0  0  0
   35.2800   29.8620   34.5890 C   0  0  0  0  0  0  0  0  0  0  0  0
   35.8120   30.9450   35.2620 C   0  0  0  0  0  0  0  0  0  0  0  0
   35.0140   31.7250   36.1250 C   0  0  0  0  0  0  0  0  0  0  0  0
   35.2340   32.8050   36.8950 N   0  0  0  0  0  0  0  0  0  0  0  0
   34.0980   33.1580   37.5320 C   0  0  0  0  0  0  0  0  0  0  0  0
   33.1530   32.2650   37.1390 N   0  0  0  0  0  0  0  0  0  0  0  0
   33.6980   31.3830   36.2790 C   0  0  0  0  0  0  0  0  0  0  0  0
   33.1480   30.3150   35.6230 C   0  0  0  0  0  0  0  0  0  0  0  0
   33.6290   28.6880   34.2020 H   0  0  0  0  0  0  0  0  0  0  0  0
   36.8310   31.3020   35.2150 H   0  0  0  0  0  0  0  0  0  0  0  0
   36.1390   33.2980   36.9900 H   0  0  0  0  0  0  0  0  0  0  0  0
   33.8780   33.9430   38.2130 H   0  0  0  0  0  0  0  0  0  0  0  0
   30.7830   30.6810   34.9000 C   0  0  2  0  0  3  0  0  0  0  0  0
   31.7160   29.8970   35.7540 C   0  0  1  0  0  3  0  0  0  0  0  0
   31.6420   28.5660   35.4470 O   0  0  0  0  0  0  0  0  0  0  0  0
   30.6020   28.3790   34.5500 C   0  0  0  0  0  2  0  0  0  0  0  0
   30.3750   29.6740   33.8430 C   0  0  2  0  0  3  0  0  0  0  0  0
   31.3680   31.8100   34.3340 O   0  0  0  0  0  0  0  0  0  0  0  0
   31.6030   31.5790   33.4050 H   0  0  0  0  0  0  0  0  0  0  0  0
   31.0890   29.8170   32.6580 O   0  0  0  0  0  0  0  0  0  0  0  0
   31.3000   28.9560   32.2190 H   0  0  0  0  0  0  0  0  0  0  0  0
  1  2  2  0  0  0  0
  1  6  1  0  0  0  0
  2  3  1  0  0  0  0
  3  7  1  0  0  0  0
  3  4  2  0  0  0  0
  4  8  1  0  0  0  0
  5  4  1  0  0  0  0
  5  9  1  0  0  0  0
  6  5  2  0  0  0  0
 10 11  1  0  0  0  0
 10 16  1  0  0  0  0
 11  2  1  0  0  0  0
 12 18  1  0  0  0  0
 12 11  2  0  0  0  0
 13 12  1  0  0  0  0
 14 13  2  0  0  0  0
 14 15  1  0  0  0  0
 15 10  2  0  0  0  0
 17 14  1  0  0  0  0
 18 20  1  0  0  0  0
 19 18  1  0  0  0  0
 21 18  1  0  0  0  0
 22  1  1  0  0  0  0
 23 22  1  0  0  0  0
 24  6  1  0  0  0  0
 24 26  1  0  0  0  0
 25 33  1  0  0  0  0
 26 25  2  0  0  0  0
 26 27  1  0  0  0  0
 27 28  2  0  0  0  0
 28 32  1  0  0  0  0
 28 29  1  0  0  0  0
 29 36  1  0  0  0  0
 29 30  1  0  0  0  0
 30 37  1  0  0  0  0
 31 30  2  0  0  0  0
 32 31  1  0  0  0  0
 33 32  2  0  0  0  0
 34 25  1  0  0  0  0
 35 27  1  0  0  0  0
 38 43  1  6  0  0  0
 38 39  1  0  0  0  0
 39 33  1  6  0  0  0
 40 39  1  0  0  0  0
 41 40  1  0  0  0  0
 42 45  1  6  0  0  0
 42 41  1  0  0  0  0
 42 38  1  0  0  0  0
 44 43  1  0  0  0  0
 46 45  1  0  0  0  0
M  END
>  <minimizedAffinity>
-6.18853092

$$$$
