
 OpenBabel03272508383D

 44 47  0  0  1  0  0  0  0  0999 V2000
   32.4860   30.6670   33.7160 C   0  0  0  0  0  0  0  0  0  0  0  0
   32.5740   29.5410   33.7740 H   0  0  0  0  0  0  0  0  0  0  0  0
   31.7360   30.8150   32.9060 H   0  0  0  0  0  0  0  0  0  0  0  0
   31.9090   31.1000   34.9120 N   0  0  0  0  0  0  0  0  0  0  0  0
   31.6840   32.4560   35.0800 C   0  0  0  0  0  0  0  0  0  0  0  0
   32.4170   33.1180   36.1910 C   0  0  0  0  0  0  0  0  0  0  0  0
   32.4370   32.3520   37.3420 O   0  0  0  0  0  0  0  0  0  0  0  0
   32.9420   31.0970   37.0830 C   0  0  0  0  0  0  0  0  0  0  0  0
   32.1490   30.3480   36.1060 C   0  0  1  0  0  0  0  0  0  0  0  0
   30.6050   32.4010   35.4540 H   0  0  0  0  0  0  0  0  0  0  0  0
   31.5280   33.0920   34.2210 H   0  0  0  0  0  0  0  0  0  0  0  0
   31.6780   33.9410   36.5440 H   0  0  0  0  0  0  0  0  0  0  0  0
   33.2430   33.7710   35.9830 H   0  0  0  0  0  0  0  0  0  0  0  0
   34.0350   31.0400   36.9940 H   0  0  0  0  0  0  0  0  0  0  0  0
   32.7930   30.6080   38.0580 H   0  0  0  0  0  0  0  0  0  0  0  0
   32.7420   29.4570   35.7910 H   0  0  0  0  0  0  0  0  0  0  0  0
   30.9810   28.5820   37.5150 C   0  0  1  0  0  3  0  0  0  0  0  0
   30.8340   29.7690   36.6130 C   0  0  2  0  0  3  0  0  0  0  0  0
   30.2400   29.1220   35.4830 O   0  0  0  0  0  0  0  0  0  0  0  0
   30.9820   27.9730   35.2650 C   0  0  0  0  0  2  0  0  0  0  0  0
   31.5450   27.5000   36.5840 C   0  0  2  0  0  3  0  0  0  0  0  0
   31.7670   28.6640   38.6050 O   0  0  0  0  0  0  0  0  0  0  0  0
   31.3440   28.3390   39.4590 H   0  0  0  0  0  0  0  0  0  0  0  0
   31.1100   26.2350   36.9430 O   0  0  0  0  0  0  0  0  0  0  0  0
   31.3920   26.0720   37.8650 H   0  0  0  0  0  0  0  0  0  0  0  0
   33.7890   31.1950   33.3530 C   0  0  0  0  0  0  0  0  0  0  0  0
   33.6830   31.7100   32.3480 H   0  0  0  0  0  0  0  0  0  0  0  0
   34.3180   31.9310   33.9510 H   0  0  0  0  0  0  0  0  0  0  0  0
   36.1610   28.5180   33.6390 C   0  0  0  0  0  0  0  0  0  0  0  0
   36.1070   28.6650   32.2660 C   0  0  0  0  0  0  0  0  0  0  0  0
   35.2070   29.6960   32.0000 C   0  0  0  0  0  0  0  0  0  0  0  0
   34.7610   30.1240   33.1810 N   0  0  0  0  0  0  0  0  0  0  0  0
   35.3330   29.4170   34.1730 N   0  0  0  0  0  0  0  0  0  0  0  0
   36.6810   28.0660   31.5320 H   0  0  0  0  0  0  0  0  0  0  0  0
   35.0600   29.9260   31.0080 H   0  0  0  0  0  0  0  0  0  0  0  0
   38.0300   25.3880   34.5550 C   0  0  0  0  0  0  0  0  0  0  0  0
   37.1930   26.2430   33.8390 C   0  0  0  0  0  0  0  0  0  0  0  0
   36.9960   27.5380   34.2870 C   0  0  0  0  0  0  0  0  0  0  0  0
   37.6580   27.8660   35.4240 N   0  0  0  0  0  0  0  0  0  0  0  0
   38.4650   27.0320   36.1110 C   0  0  0  0  0  0  0  0  0  0  0  0
   38.6420   25.7940   35.6660 N   0  0  0  0  0  0  0  0  0  0  0  0
   38.1650   24.3680   34.1720 H   0  0  0  0  0  0  0  0  0  0  0  0
   36.6790   25.9490   32.9340 H   0  0  0  0  0  0  0  0  0  0  0  0
   38.9020   27.4860   36.9950 H   0  0  0  0  0  0  0  0  0  0  0  0
  1  2  1  0  0  0  0
  1  4  1  0  0  0  0
  3  1  1  0  0  0  0
  4  5  1  0  0  0  0
  4  9  1  0  0  0  0
  5 10  1  0  0  0  0
  5  6  1  0  0  0  0
  6 12  1  0  0  0  0
  6  7  1  0  0  0  0
  8  7  1  0  0  0  0
  8 15  1  0  0  0  0
  9 16  1  6  0  0  0
  9 18  1  0  0  0  0
  9  8  1  0  0  0  0
 11  5  1  0  0  0  0
 13  6  1  0  0  0  0
 14  8  1  0  0  0  0
 17 22  1  1  0  0  0
 18 19  1  6  0  0  0
 18 17  1  0  0  0  0
 20 19  1  0  0  0  0
 20 21  1  0  0  0  0
 21 24  1  1  0  0  0
 21 17  1  0  0  0  0
 22 23  1  0  0  0  0
 24 25  1  0  0  0  0
 26  1  1  0  0  0  0
 26 28  1  0  0  0  0
 27 26  1  0  0  0  0
 29 33  2  0  0  0  0
 29 38  1  0  0  0  0
 30 29  1  0  0  0  0
 31 30  2  0  0  0  0
 31 32  1  0  0  0  0
 32 26  1  0  0  0  0
 32 33  1  0  0  0  0
 34 30  1  0  0  0  0
 35 31  1  0  0  0  0
 36 41  1  0  0  0  0
 37 38  1  0  0  0  0
 37 36  2  0  0  0  0
 38 39  2  0  0  0  0
 39 40  1  0  0  0  0
 40 44  1  0  0  0  0
 41 40  2  0  0  0  0
 42 36  1  0  0  0  0
 43 37  1  0  0  0  0
M  END
>  <minimizedAffinity>
-5.68131638

$$$$

 OpenBabel03272508383D

 44 47  0  0  1  0  0  0  0  0999 V2000
   37.3530   25.1910   32.7840 C   0  0  0  0  0  0  0  0  0  0  0  0
   36.8060   24.7780   31.8830 H   0  0  0  0  0  0  0  0  0  0  0  0
   36.5560   25.2290   33.5600 H   0  0  0  0  0  0  0  0  0  0  0  0
   38.2850   24.2280   33.1790 N   0  0  0  0  0  0  0  0  0  0  0  0
   38.9360   23.5020   32.1960 C   0  0  0  0  0  0  0  0  0  0  0  0
   38.7030   22.0340   32.1900 C   0  0  0  0  0  0  0  0  0  0  0  0
   38.7140   21.4930   33.4610 O   0  0  0  0  0  0  0  0  0  0  0  0
   37.8130   22.1420   34.2760 C   0  0  0  0  0  0  0  0  0  0  0  0
   38.1060   23.5680   34.4350 C   0  0  1  0  0  0  0  0  0  0  0  0
   40.0050   23.6120   32.5870 H   0  0  0  0  0  0  0  0  0  0  0  0
   39.0780   23.9250   31.2120 H   0  0  0  0  0  0  0  0  0  0  0  0
   39.7140   21.6060   31.8110 H   0  0  0  0  0  0  0  0  0  0  0  0
   38.0850   21.5860   31.4350 H   0  0  0  0  0  0  0  0  0  0  0  0
   36.7620   21.8570   34.1340 H   0  0  0  0  0  0  0  0  0  0  0  0
   38.0240   21.6620   35.2440 H   0  0  0  0  0  0  0  0  0  0  0  0
   37.2190   24.0510   34.9100 H   0  0  0  0  0  0  0  0  0  0  0  0
   39.0970   23.4540   36.7750 C   0  0  1  0  0  3  0  0  0  0  0  0
   39.2670   23.9140   35.3600 C   0  0  2  0  0  3  0  0  0  0  0  0
   39.1810   25.3270   35.5690 O   0  0  0  0  0  0  0  0  0  0  0  0
   38.0940   25.5250   36.4050 C   0  0  0  0  0  2  0  0  0  0  0  0
   37.9290   24.3100   37.2850 C   0  0  2  0  0  3  0  0  0  0  0  0
   38.8240   22.1600   37.0290 O   0  0  0  0  0  0  0  0  0  0  0  0
   39.4050   21.7350   37.7330 H   0  0  0  0  0  0  0  0  0  0  0  0
   38.0500   24.5920   38.6360 O   0  0  0  0  0  0  0  0  0  0  0  0
   38.0850   23.7420   39.1170 H   0  0  0  0  0  0  0  0  0  0  0  0
   37.8390   26.5150   32.4380 C   0  0  0  0  0  0  0  0  0  0  0  0
   38.7310   26.7370   33.1020 H   0  0  0  0  0  0  0  0  0  0  0  0
   38.2000   26.7730   31.4470 H   0  0  0  0  0  0  0  0  0  0  0  0
   35.6860   29.0630   33.7620 C   0  0  0  0  0  0  0  0  0  0  0  0
   35.1620   28.9200   32.4910 C   0  0  0  0  0  0  0  0  0  0  0  0
   35.9120   27.9380   31.8450 C   0  0  0  0  0  0  0  0  0  0  0  0
   36.8360   27.5330   32.7180 N   0  0  0  0  0  0  0  0  0  0  0  0
   36.7040   28.2080   33.8740 N   0  0  0  0  0  0  0  0  0  0  0  0
   34.3040   29.4890   32.0820 H   0  0  0  0  0  0  0  0  0  0  0  0
   35.6360   27.7170   30.8800 H   0  0  0  0  0  0  0  0  0  0  0  0
   35.2850   31.7550   36.3530 C   0  0  0  0  0  0  0  0  0  0  0  0
   35.9160   30.9000   35.4510 C   0  0  0  0  0  0  0  0  0  0  0  0
   35.1580   29.9970   34.7240 C   0  0  0  0  0  0  0  0  0  0  0  0
   33.8250   30.0280   34.9680 N   0  0  0  0  0  0  0  0  0  0  0  0
   33.2230   30.8580   35.8430 C   0  0  0  0  0  0  0  0  0  0  0  0
   33.9660   31.7180   36.5310 N   0  0  0  0  0  0  0  0  0  0  0  0
   35.9140   32.4590   36.9130 H   0  0  0  0  0  0  0  0  0  0  0  0
   36.9840   30.9000   35.2800 H   0  0  0  0  0  0  0  0  0  0  0  0
   32.1470   30.7270   35.8930 H   0  0  0  0  0  0  0  0  0  0  0  0
  1  4  1  0  0  0  0
  1  3  1  0  0  0  0
  2  1  1  0  0  0  0
  4  9  1  0  0  0  0
  5 10  1  0  0  0  0
  5  4  1  0  0  0  0
  6  5  1  0  0  0  0
  6  7  1  0  0  0  0
  7  8  1  0  0  0  0
  8  9  1  0  0  0  0
  8 15  1  0  0  0  0
  9 16  1  1  0  0  0
  9 18  1  0  0  0  0
 11  5  1  0  0  0  0
 12  6  1  0  0  0  0
 13  6  1  0  0  0  0
 14  8  1  0  0  0  0
 17 22  1  6  0  0  0
 17 21  1  0  0  0  0
 18 19  1  1  0  0  0
 18 17  1  0  0  0  0
 19 20  1  0  0  0  0
 20 21  1  0  0  0  0
 21 24  1  1  0  0  0
 22 23  1  0  0  0  0
 24 25  1  0  0  0  0
 26 32  1  0  0  0  0
 26  1  1  0  0  0  0
 26 27  1  0  0  0  0
 28 26  1  0  0  0  0
 29 33  2  0  0  0  0
 29 38  1  0  0  0  0
 30 29  1  0  0  0  0
 31 30  2  0  0  0  0
 31 32  1  0  0  0  0
 32 33  1  0  0  0  0
 34 30  1  0  0  0  0
 35 31  1  0  0  0  0
 36 41  1  0  0  0  0
 36 42  1  0  0  0  0
 37 36  2  0  0  0  0
 38 39  2  0  0  0  0
 38 37  1  0  0  0  0
 39 40  1  0  0  0  0
 40 44  1  0  0  0  0
 40 41  2  0  0  0  0
 43 37  1  0  0  0  0
M  END
>  <minimizedAffinity>
-5.6799655

$$$$

 OpenBabel03272508383D

 44 47  0  0  1  0  0  0  0  0999 V2000
   37.0620   26.3750   33.3940 C   0  0  0  0  0  0  0  0  0  0  0  0
   36.1510   25.7060   33.4440 H   0  0  0  0  0  0  0  0  0  0  0  0
   37.0470   26.8890   34.3810 H   0  0  0  0  0  0  0  0  0  0  0  0
   38.1840   25.5440   33.3650 N   0  0  0  0  0  0  0  0  0  0  0  0
   38.9390   25.5000   32.2040 C   0  0  0  0  0  0  0  0  0  0  0  0
   39.0130   24.1890   31.5080 C   0  0  0  0  0  0  0  0  0  0  0  0
   39.1760   23.1340   32.3860 O   0  0  0  0  0  0  0  0  0  0  0  0
   38.1870   23.1400   33.3450 C   0  0  0  0  0  0  0  0  0  0  0  0
   38.1850   24.3560   34.1620 C   0  0  1  0  0  0  0  0  0  0  0  0
   39.9740   25.6240   32.6730 H   0  0  0  0  0  0  0  0  0  0  0  0
   38.9590   26.3490   31.5370 H   0  0  0  0  0  0  0  0  0  0  0  0
   40.0770   24.1940   31.0440 H   0  0  0  0  0  0  0  0  0  0  0  0
   38.4760   24.0300   30.5930 H   0  0  0  0  0  0  0  0  0  0  0  0
   37.2130   22.7520   33.0170 H   0  0  0  0  0  0  0  0  0  0  0  0
   38.5230   22.3180   33.9960 H   0  0  0  0  0  0  0  0  0  0  0  0
   37.2330   24.3790   34.7430 H   0  0  0  0  0  0  0  0  0  0  0  0
   39.4200   23.2420   36.0860 C   0  0  1  0  0  3  0  0  0  0  0  0
   39.2790   24.4550   35.2170 C   0  0  2  0  0  3  0  0  0  0  0  0
   38.7850   25.3760   36.1940 O   0  0  0  0  0  0  0  0  0  0  0  0
   37.7920   24.7050   36.8880 C   0  0  0  0  0  2  0  0  0  0  0  0
   38.1110   23.2290   36.8870 C   0  0  2  0  0  3  0  0  0  0  0  0
   39.5910   22.0310   35.5210 O   0  0  0  0  0  0  0  0  0  0  0  0
   40.3490   21.4900   35.9010 H   0  0  0  0  0  0  0  0  0  0  0  0
   38.2900   22.7070   38.1570 O   0  0  0  0  0  0  0  0  0  0  0  0
   38.6400   21.7990   38.0610 H   0  0  0  0  0  0  0  0  0  0  0  0
   36.8680   27.3040   32.2950 C   0  0  0  0  0  0  0  0  0  0  0  0
   37.8880   27.5350   31.8570 H   0  0  0  0  0  0  0  0  0  0  0  0
   36.2720   27.0690   31.4180 H   0  0  0  0  0  0  0  0  0  0  0  0
   35.4320   30.0720   34.0730 C   0  0  0  0  0  0  0  0  0  0  0  0
   35.6250   30.6400   32.8280 C   0  0  0  0  0  0  0  0  0  0  0  0
   36.1870   29.6590   32.0120 C   0  0  0  0  0  0  0  0  0  0  0  0
   36.3110   28.5650   32.7650 N   0  0  0  0  0  0  0  0  0  0  0  0
   35.8580   28.8090   34.0080 N   0  0  0  0  0  0  0  0  0  0  0  0
   35.3730   31.6820   32.5510 H   0  0  0  0  0  0  0  0  0  0  0  0
   36.3880   29.9350   31.0420 H   0  0  0  0  0  0  0  0  0  0  0  0
   34.8770   32.3650   36.9980 C   0  0  0  0  0  0  0  0  0  0  0  0
   35.5400   31.7290   35.9490 C   0  0  0  0  0  0  0  0  0  0  0  0
   34.8640   30.7950   35.1820 C   0  0  0  0  0  0  0  0  0  0  0  0
   33.5740   30.5750   35.5370 N   0  0  0  0  0  0  0  0  0  0  0  0
   32.9410   31.1950   36.5540 C   0  0  0  0  0  0  0  0  0  0  0  0
   33.6050   32.0880   37.2780 N   0  0  0  0  0  0  0  0  0  0  0  0
   35.4410   33.1010   37.5860 H   0  0  0  0  0  0  0  0  0  0  0  0
   36.5710   31.9270   35.6930 H   0  0  0  0  0  0  0  0  0  0  0  0
   31.9090   30.8800   36.6750 H   0  0  0  0  0  0  0  0  0  0  0  0
  1  2  1  0  0  0  0
  1  3  1  0  0  0  0
  4  1  1  0  0  0  0
  4  9  1  0  0  0  0
  5 10  1  0  0  0  0
  5  4  1  0  0  0  0
  6  5  1  0  0  0  0
  6  7  1  0  0  0  0
  7  8  1  0  0  0  0
  8 15  1  0  0  0  0
  8  9  1  0  0  0  0
  9 16  1  1  0  0  0
  9 18  1  0  0  0  0
 11  5  1  0  0  0  0
 12  6  1  0  0  0  0
 13  6  1  0  0  0  0
 14  8  1  0  0  0  0
 17 22  1  6  0  0  0
 17 21  1  0  0  0  0
 18 17  1  0  0  0  0
 18 19  1  1  0  0  0
 19 20  1  0  0  0  0
 21 20  1  0  0  0  0
 21 24  1  1  0  0  0
 22 23  1  0  0  0  0
 25 24  1  0  0  0  0
 26 32  1  0  0  0  0
 26  1  1  0  0  0  0
 27 26  1  0  0  0  0
 28 26  1  0  0  0  0
 29 38  1  0  0  0  0
 30 29  1  0  0  0  0
 31 32  1  0  0  0  0
 31 30  2  0  0  0  0
 32 33  1  0  0  0  0
 33 29  2  0  0  0  0
 34 30  1  0  0  0  0
 35 31  1  0  0  0  0
 36 41  1  0  0  0  0
 36 42  1  0  0  0  0
 37 36  2  0  0  0  0
 38 39  2  0  0  0  0
 38 37  1  0  0  0  0
 39 40  1  0  0  0  0
 40 44  1  0  0  0  0
 40 41  2  0  0  0  0
 43 37  1  0  0  0  0
M  END
>  <minimizedAffinity>
-5.49540663

$$$$

 OpenBabel03272508383D

 44 47  0  0  1  0  0  0  0  0999 V2000
   37.3040   25.0160   32.7970 C   0  0  0  0  0  0  0  0  0  0  0  0
   36.7000   24.5280   31.9740 H   0  0  0  0  0  0  0  0  0  0  0  0
   36.5740   25.0800   33.6350 H   0  0  0  0  0  0  0  0  0  0  0  0
   38.3010   24.1110   33.1710 N   0  0  0  0  0  0  0  0  0  0  0  0
   38.9870   23.4420   32.1710 C   0  0  0  0  0  0  0  0  0  0  0  0
   38.8510   21.9620   32.1480 C   0  0  0  0  0  0  0  0  0  0  0  0
   38.9100   21.4060   33.4120 O   0  0  0  0  0  0  0  0  0  0  0  0
   37.9770   21.9840   34.2430 C   0  0  0  0  0  0  0  0  0  0  0  0
   38.1780   23.4250   34.4190 C   0  0  1  0  0  0  0  0  0  0  0  0
   40.0510   23.6160   32.5540 H   0  0  0  0  0  0  0  0  0  0  0  0
   39.0920   23.8850   31.1920 H   0  0  0  0  0  0  0  0  0  0  0  0
   39.8830   21.6060   31.7530 H   0  0  0  0  0  0  0  0  0  0  0  0
   38.2560   21.4850   31.3930 H   0  0  0  0  0  0  0  0  0  0  0  0
   36.9450   21.6330   34.1080 H   0  0  0  0  0  0  0  0  0  0  0  0
   38.2280   21.5070   35.2030 H   0  0  0  0  0  0  0  0  0  0  0  0
   37.2660   23.8420   34.9080 H   0  0  0  0  0  0  0  0  0  0  0  0
   39.1900   23.3570   36.7520 C   0  0  1  0  0  3  0  0  0  0  0  0
   39.3240   23.8330   35.3370 C   0  0  2  0  0  3  0  0  0  0  0  0
   39.1560   25.2380   35.5550 O   0  0  0  0  0  0  0  0  0  0  0  0
   38.0660   25.3690   36.3990 C   0  0  0  0  0  2  0  0  0  0  0  0
   37.9780   24.1420   37.2740 C   0  0  2  0  0  3  0  0  0  0  0  0
   38.9960   22.0490   37.0010 O   0  0  0  0  0  0  0  0  0  0  0  0
   39.6050   21.6550   37.6990 H   0  0  0  0  0  0  0  0  0  0  0  0
   38.0920   24.4240   38.6250 O   0  0  0  0  0  0  0  0  0  0  0  0
   38.1800   23.5750   39.1020 H   0  0  0  0  0  0  0  0  0  0  0  0
   37.7100   26.3290   32.3280 C   0  0  0  0  0  0  0  0  0  0  0  0
   38.7230   26.5570   32.7840 H   0  0  0  0  0  0  0  0  0  0  0  0
   37.8550   26.5640   31.2780 H   0  0  0  0  0  0  0  0  0  0  0  0
   35.1520   28.7950   32.8280 C   0  0  0  0  0  0  0  0  0  0  0  0
   35.7910   28.8380   34.0530 C   0  0  0  0  0  0  0  0  0  0  0  0
   36.8340   27.9130   34.0040 C   0  0  0  0  0  0  0  0  0  0  0  0
   36.7920   27.3600   32.7920 N   0  0  0  0  0  0  0  0  0  0  0  0
   35.7810   27.8880   32.0790 N   0  0  0  0  0  0  0  0  0  0  0  0
   35.5120   29.4930   34.9020 H   0  0  0  0  0  0  0  0  0  0  0  0
   37.4080   27.8320   34.8530 H   0  0  0  0  0  0  0  0  0  0  0  0
   31.7440   30.3740   32.6970 C   0  0  0  0  0  0  0  0  0  0  0  0
   32.7640   29.5090   33.0890 C   0  0  0  0  0  0  0  0  0  0  0  0
   34.0170   29.6240   32.5100 C   0  0  0  0  0  0  0  0  0  0  0  0
   34.1390   30.6030   31.5800 N   0  0  0  0  0  0  0  0  0  0  0  0
   33.1460   31.4360   31.2060 C   0  0  0  0  0  0  0  0  0  0  0  0
   31.9520   31.3100   31.7730 N   0  0  0  0  0  0  0  0  0  0  0  0
   30.7640   30.2570   33.1760 H   0  0  0  0  0  0  0  0  0  0  0  0
   32.6330   28.7370   33.8350 H   0  0  0  0  0  0  0  0  0  0  0  0
   33.4470   32.1510   30.4470 H   0  0  0  0  0  0  0  0  0  0  0  0
  1  4  1  0  0  0  0
  1  3  1  0  0  0  0
  2  1  1  0  0  0  0
  4  9  1  0  0  0  0
  5 10  1  0  0  0  0
  5  4  1  0  0  0  0
  6  5  1  0  0  0  0
  6  7  1  0  0  0  0
  7  8  1  0  0  0  0
  8  9  1  0  0  0  0
  8 15  1  0  0  0  0
  9 16  1  1  0  0  0
  9 18  1  0  0  0  0
 11  5  1  0  0  0  0
 12  6  1  0  0  0  0
 13  6  1  0  0  0  0
 14  8  1  0  0  0  0
 17 22  1  6  0  0  0
 17 21  1  0  0  0  0
 18 19  1  1  0  0  0
 18 17  1  0  0  0  0
 19 20  1  0  0  0  0
 20 21  1  0  0  0  0
 21 24  1  1  0  0  0
 22 23  1  0  0  0  0
 24 25  1  0  0  0  0
 26 27  1  0  0  0  0
 26 32  1  0  0  0  0
 26  1  1  0  0  0  0
 28 26  1  0  0  0  0
 29 30  1  0  0  0  0
 30 34  1  0  0  0  0
 31 30  2  0  0  0  0
 31 35  1  0  0  0  0
 32 31  1  0  0  0  0
 33 32  1  0  0  0  0
 33 29  2  0  0  0  0
 36 37  1  0  0  0  0
 36 42  1  0  0  0  0
 37 43  1  0  0  0  0
 38 29  1  0  0  0  0
 38 37  2  0  0  0  0
 39 38  1  0  0  0  0
 40 39  2  0  0  0  0
 40 41  1  0  0  0  0
 41 36  2  0  0  0  0
 44 40  1  0  0  0  0
M  END
>  <minimizedAffinity>
-5.39887094

$$$$

 OpenBabel03272508383D

 44 47  0  0  1  0  0  0  0  0999 V2000
   38.0150   23.2280   33.3380 C   0  0  0  0  0  0  0  0  0  0  0  0
   37.7260   22.1690   33.6150 H   0  0  0  0  0  0  0  0  0  0  0  0
   37.2940   23.8420   33.9220 H   0  0  0  0  0  0  0  0  0  0  0  0
   39.2900   23.4590   33.8590 N   0  0  0  0  0  0  0  0  0  0  0  0
   40.2810   23.9000   32.9980 C   0  0  0  0  0  0  0  0  0  0  0  0
   41.4540   23.0040   32.8190 C   0  0  0  0  0  0  0  0  0  0  0  0
   41.8790   22.4460   34.0100 O   0  0  0  0  0  0  0  0  0  0  0  0
   40.8410   21.7980   34.6430 C   0  0  0  0  0  0  0  0  0  0  0  0
   39.7280   22.6880   34.9820 C   0  0  1  0  0  0  0  0  0  0  0  0
   40.6850   24.7600   33.6350 H   0  0  0  0  0  0  0  0  0  0  0  0
   40.0220   24.4610   32.1120 H   0  0  0  0  0  0  0  0  0  0  0  0
   42.3320   23.7440   32.6520 H   0  0  0  0  0  0  0  0  0  0  0  0
   41.5790   22.4510   31.9080 H   0  0  0  0  0  0  0  0  0  0  0  0
   40.5890   20.8080   34.2380 H   0  0  0  0  0  0  0  0  0  0  0  0
   41.3210   21.5110   35.5920 H   0  0  0  0  0  0  0  0  0  0  0  0
   38.8570   22.0550   35.2740 H   0  0  0  0  0  0  0  0  0  0  0  0
   39.7160   22.9680   37.5100 C   0  0  1  0  0  3  0  0  0  0  0  0
   39.9470   23.6090   36.1750 C   0  0  2  0  0  3  0  0  0  0  0  0
   38.8400   24.5160   36.1660 O   0  0  0  0  0  0  0  0  0  0  0  0
   37.7400   23.7840   36.5810 C   0  0  0  0  0  2  0  0  0  0  0  0
   38.2070   22.6880   37.5090 C   0  0  2  0  0  3  0  0  0  0  0  0
   40.3640   21.8310   37.8260 O   0  0  0  0  0  0  0  0  0  0  0  0
   40.8150   21.8360   38.7260 H   0  0  0  0  0  0  0  0  0  0  0  0
   37.6660   22.7820   38.7810 O   0  0  0  0  0  0  0  0  0  0  0  0
   38.1320   22.1400   39.3520 H   0  0  0  0  0  0  0  0  0  0  0  0
   37.8220   23.3780   31.9070 C   0  0  0  0  0  0  0  0  0  0  0  0
   38.8230   23.6570   31.4530 H   0  0  0  0  0  0  0  0  0  0  0  0
   37.4800   22.5700   31.2660 H   0  0  0  0  0  0  0  0  0  0  0  0
   36.1040   26.4800   31.3530 C   0  0  0  0  0  0  0  0  0  0  0  0
   35.1160   25.5760   31.0120 C   0  0  0  0  0  0  0  0  0  0  0  0
   35.6500   24.3000   31.1850 C   0  0  0  0  0  0  0  0  0  0  0  0
   36.9030   24.4680   31.6110 N   0  0  0  0  0  0  0  0  0  0  0  0
   37.1810   25.7800   31.7150 N   0  0  0  0  0  0  0  0  0  0  0  0
   34.0960   25.8380   30.6680 H   0  0  0  0  0  0  0  0  0  0  0  0
   35.0250   23.5130   30.9690 H   0  0  0  0  0  0  0  0  0  0  0  0
   36.2950   30.1300   30.4780 C   0  0  0  0  0  0  0  0  0  0  0  0
   36.5730   28.7640   30.4360 C   0  0  0  0  0  0  0  0  0  0  0  0
   35.9110   27.9070   31.2980 C   0  0  0  0  0  0  0  0  0  0  0  0
   35.0230   28.4970   32.1360 N   0  0  0  0  0  0  0  0  0  0  0  0
   34.7610   29.8190   32.1710 C   0  0  0  0  0  0  0  0  0  0  0  0
   35.4050   30.6260   31.3360 N   0  0  0  0  0  0  0  0  0  0  0  0
   36.8370   30.7820   29.7810 H   0  0  0  0  0  0  0  0  0  0  0  0
   37.2890   28.3250   29.7550 H   0  0  0  0  0  0  0  0  0  0  0  0
   34.0170   30.0920   32.9130 H   0  0  0  0  0  0  0  0  0  0  0  0
  1  2  1  0  0  0  0
  1  4  1  0  0  0  0
  1  3  1  0  0  0  0
  4  9  1  0  0  0  0
  5 10  1  0  0  0  0
  5  4  1  0  0  0  0
  6  5  1  0  0  0  0
  6  7  1  0  0  0  0
  7  8  1  0  0  0  0
  8  9  1  0  0  0  0
  8 15  1  0  0  0  0
  9 16  1  1  0  0  0
  9 18  1  0  0  0  0
 11  5  1  0  0  0  0
 12  6  1  0  0  0  0
 13  6  1  0  0  0  0
 14  8  1  0  0  0  0
 17 22  1  6  0  0  0
 18 19  1  6  0  0  0
 18 17  1  0  0  0  0
 19 20  1  0  0  0  0
 20 21  1  0  0  0  0
 21 17  1  0  0  0  0
 21 24  1  1  0  0  0
 22 23  1  0  0  0  0
 24 25  1  0  0  0  0
 26  1  1  0  0  0  0
 27 26  1  0  0  0  0
 28 26  1  0  0  0  0
 29 33  2  0  0  0  0
 30 31  2  0  0  0  0
 30 29  1  0  0  0  0
 31 32  1  0  0  0  0
 32 33  1  0  0  0  0
 32 26  1  0  0  0  0
 34 30  1  0  0  0  0
 35 31  1  0  0  0  0
 36 41  1  0  0  0  0
 37 36  2  0  0  0  0
 37 38  1  0  0  0  0
 38 29  1  0  0  0  0
 38 39  2  0  0  0  0
 39 40  1  0  0  0  0
 40 44  1  0  0  0  0
 41 40  2  0  0  0  0
 42 36  1  0  0  0  0
 43 37  1  0  0  0  0
M  END
>  <minimizedAffinity>
-5.37554646

$$$$

 OpenBabel03272508383D

 44 47  0  0  1  0  0  0  0  0999 V2000
   32.3330   30.6310   33.7910 C   0  0  0  0  0  0  0  0  0  0  0  0
   32.3800   29.5010   33.8340 H   0  0  0  0  0  0  0  0  0  0  0  0
   31.6250   30.8170   32.9520 H   0  0  0  0  0  0  0  0  0  0  0  0
   31.7200   31.0660   34.9680 N   0  0  0  0  0  0  0  0  0  0  0  0
   31.4150   32.4110   35.0920 C   0  0  0  0  0  0  0  0  0  0  0  0
   32.0960   33.1490   36.1880 C   0  0  0  0  0  0  0  0  0  0  0  0
   32.1480   32.4210   37.3620 O   0  0  0  0  0  0  0  0  0  0  0  0
   32.7280   31.1900   37.1470 C   0  0  0  0  0  0  0  0  0  0  0  0
   31.9890   30.3660   36.1860 C   0  0  1  0  0  0  0  0  0  0  0  0
   30.3370   32.3050   35.4570 H   0  0  0  0  0  0  0  0  0  0  0  0
   31.2320   33.0100   34.2120 H   0  0  0  0  0  0  0  0  0  0  0  0
   31.3070   33.9370   36.5080 H   0  0  0  0  0  0  0  0  0  0  0  0
   32.8850   33.8420   35.9660 H   0  0  0  0  0  0  0  0  0  0  0  0
   33.8230   31.1930   37.0690 H   0  0  0  0  0  0  0  0  0  0  0  0
   32.5970   30.7230   38.1350 H   0  0  0  0  0  0  0  0  0  0  0  0
   32.6370   29.5020   35.9040 H   0  0  0  0  0  0  0  0  0  0  0  0
   30.9100   28.5330   37.5810 C   0  0  1  0  0  3  0  0  0  0  0  0
   30.7050   29.7280   36.7000 C   0  0  2  0  0  3  0  0  0  0  0  0
   30.1230   29.0760   35.5670 O   0  0  0  0  0  0  0  0  0  0  0  0
   30.9070   27.9600   35.3210 C   0  0  0  0  0  2  0  0  0  0  0  0
   31.5050   27.4890   36.6250 C   0  0  2  0  0  3  0  0  0  0  0  0
   31.7060   28.6290   38.6620 O   0  0  0  0  0  0  0  0  0  0  0  0
   31.3070   28.2740   39.5150 H   0  0  0  0  0  0  0  0  0  0  0  0
   31.1250   26.2030   36.9690 O   0  0  0  0  0  0  0  0  0  0  0  0
   31.4240   26.0360   37.8850 H   0  0  0  0  0  0  0  0  0  0  0  0
   33.6680   31.1180   33.4930 C   0  0  0  0  0  0  0  0  0  0  0  0
   33.6610   31.5090   32.4280 H   0  0  0  0  0  0  0  0  0  0  0  0
   34.1420   31.9230   34.0470 H   0  0  0  0  0  0  0  0  0  0  0  0
   35.9450   28.4030   32.9210 C   0  0  0  0  0  0  0  0  0  0  0  0
   36.1390   28.6200   34.2720 C   0  0  0  0  0  0  0  0  0  0  0  0
   35.2990   29.6680   34.6450 C   0  0  0  0  0  0  0  0  0  0  0  0
   34.6450   30.0400   33.5430 N   0  0  0  0  0  0  0  0  0  0  0  0
   35.0310   29.2800   32.5020 N   0  0  0  0  0  0  0  0  0  0  0  0
   36.8370   28.0540   34.9200 H   0  0  0  0  0  0  0  0  0  0  0  0
   35.3300   29.9460   35.6340 H   0  0  0  0  0  0  0  0  0  0  0  0
   38.5670   26.3730   31.1560 C   0  0  0  0  0  0  0  0  0  0  0  0
   37.9990   27.4230   31.8750 C   0  0  0  0  0  0  0  0  0  0  0  0
   36.6500   27.3860   32.1840 C   0  0  0  0  0  0  0  0  0  0  0  0
   35.9820   26.2930   31.7400 N   0  0  0  0  0  0  0  0  0  0  0  0
   36.5390   25.2820   31.0440 C   0  0  0  0  0  0  0  0  0  0  0  0
   37.8350   25.3340   30.7570 N   0  0  0  0  0  0  0  0  0  0  0  0
   39.6390   26.4320   30.9270 H   0  0  0  0  0  0  0  0  0  0  0  0
   38.5610   28.2820   32.2140 H   0  0  0  0  0  0  0  0  0  0  0  0
   35.8350   24.4990   30.7820 H   0  0  0  0  0  0  0  0  0  0  0  0
  1  2  1  0  0  0  0
  1  4  1  0  0  0  0
  3  1  1  0  0  0  0
  4  5  1  0  0  0  0
  4  9  1  0  0  0  0
  5 10  1  0  0  0  0
  5  6  1  0  0  0  0
  6 12  1  0  0  0  0
  6  7  1  0  0  0  0
  8  7  1  0  0  0  0
  8 15  1  0  0  0  0
  9 16  1  6  0  0  0
  9 18  1  0  0  0  0
  9  8  1  0  0  0  0
 11  5  1  0  0  0  0
 13  6  1  0  0  0  0
 14  8  1  0  0  0  0
 17 22  1  1  0  0  0
 18 19  1  6  0  0  0
 18 17  1  0  0  0  0
 20 19  1  0  0  0  0
 20 21  1  0  0  0  0
 21 24  1  1  0  0  0
 21 17  1  0  0  0  0
 22 23  1  0  0  0  0
 24 25  1  0  0  0  0
 26 32  1  0  0  0  0
 26  1  1  0  0  0  0
 26 28  1  0  0  0  0
 27 26  1  0  0  0  0
 29 30  1  0  0  0  0
 30 31  2  0  0  0  0
 30 34  1  0  0  0  0
 31 35  1  0  0  0  0
 32 31  1  0  0  0  0
 33 29  2  0  0  0  0
 33 32  1  0  0  0  0
 36 37  1  0  0  0  0
 37 38  2  0  0  0  0
 37 43  1  0  0  0  0
 38 29  1  0  0  0  0
 39 38  1  0  0  0  0
 40 39  2  0  0  0  0
 41 40  1  0  0  0  0
 41 36  2  0  0  0  0
 42 36  1  0  0  0  0
 44 40  1  0  0  0  0
M  END
>  <minimizedAffinity>
-5.37258196

$$$$

 OpenBabel03272508383D

 44 47  0  0  1  0  0  0  0  0999 V2000
   35.9000   29.7950   34.9290 C   0  0  0  0  0  0  0  0  0  0  0  0
   37.0040   29.9490   35.1260 H   0  0  0  0  0  0  0  0  0  0  0  0
   35.5600   29.2510   35.8390 H   0  0  0  0  0  0  0  0  0  0  0  0
   35.2980   31.0550   34.9370 N   0  0  0  0  0  0  0  0  0  0  0  0
   36.0370   32.1380   34.4930 C   0  0  0  0  0  0  0  0  0  0  0  0
   36.3100   33.2090   35.4870 C   0  0  0  0  0  0  0  0  0  0  0  0
   35.2080   33.4980   36.2680 O   0  0  0  0  0  0  0  0  0  0  0  0
   34.7280   32.3580   36.8750 C   0  0  0  0  0  0  0  0  0  0  0  0
   34.2960   31.3360   35.9190 C   0  0  1  0  0  0  0  0  0  0  0  0
   35.2560   32.5990   33.7960 H   0  0  0  0  0  0  0  0  0  0  0  0
   36.8320   31.9970   33.7760 H   0  0  0  0  0  0  0  0  0  0  0  0
   36.3220   34.1740   34.8420 H   0  0  0  0  0  0  0  0  0  0  0  0
   37.2920   33.3240   35.9040 H   0  0  0  0  0  0  0  0  0  0  0  0
   35.2950   32.0190   37.7530 H   0  0  0  0  0  0  0  0  0  0  0  0
   33.8190   32.7470   37.3600 H   0  0  0  0  0  0  0  0  0  0  0  0
   34.1430   30.3830   36.4790 H   0  0  0  0  0  0  0  0  0  0  0  0
   31.8000   31.7630   36.1540 C   0  0  1  0  0  3  0  0  0  0  0  0
   32.9630   31.5880   35.2260 C   0  0  2  0  0  3  0  0  0  0  0  0
   32.5960   30.3360   34.6360 O   0  0  0  0  0  0  0  0  0  0  0  0
   32.2120   29.5170   35.6850 C   0  0  0  0  0  2  0  0  0  0  0  0
   31.6470   30.3750   36.7920 C   0  0  2  0  0  3  0  0  0  0  0  0
   31.8600   32.6820   37.1350 O   0  0  0  0  0  0  0  0  0  0  0  0
   31.0600   33.2900   37.1970 H   0  0  0  0  0  0  0  0  0  0  0  0
   30.3250   30.0870   37.0860 O   0  0  0  0  0  0  0  0  0  0  0  0
   29.9960   30.7790   37.6930 H   0  0  0  0  0  0  0  0  0  0  0  0
   35.7740   28.9820   33.7320 C   0  0  0  0  0  0  0  0  0  0  0  0
   34.7010   28.6190   33.6760 H   0  0  0  0  0  0  0  0  0  0  0  0
   35.9550   29.3670   32.7320 H   0  0  0  0  0  0  0  0  0  0  0  0
   37.7060   26.0880   34.6110 C   0  0  0  0  0  0  0  0  0  0  0  0
   37.9170   26.1320   33.2460 C   0  0  0  0  0  0  0  0  0  0  0  0
   37.2140   27.2320   32.7570 C   0  0  0  0  0  0  0  0  0  0  0  0
   36.6200   27.8000   33.8070 N   0  0  0  0  0  0  0  0  0  0  0  0
   36.9140   27.1140   34.9270 N   0  0  0  0  0  0  0  0  0  0  0  0
   38.5340   25.4160   32.6670 H   0  0  0  0  0  0  0  0  0  0  0  0
   37.2770   27.3980   31.7440 H   0  0  0  0  0  0  0  0  0  0  0  0
   38.4100   23.6700   37.4000 C   0  0  0  0  0  0  0  0  0  0  0  0
   37.7580   24.6630   36.6710 C   0  0  0  0  0  0  0  0  0  0  0  0
   38.2830   25.0760   35.4580 C   0  0  0  0  0  0  0  0  0  0  0  0
   39.4270   24.4550   35.0790 N   0  0  0  0  0  0  0  0  0  0  0  0
   40.0530   23.4960   35.7910 C   0  0  0  0  0  0  0  0  0  0  0  0
   39.5330   23.1120   36.9510 N   0  0  0  0  0  0  0  0  0  0  0  0
   37.9670   23.3650   38.3560 H   0  0  0  0  0  0  0  0  0  0  0  0
   36.8450   25.1390   37.0030 H   0  0  0  0  0  0  0  0  0  0  0  0
   40.9550   23.1250   35.3150 H   0  0  0  0  0  0  0  0  0  0  0  0
  1  4  1  0  0  0  0
  1  2  1  0  0  0  0
  1  3  1  0  0  0  0
  4  9  1  0  0  0  0
  5  4  1  0  0  0  0
  5  6  1  0  0  0  0
  6 13  1  0  0  0  0
  6  7  1  0  0  0  0
  7  8  1  0  0  0  0
  8 15  1  0  0  0  0
  8 14  1  0  0  0  0
  9 16  1  1  0  0  0
  9  8  1  0  0  0  0
 10  5  1  0  0  0  0
 11  5  1  0  0  0  0
 12  6  1  0  0  0  0
 17 21  1  0  0  0  0
 17 22  1  1  0  0  0
 18 19  1  6  0  0  0
 18  9  1  0  0  0  0
 18 17  1  0  0  0  0
 19 20  1  0  0  0  0
 20 21  1  0  0  0  0
 21 24  1  6  0  0  0
 22 23  1  0  0  0  0
 24 25  1  0  0  0  0
 26 32  1  0  0  0  0
 26  1  1  0  0  0  0
 27 26  1  0  0  0  0
 28 26  1  0  0  0  0
 29 33  2  0  0  0  0
 29 38  1  0  0  0  0
 30 29  1  0  0  0  0
 31 30  2  0  0  0  0
 31 32  1  0  0  0  0
 32 33  1  0  0  0  0
 34 30  1  0  0  0  0
 35 31  1  0  0  0  0
 36 42  1  0  0  0  0
 37 43  1  0  0  0  0
 37 36  2  0  0  0  0
 38 37  1  0  0  0  0
 39 38  2  0  0  0  0
 39 40  1  0  0  0  0
 40 41  2  0  0  0  0
 41 36  1  0  0  0  0
 44 40  1  0  0  0  0
M  END
>  <minimizedAffinity>
-5.2392168

$$$$

 OpenBabel03272508383D

 44 47  0  0  1  0  0  0  0  0999 V2000
   37.1340   26.6070   34.2870 C   0  0  0  0  0  0  0  0  0  0  0  0
   36.6740   27.6410   34.2760 H   0  0  0  0  0  0  0  0  0  0  0  0
   36.4000   26.0160   34.8780 H   0  0  0  0  0  0  0  0  0  0  0  0
   37.1090   26.1280   32.9750 N   0  0  0  0  0  0  0  0  0  0  0  0
   37.3080   24.7740   32.7670 C   0  0  0  0  0  0  0  0  0  0  0  0
   38.5060   24.3920   31.9740 C   0  0  0  0  0  0  0  0  0  0  0  0
   38.7000   25.2160   30.8810 O   0  0  0  0  0  0  0  0  0  0  0  0
   38.7530   26.5360   31.2690 C   0  0  0  0  0  0  0  0  0  0  0  0
   37.5210   26.9960   31.9150 C   0  0  1  0  0  0  0  0  0  0  0  0
   36.4330   24.5840   32.0560 H   0  0  0  0  0  0  0  0  0  0  0  0
   37.0510   24.0620   33.5370 H   0  0  0  0  0  0  0  0  0  0  0  0
   38.1600   23.4380   31.4110 H   0  0  0  0  0  0  0  0  0  0  0  0
   39.3580   23.9520   32.4560 H   0  0  0  0  0  0  0  0  0  0  0  0
   39.7050   26.8570   31.7140 H   0  0  0  0  0  0  0  0  0  0  0  0
   38.8080   27.0390   30.2910 H   0  0  0  0  0  0  0  0  0  0  0  0
   37.7300   27.9830   32.3920 H   0  0  0  0  0  0  0  0  0  0  0  0
   36.6140   28.2500   29.8970 C   0  0  1  0  0  3  0  0  0  0  0  0
   36.3400   27.2630   30.9900 C   0  0  2  0  0  3  0  0  0  0  0  0
   35.4150   28.0340   31.7640 O   0  0  0  0  0  0  0  0  0  0  0  0
   35.9700   29.2980   31.8770 C   0  0  0  0  0  2  0  0  0  0  0  0
   36.8160   29.5690   30.6560 C   0  0  2  0  0  3  0  0  0  0  0  0
   37.6630   28.0620   29.0740 O   0  0  0  0  0  0  0  0  0  0  0  0
   37.4520   28.1420   28.0930 H   0  0  0  0  0  0  0  0  0  0  0  0
   36.3800   30.6580   29.9190 O   0  0  0  0  0  0  0  0  0  0  0  0
   36.8790   30.6690   29.0780 H   0  0  0  0  0  0  0  0  0  0  0  0
   38.4190   26.7030   34.9570 C   0  0  0  0  0  0  0  0  0  0  0  0
   39.2040   26.9090   34.1660 H   0  0  0  0  0  0  0  0  0  0  0  0
   38.6370   27.4480   35.7180 H   0  0  0  0  0  0  0  0  0  0  0  0
   39.8720   23.6300   36.1090 C   0  0  0  0  0  0  0  0  0  0  0  0
   38.7320   23.6830   36.8900 C   0  0  0  0  0  0  0  0  0  0  0  0
   38.0500   24.8480   36.5430 C   0  0  0  0  0  0  0  0  0  0  0  0
   38.7750   25.4430   35.5940 N   0  0  0  0  0  0  0  0  0  0  0  0
   39.8740   24.7130   35.3290 N   0  0  0  0  0  0  0  0  0  0  0  0
   38.4350   22.9290   37.6450 H   0  0  0  0  0  0  0  0  0  0  0  0
   37.1700   25.0260   37.0440 H   0  0  0  0  0  0  0  0  0  0  0  0
   42.1330   20.8820   37.3140 C   0  0  0  0  0  0  0  0  0  0  0  0
   41.1970   21.9130   37.3630 C   0  0  0  0  0  0  0  0  0  0  0  0
   40.8270   22.5550   36.1940 C   0  0  0  0  0  0  0  0  0  0  0  0
   41.4350   22.1070   35.0680 N   0  0  0  0  0  0  0  0  0  0  0  0
   42.3410   21.1090   35.0290 C   0  0  0  0  0  0  0  0  0  0  0  0
   42.6820   20.5040   36.1610 N   0  0  0  0  0  0  0  0  0  0  0  0
   42.4030   20.3930   38.2580 H   0  0  0  0  0  0  0  0  0  0  0  0
   40.7300   22.2470   38.2800 H   0  0  0  0  0  0  0  0  0  0  0  0
   42.7100   20.9000   34.0300 H   0  0  0  0  0  0  0  0  0  0  0  0
  1  3  1  0  0  0  0
  1 26  1  0  0  0  0
  2  1  1  0  0  0  0
  4  1  1  0  0  0  0
  5  4  1  0  0  0  0
  5 11  1  0  0  0  0
  6 13  1  0  0  0  0
  6  5  1  0  0  0  0
  7  8  1  0  0  0  0
  7  6  1  0  0  0  0
  8 14  1  0  0  0  0
  8  9  1  0  0  0  0
  9 16  1  1  0  0  0
  9  4  1  0  0  0  0
 10  5  1  0  0  0  0
 12  6  1  0  0  0  0
 15  8  1  0  0  0  0
 17 22  1  1  0  0  0
 17 21  1  0  0  0  0
 17 18  1  0  0  0  0
 18 19  1  1  0  0  0
 18  9  1  0  0  0  0
 19 20  1  0  0  0  0
 21 24  1  6  0  0  0
 21 20  1  0  0  0  0
 23 22  1  0  0  0  0
 25 24  1  0  0  0  0
 26 32  1  0  0  0  0
 26 28  1  0  0  0  0
 27 26  1  0  0  0  0
 29 38  1  0  0  0  0
 29 30  1  0  0  0  0
 30 34  1  0  0  0  0
 31 30  2  0  0  0  0
 31 35  1  0  0  0  0
 32 31  1  0  0  0  0
 33 32  1  0  0  0  0
 33 29  2  0  0  0  0
 36 37  1  0  0  0  0
 36 42  1  0  0  0  0
 37 43  1  0  0  0  0
 38 37  2  0  0  0  0
 39 38  1  0  0  0  0
 40 39  2  0  0  0  0
 40 41  1  0  0  0  0
 41 36  2  0  0  0  0
 44 40  1  0  0  0  0
M  END
>  <minimizedAffinity>
-5.15401125

$$$$

 OpenBabel03272508383D

 44 47  0  0  1  0  0  0  0  0999 V2000
   32.0770   30.6500   33.5970 C   0  0  0  0  0  0  0  0  0  0  0  0
   32.4990   29.6050   33.7000 H   0  0  0  0  0  0  0  0  0  0  0  0
   31.1970   30.4980   32.9330 H   0  0  0  0  0  0  0  0  0  0  0  0
   31.6010   31.0310   34.8540 N   0  0  0  0  0  0  0  0  0  0  0  0
   31.3940   32.3790   35.0960 C   0  0  0  0  0  0  0  0  0  0  0  0
   32.2160   32.9950   36.1710 C   0  0  0  0  0  0  0  0  0  0  0  0
   32.3280   32.1810   37.2820 O   0  0  0  0  0  0  0  0  0  0  0  0
   32.8080   30.9390   36.9310 C   0  0  0  0  0  0  0  0  0  0  0  0
   31.9360   30.2300   35.9910 C   0  0  1  0  0  0  0  0  0  0  0  0
   30.3490   32.3070   35.5540 H   0  0  0  0  0  0  0  0  0  0  0  0
   31.1700   33.0500   34.2810 H   0  0  0  0  0  0  0  0  0  0  0  0
   31.5100   33.8010   36.6170 H   0  0  0  0  0  0  0  0  0  0  0  0
   33.0240   33.6570   35.9230 H   0  0  0  0  0  0  0  0  0  0  0  0
   33.8900   30.8870   36.7510 H   0  0  0  0  0  0  0  0  0  0  0  0
   32.7380   30.4080   37.8930 H   0  0  0  0  0  0  0  0  0  0  0  0
   32.5000   29.3540   35.5910 H   0  0  0  0  0  0  0  0  0  0  0  0
   30.8930   28.4810   37.5150 C   0  0  1  0  0  3  0  0  0  0  0  0
   30.6660   29.6290   36.5790 C   0  0  2  0  0  3  0  0  0  0  0  0
   30.0430   28.9220   35.5010 O   0  0  0  0  0  0  0  0  0  0  0  0
   30.8120   27.7900   35.2900 C   0  0  0  0  0  2  0  0  0  0  0  0
   31.4510   27.3840   36.5970 C   0  0  2  0  0  3  0  0  0  0  0  0
   31.7260   28.6280   38.5630 O   0  0  0  0  0  0  0  0  0  0  0  0
   31.3530   28.3210   39.4460 H   0  0  0  0  0  0  0  0  0  0  0  0
   31.0750   26.1200   37.0190 O   0  0  0  0  0  0  0  0  0  0  0  0
   31.4040   26.0000   37.9330 H   0  0  0  0  0  0  0  0  0  0  0  0
   33.0940   31.4760   32.9700 C   0  0  0  0  0  0  0  0  0  0  0  0
   32.5900   32.0780   32.1510 H   0  0  0  0  0  0  0  0  0  0  0  0
   33.6650   32.2260   33.5100 H   0  0  0  0  0  0  0  0  0  0  0  0
   35.7280   30.0420   30.9990 C   0  0  0  0  0  0  0  0  0  0  0  0
   35.4290   28.9830   31.8350 C   0  0  0  0  0  0  0  0  0  0  0  0
   34.3970   29.4010   32.6740 C   0  0  0  0  0  0  0  0  0  0  0  0
   34.1140   30.6580   32.3290 N   0  0  0  0  0  0  0  0  0  0  0  0
   34.9140   31.0490   31.3200 N   0  0  0  0  0  0  0  0  0  0  0  0
   35.9280   27.9940   31.8250 H   0  0  0  0  0  0  0  0  0  0  0  0
   34.0610   28.7120   33.3590 H   0  0  0  0  0  0  0  0  0  0  0  0
   38.3990   30.8700   28.4890 C   0  0  0  0  0  0  0  0  0  0  0  0
   37.4220   31.0670   29.4630 C   0  0  0  0  0  0  0  0  0  0  0  0
   36.7540   29.9740   29.9890 C   0  0  0  0  0  0  0  0  0  0  0  0
   37.1240   28.7700   29.4880 N   0  0  0  0  0  0  0  0  0  0  0  0
   38.0700   28.5890   28.5450 C   0  0  0  0  0  0  0  0  0  0  0  0
   38.7010   29.6480   28.0520 N   0  0  0  0  0  0  0  0  0  0  0  0
   38.9100   31.7570   28.0930 H   0  0  0  0  0  0  0  0  0  0  0  0
   37.1490   32.0420   29.8410 H   0  0  0  0  0  0  0  0  0  0  0  0
   38.2200   27.5470   28.2790 H   0  0  0  0  0  0  0  0  0  0  0  0
  1  2  1  0  0  0  0
  1  4  1  0  0  0  0
  3  1  1  0  0  0  0
  4  5  1  0  0  0  0
  4  9  1  0  0  0  0
  5 10  1  0  0  0  0
  5  6  1  0  0  0  0
  6 12  1  0  0  0  0
  6  7  1  0  0  0  0
  8  7  1  0  0  0  0
  8 15  1  0  0  0  0
  9 16  1  6  0  0  0
  9 18  1  0  0  0  0
  9  8  1  0  0  0  0
 11  5  1  0  0  0  0
 13  6  1  0  0  0  0
 14  8  1  0  0  0  0
 17 22  1  1  0  0  0
 18 19  1  6  0  0  0
 18 17  1  0  0  0  0
 20 19  1  0  0  0  0
 20 21  1  0  0  0  0
 21 24  1  1  0  0  0
 21 17  1  0  0  0  0
 22 23  1  0  0  0  0
 24 25  1  0  0  0  0
 26 28  1  0  0  0  0
 26  1  1  0  0  0  0
 27 26  1  0  0  0  0
 29 33  2  0  0  0  0
 29 30  1  0  0  0  0
 30 31  2  0  0  0  0
 31 35  1  0  0  0  0
 32 31  1  0  0  0  0
 32 26  1  0  0  0  0
 33 32  1  0  0  0  0
 34 30  1  0  0  0  0
 36 37  1  0  0  0  0
 37 43  1  0  0  0  0
 37 38  2  0  0  0  0
 38 29  1  0  0  0  0
 39 38  1  0  0  0  0
 40 39  2  0  0  0  0
 41 36  2  0  0  0  0
 41 40  1  0  0  0  0
 42 36  1  0  0  0  0
 44 40  1  0  0  0  0
M  END
>  <minimizedAffinity>
-5.14645576

$$$$
