
 OpenBabel03272508473D

 40 44  0  0  1  0  0  0  0  0999 V2000
   35.6380   29.7300   49.6450 C   0  0  0  0  0  0  0  0  0  0  0  0
   36.6280   29.6050   50.6020 C   0  0  0  0  0  0  0  0  0  0  0  0
   37.7530   30.1660   49.9950 C   0  0  0  0  0  0  0  0  0  0  0  0
   37.4010   30.5900   48.7370 C   0  0  0  0  0  0  0  0  0  0  0  0
   36.1250   30.3140   48.5590 O   0  0  0  0  0  0  0  0  0  0  0  0
   36.5940   29.1830   51.6000 H   0  0  0  0  0  0  0  0  0  0  0  0
   38.7620   30.2650   50.4220 H   0  0  0  0  0  0  0  0  0  0  0  0
   38.8080   32.4770   48.0420 C   0  0  0  0  0  0  0  0  0  0  0  0
   38.2690   31.2350   47.7530 C   0  0  0  0  0  0  0  0  0  0  0  0
   38.5280   30.5800   46.5540 C   0  0  0  0  0  0  0  0  0  0  0  0
   39.3470   31.1740   45.6090 C   0  0  0  0  0  0  0  0  0  0  0  0
   39.7850   30.8120   44.3780 N   0  0  0  0  0  0  0  0  0  0  0  0
   40.5580   31.7930   43.9350 N   0  0  0  0  0  0  0  0  0  0  0  0
   40.6270   32.7810   44.8580 C   0  0  0  0  0  0  0  0  0  0  0  0
   39.8590   32.4090   45.9420 C   0  0  0  0  0  0  0  0  0  0  0  0
   39.6400   33.0980   47.1020 C   0  0  0  0  0  0  0  0  0  0  0  0
   38.6150   33.0010   48.9750 H   0  0  0  0  0  0  0  0  0  0  0  0
   38.0840   29.5990   46.3600 H   0  0  0  0  0  0  0  0  0  0  0  0
   39.5100   29.9050   43.9400 H   0  0  0  0  0  0  0  0  0  0  0  0
   41.2030   33.6990   44.7310 H   0  0  0  0  0  0  0  0  0  0  0  0
   40.0860   34.0730   47.2860 H   0  0  0  0  0  0  0  0  0  0  0  0
   34.2710   29.2790   49.8290 C   0  0  0  0  0  0  0  0  0  0  0  0
   33.7030   29.5190   50.9070 O   0  0  0  0  0  0  0  0  0  0  0  0
   31.7770   27.2770   48.0700 C   0  0  0  0  0  0  0  0  0  0  0  0
   32.2800   27.1880   46.7880 C   0  0  0  0  0  0  0  0  0  0  0  0
   33.4720   27.8050   46.5020 C   0  0  0  0  0  0  0  0  0  0  0  0
   34.1120   28.4760   47.4730 N   0  0  0  0  0  0  0  0  0  0  0  0
   33.6070   28.5600   48.7440 C   0  0  0  0  0  0  0  0  0  0  0  0
   32.4300   27.9510   49.0260 N   0  0  0  0  0  0  0  0  0  0  0  0
   30.8350   26.7890   48.2970 H   0  0  0  0  0  0  0  0  0  0  0  0
   31.7410   26.6450   46.0440 H   0  0  0  0  0  0  0  0  0  0  0  0
   34.8110   28.9990   44.7590 C   0  0  1  0  0  0  0  0  0  0  0  0
   34.0820   27.7540   45.1390 C   0  0  2  0  0  0  0  0  0  0  0  0
   33.1620   27.4720   44.1410 O   0  0  0  0  0  0  0  0  0  0  0  0
   32.7960   28.6710   43.5500 C   0  0  0  0  0  0  0  0  0  0  0  0
   34.0910   29.4600   43.5290 C   0  0  2  0  0  0  0  0  0  0  0  0
   34.8730   29.9600   45.7620 O   0  0  0  0  0  0  0  0  0  0  0  0
   35.7820   29.9510   46.2030 H   0  0  0  0  0  0  0  0  0  0  0  0
   34.7780   29.1020   42.3630 O   0  0  0  0  0  0  0  0  0  0  0  0
   35.2930   28.2630   42.4770 H   0  0  0  0  0  0  0  0  0  0  0  0
  1 22  1  0  0  0  0
  1  2  2  0  0  0  0
  2  6  1  0  0  0  0
  3  7  1  0  0  0  0
  3  2  1  0  0  0  0
  4  3  2  0  0  0  0
  5  4  1  0  0  0  0
  5  1  1  0  0  0  0
  8 17  1  0  0  0  0
  9  8  1  0  0  0  0
  9  4  1  0  0  0  0
 10  9  2  0  0  0  0
 11 15  2  0  0  0  0
 11 10  1  0  0  0  0
 12 11  1  0  0  0  0
 13 12  1  0  0  0  0
 13 14  2  0  0  0  0
 14 15  1  0  0  0  0
 15 16  1  0  0  0  0
 16 21  1  0  0  0  0
 16  8  2  0  0  0  0
 18 10  1  0  0  0  0
 19 12  1  0  0  0  0
 20 14  1  0  0  0  0
 22 23  2  0  0  0  0
 24 30  1  0  0  0  0
 24 29  1  0  0  0  0
 25 24  2  0  0  0  0
 26 25  1  0  0  0  0
 26 27  2  0  0  0  0
 27 28  1  0  0  0  0
 28 29  2  0  0  0  0
 28 22  1  0  0  0  0
 31 25  1  0  0  0  0
 32 33  1  0  0  0  0
 32 37  1  1  0  0  0
 33 26  1  1  0  0  0
 34 33  1  0  0  0  0
 35 34  1  0  0  0  0
 36 39  1  6  0  0  0
 36 35  1  0  0  0  0
 36 32  1  0  0  0  0
 37 38  1  0  0  0  0
 39 40  1  0  0  0  0
M  END
>  <minimizedAffinity>
-6.55755377

>  <minimizedRMSD>
1.71168566

$$$$
