
 OpenBabel03272509213D

 46 50  0  0  1  0  0  0  0  0999 V2000
   38.0200   31.2670   47.8690 C   0  0  0  0  0  0  0  0  0  0  0  0
   37.3230   31.5490   49.0330 C   0  0  0  0  0  0  0  0  0  0  0  0
   37.7050   32.7620   49.6330 C   0  0  0  0  0  0  0  0  0  0  0  0
   38.6940   33.5780   49.0840 C   0  0  0  0  0  0  0  0  0  0  0  0
   39.3340   33.1820   47.8920 C   0  0  0  0  0  0  0  0  0  0  0  0
   38.9810   32.0000   47.2820 C   0  0  0  0  0  0  0  0  0  0  0  0
   37.2360   33.1000   50.5510 H   0  0  0  0  0  0  0  0  0  0  0  0
   38.9660   34.5110   49.5730 H   0  0  0  0  0  0  0  0  0  0  0  0
   40.0800   33.8560   47.5290 H   0  0  0  0  0  0  0  0  0  0  0  0
   35.0820   30.5950   48.9650 C   0  0  0  0  0  0  0  0  0  0  0  0
   36.3140   30.7170   49.5950 C   0  0  0  0  0  0  0  0  0  0  0  0
   36.5120   29.9960   50.7850 C   0  0  0  0  0  0  0  0  0  0  0  0
   35.4960   29.2270   51.2470 N   0  0  0  0  0  0  0  0  0  0  0  0
   34.3050   29.1420   50.5930 C   0  0  0  0  0  0  0  0  0  0  0  0
   34.1010   29.8200   49.4610 N   0  0  0  0  0  0  0  0  0  0  0  0
   34.9160   31.1450   48.0490 H   0  0  0  0  0  0  0  0  0  0  0  0
   33.5460   28.5010   51.0350 H   0  0  0  0  0  0  0  0  0  0  0  0
   37.8150   30.0910   51.5000 C   0  0  0  0  0  0  0  0  0  0  0  0
   38.6280   29.7330   50.8360 H   0  0  0  0  0  0  0  0  0  0  0  0
   38.0100   31.0830   51.9400 H   0  0  0  0  0  0  0  0  0  0  0  0
   37.7840   29.3670   52.3350 H   0  0  0  0  0  0  0  0  0  0  0  0
   37.7060   30.0660   47.1910 O   0  0  0  0  0  0  0  0  0  0  0  0
   37.9560   29.2330   47.6900 H   0  0  0  0  0  0  0  0  0  0  0  0
   39.6420   31.6720   46.1230 O   0  0  0  0  0  0  0  0  0  0  0  0
   39.2790   30.4580   43.9780 C   0  0  0  0  0  0  0  0  0  0  0  0
   39.0950   31.4920   44.8870 C   0  0  0  0  0  0  0  0  0  0  0  0
   38.2410   32.5250   44.5510 C   0  0  0  0  0  0  0  0  0  0  0  0
   37.5670   32.5340   43.3130 C   0  0  0  0  0  0  0  0  0  0  0  0
   36.7000   33.3700   42.7150 N   0  0  0  0  0  0  0  0  0  0  0  0
   36.3580   32.8930   41.5010 C   0  0  0  0  0  0  0  0  0  0  0  0
   37.0370   31.7260   41.3500 N   0  0  0  0  0  0  0  0  0  0  0  0
   37.7800   31.4940   42.4490 C   0  0  0  0  0  0  0  0  0  0  0  0
   38.6220   30.4590   42.7590 C   0  0  0  0  0  0  0  0  0  0  0  0
   39.9680   29.7040   44.3450 H   0  0  0  0  0  0  0  0  0  0  0  0
   38.0000   33.3900   45.1520 H   0  0  0  0  0  0  0  0  0  0  0  0
   36.3440   34.2530   43.1220 H   0  0  0  0  0  0  0  0  0  0  0  0
   35.7090   33.2650   40.7470 H   0  0  0  0  0  0  0  0  0  0  0  0
   40.1240   29.4530   41.0320 C   0  0  2  0  0  3  0  0  0  0  0  0
   38.8920   29.2980   41.8530 C   0  0  1  0  0  3  0  0  0  0  0  0
   38.9720   28.1750   42.6290 O   0  0  0  0  0  0  0  0  0  0  0  0
   40.1100   27.4720   42.2680 C   0  0  0  0  0  2  0  0  0  0  0  0
   41.0650   28.4410   41.6530 C   0  0  2  0  0  3  0  0  0  0  0  0
   40.6540   30.7390   41.0690 O   0  0  0  0  0  0  0  0  0  0  0  0
   41.4030   30.7240   41.7100 H   0  0  0  0  0  0  0  0  0  0  0  0
   41.9620   29.0170   42.5470 O   0  0  0  0  0  0  0  0  0  0  0  0
   42.1530   28.4480   43.3330 H   0  0  0  0  0  0  0  0  0  0  0  0
  1  2  1  0  0  0  0
  2 11  1  0  0  0  0
  2  3  2  0  0  0  0
  3  7  1  0  0  0  0
  4  8  1  0  0  0  0
  4  3  1  0  0  0  0
  5  4  2  0  0  0  0
  6  1  2  0  0  0  0
  6  5  1  0  0  0  0
  9  5  1  0  0  0  0
 10 15  2  0  0  0  0
 10 11  1  0  0  0  0
 11 12  2  0  0  0  0
 12 13  1  0  0  0  0
 12 18  1  0  0  0  0
 14 17  1  0  0  0  0
 14 13  2  0  0  0  0
 15 14  1  0  0  0  0
 16 10  1  0  0  0  0
 18 20  1  0  0  0  0
 18 21  1  0  0  0  0
 19 18  1  0  0  0  0
 22 23  1  0  0  0  0
 22  1  1  0  0  0  0
 24  6  1  0  0  0  0
 25 34  1  0  0  0  0
 25 26  1  0  0  0  0
 26 24  1  0  0  0  0
 27 26  2  0  0  0  0
 27 35  1  0  0  0  0
 28 27  1  0  0  0  0
 29 36  1  0  0  0  0
 29 28  1  0  0  0  0
 30 29  1  0  0  0  0
 31 30  2  0  0  0  0
 31 32  1  0  0  0  0
 32 33  1  0  0  0  0
 32 28  2  0  0  0  0
 33 25  2  0  0  0  0
 37 30  1  0  0  0  0
 38 43  1  1  0  0  0
 38 42  1  0  0  0  0
 38 39  1  0  0  0  0
 39 40  1  0  0  0  0
 39 33  1  1  0  0  0
 41 40  1  0  0  0  0
 42 41  1  0  0  0  0
 42 45  1  1  0  0  0
 43 44  1  0  0  0  0
 45 46  1  0  0  0  0
M  END
>  <minimizedAffinity>
-7.82684565

>  <minimizedRMSD>
1.81108451

$$$$
