
 OpenBabel03272508533D

 38 41  0  0  1  0  0  0  0  0999 V2000
   38.4010   31.8490   44.5500 C   0  0  0  0  0  0  0  0  0  0  0  0
   37.3020   32.4490   44.4370 O   0  0  0  0  0  0  0  0  0  0  0  0
   38.9310   31.5520   45.8560 N   0  0  0  0  0  0  0  0  0  0  0  0
   39.8970   31.2410   46.0180 H   0  0  0  0  0  0  0  0  0  0  0  0
   39.1750   31.4350   43.3650 C   0  0  0  0  0  0  0  0  0  0  0  0
   40.1810   30.5220   43.5310 C   0  0  0  0  0  0  0  0  0  0  0  0
   40.9010   30.1470   42.4080 C   0  0  0  0  0  0  0  0  0  0  0  0
   40.5640   30.7100   41.1970 C   0  0  0  0  0  0  0  0  0  0  0  0
   39.5350   31.6440   41.0270 C   0  0  0  0  0  0  0  0  0  0  0  0
   38.8730   31.9660   42.1600 N   0  0  0  0  0  0  0  0  0  0  0  0
   40.4530   30.0770   44.4690 H   0  0  0  0  0  0  0  0  0  0  0  0
   41.7000   29.4390   42.4650 H   0  0  0  0  0  0  0  0  0  0  0  0
   41.1040   30.4420   40.2980 H   0  0  0  0  0  0  0  0  0  0  0  0
   37.9050   31.7800   39.1430 C   0  0  1  0  0  3  0  0  0  0  0  0
   39.2350   32.2000   39.7020 C   0  0  2  0  0  3  0  0  0  0  0  0
   40.1950   31.8810   38.7530 O   0  0  0  0  0  0  0  0  0  0  0  0
   39.7270   30.8160   38.0220 C   0  0  0  0  0  2  0  0  0  0  0  0
   38.2300   30.8590   38.0090 C   0  0  2  0  0  3  0  0  0  0  0  0
   37.2010   31.0470   40.1070 O   0  0  0  0  0  0  0  0  0  0  0  0
   37.2990   30.0580   39.9750 H   0  0  0  0  0  0  0  0  0  0  0  0
   37.7210   31.3320   36.7870 O   0  0  0  0  0  0  0  0  0  0  0  0
   38.4880   31.6230   36.2160 H   0  0  0  0  0  0  0  0  0  0  0  0
   38.4080   31.1010   48.2480 C   0  0  2  0  0  0  0  0  0  0  0  0
   38.6740   32.5460   48.1390 C   0  0  0  0  0  0  0  0  0  0  0  0
   38.0420   31.7090   46.9940 C   0  0  1  0  0  0  0  0  0  0  0  0
   39.3420   30.4930   48.3400 H   0  0  0  0  0  0  0  0  0  0  0  0
   37.9970   33.3050   48.5390 H   0  0  0  0  0  0  0  0  0  0  0  0
   39.7040   32.9050   48.0000 H   0  0  0  0  0  0  0  0  0  0  0  0
   36.9730   31.9250   46.7850 H   0  0  0  0  0  0  0  0  0  0  0  0
   35.0780   30.1910   49.5730 C   0  0  0  0  0  0  0  0  0  0  0  0
   35.4030   29.5600   50.8150 C   0  0  0  0  0  0  0  0  0  0  0  0
   36.8030   29.4730   51.1650 C   0  0  0  0  0  0  0  0  0  0  0  0
   37.7230   29.9840   50.3180 N   0  0  0  0  0  0  0  0  0  0  0  0
   37.3420   30.5720   49.1510 C   0  0  0  0  0  0  0  0  0  0  0  0
   36.0270   30.6920   48.7510 N   0  0  0  0  0  0  0  0  0  0  0  0
   34.0220   30.2270   49.3650 H   0  0  0  0  0  0  0  0  0  0  0  0
   34.6470   29.1700   51.4540 H   0  0  0  0  0  0  0  0  0  0  0  0
   37.0800   29.0050   52.0900 H   0  0  0  0  0  0  0  0  0  0  0  0
  1  3  1  0  0  0  0
  2  1  2  0  0  0  0
  3  4  1  0  0  0  0
  3 25  1  0  0  0  0
  5  6  1  0  0  0  0
  5  1  1  0  0  0  0
  6 11  1  0  0  0  0
  7 12  1  0  0  0  0
  7  6  2  0  0  0  0
  8  7  1  0  0  0  0
  9  8  2  0  0  0  0
  9 10  1  0  0  0  0
 10  5  2  0  0  0  0
 13  8  1  0  0  0  0
 14 15  1  0  0  0  0
 14 19  1  1  0  0  0
 15  9  1  1  0  0  0
 16 15  1  0  0  0  0
 17 16  1  0  0  0  0
 18 21  1  6  0  0  0
 18 17  1  0  0  0  0
 18 14  1  0  0  0  0
 20 19  1  0  0  0  0
 22 21  1  0  0  0  0
 23 26  1  6  0  0  0
 23 34  1  0  0  0  0
 24 23  1  0  0  0  0
 24 27  1  0  0  0  0
 25 29  1  6  0  0  0
 25 24  1  0  0  0  0
 25 23  1  0  0  0  0
 28 24  1  0  0  0  0
 30 31  1  0  0  0  0
 31 32  2  0  0  0  0
 31 37  1  0  0  0  0
 32 38  1  0  0  0  0
 33 32  1  0  0  0  0
 34 33  2  0  0  0  0
 35 34  1  0  0  0  0
 35 30  2  0  0  0  0
 36 30  1  0  0  0  0
M  END
>  <minimizedAffinity>
-5.1421752

>  <minimizedRMSD>
0.663403809

$$$$
