
 OpenBabel03272509503D

 33 35  0  0  1  0  0  0  0  0999 V2000
   37.0080   30.1180   51.0450 C   0  0  0  0  0  0  0  0  0  0  0  0
   37.4800   30.7640   49.8930 C   0  0  0  0  0  0  0  0  0  0  0  0
   36.8650   30.4770   48.6870 C   0  0  0  0  0  0  0  0  0  0  0  0
   35.8360   29.5870   48.6760 N   0  0  0  0  0  0  0  0  0  0  0  0
   35.4000   28.9780   49.7980 C   0  0  0  0  0  0  0  0  0  0  0  0
   36.0030   29.2600   50.9720 N   0  0  0  0  0  0  0  0  0  0  0  0
   37.5180   30.3720   51.9630 H   0  0  0  0  0  0  0  0  0  0  0  0
   38.2960   31.4680   49.9100 H   0  0  0  0  0  0  0  0  0  0  0  0
   38.7280   30.8470   47.0640 C   0  0  1  0  0  3  0  0  0  0  0  0
   37.2960   31.1180   47.3940 C   0  0  1  0  0  3  0  0  0  0  0  0
   36.5870   30.4820   46.3570 O   0  0  0  0  0  0  0  0  0  0  0  0
   37.2030   30.9220   45.2040 C   0  0  0  0  0  2  0  0  0  0  0  0
   38.6740   30.8620   45.5320 C   0  0  2  0  0  3  0  0  0  0  0  0
   39.4660   31.9520   47.4700 O   0  0  0  0  0  0  0  0  0  0  0  0
   38.8950   32.7620   47.3040 H   0  0  0  0  0  0  0  0  0  0  0  0
   39.2180   29.7200   44.9940 O   0  0  0  0  0  0  0  0  0  0  0  0
   40.1480   29.5870   45.3280 H   0  0  0  0  0  0  0  0  0  0  0  0
   34.3630   28.1220   49.5830 O   0  0  0  0  0  0  0  0  0  0  0  0
   33.5700   28.3220   48.4070 C   0  0  0  0  0  0  0  0  0  0  0  0
   34.1900   28.4530   47.5170 H   0  0  0  0  0  0  0  0  0  0  0  0
   33.0120   29.2720   48.6240 H   0  0  0  0  0  0  0  0  0  0  0  0
   32.5210   27.2500   48.3040 C   0  0  0  0  0  0  0  0  0  0  0  0
   32.6250   26.7440   47.3230 H   0  0  0  0  0  0  0  0  0  0  0  0
   32.6380   26.4630   49.0760 H   0  0  0  0  0  0  0  0  0  0  0  0
   31.1410   27.8100   48.3110 C   0  0  0  0  0  0  0  0  0  0  0  0
   30.4500   27.7440   49.4960 C   0  0  0  0  0  0  0  0  0  0  0  0
   29.1580   28.2350   49.6140 C   0  0  0  0  0  0  0  0  0  0  0  0
   28.5800   28.7850   48.5470 N   0  0  0  0  0  0  0  0  0  0  0  0
   29.2670   28.8460   47.3830 C   0  0  0  0  0  0  0  0  0  0  0  0
   30.5210   28.3720   47.2550 N   0  0  0  0  0  0  0  0  0  0  0  0
   30.8980   27.3030   50.3770 H   0  0  0  0  0  0  0  0  0  0  0  0
   28.6450   28.1640   50.5680 H   0  0  0  0  0  0  0  0  0  0  0  0
   28.7430   29.3010   46.5610 H   0  0  0  0  0  0  0  0  0  0  0  0
  1  7  1  0  0  0  0
  2  8  1  0  0  0  0
  2  1  2  0  0  0  0
  3  2  1  0  0  0  0
  4  3  2  0  0  0  0
  4  5  1  0  0  0  0
  5  6  2  0  0  0  0
  6  1  1  0  0  0  0
  9 10  1  0  0  0  0
  9 14  1  1  0  0  0
 10  3  1  1  0  0  0
 11 10  1  0  0  0  0
 12 13  1  0  0  0  0
 12 11  1  0  0  0  0
 13 16  1  6  0  0  0
 13  9  1  0  0  0  0
 15 14  1  0  0  0  0
 16 17  1  0  0  0  0
 18  5  1  0  0  0  0
 19 21  1  0  0  0  0
 19 18  1  0  0  0  0
 20 19  1  0  0  0  0
 22 25  1  0  0  0  0
 22 19  1  0  0  0  0
 22 24  1  0  0  0  0
 23 22  1  0  0  0  0
 25 26  1  0  0  0  0
 26 27  2  0  0  0  0
 26 31  1  0  0  0  0
 27 32  1  0  0  0  0
 28 27  1  0  0  0  0
 29 28  2  0  0  0  0
 30 29  1  0  0  0  0
 30 25  2  0  0  0  0
 33 29  1  0  0  0  0
M  END
>  <minimizedAffinity>
-5.57377052

>  <minimizedRMSD>
0.76020354

$$$$
