
 OpenBabel03272508043D

 35 38  0  0  1  0  0  0  0  0999 V2000
   38.8890   30.8890   45.7750 C   0  0  0  0  0  0  0  0  0  0  0  0
   40.1150   31.4280   46.0570 C   0  0  0  0  0  0  0  0  0  0  0  0
   40.9380   31.3960   44.9400 C   0  0  0  0  0  0  0  0  0  0  0  0
   40.1470   30.8170   43.9890 N   0  0  0  0  0  0  0  0  0  0  0  0
   38.9620   30.5240   44.4720 N   0  0  0  0  0  0  0  0  0  0  0  0
   40.4430   31.8350   47.0100 H   0  0  0  0  0  0  0  0  0  0  0  0
   41.9490   31.7240   44.7860 H   0  0  0  0  0  0  0  0  0  0  0  0
   37.7510   30.7340   46.6610 C   0  0  0  0  0  0  0  0  0  0  0  0
   37.9680   30.9630   48.0460 C   0  0  0  0  0  0  0  0  0  0  0  0
   36.8830   30.8160   48.9060 C   0  0  0  0  0  0  0  0  0  0  0  0
   35.6870   30.4640   48.3710 N   0  0  0  0  0  0  0  0  0  0  0  0
   35.5090   30.2520   47.0460 C   0  0  0  0  0  0  0  0  0  0  0  0
   36.5530   30.3910   46.2040 N   0  0  0  0  0  0  0  0  0  0  0  0
   38.9170   31.2430   48.4740 H   0  0  0  0  0  0  0  0  0  0  0  0
   34.5220   29.9700   46.6670 H   0  0  0  0  0  0  0  0  0  0  0  0
   37.0960   31.0540   50.3690 C   0  0  0  0  0  0  0  0  0  0  0  0
   36.5670   32.2900   50.6190 F   0  0  0  0  0  0  0  0  0  0  0  0
   36.4200   30.1120   51.1480 F   0  0  0  0  0  0  0  0  0  0  0  0
   38.4410   31.0430   50.7050 F   0  0  0  0  0  0  0  0  0  0  0  0
   40.4870   30.5310   42.6010 C   0  0  0  0  0  0  0  0  0  0  0  0
   40.0320   31.3550   41.5580 C   0  0  0  0  0  0  0  0  0  0  0  0
   40.3960   31.0380   40.2830 C   0  0  0  0  0  0  0  0  0  0  0  0
   41.2160   29.8940   40.0430 C   0  0  0  0  0  0  0  0  0  0  0  0
   41.4730   29.2450   41.7590 S   0  0  0  0  0  0  0  0  0  0  0  0
   39.4100   32.2270   41.7000 H   0  0  0  0  0  0  0  0  0  0  0  0
   40.1550   31.5360   39.3570 H   0  0  0  0  0  0  0  0  0  0  0  0
   42.9020   30.0510   38.3430 C   0  0  2  0  0  3  0  0  0  0  0  0
   41.7830   29.2540   38.9370 C   0  0  1  0  0  3  0  0  0  0  0  0
   42.4350   28.0700   39.3530 O   0  0  0  0  0  0  0  0  0  0  0  0
   43.1370   27.6630   38.2150 C   0  0  0  0  0  2  0  0  0  0  0  0
   43.7600   28.9400   37.7300 C   0  0  2  0  0  3  0  0  0  0  0  0
   43.6400   30.6130   39.3780 O   0  0  0  0  0  0  0  0  0  0  0  0
   44.1620   31.4040   39.0930 H   0  0  0  0  0  0  0  0  0  0  0  0
   45.0940   29.0590   38.0700 O   0  0  0  0  0  0  0  0  0  0  0  0
   45.3970   28.4480   38.7780 H   0  0  0  0  0  0  0  0  0  0  0  0
  1  2  1  0  0  0  0
  1  8  1  0  0  0  0
  2  6  1  0  0  0  0
  3  2  2  0  0  0  0
  4  5  1  0  0  0  0
  4  3  1  0  0  0  0
  5  1  2  0  0  0  0
  7  3  1  0  0  0  0
  8  9  1  0  0  0  0
  9 14  1  0  0  0  0
  9 10  2  0  0  0  0
 10 16  1  0  0  0  0
 11 10  1  0  0  0  0
 12 11  2  0  0  0  0
 13  8  2  0  0  0  0
 13 12  1  0  0  0  0
 15 12  1  0  0  0  0
 16 17  1  0  0  0  0
 16 19  1  0  0  0  0
 16 18  1  0  0  0  0
 20  4  1  0  0  0  0
 21 25  1  0  0  0  0
 21 20  2  0  0  0  0
 22 21  1  0  0  0  0
 23 22  2  0  0  0  0
 23 24  1  0  0  0  0
 24 20  1  0  0  0  0
 26 22  1  0  0  0  0
 27 28  1  0  0  0  0
 27 32  1  1  0  0  0
 28 29  1  0  0  0  0
 28 23  1  1  0  0  0
 30 29  1  0  0  0  0
 31 34  1  1  0  0  0
 31 30  1  0  0  0  0
 31 27  1  0  0  0  0
 33 32  1  0  0  0  0
 34 35  1  0  0  0  0
M  END
>  <minimizedAffinity>
-6.69703484

>  <minimizedRMSD>
0.789599895

$$$$
