
 OpenBabel03272508053D

 35 38  0  0  1  0  0  0  0  0999 V2000
   38.9000   30.8940   45.7710 C   0  0  0  0  0  0  0  0  0  0  0  0
   40.1300   31.4310   46.0390 C   0  0  0  0  0  0  0  0  0  0  0  0
   40.9420   31.3950   44.9150 C   0  0  0  0  0  0  0  0  0  0  0  0
   40.1410   30.8150   43.9730 N   0  0  0  0  0  0  0  0  0  0  0  0
   38.9600   30.5250   44.4680 N   0  0  0  0  0  0  0  0  0  0  0  0
   40.4670   31.8410   46.9880 H   0  0  0  0  0  0  0  0  0  0  0  0
   41.9520   31.7210   44.7510 H   0  0  0  0  0  0  0  0  0  0  0  0
   37.7700   30.7430   46.6670 C   0  0  0  0  0  0  0  0  0  0  0  0
   38.0000   30.9770   48.0500 C   0  0  0  0  0  0  0  0  0  0  0  0
   36.9230   30.8350   48.9200 C   0  0  0  0  0  0  0  0  0  0  0  0
   35.7220   30.4810   48.3970 N   0  0  0  0  0  0  0  0  0  0  0  0
   35.5320   30.2640   47.0740 C   0  0  0  0  0  0  0  0  0  0  0  0
   36.5680   30.4000   46.2220 N   0  0  0  0  0  0  0  0  0  0  0  0
   38.9540   31.2590   48.4670 H   0  0  0  0  0  0  0  0  0  0  0  0
   34.5410   29.9820   46.7060 H   0  0  0  0  0  0  0  0  0  0  0  0
   37.1490   31.0780   50.3790 C   0  0  0  0  0  0  0  0  0  0  0  0
   36.6130   32.3100   50.6320 F   0  0  0  0  0  0  0  0  0  0  0  0
   36.4900   30.1320   51.1680 F   0  0  0  0  0  0  0  0  0  0  0  0
   38.4980   31.0780   50.7010 F   0  0  0  0  0  0  0  0  0  0  0  0
   40.4680   30.5240   42.5830 C   0  0  0  0  0  0  0  0  0  0  0  0
   40.0190   31.3560   41.5430 C   0  0  0  0  0  0  0  0  0  0  0  0
   40.3700   31.0340   40.2650 C   0  0  0  0  0  0  0  0  0  0  0  0
   41.1700   29.8770   40.0200 C   0  0  0  0  0  0  0  0  0  0  0  0
   41.4290   29.2240   41.7340 S   0  0  0  0  0  0  0  0  0  0  0  0
   39.4110   32.2370   41.6890 H   0  0  0  0  0  0  0  0  0  0  0  0
   40.1300   31.5350   39.3410 H   0  0  0  0  0  0  0  0  0  0  0  0
   42.8700   29.9920   38.3290 C   0  0  2  0  0  3  0  0  0  0  0  0
   41.7200   29.2290   38.9100 C   0  0  1  0  0  3  0  0  0  0  0  0
   42.3280   28.0170   39.3160 O   0  0  0  0  0  0  0  0  0  0  0  0
   43.0200   27.5970   38.1770 C   0  0  0  0  0  2  0  0  0  0  0  0
   43.6900   28.8570   37.7080 C   0  0  2  0  0  3  0  0  0  0  0  0
   43.6220   30.5160   39.3730 O   0  0  0  0  0  0  0  0  0  0  0  0
   44.1740   31.2920   39.0980 H   0  0  0  0  0  0  0  0  0  0  0  0
   45.0270   28.9250   38.0540 O   0  0  0  0  0  0  0  0  0  0  0  0
   45.3040   28.2960   38.7570 H   0  0  0  0  0  0  0  0  0  0  0  0
  1  2  1  0  0  0  0
  1  8  1  0  0  0  0
  2  6  1  0  0  0  0
  3  2  2  0  0  0  0
  4  5  1  0  0  0  0
  4  3  1  0  0  0  0
  5  1  2  0  0  0  0
  7  3  1  0  0  0  0
  8  9  1  0  0  0  0
  9 14  1  0  0  0  0
  9 10  2  0  0  0  0
 10 16  1  0  0  0  0
 11 10  1  0  0  0  0
 12 11  2  0  0  0  0
 13  8  2  0  0  0  0
 13 12  1  0  0  0  0
 15 12  1  0  0  0  0
 16 17  1  0  0  0  0
 16 19  1  0  0  0  0
 16 18  1  0  0  0  0
 20  4  1  0  0  0  0
 21 25  1  0  0  0  0
 21 20  2  0  0  0  0
 22 21  1  0  0  0  0
 23 22  2  0  0  0  0
 23 24  1  0  0  0  0
 24 20  1  0  0  0  0
 26 22  1  0  0  0  0
 27 28  1  0  0  0  0
 27 32  1  1  0  0  0
 28 29  1  0  0  0  0
 28 23  1  1  0  0  0
 30 29  1  0  0  0  0
 31 34  1  1  0  0  0
 31 30  1  0  0  0  0
 31 27  1  0  0  0  0
 33 32  1  0  0  0  0
 34 35  1  0  0  0  0
M  END
>  <minimizedAffinity>
-6.69084501

>  <minimizedRMSD>
0.775633335

$$$$
