
 OpenBabel03272509033D

 33 35  0  0  1  0  0  0  0  0999 V2000
   37.3890   30.6710   50.9970 C   0  0  0  0  0  0  0  0  0  0  0  0
   38.1930   30.9380   49.8680 C   0  0  0  0  0  0  0  0  0  0  0  0
   37.8050   30.3520   48.6440 C   0  0  0  0  0  0  0  0  0  0  0  0
   36.6830   29.5670   48.6220 N   0  0  0  0  0  0  0  0  0  0  0  0
   35.9630   29.3560   49.7410 C   0  0  0  0  0  0  0  0  0  0  0  0
   36.3020   29.8980   50.9310 N   0  0  0  0  0  0  0  0  0  0  0  0
   37.7510   31.1550   51.9010 H   0  0  0  0  0  0  0  0  0  0  0  0
   39.0700   31.5470   49.8670 H   0  0  0  0  0  0  0  0  0  0  0  0
   37.8240   30.6460   46.2000 C   0  0  1  0  0  3  0  0  0  0  0  0
   38.6320   30.6170   47.4430 C   0  0  1  0  0  3  0  0  0  0  0  0
   39.3470   31.7930   47.5340 O   0  0  0  0  0  0  0  0  0  0  0  0
   38.7130   32.7520   46.7740 C   0  0  0  0  0  2  0  0  0  0  0  0
   37.6670   32.1200   45.9250 C   0  0  1  0  0  3  0  0  0  0  0  0
   38.4800   30.0320   45.1410 O   0  0  0  0  0  0  0  0  0  0  0  0
   38.2310   30.5330   44.3210 H   0  0  0  0  0  0  0  0  0  0  0  0
   37.8300   32.4030   44.5750 O   0  0  0  0  0  0  0  0  0  0  0  0
   37.6600   33.3510   44.4190 H   0  0  0  0  0  0  0  0  0  0  0  0
   34.8100   28.5010   49.5830 C   0  0  0  0  0  3  0  0  0  0  0  0
   34.4220   28.1650   48.4030 C   0  0  0  0  0  3  0  0  0  0  0  0
   33.3020   27.3090   47.9890 C   0  0  0  0  0  0  0  0  0  0  0  0
   32.8680   26.8420   48.9050 H   0  0  0  0  0  0  0  0  0  0  0  0
   32.4920   27.8890   47.5250 H   0  0  0  0  0  0  0  0  0  0  0  0
   33.7050   26.2250   47.0350 C   0  0  0  0  0  0  0  0  0  0  0  0
   33.8950   24.8950   47.3770 C   0  0  0  0  0  0  0  0  0  0  0  0
   34.2670   23.9860   46.3950 C   0  0  0  0  0  0  0  0  0  0  0  0
   34.4560   24.3790   45.0710 C   0  0  0  0  0  0  0  0  0  0  0  0
   34.2660   25.7080   44.7340 C   0  0  0  0  0  0  0  0  0  0  0  0
   33.8940   26.6180   45.7170 C   0  0  0  0  0  0  0  0  0  0  0  0
   33.7370   24.6440   48.4140 H   0  0  0  0  0  0  0  0  0  0  0  0
   34.4000   22.9660   46.7180 H   0  0  0  0  0  0  0  0  0  0  0  0
   34.7440   23.5920   44.3910 H   0  0  0  0  0  0  0  0  0  0  0  0
   34.4200   25.9780   43.7040 H   0  0  0  0  0  0  0  0  0  0  0  0
   33.7710   27.6250   45.3570 H   0  0  0  0  0  0  0  0  0  0  0  0
  1  7  1  0  0  0  0
  2  1  2  0  0  0  0
  3  2  1  0  0  0  0
  4  3  2  0  0  0  0
  4  5  1  0  0  0  0
  5  6  2  0  0  0  0
  6  1  1  0  0  0  0
  8  2  1  0  0  0  0
  9 14  1  6  0  0  0
  9 10  1  0  0  0  0
 10 11  1  0  0  0  0
 10  3  1  1  0  0  0
 12 11  1  0  0  0  0
 13 16  1  6  0  0  0
 13  9  1  0  0  0  0
 13 12  1  0  0  0  0
 15 14  1  0  0  0  0
 17 16  1  0  0  0  0
 18  5  1  0  0  0  0
 19 18  2  0  0  0  0
 20 19  1  0  0  0  0
 20 21  1  0  0  0  0
 22 20  1  0  0  0  0
 23 24  1  0  0  0  0
 23 20  1  0  0  0  0
 24 29  1  0  0  0  0
 25 30  1  0  0  0  0
 25 24  2  0  0  0  0
 26 25  1  0  0  0  0
 27 26  2  0  0  0  0
 27 28  1  0  0  0  0
 28 23  2  0  0  0  0
 31 26  1  0  0  0  0
 32 27  1  0  0  0  0
 33 28  1  0  0  0  0
M  END
>  <minimizedAffinity>
-5.2249217

>  <minimizedRMSD>
1.22838879

$$$$
