
 OpenBabel03272508053D

 35 38  0  0  1  0  0  0  0  0999 V2000
   38.9070   30.9120   45.7850 C   0  0  0  0  0  0  0  0  0  0  0  0
   40.0920   31.5540   46.0270 C   0  0  0  0  0  0  0  0  0  0  0  0
   40.9260   31.4860   44.9210 C   0  0  0  0  0  0  0  0  0  0  0  0
   40.1870   30.7780   44.0170 N   0  0  0  0  0  0  0  0  0  0  0  0
   39.0190   30.4460   44.5170 N   0  0  0  0  0  0  0  0  0  0  0  0
   40.3810   32.0610   46.9440 H   0  0  0  0  0  0  0  0  0  0  0  0
   41.9150   31.8680   44.7450 H   0  0  0  0  0  0  0  0  0  0  0  0
   37.7730   30.7540   46.6740 C   0  0  0  0  0  0  0  0  0  0  0  0
   37.9950   30.9800   48.0590 C   0  0  0  0  0  0  0  0  0  0  0  0
   36.9130   30.8310   48.9230 C   0  0  0  0  0  0  0  0  0  0  0  0
   35.7170   30.4770   48.3920 N   0  0  0  0  0  0  0  0  0  0  0  0
   35.5340   30.2670   47.0670 C   0  0  0  0  0  0  0  0  0  0  0  0
   36.5740   30.4100   46.2210 N   0  0  0  0  0  0  0  0  0  0  0  0
   38.9460   31.2620   48.4830 H   0  0  0  0  0  0  0  0  0  0  0  0
   34.5460   29.9850   46.6920 H   0  0  0  0  0  0  0  0  0  0  0  0
   37.1310   31.0660   50.3850 C   0  0  0  0  0  0  0  0  0  0  0  0
   36.5990   32.3000   50.6400 F   0  0  0  0  0  0  0  0  0  0  0  0
   36.4630   30.1200   51.1650 F   0  0  0  0  0  0  0  0  0  0  0  0
   38.4780   31.0600   50.7160 F   0  0  0  0  0  0  0  0  0  0  0  0
   40.5610   30.4020   42.6600 C   0  0  0  0  0  0  0  0  0  0  0  0
   40.2100   31.2050   41.5620 C   0  0  0  0  0  0  0  0  0  0  0  0
   40.6000   30.8020   40.3190 C   0  0  0  0  0  0  0  0  0  0  0  0
   41.3430   29.5920   40.1670 C   0  0  0  0  0  0  0  0  0  0  0  0
   41.4820   29.0100   41.9200 S   0  0  0  0  0  0  0  0  0  0  0  0
   39.6480   32.1250   41.6370 H   0  0  0  0  0  0  0  0  0  0  0  0
   40.4330   31.2700   39.3620 H   0  0  0  0  0  0  0  0  0  0  0  0
   41.2050   29.1150   37.8180 C   0  0  2  0  0  3  0  0  0  0  0  0
   41.9050   28.8610   39.1170 C   0  0  1  0  0  3  0  0  0  0  0  0
   43.2150   29.3270   38.8560 O   0  0  0  0  0  0  0  0  0  0  0  0
   43.5640   28.6840   37.6660 C   0  0  0  0  0  2  0  0  0  0  0  0
   42.3360   28.8550   36.8200 C   0  0  2  0  0  3  0  0  0  0  0  0
   40.8950   30.4680   37.7440 O   0  0  0  0  0  0  0  0  0  0  0  0
   40.1550   30.6600   37.1140 H   0  0  0  0  0  0  0  0  0  0  0  0
   42.4550   29.8680   35.8860 O   0  0  0  0  0  0  0  0  0  0  0  0
   43.1900   30.4980   36.0510 H   0  0  0  0  0  0  0  0  0  0  0  0
  1  2  1  0  0  0  0
  1  8  1  0  0  0  0
  2  6  1  0  0  0  0
  3  2  2  0  0  0  0
  4  5  1  0  0  0  0
  4  3  1  0  0  0  0
  5  1  2  0  0  0  0
  7  3  1  0  0  0  0
  8  9  1  0  0  0  0
  9 14  1  0  0  0  0
  9 10  2  0  0  0  0
 10 16  1  0  0  0  0
 11 10  1  0  0  0  0
 12 11  2  0  0  0  0
 13  8  2  0  0  0  0
 13 12  1  0  0  0  0
 15 12  1  0  0  0  0
 16 17  1  0  0  0  0
 16 19  1  0  0  0  0
 16 18  1  0  0  0  0
 20  4  1  0  0  0  0
 21 25  1  0  0  0  0
 21 20  2  0  0  0  0
 22 21  1  0  0  0  0
 23 22  2  0  0  0  0
 23 24  1  0  0  0  0
 24 20  1  0  0  0  0
 26 22  1  0  0  0  0
 27 32  1  1  0  0  0
 27 28  1  0  0  0  0
 28 23  1  1  0  0  0
 29 28  1  0  0  0  0
 30 29  1  0  0  0  0
 31 34  1  6  0  0  0
 31 30  1  0  0  0  0
 31 27  1  0  0  0  0
 33 32  1  0  0  0  0
 34 35  1  0  0  0  0
M  END
>  <minimizedAffinity>
-6.31425381

>  <minimizedRMSD>
0.0666516647

$$$$
