
 OpenBabel03272508053D

 35 38  0  0  1  0  0  0  0  0999 V2000
   38.8930   30.9120   45.7950 C   0  0  0  0  0  0  0  0  0  0  0  0
   40.0750   31.5540   46.0460 C   0  0  0  0  0  0  0  0  0  0  0  0
   40.9170   31.4900   44.9440 C   0  0  0  0  0  0  0  0  0  0  0  0
   40.1830   30.7840   44.0340 N   0  0  0  0  0  0  0  0  0  0  0  0
   39.0120   30.4500   44.5260 N   0  0  0  0  0  0  0  0  0  0  0  0
   40.3590   32.0580   46.9660 H   0  0  0  0  0  0  0  0  0  0  0  0
   41.9060   31.8740   44.7760 H   0  0  0  0  0  0  0  0  0  0  0  0
   37.7530   30.7500   46.6770 C   0  0  0  0  0  0  0  0  0  0  0  0
   37.9680   30.9710   48.0640 C   0  0  0  0  0  0  0  0  0  0  0  0
   36.8810   30.8180   48.9210 C   0  0  0  0  0  0  0  0  0  0  0  0
   35.6870   30.4670   48.3810 N   0  0  0  0  0  0  0  0  0  0  0  0
   35.5120   30.2620   47.0540 C   0  0  0  0  0  0  0  0  0  0  0  0
   36.5570   30.4080   46.2150 N   0  0  0  0  0  0  0  0  0  0  0  0
   38.9160   31.2500   48.4950 H   0  0  0  0  0  0  0  0  0  0  0  0
   34.5260   29.9810   46.6720 H   0  0  0  0  0  0  0  0  0  0  0  0
   37.0910   31.0470   50.3850 C   0  0  0  0  0  0  0  0  0  0  0  0
   36.5670   32.2840   50.6400 F   0  0  0  0  0  0  0  0  0  0  0  0
   36.4090   30.1040   51.1570 F   0  0  0  0  0  0  0  0  0  0  0  0
   38.4350   31.0280   50.7250 F   0  0  0  0  0  0  0  0  0  0  0  0
   40.5650   30.4120   42.6780 C   0  0  0  0  0  0  0  0  0  0  0  0
   40.1820   31.1960   41.5760 C   0  0  0  0  0  0  0  0  0  0  0  0
   40.5830   30.7980   40.3340 C   0  0  0  0  0  0  0  0  0  0  0  0
   41.3670   29.6140   40.1880 C   0  0  0  0  0  0  0  0  0  0  0  0
   41.5320   29.0490   41.9440 S   0  0  0  0  0  0  0  0  0  0  0  0
   39.5890   32.0960   41.6480 H   0  0  0  0  0  0  0  0  0  0  0  0
   40.3960   31.2540   39.3750 H   0  0  0  0  0  0  0  0  0  0  0  0
   41.3520   27.5310   38.9950 C   0  0  2  0  0  3  0  0  0  0  0  0
   41.9510   28.8960   39.1400 C   0  0  1  0  0  3  0  0  0  0  0  0
   41.6320   29.5060   37.9040 O   0  0  0  0  0  0  0  0  0  0  0  0
   42.0720   28.5790   36.9550 C   0  0  0  0  0  2  0  0  0  0  0  0
   41.5680   27.2740   37.5010 C   0  0  2  0  0  3  0  0  0  0  0  0
   39.9810   27.6290   39.2000 O   0  0  0  0  0  0  0  0  0  0  0  0
   39.5670   26.7680   39.4600 H   0  0  0  0  0  0  0  0  0  0  0  0
   40.4190   26.8290   36.8740 O   0  0  0  0  0  0  0  0  0  0  0  0
   39.9430   27.5110   36.3490 H   0  0  0  0  0  0  0  0  0  0  0  0
  1  2  1  0  0  0  0
  1  8  1  0  0  0  0
  2  6  1  0  0  0  0
  3  2  2  0  0  0  0
  4  5  1  0  0  0  0
  4  3  1  0  0  0  0
  5  1  2  0  0  0  0
  7  3  1  0  0  0  0
  8  9  1  0  0  0  0
  9 14  1  0  0  0  0
  9 10  2  0  0  0  0
 10 16  1  0  0  0  0
 11 10  1  0  0  0  0
 12 11  2  0  0  0  0
 13  8  2  0  0  0  0
 13 12  1  0  0  0  0
 15 12  1  0  0  0  0
 16 17  1  0  0  0  0
 16 19  1  0  0  0  0
 16 18  1  0  0  0  0
 20  4  1  0  0  0  0
 21 25  1  0  0  0  0
 21 20  2  0  0  0  0
 22 21  1  0  0  0  0
 23 22  2  0  0  0  0
 23 24  1  0  0  0  0
 24 20  1  0  0  0  0
 26 22  1  0  0  0  0
 27 28  1  0  0  0  0
 27 32  1  6  0  0  0
 28 23  1  1  0  0  0
 29 28  1  0  0  0  0
 30 31  1  0  0  0  0
 30 29  1  0  0  0  0
 31 34  1  6  0  0  0
 31 27  1  0  0  0  0
 32 33  1  0  0  0  0
 35 34  1  0  0  0  0
M  END
>  <minimizedAffinity>
-6.29720068

>  <minimizedRMSD>
0.118623659

$$$$
