
 OpenBabel03272502153D

 32 34  0  0  1  0  0  0  0  0999 V2000
   33.0820   29.6510   47.6620 N   0  0  0  0  0  0  0  0  0  0  0  0
   34.3380   30.2230   47.2300 C   0  0  2  0  0  0  0  0  0  0  0  0
   34.7050   29.6110   45.9020 C   0  0  0  0  0  0  0  0  0  0  0  0
   33.5860   28.9960   45.3030 O   0  0  0  0  0  0  0  0  0  0  0  0
   33.3500   27.8540   46.0970 C   0  0  0  0  0  0  0  0  0  0  0  0
   33.1820   28.2180   47.5520 C   0  0  2  0  0  0  0  0  0  0  0  0
   32.7310   30.0060   48.5610 H   0  0  0  0  0  0  0  0  0  0  0  0
   34.1900   31.3290   47.1770 H   0  0  0  0  0  0  0  0  0  0  0  0
   35.4850   28.8460   46.0820 H   0  0  0  0  0  0  0  0  0  0  0  0
   35.1420   30.3620   45.2410 H   0  0  0  0  0  0  0  0  0  0  0  0
   34.2770   27.2210   45.9810 H   0  0  0  0  0  0  0  0  0  0  0  0
   32.5300   27.2730   45.6770 H   0  0  0  0  0  0  0  0  0  0  0  0
   34.0360   27.8970   48.1580 H   0  0  0  0  0  0  0  0  0  0  0  0
   30.6990   28.0740   47.1860 C   0  0  1  0  0  0  0  0  0  0  0  0
   31.8730   27.6330   47.9820 C   0  0  2  0  0  0  0  0  0  0  0  0
   31.5380   27.9100   49.2850 O   0  0  0  0  0  0  0  0  0  0  0  0
   30.2870   27.2890   49.3830 C   0  0  0  0  0  0  0  0  0  0  0  0
   29.5690   27.9230   48.1980 C   0  0  1  0  0  0  0  0  0  0  0  0
   30.7980   29.3600   46.6910 O   0  0  0  0  0  0  0  0  0  0  0  0
   30.1780   29.4130   45.9100 H   0  0  0  0  0  0  0  0  0  0  0  0
   29.1280   29.1750   48.6480 O   0  0  0  0  0  0  0  0  0  0  0  0
   29.7370   29.5180   49.3430 H   0  0  0  0  0  0  0  0  0  0  0  0
   35.6650   29.8670   48.4420 S   0  0  0  0  0  0  0  0  0  0  0  0
   36.9710   31.0510   48.3190 C   0  0  0  0  0  0  0  0  0  0  0  0
   37.0960   31.8590   49.4690 C   0  0  0  0  0  0  0  0  0  0  0  0
   38.0880   32.8330   49.5010 C   0  0  0  0  0  0  0  0  0  0  0  0
   38.9040   32.9600   48.3990 N   0  0  0  0  0  0  0  0  0  0  0  0
   38.7600   32.1800   47.3250 C   0  0  0  0  0  0  0  0  0  0  0  0
   37.8080   31.2430   47.2900 N   0  0  0  0  0  0  0  0  0  0  0  0
   36.4700   31.7810   50.3510 H   0  0  0  0  0  0  0  0  0  0  0  0
   38.2350   33.4850   50.3570 H   0  0  0  0  0  0  0  0  0  0  0  0
   39.4080   32.2810   46.4500 H   0  0  0  0  0  0  0  0  0  0  0  0
  1  7  1  0  0  0  0
  2  8  1  6  0  0  0
  2  1  1  0  0  0  0
  2 23  1  0  0  0  0
  3  9  1  0  0  0  0
  3  2  1  0  0  0  0
  4  3  1  0  0  0  0
  4  5  1  0  0  0  0
  5  6  1  0  0  0  0
  6  1  1  0  0  0  0
  6 15  1  0  0  0  0
  6 13  1  1  0  0  0
 10  3  1  0  0  0  0
 11  5  1  0  0  0  0
 12  5  1  0  0  0  0
 14 19  1  1  0  0  0
 14 15  1  0  0  0  0
 14 18  1  0  0  0  0
 15 16  1  1  0  0  0
 16 17  1  0  0  0  0
 18 21  1  1  0  0  0
 18 17  1  0  0  0  0
 20 19  1  0  0  0  0
 21 22  1  0  0  0  0
 24 23  1  0  0  0  0
 24 25  1  0  0  0  0
 25 26  2  0  0  0  0
 25 30  1  0  0  0  0
 26 31  1  0  0  0  0
 27 26  1  0  0  0  0
 28 27  2  0  0  0  0
 29 28  1  0  0  0  0
 29 24  2  0  0  0  0
 32 28  1  0  0  0  0
M  END
>  <minimizedAffinity>
-5.40375137

>  <minimizedRMSD>
2.5988133

$$$$
