
 OpenBabel03272509203D

 46 50  0  0  1  0  0  0  0  0999 V2000
   38.0960   31.3450   47.8040 C   0  0  0  0  0  0  0  0  0  0  0  0
   37.1020   31.3320   48.7710 C   0  0  0  0  0  0  0  0  0  0  0  0
   37.1420   32.4470   49.6270 C   0  0  0  0  0  0  0  0  0  0  0  0
   38.1010   33.4500   49.4900 C   0  0  0  0  0  0  0  0  0  0  0  0
   39.0650   33.3500   48.4650 C   0  0  0  0  0  0  0  0  0  0  0  0
   39.0500   32.2710   47.6110 C   0  0  0  0  0  0  0  0  0  0  0  0
   36.4180   32.5590   50.4280 H   0  0  0  0  0  0  0  0  0  0  0  0
   38.1040   34.2990   50.1680 H   0  0  0  0  0  0  0  0  0  0  0  0
   39.7670   34.1540   48.4190 H   0  0  0  0  0  0  0  0  0  0  0  0
   34.9960   30.3080   48.0990 C   0  0  0  0  0  0  0  0  0  0  0  0
   36.1230   30.3100   48.9120 C   0  0  0  0  0  0  0  0  0  0  0  0
   36.2460   29.2780   49.8570 C   0  0  0  0  0  0  0  0  0  0  0  0
   35.2650   28.3440   49.9220 N   0  0  0  0  0  0  0  0  0  0  0  0
   34.1790   28.3870   49.1030 C   0  0  0  0  0  0  0  0  0  0  0  0
   34.0460   29.3610   48.1990 N   0  0  0  0  0  0  0  0  0  0  0  0
   34.8880   31.0970   47.3680 H   0  0  0  0  0  0  0  0  0  0  0  0
   33.4410   27.5980   49.2240 H   0  0  0  0  0  0  0  0  0  0  0  0
   37.4350   29.2320   50.7530 C   0  0  0  0  0  0  0  0  0  0  0  0
   38.3560   29.1410   50.1410 H   0  0  0  0  0  0  0  0  0  0  0  0
   37.4720   30.0550   51.4850 H   0  0  0  0  0  0  0  0  0  0  0  0
   37.3770   28.2890   51.3280 H   0  0  0  0  0  0  0  0  0  0  0  0
   38.1390   30.2630   46.8940 O   0  0  0  0  0  0  0  0  0  0  0  0
   38.3810   29.3840   47.3090 H   0  0  0  0  0  0  0  0  0  0  0  0
   40.0160   32.2330   46.6330 O   0  0  0  0  0  0  0  0  0  0  0  0
   40.4920   31.0620   44.4870 C   0  0  0  0  0  0  0  0  0  0  0  0
   39.8330   31.9670   45.3090 C   0  0  0  0  0  0  0  0  0  0  0  0
   38.8290   32.7460   44.7640 C   0  0  0  0  0  0  0  0  0  0  0  0
   38.4780   32.6280   43.4040 C   0  0  0  0  0  0  0  0  0  0  0  0
   37.5760   33.2260   42.6070 N   0  0  0  0  0  0  0  0  0  0  0  0
   37.6610   32.7280   41.3560 C   0  0  0  0  0  0  0  0  0  0  0  0
   38.6480   31.7940   41.3890 N   0  0  0  0  0  0  0  0  0  0  0  0
   39.1560   31.7230   42.6330 C   0  0  0  0  0  0  0  0  0  0  0  0
   40.1540   30.9400   43.1500 C   0  0  0  0  0  0  0  0  0  0  0  0
   41.2590   30.5060   45.0170 H   0  0  0  0  0  0  0  0  0  0  0  0
   38.2330   33.4870   45.2770 H   0  0  0  0  0  0  0  0  0  0  0  0
   36.9100   33.9610   42.9020 H   0  0  0  0  0  0  0  0  0  0  0  0
   37.1240   32.9440   40.4650 H   0  0  0  0  0  0  0  0  0  0  0  0
   40.2710   28.6010   42.2740 C   0  0  2  0  0  3  0  0  0  0  0  0
   40.9280   29.9350   42.3540 C   0  0  1  0  0  3  0  0  0  0  0  0
   41.1150   30.4510   41.1020 O   0  0  0  0  0  0  0  0  0  0  0  0
   40.7730   29.4820   40.1710 C   0  0  0  0  0  2  0  0  0  0  0  0
   39.8210   28.5380   40.8290 C   0  0  2  0  0  3  0  0  0  0  0  0
   39.2000   28.4590   43.1520 O   0  0  0  0  0  0  0  0  0  0  0  0
   38.3770   28.6000   42.6280 H   0  0  0  0  0  0  0  0  0  0  0  0
   38.4780   28.8640   40.6670 O   0  0  0  0  0  0  0  0  0  0  0  0
   38.2960   29.3760   39.8410 H   0  0  0  0  0  0  0  0  0  0  0  0
  1  2  1  0  0  0  0
  2 11  1  0  0  0  0
  2  3  2  0  0  0  0
  3  7  1  0  0  0  0
  4  3  1  0  0  0  0
  4  8  1  0  0  0  0
  5  4  2  0  0  0  0
  6  1  2  0  0  0  0
  6  5  1  0  0  0  0
  9  5  1  0  0  0  0
 10 15  2  0  0  0  0
 10 11  1  0  0  0  0
 11 12  2  0  0  0  0
 12 13  1  0  0  0  0
 12 18  1  0  0  0  0
 14 17  1  0  0  0  0
 14 13  2  0  0  0  0
 15 14  1  0  0  0  0
 16 10  1  0  0  0  0
 18 21  1  0  0  0  0
 18 20  1  0  0  0  0
 19 18  1  0  0  0  0
 22 23  1  0  0  0  0
 22  1  1  0  0  0  0
 24  6  1  0  0  0  0
 25 34  1  0  0  0  0
 25 26  1  0  0  0  0
 26 24  1  0  0  0  0
 27 35  1  0  0  0  0
 27 26  2  0  0  0  0
 28 27  1  0  0  0  0
 29 36  1  0  0  0  0
 29 28  1  0  0  0  0
 30 31  2  0  0  0  0
 30 29  1  0  0  0  0
 31 32  1  0  0  0  0
 32 33  1  0  0  0  0
 32 28  2  0  0  0  0
 33 25  2  0  0  0  0
 37 30  1  0  0  0  0
 38 39  1  0  0  0  0
 38 43  1  1  0  0  0
 39 33  1  1  0  0  0
 40 39  1  0  0  0  0
 41 42  1  0  0  0  0
 41 40  1  0  0  0  0
 42 45  1  1  0  0  0
 42 38  1  0  0  0  0
 44 43  1  0  0  0  0
 46 45  1  0  0  0  0
M  END
>  <minimizedAffinity>
-7.75175142

>  <minimizedRMSD>
0.326467931

$$$$
