
 OpenBabel03272507573D

 32 34  0  0  1  0  0  0  0  0999 V2000
   37.0490   31.3320   48.5560 C   0  0  0  0  0  0  0  0  0  0  0  0
   37.2090   32.2980   49.5600 C   0  0  0  0  0  0  0  0  0  0  0  0
   38.1500   33.2990   49.3980 C   0  0  0  0  0  0  0  0  0  0  0  0
   38.9260   33.3370   48.2520 C   0  0  0  0  0  0  0  0  0  0  0  0
   38.7410   32.3720   47.2900 C   0  0  0  0  0  0  0  0  0  0  0  0
   37.8180   31.4020   47.4610 N   0  0  0  0  0  0  0  0  0  0  0  0
   36.6720   32.3880   50.5030 H   0  0  0  0  0  0  0  0  0  0  0  0
   38.3340   34.0800   50.1230 H   0  0  0  0  0  0  0  0  0  0  0  0
   39.6650   34.0870   48.0780 H   0  0  0  0  0  0  0  0  0  0  0  0
   35.1630   28.5720   50.2750 C   0  0  0  0  0  0  0  0  0  0  0  0
   36.1930   29.5110   49.9780 C   0  0  0  0  0  0  0  0  0  0  0  0
   36.0240   30.3620   48.8880 C   0  0  0  0  0  0  0  0  0  0  0  0
   34.8650   30.2420   48.1600 N   0  0  0  0  0  0  0  0  0  0  0  0
   33.9140   29.3310   48.4820 C   0  0  0  0  0  0  0  0  0  0  0  0
   34.0530   28.5040   49.5220 N   0  0  0  0  0  0  0  0  0  0  0  0
   32.8170   29.4050   47.5780 N   0  0  0  0  0  0  0  0  0  0  0  0
   35.2790   27.9000   51.1230 H   0  0  0  0  0  0  0  0  0  0  0  0
   32.9890   29.2750   46.5510 H   0  0  0  0  0  0  0  0  0  0  0  0
   31.8330   29.5900   47.9380 H   0  0  0  0  0  0  0  0  0  0  0  0
   37.4000   29.5470   50.8410 C   0  0  0  0  0  0  0  0  0  0  0  0
   38.5430   29.8290   50.1080 F   0  0  0  0  0  0  0  0  0  0  0  0
   37.2380   30.5190   51.7870 F   0  0  0  0  0  0  0  0  0  0  0  0
   37.6270   28.3480   51.5020 F   0  0  0  0  0  0  0  0  0  0  0  0
   38.7990   32.8900   44.8590 C   0  0  1  0  0  3  0  0  0  0  0  0
   39.5530   32.3780   46.0450 C   0  0  2  0  0  3  0  0  0  0  0  0
   39.9320   31.0700   45.6670 O   0  0  0  0  0  0  0  0  0  0  0  0
   40.5550   31.3570   44.4510 C   0  0  0  0  0  2  0  0  0  0  0  0
   39.4910   32.1320   43.7270 C   0  0  2  0  0  3  0  0  0  0  0  0
   37.4600   32.4960   44.8620 O   0  0  0  0  0  0  0  0  0  0  0  0
   37.1160   32.7300   43.9440 H   0  0  0  0  0  0  0  0  0  0  0  0
   40.0470   33.0630   42.8320 O   0  0  0  0  0  0  0  0  0  0  0  0
   40.4990   32.5710   42.1110 H   0  0  0  0  0  0  0  0  0  0  0  0
  1 12  1  0  0  0  0
  1  2  1  0  0  0  0
  2  7  1  0  0  0  0
  3  2  2  0  0  0  0
  3  8  1  0  0  0  0
  4  3  1  0  0  0  0
  5  6  1  0  0  0  0
  5  4  2  0  0  0  0
  6  1  2  0  0  0  0
  9  4  1  0  0  0  0
 10 17  1  0  0  0  0
 11 10  1  0  0  0  0
 11 20  1  0  0  0  0
 12 11  2  0  0  0  0
 13 14  2  0  0  0  0
 13 12  1  0  0  0  0
 14 15  1  0  0  0  0
 15 10  2  0  0  0  0
 16 19  1  0  0  0  0
 16 14  1  0  0  0  0
 18 16  1  0  0  0  0
 20 23  1  0  0  0  0
 20 22  1  0  0  0  0
 21 20  1  0  0  0  0
 24 29  1  1  0  0  0
 24 25  1  0  0  0  0
 25  5  1  1  0  0  0
 26 25  1  0  0  0  0
 27 26  1  0  0  0  0
 28 31  1  6  0  0  0
 28 27  1  0  0  0  0
 28 24  1  0  0  0  0
 30 29  1  0  0  0  0
 32 31  1  0  0  0  0
M  END
>  <minimizedAffinity>
-7.59253931

>  <minimizedRMSD>
1.46185637

$$$$
