
 OpenBabel03272509043D

 33 35  0  0  1  0  0  0  0  0999 V2000
   37.2380   30.1530   51.5650 C   0  0  0  0  0  0  0  0  0  0  0  0
   38.0890   30.5720   50.5190 C   0  0  0  0  0  0  0  0  0  0  0  0
   37.7060   30.2420   49.2020 C   0  0  0  0  0  0  0  0  0  0  0  0
   36.5440   29.5410   49.0140 N   0  0  0  0  0  0  0  0  0  0  0  0
   35.7810   29.1740   50.0620 C   0  0  0  0  0  0  0  0  0  0  0  0
   36.1130   29.4700   51.3370 N   0  0  0  0  0  0  0  0  0  0  0  0
   37.5990   30.4430   52.5490 H   0  0  0  0  0  0  0  0  0  0  0  0
   38.9970   31.1180   50.6460 H   0  0  0  0  0  0  0  0  0  0  0  0
   37.8870   30.6220   46.7760 C   0  0  1  0  0  3  0  0  0  0  0  0
   38.5810   30.6710   48.0860 C   0  0  1  0  0  3  0  0  0  0  0  0
   39.0980   31.9370   48.2670 O   0  0  0  0  0  0  0  0  0  0  0  0
   38.3910   32.8160   47.4760 C   0  0  0  0  0  2  0  0  0  0  0  0
   37.5290   32.0660   46.5220 C   0  0  1  0  0  3  0  0  0  0  0  0
   38.7160   30.1530   45.7660 O   0  0  0  0  0  0  0  0  0  0  0  0
   38.4620   30.6400   44.9390 H   0  0  0  0  0  0  0  0  0  0  0  0
   37.7610   32.4180   45.1990 O   0  0  0  0  0  0  0  0  0  0  0  0
   37.4620   33.3350   45.0510 H   0  0  0  0  0  0  0  0  0  0  0  0
   34.5870   28.4310   49.7280 C   0  0  0  0  0  3  0  0  0  0  0  0
   34.3930   28.0480   48.5150 C   0  0  0  0  0  3  0  0  0  0  0  0
   33.2810   27.2820   47.9380 C   0  0  0  0  0  0  0  0  0  0  0  0
   32.7140   26.8110   48.7760 H   0  0  0  0  0  0  0  0  0  0  0  0
   32.5680   27.9300   47.4070 H   0  0  0  0  0  0  0  0  0  0  0  0
   33.7290   26.2090   46.9920 C   0  0  0  0  0  0  0  0  0  0  0  0
   33.9740   24.8890   47.3420 C   0  0  0  0  0  0  0  0  0  0  0  0
   34.3830   23.9900   46.3680 C   0  0  0  0  0  0  0  0  0  0  0  0
   34.5550   24.3810   45.0400 C   0  0  0  0  0  0  0  0  0  0  0  0
   34.3100   25.6980   44.6940 C   0  0  0  0  0  0  0  0  0  0  0  0
   33.9010   26.5990   45.6700 C   0  0  0  0  0  0  0  0  0  0  0  0
   33.8260   24.6400   48.3810 H   0  0  0  0  0  0  0  0  0  0  0  0
   34.5580   22.9790   46.6970 H   0  0  0  0  0  0  0  0  0  0  0  0
   34.8750   23.6010   44.3660 H   0  0  0  0  0  0  0  0  0  0  0  0
   34.4520   25.9660   43.6610 H   0  0  0  0  0  0  0  0  0  0  0  0
   33.7360   27.5980   45.3030 H   0  0  0  0  0  0  0  0  0  0  0  0
  1  7  1  0  0  0  0
  2  8  1  0  0  0  0
  2  1  2  0  0  0  0
  3  2  1  0  0  0  0
  4  3  2  0  0  0  0
  4  5  1  0  0  0  0
  5  6  2  0  0  0  0
  6  1  1  0  0  0  0
  9 14  1  6  0  0  0
  9 10  1  0  0  0  0
 10 11  1  0  0  0  0
 10  3  1  1  0  0  0
 12 11  1  0  0  0  0
 13 16  1  6  0  0  0
 13  9  1  0  0  0  0
 13 12  1  0  0  0  0
 15 14  1  0  0  0  0
 17 16  1  0  0  0  0
 18  5  1  0  0  0  0
 19 18  2  0  0  0  0
 20 19  1  0  0  0  0
 20 21  1  0  0  0  0
 22 20  1  0  0  0  0
 23 24  1  0  0  0  0
 23 20  1  0  0  0  0
 24 29  1  0  0  0  0
 25 30  1  0  0  0  0
 25 24  2  0  0  0  0
 26 25  1  0  0  0  0
 27 26  2  0  0  0  0
 27 28  1  0  0  0  0
 28 23  2  0  0  0  0
 31 26  1  0  0  0  0
 32 27  1  0  0  0  0
 33 28  1  0  0  0  0
M  END
>  <minimizedAffinity>
-5.3211422

>  <minimizedRMSD>
0.624014318

$$$$
