
 OpenBabel03272509493D

 33 35  0  0  1  0  0  0  0  0999 V2000
   37.2300   30.2400   51.2380 C   0  0  0  0  0  0  0  0  0  0  0  0
   37.7240   30.8830   50.0940 C   0  0  0  0  0  0  0  0  0  0  0  0
   37.1080   30.6200   48.8830 C   0  0  0  0  0  0  0  0  0  0  0  0
   36.0580   29.7560   48.8600 N   0  0  0  0  0  0  0  0  0  0  0  0
   35.6010   29.1500   49.9750 C   0  0  0  0  0  0  0  0  0  0  0  0
   36.2040   29.4080   51.1540 N   0  0  0  0  0  0  0  0  0  0  0  0
   37.7410   30.4750   52.1610 H   0  0  0  0  0  0  0  0  0  0  0  0
   38.5570   31.5670   50.1200 H   0  0  0  0  0  0  0  0  0  0  0  0
   38.9610   31.7770   47.6690 C   0  0  1  0  0  3  0  0  0  0  0  0
   37.5620   31.2600   47.5960 C   0  0  1  0  0  3  0  0  0  0  0  0
   37.6300   30.2410   46.6260 O   0  0  0  0  0  0  0  0  0  0  0  0
   38.2860   30.8270   45.5630 C   0  0  0  0  0  2  0  0  0  0  0  0
   39.4030   31.6070   46.2100 C   0  0  2  0  0  3  0  0  0  0  0  0
   38.8890   33.1390   47.9320 O   0  0  0  0  0  0  0  0  0  0  0  0
   38.0850   33.4900   47.4440 H   0  0  0  0  0  0  0  0  0  0  0  0
   40.5760   30.8960   46.1160 O   0  0  0  0  0  0  0  0  0  0  0  0
   41.2870   31.3220   46.6690 H   0  0  0  0  0  0  0  0  0  0  0  0
   34.5440   28.3210   49.7490 O   0  0  0  0  0  0  0  0  0  0  0  0
   33.7350   28.5770   48.5950 C   0  0  0  0  0  0  0  0  0  0  0  0
   34.3390   28.8740   47.7340 H   0  0  0  0  0  0  0  0  0  0  0  0
   33.0840   29.4350   48.9140 H   0  0  0  0  0  0  0  0  0  0  0  0
   32.8000   27.4250   48.3540 C   0  0  0  0  0  0  0  0  0  0  0  0
   32.9850   27.0230   47.3370 H   0  0  0  0  0  0  0  0  0  0  0  0
   32.9700   26.5850   49.0570 H   0  0  0  0  0  0  0  0  0  0  0  0
   31.3730   27.8480   48.3540 C   0  0  0  0  0  0  0  0  0  0  0  0
   30.6930   27.7400   49.5420 C   0  0  0  0  0  0  0  0  0  0  0  0
   29.3600   28.1060   49.6550 C   0  0  0  0  0  0  0  0  0  0  0  0
   28.7290   28.5750   48.5780 N   0  0  0  0  0  0  0  0  0  0  0  0
   29.4060   28.6790   47.4120 C   0  0  0  0  0  0  0  0  0  0  0  0
   30.6990   28.3270   47.2890 N   0  0  0  0  0  0  0  0  0  0  0  0
   31.1820   27.3620   50.4300 H   0  0  0  0  0  0  0  0  0  0  0  0
   28.8570   28.0050   50.6120 H   0  0  0  0  0  0  0  0  0  0  0  0
   28.8390   29.0640   46.5830 H   0  0  0  0  0  0  0  0  0  0  0  0
  1  7  1  0  0  0  0
  2  8  1  0  0  0  0
  2  1  2  0  0  0  0
  3  2  1  0  0  0  0
  4  3  2  0  0  0  0
  4  5  1  0  0  0  0
  5  6  2  0  0  0  0
  6  1  1  0  0  0  0
  9 14  1  6  0  0  0
 10  9  1  0  0  0  0
 10  3  1  1  0  0  0
 11 10  1  0  0  0  0
 12 13  1  0  0  0  0
 12 11  1  0  0  0  0
 13 16  1  1  0  0  0
 13  9  1  0  0  0  0
 15 14  1  0  0  0  0
 16 17  1  0  0  0  0
 18  5  1  0  0  0  0
 19 21  1  0  0  0  0
 19 18  1  0  0  0  0
 20 19  1  0  0  0  0
 22 19  1  0  0  0  0
 22 24  1  0  0  0  0
 23 22  1  0  0  0  0
 25 22  1  0  0  0  0
 25 26  1  0  0  0  0
 26 27  2  0  0  0  0
 26 31  1  0  0  0  0
 27 32  1  0  0  0  0
 28 27  1  0  0  0  0
 29 28  2  0  0  0  0
 30 29  1  0  0  0  0
 30 25  2  0  0  0  0
 33 29  1  0  0  0  0
M  END
>  <minimizedAffinity>
-6.05359983

>  <minimizedRMSD>
0.715750277

$$$$
