
 OpenBabel03272507573D

 32 34  0  0  1  0  0  0  0  0999 V2000
   37.0460   31.3300   48.5790 C   0  0  0  0  0  0  0  0  0  0  0  0
   37.1900   32.3030   49.5790 C   0  0  0  0  0  0  0  0  0  0  0  0
   38.1250   33.3100   49.4190 C   0  0  0  0  0  0  0  0  0  0  0  0
   38.9080   33.3500   48.2770 C   0  0  0  0  0  0  0  0  0  0  0  0
   38.7380   32.3780   47.3190 C   0  0  0  0  0  0  0  0  0  0  0  0
   37.8220   31.4010   47.4880 N   0  0  0  0  0  0  0  0  0  0  0  0
   36.6470   32.3930   50.5180 H   0  0  0  0  0  0  0  0  0  0  0  0
   38.2970   34.0960   50.1410 H   0  0  0  0  0  0  0  0  0  0  0  0
   39.6430   34.1050   48.1050 H   0  0  0  0  0  0  0  0  0  0  0  0
   35.1770   28.5540   50.2900 C   0  0  0  0  0  0  0  0  0  0  0  0
   36.2010   29.5000   49.9950 C   0  0  0  0  0  0  0  0  0  0  0  0
   36.0260   30.3540   48.9090 C   0  0  0  0  0  0  0  0  0  0  0  0
   34.8670   30.2300   48.1810 N   0  0  0  0  0  0  0  0  0  0  0  0
   33.9210   29.3130   48.5010 C   0  0  0  0  0  0  0  0  0  0  0  0
   34.0660   28.4830   49.5380 N   0  0  0  0  0  0  0  0  0  0  0  0
   32.8220   29.3850   47.6000 N   0  0  0  0  0  0  0  0  0  0  0  0
   35.2970   27.8790   51.1350 H   0  0  0  0  0  0  0  0  0  0  0  0
   32.9940   29.2600   46.5710 H   0  0  0  0  0  0  0  0  0  0  0  0
   31.8380   29.5630   47.9620 H   0  0  0  0  0  0  0  0  0  0  0  0
   37.4090   29.5380   50.8560 C   0  0  0  0  0  0  0  0  0  0  0  0
   38.5500   29.8290   50.1220 F   0  0  0  0  0  0  0  0  0  0  0  0
   37.2440   30.5060   51.8060 F   0  0  0  0  0  0  0  0  0  0  0  0
   37.6440   28.3390   51.5120 F   0  0  0  0  0  0  0  0  0  0  0  0
   38.7810   32.7890   44.8680 C   0  0  1  0  0  3  0  0  0  0  0  0
   39.5580   32.3840   46.0800 C   0  0  2  0  0  3  0  0  0  0  0  0
   40.0310   31.0900   45.7640 O   0  0  0  0  0  0  0  0  0  0  0  0
   40.6430   31.3660   44.5400 C   0  0  0  0  0  2  0  0  0  0  0  0
   39.5340   32.0320   43.7740 C   0  0  2  0  0  3  0  0  0  0  0  0
   37.4730   32.3020   44.8810 O   0  0  0  0  0  0  0  0  0  0  0  0
   37.1210   32.4700   43.9510 H   0  0  0  0  0  0  0  0  0  0  0  0
   40.0310   32.9570   42.8420 O   0  0  0  0  0  0  0  0  0  0  0  0
   40.5220   32.4650   42.1460 H   0  0  0  0  0  0  0  0  0  0  0  0
  1 12  1  0  0  0  0
  1  2  1  0  0  0  0
  2  7  1  0  0  0  0
  3  2  2  0  0  0  0
  3  8  1  0  0  0  0
  4  3  1  0  0  0  0
  5  6  1  0  0  0  0
  5  4  2  0  0  0  0
  6  1  2  0  0  0  0
  9  4  1  0  0  0  0
 10 17  1  0  0  0  0
 11 10  1  0  0  0  0
 11 20  1  0  0  0  0
 12 11  2  0  0  0  0
 13 14  2  0  0  0  0
 13 12  1  0  0  0  0
 14 15  1  0  0  0  0
 15 10  2  0  0  0  0
 16 19  1  0  0  0  0
 16 14  1  0  0  0  0
 18 16  1  0  0  0  0
 20 23  1  0  0  0  0
 20 22  1  0  0  0  0
 21 20  1  0  0  0  0
 24 29  1  1  0  0  0
 24 25  1  0  0  0  0
 25  5  1  1  0  0  0
 26 25  1  0  0  0  0
 27 26  1  0  0  0  0
 28 31  1  6  0  0  0
 28 27  1  0  0  0  0
 28 24  1  0  0  0  0
 30 29  1  0  0  0  0
 32 31  1  0  0  0  0
M  END
>  <minimizedAffinity>
-7.62333107

>  <minimizedRMSD>
0.727640212

$$$$
