
 OpenBabel03272504533D

 25 27  0  0  1  0  0  0  0  0999 V2000
   37.3020   31.3500   49.0430 C   0  0  0  0  0  0  0  0  0  0  0  0
   37.6140   32.5480   49.7090 C   0  0  0  0  0  0  0  0  0  0  0  0
   38.5200   33.3850   49.0540 C   0  0  0  0  0  0  0  0  0  0  0  0
   39.0390   33.0100   47.8420 N   0  0  0  0  0  0  0  0  0  0  0  0
   38.7090   31.8490   47.2400 C   0  0  0  0  0  0  0  0  0  0  0  0
   37.8290   31.0090   47.8500 N   0  0  0  0  0  0  0  0  0  0  0  0
   37.1980   32.8220   50.6530 H   0  0  0  0  0  0  0  0  0  0  0  0
   38.8340   34.3330   49.4730 H   0  0  0  0  0  0  0  0  0  0  0  0
   36.3070   30.4420   49.7130 C   0  0  0  0  0  0  0  0  0  0  0  0
   36.2300   29.0250   49.3730 C   0  0  0  0  0  0  0  0  0  0  0  0
   36.9520   29.4200   50.6340 C   0  0  0  0  0  0  0  0  0  0  0  0
   35.3870   30.9470   50.1270 H   0  0  0  0  0  0  0  0  0  0  0  0
   35.3050   28.4510   49.3970 H   0  0  0  0  0  0  0  0  0  0  0  0
   36.9540   28.6980   48.5700 H   0  0  0  0  0  0  0  0  0  0  0  0
   36.3830   29.2080   51.5570 H   0  0  0  0  0  0  0  0  0  0  0  0
   38.0380   29.3880   50.7030 H   0  0  0  0  0  0  0  0  0  0  0  0
   38.5300   32.0050   44.7490 C   0  0  1  0  0  3  0  0  0  0  0  0
   39.3210   31.5290   45.9270 C   0  0  2  0  0  3  0  0  0  0  0  0
   39.4670   30.1650   45.7060 O   0  0  0  0  0  0  0  0  0  0  0  0
   38.3200   29.7000   45.1270 C   0  0  0  0  0  2  0  0  0  0  0  0
   37.5820   30.8470   44.5250 C   0  0  1  0  0  3  0  0  0  0  0  0
   37.8570   33.2020   44.9600 O   0  0  0  0  0  0  0  0  0  0  0  0
   38.4120   33.9330   44.5400 H   0  0  0  0  0  0  0  0  0  0  0  0
   36.4210   31.1130   45.2500 O   0  0  0  0  0  0  0  0  0  0  0  0
   35.8160   30.3360   45.3280 H   0  0  0  0  0  0  0  0  0  0  0  0
  1  2  1  0  0  0  0
  1  9  1  0  0  0  0
  2  7  1  0  0  0  0
  3  8  1  0  0  0  0
  3  2  2  0  0  0  0
  4  3  1  0  0  0  0
  5  4  2  0  0  0  0
  5  6  1  0  0  0  0
  6  1  2  0  0  0  0
  9 12  1  0  0  0  0
  9 11  1  0  0  0  0
 10 13  1  0  0  0  0
 10  9  1  0  0  0  0
 10 11  1  0  0  0  0
 11 16  1  0  0  0  0
 11 15  1  0  0  0  0
 14 10  1  0  0  0  0
 17 22  1  1  0  0  0
 17 18  1  0  0  0  0
 18  5  1  1  0  0  0
 19 18  1  0  0  0  0
 20 19  1  0  0  0  0
 21 17  1  0  0  0  0
 21 20  1  0  0  0  0
 21 24  1  1  0  0  0
 23 22  1  0  0  0  0
 24 25  1  0  0  0  0
M  END
>  <minimizedAffinity>
-5.11415815

>  <minimizedRMSD>
1.2975018

$$$$
