
 OpenBabel03272501423D

 31 34  0  0  1  0  0  0  0  0999 V2000
   36.7110   27.9550   34.5180 C   0  0  0  0  0  0  0  0  0  0  0  0
   36.0000   28.7940   33.6410 C   0  0  0  0  0  0  0  0  0  0  0  0
   35.7190   28.3080   32.3760 C   0  0  0  0  0  0  0  0  0  0  0  0
   36.1460   27.0600   32.0620 N   0  0  0  0  0  0  0  0  0  0  0  0
   36.8250   26.2750   32.9170 C   0  0  0  0  0  0  0  0  0  0  0  0
   37.1040   26.7320   34.1480 N   0  0  0  0  0  0  0  0  0  0  0  0
   36.9750   28.2540   35.5320 H   0  0  0  0  0  0  0  0  0  0  0  0
   35.1820   28.9800   31.7560 H   0  0  0  0  0  0  0  0  0  0  0  0
   35.3940   31.1420   33.3470 C   0  0  0  0  0  0  0  0  0  0  0  0
   35.6500   30.0890   34.2060 C   0  0  0  0  0  0  0  0  0  0  0  0
   35.5520   30.3600   35.5580 C   0  0  0  0  0  0  0  0  0  0  0  0
   35.2100   31.6320   36.0060 C   0  0  0  0  0  0  0  0  0  0  0  0
   35.0430   32.1720   37.2220 N   0  0  0  0  0  0  0  0  0  0  0  0
   34.7100   33.4620   37.0890 C   0  0  0  0  0  0  0  0  0  0  0  0
   34.6550   33.7840   35.7580 N   0  0  0  0  0  0  0  0  0  0  0  0
   34.9630   32.6540   35.1010 C   0  0  0  0  0  0  0  0  0  0  0  0
   35.0560   32.4090   33.7640 C   0  0  0  0  0  0  0  0  0  0  0  0
   35.4600   30.9770   32.2830 H   0  0  0  0  0  0  0  0  0  0  0  0
   35.7470   29.5530   36.2500 H   0  0  0  0  0  0  0  0  0  0  0  0
   35.1730   31.6060   38.1060 H   0  0  0  0  0  0  0  0  0  0  0  0
   34.5280   34.0900   37.9660 H   0  0  0  0  0  0  0  0  0  0  0  0
   34.8650   33.1920   33.0570 H   0  0  0  0  0  0  0  0  0  0  0  0
   36.6770   24.6380   31.0650 C   0  0  1  0  0  3  0  0  0  0  0  0
   37.2360   24.9260   32.4470 C   0  0  1  0  0  3  0  0  0  0  0  0
   38.6000   24.7710   32.3300 O   0  0  0  0  0  0  0  0  0  0  0  0
   38.6730   23.5570   31.6150 C   0  0  0  0  0  2  0  0  0  0  0  0
   37.8420   23.9100   30.3970 C   0  0  2  0  0  3  0  0  0  0  0  0
   35.6150   23.7340   31.1790 O   0  0  0  0  0  0  0  0  0  0  0  0
   34.8860   24.1160   31.7220 H   0  0  0  0  0  0  0  0  0  0  0  0
   38.5640   24.7850   29.5770 O   0  0  0  0  0  0  0  0  0  0  0  0
   39.2090   25.2800   30.1460 H   0  0  0  0  0  0  0  0  0  0  0  0
  1  7  1  0  0  0  0
  2 10  1  0  0  0  0
  2  1  2  0  0  0  0
  3  2  1  0  0  0  0
  4  3  2  0  0  0  0
  4  5  1  0  0  0  0
  5  6  2  0  0  0  0
  6  1  1  0  0  0  0
  8  3  1  0  0  0  0
  9 17  2  0  0  0  0
  9 10  1  0  0  0  0
 10 11  2  0  0  0  0
 11 12  1  0  0  0  0
 11 19  1  0  0  0  0
 12 13  1  0  0  0  0
 13 20  1  0  0  0  0
 14 13  1  0  0  0  0
 14 21  1  0  0  0  0
 15 14  2  0  0  0  0
 16 15  1  0  0  0  0
 16 12  2  0  0  0  0
 17 16  1  0  0  0  0
 18  9  1  0  0  0  0
 22 17  1  0  0  0  0
 23 28  1  1  0  0  0
 23 24  1  0  0  0  0
 24  5  1  6  0  0  0
 25 24  1  0  0  0  0
 26 25  1  0  0  0  0
 27 30  1  6  0  0  0
 27 23  1  0  0  0  0
 27 26  1  0  0  0  0
 28 29  1  0  0  0  0
 30 31  1  0  0  0  0
M  END
>  <minimizedAffinity>
-5.55115604

$$$$

 OpenBabel03272501423D

 31 34  0  0  1  0  0  0  0  0999 V2000
   37.4030   26.9630   34.4390 C   0  0  0  0  0  0  0  0  0  0  0  0
   37.6480   26.4340   33.1590 C   0  0  0  0  0  0  0  0  0  0  0  0
   37.9580   25.0890   33.0700 C   0  0  0  0  0  0  0  0  0  0  0  0
   38.0080   24.3680   34.2180 N   0  0  0  0  0  0  0  0  0  0  0  0
   37.7710   24.8950   35.4320 C   0  0  0  0  0  0  0  0  0  0  0  0
   37.4680   26.1990   35.5340 N   0  0  0  0  0  0  0  0  0  0  0  0
   37.1520   28.0110   34.6040 H   0  0  0  0  0  0  0  0  0  0  0  0
   38.1330   24.7410   32.0840 H   0  0  0  0  0  0  0  0  0  0  0  0
   36.8370   28.5770   32.3110 C   0  0  0  0  0  0  0  0  0  0  0  0
   37.5340   27.4040   32.0800 C   0  0  0  0  0  0  0  0  0  0  0  0
   38.0750   27.2490   30.8180 C   0  0  0  0  0  0  0  0  0  0  0  0
   37.9140   28.2340   29.8490 C   0  0  0  0  0  0  0  0  0  0  0  0
   38.3170   28.3550   28.5750 N   0  0  0  0  0  0  0  0  0  0  0  0
   37.8840   29.5230   28.0860 C   0  0  0  0  0  0  0  0  0  0  0  0
   37.1820   30.1920   29.0540 N   0  0  0  0  0  0  0  0  0  0  0  0
   37.2060   29.3920   30.1330 C   0  0  0  0  0  0  0  0  0  0  0  0
   36.6640   29.5650   31.3710 C   0  0  0  0  0  0  0  0  0  0  0  0
   36.3970   28.7410   33.2820 H   0  0  0  0  0  0  0  0  0  0  0  0
   38.6240   26.3410   30.6120 H   0  0  0  0  0  0  0  0  0  0  0  0
   38.8840   27.6010   28.0960 H   0  0  0  0  0  0  0  0  0  0  0  0
   38.1060   29.8190   27.0560 H   0  0  0  0  0  0  0  0  0  0  0  0
   36.1150   30.4580   31.5990 H   0  0  0  0  0  0  0  0  0  0  0  0
   38.6780   22.7580   36.2920 C   0  0  1  0  0  3  0  0  0  0  0  0
   37.8590   23.9950   36.6110 C   0  0  1  0  0  3  0  0  0  0  0  0
   38.4730   24.5690   37.7030 O   0  0  0  0  0  0  0  0  0  0  0  0
   38.6730   23.4400   38.5260 C   0  0  0  0  0  2  0  0  0  0  0  0
   39.4680   22.5570   37.5840 C   0  0  2  0  0  3  0  0  0  0  0  0
   37.8180   21.6650   36.1400 O   0  0  0  0  0  0  0  0  0  0  0  0
   37.1940   21.8100   35.3910 H   0  0  0  0  0  0  0  0  0  0  0  0
   40.7660   23.0640   37.4520 O   0  0  0  0  0  0  0  0  0  0  0  0
   40.7350   24.0400   37.6310 H   0  0  0  0  0  0  0  0  0  0  0  0
  1  7  1  0  0  0  0
  1  6  1  0  0  0  0
  2  1  2  0  0  0  0
  3  2  1  0  0  0  0
  3  4  2  0  0  0  0
  4  5  1  0  0  0  0
  5  6  2  0  0  0  0
  8  3  1  0  0  0  0
  9 18  1  0  0  0  0
 10  9  1  0  0  0  0
 10  2  1  0  0  0  0
 11 10  2  0  0  0  0
 12 16  2  0  0  0  0
 12 11  1  0  0  0  0
 13 12  1  0  0  0  0
 14 13  1  0  0  0  0
 14 15  2  0  0  0  0
 15 16  1  0  0  0  0
 16 17  1  0  0  0  0
 17 22  1  0  0  0  0
 17  9  2  0  0  0  0
 19 11  1  0  0  0  0
 20 13  1  0  0  0  0
 21 14  1  0  0  0  0
 23 28  1  1  0  0  0
 23 24  1  0  0  0  0
 23 27  1  0  0  0  0
 24  5  1  6  0  0  0
 24 25  1  0  0  0  0
 25 26  1  0  0  0  0
 27 30  1  6  0  0  0
 27 26  1  0  0  0  0
 29 28  1  0  0  0  0
 30 31  1  0  0  0  0
M  END
>  <minimizedAffinity>
-5.54100513

$$$$

 OpenBabel03272501423D

 31 34  0  0  1  0  0  0  0  0999 V2000
   37.4870   25.5960   33.4740 C   0  0  0  0  0  0  0  0  0  0  0  0
   37.8160   25.9870   34.7850 C   0  0  0  0  0  0  0  0  0  0  0  0
   37.4380   27.2550   35.1890 C   0  0  0  0  0  0  0  0  0  0  0  0
   36.7780   28.0390   34.3000 N   0  0  0  0  0  0  0  0  0  0  0  0
   36.4740   27.6440   33.0510 C   0  0  0  0  0  0  0  0  0  0  0  0
   36.8340   26.4160   32.6450 N   0  0  0  0  0  0  0  0  0  0  0  0
   37.7450   24.6170   33.0710 H   0  0  0  0  0  0  0  0  0  0  0  0
   37.7100   27.4990   36.1840 H   0  0  0  0  0  0  0  0  0  0  0  0
   38.0080   24.5760   36.7700 C   0  0  0  0  0  0  0  0  0  0  0  0
   38.5260   24.9730   35.5500 C   0  0  0  0  0  0  0  0  0  0  0  0
   39.6990   24.3610   35.1520 C   0  0  0  0  0  0  0  0  0  0  0  0
   40.3070   23.3990   35.9520 C   0  0  0  0  0  0  0  0  0  0  0  0
   41.4180   22.6570   35.8280 N   0  0  0  0  0  0  0  0  0  0  0  0
   41.5470   21.8730   36.9050 C   0  0  0  0  0  0  0  0  0  0  0  0
   40.5010   22.0990   37.7620 N   0  0  0  0  0  0  0  0  0  0  0  0
   39.7450   23.0370   37.1680 C   0  0  0  0  0  0  0  0  0  0  0  0
   38.5890   23.6290   37.5800 C   0  0  0  0  0  0  0  0  0  0  0  0
   37.0940   25.0280   37.1210 H   0  0  0  0  0  0  0  0  0  0  0  0
   40.1250   24.6530   34.2020 H   0  0  0  0  0  0  0  0  0  0  0  0
   42.0470   22.7340   34.9810 H   0  0  0  0  0  0  0  0  0  0  0  0
   42.3920   21.1860   37.0030 H   0  0  0  0  0  0  0  0  0  0  0  0
   38.1470   23.3550   38.5170 H   0  0  0  0  0  0  0  0  0  0  0  0
   34.8010   29.4680   32.9870 C   0  0  1  0  0  3  0  0  0  0  0  0
   35.7470   28.6000   32.1760 C   0  0  1  0  0  3  0  0  0  0  0  0
   36.5720   29.4800   31.5100 O   0  0  0  0  0  0  0  0  0  0  0  0
   35.6320   30.4110   31.0180 C   0  0  0  0  0  2  0  0  0  0  0  0
   34.9630   30.8290   32.3120 C   0  0  2  0  0  3  0  0  0  0  0  0
   33.4870   29.0370   32.7740 O   0  0  0  0  0  0  0  0  0  0  0  0
   33.3700   28.1060   33.0770 H   0  0  0  0  0  0  0  0  0  0  0  0
   35.8340   31.6430   33.0470 O   0  0  0  0  0  0  0  0  0  0  0  0
   36.7640   31.4120   32.7870 H   0  0  0  0  0  0  0  0  0  0  0  0
  1  2  1  0  0  0  0
  2  3  2  0  0  0  0
  2 10  1  0  0  0  0
  3  8  1  0  0  0  0
  4  3  1  0  0  0  0
  5  4  2  0  0  0  0
  6  5  1  0  0  0  0
  6  1  2  0  0  0  0
  7  1  1  0  0  0  0
  9 18  1  0  0  0  0
  9 17  1  0  0  0  0
 10  9  2  0  0  0  0
 11 10  1  0  0  0  0
 11 12  2  0  0  0  0
 12 16  1  0  0  0  0
 13 12  1  0  0  0  0
 13 14  1  0  0  0  0
 14 21  1  0  0  0  0
 14 15  2  0  0  0  0
 16 17  2  0  0  0  0
 16 15  1  0  0  0  0
 17 22  1  0  0  0  0
 19 11  1  0  0  0  0
 20 13  1  0  0  0  0
 23 28  1  6  0  0  0
 24 23  1  0  0  0  0
 24  5  1  1  0  0  0
 25 24  1  0  0  0  0
 26 25  1  0  0  0  0
 26 27  1  0  0  0  0
 27 23  1  0  0  0  0
 27 30  1  1  0  0  0
 28 29  1  0  0  0  0
 31 30  1  0  0  0  0
M  END
>  <minimizedAffinity>
-5.50361919

$$$$

 OpenBabel03272501423D

 31 34  0  0  1  0  0  0  0  0999 V2000
   37.6360   27.6740   35.3980 C   0  0  0  0  0  0  0  0  0  0  0  0
   37.0110   27.4740   34.1540 C   0  0  0  0  0  0  0  0  0  0  0  0
   37.1080   26.2180   33.5820 C   0  0  0  0  0  0  0  0  0  0  0  0
   37.7970   25.2620   34.2540 N   0  0  0  0  0  0  0  0  0  0  0  0
   38.3880   25.4760   35.4420 C   0  0  0  0  0  0  0  0  0  0  0  0
   38.3020   26.6900   36.0100 N   0  0  0  0  0  0  0  0  0  0  0  0
   37.6120   28.6300   35.9220 H   0  0  0  0  0  0  0  0  0  0  0  0
   36.6190   26.1220   32.6460 H   0  0  0  0  0  0  0  0  0  0  0  0
   35.7660   29.5430   34.5250 C   0  0  0  0  0  0  0  0  0  0  0  0
   36.3310   28.6510   33.6320 C   0  0  0  0  0  0  0  0  0  0  0  0
   36.1990   28.9570   32.2910 C   0  0  0  0  0  0  0  0  0  0  0  0
   35.5300   30.1070   31.8860 C   0  0  0  0  0  0  0  0  0  0  0  0
   35.2560   30.6460   30.6890 N   0  0  0  0  0  0  0  0  0  0  0  0
   34.5720   31.7830   30.8640 C   0  0  0  0  0  0  0  0  0  0  0  0
   34.3900   32.0040   32.2050 N   0  0  0  0  0  0  0  0  0  0  0  0
   34.9820   30.9700   32.8230 C   0  0  0  0  0  0  0  0  0  0  0  0
   35.0990   30.6870   34.1510 C   0  0  0  0  0  0  0  0  0  0  0  0
   35.8430   29.3440   35.5830 H   0  0  0  0  0  0  0  0  0  0  0  0
   36.6320   28.2750   31.5720 H   0  0  0  0  0  0  0  0  0  0  0  0
   35.5630   30.1860   29.7870 H   0  0  0  0  0  0  0  0  0  0  0  0
   34.2480   32.3830   30.0090 H   0  0  0  0  0  0  0  0  0  0  0  0
   34.6790   31.3480   34.8830 H   0  0  0  0  0  0  0  0  0  0  0  0
   38.4020   23.0280   35.8110 C   0  0  1  0  0  3  0  0  0  0  0  0
   39.1140   24.3430   36.0730 C   0  0  1  0  0  3  0  0  0  0  0  0
   40.3930   24.1680   35.5930 O   0  0  0  0  0  0  0  0  0  0  0  0
   40.7120   22.9010   36.1290 C   0  0  0  0  0  2  0  0  0  0  0  0
   39.5710   22.0760   35.5670 C   0  0  2  0  0  3  0  0  0  0  0  0
   37.7510   22.6180   36.9800 O   0  0  0  0  0  0  0  0  0  0  0  0
   37.0700   23.2770   37.2520 H   0  0  0  0  0  0  0  0  0  0  0  0
   39.7690   21.8790   34.1960 O   0  0  0  0  0  0  0  0  0  0  0  0
   40.3180   22.6300   33.8520 H   0  0  0  0  0  0  0  0  0  0  0  0
  1  7  1  0  0  0  0
  1  6  1  0  0  0  0
  2  1  2  0  0  0  0
  3  2  1  0  0  0  0
  3  4  2  0  0  0  0
  4  5  1  0  0  0  0
  5  6  2  0  0  0  0
  8  3  1  0  0  0  0
  9 18  1  0  0  0  0
 10  2  1  0  0  0  0
 10  9  2  0  0  0  0
 11 10  1  0  0  0  0
 12 11  2  0  0  0  0
 12 16  1  0  0  0  0
 13 14  1  0  0  0  0
 13 12  1  0  0  0  0
 14 15  2  0  0  0  0
 15 16  1  0  0  0  0
 16 17  2  0  0  0  0
 17  9  1  0  0  0  0
 17 22  1  0  0  0  0
 19 11  1  0  0  0  0
 20 13  1  0  0  0  0
 21 14  1  0  0  0  0
 23 24  1  0  0  0  0
 23 28  1  1  0  0  0
 24  5  1  6  0  0  0
 25 24  1  0  0  0  0
 25 26  1  0  0  0  0
 27 30  1  6  0  0  0
 27 23  1  0  0  0  0
 27 26  1  0  0  0  0
 28 29  1  0  0  0  0
 31 30  1  0  0  0  0
M  END
>  <minimizedAffinity>
-5.47632551

$$$$

 OpenBabel03272501423D

 31 34  0  0  1  0  0  0  0  0999 V2000
   37.4060   24.7380   32.5090 C   0  0  0  0  0  0  0  0  0  0  0  0
   36.3460   25.1890   31.7020 C   0  0  0  0  0  0  0  0  0  0  0  0
   35.4200   24.2520   31.2780 C   0  0  0  0  0  0  0  0  0  0  0  0
   35.5930   22.9630   31.6640 N   0  0  0  0  0  0  0  0  0  0  0  0
   36.6150   22.5550   32.4350 C   0  0  0  0  0  0  0  0  0  0  0  0
   37.5210   23.4530   32.8550 N   0  0  0  0  0  0  0  0  0  0  0  0
   38.1800   25.4050   32.8890 H   0  0  0  0  0  0  0  0  0  0  0  0
   34.6420   24.6440   30.6730 H   0  0  0  0  0  0  0  0  0  0  0  0
   35.8240   27.4870   32.3470 C   0  0  0  0  0  0  0  0  0  0  0  0
   36.3740   26.6170   31.4230 C   0  0  0  0  0  0  0  0  0  0  0  0
   36.9140   27.1890   30.2870 C   0  0  0  0  0  0  0  0  0  0  0  0
   36.8950   28.5680   30.1060 C   0  0  0  0  0  0  0  0  0  0  0  0
   37.3320   29.3820   29.1340 N   0  0  0  0  0  0  0  0  0  0  0  0
   37.0580   30.6500   29.4630 C   0  0  0  0  0  0  0  0  0  0  0  0
   36.4260   30.6790   30.6790 N   0  0  0  0  0  0  0  0  0  0  0  0
   36.3310   29.3960   31.0660 C   0  0  0  0  0  0  0  0  0  0  0  0
   35.7920   28.8530   32.1930 C   0  0  0  0  0  0  0  0  0  0  0  0
   35.3890   27.0850   33.2490 H   0  0  0  0  0  0  0  0  0  0  0  0
   37.3500   26.5310   29.5490 H   0  0  0  0  0  0  0  0  0  0  0  0
   37.8110   29.0070   28.2670 H   0  0  0  0  0  0  0  0  0  0  0  0
   37.3330   31.4760   28.8010 H   0  0  0  0  0  0  0  0  0  0  0  0
   35.3540   29.4850   32.9400 H   0  0  0  0  0  0  0  0  0  0  0  0
   35.3850   20.6340   33.3980 C   0  0  1  0  0  3  0  0  0  0  0  0
   36.6900   21.1130   32.7870 C   0  0  1  0  0  3  0  0  0  0  0  0
   36.9100   20.2890   31.7050 O   0  0  0  0  0  0  0  0  0  0  0  0
   36.6450   19.0230   32.2700 C   0  0  0  0  0  2  0  0  0  0  0  0
   35.2340   19.2460   32.7800 C   0  0  2  0  0  3  0  0  0  0  0  0
   35.5570   20.4730   34.7780 O   0  0  0  0  0  0  0  0  0  0  0  0
   35.7900   21.3310   35.2050 H   0  0  0  0  0  0  0  0  0  0  0  0
   34.3470   19.2820   31.6980 O   0  0  0  0  0  0  0  0  0  0  0  0
   34.8510   19.5770   30.8950 H   0  0  0  0  0  0  0  0  0  0  0  0
  1  6  1  0  0  0  0
  1  7  1  0  0  0  0
  2  1  2  0  0  0  0
  3  4  2  0  0  0  0
  3  2  1  0  0  0  0
  4  5  1  0  0  0  0
  5  6  2  0  0  0  0
  8  3  1  0  0  0  0
  9 18  1  0  0  0  0
 10  2  1  0  0  0  0
 10  9  2  0  0  0  0
 11 10  1  0  0  0  0
 12 11  2  0  0  0  0
 12 16  1  0  0  0  0
 13 14  1  0  0  0  0
 13 12  1  0  0  0  0
 14 15  2  0  0  0  0
 15 16  1  0  0  0  0
 16 17  2  0  0  0  0
 17  9  1  0  0  0  0
 17 22  1  0  0  0  0
 19 11  1  0  0  0  0
 20 13  1  0  0  0  0
 21 14  1  0  0  0  0
 23 28  1  1  0  0  0
 24  5  1  6  0  0  0
 24 23  1  0  0  0  0
 25 26  1  0  0  0  0
 25 24  1  0  0  0  0
 26 27  1  0  0  0  0
 27 30  1  6  0  0  0
 27 23  1  0  0  0  0
 28 29  1  0  0  0  0
 31 30  1  0  0  0  0
M  END
>  <minimizedAffinity>
-5.40544271

$$$$

 OpenBabel03272501423D

 31 34  0  0  1  0  0  0  0  0999 V2000
   35.6710   27.9610   31.7420 C   0  0  0  0  0  0  0  0  0  0  0  0
   36.1830   28.1690   33.0350 C   0  0  0  0  0  0  0  0  0  0  0  0
   36.8270   27.1080   33.6470 C   0  0  0  0  0  0  0  0  0  0  0  0
   36.9240   25.9400   32.9650 N   0  0  0  0  0  0  0  0  0  0  0  0
   36.4260   25.7630   31.7290 C   0  0  0  0  0  0  0  0  0  0  0  0
   35.7980   26.7840   31.1220 N   0  0  0  0  0  0  0  0  0  0  0  0
   35.1490   28.7390   31.1840 H   0  0  0  0  0  0  0  0  0  0  0  0
   37.1940   27.3180   34.6200 H   0  0  0  0  0  0  0  0  0  0  0  0
   35.8100   30.5550   32.6670 C   0  0  0  0  0  0  0  0  0  0  0  0
   35.9560   29.5070   33.5590 C   0  0  0  0  0  0  0  0  0  0  0  0
   35.8740   29.8280   34.9010 C   0  0  0  0  0  0  0  0  0  0  0  0
   35.6550   31.1390   35.3080 C   0  0  0  0  0  0  0  0  0  0  0  0
   35.5320   31.7300   36.5060 N   0  0  0  0  0  0  0  0  0  0  0  0
   35.3260   33.0410   36.3320 C   0  0  0  0  0  0  0  0  0  0  0  0
   35.3120   33.3270   34.9910 N   0  0  0  0  0  0  0  0  0  0  0  0
   35.5140   32.1530   34.3710 C   0  0  0  0  0  0  0  0  0  0  0  0
   35.5920   31.8600   33.0430 C   0  0  0  0  0  0  0  0  0  0  0  0
   35.8670   30.3520   31.6090 H   0  0  0  0  0  0  0  0  0  0  0  0
   35.9860   29.0270   35.6190 H   0  0  0  0  0  0  0  0  0  0  0  0
   35.6000   31.1800   37.4070 H   0  0  0  0  0  0  0  0  0  0  0  0
   35.1990   33.7100   37.1880 H   0  0  0  0  0  0  0  0  0  0  0  0
   35.4840   32.6360   32.3120 H   0  0  0  0  0  0  0  0  0  0  0  0
   38.0670   24.1340   30.8460 C   0  0  1  0  0  3  0  0  0  0  0  0
   36.5990   24.4320   31.0920 C   0  0  1  0  0  3  0  0  0  0  0  0
   36.1360   23.3860   31.8590 O   0  0  0  0  0  0  0  0  0  0  0  0
   36.6800   22.2820   31.1670 C   0  0  0  0  0  2  0  0  0  0  0  0
   38.1510   22.6480   31.1900 C   0  0  2  0  0  3  0  0  0  0  0  0
   38.3420   24.2750   29.4810 O   0  0  0  0  0  0  0  0  0  0  0  0
   38.1710   25.1990   29.1830 H   0  0  0  0  0  0  0  0  0  0  0  0
   38.6570   22.4690   32.4830 O   0  0  0  0  0  0  0  0  0  0  0  0
   37.9060   22.5670   33.1240 H   0  0  0  0  0  0  0  0  0  0  0  0
  1  2  1  0  0  0  0
  2 10  1  0  0  0  0
  2  3  2  0  0  0  0
  3  8  1  0  0  0  0
  4  3  1  0  0  0  0
  5  4  2  0  0  0  0
  6  5  1  0  0  0  0
  6  1  2  0  0  0  0
  7  1  1  0  0  0  0
  9 17  2  0  0  0  0
  9 10  1  0  0  0  0
 10 11  2  0  0  0  0
 11 12  1  0  0  0  0
 11 19  1  0  0  0  0
 12 13  1  0  0  0  0
 13 20  1  0  0  0  0
 14 13  1  0  0  0  0
 14 21  1  0  0  0  0
 15 14  2  0  0  0  0
 16 15  1  0  0  0  0
 16 12  2  0  0  0  0
 17 16  1  0  0  0  0
 18  9  1  0  0  0  0
 22 17  1  0  0  0  0
 23 28  1  6  0  0  0
 23 24  1  0  0  0  0
 23 27  1  0  0  0  0
 24  5  1  1  0  0  0
 24 25  1  0  0  0  0
 26 27  1  0  0  0  0
 26 25  1  0  0  0  0
 27 30  1  1  0  0  0
 29 28  1  0  0  0  0
 30 31  1  0  0  0  0
M  END
>  <minimizedAffinity>
-5.40534639

$$$$

 OpenBabel03272501423D

 31 34  0  0  1  0  0  0  0  0999 V2000
   35.0570   29.0370   32.7070 C   0  0  0  0  0  0  0  0  0  0  0  0
   35.5930   29.0640   34.0080 C   0  0  0  0  0  0  0  0  0  0  0  0
   36.5300   28.1000   34.3340 C   0  0  0  0  0  0  0  0  0  0  0  0
   36.8710   27.1930   33.3850 N   0  0  0  0  0  0  0  0  0  0  0  0
   36.3460   27.1860   32.1480 C   0  0  0  0  0  0  0  0  0  0  0  0
   35.4350   28.1160   31.8160 N   0  0  0  0  0  0  0  0  0  0  0  0
   34.3150   29.7570   32.3630 H   0  0  0  0  0  0  0  0  0  0  0  0
   36.9010   28.1660   35.3260 H   0  0  0  0  0  0  0  0  0  0  0  0
   35.9650   30.9580   35.5050 C   0  0  0  0  0  0  0  0  0  0  0  0
   35.0710   30.1330   34.8460 C   0  0  0  0  0  0  0  0  0  0  0  0
   33.7290   30.3980   35.0440 C   0  0  0  0  0  0  0  0  0  0  0  0
   33.3240   31.4440   35.8660 C   0  0  0  0  0  0  0  0  0  0  0  0
   32.1260   31.9240   36.2330 N   0  0  0  0  0  0  0  0  0  0  0  0
   32.3020   32.9650   37.0570 C   0  0  0  0  0  0  0  0  0  0  0  0
   33.6430   33.1810   37.2390 N   0  0  0  0  0  0  0  0  0  0  0  0
   34.2620   32.2430   36.5040 C   0  0  0  0  0  0  0  0  0  0  0  0
   35.5900   31.9990   36.3230 C   0  0  0  0  0  0  0  0  0  0  0  0
   37.0230   30.7880   35.3810 H   0  0  0  0  0  0  0  0  0  0  0  0
   33.0100   29.7670   34.5400 H   0  0  0  0  0  0  0  0  0  0  0  0
   31.2240   31.4940   35.8870 H   0  0  0  0  0  0  0  0  0  0  0  0
   31.4460   33.5030   37.4740 H   0  0  0  0  0  0  0  0  0  0  0  0
   36.3220   32.6110   36.8120 H   0  0  0  0  0  0  0  0  0  0  0  0
   38.2790   26.3050   30.8770 C   0  0  1  0  0  3  0  0  0  0  0  0
   36.8050   26.1370   31.2020 C   0  0  1  0  0  3  0  0  0  0  0  0
   36.6830   24.8550   31.6930 O   0  0  0  0  0  0  0  0  0  0  0  0
   37.4380   24.1300   30.7460 C   0  0  0  0  0  2  0  0  0  0  0  0
   38.7650   24.8580   30.8450 C   0  0  2  0  0  3  0  0  0  0  0  0
   38.4070   26.8300   29.5870 O   0  0  0  0  0  0  0  0  0  0  0  0
   37.9850   27.7200   29.5260 H   0  0  0  0  0  0  0  0  0  0  0  0
   39.3930   24.5210   32.0490 O   0  0  0  0  0  0  0  0  0  0  0  0
   38.6910   24.2630   32.7020 H   0  0  0  0  0  0  0  0  0  0  0  0
  1  2  1  0  0  0  0
  2  3  2  0  0  0  0
  2 10  1  0  0  0  0
  3  8  1  0  0  0  0
  4  3  1  0  0  0  0
  5  4  2  0  0  0  0
  6  5  1  0  0  0  0
  6  1  2  0  0  0  0
  7  1  1  0  0  0  0
  9 17  1  0  0  0  0
 10 11  1  0  0  0  0
 10  9  2  0  0  0  0
 11 12  2  0  0  0  0
 12 13  1  0  0  0  0
 12 16  1  0  0  0  0
 13 14  1  0  0  0  0
 14 15  2  0  0  0  0
 14 21  1  0  0  0  0
 16 15  1  0  0  0  0
 17 16  2  0  0  0  0
 17 22  1  0  0  0  0
 18  9  1  0  0  0  0
 19 11  1  0  0  0  0
 20 13  1  0  0  0  0
 23 28  1  6  0  0  0
 23 24  1  0  0  0  0
 24 25  1  0  0  0  0
 24  5  1  1  0  0  0
 26 27  1  0  0  0  0
 26 25  1  0  0  0  0
 27 23  1  0  0  0  0
 27 30  1  1  0  0  0
 29 28  1  0  0  0  0
 30 31  1  0  0  0  0
M  END
>  <minimizedAffinity>
-5.40333319

$$$$

 OpenBabel03272501423D

 31 34  0  0  1  0  0  0  0  0999 V2000
   37.2830   27.9190   34.9510 C   0  0  0  0  0  0  0  0  0  0  0  0
   36.8380   27.5880   33.6580 C   0  0  0  0  0  0  0  0  0  0  0  0
   37.0450   26.2920   33.2210 C   0  0  0  0  0  0  0  0  0  0  0  0
   37.6630   25.4250   34.0620 N   0  0  0  0  0  0  0  0  0  0  0  0
   38.0810   25.7640   35.2950 C   0  0  0  0  0  0  0  0  0  0  0  0
   37.8860   27.0180   35.7330 N   0  0  0  0  0  0  0  0  0  0  0  0
   37.1620   28.9150   35.3770 H   0  0  0  0  0  0  0  0  0  0  0  0
   36.6910   26.0950   32.2410 H   0  0  0  0  0  0  0  0  0  0  0  0
   36.5490   28.9110   31.6250 C   0  0  0  0  0  0  0  0  0  0  0  0
   36.2040   28.6870   32.9460 C   0  0  0  0  0  0  0  0  0  0  0  0
   35.2670   29.5450   33.4890 C   0  0  0  0  0  0  0  0  0  0  0  0
   34.7140   30.5700   32.7290 C   0  0  0  0  0  0  0  0  0  0  0  0
   33.8090   31.5270   32.9820 N   0  0  0  0  0  0  0  0  0  0  0  0
   33.6320   32.2680   31.8820 C   0  0  0  0  0  0  0  0  0  0  0  0
   34.4350   31.7930   30.8780 N   0  0  0  0  0  0  0  0  0  0  0  0
   35.0950   30.7510   31.4080 C   0  0  0  0  0  0  0  0  0  0  0  0
   36.0180   29.9170   30.8520 C   0  0  0  0  0  0  0  0  0  0  0  0
   37.2780   28.2660   31.1580 H   0  0  0  0  0  0  0  0  0  0  0  0
   34.9800   29.3910   34.5210 H   0  0  0  0  0  0  0  0  0  0  0  0
   33.3490   31.6220   33.9300 H   0  0  0  0  0  0  0  0  0  0  0  0
   32.9310   33.1080   31.8750 H   0  0  0  0  0  0  0  0  0  0  0  0
   36.3180   30.0490   29.8310 H   0  0  0  0  0  0  0  0  0  0  0  0
   37.7640   24.0880   37.0900 C   0  0  1  0  0  3  0  0  0  0  0  0
   38.7440   24.7190   36.1170 C   0  0  1  0  0  3  0  0  0  0  0  0
   39.2520   23.6720   35.3790 O   0  0  0  0  0  0  0  0  0  0  0  0
   39.5400   22.7380   36.3980 C   0  0  0  0  0  2  0  0  0  0  0  0
   38.1750   22.6180   37.0460 C   0  0  2  0  0  3  0  0  0  0  0  0
   38.0230   24.5690   38.3780 O   0  0  0  0  0  0  0  0  0  0  0  0
   37.8980   25.5460   38.4200 H   0  0  0  0  0  0  0  0  0  0  0  0
   37.3210   21.8920   36.2070 O   0  0  0  0  0  0  0  0  0  0  0  0
   37.6400   22.0010   35.2740 H   0  0  0  0  0  0  0  0  0  0  0  0
  1  7  1  0  0  0  0
  1  6  1  0  0  0  0
  2  1  2  0  0  0  0
  3  2  1  0  0  0  0
  3  4  2  0  0  0  0
  4  5  1  0  0  0  0
  5  6  2  0  0  0  0
  8  3  1  0  0  0  0
  9 10  1  0  0  0  0
 10 11  2  0  0  0  0
 10  2  1  0  0  0  0
 11 19  1  0  0  0  0
 12 13  1  0  0  0  0
 12 11  1  0  0  0  0
 13 20  1  0  0  0  0
 14 13  1  0  0  0  0
 15 16  1  0  0  0  0
 15 14  2  0  0  0  0
 16 12  2  0  0  0  0
 17 16  1  0  0  0  0
 17  9  2  0  0  0  0
 18  9  1  0  0  0  0
 21 14  1  0  0  0  0
 22 17  1  0  0  0  0
 23 28  1  1  0  0  0
 24  5  1  6  0  0  0
 24 23  1  0  0  0  0
 25 24  1  0  0  0  0
 25 26  1  0  0  0  0
 26 27  1  0  0  0  0
 27 30  1  6  0  0  0
 27 23  1  0  0  0  0
 28 29  1  0  0  0  0
 31 30  1  0  0  0  0
M  END
>  <minimizedAffinity>
-5.37929106

$$$$

 OpenBabel03272501423D

 31 34  0  0  1  0  0  0  0  0999 V2000
   36.6290   26.8300   32.6540 C   0  0  0  0  0  0  0  0  0  0  0  0
   36.6160   27.7880   33.6830 C   0  0  0  0  0  0  0  0  0  0  0  0
   37.2540   27.4650   34.8670 C   0  0  0  0  0  0  0  0  0  0  0  0
   37.8490   26.2500   34.9610 N   0  0  0  0  0  0  0  0  0  0  0  0
   37.8490   25.3490   33.9640 C   0  0  0  0  0  0  0  0  0  0  0  0
   37.2330   25.6480   32.8080 N   0  0  0  0  0  0  0  0  0  0  0  0
   36.1520   26.9980   31.6880 H   0  0  0  0  0  0  0  0  0  0  0  0
   37.2150   28.2220   35.6100 H   0  0  0  0  0  0  0  0  0  0  0  0
   35.5810   29.8940   34.3630 C   0  0  0  0  0  0  0  0  0  0  0  0
   35.9140   29.0170   33.3460 C   0  0  0  0  0  0  0  0  0  0  0  0
   35.5430   29.3900   32.0680 C   0  0  0  0  0  0  0  0  0  0  0  0
   34.8720   30.5870   31.8410 C   0  0  0  0  0  0  0  0  0  0  0  0
   34.4020   31.1920   30.7400 N   0  0  0  0  0  0  0  0  0  0  0  0
   33.8290   32.3510   31.0860 C   0  0  0  0  0  0  0  0  0  0  0  0
   33.9210   32.5190   32.4430 N   0  0  0  0  0  0  0  0  0  0  0  0
   34.5630   31.4320   32.8970 C   0  0  0  0  0  0  0  0  0  0  0  0
   34.9190   31.0840   34.1660 C   0  0  0  0  0  0  0  0  0  0  0  0
   35.8500   29.6450   35.3770 H   0  0  0  0  0  0  0  0  0  0  0  0
   35.7910   28.7210   31.2550 H   0  0  0  0  0  0  0  0  0  0  0  0
   34.5040   30.7590   29.7800 H   0  0  0  0  0  0  0  0  0  0  0  0
   33.3790   33.0040   30.3320 H   0  0  0  0  0  0  0  0  0  0  0  0
   34.6850   31.7300   34.9880 H   0  0  0  0  0  0  0  0  0  0  0  0
   38.9250   23.8960   35.6550 C   0  0  1  0  0  3  0  0  0  0  0  0
   38.5380   24.0530   34.1950 C   0  0  1  0  0  3  0  0  0  0  0  0
   37.7620   22.9520   33.9020 O   0  0  0  0  0  0  0  0  0  0  0  0
   38.5330   21.9180   34.4760 C   0  0  0  0  0  2  0  0  0  0  0  0
   38.6340   22.4170   35.9040 C   0  0  2  0  0  3  0  0  0  0  0  0
   40.3040   24.0890   35.7870 O   0  0  0  0  0  0  0  0  0  0  0  0
   40.5590   25.0000   35.5070 H   0  0  0  0  0  0  0  0  0  0  0  0
   37.3980   22.2590   36.5420 O   0  0  0  0  0  0  0  0  0  0  0  0
   36.6880   22.2740   35.8490 H   0  0  0  0  0  0  0  0  0  0  0  0
  1  6  2  0  0  0  0
  1  2  1  0  0  0  0
  2  3  2  0  0  0  0
  3  4  1  0  0  0  0
  3  8  1  0  0  0  0
  5  4  2  0  0  0  0
  6  5  1  0  0  0  0
  7  1  1  0  0  0  0
  9 18  1  0  0  0  0
 10  2  1  0  0  0  0
 10  9  2  0  0  0  0
 11 10  1  0  0  0  0
 12 11  2  0  0  0  0
 12 16  1  0  0  0  0
 13 14  1  0  0  0  0
 13 12  1  0  0  0  0
 14 15  2  0  0  0  0
 15 16  1  0  0  0  0
 16 17  2  0  0  0  0
 17  9  1  0  0  0  0
 17 22  1  0  0  0  0
 19 11  1  0  0  0  0
 20 13  1  0  0  0  0
 21 14  1  0  0  0  0
 23 28  1  6  0  0  0
 23 27  1  0  0  0  0
 24  5  1  1  0  0  0
 24 23  1  0  0  0  0
 25 24  1  0  0  0  0
 25 26  1  0  0  0  0
 26 27  1  0  0  0  0
 27 30  1  1  0  0  0
 29 28  1  0  0  0  0
 31 30  1  0  0  0  0
M  END
>  <minimizedAffinity>
-5.3706069

$$$$
