
 OpenBabel03262520533D

 25 27  0  0  1  0  0  0  0  0999 V2000
   37.9090   30.6830   50.5010 C   0  0  2  0  0  0  0  0  0  0  0  0
   37.5750   29.2940   50.1550 C   0  0  0  0  0  0  0  0  0  0  0  0
   36.4860   30.3040   50.4450 C   0  0  2  0  0  0  0  0  0  0  0  0
   38.4590   30.8360   51.4710 H   0  0  0  0  0  0  0  0  0  0  0  0
   37.6950   28.8550   49.1530 H   0  0  0  0  0  0  0  0  0  0  0  0
   37.7540   28.5410   50.9500 H   0  0  0  0  0  0  0  0  0  0  0  0
   35.9980   30.2190   51.4610 H   0  0  0  0  0  0  0  0  0  0  0  0
   39.1190   33.7490   48.8070 C   0  0  0  0  0  0  0  0  0  0  0  0
   39.3610   33.3020   47.5060 C   0  0  0  0  0  0  0  0  0  0  0  0
   39.0960   31.9420   47.2130 C   0  0  0  0  0  0  0  0  0  0  0  0
   38.6180   31.1520   48.2270 N   0  0  0  0  0  0  0  0  0  0  0  0
   38.4010   31.6490   49.4790 C   0  0  0  0  0  0  0  0  0  0  0  0
   38.6520   32.9600   49.7770 N   0  0  0  0  0  0  0  0  0  0  0  0
   39.2950   34.7700   49.1080 H   0  0  0  0  0  0  0  0  0  0  0  0
   39.7330   33.9910   46.7870 H   0  0  0  0  0  0  0  0  0  0  0  0
   39.2750   31.5800   46.2250 H   0  0  0  0  0  0  0  0  0  0  0  0
   35.3800   29.8000   48.2190 C   0  0  1  0  0  0  0  0  0  0  0  0
   35.5280   30.7000   49.3910 C   0  0  1  0  0  0  0  0  0  0  0  0
   34.2340   30.6520   49.9600 O   0  0  0  0  0  0  0  0  0  0  0  0
   33.9020   29.2970   49.9730 C   0  0  0  0  0  0  0  0  0  0  0  0
   34.1470   28.9440   48.5150 C   0  0  2  0  0  0  0  0  0  0  0  0
   35.0810   30.4840   47.0320 O   0  0  0  0  0  0  0  0  0  0  0  0
   34.4300   30.0100   46.4580 H   0  0  0  0  0  0  0  0  0  0  0  0
   34.4110   27.5980   48.3490 O   0  0  0  0  0  0  0  0  0  0  0  0
   33.9610   27.1910   47.5880 H   0  0  0  0  0  0  0  0  0  0  0  0
  1  4  1  1  0  0  0
  2  3  1  0  0  0  0
  2  1  1  0  0  0  0
  2  6  1  0  0  0  0
  3  1  1  0  0  0  0
  3  7  1  1  0  0  0
  5  2  1  0  0  0  0
  8 14  1  0  0  0  0
  8 13  1  0  0  0  0
  9  8  2  0  0  0  0
 10  9  1  0  0  0  0
 10 11  2  0  0  0  0
 11 12  1  0  0  0  0
 12 13  2  0  0  0  0
 12  1  1  0  0  0  0
 15  9  1  0  0  0  0
 16 10  1  0  0  0  0
 17 22  1  6  0  0  0
 17 21  1  0  0  0  0
 17 18  1  0  0  0  0
 18 19  1  1  0  0  0
 18  3  1  0  0  0  0
 19 20  1  0  0  0  0
 21 24  1  1  0  0  0
 21 20  1  0  0  0  0
 23 22  1  0  0  0  0
 25 24  1  0  0  0  0
M  END
>  <minimizedAffinity>
-5.25917816

>  <minimizedRMSD>
2.6226213

$$$$
