
 OpenBabel03272508533D

 38 41  0  0  1  0  0  0  0  0999 V2000
   38.4030   31.8510   44.5520 C   0  0  0  0  0  0  0  0  0  0  0  0
   37.3030   32.4510   44.4400 O   0  0  0  0  0  0  0  0  0  0  0  0
   38.9340   31.5550   45.8580 N   0  0  0  0  0  0  0  0  0  0  0  0
   39.9000   31.2440   46.0190 H   0  0  0  0  0  0  0  0  0  0  0  0
   39.1770   31.4370   43.3670 C   0  0  0  0  0  0  0  0  0  0  0  0
   40.1820   30.5240   43.5320 C   0  0  0  0  0  0  0  0  0  0  0  0
   40.9020   30.1490   42.4090 C   0  0  0  0  0  0  0  0  0  0  0  0
   40.5640   30.7110   41.1990 C   0  0  0  0  0  0  0  0  0  0  0  0
   39.5350   31.6450   41.0290 C   0  0  0  0  0  0  0  0  0  0  0  0
   38.8740   31.9680   42.1620 N   0  0  0  0  0  0  0  0  0  0  0  0
   40.4550   30.0790   44.4710 H   0  0  0  0  0  0  0  0  0  0  0  0
   41.7000   29.4410   42.4660 H   0  0  0  0  0  0  0  0  0  0  0  0
   41.1030   30.4430   40.2990 H   0  0  0  0  0  0  0  0  0  0  0  0
   37.9040   31.7820   39.1450 C   0  0  1  0  0  3  0  0  0  0  0  0
   39.2340   32.2010   39.7040 C   0  0  2  0  0  3  0  0  0  0  0  0
   40.1930   31.8810   38.7540 O   0  0  0  0  0  0  0  0  0  0  0  0
   39.7240   30.8160   38.0240 C   0  0  0  0  0  2  0  0  0  0  0  0
   38.2280   30.8600   38.0120 C   0  0  2  0  0  3  0  0  0  0  0  0
   37.2000   31.0490   40.1110 O   0  0  0  0  0  0  0  0  0  0  0  0
   37.2960   30.0610   39.9800 H   0  0  0  0  0  0  0  0  0  0  0  0
   37.7180   31.3340   36.7910 O   0  0  0  0  0  0  0  0  0  0  0  0
   38.4840   31.6230   36.2190 H   0  0  0  0  0  0  0  0  0  0  0  0
   38.4100   31.1010   48.2500 C   0  0  2  0  0  0  0  0  0  0  0  0
   38.6800   32.5450   48.1430 C   0  0  0  0  0  0  0  0  0  0  0  0
   38.0450   31.7120   46.9970 C   0  0  1  0  0  0  0  0  0  0  0  0
   39.3420   30.4900   48.3400 H   0  0  0  0  0  0  0  0  0  0  0  0
   38.0050   33.3060   48.5450 H   0  0  0  0  0  0  0  0  0  0  0  0
   39.7110   32.9010   48.0040 H   0  0  0  0  0  0  0  0  0  0  0  0
   36.9770   31.9320   46.7890 H   0  0  0  0  0  0  0  0  0  0  0  0
   35.0780   30.1890   49.5680 C   0  0  0  0  0  0  0  0  0  0  0  0
   35.4010   29.5640   50.8150 C   0  0  0  0  0  0  0  0  0  0  0  0
   36.8000   29.4810   51.1680 C   0  0  0  0  0  0  0  0  0  0  0  0
   37.7220   29.9900   50.3220 N   0  0  0  0  0  0  0  0  0  0  0  0
   37.3420   30.5730   49.1520 C   0  0  0  0  0  0  0  0  0  0  0  0
   36.0280   30.6880   48.7470 N   0  0  0  0  0  0  0  0  0  0  0  0
   34.0230   30.2210   49.3580 H   0  0  0  0  0  0  0  0  0  0  0  0
   34.6440   29.1740   51.4530 H   0  0  0  0  0  0  0  0  0  0  0  0
   37.0750   29.0170   52.0950 H   0  0  0  0  0  0  0  0  0  0  0  0
  1  3  1  0  0  0  0
  2  1  2  0  0  0  0
  3  4  1  0  0  0  0
  3 25  1  0  0  0  0
  5  6  1  0  0  0  0
  5  1  1  0  0  0  0
  6 11  1  0  0  0  0
  7 12  1  0  0  0  0
  7  6  2  0  0  0  0
  8  7  1  0  0  0  0
  9  8  2  0  0  0  0
  9 10  1  0  0  0  0
 10  5  2  0  0  0  0
 13  8  1  0  0  0  0
 14 15  1  0  0  0  0
 14 19  1  1  0  0  0
 15  9  1  1  0  0  0
 16 15  1  0  0  0  0
 17 16  1  0  0  0  0
 18 21  1  6  0  0  0
 18 17  1  0  0  0  0
 18 14  1  0  0  0  0
 20 19  1  0  0  0  0
 22 21  1  0  0  0  0
 23 26  1  6  0  0  0
 23 34  1  0  0  0  0
 24 23  1  0  0  0  0
 24 27  1  0  0  0  0
 25 29  1  6  0  0  0
 25 24  1  0  0  0  0
 25 23  1  0  0  0  0
 28 24  1  0  0  0  0
 30 31  1  0  0  0  0
 31 32  2  0  0  0  0
 31 37  1  0  0  0  0
 32 38  1  0  0  0  0
 33 32  1  0  0  0  0
 34 33  2  0  0  0  0
 35 34  1  0  0  0  0
 35 30  2  0  0  0  0
 36 30  1  0  0  0  0
M  END
>  <minimizedAffinity>
-5.14082909

>  <minimizedRMSD>
0.19518055

$$$$
