
 OpenBabel03272501263D

 39 42  0  0  1  0  0  0  0  0999 V2000
   34.7600   29.7550   47.5370 C   0  0  0  0  0  0  0  0  0  0  0  0
   35.2780   29.9290   46.2550 C   0  0  0  0  0  0  0  0  0  0  0  0
   36.4740   30.6450   46.3960 C   0  0  0  0  0  0  0  0  0  0  0  0
   36.6270   30.8710   47.7220 N   0  0  0  0  0  0  0  0  0  0  0  0
   35.6010   30.3350   48.3690 N   0  0  0  0  0  0  0  0  0  0  0  0
   34.8710   29.5920   45.2950 H   0  0  0  0  0  0  0  0  0  0  0  0
   37.1460   30.9580   45.5890 H   0  0  0  0  0  0  0  0  0  0  0  0
   38.3420   32.5380   47.5480 N   0  0  0  0  0  0  0  0  0  0  0  0
   39.0540   33.3950   48.4760 C   0  0  0  0  0  0  0  0  0  0  0  0
   38.4510   33.1870   49.8390 C   0  0  0  0  0  0  0  0  0  0  0  0
   37.1720   32.4200   49.5010 C   0  0  0  0  0  0  0  0  0  0  0  0
   37.6770   31.5530   48.3730 C   0  0  1  0  0  0  0  0  0  0  0  0
   37.5900   33.0830   47.0700 H   0  0  0  0  0  0  0  0  0  0  0  0
   40.1200   33.0790   48.5220 H   0  0  0  0  0  0  0  0  0  0  0  0
   38.9980   34.4540   48.1550 H   0  0  0  0  0  0  0  0  0  0  0  0
   39.1040   32.6450   50.5260 H   0  0  0  0  0  0  0  0  0  0  0  0
   38.1400   34.1840   50.2430 H   0  0  0  0  0  0  0  0  0  0  0  0
   36.3670   33.0940   49.2020 H   0  0  0  0  0  0  0  0  0  0  0  0
   36.9010   31.7450   50.3420 H   0  0  0  0  0  0  0  0  0  0  0  0
   38.6000   30.5950   48.9170 N   0  0  0  0  0  0  0  0  0  0  0  0
   38.3300   30.3210   49.8780 H   0  0  0  0  0  0  0  0  0  0  0  0
   38.6580   29.7300   48.3360 H   0  0  0  0  0  0  0  0  0  0  0  0
   33.2050   28.4120   48.9900 C   0  0  0  0  0  0  0  0  0  0  0  0
   33.5100   29.0460   47.7640 C   0  0  0  0  0  0  0  0  0  0  0  0
   32.5550   28.9740   46.7410 C   0  0  0  0  0  0  0  0  0  0  0  0
   31.4080   28.3030   47.0000 N   0  0  0  0  0  0  0  0  0  0  0  0
   31.1440   27.7020   48.1910 C   0  0  0  0  0  0  0  0  0  0  0  0
   32.0730   27.7680   49.1980 N   0  0  0  0  0  0  0  0  0  0  0  0
   33.9330   28.4580   49.7900 H   0  0  0  0  0  0  0  0  0  0  0  0
   32.7250   29.4380   45.7780 H   0  0  0  0  0  0  0  0  0  0  0  0
   28.9760   27.4570   49.3760 C   0  0  1  0  0  0  0  0  0  0  0  0
   29.8130   27.0310   48.2170 C   0  0  1  0  0  0  0  0  0  0  0  0
   29.0750   27.3930   47.1190 O   0  0  0  0  0  0  0  0  0  0  0  0
   27.7360   27.3320   47.4100 C   0  0  0  0  0  0  0  0  0  0  0  0
   27.5860   27.0580   48.8770 C   0  0  2  0  0  0  0  0  0  0  0  0
   29.2060   26.7130   50.5310 O   0  0  0  0  0  0  0  0  0  0  0  0
   29.5340   25.8160   50.3530 H   0  0  0  0  0  0  0  0  0  0  0  0
   26.5970   27.8220   49.4750 O   0  0  0  0  0  0  0  0  0  0  0  0
   26.9320   28.7420   49.5720 H   0  0  0  0  0  0  0  0  0  0  0  0
  1 24  1  0  0  0  0
  1  5  2  0  0  0  0
  2  3  2  0  0  0  0
  2  1  1  0  0  0  0
  3  4  1  0  0  0  0
  4  5  1  0  0  0  0
  4 12  1  0  0  0  0
  6  2  1  0  0  0  0
  7  3  1  0  0  0  0
  8 12  1  0  0  0  0
  8  9  1  0  0  0  0
  9 14  1  0  0  0  0
  9 10  1  0  0  0  0
 10 17  1  0  0  0  0
 10 16  1  0  0  0  0
 11 10  1  0  0  0  0
 11 19  1  0  0  0  0
 12 20  1  1  0  0  0
 12 11  1  0  0  0  0
 13  8  1  0  0  0  0
 15  9  1  0  0  0  0
 18 11  1  0  0  0  0
 20 21  1  0  0  0  0
 22 20  1  0  0  0  0
 23 28  1  0  0  0  0
 23 29  1  0  0  0  0
 24 23  2  0  0  0  0
 25 26  2  0  0  0  0
 25 24  1  0  0  0  0
 26 27  1  0  0  0  0
 27 28  2  0  0  0  0
 30 25  1  0  0  0  0
 31 36  1  1  0  0  0
 32 27  1  6  0  0  0
 32 31  1  0  0  0  0
 33 34  1  0  0  0  0
 33 32  1  0  0  0  0
 34 35  1  0  0  0  0
 35 31  1  0  0  0  0
 35 38  1  1  0  0  0
 37 36  1  0  0  0  0
 38 39  1  0  0  0  0
M  END
>  <minimizedAffinity>
-6.39111042

>  <minimizedRMSD>
0.946234763

$$$$
