
 OpenBabel03272509033D

 33 35  0  0  1  0  0  0  0  0999 V2000
   37.2250   30.1560   51.5600 C   0  0  0  0  0  0  0  0  0  0  0  0
   38.0780   30.5830   50.5190 C   0  0  0  0  0  0  0  0  0  0  0  0
   37.7100   30.2420   49.2000 C   0  0  0  0  0  0  0  0  0  0  0  0
   36.5590   29.5250   49.0070 N   0  0  0  0  0  0  0  0  0  0  0  0
   35.7920   29.1520   50.0510 C   0  0  0  0  0  0  0  0  0  0  0  0
   36.1110   29.4580   51.3270 N   0  0  0  0  0  0  0  0  0  0  0  0
   37.5740   30.4550   52.5460 H   0  0  0  0  0  0  0  0  0  0  0  0
   38.9770   31.1410   50.6500 H   0  0  0  0  0  0  0  0  0  0  0  0
   37.8990   30.6260   46.7760 C   0  0  1  0  0  3  0  0  0  0  0  0
   38.5880   30.6780   48.0890 C   0  0  1  0  0  3  0  0  0  0  0  0
   39.0960   31.9460   48.2750 O   0  0  0  0  0  0  0  0  0  0  0  0
   38.3870   32.8230   47.4800 C   0  0  0  0  0  2  0  0  0  0  0  0
   37.5340   32.0680   46.5220 C   0  0  1  0  0  3  0  0  0  0  0  0
   38.7370   30.1640   45.7690 O   0  0  0  0  0  0  0  0  0  0  0  0
   38.4850   30.6500   44.9430 H   0  0  0  0  0  0  0  0  0  0  0  0
   37.7700   32.4230   45.2000 O   0  0  0  0  0  0  0  0  0  0  0  0
   37.4660   33.3380   45.0520 H   0  0  0  0  0  0  0  0  0  0  0  0
   34.6120   28.3910   49.7100 C   0  0  0  0  0  3  0  0  0  0  0  0
   34.3770   28.0940   48.4810 C   0  0  0  0  0  3  0  0  0  0  0  0
   33.2670   27.3320   47.8930 C   0  0  0  0  0  0  0  0  0  0  0  0
   32.6830   26.8750   48.7270 H   0  0  0  0  0  0  0  0  0  0  0  0
   32.5680   27.9810   47.3460 H   0  0  0  0  0  0  0  0  0  0  0  0
   33.7200   26.2470   46.9640 C   0  0  0  0  0  0  0  0  0  0  0  0
   33.9620   24.9320   47.3340 C   0  0  0  0  0  0  0  0  0  0  0  0
   34.3780   24.0200   46.3730 C   0  0  0  0  0  0  0  0  0  0  0  0
   34.5580   24.3930   45.0420 C   0  0  0  0  0  0  0  0  0  0  0  0
   34.3150   25.7060   44.6770 C   0  0  0  0  0  0  0  0  0  0  0  0
   33.9000   26.6190   45.6390 C   0  0  0  0  0  0  0  0  0  0  0  0
   33.8090   24.6960   48.3750 H   0  0  0  0  0  0  0  0  0  0  0  0
   34.5500   23.0130   46.7170 H   0  0  0  0  0  0  0  0  0  0  0  0
   34.8810   23.6040   44.3800 H   0  0  0  0  0  0  0  0  0  0  0  0
   34.4640   25.9600   43.6420 H   0  0  0  0  0  0  0  0  0  0  0  0
   33.7380   27.6130   45.2570 H   0  0  0  0  0  0  0  0  0  0  0  0
  1  7  1  0  0  0  0
  2  8  1  0  0  0  0
  2  1  2  0  0  0  0
  3  2  1  0  0  0  0
  4  3  2  0  0  0  0
  4  5  1  0  0  0  0
  5  6  2  0  0  0  0
  6  1  1  0  0  0  0
  9 14  1  6  0  0  0
  9 10  1  0  0  0  0
 10 11  1  0  0  0  0
 10  3  1  1  0  0  0
 12 11  1  0  0  0  0
 13 16  1  6  0  0  0
 13  9  1  0  0  0  0
 13 12  1  0  0  0  0
 15 14  1  0  0  0  0
 17 16  1  0  0  0  0
 18  5  1  0  0  0  0
 19 18  2  0  0  0  0
 20 19  1  0  0  0  0
 20 21  1  0  0  0  0
 22 20  1  0  0  0  0
 23 24  1  0  0  0  0
 23 20  1  0  0  0  0
 24 29  1  0  0  0  0
 25 30  1  0  0  0  0
 25 24  2  0  0  0  0
 26 25  1  0  0  0  0
 27 26  2  0  0  0  0
 27 28  1  0  0  0  0
 28 23  2  0  0  0  0
 31 26  1  0  0  0  0
 32 27  1  0  0  0  0
 33 28  1  0  0  0  0
M  END
>  <minimizedAffinity>
-5.30417156

>  <minimizedRMSD>
0.410407841

$$$$
