
 OpenBabel03272508053D

 35 38  0  0  1  0  0  0  0  0999 V2000
   38.8870   30.8880   45.7740 C   0  0  0  0  0  0  0  0  0  0  0  0
   40.1140   31.4260   46.0570 C   0  0  0  0  0  0  0  0  0  0  0  0
   40.9370   31.3940   44.9400 C   0  0  0  0  0  0  0  0  0  0  0  0
   40.1460   30.8160   43.9890 N   0  0  0  0  0  0  0  0  0  0  0  0
   38.9610   30.5230   44.4710 N   0  0  0  0  0  0  0  0  0  0  0  0
   40.4420   31.8330   47.0100 H   0  0  0  0  0  0  0  0  0  0  0  0
   41.9490   31.7220   44.7870 H   0  0  0  0  0  0  0  0  0  0  0  0
   37.7490   30.7330   46.6590 C   0  0  0  0  0  0  0  0  0  0  0  0
   37.9650   30.9620   48.0450 C   0  0  0  0  0  0  0  0  0  0  0  0
   36.8800   30.8160   48.9040 C   0  0  0  0  0  0  0  0  0  0  0  0
   35.6850   30.4630   48.3680 N   0  0  0  0  0  0  0  0  0  0  0  0
   35.5070   30.2510   47.0430 C   0  0  0  0  0  0  0  0  0  0  0  0
   36.5510   30.3900   46.2020 N   0  0  0  0  0  0  0  0  0  0  0  0
   38.9140   31.2430   48.4730 H   0  0  0  0  0  0  0  0  0  0  0  0
   34.5210   29.9690   46.6640 H   0  0  0  0  0  0  0  0  0  0  0  0
   37.0920   31.0540   50.3670 C   0  0  0  0  0  0  0  0  0  0  0  0
   36.5650   32.2910   50.6150 F   0  0  0  0  0  0  0  0  0  0  0  0
   36.4140   30.1140   51.1460 F   0  0  0  0  0  0  0  0  0  0  0  0
   38.4370   31.0410   50.7040 F   0  0  0  0  0  0  0  0  0  0  0  0
   40.4870   30.5300   42.6010 C   0  0  0  0  0  0  0  0  0  0  0  0
   40.0310   31.3550   41.5580 C   0  0  0  0  0  0  0  0  0  0  0  0
   40.3960   31.0380   40.2820 C   0  0  0  0  0  0  0  0  0  0  0  0
   41.2160   29.8950   40.0420 C   0  0  0  0  0  0  0  0  0  0  0  0
   41.4740   29.2460   41.7580 S   0  0  0  0  0  0  0  0  0  0  0  0
   39.4090   32.2260   41.7000 H   0  0  0  0  0  0  0  0  0  0  0  0
   40.1540   31.5360   39.3570 H   0  0  0  0  0  0  0  0  0  0  0  0
   42.9040   30.0530   38.3430 C   0  0  2  0  0  3  0  0  0  0  0  0
   41.7840   29.2560   38.9370 C   0  0  1  0  0  3  0  0  0  0  0  0
   42.4370   28.0700   39.3520 O   0  0  0  0  0  0  0  0  0  0  0  0
   43.1390   27.6640   38.2140 C   0  0  0  0  0  2  0  0  0  0  0  0
   43.7610   28.9420   37.7300 C   0  0  2  0  0  3  0  0  0  0  0  0
   43.6410   30.6140   39.3790 O   0  0  0  0  0  0  0  0  0  0  0  0
   44.1630   31.4060   39.0950 H   0  0  0  0  0  0  0  0  0  0  0  0
   45.0960   29.0610   38.0700 O   0  0  0  0  0  0  0  0  0  0  0  0
   45.3990   28.4510   38.7790 H   0  0  0  0  0  0  0  0  0  0  0  0
  1  2  1  0  0  0  0
  1  8  1  0  0  0  0
  2  6  1  0  0  0  0
  3  2  2  0  0  0  0
  4  5  1  0  0  0  0
  4  3  1  0  0  0  0
  5  1  2  0  0  0  0
  7  3  1  0  0  0  0
  8  9  1  0  0  0  0
  9 14  1  0  0  0  0
  9 10  2  0  0  0  0
 10 16  1  0  0  0  0
 11 10  1  0  0  0  0
 12 11  2  0  0  0  0
 13  8  2  0  0  0  0
 13 12  1  0  0  0  0
 15 12  1  0  0  0  0
 16 17  1  0  0  0  0
 16 19  1  0  0  0  0
 16 18  1  0  0  0  0
 20  4  1  0  0  0  0
 21 25  1  0  0  0  0
 21 20  2  0  0  0  0
 22 21  1  0  0  0  0
 23 22  2  0  0  0  0
 23 24  1  0  0  0  0
 24 20  1  0  0  0  0
 26 22  1  0  0  0  0
 27 28  1  0  0  0  0
 27 32  1  1  0  0  0
 28 29  1  0  0  0  0
 28 23  1  1  0  0  0
 30 29  1  0  0  0  0
 31 34  1  1  0  0  0
 31 30  1  0  0  0  0
 31 27  1  0  0  0  0
 33 32  1  0  0  0  0
 34 35  1  0  0  0  0
M  END
>  <minimizedAffinity>
-6.69453287

>  <minimizedRMSD>
0.592615128

$$$$
