
 OpenBabel03272505463D

 25 27  0  0  1  0  0  0  0  0999 V2000
   38.4330   25.0390   35.0340 C   0  0  0  0  0  0  0  0  0  0  0  0
   39.2020   26.2380   35.2690 C   0  0  0  0  0  0  0  0  0  0  0  0
   39.9430   24.9660   35.0400 C   0  0  0  0  0  0  0  0  0  0  0  0
   39.2540   26.9610   34.4050 H   0  0  0  0  0  0  0  0  0  0  0  0
   39.2340   26.7190   36.2700 H   0  0  0  0  0  0  0  0  0  0  0  0
   40.4850   24.5820   35.9290 H   0  0  0  0  0  0  0  0  0  0  0  0
   40.3970   24.7360   34.0740 H   0  0  0  0  0  0  0  0  0  0  0  0
   36.5700   25.5550   31.8830 C   0  0  0  0  0  0  0  0  0  0  0  0
   36.4660   24.2590   31.3710 C   0  0  0  0  0  0  0  0  0  0  0  0
   37.0350   23.1950   32.0810 C   0  0  0  0  0  0  0  0  0  0  0  0
   37.6540   23.5000   33.2340 N   0  0  0  0  0  0  0  0  0  0  0  0
   37.7510   24.7710   33.7260 C   0  0  0  0  0  0  0  0  0  0  0  0
   37.2020   25.8050   33.0400 N   0  0  0  0  0  0  0  0  0  0  0  0
   36.1130   26.3560   31.2960 H   0  0  0  0  0  0  0  0  0  0  0  0
   35.9470   24.0710   30.4250 H   0  0  0  0  0  0  0  0  0  0  0  0
   36.9820   22.1830   31.7300 H   0  0  0  0  0  0  0  0  0  0  0  0
   38.4330   23.0060   36.5270 C   0  0  1  0  0  3  0  0  0  0  0  0
   37.8160   24.3550   36.2550 C   0  0  1  0  0  3  0  0  0  0  0  0
   38.0940   25.1470   37.3660 O   0  0  0  0  0  0  0  0  0  0  0  0
   38.0590   24.3240   38.4730 C   0  0  0  0  0  2  0  0  0  0  0  0
   38.5390   22.9720   38.0180 C   0  0  2  0  0  3  0  0  0  0  0  0
   37.4940   22.0220   36.1480 O   0  0  0  0  0  0  0  0  0  0  0  0
   36.5830   22.3250   36.3930 H   0  0  0  0  0  0  0  0  0  0  0  0
   39.8170   22.6530   38.4640 O   0  0  0  0  0  0  0  0  0  0  0  0
   39.9210   21.6940   38.6470 H   0  0  0  0  0  0  0  0  0  0  0  0
  1  3  1  0  0  0  0
  1  2  1  0  0  0  0
  2  5  1  0  0  0  0
  3  2  1  0  0  0  0
  3  6  1  0  0  0  0
  4  2  1  0  0  0  0
  7  3  1  0  0  0  0
  8 13  1  0  0  0  0
  9  8  2  0  0  0  0
  9 10  1  0  0  0  0
 10 11  2  0  0  0  0
 11 12  1  0  0  0  0
 12  1  1  0  0  0  0
 13 12  2  0  0  0  0
 14  8  1  0  0  0  0
 15  9  1  0  0  0  0
 16 10  1  0  0  0  0
 17 22  1  1  0  0  0
 17 21  1  0  0  0  0
 18  1  1  6  0  0  0
 18 17  1  0  0  0  0
 18 19  1  0  0  0  0
 19 20  1  0  0  0  0
 21 24  1  6  0  0  0
 21 20  1  0  0  0  0
 22 23  1  0  0  0  0
 24 25  1  0  0  0  0
M  END
>  <minimizedAffinity>
-4.79573154

$$$$

 OpenBabel03272505463D

 25 27  0  0  1  0  0  0  0  0999 V2000
   38.1180   26.2380   35.1530 C   0  0  0  0  0  0  0  0  0  0  0  0
   38.5970   27.2950   36.0130 C   0  0  0  0  0  0  0  0  0  0  0  0
   39.5800   26.6200   35.1210 C   0  0  0  0  0  0  0  0  0  0  0  0
   38.3290   28.3430   35.6930 H   0  0  0  0  0  0  0  0  0  0  0  0
   38.6700   27.1580   37.1140 H   0  0  0  0  0  0  0  0  0  0  0  0
   40.3360   26.0050   35.6500 H   0  0  0  0  0  0  0  0  0  0  0  0
   39.9150   27.0810   34.1890 H   0  0  0  0  0  0  0  0  0  0  0  0
   36.4290   25.7850   31.8960 C   0  0  0  0  0  0  0  0  0  0  0  0
   35.9080   27.0560   31.6390 C   0  0  0  0  0  0  0  0  0  0  0  0
   36.1140   28.0810   32.5710 C   0  0  0  0  0  0  0  0  0  0  0  0
   36.8160   27.7640   33.6730 N   0  0  0  0  0  0  0  0  0  0  0  0
   37.3210   26.5170   33.9150 C   0  0  0  0  0  0  0  0  0  0  0  0
   37.1220   25.5210   33.0140 N   0  0  0  0  0  0  0  0  0  0  0  0
   36.2450   25.0140   31.1420 H   0  0  0  0  0  0  0  0  0  0  0  0
   35.3450   27.2550   30.7220 H   0  0  0  0  0  0  0  0  0  0  0  0
   35.7350   29.0720   32.4210 H   0  0  0  0  0  0  0  0  0  0  0  0
   38.9180   23.8550   35.3490 C   0  0  1  0  0  3  0  0  0  0  0  0
   37.8930   24.8670   35.7920 C   0  0  1  0  0  3  0  0  0  0  0  0
   38.0510   25.0130   37.1670 O   0  0  0  0  0  0  0  0  0  0  0  0
   38.4030   23.7770   37.6700 C   0  0  0  0  0  2  0  0  0  0  0  0
   39.2110   23.0930   36.6010 C   0  0  2  0  0  3  0  0  0  0  0  0
   38.2830   22.9670   34.4530 O   0  0  0  0  0  0  0  0  0  0  0  0
   37.3610   22.7870   34.7660 H   0  0  0  0  0  0  0  0  0  0  0  0
   40.5710   23.0210   36.8870 O   0  0  0  0  0  0  0  0  0  0  0  0
   40.9830   22.1990   36.5430 H   0  0  0  0  0  0  0  0  0  0  0  0
  1  2  1  0  0  0  0
  2  5  1  0  0  0  0
  3  1  1  0  0  0  0
  3  6  1  0  0  0  0
  3  2  1  0  0  0  0
  4  2  1  0  0  0  0
  7  3  1  0  0  0  0
  8 13  1  0  0  0  0
  9  8  2  0  0  0  0
  9 10  1  0  0  0  0
 10 11  2  0  0  0  0
 11 12  1  0  0  0  0
 12  1  1  0  0  0  0
 13 12  2  0  0  0  0
 14  8  1  0  0  0  0
 15  9  1  0  0  0  0
 16 10  1  0  0  0  0
 17 22  1  6  0  0  0
 17 18  1  0  0  0  0
 17 21  1  0  0  0  0
 18  1  1  6  0  0  0
 18 19  1  0  0  0  0
 19 20  1  0  0  0  0
 21 24  1  1  0  0  0
 21 20  1  0  0  0  0
 22 23  1  0  0  0  0
 25 24  1  0  0  0  0
M  END
>  <minimizedAffinity>
-4.67727852

$$$$

 OpenBabel03272505463D

 25 27  0  0  1  0  0  0  0  0999 V2000
   38.5040   23.7400   36.3070 C   0  0  0  0  0  0  0  0  0  0  0  0
   37.6660   22.5690   36.2110 C   0  0  0  0  0  0  0  0  0  0  0  0
   37.6220   23.3570   37.4730 C   0  0  0  0  0  0  0  0  0  0  0  0
   36.7460   22.6790   35.5680 H   0  0  0  0  0  0  0  0  0  0  0  0
   38.0990   21.5440   36.2170 H   0  0  0  0  0  0  0  0  0  0  0  0
   38.0480   22.8380   38.3560 H   0  0  0  0  0  0  0  0  0  0  0  0
   36.8080   24.0540   37.6830 H   0  0  0  0  0  0  0  0  0  0  0  0
   37.4740   26.1300   33.6810 C   0  0  0  0  0  0  0  0  0  0  0  0
   37.6180   27.3660   34.3160 C   0  0  0  0  0  0  0  0  0  0  0  0
   38.0560   27.4060   35.6450 C   0  0  0  0  0  0  0  0  0  0  0  0
   38.3150   26.2250   36.2320 N   0  0  0  0  0  0  0  0  0  0  0  0
   38.1710   25.0200   35.6020 C   0  0  0  0  0  0  0  0  0  0  0  0
   37.7450   24.9780   34.3140 N   0  0  0  0  0  0  0  0  0  0  0  0
   37.1290   26.1440   32.6440 H   0  0  0  0  0  0  0  0  0  0  0  0
   37.3920   28.2970   33.7850 H   0  0  0  0  0  0  0  0  0  0  0  0
   38.1820   28.3280   36.1760 H   0  0  0  0  0  0  0  0  0  0  0  0
   40.3690   22.0580   36.5380 C   0  0  1  0  0  3  0  0  0  0  0  0
   39.9880   23.5150   36.6060 C   0  0  1  0  0  3  0  0  0  0  0  0
   40.7190   24.1610   35.6130 O   0  0  0  0  0  0  0  0  0  0  0  0
   41.9440   23.5310   35.5350 C   0  0  0  0  0  2  0  0  0  0  0  0
   41.7060   22.0850   35.8710 C   0  0  2  0  0  3  0  0  0  0  0  0
   40.5660   21.6060   37.8610 O   0  0  0  0  0  0  0  0  0  0  0  0
   41.0090   22.3170   38.3900 H   0  0  0  0  0  0  0  0  0  0  0  0
   41.7810   21.2350   34.7710 O   0  0  0  0  0  0  0  0  0  0  0  0
   42.1510   20.3560   35.0030 H   0  0  0  0  0  0  0  0  0  0  0  0
  1  3  1  0  0  0  0
  2  5  1  0  0  0  0
  2  1  1  0  0  0  0
  2  3  1  0  0  0  0
  3  7  1  0  0  0  0
  3  6  1  0  0  0  0
  4  2  1  0  0  0  0
  8 13  2  0  0  0  0
  8  9  1  0  0  0  0
  9 10  2  0  0  0  0
 10 16  1  0  0  0  0
 10 11  1  0  0  0  0
 12 11  2  0  0  0  0
 12  1  1  0  0  0  0
 13 12  1  0  0  0  0
 14  8  1  0  0  0  0
 15  9  1  0  0  0  0
 17 18  1  0  0  0  0
 17 22  1  1  0  0  0
 18  1  1  6  0  0  0
 19 18  1  0  0  0  0
 20 19  1  0  0  0  0
 20 21  1  0  0  0  0
 21 24  1  6  0  0  0
 21 17  1  0  0  0  0
 22 23  1  0  0  0  0
 24 25  1  0  0  0  0
M  END
>  <minimizedAffinity>
-4.50658655

$$$$

 OpenBabel03272505463D

 25 27  0  0  1  0  0  0  0  0999 V2000
   38.6130   23.6900   34.5230 C   0  0  0  0  0  0  0  0  0  0  0  0
   37.7170   22.9090   33.7040 C   0  0  0  0  0  0  0  0  0  0  0  0
   39.1740   22.6110   33.6260 C   0  0  0  0  0  0  0  0  0  0  0  0
   37.1170   22.1250   34.2490 H   0  0  0  0  0  0  0  0  0  0  0  0
   37.1990   23.3530   32.8260 H   0  0  0  0  0  0  0  0  0  0  0  0
   39.6470   22.8730   32.6570 H   0  0  0  0  0  0  0  0  0  0  0  0
   39.6110   21.7580   34.1490 H   0  0  0  0  0  0  0  0  0  0  0  0
   37.8260   23.6130   38.1350 C   0  0  0  0  0  0  0  0  0  0  0  0
   39.0040   23.1140   38.6960 C   0  0  0  0  0  0  0  0  0  0  0  0
   40.0770   22.7870   37.8570 C   0  0  0  0  0  0  0  0  0  0  0  0
   39.8960   22.9830   36.5400 N   0  0  0  0  0  0  0  0  0  0  0  0
   38.7390   23.4710   36.0010 C   0  0  0  0  0  0  0  0  0  0  0  0
   37.6970   23.7870   36.8110 N   0  0  0  0  0  0  0  0  0  0  0  0
   37.0130   23.8540   38.8250 H   0  0  0  0  0  0  0  0  0  0  0  0
   39.0940   22.9770   39.7790 H   0  0  0  0  0  0  0  0  0  0  0  0
   41.0010   22.4010   38.2390 H   0  0  0  0  0  0  0  0  0  0  0  0
   37.9850   26.1320   34.5110 C   0  0  1  0  0  3  0  0  0  0  0  0
   38.9660   25.0940   34.0290 C   0  0  1  0  0  3  0  0  0  0  0  0
   40.2000   25.4350   34.5750 O   0  0  0  0  0  0  0  0  0  0  0  0
   40.2620   26.8120   34.6150 C   0  0  0  0  0  2  0  0  0  0  0  0
   38.8580   27.2980   34.8480 C   0  0  2  0  0  3  0  0  0  0  0  0
   37.1840   26.5080   33.4100 O   0  0  0  0  0  0  0  0  0  0  0  0
   37.7440   26.5470   32.5940 H   0  0  0  0  0  0  0  0  0  0  0  0
   38.6400   27.7870   36.1320 O   0  0  0  0  0  0  0  0  0  0  0  0
   38.0010   28.5330   36.1450 H   0  0  0  0  0  0  0  0  0  0  0  0
  1 12  1  0  0  0  0
  2  4  1  0  0  0  0
  2  1  1  0  0  0  0
  3  2  1  0  0  0  0
  3  7  1  0  0  0  0
  3  1  1  0  0  0  0
  5  2  1  0  0  0  0
  6  3  1  0  0  0  0
  8  9  1  0  0  0  0
  8 14  1  0  0  0  0
  9 15  1  0  0  0  0
 10 16  1  0  0  0  0
 10  9  2  0  0  0  0
 11 10  1  0  0  0  0
 12 11  2  0  0  0  0
 12 13  1  0  0  0  0
 13  8  2  0  0  0  0
 17 22  1  6  0  0  0
 17 21  1  0  0  0  0
 18 17  1  0  0  0  0
 18  1  1  1  0  0  0
 18 19  1  0  0  0  0
 19 20  1  0  0  0  0
 20 21  1  0  0  0  0
 21 24  1  1  0  0  0
 23 22  1  0  0  0  0
 24 25  1  0  0  0  0
M  END
>  <minimizedAffinity>
-4.48317337

$$$$

 OpenBabel03272505463D

 25 27  0  0  1  0  0  0  0  0999 V2000
   38.7310   26.0250   34.8200 C   0  0  0  0  0  0  0  0  0  0  0  0
   39.6670   27.0770   34.5000 C   0  0  0  0  0  0  0  0  0  0  0  0
   38.7060   27.3110   35.6140 C   0  0  0  0  0  0  0  0  0  0  0  0
   40.7290   26.9050   34.8390 H   0  0  0  0  0  0  0  0  0  0  0  0
   39.5760   27.6680   33.5630 H   0  0  0  0  0  0  0  0  0  0  0  0
   37.9400   28.0860   35.4060 H   0  0  0  0  0  0  0  0  0  0  0  0
   39.0080   27.2130   36.6580 H   0  0  0  0  0  0  0  0  0  0  0  0
   38.7080   23.1740   37.1740 C   0  0  0  0  0  0  0  0  0  0  0  0
   39.9360   22.5580   36.9230 C   0  0  0  0  0  0  0  0  0  0  0  0
   40.7840   23.0940   35.9460 C   0  0  0  0  0  0  0  0  0  0  0  0
   40.3480   24.1900   35.3030 N   0  0  0  0  0  0  0  0  0  0  0  0
   39.1440   24.7860   35.5560 C   0  0  0  0  0  0  0  0  0  0  0  0
   38.3200   24.2680   36.5010 N   0  0  0  0  0  0  0  0  0  0  0  0
   38.0770   22.7230   37.9440 H   0  0  0  0  0  0  0  0  0  0  0  0
   40.2380   21.6650   37.4810 H   0  0  0  0  0  0  0  0  0  0  0  0
   41.7360   22.6570   35.7160 H   0  0  0  0  0  0  0  0  0  0  0  0
   37.5430   26.8350   32.7480 C   0  0  1  0  0  3  0  0  0  0  0  0
   37.5070   25.8800   33.9140 C   0  0  1  0  0  3  0  0  0  0  0  0
   37.5340   24.5970   33.3740 O   0  0  0  0  0  0  0  0  0  0  0  0
   36.8200   24.6370   32.1930 C   0  0  0  0  0  2  0  0  0  0  0  0
   37.0280   26.0100   31.6140 C   0  0  2  0  0  3  0  0  0  0  0  0
   36.5930   27.8500   32.9980 O   0  0  0  0  0  0  0  0  0  0  0  0
   35.7910   27.4530   33.4220 H   0  0  0  0  0  0  0  0  0  0  0  0
   37.8670   26.0280   30.5040 O   0  0  0  0  0  0  0  0  0  0  0  0
   37.6060   26.7100   29.8480 H   0  0  0  0  0  0  0  0  0  0  0  0
  1 12  1  0  0  0  0
  1  3  1  0  0  0  0
  2  1  1  0  0  0  0
  2  4  1  0  0  0  0
  2  3  1  0  0  0  0
  3  7  1  0  0  0  0
  5  2  1  0  0  0  0
  6  3  1  0  0  0  0
  8 14  1  0  0  0  0
  9  8  1  0  0  0  0
  9 15  1  0  0  0  0
 10  9  2  0  0  0  0
 11 12  2  0  0  0  0
 11 10  1  0  0  0  0
 12 13  1  0  0  0  0
 13  8  2  0  0  0  0
 16 10  1  0  0  0  0
 17 22  1  1  0  0  0
 17 18  1  0  0  0  0
 18  1  1  1  0  0  0
 19 18  1  0  0  0  0
 20 19  1  0  0  0  0
 21 24  1  6  0  0  0
 21 20  1  0  0  0  0
 21 17  1  0  0  0  0
 22 23  1  0  0  0  0
 25 24  1  0  0  0  0
M  END
>  <minimizedAffinity>
-4.47029209

$$$$

 OpenBabel03272505463D

 25 27  0  0  1  0  0  0  0  0999 V2000
   40.0430   23.3140   35.0440 C   0  0  0  0  0  0  0  0  0  0  0  0
   41.4420   22.9570   35.0410 C   0  0  0  0  0  0  0  0  0  0  0  0
   40.5500   22.2990   34.0460 C   0  0  0  0  0  0  0  0  0  0  0  0
   42.1390   23.7230   34.5970 H   0  0  0  0  0  0  0  0  0  0  0  0
   41.8880   22.3540   35.8620 H   0  0  0  0  0  0  0  0  0  0  0  0
   40.3920   21.2140   34.2150 H   0  0  0  0  0  0  0  0  0  0  0  0
   40.5210   22.6240   33.0040 H   0  0  0  0  0  0  0  0  0  0  0  0
   39.4470   26.9370   34.6100 C   0  0  0  0  0  0  0  0  0  0  0  0
   38.6020   26.9790   33.4980 C   0  0  0  0  0  0  0  0  0  0  0  0
   38.2310   25.7810   32.8740 C   0  0  0  0  0  0  0  0  0  0  0  0
   38.7240   24.6470   33.4020 N   0  0  0  0  0  0  0  0  0  0  0  0
   39.5500   24.6170   34.4900 C   0  0  0  0  0  0  0  0  0  0  0  0
   39.9120   25.7760   35.0960 N   0  0  0  0  0  0  0  0  0  0  0  0
   39.7120   27.8950   35.0650 H   0  0  0  0  0  0  0  0  0  0  0  0
   38.2310   27.9350   33.1130 H   0  0  0  0  0  0  0  0  0  0  0  0
   37.5870   25.7600   32.0190 H   0  0  0  0  0  0  0  0  0  0  0  0
   39.6200   23.0250   37.5130 C   0  0  1  0  0  3  0  0  0  0  0  0
   39.1620   22.6760   36.1200 C   0  0  1  0  0  3  0  0  0  0  0  0
   37.8810   23.2040   35.9820 O   0  0  0  0  0  0  0  0  0  0  0  0
   37.2610   23.0960   37.2100 C   0  0  0  0  0  2  0  0  0  0  0  0
   38.3380   23.2480   38.2490 C   0  0  2  0  0  3  0  0  0  0  0  0
   40.2280   21.8750   38.0640 O   0  0  0  0  0  0  0  0  0  0  0  0
   39.7240   21.0700   37.7830 H   0  0  0  0  0  0  0  0  0  0  0  0
   38.3010   24.4670   38.9180 O   0  0  0  0  0  0  0  0  0  0  0  0
   38.5790   24.3880   39.8570 H   0  0  0  0  0  0  0  0  0  0  0  0
  2  1  1  0  0  0  0
  2  5  1  0  0  0  0
  3  6  1  0  0  0  0
  3  2  1  0  0  0  0
  3  1  1  0  0  0  0
  4  2  1  0  0  0  0
  7  3  1  0  0  0  0
  8 14  1  0  0  0  0
  8 13  1  0  0  0  0
  9  8  2  0  0  0  0
 10 11  2  0  0  0  0
 10  9  1  0  0  0  0
 11 12  1  0  0  0  0
 12  1  1  0  0  0  0
 12 13  2  0  0  0  0
 15  9  1  0  0  0  0
 16 10  1  0  0  0  0
 17 22  1  1  0  0  0
 17 21  1  0  0  0  0
 18  1  1  6  0  0  0
 18 17  1  0  0  0  0
 19 18  1  0  0  0  0
 19 20  1  0  0  0  0
 20 21  1  0  0  0  0
 21 24  1  6  0  0  0
 23 22  1  0  0  0  0
 24 25  1  0  0  0  0
M  END
>  <minimizedAffinity>
-4.42297983

$$$$

 OpenBabel03272505463D

 25 27  0  0  1  0  0  0  0  0999 V2000
   38.5520   23.4360   36.3960 C   0  0  0  0  0  0  0  0  0  0  0  0
   37.6710   23.2460   37.5240 C   0  0  0  0  0  0  0  0  0  0  0  0
   37.9430   24.6410   37.0770 C   0  0  0  0  0  0  0  0  0  0  0  0
   36.6340   22.8790   37.2760 H   0  0  0  0  0  0  0  0  0  0  0  0
   38.0560   22.9000   38.5080 H   0  0  0  0  0  0  0  0  0  0  0  0
   38.5390   25.2460   37.7910 H   0  0  0  0  0  0  0  0  0  0  0  0
   37.2230   25.1970   36.4730 H   0  0  0  0  0  0  0  0  0  0  0  0
   37.7190   23.9290   32.8280 C   0  0  0  0  0  0  0  0  0  0  0  0
   37.2670   22.6660   32.4390 C   0  0  0  0  0  0  0  0  0  0  0  0
   37.2480   21.6270   33.3790 C   0  0  0  0  0  0  0  0  0  0  0  0
   37.6740   21.9250   34.6180 N   0  0  0  0  0  0  0  0  0  0  0  0
   38.1150   23.1650   34.9880 C   0  0  0  0  0  0  0  0  0  0  0  0
   38.1360   24.1730   34.0790 N   0  0  0  0  0  0  0  0  0  0  0  0
   37.7180   24.7110   32.0630 H   0  0  0  0  0  0  0  0  0  0  0  0
   36.9300   22.4830   31.4130 H   0  0  0  0  0  0  0  0  0  0  0  0
   36.9110   20.6410   33.1300 H   0  0  0  0  0  0  0  0  0  0  0  0
   40.5330   21.8940   36.6320 C   0  0  1  0  0  3  0  0  0  0  0  0
   40.0550   23.3230   36.6570 C   0  0  1  0  0  3  0  0  0  0  0  0
   40.7120   23.9770   35.6180 O   0  0  0  0  0  0  0  0  0  0  0  0
   41.9750   23.4290   35.5270 C   0  0  0  0  0  2  0  0  0  0  0  0
   41.8460   21.9840   35.9230 C   0  0  2  0  0  3  0  0  0  0  0  0
   40.7970   21.5070   37.9640 O   0  0  0  0  0  0  0  0  0  0  0  0
   41.2060   22.2670   38.4520 H   0  0  0  0  0  0  0  0  0  0  0  0
   41.9480   21.0990   34.8540 O   0  0  0  0  0  0  0  0  0  0  0  0
   42.3820   20.2560   35.1060 H   0  0  0  0  0  0  0  0  0  0  0  0
  1  3  1  0  0  0  0
  1  2  1  0  0  0  0
  2  5  1  0  0  0  0
  3  2  1  0  0  0  0
  3  6  1  0  0  0  0
  4  2  1  0  0  0  0
  7  3  1  0  0  0  0
  8 13  1  0  0  0  0
  9  8  2  0  0  0  0
  9 10  1  0  0  0  0
 10 11  2  0  0  0  0
 11 12  1  0  0  0  0
 12  1  1  0  0  0  0
 13 12  2  0  0  0  0
 14  8  1  0  0  0  0
 15  9  1  0  0  0  0
 16 10  1  0  0  0  0
 17 18  1  0  0  0  0
 17 22  1  1  0  0  0
 18  1  1  6  0  0  0
 19 18  1  0  0  0  0
 20 19  1  0  0  0  0
 20 21  1  0  0  0  0
 21 24  1  6  0  0  0
 21 17  1  0  0  0  0
 22 23  1  0  0  0  0
 24 25  1  0  0  0  0
M  END
>  <minimizedAffinity>
-4.35690689

$$$$

 OpenBabel03272505463D

 25 27  0  0  1  0  0  0  0  0999 V2000
   39.0110   25.5190   32.5080 C   0  0  0  0  0  0  0  0  0  0  0  0
   40.0180   26.2150   31.7440 C   0  0  0  0  0  0  0  0  0  0  0  0
   40.0900   24.7290   31.8050 C   0  0  0  0  0  0  0  0  0  0  0  0
   39.6820   26.6170   30.7450 H   0  0  0  0  0  0  0  0  0  0  0  0
   40.8050   26.8240   32.2400 H   0  0  0  0  0  0  0  0  0  0  0  0
   40.9580   24.3320   32.3710 H   0  0  0  0  0  0  0  0  0  0  0  0
   39.7410   24.1060   30.9790 H   0  0  0  0  0  0  0  0  0  0  0  0
   35.8670   23.9360   31.3760 C   0  0  0  0  0  0  0  0  0  0  0  0
   35.0720   25.0350   31.0420 C   0  0  0  0  0  0  0  0  0  0  0  0
   35.5860   26.3280   31.2060 C   0  0  0  0  0  0  0  0  0  0  0  0
   36.8390   26.4230   31.6820 N   0  0  0  0  0  0  0  0  0  0  0  0
   37.6090   25.3410   32.0060 C   0  0  0  0  0  0  0  0  0  0  0  0
   37.1130   24.0880   31.8500 N   0  0  0  0  0  0  0  0  0  0  0  0
   35.4260   22.9460   31.2340 H   0  0  0  0  0  0  0  0  0  0  0  0
   34.0560   24.8940   30.6570 H   0  0  0  0  0  0  0  0  0  0  0  0
   35.0160   27.2020   30.9640 H   0  0  0  0  0  0  0  0  0  0  0  0
   39.5540   26.8520   34.5790 C   0  0  1  0  0  3  0  0  0  0  0  0
   39.1770   25.5010   34.0290 C   0  0  1  0  0  3  0  0  0  0  0  0
   37.9410   25.1790   34.5830 O   0  0  0  0  0  0  0  0  0  0  0  0
   37.9240   25.6900   35.8650 C   0  0  0  0  0  2  0  0  0  0  0  0
   38.7530   26.9450   35.8370 C   0  0  2  0  0  3  0  0  0  0  0  0
   40.9160   26.7990   34.9480 O   0  0  0  0  0  0  0  0  0  0  0  0
   41.1150   25.9140   35.3460 H   0  0  0  0  0  0  0  0  0  0  0  0
   38.0010   28.1130   35.9180 O   0  0  0  0  0  0  0  0  0  0  0  0
   38.4650   28.8240   36.4120 H   0  0  0  0  0  0  0  0  0  0  0  0
  2  3  1  0  0  0  0
  2  5  1  0  0  0  0
  2  1  1  0  0  0  0
  3  6  1  0  0  0  0
  3  1  1  0  0  0  0
  4  2  1  0  0  0  0
  7  3  1  0  0  0  0
  8 13  1  0  0  0  0
  9 10  1  0  0  0  0
  9  8  2  0  0  0  0
 10 11  2  0  0  0  0
 11 12  1  0  0  0  0
 12  1  1  0  0  0  0
 13 12  2  0  0  0  0
 14  8  1  0  0  0  0
 15  9  1  0  0  0  0
 16 10  1  0  0  0  0
 17 22  1  1  0  0  0
 17 21  1  0  0  0  0
 18  1  1  6  0  0  0
 18 17  1  0  0  0  0
 18 19  1  0  0  0  0
 19 20  1  0  0  0  0
 21 20  1  0  0  0  0
 21 24  1  6  0  0  0
 22 23  1  0  0  0  0
 24 25  1  0  0  0  0
M  END
>  <minimizedAffinity>
-4.35603476

$$$$

 OpenBabel03272505463D

 25 27  0  0  1  0  0  0  0  0999 V2000
   37.2760   27.3100   32.8070 C   0  0  0  0  0  0  0  0  0  0  0  0
   36.7780   28.5500   32.2620 C   0  0  0  0  0  0  0  0  0  0  0  0
   36.3890   28.1920   33.6550 C   0  0  0  0  0  0  0  0  0  0  0  0
   37.5270   29.3900   32.1970 H   0  0  0  0  0  0  0  0  0  0  0  0
   36.0060   28.5640   31.4620 H   0  0  0  0  0  0  0  0  0  0  0  0
   35.3140   27.9510   33.7850 H   0  0  0  0  0  0  0  0  0  0  0  0
   36.8790   28.6450   34.5190 H   0  0  0  0  0  0  0  0  0  0  0  0
   40.2310   26.8100   34.9720 C   0  0  0  0  0  0  0  0  0  0  0  0
   41.2940   26.9120   34.0720 C   0  0  0  0  0  0  0  0  0  0  0  0
   41.0230   27.1420   32.7170 C   0  0  0  0  0  0  0  0  0  0  0  0
   39.7290   27.2520   32.3690 N   0  0  0  0  0  0  0  0  0  0  0  0
   38.6970   27.1500   33.2590 C   0  0  0  0  0  0  0  0  0  0  0  0
   38.9560   26.9260   34.5720 N   0  0  0  0  0  0  0  0  0  0  0  0
   40.4870   26.6290   36.0200 H   0  0  0  0  0  0  0  0  0  0  0  0
   42.3290   26.8150   34.4150 H   0  0  0  0  0  0  0  0  0  0  0  0
   41.8030   27.2280   31.9870 H   0  0  0  0  0  0  0  0  0  0  0  0
   36.6360   25.8090   30.8840 C   0  0  1  0  0  3  0  0  0  0  0  0
   36.5700   26.0240   32.3750 C   0  0  1  0  0  3  0  0  0  0  0  0
   37.2470   24.9560   32.9580 O   0  0  0  0  0  0  0  0  0  0  0  0
   37.0060   23.8450   32.1750 C   0  0  0  0  0  2  0  0  0  0  0  0
   36.8720   24.3380   30.7610 C   0  0  2  0  0  3  0  0  0  0  0  0
   35.3540   26.0770   30.3560 O   0  0  0  0  0  0  0  0  0  0  0  0
   34.6640   25.7370   30.9800 H   0  0  0  0  0  0  0  0  0  0  0  0
   37.9630   24.0290   29.9550 O   0  0  0  0  0  0  0  0  0  0  0  0
   37.7030   23.8510   29.0250 H   0  0  0  0  0  0  0  0  0  0  0  0
  1 12  1  0  0  0  0
  1  3  1  0  0  0  0
  2  1  1  0  0  0  0
  2  3  1  0  0  0  0
  3  6  1  0  0  0  0
  3  7  1  0  0  0  0
  4  2  1  0  0  0  0
  5  2  1  0  0  0  0
  8 14  1  0  0  0  0
  9 15  1  0  0  0  0
  9  8  2  0  0  0  0
 10  9  1  0  0  0  0
 11 10  2  0  0  0  0
 11 12  1  0  0  0  0
 12 13  2  0  0  0  0
 13  8  1  0  0  0  0
 16 10  1  0  0  0  0
 17 22  1  6  0  0  0
 17 18  1  0  0  0  0
 18  1  1  6  0  0  0
 18 19  1  0  0  0  0
 20 19  1  0  0  0  0
 21 24  1  6  0  0  0
 21 17  1  0  0  0  0
 21 20  1  0  0  0  0
 22 23  1  0  0  0  0
 25 24  1  0  0  0  0
M  END
>  <minimizedAffinity>
-4.29567719

$$$$
