
 OpenBabel03272506353D

 19 20  0  0  1  0  0  0  0  0999 V2000
   39.6630   22.8670   37.6020 C   0  0  0  0  0  0  0  0  0  0  0  0
   38.8100   23.2250   38.6470 C   0  0  0  0  0  0  0  0  0  0  0  0
   37.9550   24.3040   38.4550 C   0  0  0  0  0  0  0  0  0  0  0  0
   37.9960   24.9530   37.2660 N   0  0  0  0  0  0  0  0  0  0  0  0
   38.8400   24.5820   36.2640 C   0  0  0  0  0  0  0  0  0  0  0  0
   39.6570   23.5510   36.4450 N   0  0  0  0  0  0  0  0  0  0  0  0
   38.7420   22.7350   39.6140 H   0  0  0  0  0  0  0  0  0  0  0  0
   37.2770   24.6370   39.2010 H   0  0  0  0  0  0  0  0  0  0  0  0
   39.4960   26.6880   35.0860 C   0  0  1  0  0  3  0  0  0  0  0  0
   38.8320   25.3290   35.0030 C   0  0  2  0  0  3  0  0  0  0  0  0
   37.5720   25.5350   34.4570 O   0  0  0  0  0  0  0  0  0  0  0  0
   37.5150   26.8290   33.9570 C   0  0  0  0  0  2  0  0  0  0  0  0
   38.9800   27.2440   33.7480 C   0  0  2  0  0  3  0  0  0  0  0  0
   38.9520   27.5000   36.0580 O   0  0  0  0  0  0  0  0  0  0  0  0
   38.8590   27.0570   36.9380 H   0  0  0  0  0  0  0  0  0  0  0  0
   39.4470   26.5090   32.6740 O   0  0  0  0  0  0  0  0  0  0  0  0
   40.4250   26.5080   32.5810 H   0  0  0  0  0  0  0  0  0  0  0  0
   40.4610   21.7680   37.9350 O   0  0  0  0  0  0  0  0  0  0  0  0
   41.4520   21.9580   38.0050 H   0  0  0  0  0  0  0  0  0  0  0  0
  1 18  1  0  0  0  0
  1  2  1  0  0  0  0
  2  7  1  0  0  0  0
  3  2  2  0  0  0  0
  3  8  1  0  0  0  0
  4  3  1  0  0  0  0
  5  6  1  0  0  0  0
  5  4  2  0  0  0  0
  6  1  2  0  0  0  0
  9 14  1  1  0  0  0
 10  9  1  0  0  0  0
 10  5  1  1  0  0  0
 11 10  1  0  0  0  0
 12 11  1  0  0  0  0
 13 16  1  6  0  0  0
 13 12  1  0  0  0  0
 13  9  1  0  0  0  0
 14 15  1  0  0  0  0
 17 16  1  0  0  0  0
 18 19  1  0  0  0  0
M  END
>  <minimizedAffinity>
-4.97599602

$$$$

 OpenBabel03272506353D

 19 20  0  0  1  0  0  0  0  0999 V2000
   39.6130   22.7680   37.5620 C   0  0  0  0  0  0  0  0  0  0  0  0
   38.8840   23.2960   38.6290 C   0  0  0  0  0  0  0  0  0  0  0  0
   37.9490   24.2870   38.3560 C   0  0  0  0  0  0  0  0  0  0  0  0
   37.7940   24.6890   37.0710 N   0  0  0  0  0  0  0  0  0  0  0  0
   38.5200   24.1560   36.0500 C   0  0  0  0  0  0  0  0  0  0  0  0
   39.4140   23.2090   36.3080 N   0  0  0  0  0  0  0  0  0  0  0  0
   38.9750   23.0050   39.6710 H   0  0  0  0  0  0  0  0  0  0  0  0
   37.3560   24.7380   39.1130 H   0  0  0  0  0  0  0  0  0  0  0  0
   39.5620   24.7100   33.8450 C   0  0  1  0  0  3  0  0  0  0  0  0
   38.3020   24.6380   34.6830 C   0  0  2  0  0  3  0  0  0  0  0  0
   37.6960   25.8840   34.5960 O   0  0  0  0  0  0  0  0  0  0  0  0
   38.3130   26.6040   33.5820 C   0  0  0  0  0  2  0  0  0  0  0  0
   38.9860   25.5480   32.6920 C   0  0  2  0  0  3  0  0  0  0  0  0
   40.5480   25.4880   34.4120 O   0  0  0  0  0  0  0  0  0  0  0  0
   40.7230   25.2750   35.3630 H   0  0  0  0  0  0  0  0  0  0  0  0
   37.9690   24.8830   32.0330 O   0  0  0  0  0  0  0  0  0  0  0  0
   38.2440   24.0400   31.6120 H   0  0  0  0  0  0  0  0  0  0  0  0
   40.5130   21.7830   37.9830 O   0  0  0  0  0  0  0  0  0  0  0  0
   41.4910   22.0170   37.8750 H   0  0  0  0  0  0  0  0  0  0  0  0
  1 18  1  0  0  0  0
  1  2  1  0  0  0  0
  2  7  1  0  0  0  0
  3  2  2  0  0  0  0
  3  8  1  0  0  0  0
  4  3  1  0  0  0  0
  5  6  1  0  0  0  0
  5  4  2  0  0  0  0
  6  1  2  0  0  0  0
  9 14  1  1  0  0  0
  9 10  1  0  0  0  0
 10  5  1  1  0  0  0
 11 10  1  0  0  0  0
 12 11  1  0  0  0  0
 13 16  1  1  0  0  0
 13 12  1  0  0  0  0
 13  9  1  0  0  0  0
 14 15  1  0  0  0  0
 17 16  1  0  0  0  0
 19 18  1  0  0  0  0
M  END
>  <minimizedAffinity>
-4.33660603

$$$$

 OpenBabel03272506353D

 19 20  0  0  1  0  0  0  0  0999 V2000
   39.0050   23.1850   37.8390 C   0  0  0  0  0  0  0  0  0  0  0  0
   40.2180   22.5990   37.4750 C   0  0  0  0  0  0  0  0  0  0  0  0
   40.8360   23.0420   36.3110 C   0  0  0  0  0  0  0  0  0  0  0  0
   40.2290   24.0170   35.5920 N   0  0  0  0  0  0  0  0  0  0  0  0
   39.0440   24.5700   35.9710 C   0  0  0  0  0  0  0  0  0  0  0  0
   38.4520   24.1490   37.0820 N   0  0  0  0  0  0  0  0  0  0  0  0
   40.7390   21.8180   38.0190 H   0  0  0  0  0  0  0  0  0  0  0  0
   41.7590   22.6460   35.9680 H   0  0  0  0  0  0  0  0  0  0  0  0
   37.8220   25.1170   33.8590 C   0  0  1  0  0  3  0  0  0  0  0  0
   38.4440   25.6220   35.1460 C   0  0  2  0  0  3  0  0  0  0  0  0
   39.3080   26.6490   34.7920 O   0  0  0  0  0  0  0  0  0  0  0  0
   39.0680   26.9910   33.4690 C   0  0  0  0  0  2  0  0  0  0  0  0
   37.6490   26.4820   33.1730 C   0  0  2  0  0  3  0  0  0  0  0  0
   38.7060   24.4150   33.0680 O   0  0  0  0  0  0  0  0  0  0  0  0
   39.2090   23.7180   33.5580 H   0  0  0  0  0  0  0  0  0  0  0  0
   36.7830   27.3010   33.8740 O   0  0  0  0  0  0  0  0  0  0  0  0
   35.8710   26.9470   33.9560 H   0  0  0  0  0  0  0  0  0  0  0  0
   38.5010   22.6430   39.0260 O   0  0  0  0  0  0  0  0  0  0  0  0
   37.6400   22.1210   38.9320 H   0  0  0  0  0  0  0  0  0  0  0  0
  1 18  1  0  0  0  0
  2  1  1  0  0  0  0
  2  7  1  0  0  0  0
  3  2  2  0  0  0  0
  4  5  2  0  0  0  0
  4  3  1  0  0  0  0
  5  6  1  0  0  0  0
  6  1  2  0  0  0  0
  8  3  1  0  0  0  0
  9 14  1  6  0  0  0
  9 10  1  0  0  0  0
 10  5  1  6  0  0  0
 11 10  1  0  0  0  0
 12 11  1  0  0  0  0
 13 12  1  0  0  0  0
 13  9  1  0  0  0  0
 13 16  1  1  0  0  0
 14 15  1  0  0  0  0
 16 17  1  0  0  0  0
 19 18  1  0  0  0  0
M  END
>  <minimizedAffinity>
-4.1770587

$$$$

 OpenBabel03272506353D

 19 20  0  0  1  0  0  0  0  0999 V2000
   35.9550   20.9810   33.3030 C   0  0  0  0  0  0  0  0  0  0  0  0
   36.3970   21.7350   32.2150 C   0  0  0  0  0  0  0  0  0  0  0  0
   37.3980   22.6740   32.4320 C   0  0  0  0  0  0  0  0  0  0  0  0
   37.8920   22.8090   33.6870 N   0  0  0  0  0  0  0  0  0  0  0  0
   37.4410   22.0590   34.7300 C   0  0  0  0  0  0  0  0  0  0  0  0
   36.4840   21.1620   34.5250 N   0  0  0  0  0  0  0  0  0  0  0  0
   36.0310   21.6610   31.1950 H   0  0  0  0  0  0  0  0  0  0  0  0
   37.7870   23.2860   31.6570 H   0  0  0  0  0  0  0  0  0  0  0  0
   37.8040   23.6450   36.6290 C   0  0  1  0  0  3  0  0  0  0  0  0
   38.0200   22.2570   36.0620 C   0  0  2  0  0  3  0  0  0  0  0  0
   39.3820   22.0010   36.1480 O   0  0  0  0  0  0  0  0  0  0  0  0
   39.9630   22.9730   36.9500 C   0  0  0  0  0  2  0  0  0  0  0  0
   38.8100   23.5450   37.7880 C   0  0  2  0  0  3  0  0  0  0  0  0
   38.2820   24.6460   35.8110 O   0  0  0  0  0  0  0  0  0  0  0  0
   37.9910   24.5600   34.8690 H   0  0  0  0  0  0  0  0  0  0  0  0
   38.4540   22.5620   38.6910 O   0  0  0  0  0  0  0  0  0  0  0  0
   37.5870   22.7090   39.1280 H   0  0  0  0  0  0  0  0  0  0  0  0
   34.9490   20.0800   32.9380 O   0  0  0  0  0  0  0  0  0  0  0  0
   34.0390   20.2600   33.3410 H   0  0  0  0  0  0  0  0  0  0  0  0
  1  6  1  0  0  0  0
  2  3  1  0  0  0  0
  2  1  2  0  0  0  0
  3  4  2  0  0  0  0
  4  5  1  0  0  0  0
  6  5  2  0  0  0  0
  7  2  1  0  0  0  0
  8  3  1  0  0  0  0
  9 14  1  6  0  0  0
  9 13  1  0  0  0  0
 10  5  1  6  0  0  0
 10 11  1  0  0  0  0
 10  9  1  0  0  0  0
 11 12  1  0  0  0  0
 12 13  1  0  0  0  0
 13 16  1  1  0  0  0
 15 14  1  0  0  0  0
 16 17  1  0  0  0  0
 18  1  1  0  0  0  0
 18 19  1  0  0  0  0
M  END
>  <minimizedAffinity>
-4.14483309

$$$$

 OpenBabel03272506353D

 19 20  0  0  1  0  0  0  0  0999 V2000
   36.5710   27.9770   30.9190 C   0  0  0  0  0  0  0  0  0  0  0  0
   35.9210   29.1160   31.3960 C   0  0  0  0  0  0  0  0  0  0  0  0
   35.8180   29.2840   32.7720 C   0  0  0  0  0  0  0  0  0  0  0  0
   36.3520   28.3340   33.5780 N   0  0  0  0  0  0  0  0  0  0  0  0
   36.9800   27.2310   33.0840 C   0  0  0  0  0  0  0  0  0  0  0  0
   37.0800   27.0690   31.7700 N   0  0  0  0  0  0  0  0  0  0  0  0
   35.4800   29.9020   30.7900 H   0  0  0  0  0  0  0  0  0  0  0  0
   35.3390   30.1230   33.2120 H   0  0  0  0  0  0  0  0  0  0  0  0
   37.4830   26.6640   35.4670 C   0  0  1  0  0  3  0  0  0  0  0  0
   37.5360   26.2430   34.0120 C   0  0  2  0  0  3  0  0  0  0  0  0
   38.8490   25.8750   33.7530 O   0  0  0  0  0  0  0  0  0  0  0  0
   39.5250   25.7730   34.9620 C   0  0  0  0  0  2  0  0  0  0  0  0
   38.4280   25.5850   36.0210 C   0  0  2  0  0  3  0  0  0  0  0  0
   38.1130   27.8660   35.7070 O   0  0  0  0  0  0  0  0  0  0  0  0
   37.8450   28.5860   35.0820 H   0  0  0  0  0  0  0  0  0  0  0  0
   37.9180   24.3140   35.8360 O   0  0  0  0  0  0  0  0  0  0  0  0
   37.0630   24.1520   36.2920 H   0  0  0  0  0  0  0  0  0  0  0  0
   36.6000   27.9410   29.5210 O   0  0  0  0  0  0  0  0  0  0  0  0
   36.0650   27.1950   29.0960 H   0  0  0  0  0  0  0  0  0  0  0  0
  1  2  2  0  0  0  0
  1  6  1  0  0  0  0
  2  3  1  0  0  0  0
  3  8  1  0  0  0  0
  3  4  2  0  0  0  0
  5  4  1  0  0  0  0
  6  5  2  0  0  0  0
  7  2  1  0  0  0  0
  9 14  1  6  0  0  0
  9 13  1  0  0  0  0
 10  5  1  6  0  0  0
 10  9  1  0  0  0  0
 11 10  1  0  0  0  0
 11 12  1  0  0  0  0
 12 13  1  0  0  0  0
 13 16  1  6  0  0  0
 15 14  1  0  0  0  0
 16 17  1  0  0  0  0
 18  1  1  0  0  0  0
 19 18  1  0  0  0  0
M  END
>  <minimizedAffinity>
-4.11016321

$$$$

 OpenBabel03272506353D

 19 20  0  0  1  0  0  0  0  0999 V2000
   36.5600   24.0570   31.5560 C   0  0  0  0  0  0  0  0  0  0  0  0
   35.9660   22.8240   31.2860 C   0  0  0  0  0  0  0  0  0  0  0  0
   36.2360   21.7640   32.1440 C   0  0  0  0  0  0  0  0  0  0  0  0
   37.0610   21.9830   33.1970 N   0  0  0  0  0  0  0  0  0  0  0  0
   37.6280   23.1980   33.4350 C   0  0  0  0  0  0  0  0  0  0  0  0
   37.3710   24.2120   32.6170 N   0  0  0  0  0  0  0  0  0  0  0  0
   35.3000   22.6030   30.4570 H   0  0  0  0  0  0  0  0  0  0  0  0
   35.8220   20.7960   32.0060 H   0  0  0  0  0  0  0  0  0  0  0  0
   38.5660   22.1580   35.5070 C   0  0  1  0  0  3  0  0  0  0  0  0
   38.5110   23.3650   34.5920 C   0  0  2  0  0  3  0  0  0  0  0  0
   38.2160   24.4580   35.3960 O   0  0  0  0  0  0  0  0  0  0  0  0
   38.3570   24.0800   36.7240 C   0  0  0  0  0  2  0  0  0  0  0  0
   39.2640   22.8400   36.6950 C   0  0  2  0  0  3  0  0  0  0  0  0
   37.3280   21.7750   35.9750 O   0  0  0  0  0  0  0  0  0  0  0  0
   36.6420   21.6960   35.2660 H   0  0  0  0  0  0  0  0  0  0  0  0
   40.5280   23.2870   36.3580 O   0  0  0  0  0  0  0  0  0  0  0  0
   41.1470   22.5760   36.0820 H   0  0  0  0  0  0  0  0  0  0  0  0
   36.2000   25.0260   30.6140 O   0  0  0  0  0  0  0  0  0  0  0  0
   36.9540   25.3620   30.0290 H   0  0  0  0  0  0  0  0  0  0  0  0
  1  6  1  0  0  0  0
  2  1  2  0  0  0  0
  2  3  1  0  0  0  0
  3  4  2  0  0  0  0
  4  5  1  0  0  0  0
  6  5  2  0  0  0  0
  7  2  1  0  0  0  0
  8  3  1  0  0  0  0
  9 14  1  1  0  0  0
  9 13  1  0  0  0  0
 10  5  1  6  0  0  0
 10 11  1  0  0  0  0
 10  9  1  0  0  0  0
 11 12  1  0  0  0  0
 13 16  1  6  0  0  0
 13 12  1  0  0  0  0
 15 14  1  0  0  0  0
 17 16  1  0  0  0  0
 18  1  1  0  0  0  0
 19 18  1  0  0  0  0
M  END
>  <minimizedAffinity>
-4.03685904

$$$$

 OpenBabel03272506353D

 19 20  0  0  1  0  0  0  0  0999 V2000
   37.3400   23.3590   32.5670 C   0  0  0  0  0  0  0  0  0  0  0  0
   36.5080   22.3150   32.1630 C   0  0  0  0  0  0  0  0  0  0  0  0
   36.2190   21.3130   33.0830 C   0  0  0  0  0  0  0  0  0  0  0  0
   36.7610   21.4030   34.3220 N   0  0  0  0  0  0  0  0  0  0  0  0
   37.5710   22.4340   34.6880 C   0  0  0  0  0  0  0  0  0  0  0  0
   37.8480   23.3920   33.8110 N   0  0  0  0  0  0  0  0  0  0  0  0
   36.0520   22.2030   31.1840 H   0  0  0  0  0  0  0  0  0  0  0  0
   35.5950   20.4860   32.8510 H   0  0  0  0  0  0  0  0  0  0  0  0
   38.0690   23.8340   36.7000 C   0  0  1  0  0  3  0  0  0  0  0  0
   38.1240   22.4680   36.0450 C   0  0  2  0  0  3  0  0  0  0  0  0
   39.4380   22.0320   36.1490 O   0  0  0  0  0  0  0  0  0  0  0  0
   40.1110   22.8660   37.0310 C   0  0  0  0  0  2  0  0  0  0  0  0
   39.0120   23.5290   37.8750 C   0  0  2  0  0  3  0  0  0  0  0  0
   38.6990   24.8140   35.9650 O   0  0  0  0  0  0  0  0  0  0  0  0
   38.4330   24.8280   35.0110 H   0  0  0  0  0  0  0  0  0  0  0  0
   38.5010   22.5440   38.6990 O   0  0  0  0  0  0  0  0  0  0  0  0
   37.6450   22.7750   39.1220 H   0  0  0  0  0  0  0  0  0  0  0  0
   37.5410   24.2910   31.5430 O   0  0  0  0  0  0  0  0  0  0  0  0
   38.4870   24.3480   31.1900 H   0  0  0  0  0  0  0  0  0  0  0  0
  1  6  1  0  0  0  0
  2  1  2  0  0  0  0
  2  3  1  0  0  0  0
  3  4  2  0  0  0  0
  4  5  1  0  0  0  0
  6  5  2  0  0  0  0
  7  2  1  0  0  0  0
  8  3  1  0  0  0  0
  9 14  1  6  0  0  0
  9 13  1  0  0  0  0
 10  5  1  6  0  0  0
 10 11  1  0  0  0  0
 10  9  1  0  0  0  0
 11 12  1  0  0  0  0
 12 13  1  0  0  0  0
 13 16  1  1  0  0  0
 15 14  1  0  0  0  0
 16 17  1  0  0  0  0
 18  1  1  0  0  0  0
 19 18  1  0  0  0  0
M  END
>  <minimizedAffinity>
-4.0326829

$$$$

 OpenBabel03272506353D

 19 20  0  0  1  0  0  0  0  0999 V2000
   36.1170   24.8660   30.8730 C   0  0  0  0  0  0  0  0  0  0  0  0
   37.5020   24.9990   30.9790 C   0  0  0  0  0  0  0  0  0  0  0  0
   38.2530   23.8560   31.2270 C   0  0  0  0  0  0  0  0  0  0  0  0
   37.6030   22.6740   31.3530 N   0  0  0  0  0  0  0  0  0  0  0  0
   36.2490   22.5740   31.2460 C   0  0  0  0  0  0  0  0  0  0  0  0
   35.5290   23.6650   31.0090 N   0  0  0  0  0  0  0  0  0  0  0  0
   38.0640   25.9230   30.8850 H   0  0  0  0  0  0  0  0  0  0  0  0
   39.3100   23.8760   31.3210 H   0  0  0  0  0  0  0  0  0  0  0  0
   35.4480   20.8140   32.8310 C   0  0  1  0  0  3  0  0  0  0  0  0
   35.6100   21.2630   31.3930 C   0  0  2  0  0  3  0  0  0  0  0  0
   36.2470   20.2270   30.7240 O   0  0  0  0  0  0  0  0  0  0  0  0
   36.2390   19.1050   31.5400 C   0  0  0  0  0  2  0  0  0  0  0  0
   35.1000   19.3440   32.5420 C   0  0  2  0  0  3  0  0  0  0  0  0
   36.6360   20.7830   33.5280 O   0  0  0  0  0  0  0  0  0  0  0  0
   37.1720   21.6100   33.4360 H   0  0  0  0  0  0  0  0  0  0  0  0
   33.9200   19.2270   31.8320 O   0  0  0  0  0  0  0  0  0  0  0  0
   33.1320   19.5810   32.2980 H   0  0  0  0  0  0  0  0  0  0  0  0
   35.4930   26.0930   30.6240 O   0  0  0  0  0  0  0  0  0  0  0  0
   34.8950   26.4330   31.3650 H   0  0  0  0  0  0  0  0  0  0  0  0
  1  2  2  0  0  0  0
  1  6  1  0  0  0  0
  2  3  1  0  0  0  0
  3  8  1  0  0  0  0
  3  4  2  0  0  0  0
  5  4  1  0  0  0  0
  6  5  2  0  0  0  0
  7  2  1  0  0  0  0
  9 14  1  1  0  0  0
 10  5  1  1  0  0  0
 10  9  1  0  0  0  0
 11 10  1  0  0  0  0
 11 12  1  0  0  0  0
 12 13  1  0  0  0  0
 13 16  1  6  0  0  0
 13  9  1  0  0  0  0
 15 14  1  0  0  0  0
 16 17  1  0  0  0  0
 18  1  1  0  0  0  0
 18 19  1  0  0  0  0
M  END
>  <minimizedAffinity>
-4.00784159

$$$$

 OpenBabel03272506353D

 19 20  0  0  1  0  0  0  0  0999 V2000
   37.0340   27.0130   34.4690 C   0  0  0  0  0  0  0  0  0  0  0  0
   37.0660   26.4610   33.1870 C   0  0  0  0  0  0  0  0  0  0  0  0
   37.6430   25.2070   33.0280 C   0  0  0  0  0  0  0  0  0  0  0  0
   38.1450   24.5860   34.1240 N   0  0  0  0  0  0  0  0  0  0  0  0
   38.1010   25.1500   35.3620 C   0  0  0  0  0  0  0  0  0  0  0  0
   37.5500   26.3480   35.5170 N   0  0  0  0  0  0  0  0  0  0  0  0
   36.6760   26.9210   32.2840 H   0  0  0  0  0  0  0  0  0  0  0  0
   37.7050   24.7210   32.0860 H   0  0  0  0  0  0  0  0  0  0  0  0
   38.6850   22.9180   36.3270 C   0  0  1  0  0  3  0  0  0  0  0  0
   38.6630   24.4230   36.5040 C   0  0  2  0  0  3  0  0  0  0  0  0
   38.0350   24.6700   37.7170 O   0  0  0  0  0  0  0  0  0  0  0  0
   37.9230   23.4710   38.4080 C   0  0  0  0  0  2  0  0  0  0  0  0
   38.9860   22.5500   37.7890 C   0  0  2  0  0  3  0  0  0  0  0  0
   37.4430   22.3840   36.0590 O   0  0  0  0  0  0  0  0  0  0  0  0
   36.9570   22.8540   35.3370 H   0  0  0  0  0  0  0  0  0  0  0  0
   40.2130   23.0370   38.1980 O   0  0  0  0  0  0  0  0  0  0  0  0
   40.9770   22.6830   37.6920 H   0  0  0  0  0  0  0  0  0  0  0  0
   36.4270   28.2730   34.4780 O   0  0  0  0  0  0  0  0  0  0  0  0
   37.0360   29.0460   34.7100 H   0  0  0  0  0  0  0  0  0  0  0  0
  1 18  1  0  0  0  0
  1  6  1  0  0  0  0
  2  1  2  0  0  0  0
  3  2  1  0  0  0  0
  3  4  2  0  0  0  0
  4  5  1  0  0  0  0
  5  6  2  0  0  0  0
  7  2  1  0  0  0  0
  8  3  1  0  0  0  0
  9 14  1  1  0  0  0
  9 10  1  0  0  0  0
  9 13  1  0  0  0  0
 10  5  1  6  0  0  0
 10 11  1  0  0  0  0
 11 12  1  0  0  0  0
 13 16  1  1  0  0  0
 13 12  1  0  0  0  0
 15 14  1  0  0  0  0
 17 16  1  0  0  0  0
 18 19  1  0  0  0  0
M  END
>  <minimizedAffinity>
-3.92966294

$$$$
