
 OpenBabel03272509063D

 33 35  0  0  1  0  0  0  0  0999 V2000
   40.5850   26.4280   34.3980 C   0  0  0  0  0  0  0  0  0  0  0  0
   40.3870   25.1720   35.0120 C   0  0  0  0  0  0  0  0  0  0  0  0
   39.0740   24.6560   35.0190 C   0  0  0  0  0  0  0  0  0  0  0  0
   38.0770   25.3940   34.4380 N   0  0  0  0  0  0  0  0  0  0  0  0
   38.3410   26.5870   33.8700 C   0  0  0  0  0  0  0  0  0  0  0  0
   39.5840   27.1160   33.8420 N   0  0  0  0  0  0  0  0  0  0  0  0
   41.6210   26.7600   34.4310 H   0  0  0  0  0  0  0  0  0  0  0  0
   41.1510   24.5840   35.4690 H   0  0  0  0  0  0  0  0  0  0  0  0
   39.6150   23.1760   36.9110 C   0  0  1  0  0  3  0  0  0  0  0  0
   38.8390   23.3390   35.6570 C   0  0  1  0  0  3  0  0  0  0  0  0
   37.5080   23.1050   35.9250 O   0  0  0  0  0  0  0  0  0  0  0  0
   37.2890   23.3080   37.2710 C   0  0  0  0  0  2  0  0  0  0  0  0
   38.5880   23.4320   37.9860 C   0  0  1  0  0  3  0  0  0  0  0  0
   40.1290   21.8930   37.0410 O   0  0  0  0  0  0  0  0  0  0  0  0
   40.1100   21.6730   38.0080 H   0  0  0  0  0  0  0  0  0  0  0  0
   38.7150   22.5250   39.0300 O   0  0  0  0  0  0  0  0  0  0  0  0
   38.0800   22.7540   39.7370 H   0  0  0  0  0  0  0  0  0  0  0  0
   37.2000   27.2680   33.3020 C   0  0  0  0  0  3  0  0  0  0  0  0
   36.6040   28.1860   33.9780 C   0  0  0  0  0  3  0  0  0  0  0  0
   35.4470   29.0170   33.6180 C   0  0  0  0  0  0  0  0  0  0  0  0
   35.6960   29.5660   32.6790 H   0  0  0  0  0  0  0  0  0  0  0  0
   34.5580   28.4090   33.3940 H   0  0  0  0  0  0  0  0  0  0  0  0
   35.0780   30.0100   34.6780 C   0  0  0  0  0  0  0  0  0  0  0  0
   35.9720   30.8370   35.3410 C   0  0  0  0  0  0  0  0  0  0  0  0
   35.5000   31.7170   36.3050 C   0  0  0  0  0  0  0  0  0  0  0  0
   34.1450   31.7910   36.6240 C   0  0  0  0  0  0  0  0  0  0  0  0
   33.2550   30.9650   35.9610 C   0  0  0  0  0  0  0  0  0  0  0  0
   33.7280   30.0820   34.9970 C   0  0  0  0  0  0  0  0  0  0  0  0
   37.0080   30.7390   35.0570 H   0  0  0  0  0  0  0  0  0  0  0  0
   36.2400   32.3360   36.7860 H   0  0  0  0  0  0  0  0  0  0  0  0
   33.8880   32.5110   37.3870 H   0  0  0  0  0  0  0  0  0  0  0  0
   32.2170   31.0470   36.2320 H   0  0  0  0  0  0  0  0  0  0  0  0
   32.9600   29.4830   34.5380 H   0  0  0  0  0  0  0  0  0  0  0  0
  1  7  1  0  0  0  0
  1  2  1  0  0  0  0
  2  3  2  0  0  0  0
  2  8  1  0  0  0  0
  4  3  1  0  0  0  0
  5  4  2  0  0  0  0
  6  5  1  0  0  0  0
  6  1  2  0  0  0  0
  9 14  1  1  0  0  0
  9 13  1  0  0  0  0
 10  3  1  1  0  0  0
 10 11  1  0  0  0  0
 10  9  1  0  0  0  0
 11 12  1  0  0  0  0
 12 13  1  0  0  0  0
 13 16  1  1  0  0  0
 14 15  1  0  0  0  0
 16 17  1  0  0  0  0
 18  5  1  0  0  0  0
 18 19  2  0  0  0  0
 20 19  1  0  0  0  0
 20 23  1  0  0  0  0
 21 20  1  0  0  0  0
 22 20  1  0  0  0  0
 23 28  2  0  0  0  0
 23 24  1  0  0  0  0
 24 25  2  0  0  0  0
 25 26  1  0  0  0  0
 25 30  1  0  0  0  0
 26 31  1  0  0  0  0
 27 32  1  0  0  0  0
 27 26  2  0  0  0  0
 28 27  1  0  0  0  0
 29 24  1  0  0  0  0
 33 28  1  0  0  0  0
M  END
>  <minimizedAffinity>
-6.26180935

$$$$

 OpenBabel03272509063D

 33 35  0  0  1  0  0  0  0  0999 V2000
   42.0910   25.6540   34.7060 C   0  0  0  0  0  0  0  0  0  0  0  0
   41.6390   24.4810   35.3500 C   0  0  0  0  0  0  0  0  0  0  0  0
   40.2690   24.1660   35.2330 C   0  0  0  0  0  0  0  0  0  0  0  0
   39.4640   25.0050   34.5100 N   0  0  0  0  0  0  0  0  0  0  0  0
   39.9650   26.1090   33.9210 C   0  0  0  0  0  0  0  0  0  0  0  0
   41.2700   26.4460   34.0100 N   0  0  0  0  0  0  0  0  0  0  0  0
   43.1550   25.8310   34.8420 H   0  0  0  0  0  0  0  0  0  0  0  0
   42.2510   23.8170   35.9170 H   0  0  0  0  0  0  0  0  0  0  0  0
   40.0810   22.9220   37.3490 C   0  0  1  0  0  3  0  0  0  0  0  0
   39.7690   22.9400   35.8990 C   0  0  1  0  0  3  0  0  0  0  0  0
   38.4130   22.7570   35.7340 O   0  0  0  0  0  0  0  0  0  0  0  0
   37.7760   23.1260   36.8990 C   0  0  0  0  0  2  0  0  0  0  0  0
   38.7730   23.3210   37.9870 C   0  0  1  0  0  3  0  0  0  0  0  0
   40.4560   21.6580   37.7840 O   0  0  0  0  0  0  0  0  0  0  0  0
   40.1090   21.5580   38.7080 H   0  0  0  0  0  0  0  0  0  0  0  0
   38.5020   22.5470   39.1080 O   0  0  0  0  0  0  0  0  0  0  0  0
   37.6840   22.8690   39.5330 H   0  0  0  0  0  0  0  0  0  0  0  0
   39.0080   26.9140   33.1970 C   0  0  0  0  0  3  0  0  0  0  0  0
   37.8180   26.4660   33.0010 C   0  0  0  0  0  3  0  0  0  0  0  0
   36.6800   27.0920   32.3150 C   0  0  0  0  0  0  0  0  0  0  0  0
   36.9570   27.2310   31.2430 H   0  0  0  0  0  0  0  0  0  0  0  0
   35.7900   26.4460   32.3230 H   0  0  0  0  0  0  0  0  0  0  0  0
   36.2960   28.4200   32.8940 C   0  0  0  0  0  0  0  0  0  0  0  0
   36.0090   28.6530   34.2310 C   0  0  0  0  0  0  0  0  0  0  0  0
   35.6670   29.9350   34.6410 C   0  0  0  0  0  0  0  0  0  0  0  0
   35.6060   30.9970   33.7400 C   0  0  0  0  0  0  0  0  0  0  0  0
   35.8930   30.7610   32.4070 C   0  0  0  0  0  0  0  0  0  0  0  0
   36.2340   29.4770   31.9960 C   0  0  0  0  0  0  0  0  0  0  0  0
   36.0700   27.7980   34.8850 H   0  0  0  0  0  0  0  0  0  0  0  0
   35.4560   30.0570   35.6900 H   0  0  0  0  0  0  0  0  0  0  0  0
   35.3310   31.9500   34.1660 H   0  0  0  0  0  0  0  0  0  0  0  0
   35.8360   31.6020   31.7380 H   0  0  0  0  0  0  0  0  0  0  0  0
   36.4390   29.3950   30.9420 H   0  0  0  0  0  0  0  0  0  0  0  0
  1  7  1  0  0  0  0
  1  2  1  0  0  0  0
  2  8  1  0  0  0  0
  3  2  2  0  0  0  0
  4  3  1  0  0  0  0
  5  6  1  0  0  0  0
  5  4  2  0  0  0  0
  6  1  2  0  0  0  0
  9 14  1  1  0  0  0
  9 13  1  0  0  0  0
 10  3  1  1  0  0  0
 10  9  1  0  0  0  0
 11 10  1  0  0  0  0
 11 12  1  0  0  0  0
 12 13  1  0  0  0  0
 13 16  1  1  0  0  0
 14 15  1  0  0  0  0
 16 17  1  0  0  0  0
 18  5  1  0  0  0  0
 19 18  2  0  0  0  0
 20 22  1  0  0  0  0
 20 23  1  0  0  0  0
 20 19  1  0  0  0  0
 21 20  1  0  0  0  0
 23 24  1  0  0  0  0
 24 25  2  0  0  0  0
 24 29  1  0  0  0  0
 25 30  1  0  0  0  0
 26 31  1  0  0  0  0
 26 25  1  0  0  0  0
 27 26  2  0  0  0  0
 28 27  1  0  0  0  0
 28 23  2  0  0  0  0
 32 27  1  0  0  0  0
 33 28  1  0  0  0  0
M  END
>  <minimizedAffinity>
-5.96580458

$$$$

 OpenBabel03272509063D

 33 35  0  0  1  0  0  0  0  0999 V2000
   37.2410   25.6440   32.8120 C   0  0  0  0  0  0  0  0  0  0  0  0
   37.8530   24.9350   33.8690 C   0  0  0  0  0  0  0  0  0  0  0  0
   37.9380   25.5840   35.1190 C   0  0  0  0  0  0  0  0  0  0  0  0
   37.4290   26.8500   35.2350 N   0  0  0  0  0  0  0  0  0  0  0  0
   36.8570   27.4650   34.1810 C   0  0  0  0  0  0  0  0  0  0  0  0
   36.7560   26.8790   32.9690 N   0  0  0  0  0  0  0  0  0  0  0  0
   37.2120   25.0800   31.8820 H   0  0  0  0  0  0  0  0  0  0  0  0
   38.2550   23.9500   33.7970 H   0  0  0  0  0  0  0  0  0  0  0  0
   37.6200   24.5750   37.3420 C   0  0  1  0  0  3  0  0  0  0  0  0
   38.5760   24.8610   36.2450 C   0  0  1  0  0  3  0  0  0  0  0  0
   39.1700   23.6810   35.8540 O   0  0  0  0  0  0  0  0  0  0  0  0
   38.3490   22.6350   36.2180 C   0  0  0  0  0  2  0  0  0  0  0  0
   37.2760   23.1220   37.1270 C   0  0  1  0  0  3  0  0  0  0  0  0
   38.1980   24.7470   38.5930 O   0  0  0  0  0  0  0  0  0  0  0  0
   37.7970   24.0630   39.1900 H   0  0  0  0  0  0  0  0  0  0  0  0
   37.2380   22.4300   38.3310 O   0  0  0  0  0  0  0  0  0  0  0  0
   36.9520   21.5100   38.1670 H   0  0  0  0  0  0  0  0  0  0  0  0
   36.3690   28.8010   34.4350 C   0  0  0  0  0  3  0  0  0  0  0  0
   35.5920   29.3690   33.5820 C   0  0  0  0  0  3  0  0  0  0  0  0
   34.9650   30.6980   33.6200 C   0  0  0  0  0  0  0  0  0  0  0  0
   35.7610   31.4600   33.4480 H   0  0  0  0  0  0  0  0  0  0  0  0
   34.2320   30.8280   32.8110 H   0  0  0  0  0  0  0  0  0  0  0  0
   34.2820   30.9940   34.9210 C   0  0  0  0  0  0  0  0  0  0  0  0
   33.0450   30.4940   35.3030 C   0  0  0  0  0  0  0  0  0  0  0  0
   32.5220   30.8440   36.5400 C   0  0  0  0  0  0  0  0  0  0  0  0
   33.2100   31.6880   37.4110 C   0  0  0  0  0  0  0  0  0  0  0  0
   34.4430   32.1850   37.0270 C   0  0  0  0  0  0  0  0  0  0  0  0
   34.9670   31.8340   35.7870 C   0  0  0  0  0  0  0  0  0  0  0  0
   32.5560   29.8470   34.5920 H   0  0  0  0  0  0  0  0  0  0  0  0
   31.5590   30.4260   36.7840 H   0  0  0  0  0  0  0  0  0  0  0  0
   32.7120   31.8930   38.3460 H   0  0  0  0  0  0  0  0  0  0  0  0
   34.9470   32.8330   37.7220 H   0  0  0  0  0  0  0  0  0  0  0  0
   35.9300   32.2700   35.5800 H   0  0  0  0  0  0  0  0  0  0  0  0
  1  6  2  0  0  0  0
  1  2  1  0  0  0  0
  2  3  2  0  0  0  0
  3  4  1  0  0  0  0
  5 18  1  0  0  0  0
  5  4  2  0  0  0  0
  6  5  1  0  0  0  0
  7  1  1  0  0  0  0
  8  2  1  0  0  0  0
  9 14  1  1  0  0  0
 10  3  1  6  0  0  0
 10  9  1  0  0  0  0
 11 12  1  0  0  0  0
 11 10  1  0  0  0  0
 12 13  1  0  0  0  0
 13  9  1  0  0  0  0
 13 16  1  1  0  0  0
 14 15  1  0  0  0  0
 17 16  1  0  0  0  0
 19 20  1  0  0  0  0
 19 18  2  0  0  0  0
 20 23  1  0  0  0  0
 21 20  1  0  0  0  0
 22 20  1  0  0  0  0
 23 24  2  0  0  0  0
 23 28  1  0  0  0  0
 24 25  1  0  0  0  0
 25 30  1  0  0  0  0
 25 26  2  0  0  0  0
 26 31  1  0  0  0  0
 27 26  1  0  0  0  0
 27 32  1  0  0  0  0
 28 27  2  0  0  0  0
 29 24  1  0  0  0  0
 33 28  1  0  0  0  0
M  END
>  <minimizedAffinity>
-5.83706331

$$$$

 OpenBabel03272509063D

 33 35  0  0  1  0  0  0  0  0999 V2000
   36.2120   28.6270   33.5100 C   0  0  0  0  0  0  0  0  0  0  0  0
   36.1300   27.8450   32.3370 C   0  0  0  0  0  0  0  0  0  0  0  0
   36.6650   26.5410   32.3910 C   0  0  0  0  0  0  0  0  0  0  0  0
   37.2270   26.1120   33.5640 N   0  0  0  0  0  0  0  0  0  0  0  0
   37.2690   26.9150   34.6450 C   0  0  0  0  0  0  0  0  0  0  0  0
   36.7690   28.1690   34.6340 N   0  0  0  0  0  0  0  0  0  0  0  0
   35.7800   29.6190   33.3910 H   0  0  0  0  0  0  0  0  0  0  0  0
   35.6960   28.1630   31.4150 H   0  0  0  0  0  0  0  0  0  0  0  0
   37.6430   24.6540   31.1480 C   0  0  1  0  0  3  0  0  0  0  0  0
   36.5910   25.6990   31.1730 C   0  0  1  0  0  3  0  0  0  0  0  0
   35.3620   25.0960   31.0140 O   0  0  0  0  0  0  0  0  0  0  0  0
   35.4690   23.7750   31.3930 C   0  0  0  0  0  2  0  0  0  0  0  0
   36.9010   23.4100   31.5690 C   0  0  1  0  0  3  0  0  0  0  0  0
   38.1750   24.4830   29.8770 O   0  0  0  0  0  0  0  0  0  0  0  0
   38.3870   23.5180   29.7830 H   0  0  0  0  0  0  0  0  0  0  0  0
   37.2740   22.3150   30.7990 O   0  0  0  0  0  0  0  0  0  0  0  0
   36.8250   21.5150   31.1350 H   0  0  0  0  0  0  0  0  0  0  0  0
   37.8980   26.3450   35.8140 C   0  0  0  0  0  3  0  0  0  0  0  0
   37.8060   25.0810   36.0350 C   0  0  0  0  0  3  0  0  0  0  0  0
   38.3600   24.2750   37.1320 C   0  0  0  0  0  0  0  0  0  0  0  0
   38.7300   24.9730   37.9200 H   0  0  0  0  0  0  0  0  0  0  0  0
   37.5930   23.6490   37.6090 H   0  0  0  0  0  0  0  0  0  0  0  0
   39.4870   23.3850   36.7030 C   0  0  0  0  0  0  0  0  0  0  0  0
   39.9450   23.2520   35.4000 C   0  0  0  0  0  0  0  0  0  0  0  0
   41.0030   22.3930   35.1340 C   0  0  0  0  0  0  0  0  0  0  0  0
   41.6180   21.6590   36.1470 C   0  0  0  0  0  0  0  0  0  0  0  0
   41.1590   21.7940   37.4450 C   0  0  0  0  0  0  0  0  0  0  0  0
   40.0990   22.6540   37.7110 C   0  0  0  0  0  0  0  0  0  0  0  0
   39.4340   23.8420   34.6560 H   0  0  0  0  0  0  0  0  0  0  0  0
   41.3160   22.3300   34.1050 H   0  0  0  0  0  0  0  0  0  0  0  0
   42.4310   21.0230   35.8290 H   0  0  0  0  0  0  0  0  0  0  0  0
   41.6560   21.2130   38.2020 H   0  0  0  0  0  0  0  0  0  0  0  0
   39.8150   22.6900   38.7490 H   0  0  0  0  0  0  0  0  0  0  0  0
  1  6  1  0  0  0  0
  2  3  1  0  0  0  0
  2  1  2  0  0  0  0
  3  4  2  0  0  0  0
  4  5  1  0  0  0  0
  5 18  1  0  0  0  0
  6  5  2  0  0  0  0
  7  1  1  0  0  0  0
  8  2  1  0  0  0  0
  9 14  1  6  0  0  0
  9 10  1  0  0  0  0
  9 13  1  0  0  0  0
 10  3  1  1  0  0  0
 11 10  1  0  0  0  0
 11 12  1  0  0  0  0
 12 13  1  0  0  0  0
 13 16  1  6  0  0  0
 15 14  1  0  0  0  0
 16 17  1  0  0  0  0
 18 19  2  0  0  0  0
 19 20  1  0  0  0  0
 20 22  1  0  0  0  0
 20 21  1  0  0  0  0
 23 20  1  0  0  0  0
 23 28  1  0  0  0  0
 24 23  2  0  0  0  0
 25 24  1  0  0  0  0
 25 26  2  0  0  0  0
 26 27  1  0  0  0  0
 27 28  2  0  0  0  0
 27 32  1  0  0  0  0
 28 33  1  0  0  0  0
 29 24  1  0  0  0  0
 30 25  1  0  0  0  0
 31 26  1  0  0  0  0
M  END
>  <minimizedAffinity>
-5.71021605

$$$$

 OpenBabel03272509063D

 33 35  0  0  1  0  0  0  0  0999 V2000
   36.0090   29.1250   31.6270 C   0  0  0  0  0  0  0  0  0  0  0  0
   35.4120   30.2620   32.2140 C   0  0  0  0  0  0  0  0  0  0  0  0
   35.3660   30.3150   33.6230 C   0  0  0  0  0  0  0  0  0  0  0  0
   35.8950   29.2710   34.3340 N   0  0  0  0  0  0  0  0  0  0  0  0
   36.4500   28.2160   33.7050 C   0  0  0  0  0  0  0  0  0  0  0  0
   36.5140   28.1280   32.3590 N   0  0  0  0  0  0  0  0  0  0  0  0
   36.0070   29.1560   30.5400 H   0  0  0  0  0  0  0  0  0  0  0  0
   34.9950   31.0840   31.6760 H   0  0  0  0  0  0  0  0  0  0  0  0
   34.2710   31.2090   35.6390 C   0  0  1  0  0  3  0  0  0  0  0  0
   34.7450   31.4980   34.2630 C   0  0  1  0  0  3  0  0  0  0  0  0
   35.5890   32.5880   34.3040 O   0  0  0  0  0  0  0  0  0  0  0  0
   36.0930   32.7040   35.5810 C   0  0  0  0  0  2  0  0  0  0  0  0
   35.3520   31.8040   36.5060 C   0  0  1  0  0  3  0  0  0  0  0  0
   33.0540   31.8210   35.9080 O   0  0  0  0  0  0  0  0  0  0  0  0
   33.0700   32.0810   36.8650 H   0  0  0  0  0  0  0  0  0  0  0  0
   34.8110   32.4800   37.5930 O   0  0  0  0  0  0  0  0  0  0  0  0
   35.5330   32.7990   38.1680 H   0  0  0  0  0  0  0  0  0  0  0  0
   36.9630   27.1800   34.5720 C   0  0  0  0  0  3  0  0  0  0  0  0
   37.8880   27.4580   35.4220 C   0  0  0  0  0  3  0  0  0  0  0  0
   38.5530   26.5930   36.4040 C   0  0  0  0  0  0  0  0  0  0  0  0
   39.6250   26.8980   36.4640 H   0  0  0  0  0  0  0  0  0  0  0  0
   38.1380   26.7230   37.4140 H   0  0  0  0  0  0  0  0  0  0  0  0
   38.4820   25.1360   36.0560 C   0  0  0  0  0  0  0  0  0  0  0  0
   39.1240   24.5430   34.9800 C   0  0  0  0  0  0  0  0  0  0  0  0
   38.9790   23.1790   34.7670 C   0  0  0  0  0  0  0  0  0  0  0  0
   38.2010   22.3880   35.6110 C   0  0  0  0  0  0  0  0  0  0  0  0
   37.5610   22.9830   36.6850 C   0  0  0  0  0  0  0  0  0  0  0  0
   37.7070   24.3490   36.8970 C   0  0  0  0  0  0  0  0  0  0  0  0
   39.7120   25.2000   34.3580 H   0  0  0  0  0  0  0  0  0  0  0  0
   39.5010   22.7720   33.9170 H   0  0  0  0  0  0  0  0  0  0  0  0
   38.1580   21.3400   35.3550 H   0  0  0  0  0  0  0  0  0  0  0  0
   36.9690   22.3440   37.3160 H   0  0  0  0  0  0  0  0  0  0  0  0
   37.1720   24.7180   37.7560 H   0  0  0  0  0  0  0  0  0  0  0  0
  1  2  2  0  0  0  0
  1  6  1  0  0  0  0
  2  3  1  0  0  0  0
  3  4  2  0  0  0  0
  5  4  1  0  0  0  0
  5 18  1  0  0  0  0
  6  5  2  0  0  0  0
  7  1  1  0  0  0  0
  8  2  1  0  0  0  0
  9 14  1  1  0  0  0
  9 13  1  0  0  0  0
 10  3  1  1  0  0  0
 10 11  1  0  0  0  0
 10  9  1  0  0  0  0
 11 12  1  0  0  0  0
 12 13  1  0  0  0  0
 13 16  1  1  0  0  0
 14 15  1  0  0  0  0
 16 17  1  0  0  0  0
 18 19  2  0  0  0  0
 19 20  1  0  0  0  0
 20 21  1  0  0  0  0
 20 22  1  0  0  0  0
 23 20  1  0  0  0  0
 23 28  1  0  0  0  0
 24 23  2  0  0  0  0
 25 24  1  0  0  0  0
 25 26  2  0  0  0  0
 26 27  1  0  0  0  0
 27 28  2  0  0  0  0
 27 32  1  0  0  0  0
 28 33  1  0  0  0  0
 29 24  1  0  0  0  0
 30 25  1  0  0  0  0
 31 26  1  0  0  0  0
M  END
>  <minimizedAffinity>
-5.66843319

$$$$

 OpenBabel03272509063D

 33 35  0  0  1  0  0  0  0  0999 V2000
   40.4820   26.0560   34.5030 C   0  0  0  0  0  0  0  0  0  0  0  0
   40.3700   24.8590   35.2440 C   0  0  0  0  0  0  0  0  0  0  0  0
   39.1500   24.1570   35.1580 C   0  0  0  0  0  0  0  0  0  0  0  0
   38.1540   24.6690   34.3700 N   0  0  0  0  0  0  0  0  0  0  0  0
   38.3320   25.8190   33.6890 C   0  0  0  0  0  0  0  0  0  0  0  0
   39.4840   26.5210   33.7460 N   0  0  0  0  0  0  0  0  0  0  0  0
   41.4490   26.5410   34.6200 H   0  0  0  0  0  0  0  0  0  0  0  0
   41.1350   24.4460   35.8620 H   0  0  0  0  0  0  0  0  0  0  0  0
   39.5060   23.0280   37.3170 C   0  0  1  0  0  3  0  0  0  0  0  0
   39.0080   22.8970   35.9250 C   0  0  1  0  0  3  0  0  0  0  0  0
   37.7090   22.4360   35.9600 O   0  0  0  0  0  0  0  0  0  0  0  0
   37.1690   22.7380   37.1910 C   0  0  0  0  0  2  0  0  0  0  0  0
   38.2400   23.1930   38.1200 C   0  0  1  0  0  3  0  0  0  0  0  0
   40.1880   21.8930   37.7330 O   0  0  0  0  0  0  0  0  0  0  0  0
   39.9950   21.7810   38.6990 H   0  0  0  0  0  0  0  0  0  0  0  0
   38.2860   22.4480   39.2920 O   0  0  0  0  0  0  0  0  0  0  0  0
   37.4820   22.6240   39.8190 H   0  0  0  0  0  0  0  0  0  0  0  0
   37.2000   26.2550   32.9040 C   0  0  0  0  0  3  0  0  0  0  0  0
   36.9680   27.5120   32.7630 C   0  0  0  0  0  3  0  0  0  0  0  0
   35.9030   28.1930   32.0140 C   0  0  0  0  0  0  0  0  0  0  0  0
   35.8360   27.7230   31.0050 H   0  0  0  0  0  0  0  0  0  0  0  0
   34.9190   28.0570   32.4850 H   0  0  0  0  0  0  0  0  0  0  0  0
   36.1420   29.6640   31.8500 C   0  0  0  0  0  0  0  0  0  0  0  0
   36.7270   30.2570   30.7410 C   0  0  0  0  0  0  0  0  0  0  0  0
   36.8900   31.6350   30.7120 C   0  0  0  0  0  0  0  0  0  0  0  0
   36.4790   32.4410   31.7730 C   0  0  0  0  0  0  0  0  0  0  0  0
   35.8950   31.8460   32.8780 C   0  0  0  0  0  0  0  0  0  0  0  0
   35.7330   30.4660   32.9070 C   0  0  0  0  0  0  0  0  0  0  0  0
   37.0270   29.5890   29.9500 H   0  0  0  0  0  0  0  0  0  0  0  0
   37.3490   32.0410   29.8250 H   0  0  0  0  0  0  0  0  0  0  0  0
   36.6520   33.4990   31.6450 H   0  0  0  0  0  0  0  0  0  0  0  0
   35.5900   32.4970   33.6790 H   0  0  0  0  0  0  0  0  0  0  0  0
   35.2710   30.0990   33.8080 H   0  0  0  0  0  0  0  0  0  0  0  0
  1  7  1  0  0  0  0
  1  2  1  0  0  0  0
  2  8  1  0  0  0  0
  3  2  2  0  0  0  0
  4  3  1  0  0  0  0
  5  6  1  0  0  0  0
  5  4  2  0  0  0  0
  6  1  2  0  0  0  0
  9 14  1  1  0  0  0
  9 13  1  0  0  0  0
 10  3  1  1  0  0  0
 10 11  1  0  0  0  0
 10  9  1  0  0  0  0
 11 12  1  0  0  0  0
 12 13  1  0  0  0  0
 13 16  1  1  0  0  0
 14 15  1  0  0  0  0
 16 17  1  0  0  0  0
 18  5  1  0  0  0  0
 19 18  2  0  0  0  0
 20 22  1  0  0  0  0
 20 19  1  0  0  0  0
 21 20  1  0  0  0  0
 23 20  1  0  0  0  0
 23 28  1  0  0  0  0
 24 23  2  0  0  0  0
 25 24  1  0  0  0  0
 25 26  2  0  0  0  0
 26 27  1  0  0  0  0
 27 28  2  0  0  0  0
 27 32  1  0  0  0  0
 28 33  1  0  0  0  0
 29 24  1  0  0  0  0
 30 25  1  0  0  0  0
 31 26  1  0  0  0  0
M  END
>  <minimizedAffinity>
-5.66182566

$$$$

 OpenBabel03272509063D

 33 35  0  0  1  0  0  0  0  0999 V2000
   38.1220   25.1200   35.5440 C   0  0  0  0  0  0  0  0  0  0  0  0
   38.0680   24.4420   34.3070 C   0  0  0  0  0  0  0  0  0  0  0  0
   37.5360   25.1470   33.2060 C   0  0  0  0  0  0  0  0  0  0  0  0
   37.1070   26.4330   33.3980 N   0  0  0  0  0  0  0  0  0  0  0  0
   37.1900   27.0170   34.6100 C   0  0  0  0  0  0  0  0  0  0  0  0
   37.6920   26.3760   35.6880 N   0  0  0  0  0  0  0  0  0  0  0  0
   38.5420   24.5140   36.3440 H   0  0  0  0  0  0  0  0  0  0  0  0
   38.3970   23.4420   34.1390 H   0  0  0  0  0  0  0  0  0  0  0  0
   37.1990   23.0060   32.0370 C   0  0  1  0  0  3  0  0  0  0  0  0
   37.4690   24.4580   31.8960 C   0  0  1  0  0  3  0  0  0  0  0  0
   36.5260   25.0040   31.0520 O   0  0  0  0  0  0  0  0  0  0  0  0
   35.4150   24.1880   31.0480 C   0  0  0  0  0  2  0  0  0  0  0  0
   35.7290   22.8980   31.7200 C   0  0  1  0  0  3  0  0  0  0  0  0
   37.9370   22.2500   31.1360 O   0  0  0  0  0  0  0  0  0  0  0  0
   37.3680   21.4810   30.8750 H   0  0  0  0  0  0  0  0  0  0  0  0
   35.4670   21.7960   30.9150 O   0  0  0  0  0  0  0  0  0  0  0  0
   34.5020   21.7170   30.7790 H   0  0  0  0  0  0  0  0  0  0  0  0
   36.6940   28.3720   34.6790 C   0  0  0  0  0  3  0  0  0  0  0  0
   36.0130   28.8520   33.6990 C   0  0  0  0  0  3  0  0  0  0  0  0
   35.4000   30.1780   33.5400 C   0  0  0  0  0  0  0  0  0  0  0  0
   36.1790   30.8740   33.1470 H   0  0  0  0  0  0  0  0  0  0  0  0
   34.5890   30.1690   32.7970 H   0  0  0  0  0  0  0  0  0  0  0  0
   34.8520   30.7350   34.8200 C   0  0  0  0  0  0  0  0  0  0  0  0
   35.5450   31.5660   35.6870 C   0  0  0  0  0  0  0  0  0  0  0  0
   34.9220   32.0170   36.8430 C   0  0  0  0  0  0  0  0  0  0  0  0
   33.6130   31.6540   37.1540 C   0  0  0  0  0  0  0  0  0  0  0  0
   32.9240   30.8240   36.2870 C   0  0  0  0  0  0  0  0  0  0  0  0
   33.5490   30.3720   35.1300 C   0  0  0  0  0  0  0  0  0  0  0  0
   36.5550   31.8160   35.3990 H   0  0  0  0  0  0  0  0  0  0  0  0
   35.5080   32.6600   37.4780 H   0  0  0  0  0  0  0  0  0  0  0  0
   33.2260   32.0620   38.0760 H   0  0  0  0  0  0  0  0  0  0  0  0
   31.9160   30.5630   36.5570 H   0  0  0  0  0  0  0  0  0  0  0  0
   32.9320   29.7330   34.5210 H   0  0  0  0  0  0  0  0  0  0  0  0
  1  6  1  0  0  0  0
  1  7  1  0  0  0  0
  2  1  2  0  0  0  0
  3  4  2  0  0  0  0
  3  2  1  0  0  0  0
  4  5  1  0  0  0  0
  5 18  1  0  0  0  0
  5  6  2  0  0  0  0
  8  2  1  0  0  0  0
  9 14  1  6  0  0  0
 10  9  1  0  0  0  0
 10  3  1  1  0  0  0
 11 10  1  0  0  0  0
 12 11  1  0  0  0  0
 12 13  1  0  0  0  0
 13 16  1  6  0  0  0
 13  9  1  0  0  0  0
 15 14  1  0  0  0  0
 17 16  1  0  0  0  0
 19 18  2  0  0  0  0
 20 19  1  0  0  0  0
 20 23  1  0  0  0  0
 21 20  1  0  0  0  0
 22 20  1  0  0  0  0
 23 28  2  0  0  0  0
 23 24  1  0  0  0  0
 24 25  2  0  0  0  0
 25 26  1  0  0  0  0
 25 30  1  0  0  0  0
 26 31  1  0  0  0  0
 27 32  1  0  0  0  0
 27 26  2  0  0  0  0
 28 27  1  0  0  0  0
 29 24  1  0  0  0  0
 33 28  1  0  0  0  0
M  END
>  <minimizedAffinity>
-5.57360029

$$$$

 OpenBabel03272509063D

 33 35  0  0  1  0  0  0  0  0999 V2000
   37.9600   25.7420   32.6350 C   0  0  0  0  0  0  0  0  0  0  0  0
   38.4750   24.9340   33.6740 C   0  0  0  0  0  0  0  0  0  0  0  0
   38.2320   25.3530   34.9990 C   0  0  0  0  0  0  0  0  0  0  0  0
   37.5200   26.5050   35.2010 N   0  0  0  0  0  0  0  0  0  0  0  0
   37.0580   27.2260   34.1600 C   0  0  0  0  0  0  0  0  0  0  0  0
   37.2700   26.8590   32.8780 N   0  0  0  0  0  0  0  0  0  0  0  0
   38.1870   25.3560   31.6440 H   0  0  0  0  0  0  0  0  0  0  0  0
   39.0310   24.0350   33.5340 H   0  0  0  0  0  0  0  0  0  0  0  0
   37.8000   24.4090   37.2320 C   0  0  1  0  0  3  0  0  0  0  0  0
   38.7610   24.5230   36.1070 C   0  0  1  0  0  3  0  0  0  0  0  0
   39.1210   23.2560   35.7010 O   0  0  0  0  0  0  0  0  0  0  0  0
   38.1360   22.3740   36.0890 C   0  0  0  0  0  2  0  0  0  0  0  0
   37.1950   23.0420   37.0290 C   0  0  1  0  0  3  0  0  0  0  0  0
   38.4360   24.4690   38.4650 O   0  0  0  0  0  0  0  0  0  0  0  0
   37.9360   23.8660   39.0740 H   0  0  0  0  0  0  0  0  0  0  0  0
   37.0670   22.3630   38.2340 O   0  0  0  0  0  0  0  0  0  0  0  0
   36.6160   21.5110   38.0790 H   0  0  0  0  0  0  0  0  0  0  0  0
   36.3320   28.4240   34.5110 C   0  0  0  0  0  3  0  0  0  0  0  0
   35.6270   29.0270   33.6190 C   0  0  0  0  0  3  0  0  0  0  0  0
   34.8020   30.2370   33.7330 C   0  0  0  0  0  0  0  0  0  0  0  0
   34.2600   30.3770   32.7670 H   0  0  0  0  0  0  0  0  0  0  0  0
   34.0290   30.1360   34.5090 H   0  0  0  0  0  0  0  0  0  0  0  0
   35.5980   31.4720   34.0260 C   0  0  0  0  0  0  0  0  0  0  0  0
   35.9330   31.9220   35.2950 C   0  0  0  0  0  0  0  0  0  0  0  0
   36.6790   33.0840   35.4320 C   0  0  0  0  0  0  0  0  0  0  0  0
   37.1030   33.8130   34.3220 C   0  0  0  0  0  0  0  0  0  0  0  0
   36.7680   33.3620   33.0570 C   0  0  0  0  0  0  0  0  0  0  0  0
   36.0200   32.1980   32.9210 C   0  0  0  0  0  0  0  0  0  0  0  0
   35.5790   31.3210   36.1190 H   0  0  0  0  0  0  0  0  0  0  0  0
   36.9100   33.3840   36.4410 H   0  0  0  0  0  0  0  0  0  0  0  0
   37.6790   34.6990   34.5420 H   0  0  0  0  0  0  0  0  0  0  0  0
   37.1110   33.9480   32.2220 H   0  0  0  0  0  0  0  0  0  0  0  0
   35.8100   31.9300   31.8990 H   0  0  0  0  0  0  0  0  0  0  0  0
  1  6  2  0  0  0  0
  1  2  1  0  0  0  0
  2  3  2  0  0  0  0
  3  4  1  0  0  0  0
  5 18  1  0  0  0  0
  5  4  2  0  0  0  0
  6  5  1  0  0  0  0
  7  1  1  0  0  0  0
  8  2  1  0  0  0  0
  9 14  1  1  0  0  0
 10  3  1  6  0  0  0
 10  9  1  0  0  0  0
 11 12  1  0  0  0  0
 11 10  1  0  0  0  0
 12 13  1  0  0  0  0
 13  9  1  0  0  0  0
 13 16  1  1  0  0  0
 14 15  1  0  0  0  0
 17 16  1  0  0  0  0
 19 20  1  0  0  0  0
 19 18  2  0  0  0  0
 20 23  1  0  0  0  0
 20 22  1  0  0  0  0
 21 20  1  0  0  0  0
 23 24  1  0  0  0  0
 24 25  2  0  0  0  0
 24 29  1  0  0  0  0
 25 30  1  0  0  0  0
 26 31  1  0  0  0  0
 26 25  1  0  0  0  0
 27 26  2  0  0  0  0
 28 27  1  0  0  0  0
 28 23  2  0  0  0  0
 32 27  1  0  0  0  0
 33 28  1  0  0  0  0
M  END
>  <minimizedAffinity>
-5.56687784

$$$$

 OpenBabel03272509063D

 33 35  0  0  1  0  0  0  0  0999 V2000
   35.9740   28.2000   32.7400 C   0  0  0  0  0  0  0  0  0  0  0  0
   36.7750   27.9840   33.8840 C   0  0  0  0  0  0  0  0  0  0  0  0
   37.3280   26.6970   34.0520 C   0  0  0  0  0  0  0  0  0  0  0  0
   37.0600   25.7410   33.1090 N   0  0  0  0  0  0  0  0  0  0  0  0
   36.2860   26.0200   32.0410 C   0  0  0  0  0  0  0  0  0  0  0  0
   35.7380   27.2390   31.8440 N   0  0  0  0  0  0  0  0  0  0  0  0
   35.5840   29.2140   32.6800 H   0  0  0  0  0  0  0  0  0  0  0  0
   36.9940   28.7160   34.6280 H   0  0  0  0  0  0  0  0  0  0  0  0
   38.6090   25.0300   35.3330 C   0  0  1  0  0  3  0  0  0  0  0  0
   38.1720   26.4450   35.2430 C   0  0  1  0  0  3  0  0  0  0  0  0
   39.2850   27.2570   35.2920 O   0  0  0  0  0  0  0  0  0  0  0  0
   40.3820   26.5210   34.8970 C   0  0  0  0  0  2  0  0  0  0  0  0
   40.0300   25.0770   34.8300 C   0  0  1  0  0  3  0  0  0  0  0  0
   38.5820   24.5600   36.6390 O   0  0  0  0  0  0  0  0  0  0  0  0
   39.3410   23.9280   36.7320 H   0  0  0  0  0  0  0  0  0  0  0  0
   40.8660   24.2840   35.6060 O   0  0  0  0  0  0  0  0  0  0  0  0
   41.7630   24.2850   35.2200 H   0  0  0  0  0  0  0  0  0  0  0  0
   36.0740   24.9210   31.1280 C   0  0  0  0  0  3  0  0  0  0  0  0
   36.4460   23.7350   31.4590 C   0  0  0  0  0  3  0  0  0  0  0  0
   36.3300   22.4720   30.7180 C   0  0  0  0  0  0  0  0  0  0  0  0
   35.5100   22.5840   29.9700 H   0  0  0  0  0  0  0  0  0  0  0  0
   37.2420   22.2470   30.1450 H   0  0  0  0  0  0  0  0  0  0  0  0
   36.0290   21.2950   31.5960 C   0  0  0  0  0  0  0  0  0  0  0  0
   35.7480   21.3650   32.9530 C   0  0  0  0  0  0  0  0  0  0  0  0
   35.4820   20.1980   33.6550 C   0  0  0  0  0  0  0  0  0  0  0  0
   35.4920   18.9520   33.0290 C   0  0  0  0  0  0  0  0  0  0  0  0
   35.7730   18.8850   31.6750 C   0  0  0  0  0  0  0  0  0  0  0  0
   36.0390   20.0550   30.9730 C   0  0  0  0  0  0  0  0  0  0  0  0
   35.7540   22.3520   33.3880 H   0  0  0  0  0  0  0  0  0  0  0  0
   35.2690   20.3120   34.7050 H   0  0  0  0  0  0  0  0  0  0  0  0
   35.2710   18.1110   33.6680 H   0  0  0  0  0  0  0  0  0  0  0  0
   35.7720   17.9090   31.2230 H   0  0  0  0  0  0  0  0  0  0  0  0
   36.2460   19.9000   29.9270 H   0  0  0  0  0  0  0  0  0  0  0  0
  1  2  1  0  0  0  0
  2  3  2  0  0  0  0
  2  8  1  0  0  0  0
  4  3  1  0  0  0  0
  5  4  2  0  0  0  0
  6  5  1  0  0  0  0
  6  1  2  0  0  0  0
  7  1  1  0  0  0  0
  9 14  1  1  0  0  0
 10  3  1  6  0  0  0
 10 11  1  0  0  0  0
 10  9  1  0  0  0  0
 12 11  1  0  0  0  0
 13 12  1  0  0  0  0
 13  9  1  0  0  0  0
 13 16  1  1  0  0  0
 14 15  1  0  0  0  0
 17 16  1  0  0  0  0
 18 19  2  0  0  0  0
 18  5  1  0  0  0  0
 20 19  1  0  0  0  0
 20 23  1  0  0  0  0
 21 20  1  0  0  0  0
 22 20  1  0  0  0  0
 23 24  1  0  0  0  0
 24 29  1  0  0  0  0
 24 25  2  0  0  0  0
 25 30  1  0  0  0  0
 26 25  1  0  0  0  0
 26 31  1  0  0  0  0
 27 26  2  0  0  0  0
 28 23  2  0  0  0  0
 28 27  1  0  0  0  0
 32 27  1  0  0  0  0
 33 28  1  0  0  0  0
M  END
>  <minimizedAffinity>
-5.55470991

$$$$
