
 OpenBabel03272508143D

 28 30  0  0  1  0  0  0  0  0999 V2000
   38.4990   30.6810   48.1490 Cl  0  0  0  0  0  0  0  0  0  0  0  0
   37.2900   30.4880   46.9000 C   0  0  0  0  0  0  0  0  0  0  0  0
   36.0500   30.1140   47.3730 C   0  0  0  0  0  0  0  0  0  0  0  0
   35.0220   29.9380   46.4410 C   0  0  0  0  0  0  0  0  0  0  0  0
   35.2100   30.1220   45.1090 C   0  0  0  0  0  0  0  0  0  0  0  0
   36.4580   30.4950   44.6660 C   0  0  0  0  0  0  0  0  0  0  0  0
   36.7400   30.7400   42.9590 Cl  0  0  0  0  0  0  0  0  0  0  0  0
   37.4720   30.6720   45.5490 C   0  0  0  0  0  0  0  0  0  0  0  0
   34.0120   29.6450   46.7190 H   0  0  0  0  0  0  0  0  0  0  0  0
   34.4230   29.9900   44.3780 H   0  0  0  0  0  0  0  0  0  0  0  0
   36.6000   29.3550   49.6500 C   0  0  0  0  0  0  0  0  0  0  0  0
   35.6180   29.8580   48.7530 C   0  0  0  0  0  0  0  0  0  0  0  0
   34.3320   30.0750   49.2260 C   0  0  0  0  0  0  0  0  0  0  0  0
   34.0760   29.7920   50.5310 N   0  0  0  0  0  0  0  0  0  0  0  0
   35.0200   29.3150   51.3650 C   0  0  0  0  0  0  0  0  0  0  0  0
   36.2870   29.0950   50.9250 N   0  0  0  0  0  0  0  0  0  0  0  0
   37.5990   29.1880   49.2760 H   0  0  0  0  0  0  0  0  0  0  0  0
   33.6000   30.4590   48.5280 H   0  0  0  0  0  0  0  0  0  0  0  0
   34.8330   29.0890   52.3870 H   0  0  0  0  0  0  0  0  0  0  0  0
   38.9930   32.5580   44.9140 C   0  0  2  0  0  0  0  0  0  0  0  0
   38.8190   31.0680   45.1290 C   0  0  2  0  0  0  0  0  0  0  0  0
   39.1850   30.5830   43.8640 O   0  0  0  0  0  0  0  0  0  0  0  0
   40.4460   31.1560   43.6980 C   0  0  0  0  0  0  0  0  0  0  0  0
   40.3570   32.5670   44.2150 C   0  0  2  0  0  0  0  0  0  0  0  0
   39.0050   33.2830   46.0940 O   0  0  0  0  0  0  0  0  0  0  0  0
   39.8130   33.1880   46.6220 H   0  0  0  0  0  0  0  0  0  0  0  0
   41.3060   32.7390   45.2290 O   0  0  0  0  0  0  0  0  0  0  0  0
   41.8400   31.9120   45.3760 H   0  0  0  0  0  0  0  0  0  0  0  0
  2  3  1  0  0  0  0
  2  1  1  0  0  0  0
  3 12  1  0  0  0  0
  4  9  1  0  0  0  0
  4  3  2  0  0  0  0
  5  4  1  0  0  0  0
  6  5  2  0  0  0  0
  6  8  1  0  0  0  0
  7  6  1  0  0  0  0
  8  2  2  0  0  0  0
 10  5  1  0  0  0  0
 11 16  1  0  0  0  0
 12 13  1  0  0  0  0
 12 11  2  0  0  0  0
 13 14  2  0  0  0  0
 14 15  1  0  0  0  0
 15 19  1  0  0  0  0
 16 15  2  0  0  0  0
 17 11  1  0  0  0  0
 18 13  1  0  0  0  0
 20 21  1  0  0  0  0
 20 25  1  1  0  0  0
 21  8  1  6  0  0  0
 22 21  1  0  0  0  0
 23 22  1  0  0  0  0
 23 24  1  0  0  0  0
 24 20  1  0  0  0  0
 24 27  1  1  0  0  0
 25 26  1  0  0  0  0
 27 28  1  0  0  0  0
M  END
>  <minimizedAffinity>
-5.33940268

>  <minimizedRMSD>
3.50418305

$$$$
