
 OpenBabel03272508053D

 35 38  0  0  1  0  0  0  0  0999 V2000
   38.9000   30.8940   45.7730 C   0  0  0  0  0  0  0  0  0  0  0  0
   40.1290   31.4320   46.0410 C   0  0  0  0  0  0  0  0  0  0  0  0
   40.9410   31.3960   44.9170 C   0  0  0  0  0  0  0  0  0  0  0  0
   40.1410   30.8150   43.9750 N   0  0  0  0  0  0  0  0  0  0  0  0
   38.9600   30.5250   44.4700 N   0  0  0  0  0  0  0  0  0  0  0  0
   40.4670   31.8420   46.9890 H   0  0  0  0  0  0  0  0  0  0  0  0
   41.9520   31.7220   44.7520 H   0  0  0  0  0  0  0  0  0  0  0  0
   37.7700   30.7430   46.6690 C   0  0  0  0  0  0  0  0  0  0  0  0
   38.0000   30.9760   48.0520 C   0  0  0  0  0  0  0  0  0  0  0  0
   36.9230   30.8330   48.9220 C   0  0  0  0  0  0  0  0  0  0  0  0
   35.7230   30.4800   48.3990 N   0  0  0  0  0  0  0  0  0  0  0  0
   35.5320   30.2640   47.0770 C   0  0  0  0  0  0  0  0  0  0  0  0
   36.5680   30.3990   46.2240 N   0  0  0  0  0  0  0  0  0  0  0  0
   38.9540   31.2570   48.4690 H   0  0  0  0  0  0  0  0  0  0  0  0
   34.5410   29.9810   46.7080 H   0  0  0  0  0  0  0  0  0  0  0  0
   37.1500   31.0760   50.3820 C   0  0  0  0  0  0  0  0  0  0  0  0
   36.6140   32.3080   50.6350 F   0  0  0  0  0  0  0  0  0  0  0  0
   36.4900   30.1300   51.1700 F   0  0  0  0  0  0  0  0  0  0  0  0
   38.4990   31.0760   50.7040 F   0  0  0  0  0  0  0  0  0  0  0  0
   40.4680   30.5240   42.5850 C   0  0  0  0  0  0  0  0  0  0  0  0
   40.0190   31.3560   41.5450 C   0  0  0  0  0  0  0  0  0  0  0  0
   40.3700   31.0340   40.2670 C   0  0  0  0  0  0  0  0  0  0  0  0
   41.1700   29.8780   40.0210 C   0  0  0  0  0  0  0  0  0  0  0  0
   41.4280   29.2240   41.7350 S   0  0  0  0  0  0  0  0  0  0  0  0
   39.4110   32.2380   41.6910 H   0  0  0  0  0  0  0  0  0  0  0  0
   40.1300   31.5360   39.3430 H   0  0  0  0  0  0  0  0  0  0  0  0
   42.8690   29.9930   38.3310 C   0  0  2  0  0  3  0  0  0  0  0  0
   41.7200   29.2300   38.9120 C   0  0  1  0  0  3  0  0  0  0  0  0
   42.3290   28.0180   39.3190 O   0  0  0  0  0  0  0  0  0  0  0  0
   43.0210   27.5980   38.1790 C   0  0  0  0  0  2  0  0  0  0  0  0
   43.6900   28.8580   37.7100 C   0  0  2  0  0  3  0  0  0  0  0  0
   43.6210   30.5180   39.3750 O   0  0  0  0  0  0  0  0  0  0  0  0
   44.1720   31.2940   39.1000 H   0  0  0  0  0  0  0  0  0  0  0  0
   45.0270   28.9270   38.0570 O   0  0  0  0  0  0  0  0  0  0  0  0
   45.3050   28.2990   38.7610 H   0  0  0  0  0  0  0  0  0  0  0  0
  1  2  1  0  0  0  0
  1  8  1  0  0  0  0
  2  6  1  0  0  0  0
  3  2  2  0  0  0  0
  4  5  1  0  0  0  0
  4  3  1  0  0  0  0
  5  1  2  0  0  0  0
  7  3  1  0  0  0  0
  8  9  1  0  0  0  0
  9 14  1  0  0  0  0
  9 10  2  0  0  0  0
 10 16  1  0  0  0  0
 11 10  1  0  0  0  0
 12 11  2  0  0  0  0
 13  8  2  0  0  0  0
 13 12  1  0  0  0  0
 15 12  1  0  0  0  0
 16 17  1  0  0  0  0
 16 19  1  0  0  0  0
 16 18  1  0  0  0  0
 20  4  1  0  0  0  0
 21 25  1  0  0  0  0
 21 20  2  0  0  0  0
 22 21  1  0  0  0  0
 23 22  2  0  0  0  0
 23 24  1  0  0  0  0
 24 20  1  0  0  0  0
 26 22  1  0  0  0  0
 27 28  1  0  0  0  0
 27 32  1  1  0  0  0
 28 29  1  0  0  0  0
 28 23  1  1  0  0  0
 30 29  1  0  0  0  0
 31 34  1  1  0  0  0
 31 30  1  0  0  0  0
 31 27  1  0  0  0  0
 33 32  1  0  0  0  0
 34 35  1  0  0  0  0
M  END
>  <minimizedAffinity>
-6.68965006

>  <minimizedRMSD>
0.21146211

$$$$
