
 OpenBabel03272508533D

 38 41  0  0  1  0  0  0  0  0999 V2000
   38.4020   31.8520   44.5540 C   0  0  0  0  0  0  0  0  0  0  0  0
   37.3010   32.4480   44.4420 O   0  0  0  0  0  0  0  0  0  0  0  0
   38.9350   31.5590   45.8600 N   0  0  0  0  0  0  0  0  0  0  0  0
   39.9020   31.2510   46.0210 H   0  0  0  0  0  0  0  0  0  0  0  0
   39.1760   31.4370   43.3690 C   0  0  0  0  0  0  0  0  0  0  0  0
   40.1820   30.5240   43.5350 C   0  0  0  0  0  0  0  0  0  0  0  0
   40.9020   30.1490   42.4120 C   0  0  0  0  0  0  0  0  0  0  0  0
   40.5640   30.7110   41.2020 C   0  0  0  0  0  0  0  0  0  0  0  0
   39.5350   31.6450   41.0310 C   0  0  0  0  0  0  0  0  0  0  0  0
   38.8730   31.9670   42.1640 N   0  0  0  0  0  0  0  0  0  0  0  0
   40.4540   30.0800   44.4740 H   0  0  0  0  0  0  0  0  0  0  0  0
   41.7010   29.4420   42.4690 H   0  0  0  0  0  0  0  0  0  0  0  0
   41.1040   30.4430   40.3020 H   0  0  0  0  0  0  0  0  0  0  0  0
   37.9040   31.7800   39.1470 C   0  0  1  0  0  3  0  0  0  0  0  0
   39.2340   32.2000   39.7060 C   0  0  2  0  0  3  0  0  0  0  0  0
   40.1940   31.8800   38.7560 O   0  0  0  0  0  0  0  0  0  0  0  0
   39.7260   30.8150   38.0270 C   0  0  0  0  0  2  0  0  0  0  0  0
   38.2300   30.8570   38.0140 C   0  0  2  0  0  3  0  0  0  0  0  0
   37.2010   31.0480   40.1120 O   0  0  0  0  0  0  0  0  0  0  0  0
   37.2980   30.0590   39.9810 H   0  0  0  0  0  0  0  0  0  0  0  0
   37.7200   31.3310   36.7920 O   0  0  0  0  0  0  0  0  0  0  0  0
   38.4870   31.6210   36.2200 H   0  0  0  0  0  0  0  0  0  0  0  0
   38.4100   31.1020   48.2510 C   0  0  2  0  0  0  0  0  0  0  0  0
   38.6830   32.5460   48.1470 C   0  0  0  0  0  0  0  0  0  0  0  0
   38.0460   31.7150   46.9990 C   0  0  1  0  0  0  0  0  0  0  0  0
   39.3410   30.4900   48.3410 H   0  0  0  0  0  0  0  0  0  0  0  0
   38.0090   33.3070   48.5500 H   0  0  0  0  0  0  0  0  0  0  0  0
   39.7140   32.9000   48.0090 H   0  0  0  0  0  0  0  0  0  0  0  0
   36.9780   31.9370   46.7920 H   0  0  0  0  0  0  0  0  0  0  0  0
   35.0770   30.1930   49.5680 C   0  0  0  0  0  0  0  0  0  0  0  0
   35.3990   29.5650   50.8140 C   0  0  0  0  0  0  0  0  0  0  0  0
   36.7980   29.4800   51.1670 C   0  0  0  0  0  0  0  0  0  0  0  0
   37.7200   29.9890   50.3220 N   0  0  0  0  0  0  0  0  0  0  0  0
   37.3420   30.5740   49.1520 C   0  0  0  0  0  0  0  0  0  0  0  0
   36.0280   30.6920   48.7480 N   0  0  0  0  0  0  0  0  0  0  0  0
   34.0220   30.2270   49.3580 H   0  0  0  0  0  0  0  0  0  0  0  0
   34.6410   29.1760   51.4510 H   0  0  0  0  0  0  0  0  0  0  0  0
   37.0720   29.0140   52.0940 H   0  0  0  0  0  0  0  0  0  0  0  0
  1  3  1  0  0  0  0
  2  1  2  0  0  0  0
  3  4  1  0  0  0  0
  3 25  1  0  0  0  0
  5  6  1  0  0  0  0
  5  1  1  0  0  0  0
  6 11  1  0  0  0  0
  7 12  1  0  0  0  0
  7  6  2  0  0  0  0
  8  7  1  0  0  0  0
  9  8  2  0  0  0  0
  9 10  1  0  0  0  0
 10  5  2  0  0  0  0
 13  8  1  0  0  0  0
 14 15  1  0  0  0  0
 14 19  1  1  0  0  0
 15  9  1  1  0  0  0
 16 15  1  0  0  0  0
 17 16  1  0  0  0  0
 18 21  1  6  0  0  0
 18 17  1  0  0  0  0
 18 14  1  0  0  0  0
 20 19  1  0  0  0  0
 22 21  1  0  0  0  0
 23 26  1  6  0  0  0
 23 34  1  0  0  0  0
 24 23  1  0  0  0  0
 24 27  1  0  0  0  0
 25 29  1  6  0  0  0
 25 24  1  0  0  0  0
 25 23  1  0  0  0  0
 28 24  1  0  0  0  0
 30 31  1  0  0  0  0
 31 32  2  0  0  0  0
 31 37  1  0  0  0  0
 32 38  1  0  0  0  0
 33 32  1  0  0  0  0
 34 33  2  0  0  0  0
 35 34  1  0  0  0  0
 35 30  2  0  0  0  0
 36 30  1  0  0  0  0
M  END
>  <minimizedAffinity>
-5.13976812

>  <minimizedRMSD>
0.840173841

$$$$
