
 OpenBabel03272508043D

 35 38  0  0  1  0  0  0  0  0999 V2000
   38.9000   30.8960   45.7710 C   0  0  0  0  0  0  0  0  0  0  0  0
   40.1300   31.4340   46.0390 C   0  0  0  0  0  0  0  0  0  0  0  0
   40.9420   31.3980   44.9150 C   0  0  0  0  0  0  0  0  0  0  0  0
   40.1410   30.8170   43.9730 N   0  0  0  0  0  0  0  0  0  0  0  0
   38.9610   30.5260   44.4690 N   0  0  0  0  0  0  0  0  0  0  0  0
   40.4670   31.8450   46.9870 H   0  0  0  0  0  0  0  0  0  0  0  0
   41.9520   31.7250   44.7500 H   0  0  0  0  0  0  0  0  0  0  0  0
   37.7710   30.7440   46.6680 C   0  0  0  0  0  0  0  0  0  0  0  0
   38.0010   30.9790   48.0500 C   0  0  0  0  0  0  0  0  0  0  0  0
   36.9240   30.8360   48.9210 C   0  0  0  0  0  0  0  0  0  0  0  0
   35.7240   30.4820   48.3980 N   0  0  0  0  0  0  0  0  0  0  0  0
   35.5330   30.2640   47.0750 C   0  0  0  0  0  0  0  0  0  0  0  0
   36.5690   30.4000   46.2230 N   0  0  0  0  0  0  0  0  0  0  0  0
   38.9540   31.2610   48.4670 H   0  0  0  0  0  0  0  0  0  0  0  0
   34.5430   29.9810   46.7070 H   0  0  0  0  0  0  0  0  0  0  0  0
   37.1500   31.0790   50.3800 C   0  0  0  0  0  0  0  0  0  0  0  0
   36.6180   32.3140   50.6310 F   0  0  0  0  0  0  0  0  0  0  0  0
   36.4880   30.1370   51.1690 F   0  0  0  0  0  0  0  0  0  0  0  0
   38.4990   31.0760   50.7030 F   0  0  0  0  0  0  0  0  0  0  0  0
   40.4690   30.5250   42.5830 C   0  0  0  0  0  0  0  0  0  0  0  0
   40.0190   31.3560   41.5430 C   0  0  0  0  0  0  0  0  0  0  0  0
   40.3700   31.0330   40.2650 C   0  0  0  0  0  0  0  0  0  0  0  0
   41.1710   29.8770   40.0200 C   0  0  0  0  0  0  0  0  0  0  0  0
   41.4300   29.2250   41.7350 S   0  0  0  0  0  0  0  0  0  0  0  0
   39.4110   32.2370   41.6890 H   0  0  0  0  0  0  0  0  0  0  0  0
   40.1300   31.5340   39.3410 H   0  0  0  0  0  0  0  0  0  0  0  0
   42.8710   29.9930   38.3310 C   0  0  2  0  0  3  0  0  0  0  0  0
   41.7220   29.2290   38.9110 C   0  0  1  0  0  3  0  0  0  0  0  0
   42.3310   28.0190   39.3180 O   0  0  0  0  0  0  0  0  0  0  0  0
   43.0240   27.5990   38.1790 C   0  0  0  0  0  2  0  0  0  0  0  0
   43.6930   28.8590   37.7090 C   0  0  2  0  0  3  0  0  0  0  0  0
   43.6210   30.5190   39.3750 O   0  0  0  0  0  0  0  0  0  0  0  0
   44.1720   31.2950   39.1000 H   0  0  0  0  0  0  0  0  0  0  0  0
   45.0290   28.9290   38.0570 O   0  0  0  0  0  0  0  0  0  0  0  0
   45.3070   28.3010   38.7610 H   0  0  0  0  0  0  0  0  0  0  0  0
  1  2  1  0  0  0  0
  1  8  1  0  0  0  0
  2  6  1  0  0  0  0
  3  2  2  0  0  0  0
  4  5  1  0  0  0  0
  4  3  1  0  0  0  0
  5  1  2  0  0  0  0
  7  3  1  0  0  0  0
  8  9  1  0  0  0  0
  9 14  1  0  0  0  0
  9 10  2  0  0  0  0
 10 16  1  0  0  0  0
 11 10  1  0  0  0  0
 12 11  2  0  0  0  0
 13  8  2  0  0  0  0
 13 12  1  0  0  0  0
 15 12  1  0  0  0  0
 16 17  1  0  0  0  0
 16 19  1  0  0  0  0
 16 18  1  0  0  0  0
 20  4  1  0  0  0  0
 21 25  1  0  0  0  0
 21 20  2  0  0  0  0
 22 21  1  0  0  0  0
 23 22  2  0  0  0  0
 23 24  1  0  0  0  0
 24 20  1  0  0  0  0
 26 22  1  0  0  0  0
 27 28  1  0  0  0  0
 27 32  1  1  0  0  0
 28 29  1  0  0  0  0
 28 23  1  1  0  0  0
 30 29  1  0  0  0  0
 31 34  1  1  0  0  0
 31 30  1  0  0  0  0
 31 27  1  0  0  0  0
 33 32  1  0  0  0  0
 34 35  1  0  0  0  0
M  END
>  <minimizedAffinity>
-6.69232512

>  <minimizedRMSD>
1.10787654

$$$$
