
 OpenBabel03272504503D

 42 45  0  0  1  0  0  0  0  0999 V2000
   37.0450   30.8580   48.5250 N   0  0  0  0  0  0  0  0  0  0  0  0
   37.6120   30.7190   49.8630 C   0  0  0  0  0  0  0  0  0  0  0  0
   38.7300   31.6630   50.1360 C   0  0  0  0  0  0  0  0  0  0  0  0
   38.5180   32.9890   49.4540 C   0  0  0  0  0  0  0  0  0  0  0  0
   38.5550   32.7120   47.9780 C   0  0  0  0  0  0  0  0  0  0  0  0
   37.5550   31.7020   47.4980 C   0  0  1  0  0  0  0  0  0  0  0  0
   36.7760   30.9770   50.5600 H   0  0  0  0  0  0  0  0  0  0  0  0
   37.8700   29.6670   50.0280 H   0  0  0  0  0  0  0  0  0  0  0  0
   38.7950   31.8430   51.2350 H   0  0  0  0  0  0  0  0  0  0  0  0
   39.6730   31.2210   49.7910 H   0  0  0  0  0  0  0  0  0  0  0  0
   37.6250   33.5160   49.7940 H   0  0  0  0  0  0  0  0  0  0  0  0
   39.4030   33.6130   49.6800 H   0  0  0  0  0  0  0  0  0  0  0  0
   38.3540   33.6810   47.4770 H   0  0  0  0  0  0  0  0  0  0  0  0
   39.6110   32.4640   47.7350 H   0  0  0  0  0  0  0  0  0  0  0  0
   36.7420   32.2140   46.9270 H   0  0  0  0  0  0  0  0  0  0  0  0
   35.6240   28.9150   48.9980 C   0  0  0  0  0  0  0  0  0  0  0  0
   35.8910   30.0680   48.2700 C   0  0  0  0  0  0  0  0  0  0  0  0
   34.9830   30.4090   47.2840 C   0  0  0  0  0  0  0  0  0  0  0  0
   33.8950   29.6100   47.0850 N   0  0  0  0  0  0  0  0  0  0  0  0
   33.6650   28.5130   47.7970 C   0  0  0  0  0  0  0  0  0  0  0  0
   34.5370   28.1660   48.7590 N   0  0  0  0  0  0  0  0  0  0  0  0
   36.2870   28.5900   49.7790 H   0  0  0  0  0  0  0  0  0  0  0  0
   35.0740   31.2590   46.6640 H   0  0  0  0  0  0  0  0  0  0  0  0
   32.5010   27.6940   47.5550 C   0  0  0  0  0  0  0  0  0  0  0  0
   32.5890   26.3180   47.6350 C   0  0  0  0  0  0  0  0  0  0  0  0
   31.5300   25.4710   47.4190 C   0  0  0  0  0  0  0  0  0  0  0  0
   30.3580   26.0950   47.1120 C   0  0  0  0  0  0  0  0  0  0  0  0
   30.2040   27.5020   47.0150 C   0  0  0  0  0  0  0  0  0  0  0  0
   31.3190   28.2710   47.2470 N   0  0  0  0  0  0  0  0  0  0  0  0
   33.5760   25.9070   47.8880 H   0  0  0  0  0  0  0  0  0  0  0  0
   31.6130   24.4110   47.4850 H   0  0  0  0  0  0  0  0  0  0  0  0
   29.4440   25.5280   46.9190 H   0  0  0  0  0  0  0  0  0  0  0  0
   29.2500   27.9450   46.7690 H   0  0  0  0  0  0  0  0  0  0  0  0
   37.9730   31.0350   45.1000 C   0  0  2  0  0  3  0  0  0  0  0  0
   38.3240   30.8110   46.5230 C   0  0  1  0  0  3  0  0  0  0  0  0
   39.6630   31.0740   46.7320 O   0  0  0  0  0  0  0  0  0  0  0  0
   40.2770   31.3740   45.5460 C   0  0  0  0  0  2  0  0  0  0  0  0
   39.2850   31.3630   44.4380 C   0  0  2  0  0  3  0  0  0  0  0  0
   37.0010   31.9710   44.8510 O   0  0  0  0  0  0  0  0  0  0  0  0
   36.0980   31.5770   44.8490 H   0  0  0  0  0  0  0  0  0  0  0  0
   39.1640   32.5820   43.7610 O   0  0  0  0  0  0  0  0  0  0  0  0
   38.4050   32.4630   43.1440 H   0  0  0  0  0  0  0  0  0  0  0  0
  1  2  1  0  0  0  0
  2  8  1  0  0  0  0
  2  3  1  0  0  0  0
  2  7  1  0  0  0  0
  3  9  1  0  0  0  0
  4 12  1  0  0  0  0
  4 11  1  0  0  0  0
  4  3  1  0  0  0  0
  5  4  1  0  0  0  0
  6 15  1  6  0  0  0
  6  5  1  0  0  0  0
  6  1  1  0  0  0  0
 10  3  1  0  0  0  0
 13  5  1  0  0  0  0
 14  5  1  0  0  0  0
 16 22  1  0  0  0  0
 17  1  1  0  0  0  0
 17 16  2  0  0  0  0
 18 17  1  0  0  0  0
 19 18  2  0  0  0  0
 19 20  1  0  0  0  0
 20 21  2  0  0  0  0
 21 16  1  0  0  0  0
 23 18  1  0  0  0  0
 24 25  1  0  0  0  0
 24 20  1  0  0  0  0
 25 30  1  0  0  0  0
 26 31  1  0  0  0  0
 26 25  2  0  0  0  0
 27 26  1  0  0  0  0
 28 27  2  0  0  0  0
 28 29  1  0  0  0  0
 29 24  2  0  0  0  0
 32 27  1  0  0  0  0
 33 28  1  0  0  0  0
 34 39  1  1  0  0  0
 34 35  1  0  0  0  0
 35 36  1  6  0  0  0
 35  6  1  0  0  0  0
 37 36  1  0  0  0  0
 38 41  1  1  0  0  0
 38 34  1  0  0  0  0
 38 37  1  0  0  0  0
 40 39  1  0  0  0  0
 42 41  1  0  0  0  0
M  END
>  <minimizedAffinity>
-6.30933094

>  <minimizedRMSD>
1.69922447

$$$$
