
 OpenBabel03272503323D

 41 44  0  0  1  0  0  0  0  0999 V2000
   35.2830   29.4120   47.8860 C   0  0  0  0  0  0  0  0  0  0  0  0
   35.1360   30.0330   46.6550 C   0  0  0  0  0  0  0  0  0  0  0  0
   34.0160   29.6820   45.8970 C   0  0  0  0  0  0  0  0  0  0  0  0
   33.1500   28.7510   46.4300 N   0  0  0  0  0  0  0  0  0  0  0  0
   33.3300   28.1840   47.6090 C   0  0  0  0  0  0  0  0  0  0  0  0
   34.4030   28.5190   48.3380 N   0  0  0  0  0  0  0  0  0  0  0  0
   35.8190   30.7680   46.2370 H   0  0  0  0  0  0  0  0  0  0  0  0
   33.8130   30.1120   44.9250 H   0  0  0  0  0  0  0  0  0  0  0  0
   36.4360   29.7690   48.6750 N   0  0  0  0  0  0  0  0  0  0  0  0
   37.5630   30.5450   48.2440 C   0  0  0  0  0  0  0  0  0  0  0  0
   38.0480   31.1690   49.5350 C   0  0  2  0  0  0  0  0  0  0  0  0
   37.0290   30.7760   50.6080 C   0  0  0  0  0  0  0  0  0  0  0  0
   36.6780   29.4080   50.0630 C   0  0  0  0  0  0  0  0  0  0  0  0
   37.3170   31.3370   47.5100 H   0  0  0  0  0  0  0  0  0  0  0  0
   38.2990   29.8840   47.7610 H   0  0  0  0  0  0  0  0  0  0  0  0
   38.9910   30.6520   49.8080 H   0  0  0  0  0  0  0  0  0  0  0  0
   37.4820   30.7350   51.6020 H   0  0  0  0  0  0  0  0  0  0  0  0
   36.1750   31.4550   50.5160 H   0  0  0  0  0  0  0  0  0  0  0  0
   35.8020   28.9640   50.5370 H   0  0  0  0  0  0  0  0  0  0  0  0
   37.5750   28.7570   50.0620 H   0  0  0  0  0  0  0  0  0  0  0  0
   38.1910   32.6690   49.4260 C   0  0  0  0  0  0  0  0  0  0  0  0
   37.0450   33.2180   49.9510 F   0  0  0  0  0  0  0  0  0  0  0  0
   38.1940   32.9650   48.0770 F   0  0  0  0  0  0  0  0  0  0  0  0
   39.3180   33.1510   50.0330 F   0  0  0  0  0  0  0  0  0  0  0  0
   32.1660   26.9940   48.2210 S   0  0  0  0  0  0  0  0  0  0  0  0
   30.6710   27.5450   48.7750 C   0  0  0  0  0  0  0  0  0  0  0  0
   29.9960   27.8640   49.9200 C   0  0  0  0  0  0  0  0  0  0  0  0
   28.7200   28.2990   49.9690 C   0  0  0  0  0  0  0  0  0  0  0  0
   28.0680   28.4120   48.6350 C   0  0  0  0  0  0  0  0  0  0  0  0
   29.3730   27.8790   47.4730 S   0  0  0  0  0  0  0  0  0  0  0  0
   30.6220   27.7220   50.7870 H   0  0  0  0  0  0  0  0  0  0  0  0
   28.1920   28.5490   50.8690 H   0  0  0  0  0  0  0  0  0  0  0  0
   26.7540   30.3590   48.1660 C   0  0  2  0  0  3  0  0  0  0  0  0
   26.7220   28.8520   48.4540 C   0  0  2  0  0  3  0  0  0  0  0  0
   26.0200   28.8600   49.6380 O   0  0  0  0  0  0  0  0  0  0  0  0
   24.8450   29.5350   49.2330 C   0  0  0  0  0  2  0  0  0  0  0  0
   25.3250   30.7300   48.4200 C   0  0  1  0  0  3  0  0  0  0  0  0
   27.2170   30.6410   46.9040 O   0  0  0  0  0  0  0  0  0  0  0  0
   26.5700   30.9850   46.2670 H   0  0  0  0  0  0  0  0  0  0  0  0
   25.2780   31.9080   49.1640 O   0  0  0  0  0  0  0  0  0  0  0  0
   26.0670   32.4420   48.8870 H   0  0  0  0  0  0  0  0  0  0  0  0
  1  6  1  0  0  0  0
  1  9  1  0  0  0  0
  2  1  2  0  0  0  0
  3  4  2  0  0  0  0
  3  2  1  0  0  0  0
  4  5  1  0  0  0  0
  5 25  1  0  0  0  0
  5  6  2  0  0  0  0
  7  2  1  0  0  0  0
  8  3  1  0  0  0  0
  9 13  1  0  0  0  0
 10  9  1  0  0  0  0
 10 11  1  0  0  0  0
 11 16  1  1  0  0  0
 11 12  1  0  0  0  0
 12 17  1  0  0  0  0
 13 19  1  0  0  0  0
 13 12  1  0  0  0  0
 14 10  1  0  0  0  0
 15 10  1  0  0  0  0
 18 12  1  0  0  0  0
 20 13  1  0  0  0  0
 21 11  1  0  0  0  0
 21 22  1  0  0  0  0
 21 24  1  0  0  0  0
 23 21  1  0  0  0  0
 25 26  1  0  0  0  0
 26 27  2  0  0  0  0
 27 28  1  0  0  0  0
 27 31  1  0  0  0  0
 28 32  1  0  0  0  0
 29 28  2  0  0  0  0
 30 29  1  0  0  0  0
 30 26  1  0  0  0  0
 33 38  1  6  0  0  0
 33 37  1  0  0  0  0
 33 34  1  0  0  0  0
 34 29  1  1  0  0  0
 34 35  1  0  0  0  0
 36 35  1  0  0  0  0
 37 40  1  1  0  0  0
 37 36  1  0  0  0  0
 39 38  1  0  0  0  0
 41 40  1  0  0  0  0
M  END
>  <minimizedAffinity>
-7.7874589

>  <minimizedRMSD>
0.521184683

$$$$
