
 OpenBabel03272502163D

 32 34  0  0  1  0  0  0  0  0999 V2000
   39.9450   23.5710   34.4620 N   0  0  0  0  0  0  0  0  0  0  0  0
   39.8360   23.1240   33.0910 C   0  0  2  0  0  0  0  0  0  0  0  0
   38.7570   23.9320   32.4150 C   0  0  0  0  0  0  0  0  0  0  0  0
   38.4610   25.0970   33.1520 O   0  0  0  0  0  0  0  0  0  0  0  0
   37.7960   24.6230   34.3010 C   0  0  0  0  0  0  0  0  0  0  0  0
   38.6220   23.5920   35.0320 C   0  0  2  0  0  0  0  0  0  0  0  0
   40.6630   23.0890   35.0190 H   0  0  0  0  0  0  0  0  0  0  0  0
   40.8420   23.2600   32.6240 H   0  0  0  0  0  0  0  0  0  0  0  0
   37.8480   23.3020   32.3530 H   0  0  0  0  0  0  0  0  0  0  0  0
   39.0450   24.1750   31.3900 H   0  0  0  0  0  0  0  0  0  0  0  0
   36.8550   24.1330   33.9140 H   0  0  0  0  0  0  0  0  0  0  0  0
   37.4710   25.4620   34.9150 H   0  0  0  0  0  0  0  0  0  0  0  0
   38.2030   22.5850   34.9350 H   0  0  0  0  0  0  0  0  0  0  0  0
   39.5340   23.1960   37.3410 C   0  0  1  0  0  3  0  0  0  0  0  0
   38.7390   24.0730   36.4450 C   0  0  2  0  0  3  0  0  0  0  0  0
   37.5330   24.2290   37.0840 O   0  0  0  0  0  0  0  0  0  0  0  0
   37.9490   24.6350   38.3570 C   0  0  0  0  0  2  0  0  0  0  0  0
   38.9230   23.5140   38.7010 C   0  0  1  0  0  3  0  0  0  0  0  0
   39.4630   21.8510   37.0310 O   0  0  0  0  0  0  0  0  0  0  0  0
   40.2760   21.4250   37.4240 H   0  0  0  0  0  0  0  0  0  0  0  0
   38.1310   22.4510   39.1560 O   0  0  0  0  0  0  0  0  0  0  0  0
   37.2450   22.4800   38.7250 H   0  0  0  0  0  0  0  0  0  0  0  0
   39.3920   21.3480   33.0200 S   0  0  0  0  0  0  0  0  0  0  0  0
   37.6980   21.1370   32.5600 C   0  0  0  0  0  0  0  0  0  0  0  0
   37.5350   20.7550   31.2110 C   0  0  0  0  0  0  0  0  0  0  0  0
   36.2490   20.5550   30.7220 C   0  0  0  0  0  0  0  0  0  0  0  0
   35.1920   20.7420   31.5840 N   0  0  0  0  0  0  0  0  0  0  0  0
   35.3800   21.1040   32.8560 C   0  0  0  0  0  0  0  0  0  0  0  0
   36.6140   21.2970   33.3310 N   0  0  0  0  0  0  0  0  0  0  0  0
   38.3460   20.6000   30.5090 H   0  0  0  0  0  0  0  0  0  0  0  0
   36.0570   20.2600   29.6940 H   0  0  0  0  0  0  0  0  0  0  0  0
   34.5410   21.2530   33.5410 H   0  0  0  0  0  0  0  0  0  0  0  0
  1  7  1  0  0  0  0
  1  6  1  0  0  0  0
  2  8  1  6  0  0  0
  2  1  1  0  0  0  0
  3  2  1  0  0  0  0
  3  4  1  0  0  0  0
  4  5  1  0  0  0  0
  5 12  1  0  0  0  0
  5  6  1  0  0  0  0
  6 13  1  6  0  0  0
  6 15  1  0  0  0  0
  9  3  1  0  0  0  0
 10  3  1  0  0  0  0
 11  5  1  0  0  0  0
 14 19  1  6  0  0  0
 14 18  1  0  0  0  0
 15 16  1  1  0  0  0
 15 14  1  0  0  0  0
 16 17  1  0  0  0  0
 17 18  1  0  0  0  0
 18 21  1  6  0  0  0
 19 20  1  0  0  0  0
 22 21  1  0  0  0  0
 23  2  1  0  0  0  0
 24 23  1  0  0  0  0
 24 29  1  0  0  0  0
 25 24  2  0  0  0  0
 26 25  1  0  0  0  0
 26 27  2  0  0  0  0
 27 28  1  0  0  0  0
 28 29  2  0  0  0  0
 28 32  1  0  0  0  0
 30 25  1  0  0  0  0
 31 26  1  0  0  0  0
M  END
>  <minimizedAffinity>
-4.98271942

$$$$

 OpenBabel03272502163D

 32 34  0  0  1  0  0  0  0  0999 V2000
   39.7170   23.6090   34.5900 N   0  0  0  0  0  0  0  0  0  0  0  0
   39.6190   23.7780   33.1570 C   0  0  2  0  0  0  0  0  0  0  0  0
   39.7160   25.2500   32.8460 C   0  0  0  0  0  0  0  0  0  0  0  0
   40.2500   25.9630   33.9400 O   0  0  0  0  0  0  0  0  0  0  0  0
   39.2260   25.9340   34.9090 C   0  0  0  0  0  0  0  0  0  0  0  0
   38.7910   24.5210   35.2120 C   0  0  2  0  0  0  0  0  0  0  0  0
   39.6700   22.6340   34.9150 H   0  0  0  0  0  0  0  0  0  0  0  0
   40.4450   23.1800   32.7010 H   0  0  0  0  0  0  0  0  0  0  0  0
   38.6940   25.6230   32.6370 H   0  0  0  0  0  0  0  0  0  0  0  0
   40.3050   25.4140   31.9430 H   0  0  0  0  0  0  0  0  0  0  0  0
   38.3630   26.4910   34.4390 H   0  0  0  0  0  0  0  0  0  0  0  0
   39.5230   26.5150   35.7810 H   0  0  0  0  0  0  0  0  0  0  0  0
   37.7940   24.3020   34.8170 H   0  0  0  0  0  0  0  0  0  0  0  0
   39.0250   22.9490   37.1610 C   0  0  1  0  0  3  0  0  0  0  0  0
   38.9120   24.3540   36.6950 C   0  0  2  0  0  3  0  0  0  0  0  0
   37.8570   24.8750   37.4040 O   0  0  0  0  0  0  0  0  0  0  0  0
   38.2190   24.5450   38.7140 C   0  0  0  0  0  2  0  0  0  0  0  0
   38.4500   23.0450   38.5680 C   0  0  1  0  0  3  0  0  0  0  0  0
   38.3500   22.0340   36.3750 O   0  0  0  0  0  0  0  0  0  0  0  0
   38.7780   21.1460   36.5410 H   0  0  0  0  0  0  0  0  0  0  0  0
   37.1780   22.4590   38.6330 O   0  0  0  0  0  0  0  0  0  0  0  0
   36.4990   23.0840   38.2860 H   0  0  0  0  0  0  0  0  0  0  0  0
   38.0190   23.1370   32.5360 S   0  0  0  0  0  0  0  0  0  0  0  0
   36.9580   24.4590   32.0340 C   0  0  0  0  0  0  0  0  0  0  0  0
   35.8680   24.0260   31.2480 C   0  0  0  0  0  0  0  0  0  0  0  0
   34.9570   24.9690   30.7880 C   0  0  0  0  0  0  0  0  0  0  0  0
   35.1650   26.2880   31.1240 N   0  0  0  0  0  0  0  0  0  0  0  0
   36.2070   26.6660   31.8690 C   0  0  0  0  0  0  0  0  0  0  0  0
   37.0860   25.7630   32.3140 N   0  0  0  0  0  0  0  0  0  0  0  0
   35.6780   22.9960   30.9680 H   0  0  0  0  0  0  0  0  0  0  0  0
   34.0980   24.6990   30.1800 H   0  0  0  0  0  0  0  0  0  0  0  0
   36.3730   27.7140   32.1360 H   0  0  0  0  0  0  0  0  0  0  0  0
  1  7  1  0  0  0  0
  1  6  1  0  0  0  0
  2  8  1  6  0  0  0
  2  1  1  0  0  0  0
  3  2  1  0  0  0  0
  3  4  1  0  0  0  0
  4  5  1  0  0  0  0
  5  6  1  0  0  0  0
  5 12  1  0  0  0  0
  6 13  1  6  0  0  0
  6 15  1  0  0  0  0
  9  3  1  0  0  0  0
 10  3  1  0  0  0  0
 11  5  1  0  0  0  0
 14 19  1  6  0  0  0
 14 18  1  0  0  0  0
 15 14  1  0  0  0  0
 15 16  1  1  0  0  0
 16 17  1  0  0  0  0
 18 21  1  6  0  0  0
 18 17  1  0  0  0  0
 19 20  1  0  0  0  0
 22 21  1  0  0  0  0
 23  2  1  0  0  0  0
 24 29  1  0  0  0  0
 24 23  1  0  0  0  0
 25 24  2  0  0  0  0
 26 27  2  0  0  0  0
 26 25  1  0  0  0  0
 27 28  1  0  0  0  0
 28 32  1  0  0  0  0
 28 29  2  0  0  0  0
 30 25  1  0  0  0  0
 31 26  1  0  0  0  0
M  END
>  <minimizedAffinity>
-4.86427641

$$$$

 OpenBabel03272502163D

 32 34  0  0  1  0  0  0  0  0999 V2000
   37.4280   25.2560   30.3290 N   0  0  0  0  0  0  0  0  0  0  0  0
   36.6370   24.1240   30.7580 C   0  0  2  0  0  0  0  0  0  0  0  0
   35.3990   24.6450   31.4440 C   0  0  0  0  0  0  0  0  0  0  0  0
   35.1820   26.0030   31.1300 O   0  0  0  0  0  0  0  0  0  0  0  0
   36.2070   26.6880   31.8150 C   0  0  0  0  0  0  0  0  0  0  0  0
   37.5700   26.1530   31.4480 C   0  0  2  0  0  0  0  0  0  0  0  0
   38.2990   25.0140   29.8380 H   0  0  0  0  0  0  0  0  0  0  0  0
   36.4100   23.5210   29.8450 H   0  0  0  0  0  0  0  0  0  0  0  0
   35.5480   24.5460   32.5370 H   0  0  0  0  0  0  0  0  0  0  0  0
   34.5310   24.0370   31.1840 H   0  0  0  0  0  0  0  0  0  0  0  0
   36.0150   26.4840   32.9090 H   0  0  0  0  0  0  0  0  0  0  0  0
   36.0900   27.7620   31.6810 H   0  0  0  0  0  0  0  0  0  0  0  0
   38.0270   25.5900   32.2690 H   0  0  0  0  0  0  0  0  0  0  0  0
   37.6270   28.3170   30.1700 C   0  0  1  0  0  3  0  0  0  0  0  0
   38.3730   27.3310   30.9920 C   0  0  2  0  0  3  0  0  0  0  0  0
   39.4700   27.0000   30.2340 O   0  0  0  0  0  0  0  0  0  0  0  0
   39.9830   28.2660   29.9300 C   0  0  0  0  0  2  0  0  0  0  0  0
   38.7460   28.9310   29.3380 C   0  0  1  0  0  3  0  0  0  0  0  0
   36.6290   27.7670   29.3890 O   0  0  0  0  0  0  0  0  0  0  0  0
   35.9860   28.5040   29.1870 H   0  0  0  0  0  0  0  0  0  0  0  0
   38.6820   28.4940   28.0070 O   0  0  0  0  0  0  0  0  0  0  0  0
   39.0810   27.5960   27.9270 H   0  0  0  0  0  0  0  0  0  0  0  0
   37.5790   23.0800   31.9320 S   0  0  0  0  0  0  0  0  0  0  0  0
   36.6790   21.6150   32.3410 C   0  0  0  0  0  0  0  0  0  0  0  0
   36.4140   20.7980   31.2210 C   0  0  0  0  0  0  0  0  0  0  0  0
   35.7120   19.6130   31.4070 C   0  0  0  0  0  0  0  0  0  0  0  0
   35.3070   19.2940   32.6830 N   0  0  0  0  0  0  0  0  0  0  0  0
   35.5730   20.0890   33.7230 C   0  0  0  0  0  0  0  0  0  0  0  0
   36.2480   21.2290   33.5500 N   0  0  0  0  0  0  0  0  0  0  0  0
   36.7200   21.0220   30.2050 H   0  0  0  0  0  0  0  0  0  0  0  0
   35.4770   18.9420   30.5850 H   0  0  0  0  0  0  0  0  0  0  0  0
   35.2520   19.8360   34.7370 H   0  0  0  0  0  0  0  0  0  0  0  0
  1  2  1  0  0  0  0
  1  6  1  0  0  0  0
  2  8  1  6  0  0  0
  2  3  1  0  0  0  0
  2 23  1  0  0  0  0
  3  9  1  0  0  0  0
  4  3  1  0  0  0  0
  4  5  1  0  0  0  0
  5 11  1  0  0  0  0
  6  5  1  0  0  0  0
  6 13  1  1  0  0  0
  7  1  1  0  0  0  0
 10  3  1  0  0  0  0
 12  5  1  0  0  0  0
 14 19  1  6  0  0  0
 14 15  1  0  0  0  0
 15 16  1  6  0  0  0
 15  6  1  0  0  0  0
 17 16  1  0  0  0  0
 18 21  1  6  0  0  0
 18 17  1  0  0  0  0
 18 14  1  0  0  0  0
 20 19  1  0  0  0  0
 22 21  1  0  0  0  0
 23 24  1  0  0  0  0
 24 29  1  0  0  0  0
 25 26  1  0  0  0  0
 25 24  2  0  0  0  0
 26 27  2  0  0  0  0
 27 28  1  0  0  0  0
 28 32  1  0  0  0  0
 29 28  2  0  0  0  0
 30 25  1  0  0  0  0
 31 26  1  0  0  0  0
M  END
>  <minimizedAffinity>
-4.76371861

$$$$

 OpenBabel03272502163D

 32 34  0  0  1  0  0  0  0  0999 V2000
   37.8300   25.4140   34.2810 N   0  0  0  0  0  0  0  0  0  0  0  0
   38.8310   24.5060   34.7950 C   0  0  2  0  0  0  0  0  0  0  0  0
   40.1420   25.2460   34.8800 C   0  0  0  0  0  0  0  0  0  0  0  0
   39.9390   26.6410   34.8210 O   0  0  0  0  0  0  0  0  0  0  0  0
   39.5520   26.8810   33.4870 C   0  0  0  0  0  0  0  0  0  0  0  0
   38.3600   26.0400   33.0970 C   0  0  2  0  0  0  0  0  0  0  0  0
   36.8880   25.0120   34.1890 H   0  0  0  0  0  0  0  0  0  0  0  0
   38.4660   24.1480   35.7890 H   0  0  0  0  0  0  0  0  0  0  0  0
   40.7650   24.9350   34.0190 H   0  0  0  0  0  0  0  0  0  0  0  0
   40.6850   24.9640   35.7840 H   0  0  0  0  0  0  0  0  0  0  0  0
   40.4410   26.5690   32.8640 H   0  0  0  0  0  0  0  0  0  0  0  0
   39.4260   27.9500   33.3230 H   0  0  0  0  0  0  0  0  0  0  0  0
   38.6290   25.2460   32.3930 H   0  0  0  0  0  0  0  0  0  0  0  0
   36.4580   26.4510   31.5050 C   0  0  1  0  0  3  0  0  0  0  0  0
   37.3270   26.9930   32.5810 C   0  0  2  0  0  3  0  0  0  0  0  0
   37.8460   28.1530   32.0610 O   0  0  0  0  0  0  0  0  0  0  0  0
   36.6840   28.8050   31.6340 C   0  0  0  0  0  2  0  0  0  0  0  0
   36.0620   27.7210   30.7620 C   0  0  1  0  0  3  0  0  0  0  0  0
   37.0770   25.5290   30.6840 O   0  0  0  0  0  0  0  0  0  0  0  0
   36.3500   24.9820   30.2690 H   0  0  0  0  0  0  0  0  0  0  0  0
   36.7200   27.8060   29.5270 O   0  0  0  0  0  0  0  0  0  0  0  0
   37.6390   28.1380   29.6550 H   0  0  0  0  0  0  0  0  0  0  0  0
   39.0280   23.0600   33.6870 S   0  0  0  0  0  0  0  0  0  0  0  0
   37.4580   22.4730   33.1260 C   0  0  0  0  0  0  0  0  0  0  0  0
   36.9750   21.3820   33.8800 C   0  0  0  0  0  0  0  0  0  0  0  0
   35.7470   20.8240   33.5410 C   0  0  0  0  0  0  0  0  0  0  0  0
   35.0610   21.3690   32.4790 N   0  0  0  0  0  0  0  0  0  0  0  0
   35.5460   22.4010   31.7850 C   0  0  0  0  0  0  0  0  0  0  0  0
   36.7250   22.9410   32.1060 N   0  0  0  0  0  0  0  0  0  0  0  0
   37.4910   20.9330   34.7210 H   0  0  0  0  0  0  0  0  0  0  0  0
   35.3210   19.9840   34.0820 H   0  0  0  0  0  0  0  0  0  0  0  0
   35.0010   22.8340   30.9410 H   0  0  0  0  0  0  0  0  0  0  0  0
  1  2  1  0  0  0  0
  2  3  1  0  0  0  0
  2  8  1  1  0  0  0
  3 10  1  0  0  0  0
  4  3  1  0  0  0  0
  5  4  1  0  0  0  0
  6 13  1  6  0  0  0
  6  5  1  0  0  0  0
  6  1  1  0  0  0  0
  7  1  1  0  0  0  0
  9  3  1  0  0  0  0
 11  5  1  0  0  0  0
 12  5  1  0  0  0  0
 14 19  1  6  0  0  0
 14 15  1  0  0  0  0
 15 16  1  6  0  0  0
 15  6  1  0  0  0  0
 17 16  1  0  0  0  0
 18 21  1  6  0  0  0
 18 14  1  0  0  0  0
 18 17  1  0  0  0  0
 20 19  1  0  0  0  0
 21 22  1  0  0  0  0
 23  2  1  0  0  0  0
 24 23  1  0  0  0  0
 24 25  1  0  0  0  0
 25 30  1  0  0  0  0
 26 25  2  0  0  0  0
 26 31  1  0  0  0  0
 27 26  1  0  0  0  0
 28 29  1  0  0  0  0
 28 27  2  0  0  0  0
 29 24  2  0  0  0  0
 32 28  1  0  0  0  0
M  END
>  <minimizedAffinity>
-4.65653801

$$$$

 OpenBabel03272502163D

 32 34  0  0  1  0  0  0  0  0999 V2000
   39.4570   25.2410   33.0660 N   0  0  0  0  0  0  0  0  0  0  0  0
   38.0490   25.2080   33.3950 C   0  0  2  0  0  0  0  0  0  0  0  0
   37.3420   26.2410   32.5540 C   0  0  0  0  0  0  0  0  0  0  0  0
   38.1430   26.6380   31.4620 O   0  0  0  0  0  0  0  0  0  0  0  0
   39.1800   27.3940   32.0470 C   0  0  0  0  0  0  0  0  0  0  0  0
   39.8970   26.6120   33.1210 C   0  0  2  0  0  0  0  0  0  0  0  0
   40.0370   24.5660   33.5800 H   0  0  0  0  0  0  0  0  0  0  0  0
   37.6930   24.1680   33.1990 H   0  0  0  0  0  0  0  0  0  0  0  0
   37.1420   27.1230   33.1930 H   0  0  0  0  0  0  0  0  0  0  0  0
   36.3740   25.8660   32.2170 H   0  0  0  0  0  0  0  0  0  0  0  0
   38.6640   28.2800   32.5200 H   0  0  0  0  0  0  0  0  0  0  0  0
   39.8280   27.7980   31.2710 H   0  0  0  0  0  0  0  0  0  0  0  0
   39.6760   26.9920   34.1240 H   0  0  0  0  0  0  0  0  0  0  0  0
   42.2530   26.0030   33.7510 C   0  0  1  0  0  3  0  0  0  0  0  0
   41.3500   26.6420   32.7610 C   0  0  2  0  0  3  0  0  0  0  0  0
   41.8570   27.9060   32.5870 O   0  0  0  0  0  0  0  0  0  0  0  0
   43.1990   27.6260   32.3090 C   0  0  0  0  0  2  0  0  0  0  0  0
   43.5560   26.7550   33.5080 C   0  0  1  0  0  3  0  0  0  0  0  0
   41.8220   26.1010   35.0610 O   0  0  0  0  0  0  0  0  0  0  0  0
   42.2680   25.3620   35.5640 H   0  0  0  0  0  0  0  0  0  0  0  0
   43.8240   27.6470   34.5560 O   0  0  0  0  0  0  0  0  0  0  0  0
   43.2970   28.4720   34.4410 H   0  0  0  0  0  0  0  0  0  0  0  0
   37.7860   25.5940   35.1660 S   0  0  0  0  0  0  0  0  0  0  0  0
   38.6800   24.4730   36.1990 C   0  0  0  0  0  0  0  0  0  0  0  0
   38.0690   24.2720   37.4560 C   0  0  0  0  0  0  0  0  0  0  0  0
   38.6730   23.4110   38.3650 C   0  0  0  0  0  0  0  0  0  0  0  0
   39.8440   22.7920   37.9900 N   0  0  0  0  0  0  0  0  0  0  0  0
   40.3970   23.0030   36.7930 C   0  0  0  0  0  0  0  0  0  0  0  0
   39.8210   23.8300   35.9160 N   0  0  0  0  0  0  0  0  0  0  0  0
   37.1480   24.7440   37.7790 H   0  0  0  0  0  0  0  0  0  0  0  0
   38.2520   23.2150   39.3480 H   0  0  0  0  0  0  0  0  0  0  0  0
   41.3280   22.5120   36.4950 H   0  0  0  0  0  0  0  0  0  0  0  0
  1  6  1  0  0  0  0
  1  2  1  0  0  0  0
  1  7  1  0  0  0  0
  2  8  1  6  0  0  0
  2 23  1  0  0  0  0
  3  9  1  0  0  0  0
  3  2  1  0  0  0  0
  4  5  1  0  0  0  0
  4  3  1  0  0  0  0
  5 11  1  0  0  0  0
  5  6  1  0  0  0  0
  6 13  1  1  0  0  0
 10  3  1  0  0  0  0
 12  5  1  0  0  0  0
 14 19  1  1  0  0  0
 15 16  1  1  0  0  0
 15  6  1  0  0  0  0
 15 14  1  0  0  0  0
 17 16  1  0  0  0  0
 17 18  1  0  0  0  0
 18 14  1  0  0  0  0
 18 21  1  1  0  0  0
 19 20  1  0  0  0  0
 22 21  1  0  0  0  0
 23 24  1  0  0  0  0
 24 25  1  0  0  0  0
 25 30  1  0  0  0  0
 25 26  2  0  0  0  0
 26 31  1  0  0  0  0
 27 26  1  0  0  0  0
 28 27  2  0  0  0  0
 29 24  2  0  0  0  0
 29 28  1  0  0  0  0
 32 28  1  0  0  0  0
M  END
>  <minimizedAffinity>
-4.61057472

$$$$

 OpenBabel03272502163D

 32 34  0  0  1  0  0  0  0  0999 V2000
   35.3680   28.4240   32.4930 N   0  0  0  0  0  0  0  0  0  0  0  0
   34.8740   29.7820   32.5530 C   0  0  2  0  0  0  0  0  0  0  0  0
   35.4530   30.5470   31.3900 C   0  0  0  0  0  0  0  0  0  0  0  0
   35.9540   29.6690   30.4070 O   0  0  0  0  0  0  0  0  0  0  0  0
   37.1090   29.1110   30.9930 C   0  0  0  0  0  0  0  0  0  0  0  0
   36.7980   28.4750   32.3270 C   0  0  2  0  0  0  0  0  0  0  0  0
   35.0280   27.8060   33.2410 H   0  0  0  0  0  0  0  0  0  0  0  0
   33.7590   29.7240   32.5280 H   0  0  0  0  0  0  0  0  0  0  0  0
   36.2820   31.1730   31.7720 H   0  0  0  0  0  0  0  0  0  0  0  0
   34.7090   31.2260   30.9690 H   0  0  0  0  0  0  0  0  0  0  0  0
   37.8050   29.9850   31.1560 H   0  0  0  0  0  0  0  0  0  0  0  0
   37.6060   28.4530   30.2820 H   0  0  0  0  0  0  0  0  0  0  0  0
   37.2100   29.0490   33.1630 H   0  0  0  0  0  0  0  0  0  0  0  0
   37.0040   26.3690   30.9690 C   0  0  1  0  0  3  0  0  0  0  0  0
   37.3010   27.0660   32.2460 C   0  0  2  0  0  3  0  0  0  0  0  0
   36.8030   26.2390   33.2220 O   0  0  0  0  0  0  0  0  0  0  0  0
   37.3980   25.0200   32.8760 C   0  0  0  0  0  2  0  0  0  0  0  0
   36.9780   24.9120   31.4150 C   0  0  1  0  0  3  0  0  0  0  0  0
   35.8220   26.7590   30.3690 O   0  0  0  0  0  0  0  0  0  0  0  0
   35.9040   26.5280   29.4000 H   0  0  0  0  0  0  0  0  0  0  0  0
   35.6670   24.4150   31.4340 O   0  0  0  0  0  0  0  0  0  0  0  0
   35.2090   24.7010   32.2590 H   0  0  0  0  0  0  0  0  0  0  0  0
   35.3850   30.5900   34.1160 S   0  0  0  0  0  0  0  0  0  0  0  0
   34.0640   30.5880   35.2920 C   0  0  0  0  0  0  0  0  0  0  0  0
   33.0970   29.5920   35.0350 C   0  0  0  0  0  0  0  0  0  0  0  0
   32.0040   29.4830   35.8870 C   0  0  0  0  0  0  0  0  0  0  0  0
   31.9210   30.3590   36.9460 N   0  0  0  0  0  0  0  0  0  0  0  0
   32.8520   31.2910   37.1620 C   0  0  0  0  0  0  0  0  0  0  0  0
   33.9050   31.4000   36.3450 N   0  0  0  0  0  0  0  0  0  0  0  0
   33.1370   28.8880   34.2110 H   0  0  0  0  0  0  0  0  0  0  0  0
   31.2270   28.7380   35.7440 H   0  0  0  0  0  0  0  0  0  0  0  0
   32.7860   31.9870   38.0030 H   0  0  0  0  0  0  0  0  0  0  0  0
  1  2  1  0  0  0  0
  1  7  1  0  0  0  0
  2  8  1  6  0  0  0
  2 23  1  0  0  0  0
  3  9  1  0  0  0  0
  3  2  1  0  0  0  0
  4  5  1  0  0  0  0
  4  3  1  0  0  0  0
  5 11  1  0  0  0  0
  5  6  1  0  0  0  0
  6  1  1  0  0  0  0
  6 13  1  1  0  0  0
 10  3  1  0  0  0  0
 12  5  1  0  0  0  0
 14 19  1  1  0  0  0
 14 18  1  0  0  0  0
 14 15  1  0  0  0  0
 15  6  1  0  0  0  0
 15 16  1  1  0  0  0
 17 16  1  0  0  0  0
 18 21  1  1  0  0  0
 18 17  1  0  0  0  0
 20 19  1  0  0  0  0
 21 22  1  0  0  0  0
 23 24  1  0  0  0  0
 24 29  1  0  0  0  0
 25 24  2  0  0  0  0
 25 26  1  0  0  0  0
 26 27  2  0  0  0  0
 27 28  1  0  0  0  0
 28 32  1  0  0  0  0
 29 28  2  0  0  0  0
 30 25  1  0  0  0  0
 31 26  1  0  0  0  0
M  END
>  <minimizedAffinity>
-4.59921122

$$$$

 OpenBabel03272502163D

 32 34  0  0  1  0  0  0  0  0999 V2000
   39.1900   23.5640   32.7270 N   0  0  0  0  0  0  0  0  0  0  0  0
   38.9920   22.1690   33.0510 C   0  0  2  0  0  0  0  0  0  0  0  0
   38.6080   21.4400   31.7890 C   0  0  0  0  0  0  0  0  0  0  0  0
   38.9290   22.2030   30.6470 O   0  0  0  0  0  0  0  0  0  0  0  0
   38.0010   23.2650   30.6660 C   0  0  0  0  0  0  0  0  0  0  0  0
   38.0460   24.0150   31.9750 C   0  0  2  0  0  0  0  0  0  0  0  0
   39.4640   24.1580   33.5200 H   0  0  0  0  0  0  0  0  0  0  0  0
   39.9470   21.8000   33.4960 H   0  0  0  0  0  0  0  0  0  0  0  0
   37.5140   21.2680   31.8130 H   0  0  0  0  0  0  0  0  0  0  0  0
   39.0830   20.4580   31.7530 H   0  0  0  0  0  0  0  0  0  0  0  0
   36.9910   22.7730   30.5590 H   0  0  0  0  0  0  0  0  0  0  0  0
   38.1310   23.8880   29.7810 H   0  0  0  0  0  0  0  0  0  0  0  0
   37.1550   23.8340   32.5850 H   0  0  0  0  0  0  0  0  0  0  0  0
   37.1200   26.3520   31.9170 C   0  0  1  0  0  3  0  0  0  0  0  0
   38.2660   25.4550   31.6260 C   0  0  2  0  0  3  0  0  0  0  0  0
   38.5530   25.6700   30.3000 O   0  0  0  0  0  0  0  0  0  0  0  0
   38.6630   27.0650   30.2680 C   0  0  0  0  0  2  0  0  0  0  0  0
   37.3330   27.4630   30.8960 C   0  0  1  0  0  3  0  0  0  0  0  0
   35.8810   25.7510   31.7940 O   0  0  0  0  0  0  0  0  0  0  0  0
   35.2460   26.2910   32.3450 H   0  0  0  0  0  0  0  0  0  0  0  0
   36.3880   27.3840   29.8630 O   0  0  0  0  0  0  0  0  0  0  0  0
   36.6590   26.6970   29.2090 H   0  0  0  0  0  0  0  0  0  0  0  0
   37.6540   21.9730   34.2880 S   0  0  0  0  0  0  0  0  0  0  0  0
   38.1940   22.4840   35.8920 C   0  0  0  0  0  0  0  0  0  0  0  0
   39.5630   22.2320   36.1210 C   0  0  0  0  0  0  0  0  0  0  0  0
   40.1150   22.5870   37.3460 C   0  0  0  0  0  0  0  0  0  0  0  0
   39.2900   23.1710   38.2820 N   0  0  0  0  0  0  0  0  0  0  0  0
   37.9980   23.3970   38.0350 C   0  0  0  0  0  0  0  0  0  0  0  0
   37.4630   23.0570   36.8580 N   0  0  0  0  0  0  0  0  0  0  0  0
   40.2370   21.7750   35.4050 H   0  0  0  0  0  0  0  0  0  0  0  0
   41.1620   22.4200   37.5830 H   0  0  0  0  0  0  0  0  0  0  0  0
   37.3420   23.8600   38.7770 H   0  0  0  0  0  0  0  0  0  0  0  0
  1  2  1  0  0  0  0
  1  7  1  0  0  0  0
  2  8  1  1  0  0  0
  2 23  1  0  0  0  0
  3  9  1  0  0  0  0
  3  2  1  0  0  0  0
  4  5  1  0  0  0  0
  4  3  1  0  0  0  0
  5  6  1  0  0  0  0
  6 13  1  1  0  0  0
  6  1  1  0  0  0  0
 10  3  1  0  0  0  0
 11  5  1  0  0  0  0
 12  5  1  0  0  0  0
 14 19  1  6  0  0  0
 15 16  1  6  0  0  0
 15 14  1  0  0  0  0
 15  6  1  0  0  0  0
 17 16  1  0  0  0  0
 17 18  1  0  0  0  0
 18 21  1  6  0  0  0
 18 14  1  0  0  0  0
 19 20  1  0  0  0  0
 22 21  1  0  0  0  0
 23 24  1  0  0  0  0
 24 25  2  0  0  0  0
 24 29  1  0  0  0  0
 25 26  1  0  0  0  0
 26 31  1  0  0  0  0
 26 27  2  0  0  0  0
 28 27  1  0  0  0  0
 28 32  1  0  0  0  0
 29 28  2  0  0  0  0
 30 25  1  0  0  0  0
M  END
>  <minimizedAffinity>
-4.59845018

$$$$

 OpenBabel03272502163D

 32 34  0  0  1  0  0  0  0  0999 V2000
   38.2000   25.5530   32.9550 N   0  0  0  0  0  0  0  0  0  0  0  0
   37.3580   26.2230   31.9890 C   0  0  2  0  0  0  0  0  0  0  0  0
   36.7570   27.4380   32.6480 C   0  0  0  0  0  0  0  0  0  0  0  0
   37.4640   27.7790   33.8200 O   0  0  0  0  0  0  0  0  0  0  0  0
   37.1360   26.7580   34.7350 C   0  0  0  0  0  0  0  0  0  0  0  0
   37.4440   25.3910   34.1710 C   0  0  2  0  0  0  0  0  0  0  0  0
   38.6710   24.7070   32.6070 H   0  0  0  0  0  0  0  0  0  0  0  0
   38.0050   26.4740   31.1140 H   0  0  0  0  0  0  0  0  0  0  0  0
   35.7090   27.1990   32.9150 H   0  0  0  0  0  0  0  0  0  0  0  0
   36.7240   28.2770   31.9500 H   0  0  0  0  0  0  0  0  0  0  0  0
   36.0210   26.8490   34.8870 H   0  0  0  0  0  0  0  0  0  0  0  0
   37.5930   26.9640   35.7020 H   0  0  0  0  0  0  0  0  0  0  0  0
   36.5360   24.8320   33.9260 H   0  0  0  0  0  0  0  0  0  0  0  0
   38.8450   23.3870   34.7560 C   0  0  1  0  0  3  0  0  0  0  0  0
   38.3280   24.7150   35.1740 C   0  0  2  0  0  3  0  0  0  0  0  0
   37.7270   24.4930   36.3880 O   0  0  0  0  0  0  0  0  0  0  0  0
   38.7480   23.8320   37.0810 C   0  0  0  0  0  2  0  0  0  0  0  0
   39.0640   22.7070   36.1020 C   0  0  1  0  0  3  0  0  0  0  0  0
   37.9900   22.6750   33.9380 O   0  0  0  0  0  0  0  0  0  0  0  0
   38.5530   22.0160   33.4410 H   0  0  0  0  0  0  0  0  0  0  0  0
   38.0940   21.7220   36.3320 O   0  0  0  0  0  0  0  0  0  0  0  0
   37.2590   22.1380   36.6510 H   0  0  0  0  0  0  0  0  0  0  0  0
   36.0110   25.1170   31.4250 S   0  0  0  0  0  0  0  0  0  0  0  0
   36.6160   23.4860   31.1150 C   0  0  0  0  0  0  0  0  0  0  0  0
   35.6250   22.4910   31.2600 C   0  0  0  0  0  0  0  0  0  0  0  0
   35.9720   21.1630   31.0440 C   0  0  0  0  0  0  0  0  0  0  0  0
   37.2740   20.8820   30.6970 N   0  0  0  0  0  0  0  0  0  0  0  0
   38.1890   21.8460   30.5680 C   0  0  0  0  0  0  0  0  0  0  0  0
   37.8610   23.1250   30.7750 N   0  0  0  0  0  0  0  0  0  0  0  0
   34.5920   22.6810   31.5320 H   0  0  0  0  0  0  0  0  0  0  0  0
   35.2550   20.3520   31.1400 H   0  0  0  0  0  0  0  0  0  0  0  0
   39.2240   21.6240   30.2920 H   0  0  0  0  0  0  0  0  0  0  0  0
  1  6  1  0  0  0  0
  2  8  1  6  0  0  0
  2  3  1  0  0  0  0
  2  1  1  0  0  0  0
  3  9  1  0  0  0  0
  3  4  1  0  0  0  0
  4  5  1  0  0  0  0
  5 11  1  0  0  0  0
  5 12  1  0  0  0  0
  6 13  1  6  0  0  0
  6  5  1  0  0  0  0
  6 15  1  0  0  0  0
  7  1  1  0  0  0  0
 10  3  1  0  0  0  0
 14 19  1  6  0  0  0
 14 15  1  0  0  0  0
 14 18  1  0  0  0  0
 15 16  1  1  0  0  0
 16 17  1  0  0  0  0
 18 21  1  1  0  0  0
 18 17  1  0  0  0  0
 20 19  1  0  0  0  0
 21 22  1  0  0  0  0
 23  2  1  0  0  0  0
 24 25  1  0  0  0  0
 24 23  1  0  0  0  0
 25 30  1  0  0  0  0
 26 31  1  0  0  0  0
 26 25  2  0  0  0  0
 27 26  1  0  0  0  0
 28 27  2  0  0  0  0
 28 29  1  0  0  0  0
 29 24  2  0  0  0  0
 32 28  1  0  0  0  0
M  END
>  <minimizedAffinity>
-4.58760691

$$$$

 OpenBabel03272502163D

 32 34  0  0  1  0  0  0  0  0999 V2000
   37.1700   24.9050   32.3780 N   0  0  0  0  0  0  0  0  0  0  0  0
   36.9470   23.4970   32.6180 C   0  0  2  0  0  0  0  0  0  0  0  0
   38.2760   22.7880   32.5480 C   0  0  0  0  0  0  0  0  0  0  0  0
   39.3430   23.7030   32.6650 O   0  0  0  0  0  0  0  0  0  0  0  0
   39.3260   24.4160   31.4480 C   0  0  0  0  0  0  0  0  0  0  0  0
   37.9730   25.0340   31.1880 C   0  0  2  0  0  0  0  0  0  0  0  0
   36.3250   25.4890   32.4110 H   0  0  0  0  0  0  0  0  0  0  0  0
   36.4580   23.4110   33.6190 H   0  0  0  0  0  0  0  0  0  0  0  0
   38.3410   22.2810   31.5650 H   0  0  0  0  0  0  0  0  0  0  0  0
   38.3380   22.0110   33.3120 H   0  0  0  0  0  0  0  0  0  0  0  0
   39.5340   23.6420   30.6530 H   0  0  0  0  0  0  0  0  0  0  0  0
   40.1590   25.1170   31.4160 H   0  0  0  0  0  0  0  0  0  0  0  0
   37.4410   24.5340   30.3730 H   0  0  0  0  0  0  0  0  0  0  0  0
   36.9910   27.3140   30.7910 C   0  0  1  0  0  3  0  0  0  0  0  0
   38.2170   26.4930   30.9560 C   0  0  2  0  0  3  0  0  0  0  0  0
   38.9730   26.7630   29.8420 O   0  0  0  0  0  0  0  0  0  0  0  0
   38.9970   28.1620   29.8610 C   0  0  0  0  0  2  0  0  0  0  0  0
   37.5050   28.4640   29.9340 C   0  0  1  0  0  3  0  0  0  0  0  0
   35.9340   26.6470   30.2020 O   0  0  0  0  0  0  0  0  0  0  0  0
   35.1040   27.1330   30.4710 H   0  0  0  0  0  0  0  0  0  0  0  0
   37.0330   28.3610   28.6180 O   0  0  0  0  0  0  0  0  0  0  0  0
   37.5760   27.7100   28.1150 H   0  0  0  0  0  0  0  0  0  0  0  0
   35.8230   22.7920   31.3540 S   0  0  0  0  0  0  0  0  0  0  0  0
   35.9180   21.0270   31.3340 C   0  0  0  0  0  0  0  0  0  0  0  0
   35.2340   20.4250   32.4130 C   0  0  0  0  0  0  0  0  0  0  0  0
   35.2320   19.0390   32.5140 C   0  0  0  0  0  0  0  0  0  0  0  0
   35.9010   18.3190   31.5510 N   0  0  0  0  0  0  0  0  0  0  0  0
   36.5380   18.9180   30.5420 C   0  0  0  0  0  0  0  0  0  0  0  0
   36.5440   20.2510   30.4400 N   0  0  0  0  0  0  0  0  0  0  0  0
   34.6990   20.9650   33.1850 H   0  0  0  0  0  0  0  0  0  0  0  0
   34.7240   18.5160   33.3200 H   0  0  0  0  0  0  0  0  0  0  0  0
   37.0700   18.3460   29.7770 H   0  0  0  0  0  0  0  0  0  0  0  0
  1  7  1  0  0  0  0
  1  2  1  0  0  0  0
  2  8  1  1  0  0  0
  3  2  1  0  0  0  0
  3  4  1  0  0  0  0
  3 10  1  0  0  0  0
  5  4  1  0  0  0  0
  6 13  1  6  0  0  0
  6  5  1  0  0  0  0
  6  1  1  0  0  0  0
  9  3  1  0  0  0  0
 11  5  1  0  0  0  0
 12  5  1  0  0  0  0
 14 19  1  6  0  0  0
 14 15  1  0  0  0  0
 15 16  1  6  0  0  0
 15  6  1  0  0  0  0
 16 17  1  0  0  0  0
 17 18  1  0  0  0  0
 18 21  1  6  0  0  0
 18 14  1  0  0  0  0
 19 20  1  0  0  0  0
 22 21  1  0  0  0  0
 23  2  1  0  0  0  0
 24 23  1  0  0  0  0
 24 25  1  0  0  0  0
 25 26  2  0  0  0  0
 25 30  1  0  0  0  0
 26 31  1  0  0  0  0
 27 26  1  0  0  0  0
 28 27  2  0  0  0  0
 29 28  1  0  0  0  0
 29 24  2  0  0  0  0
 32 28  1  0  0  0  0
M  END
>  <minimizedAffinity>
-4.56864023

$$$$
