
 OpenBabel03272509033D

 33 35  0  0  1  0  0  0  0  0999 V2000
   37.2760   30.2550   51.4160 C   0  0  0  0  0  0  0  0  0  0  0  0
   38.0960   30.6440   50.3340 C   0  0  0  0  0  0  0  0  0  0  0  0
   37.6930   30.2480   49.0420 C   0  0  0  0  0  0  0  0  0  0  0  0
   36.5430   29.5160   48.9100 N   0  0  0  0  0  0  0  0  0  0  0  0
   35.8090   29.1810   49.9900 C   0  0  0  0  0  0  0  0  0  0  0  0
   36.1600   29.5410   51.2430 N   0  0  0  0  0  0  0  0  0  0  0  0
   37.6500   30.5960   52.3790 H   0  0  0  0  0  0  0  0  0  0  0  0
   38.9950   31.2130   50.4180 H   0  0  0  0  0  0  0  0  0  0  0  0
   37.7550   30.7620   46.6350 C   0  0  1  0  0  3  0  0  0  0  0  0
   38.5370   30.6440   47.8900 C   0  0  1  0  0  3  0  0  0  0  0  0
   39.2140   31.8260   48.1030 O   0  0  0  0  0  0  0  0  0  0  0  0
   38.5670   32.8320   47.4180 C   0  0  0  0  0  2  0  0  0  0  0  0
   37.5590   32.2510   46.4910 C   0  0  1  0  0  3  0  0  0  0  0  0
   38.4500   30.2660   45.5410 O   0  0  0  0  0  0  0  0  0  0  0  0
   38.2030   30.8330   44.7640 H   0  0  0  0  0  0  0  0  0  0  0  0
   37.7410   32.6590   45.1760 O   0  0  0  0  0  0  0  0  0  0  0  0
   37.5460   33.6130   45.1030 H   0  0  0  0  0  0  0  0  0  0  0  0
   34.6250   28.4000   49.7140 C   0  0  0  0  0  3  0  0  0  0  0  0
   34.3650   28.0410   48.5060 C   0  0  0  0  0  3  0  0  0  0  0  0
   33.2460   27.2460   47.9820 C   0  0  0  0  0  0  0  0  0  0  0  0
   32.7240   26.7720   48.8470 H   0  0  0  0  0  0  0  0  0  0  0  0
   32.4980   27.8730   47.4760 H   0  0  0  0  0  0  0  0  0  0  0  0
   33.6770   26.1730   47.0280 C   0  0  0  0  0  0  0  0  0  0  0  0
   33.8780   24.8430   47.3640 C   0  0  0  0  0  0  0  0  0  0  0  0
   34.2770   23.9450   46.3830 C   0  0  0  0  0  0  0  0  0  0  0  0
   34.4800   24.3490   45.0640 C   0  0  0  0  0  0  0  0  0  0  0  0
   34.2790   25.6770   44.7320 C   0  0  0  0  0  0  0  0  0  0  0  0
   33.8810   26.5760   45.7150 C   0  0  0  0  0  0  0  0  0  0  0  0
   33.7080   24.5840   48.3970 H   0  0  0  0  0  0  0  0  0  0  0  0
   34.4170   22.9250   46.7010 H   0  0  0  0  0  0  0  0  0  0  0  0
   34.7880   23.5690   44.3830 H   0  0  0  0  0  0  0  0  0  0  0  0
   34.4450   25.9550   43.7060 H   0  0  0  0  0  0  0  0  0  0  0  0
   33.7500   27.5840   45.3590 H   0  0  0  0  0  0  0  0  0  0  0  0
  1  7  1  0  0  0  0
  2  8  1  0  0  0  0
  2  1  2  0  0  0  0
  3  2  1  0  0  0  0
  4  3  2  0  0  0  0
  4  5  1  0  0  0  0
  5  6  2  0  0  0  0
  6  1  1  0  0  0  0
  9 14  1  6  0  0  0
  9 10  1  0  0  0  0
 10 11  1  0  0  0  0
 10  3  1  1  0  0  0
 12 11  1  0  0  0  0
 13 16  1  6  0  0  0
 13  9  1  0  0  0  0
 13 12  1  0  0  0  0
 15 14  1  0  0  0  0
 17 16  1  0  0  0  0
 18  5  1  0  0  0  0
 19 18  2  0  0  0  0
 20 19  1  0  0  0  0
 20 21  1  0  0  0  0
 22 20  1  0  0  0  0
 23 24  1  0  0  0  0
 23 20  1  0  0  0  0
 24 29  1  0  0  0  0
 25 30  1  0  0  0  0
 25 24  2  0  0  0  0
 26 25  1  0  0  0  0
 27 26  2  0  0  0  0
 27 28  1  0  0  0  0
 28 23  2  0  0  0  0
 31 26  1  0  0  0  0
 32 27  1  0  0  0  0
 33 28  1  0  0  0  0
M  END
>  <minimizedAffinity>
-5.32973719

>  <minimizedRMSD>
0.16139774

$$$$
