
 OpenBabel03262521333D

 25 27  0  0  1  0  0  0  0  0999 V2000
   37.5340   31.4690   47.8310 C   0  0  1  0  0  0  0  0  0  0  0  0
   38.4550   32.5820   47.8390 C   0  0  0  0  0  0  0  0  0  0  0  0
   39.0050   31.2040   47.4620 C   0  0  2  0  0  0  0  0  0  0  0  0
   36.8100   31.3850   46.9890 H   0  0  0  0  0  0  0  0  0  0  0  0
   38.4030   33.3690   47.0640 H   0  0  0  0  0  0  0  0  0  0  0  0
   38.7880   32.9200   48.8650 H   0  0  0  0  0  0  0  0  0  0  0  0
   39.6410   30.6820   48.1960 H   0  0  0  0  0  0  0  0  0  0  0  0
   35.7810   29.1060   50.1370 C   0  0  0  0  0  0  0  0  0  0  0  0
   36.1180   29.7590   48.9480 C   0  0  0  0  0  0  0  0  0  0  0  0
   37.1220   30.7240   49.0350 C   0  0  0  0  0  0  0  0  0  0  0  0
   37.7060   30.9690   50.2570 N   0  0  0  0  0  0  0  0  0  0  0  0
   37.3290   30.2960   51.3760 C   0  0  0  0  0  0  0  0  0  0  0  0
   36.3640   29.3590   51.3230 N   0  0  0  0  0  0  0  0  0  0  0  0
   34.9860   28.3510   50.0280 H   0  0  0  0  0  0  0  0  0  0  0  0
   35.6150   29.5140   48.0250 H   0  0  0  0  0  0  0  0  0  0  0  0
   37.7940   30.4970   52.3300 H   0  0  0  0  0  0  0  0  0  0  0  0
   40.6620   31.5140   45.5720 C   0  0  2  0  0  0  0  0  0  0  0  0
   39.3490   30.9660   46.0330 C   0  0  2  0  0  0  0  0  0  0  0  0
   38.4000   31.5040   45.1750 O   0  0  0  0  0  0  0  0  0  0  0  0
   38.9950   31.6200   43.9270 C   0  0  0  0  0  0  0  0  0  0  0  0
   40.4710   31.4860   44.0690 C   0  0  2  0  0  0  0  0  0  0  0  0
   41.7330   30.6830   45.8920 O   0  0  0  0  0  0  0  0  0  0  0  0
   42.5560   31.2550   45.9420 H   0  0  0  0  0  0  0  0  0  0  0  0
   40.8850   30.2530   43.5740 O   0  0  0  0  0  0  0  0  0  0  0  0
   40.1280   29.6730   43.2850 H   0  0  0  0  0  0  0  0  0  0  0  0
  1  4  1  6  0  0  0
  1  2  1  0  0  0  0
  1 10  1  0  0  0  0
  2  6  1  0  0  0  0
  3  1  1  0  0  0  0
  3  2  1  0  0  0  0
  3  7  1  1  0  0  0
  5  2  1  0  0  0  0
  8 13  1  0  0  0  0
  9 10  1  0  0  0  0
  9  8  2  0  0  0  0
 10 11  2  0  0  0  0
 11 12  1  0  0  0  0
 12 16  1  0  0  0  0
 13 12  2  0  0  0  0
 14  8  1  0  0  0  0
 15  9  1  0  0  0  0
 17 22  1  6  0  0  0
 17 18  1  0  0  0  0
 18 19  1  6  0  0  0
 18  3  1  0  0  0  0
 20 21  1  0  0  0  0
 20 19  1  0  0  0  0
 21 24  1  1  0  0  0
 21 17  1  0  0  0  0
 22 23  1  0  0  0  0
 25 24  1  0  0  0  0
M  END
>  <minimizedAffinity>
-5.86523628

>  <minimizedRMSD>
3.17391539

$$$$
