
 OpenBabel03272502363D

 36 38  0  0  1  0  0  0  0  0999 V2000
   35.9600   28.7250   33.1630 C   0  0  0  0  0  3  0  0  0  0  0  0
   36.7260   27.7650   33.5710 C   0  0  0  0  0  3  0  0  0  0  0  0
   34.9760   31.2820   35.6870 C   0  0  0  0  0  0  0  0  0  0  0  0
   35.7030   30.5170   34.7940 C   0  0  0  0  0  0  0  0  0  0  0  0
   35.1530   29.4910   34.0710 C   0  0  0  0  0  0  0  0  0  0  0  0
   33.8300   29.2610   34.2820 N   0  0  0  0  0  0  0  0  0  0  0  0
   33.1220   29.9880   35.1370 C   0  0  0  0  0  0  0  0  0  0  0  0
   33.6770   30.9950   35.8430 N   0  0  0  0  0  0  0  0  0  0  0  0
   35.3820   32.0960   36.2720 H   0  0  0  0  0  0  0  0  0  0  0  0
   36.7340   30.8370   34.7500 H   0  0  0  0  0  0  0  0  0  0  0  0
   31.3460   29.3150   36.7170 C   0  0  2  0  0  3  0  0  0  0  0  0
   31.6810   29.6630   35.3040 C   0  0  2  0  0  3  0  0  0  0  0  0
   31.3610   28.5730   34.5140 O   0  0  0  0  0  0  0  0  0  0  0  0
   30.3300   27.8960   35.1530 C   0  0  0  0  0  2  0  0  0  0  0  0
   30.7930   27.9100   36.5950 C   0  0  1  0  0  3  0  0  0  0  0  0
   30.3530   30.1740   37.1980 O   0  0  0  0  0  0  0  0  0  0  0  0
   30.3650   31.0390   36.7190 H   0  0  0  0  0  0  0  0  0  0  0  0
   31.8280   26.9860   36.7750 O   0  0  0  0  0  0  0  0  0  0  0  0
   32.2910   26.7820   35.9290 H   0  0  0  0  0  0  0  0  0  0  0  0
   37.5200   27.0180   32.5390 C   0  0  1  0  0  0  0  0  0  0  0  0
   37.3170   27.4450   31.5250 H   0  0  0  0  0  0  0  0  0  0  0  0
   38.9470   27.0630   32.8880 C   0  0  0  0  0  0  0  0  0  0  0  0
   39.1920   26.8190   34.2650 C   0  0  0  0  0  0  0  0  0  0  0  0
   40.4510   26.8110   34.8240 C   0  0  0  0  0  0  0  0  0  0  0  0
   41.5850   27.0500   34.0300 C   0  0  0  0  0  0  0  0  0  0  0  0
   41.2560   27.2790   32.6990 C   0  0  0  0  0  0  0  0  0  0  0  0
   40.0440   27.2920   32.1340 N   0  0  0  0  0  0  0  0  0  0  0  0
   38.4840   26.6060   35.0790 H   0  0  0  0  0  0  0  0  0  0  0  0
   40.7060   26.6340   35.8560 H   0  0  0  0  0  0  0  0  0  0  0  0
   42.6160   27.0740   34.3290 H   0  0  0  0  0  0  0  0  0  0  0  0
   42.0320   27.4810   31.9570 H   0  0  0  0  0  0  0  0  0  0  0  0
   37.0260   25.2630   32.6510 S   0  0  0  0  0  0  0  0  0  0  0  0
   36.0290   24.7880   31.2500 C   0  0  0  0  0  0  0  0  0  0  0  0
   35.2610   25.8290   30.7480 F   0  0  0  0  0  0  0  0  0  0  0  0
   36.7880   24.1920   30.2620 F   0  0  0  0  0  0  0  0  0  0  0  0
   35.1440   23.7930   31.7110 F   0  0  0  0  0  0  0  0  0  0  0  0
  1  2  2  0  0  0  0
  1  5  1  0  0  0  0
  3  8  1  0  0  0  0
  3  9  1  0  0  0  0
  4  3  2  0  0  0  0
  5  6  2  0  0  0  0
  5  4  1  0  0  0  0
  6  7  1  0  0  0  0
  7  8  2  0  0  0  0
 10  4  1  0  0  0  0
 11 16  1  6  0  0  0
 12  7  1  1  0  0  0
 12 11  1  0  0  0  0
 13 14  1  0  0  0  0
 13 12  1  0  0  0  0
 14 15  1  0  0  0  0
 15 11  1  0  0  0  0
 15 18  1  6  0  0  0
 17 16  1  0  0  0  0
 19 18  1  0  0  0  0
 20 21  1  6  0  0  0
 20 32  1  0  0  0  0
 20 22  1  0  0  0  0
 20  2  1  0  0  0  0
 22 23  1  0  0  0  0
 23 24  2  0  0  0  0
 23 28  1  0  0  0  0
 24 29  1  0  0  0  0
 25 30  1  0  0  0  0
 25 24  1  0  0  0  0
 26 25  2  0  0  0  0
 27 26  1  0  0  0  0
 27 22  2  0  0  0  0
 31 26  1  0  0  0  0
 33 36  1  0  0  0  0
 33 32  1  0  0  0  0
 34 33  1  0  0  0  0
 35 33  1  0  0  0  0
M  END
>  <minimizedAffinity>
-6.19656038

$$$$

 OpenBabel03272502363D

 36 38  0  0  1  0  0  0  0  0999 V2000
   36.1610   28.7420   33.9040 C   0  0  0  0  0  3  0  0  0  0  0  0
   36.6410   27.6920   34.4880 C   0  0  0  0  0  3  0  0  0  0  0  0
   34.6970   31.6430   35.7260 C   0  0  0  0  0  0  0  0  0  0  0  0
   35.5800   30.7880   35.0920 C   0  0  0  0  0  0  0  0  0  0  0  0
   35.1970   29.5930   34.5420 C   0  0  0  0  0  0  0  0  0  0  0  0
   33.8780   29.2860   34.6550 N   0  0  0  0  0  0  0  0  0  0  0  0
   33.0200   30.0980   35.2610 C   0  0  0  0  0  0  0  0  0  0  0  0
   33.4120   31.2720   35.7990 N   0  0  0  0  0  0  0  0  0  0  0  0
   34.9700   32.5910   36.1690 H   0  0  0  0  0  0  0  0  0  0  0  0
   36.5840   31.1890   35.0920 H   0  0  0  0  0  0  0  0  0  0  0  0
   31.2030   29.2840   36.7230 C   0  0  2  0  0  3  0  0  0  0  0  0
   31.5960   29.6780   35.3370 C   0  0  2  0  0  3  0  0  0  0  0  0
   31.3940   28.5840   34.5150 O   0  0  0  0  0  0  0  0  0  0  0  0
   30.3740   27.8310   35.0820 C   0  0  0  0  0  2  0  0  0  0  0  0
   30.7500   27.8500   36.5480 C   0  0  1  0  0  3  0  0  0  0  0  0
   30.1290   30.0690   37.1570 O   0  0  0  0  0  0  0  0  0  0  0  0
   30.1130   30.9410   36.6910 H   0  0  0  0  0  0  0  0  0  0  0  0
   31.8300   26.9900   36.7760 O   0  0  0  0  0  0  0  0  0  0  0  0
   32.3540   26.8310   35.9560 H   0  0  0  0  0  0  0  0  0  0  0  0
   37.6370   26.8630   33.7280 C   0  0  1  0  0  0  0  0  0  0  0  0
   38.5630   27.4610   33.5450 H   0  0  0  0  0  0  0  0  0  0  0  0
   37.9090   25.6220   34.4670 C   0  0  0  0  0  0  0  0  0  0  0  0
   37.8830   25.7950   35.8760 C   0  0  0  0  0  0  0  0  0  0  0  0
   38.1090   24.7720   36.7720 C   0  0  0  0  0  0  0  0  0  0  0  0
   38.3860   23.4730   36.3150 C   0  0  0  0  0  0  0  0  0  0  0  0
   38.3930   23.3930   34.9270 C   0  0  0  0  0  0  0  0  0  0  0  0
   38.1760   24.3690   34.0390 N   0  0  0  0  0  0  0  0  0  0  0  0
   37.6900   26.6980   36.4710 H   0  0  0  0  0  0  0  0  0  0  0  0
   38.1040   24.8340   37.8470 H   0  0  0  0  0  0  0  0  0  0  0  0
   38.5810   22.5900   36.8940 H   0  0  0  0  0  0  0  0  0  0  0  0
   38.5930   22.4460   34.4210 H   0  0  0  0  0  0  0  0  0  0  0  0
   36.8320   26.3580   32.1690 S   0  0  0  0  0  0  0  0  0  0  0  0
   37.4990   27.2600   30.7820 C   0  0  0  0  0  0  0  0  0  0  0  0
   38.3630   26.5030   30.0030 F   0  0  0  0  0  0  0  0  0  0  0  0
   36.5010   27.8360   30.0210 F   0  0  0  0  0  0  0  0  0  0  0  0
   38.2410   28.3290   31.3220 F   0  0  0  0  0  0  0  0  0  0  0  0
  1  2  2  0  0  0  0
  1  5  1  0  0  0  0
  3  8  1  0  0  0  0
  3  9  1  0  0  0  0
  4 10  1  0  0  0  0
  4  3  2  0  0  0  0
  5  6  2  0  0  0  0
  5  4  1  0  0  0  0
  6  7  1  0  0  0  0
  7  8  2  0  0  0  0
 11 16  1  6  0  0  0
 12  7  1  1  0  0  0
 12 11  1  0  0  0  0
 13 14  1  0  0  0  0
 13 12  1  0  0  0  0
 14 15  1  0  0  0  0
 15 11  1  0  0  0  0
 15 18  1  6  0  0  0
 17 16  1  0  0  0  0
 19 18  1  0  0  0  0
 20 21  1  6  0  0  0
 20 22  1  0  0  0  0
 20  2  1  0  0  0  0
 22 23  1  0  0  0  0
 23 28  1  0  0  0  0
 23 24  2  0  0  0  0
 24 29  1  0  0  0  0
 25 24  1  0  0  0  0
 25 30  1  0  0  0  0
 26 25  2  0  0  0  0
 27 22  2  0  0  0  0
 27 26  1  0  0  0  0
 31 26  1  0  0  0  0
 32 20  1  0  0  0  0
 33 36  1  0  0  0  0
 33 32  1  0  0  0  0
 34 33  1  0  0  0  0
 35 33  1  0  0  0  0
M  END
>  <minimizedAffinity>
-5.96402788

$$$$

 OpenBabel03272502363D

 36 38  0  0  1  0  0  0  0  0999 V2000
   35.8290   29.1560   33.1270 C   0  0  0  0  0  3  0  0  0  0  0  0
   36.3520   27.9870   33.3100 C   0  0  0  0  0  3  0  0  0  0  0  0
   34.7570   31.3790   35.9170 C   0  0  0  0  0  0  0  0  0  0  0  0
   35.5080   30.7500   34.9410 C   0  0  0  0  0  0  0  0  0  0  0  0
   34.9980   29.7810   34.1170 C   0  0  0  0  0  0  0  0  0  0  0  0
   33.6910   29.4660   34.3130 N   0  0  0  0  0  0  0  0  0  0  0  0
   32.9600   30.0620   35.2460 C   0  0  0  0  0  0  0  0  0  0  0  0
   33.4750   31.0140   36.0520 N   0  0  0  0  0  0  0  0  0  0  0  0
   35.1310   32.1460   36.5820 H   0  0  0  0  0  0  0  0  0  0  0  0
   36.5220   31.1230   34.9230 H   0  0  0  0  0  0  0  0  0  0  0  0
   31.2110   29.2440   36.7880 C   0  0  2  0  0  3  0  0  0  0  0  0
   31.5370   29.6510   35.3890 C   0  0  2  0  0  3  0  0  0  0  0  0
   31.2880   28.5680   34.5650 O   0  0  0  0  0  0  0  0  0  0  0  0
   30.2910   27.8150   35.1740 C   0  0  0  0  0  2  0  0  0  0  0  0
   30.7400   27.8150   36.6200 C   0  0  1  0  0  3  0  0  0  0  0  0
   30.1660   30.0320   37.2830 O   0  0  0  0  0  0  0  0  0  0  0  0
   30.1330   30.9090   36.8280 H   0  0  0  0  0  0  0  0  0  0  0  0
   31.8240   26.9460   36.7850 O   0  0  0  0  0  0  0  0  0  0  0  0
   32.3050   26.7920   35.9390 H   0  0  0  0  0  0  0  0  0  0  0  0
   37.1960   27.4180   32.2060 C   0  0  1  0  0  0  0  0  0  0  0  0
   38.2690   27.6820   32.3780 H   0  0  0  0  0  0  0  0  0  0  0  0
   36.9840   25.9650   32.1230 C   0  0  0  0  0  0  0  0  0  0  0  0
   35.8300   25.6130   31.3750 C   0  0  0  0  0  0  0  0  0  0  0  0
   35.4310   24.3110   31.1610 C   0  0  0  0  0  0  0  0  0  0  0  0
   36.1720   23.2420   31.6930 C   0  0  0  0  0  0  0  0  0  0  0  0
   37.2810   23.6760   32.4100 C   0  0  0  0  0  0  0  0  0  0  0  0
   37.6880   24.9300   32.6300 N   0  0  0  0  0  0  0  0  0  0  0  0
   35.1000   26.2540   30.8630 H   0  0  0  0  0  0  0  0  0  0  0  0
   34.5710   23.9750   30.6060 H   0  0  0  0  0  0  0  0  0  0  0  0
   35.9790   22.1890   31.6070 H   0  0  0  0  0  0  0  0  0  0  0  0
   37.9560   22.9600   32.8850 H   0  0  0  0  0  0  0  0  0  0  0  0
   36.5660   28.1120   30.6390 S   0  0  0  0  0  0  0  0  0  0  0  0
   37.8810   28.8620   29.6960 C   0  0  0  0  0  0  0  0  0  0  0  0
   37.7410   28.6860   28.3270 F   0  0  0  0  0  0  0  0  0  0  0  0
   38.0470   30.1940   30.0230 F   0  0  0  0  0  0  0  0  0  0  0  0
   39.0710   28.2160   30.0870 F   0  0  0  0  0  0  0  0  0  0  0  0
  1  2  2  0  0  0  0
  1  5  1  0  0  0  0
  3  8  1  0  0  0  0
  3  9  1  0  0  0  0
  4  3  2  0  0  0  0
  5  6  2  0  0  0  0
  5  4  1  0  0  0  0
  6  7  1  0  0  0  0
  7  8  2  0  0  0  0
 10  4  1  0  0  0  0
 11 16  1  6  0  0  0
 12  7  1  1  0  0  0
 12 11  1  0  0  0  0
 13 14  1  0  0  0  0
 13 12  1  0  0  0  0
 14 15  1  0  0  0  0
 15 18  1  6  0  0  0
 15 11  1  0  0  0  0
 17 16  1  0  0  0  0
 19 18  1  0  0  0  0
 20 21  1  1  0  0  0
 20  2  1  0  0  0  0
 22 20  1  0  0  0  0
 22 27  1  0  0  0  0
 23 22  2  0  0  0  0
 24 23  1  0  0  0  0
 24 25  2  0  0  0  0
 25 26  1  0  0  0  0
 26 27  2  0  0  0  0
 26 31  1  0  0  0  0
 28 23  1  0  0  0  0
 29 24  1  0  0  0  0
 30 25  1  0  0  0  0
 32 20  1  0  0  0  0
 33 35  1  0  0  0  0
 33 36  1  0  0  0  0
 33 32  1  0  0  0  0
 34 33  1  0  0  0  0
M  END
>  <minimizedAffinity>
-5.91034174

$$$$

 OpenBabel03272502363D

 36 38  0  0  1  0  0  0  0  0999 V2000
   37.0680   26.9840   33.4760 C   0  0  0  0  0  3  0  0  0  0  0  0
   36.7220   28.1660   33.8700 C   0  0  0  0  0  3  0  0  0  0  0  0
   40.6390   26.1600   34.1480 C   0  0  0  0  0  0  0  0  0  0  0  0
   39.4860   26.7670   33.6840 C   0  0  0  0  0  0  0  0  0  0  0  0
   38.2300   26.3190   33.9970 C   0  0  0  0  0  0  0  0  0  0  0  0
   38.1750   25.2270   34.8040 N   0  0  0  0  0  0  0  0  0  0  0  0
   39.2730   24.6360   35.2560 C   0  0  0  0  0  0  0  0  0  0  0  0
   40.5050   25.0870   34.9390 N   0  0  0  0  0  0  0  0  0  0  0  0
   41.6430   26.4910   33.9190 H   0  0  0  0  0  0  0  0  0  0  0  0
   39.7140   27.6180   33.0590 H   0  0  0  0  0  0  0  0  0  0  0  0
   37.7500   23.3690   36.7310 C   0  0  2  0  0  3  0  0  0  0  0  0
   39.1160   23.4460   36.1330 C   0  0  2  0  0  3  0  0  0  0  0  0
   40.0280   23.5160   37.1710 O   0  0  0  0  0  0  0  0  0  0  0  0
   39.4550   22.8710   38.2610 C   0  0  0  0  0  2  0  0  0  0  0  0
   38.0330   23.3910   38.2190 C   0  0  1  0  0  3  0  0  0  0  0  0
   37.1430   22.1570   36.3840 O   0  0  0  0  0  0  0  0  0  0  0  0
   37.5120   21.8030   35.5370 H   0  0  0  0  0  0  0  0  0  0  0  0
   37.9930   24.7110   38.6800 O   0  0  0  0  0  0  0  0  0  0  0  0
   38.8680   25.1580   38.5970 H   0  0  0  0  0  0  0  0  0  0  0  0
   35.4960   28.7780   33.2540 C   0  0  1  0  0  0  0  0  0  0  0  0
   34.8460   27.9720   32.8300 H   0  0  0  0  0  0  0  0  0  0  0  0
   34.7960   29.5940   34.2550 C   0  0  0  0  0  0  0  0  0  0  0  0
   35.6340   30.5570   34.8750 C   0  0  0  0  0  0  0  0  0  0  0  0
   35.1980   31.4340   35.8440 C   0  0  0  0  0  0  0  0  0  0  0  0
   33.8620   31.4120   36.2760 C   0  0  0  0  0  0  0  0  0  0  0  0
   33.1130   30.4410   35.6210 C   0  0  0  0  0  0  0  0  0  0  0  0
   33.5130   29.5810   34.6780 N   0  0  0  0  0  0  0  0  0  0  0  0
   36.7000   30.7720   34.7120 H   0  0  0  0  0  0  0  0  0  0  0  0
   35.7790   32.1860   36.3520 H   0  0  0  0  0  0  0  0  0  0  0  0
   33.3900   32.0300   37.0160 H   0  0  0  0  0  0  0  0  0  0  0  0
   32.0540   30.3020   35.8490 H   0  0  0  0  0  0  0  0  0  0  0  0
   36.0680   29.9390   31.9650 S   0  0  0  0  0  0  0  0  0  0  0  0
   36.7730   29.0630   30.5800 C   0  0  0  0  0  0  0  0  0  0  0  0
   36.6650   29.7570   29.3830 F   0  0  0  0  0  0  0  0  0  0  0  0
   38.0760   28.6780   30.8290 F   0  0  0  0  0  0  0  0  0  0  0  0
   36.0350   27.8700   30.4470 F   0  0  0  0  0  0  0  0  0  0  0  0
  1  2  2  0  0  0  0
  1  5  1  0  0  0  0
  3  8  1  0  0  0  0
  4  5  1  0  0  0  0
  4  3  2  0  0  0  0
  5  6  2  0  0  0  0
  6  7  1  0  0  0  0
  8  7  2  0  0  0  0
  9  3  1  0  0  0  0
 10  4  1  0  0  0  0
 11 16  1  1  0  0  0
 11 15  1  0  0  0  0
 12  7  1  6  0  0  0
 12 11  1  0  0  0  0
 12 13  1  0  0  0  0
 13 14  1  0  0  0  0
 15 14  1  0  0  0  0
 15 18  1  6  0  0  0
 17 16  1  0  0  0  0
 19 18  1  0  0  0  0
 20 21  1  6  0  0  0
 20  2  1  0  0  0  0
 20 22  1  0  0  0  0
 22 27  2  0  0  0  0
 22 23  1  0  0  0  0
 23 24  2  0  0  0  0
 24 25  1  0  0  0  0
 24 29  1  0  0  0  0
 25 30  1  0  0  0  0
 26 31  1  0  0  0  0
 26 25  2  0  0  0  0
 27 26  1  0  0  0  0
 28 23  1  0  0  0  0
 32 20  1  0  0  0  0
 33 35  1  0  0  0  0
 33 32  1  0  0  0  0
 34 33  1  0  0  0  0
 36 33  1  0  0  0  0
M  END
>  <minimizedAffinity>
-5.84666348

$$$$

 OpenBabel03272502363D

 36 38  0  0  1  0  0  0  0  0999 V2000
   34.7930   29.3110   32.6920 C   0  0  0  0  0  3  0  0  0  0  0  0
   34.6840   29.6710   33.9290 C   0  0  0  0  0  3  0  0  0  0  0  0
   37.4470   28.1880   30.3300 C   0  0  0  0  0  0  0  0  0  0  0  0
   36.3280   28.7940   30.8710 C   0  0  0  0  0  0  0  0  0  0  0  0
   35.9730   28.6650   32.1880 C   0  0  0  0  0  0  0  0  0  0  0  0
   36.7950   27.8970   32.9500 N   0  0  0  0  0  0  0  0  0  0  0  0
   37.8720   27.3100   32.4420 C   0  0  0  0  0  0  0  0  0  0  0  0
   38.2090   27.4450   31.1430 N   0  0  0  0  0  0  0  0  0  0  0  0
   37.7510   28.2710   29.2950 H   0  0  0  0  0  0  0  0  0  0  0  0
   35.7920   29.3660   30.1270 H   0  0  0  0  0  0  0  0  0  0  0  0
   37.9800   26.1010   34.5940 C   0  0  2  0  0  3  0  0  0  0  0  0
   38.7130   26.4860   33.3520 C   0  0  2  0  0  3  0  0  0  0  0  0
   39.8300   27.2110   33.7270 O   0  0  0  0  0  0  0  0  0  0  0  0
   40.1880   26.7770   34.9970 C   0  0  0  0  0  2  0  0  0  0  0  0
   38.8440   26.6930   35.6890 C   0  0  1  0  0  3  0  0  0  0  0  0
   37.9470   24.7090   34.7180 O   0  0  0  0  0  0  0  0  0  0  0  0
   38.0210   24.2690   33.8360 H   0  0  0  0  0  0  0  0  0  0  0  0
   38.3840   27.9770   36.0000 O   0  0  0  0  0  0  0  0  0  0  0  0
   38.7960   28.6650   35.4270 H   0  0  0  0  0  0  0  0  0  0  0  0
   33.4120   30.3490   34.3510 C   0  0  1  0  0  0  0  0  0  0  0  0
   33.0740   31.0490   33.5470 H   0  0  0  0  0  0  0  0  0  0  0  0
   32.3970   29.3360   34.6730 C   0  0  0  0  0  0  0  0  0  0  0  0
   32.4260   28.9320   36.0340 C   0  0  0  0  0  0  0  0  0  0  0  0
   31.5680   27.9950   36.5680 C   0  0  0  0  0  0  0  0  0  0  0  0
   30.5970   27.3770   35.7620 C   0  0  0  0  0  0  0  0  0  0  0  0
   30.6400   27.8280   34.4480 C   0  0  0  0  0  0  0  0  0  0  0  0
   31.4610   28.7350   33.9080 N   0  0  0  0  0  0  0  0  0  0  0  0
   33.0790   29.2640   36.8540 H   0  0  0  0  0  0  0  0  0  0  0  0
   31.5360   27.6450   37.5860 H   0  0  0  0  0  0  0  0  0  0  0  0
   29.8720   26.6370   36.0410 H   0  0  0  0  0  0  0  0  0  0  0  0
   29.9450   27.4400   33.6990 H   0  0  0  0  0  0  0  0  0  0  0  0
   33.7670   31.2260   35.9130 S   0  0  0  0  0  0  0  0  0  0  0  0
   35.4040   31.9350   35.8920 C   0  0  0  0  0  0  0  0  0  0  0  0
   36.4040   31.0100   36.1590 F   0  0  0  0  0  0  0  0  0  0  0  0
   35.6460   32.6230   34.7190 F   0  0  0  0  0  0  0  0  0  0  0  0
   35.4330   32.8990   36.9200 F   0  0  0  0  0  0  0  0  0  0  0  0
  1  2  2  0  0  0  0
  2 20  1  0  0  0  0
  3  4  2  0  0  0  0
  3  8  1  0  0  0  0
  4  5  1  0  0  0  0
  5  1  1  0  0  0  0
  5  6  2  0  0  0  0
  7  6  1  0  0  0  0
  8  7  2  0  0  0  0
  9  3  1  0  0  0  0
 10  4  1  0  0  0  0
 11 16  1  1  0  0  0
 11 15  1  0  0  0  0
 12  7  1  6  0  0  0
 12 13  1  0  0  0  0
 12 11  1  0  0  0  0
 13 14  1  0  0  0  0
 14 15  1  0  0  0  0
 15 18  1  6  0  0  0
 17 16  1  0  0  0  0
 19 18  1  0  0  0  0
 20 21  1  6  0  0  0
 20 22  1  0  0  0  0
 20 32  1  0  0  0  0
 22 23  1  0  0  0  0
 23 24  2  0  0  0  0
 23 28  1  0  0  0  0
 24 29  1  0  0  0  0
 25 30  1  0  0  0  0
 25 24  1  0  0  0  0
 26 25  2  0  0  0  0
 27 26  1  0  0  0  0
 27 22  2  0  0  0  0
 31 26  1  0  0  0  0
 33 32  1  0  0  0  0
 33 34  1  0  0  0  0
 33 36  1  0  0  0  0
 35 33  1  0  0  0  0
M  END
>  <minimizedAffinity>
-5.8344779

$$$$

 OpenBabel03272502363D

 36 38  0  0  1  0  0  0  0  0999 V2000
   36.1760   28.8690   34.7150 C   0  0  0  0  0  3  0  0  0  0  0  0
   35.5080   29.5650   33.8540 C   0  0  0  0  0  3  0  0  0  0  0  0
   37.4800   26.0530   32.6530 C   0  0  0  0  0  0  0  0  0  0  0  0
   36.8840   27.2360   33.0510 C   0  0  0  0  0  0  0  0  0  0  0  0
   36.8170   27.6330   34.3600 C   0  0  0  0  0  0  0  0  0  0  0  0
   37.3780   26.7890   35.2650 N   0  0  0  0  0  0  0  0  0  0  0  0
   37.9530   25.6510   34.8960 C   0  0  0  0  0  0  0  0  0  0  0  0
   38.0110   25.2710   33.6020 N   0  0  0  0  0  0  0  0  0  0  0  0
   37.5480   25.7130   31.6280 H   0  0  0  0  0  0  0  0  0  0  0  0
   36.4930   27.7830   32.2050 H   0  0  0  0  0  0  0  0  0  0  0  0
   39.2440   23.6020   35.3840 C   0  0  2  0  0  3  0  0  0  0  0  0
   38.5400   24.7880   35.9560 C   0  0  2  0  0  3  0  0  0  0  0  0
   37.5310   24.3240   36.7810 O   0  0  0  0  0  0  0  0  0  0  0  0
   37.9350   23.0840   37.2590 C   0  0  0  0  0  2  0  0  0  0  0  0
   38.5040   22.4390   36.0120 C   0  0  1  0  0  3  0  0  0  0  0  0
   40.5790   23.5930   35.8000 O   0  0  0  0  0  0  0  0  0  0  0  0
   40.8940   24.5050   36.0110 H   0  0  0  0  0  0  0  0  0  0  0  0
   37.4650   22.0380   35.1650 O   0  0  0  0  0  0  0  0  0  0  0  0
   36.6350   22.5410   35.3340 H   0  0  0  0  0  0  0  0  0  0  0  0
   34.8660   30.8370   34.3310 C   0  0  1  0  0  0  0  0  0  0  0  0
   34.6770   31.5130   33.4600 H   0  0  0  0  0  0  0  0  0  0  0  0
   33.6360   30.5210   35.0710 C   0  0  0  0  0  0  0  0  0  0  0  0
   33.5100   31.2530   36.2810 C   0  0  0  0  0  0  0  0  0  0  0  0
   32.4410   31.1240   37.1400 C   0  0  0  0  0  0  0  0  0  0  0  0
   31.3940   30.2330   36.8460 C   0  0  0  0  0  0  0  0  0  0  0  0
   31.5980   29.5590   35.6480 C   0  0  0  0  0  0  0  0  0  0  0  0
   32.6250   29.6680   34.7990 N   0  0  0  0  0  0  0  0  0  0  0  0
   34.1820   32.0010   36.7240 H   0  0  0  0  0  0  0  0  0  0  0  0
   32.2830   31.6460   38.0690 H   0  0  0  0  0  0  0  0  0  0  0  0
   30.5090   30.0330   37.4200 H   0  0  0  0  0  0  0  0  0  0  0  0
   30.8690   28.8320   35.2840 H   0  0  0  0  0  0  0  0  0  0  0  0
   36.0070   31.5890   35.5420 S   0  0  0  0  0  0  0  0  0  0  0  0
   36.5460   33.2020   35.0000 C   0  0  0  0  0  0  0  0  0  0  0  0
   35.5540   34.1680   35.0910 F   0  0  0  0  0  0  0  0  0  0  0  0
   37.7020   33.5960   35.6450 F   0  0  0  0  0  0  0  0  0  0  0  0
   36.8860   33.0700   33.6380 F   0  0  0  0  0  0  0  0  0  0  0  0
  2 20  1  0  0  0  0
  2  1  2  0  0  0  0
  3  4  2  0  0  0  0
  3  8  1  0  0  0  0
  4  5  1  0  0  0  0
  5  1  1  0  0  0  0
  5  6  2  0  0  0  0
  7  6  1  0  0  0  0
  8  7  2  0  0  0  0
  9  3  1  0  0  0  0
 10  4  1  0  0  0  0
 11 16  1  1  0  0  0
 11 12  1  0  0  0  0
 11 15  1  0  0  0  0
 12  7  1  6  0  0  0
 12 13  1  0  0  0  0
 13 14  1  0  0  0  0
 15 18  1  6  0  0  0
 15 14  1  0  0  0  0
 16 17  1  0  0  0  0
 18 19  1  0  0  0  0
 20 21  1  6  0  0  0
 20 22  1  0  0  0  0
 20 32  1  0  0  0  0
 22 23  1  0  0  0  0
 23 28  1  0  0  0  0
 23 24  2  0  0  0  0
 24 29  1  0  0  0  0
 25 24  1  0  0  0  0
 25 30  1  0  0  0  0
 26 25  2  0  0  0  0
 27 22  2  0  0  0  0
 27 26  1  0  0  0  0
 31 26  1  0  0  0  0
 33 34  1  0  0  0  0
 33 32  1  0  0  0  0
 33 35  1  0  0  0  0
 36 33  1  0  0  0  0
M  END
>  <minimizedAffinity>
-5.79399586

$$$$

 OpenBabel03272502363D

 36 38  0  0  1  0  0  0  0  0999 V2000
   35.1440   30.1550   34.3640 C   0  0  0  0  0  3  0  0  0  0  0  0
   35.7880   30.6650   35.3620 C   0  0  0  0  0  3  0  0  0  0  0  0
   35.8690   28.1670   31.2980 C   0  0  0  0  0  0  0  0  0  0  0  0
   35.3350   29.0860   32.1830 C   0  0  0  0  0  0  0  0  0  0  0  0
   35.7420   29.1870   33.4870 C   0  0  0  0  0  0  0  0  0  0  0  0
   36.7160   28.3210   33.8730 N   0  0  0  0  0  0  0  0  0  0  0  0
   37.2350   27.4350   33.0330 C   0  0  0  0  0  0  0  0  0  0  0  0
   36.8250   27.3450   31.7500 N   0  0  0  0  0  0  0  0  0  0  0  0
   35.5690   28.0630   30.2640 H   0  0  0  0  0  0  0  0  0  0  0  0
   34.5770   29.6930   31.7100 H   0  0  0  0  0  0  0  0  0  0  0  0
   37.9590   25.9740   34.8890 C   0  0  2  0  0  3  0  0  0  0  0  0
   38.2960   26.5270   33.5440 C   0  0  2  0  0  3  0  0  0  0  0  0
   39.4830   27.2270   33.6610 O   0  0  0  0  0  0  0  0  0  0  0  0
   40.1960   26.6490   34.7050 C   0  0  0  0  0  2  0  0  0  0  0  0
   39.1140   26.4480   35.7460 C   0  0  1  0  0  3  0  0  0  0  0  0
   37.9460   24.5760   34.8420 O   0  0  0  0  0  0  0  0  0  0  0  0
   37.7500   24.2510   33.9300 H   0  0  0  0  0  0  0  0  0  0  0  0
   38.7840   27.6720   36.3360 O   0  0  0  0  0  0  0  0  0  0  0  0
   39.0170   28.4350   35.7580 H   0  0  0  0  0  0  0  0  0  0  0  0
   35.0740   31.6780   36.2110 C   0  0  1  0  0  0  0  0  0  0  0  0
   35.0870   31.3510   37.2800 H   0  0  0  0  0  0  0  0  0  0  0  0
   35.6910   33.0000   36.0240 C   0  0  0  0  0  0  0  0  0  0  0  0
   34.8970   34.0620   36.5310 C   0  0  0  0  0  0  0  0  0  0  0  0
   35.2700   35.3870   36.4680 C   0  0  0  0  0  0  0  0  0  0  0  0
   36.4920   35.7560   35.8810 C   0  0  0  0  0  0  0  0  0  0  0  0
   37.2040   34.6580   35.4120 C   0  0  0  0  0  0  0  0  0  0  0  0
   36.8630   33.3660   35.4610 N   0  0  0  0  0  0  0  0  0  0  0  0
   33.9190   34.0330   37.0300 H   0  0  0  0  0  0  0  0  0  0  0  0
   34.7190   36.2380   36.8320 H   0  0  0  0  0  0  0  0  0  0  0  0
   36.9060   36.7400   35.7650 H   0  0  0  0  0  0  0  0  0  0  0  0
   38.1750   34.7850   34.9290 H   0  0  0  0  0  0  0  0  0  0  0  0
   33.3740   31.8170   35.5600 S   0  0  0  0  0  0  0  0  0  0  0  0
   32.1830   31.2170   36.7460 C   0  0  0  0  0  0  0  0  0  0  0  0
   32.7580   30.8290   37.9480 F   0  0  0  0  0  0  0  0  0  0  0  0
   31.1570   32.1210   36.9400 F   0  0  0  0  0  0  0  0  0  0  0  0
   31.5900   30.0750   36.1710 F   0  0  0  0  0  0  0  0  0  0  0  0
  1  2  2  0  0  0  0
  2 20  1  0  0  0  0
  3  8  2  0  0  0  0
  3  4  1  0  0  0  0
  4  5  2  0  0  0  0
  5  6  1  0  0  0  0
  5  1  1  0  0  0  0
  7  6  2  0  0  0  0
  8  7  1  0  0  0  0
  9  3  1  0  0  0  0
 10  4  1  0  0  0  0
 11 16  1  6  0  0  0
 11 15  1  0  0  0  0
 12  7  1  1  0  0  0
 12 13  1  0  0  0  0
 12 11  1  0  0  0  0
 13 14  1  0  0  0  0
 14 15  1  0  0  0  0
 15 18  1  6  0  0  0
 17 16  1  0  0  0  0
 19 18  1  0  0  0  0
 20 21  1  1  0  0  0
 22 20  1  0  0  0  0
 22 23  1  0  0  0  0
 23 28  1  0  0  0  0
 24 23  2  0  0  0  0
 24 29  1  0  0  0  0
 25 24  1  0  0  0  0
 26 27  1  0  0  0  0
 26 25  2  0  0  0  0
 27 22  2  0  0  0  0
 30 25  1  0  0  0  0
 31 26  1  0  0  0  0
 32 20  1  0  0  0  0
 32 33  1  0  0  0  0
 33 35  1  0  0  0  0
 33 34  1  0  0  0  0
 36 33  1  0  0  0  0
M  END
>  <minimizedAffinity>
-5.74645615

$$$$

 OpenBabel03272502363D

 36 38  0  0  1  0  0  0  0  0999 V2000
   36.2540   28.3540   34.0410 C   0  0  0  0  0  3  0  0  0  0  0  0
   36.9870   27.7380   33.1720 C   0  0  0  0  0  3  0  0  0  0  0  0
   35.2260   31.4360   32.2170 C   0  0  0  0  0  0  0  0  0  0  0  0
   35.7400   30.1890   32.5220 C   0  0  0  0  0  0  0  0  0  0  0  0
   35.6940   29.6510   33.7810 C   0  0  0  0  0  0  0  0  0  0  0  0
   35.1050   30.4220   34.7330 N   0  0  0  0  0  0  0  0  0  0  0  0
   34.6080   31.6200   34.4520 C   0  0  0  0  0  0  0  0  0  0  0  0
   34.6610   32.1380   33.2070 N   0  0  0  0  0  0  0  0  0  0  0  0
   35.2480   31.8860   31.2330 H   0  0  0  0  0  0  0  0  0  0  0  0
   36.1690   29.7160   31.6500 H   0  0  0  0  0  0  0  0  0  0  0  0
   34.1590   31.7220   36.8800 C   0  0  2  0  0  3  0  0  0  0  0  0
   33.9820   32.3930   35.5580 C   0  0  2  0  0  3  0  0  0  0  0  0
   32.6240   32.5120   35.3240 O   0  0  0  0  0  0  0  0  0  0  0  0
   32.0010   32.5810   36.5640 C   0  0  0  0  0  2  0  0  0  0  0  0
   32.7330   31.5050   37.3400 C   0  0  1  0  0  3  0  0  0  0  0  0
   34.8170   32.5790   37.7670 O   0  0  0  0  0  0  0  0  0  0  0  0
   35.3760   33.2350   37.2830 H   0  0  0  0  0  0  0  0  0  0  0  0
   32.2990   30.2400   36.9280 O   0  0  0  0  0  0  0  0  0  0  0  0
   31.9100   30.2600   36.0230 H   0  0  0  0  0  0  0  0  0  0  0  0
   37.5330   26.3910   33.5470 C   0  0  1  0  0  0  0  0  0  0  0  0
   37.3410   26.1950   34.6310 H   0  0  0  0  0  0  0  0  0  0  0  0
   36.9440   25.3610   32.6800 C   0  0  0  0  0  0  0  0  0  0  0  0
   37.5270   24.0790   32.8610 C   0  0  0  0  0  0  0  0  0  0  0  0
   37.1370   22.9600   32.1580 C   0  0  0  0  0  0  0  0  0  0  0  0
   36.1120   23.0410   31.2000 C   0  0  0  0  0  0  0  0  0  0  0  0
   35.5990   24.3280   31.0860 C   0  0  0  0  0  0  0  0  0  0  0  0
   35.9600   25.4280   31.7560 N   0  0  0  0  0  0  0  0  0  0  0  0
   38.3300   23.7610   33.5400 H   0  0  0  0  0  0  0  0  0  0  0  0
   37.5350   21.9620   32.2460 H   0  0  0  0  0  0  0  0  0  0  0  0
   35.7110   22.2580   30.5850 H   0  0  0  0  0  0  0  0  0  0  0  0
   34.7950   24.5500   30.3820 H   0  0  0  0  0  0  0  0  0  0  0  0
   39.3190   26.4130   33.1650 S   0  0  0  0  0  0  0  0  0  0  0  0
   40.2880   26.6410   34.6460 C   0  0  0  0  0  0  0  0  0  0  0  0
   41.5130   27.2490   34.4080 F   0  0  0  0  0  0  0  0  0  0  0  0
   39.5730   27.3010   35.6260 F   0  0  0  0  0  0  0  0  0  0  0  0
   40.5460   25.3520   35.1550 F   0  0  0  0  0  0  0  0  0  0  0  0
  2 20  1  0  0  0  0
  2  1  2  0  0  0  0
  3  4  2  0  0  0  0
  3  8  1  0  0  0  0
  4  5  1  0  0  0  0
  5  1  1  0  0  0  0
  5  6  2  0  0  0  0
  7  6  1  0  0  0  0
  8  7  2  0  0  0  0
  9  3  1  0  0  0  0
 10  4  1  0  0  0  0
 11 15  1  0  0  0  0
 11 16  1  1  0  0  0
 12  7  1  6  0  0  0
 12 11  1  0  0  0  0
 13 12  1  0  0  0  0
 13 14  1  0  0  0  0
 14 15  1  0  0  0  0
 15 18  1  6  0  0  0
 17 16  1  0  0  0  0
 19 18  1  0  0  0  0
 20 21  1  1  0  0  0
 22 23  1  0  0  0  0
 22 20  1  0  0  0  0
 23 28  1  0  0  0  0
 24 29  1  0  0  0  0
 24 23  2  0  0  0  0
 25 24  1  0  0  0  0
 26 25  2  0  0  0  0
 26 27  1  0  0  0  0
 27 22  2  0  0  0  0
 30 25  1  0  0  0  0
 31 26  1  0  0  0  0
 32 20  1  0  0  0  0
 32 33  1  0  0  0  0
 33 36  1  0  0  0  0
 33 35  1  0  0  0  0
 34 33  1  0  0  0  0
M  END
>  <minimizedAffinity>
-5.74606848

$$$$

 OpenBabel03272502363D

 36 38  0  0  1  0  0  0  0  0999 V2000
   36.5030   28.0740   34.6820 C   0  0  0  0  0  3  0  0  0  0  0  0
   35.9060   28.7180   33.7330 C   0  0  0  0  0  3  0  0  0  0  0  0
   39.6460   26.0840   34.8770 C   0  0  0  0  0  0  0  0  0  0  0  0
   38.6660   27.0330   35.1010 C   0  0  0  0  0  0  0  0  0  0  0  0
   37.4810   27.0570   34.4130 C   0  0  0  0  0  0  0  0  0  0  0  0
   37.3180   26.0820   33.4810 N   0  0  0  0  0  0  0  0  0  0  0  0
   38.2520   25.1660   33.2570 C   0  0  0  0  0  0  0  0  0  0  0  0
   39.4140   25.1530   33.9420 N   0  0  0  0  0  0  0  0  0  0  0  0
   40.5900   26.0390   35.4040 H   0  0  0  0  0  0  0  0  0  0  0  0
   38.9600   27.7280   35.8740 H   0  0  0  0  0  0  0  0  0  0  0  0
   37.3630   24.7260   30.9940 C   0  0  2  0  0  3  0  0  0  0  0  0
   37.9860   24.1370   32.2170 C   0  0  2  0  0  3  0  0  0  0  0  0
   37.1130   23.1890   32.7210 O   0  0  0  0  0  0  0  0  0  0  0  0
   36.3780   22.7020   31.6470 C   0  0  0  0  0  2  0  0  0  0  0  0
   36.0530   23.9720   30.8890 C   0  0  1  0  0  3  0  0  0  0  0  0
   38.1560   24.4540   29.8750 O   0  0  0  0  0  0  0  0  0  0  0  0
   39.1010   24.3190   30.1310 H   0  0  0  0  0  0  0  0  0  0  0  0
   35.0510   24.6850   31.5560 O   0  0  0  0  0  0  0  0  0  0  0  0
   35.0060   24.4510   32.5120 H   0  0  0  0  0  0  0  0  0  0  0  0
   34.8900   29.7540   34.1220 C   0  0  1  0  0  0  0  0  0  0  0  0
   34.4560   29.4990   35.1210 H   0  0  0  0  0  0  0  0  0  0  0  0
   35.5140   31.0850   34.1070 C   0  0  0  0  0  0  0  0  0  0  0  0
   35.7710   31.5950   35.4070 C   0  0  0  0  0  0  0  0  0  0  0  0
   36.3500   32.8230   35.6410 C   0  0  0  0  0  0  0  0  0  0  0  0
   36.7220   33.6520   34.5690 C   0  0  0  0  0  0  0  0  0  0  0  0
   36.4350   33.0780   33.3360 C   0  0  0  0  0  0  0  0  0  0  0  0
   35.8750   31.8900   33.0840 N   0  0  0  0  0  0  0  0  0  0  0  0
   35.5780   31.1450   36.3910 H   0  0  0  0  0  0  0  0  0  0  0  0
   36.5720   33.2690   36.5970 H   0  0  0  0  0  0  0  0  0  0  0  0
   37.1770   34.6240   34.6040 H   0  0  0  0  0  0  0  0  0  0  0  0
   36.6670   33.6020   32.4060 H   0  0  0  0  0  0  0  0  0  0  0  0
   33.6190   29.7750   32.8120 S   0  0  0  0  0  0  0  0  0  0  0  0
   32.0690   29.1260   33.4120 C   0  0  0  0  0  0  0  0  0  0  0  0
   32.1100   28.7670   34.7520 F   0  0  0  0  0  0  0  0  0  0  0  0
   31.0200   29.9840   33.1460 F   0  0  0  0  0  0  0  0  0  0  0  0
   31.8120   27.9570   32.6670 F   0  0  0  0  0  0  0  0  0  0  0  0
  2 20  1  0  0  0  0
  2  1  2  0  0  0  0
  3  4  1  0  0  0  0
  3  9  1  0  0  0  0
  4 10  1  0  0  0  0
  5  1  1  0  0  0  0
  5  4  2  0  0  0  0
  6  5  1  0  0  0  0
  7  6  2  0  0  0  0
  7  8  1  0  0  0  0
  8  3  2  0  0  0  0
 11 16  1  6  0  0  0
 11 12  1  0  0  0  0
 12 13  1  0  0  0  0
 12  7  1  1  0  0  0
 14 13  1  0  0  0  0
 15 11  1  0  0  0  0
 15 18  1  1  0  0  0
 15 14  1  0  0  0  0
 16 17  1  0  0  0  0
 18 19  1  0  0  0  0
 20 21  1  1  0  0  0
 22 20  1  0  0  0  0
 22 23  1  0  0  0  0
 23 24  2  0  0  0  0
 23 28  1  0  0  0  0
 24 29  1  0  0  0  0
 25 30  1  0  0  0  0
 25 24  1  0  0  0  0
 26 25  2  0  0  0  0
 27 26  1  0  0  0  0
 27 22  2  0  0  0  0
 31 26  1  0  0  0  0
 32 33  1  0  0  0  0
 32 20  1  0  0  0  0
 33 34  1  0  0  0  0
 35 33  1  0  0  0  0
 36 33  1  0  0  0  0
M  END
>  <minimizedAffinity>
-5.73911428

$$$$
