
 OpenBabel03272502003D

 42 46  0  0  1  0  0  0  0  0999 V2000
   37.6100   30.1300   49.5170 C   0  0  0  0  0  0  0  0  0  0  0  0
   37.9590   29.5510   50.3990 H   0  0  0  0  0  0  0  0  0  0  0  0
   38.2810   29.9980   48.6640 H   0  0  0  0  0  0  0  0  0  0  0  0
   36.2430   29.6590   49.1020 C   0  0  0  0  0  0  0  0  0  0  0  0
   35.5230   28.6100   49.6520 C   0  0  0  0  0  0  0  0  0  0  0  0
   34.3120   28.5000   48.9870 C   0  0  0  0  0  0  0  0  0  0  0  0
   34.3330   29.4850   48.0550 N   0  0  0  0  0  0  0  0  0  0  0  0
   35.4690   30.1620   48.1290 N   0  0  0  0  0  0  0  0  0  0  0  0
   32.0340   28.9630   47.2070 N   0  0  0  0  0  0  0  0  0  0  0  0
   33.2080   29.6320   47.2000 C   0  0  0  0  0  0  0  0  0  0  0  0
   33.1210   30.5140   46.1820 N   0  0  0  0  0  0  0  0  0  0  0  0
   31.9360   30.4110   45.5630 C   0  0  0  0  0  0  0  0  0  0  0  0
   31.4260   31.1000   44.4930 C   0  0  0  0  0  0  0  0  0  0  0  0
   30.1860   30.7960   44.0600 N   0  0  0  0  0  0  0  0  0  0  0  0
   29.4840   29.8220   44.6920 C   0  0  0  0  0  0  0  0  0  0  0  0
   29.9930   29.1420   45.7500 N   0  0  0  0  0  0  0  0  0  0  0  0
   31.2300   29.4230   46.2080 C   0  0  0  0  0  0  0  0  0  0  0  0
   35.8890   27.9990   50.4690 H   0  0  0  0  0  0  0  0  0  0  0  0
   33.5470   27.7590   49.2130 H   0  0  0  0  0  0  0  0  0  0  0  0
   31.7720   28.2140   47.8670 H   0  0  0  0  0  0  0  0  0  0  0  0
   32.0050   31.8770   43.9990 H   0  0  0  0  0  0  0  0  0  0  0  0
   28.5000   29.6230   44.3030 H   0  0  0  0  0  0  0  0  0  0  0  0
   37.4400   31.5620   49.9400 C   0  0  0  0  0  0  0  0  0  0  0  0
   36.4010   31.9290   49.7170 H   0  0  0  0  0  0  0  0  0  0  0  0
   37.5610   31.7070   51.0320 H   0  0  0  0  0  0  0  0  0  0  0  0
   39.6640   34.3580   48.9380 C   0  0  0  0  0  0  0  0  0  0  0  0
   39.9860   34.0000   47.6020 C   0  0  0  0  0  0  0  0  0  0  0  0
   39.4340   32.8130   47.0790 C   0  0  0  0  0  0  0  0  0  0  0  0
   38.6250   32.0740   47.8800 N   0  0  0  0  0  0  0  0  0  0  0  0
   38.3460   32.4550   49.1480 C   0  0  0  0  0  0  0  0  0  0  0  0
   38.8590   33.5620   49.6390 N   0  0  0  0  0  0  0  0  0  0  0  0
   40.0750   35.2590   49.3530 H   0  0  0  0  0  0  0  0  0  0  0  0
   40.6310   34.6450   47.0530 H   0  0  0  0  0  0  0  0  0  0  0  0
   39.9830   30.9440   45.6390 C   0  0  1  0  0  0  0  0  0  0  0  0
   39.7640   32.4350   45.6950 C   0  0  1  0  0  0  0  0  0  0  0  0
   38.7710   32.7670   44.8110 O   0  0  0  0  0  0  0  0  0  0  0  0
   38.5040   31.6910   43.9850 C   0  0  0  0  0  0  0  0  0  0  0  0
   39.5910   30.6710   44.2020 C   0  0  1  0  0  0  0  0  0  0  0  0
   41.3470   30.6690   45.8640 O   0  0  0  0  0  0  0  0  0  0  0  0
   41.6790   31.2070   46.6250 H   0  0  0  0  0  0  0  0  0  0  0  0
   40.6490   30.9040   43.3330 O   0  0  0  0  0  0  0  0  0  0  0  0
   40.7290   31.8990   43.2740 H   0  0  0  0  0  0  0  0  0  0  0  0
  1 23  1  0  0  0  0
  1  2  1  0  0  0  0
  3  1  1  0  0  0  0
  4  1  1  0  0  0  0
  4  5  1  0  0  0  0
  5 18  1  0  0  0  0
  6 19  1  0  0  0  0
  6  5  2  0  0  0  0
  7  8  1  0  0  0  0
  7  6  1  0  0  0  0
  8  4  2  0  0  0  0
  9 20  1  0  0  0  0
 10  9  1  0  0  0  0
 10  7  1  0  0  0  0
 11 10  2  0  0  0  0
 12 11  1  0  0  0  0
 12 17  1  0  0  0  0
 13 12  2  0  0  0  0
 14 13  1  0  0  0  0
 14 15  2  0  0  0  0
 15 16  1  0  0  0  0
 16 17  2  0  0  0  0
 17  9  1  0  0  0  0
 21 13  1  0  0  0  0
 22 15  1  0  0  0  0
 23 25  1  0  0  0  0
 24 23  1  0  0  0  0
 26 32  1  0  0  0  0
 26 31  1  0  0  0  0
 27 26  2  0  0  0  0
 28 27  1  0  0  0  0
 28 29  2  0  0  0  0
 29 30  1  0  0  0  0
 30 31  2  0  0  0  0
 30 23  1  0  0  0  0
 33 27  1  0  0  0  0
 34 35  1  0  0  0  0
 34 39  1  6  0  0  0
 35 28  1  1  0  0  0
 36 35  1  0  0  0  0
 37 38  1  0  0  0  0
 37 36  1  0  0  0  0
 38 41  1  6  0  0  0
 38 34  1  0  0  0  0
 39 40  1  0  0  0  0
 42 41  1  0  0  0  0
M  END
>  <minimizedAffinity>
-7.49376297

>  <minimizedRMSD>
3.51827359

$$$$
