
 OpenBabel03272505303D

 40 43  0  0  1  0  0  0  0  0999 V2000
   37.3740   31.0850   47.1330 N   0  0  0  0  0  0  0  0  0  0  0  0
   36.7660   30.7680   45.9670 C   0  0  0  0  0  0  0  0  0  0  0  0
   37.2120   31.2470   44.7460 C   0  0  0  0  0  0  0  0  0  0  0  0
   38.3360   32.0860   44.7660 C   0  0  0  0  0  0  0  0  0  0  0  0
   38.7910   32.5550   43.6930 O   0  0  0  0  0  0  0  0  0  0  0  0
   38.9530   32.4060   45.9540 N   0  0  0  0  0  0  0  0  0  0  0  0
   38.4210   31.8770   47.0540 C   0  0  0  0  0  0  0  0  0  0  0  0
   39.0060   32.1890   48.1080 O   0  0  0  0  0  0  0  0  0  0  0  0
   35.8940   30.1140   45.9760 H   0  0  0  0  0  0  0  0  0  0  0  0
   37.2870   29.4760   50.4870 C   0  0  0  0  0  0  0  0  0  0  0  0
   37.7550   29.9760   49.2610 C   0  0  0  0  0  0  0  0  0  0  0  0
   36.9050   30.5880   48.3550 C   0  0  0  0  0  0  0  0  0  0  0  0
   35.6070   30.6840   48.6990 N   0  0  0  0  0  0  0  0  0  0  0  0
   35.1190   30.2070   49.8860 C   0  0  0  0  0  0  0  0  0  0  0  0
   35.9730   29.6080   50.7650 N   0  0  0  0  0  0  0  0  0  0  0  0
   38.0090   29.0100   51.1430 H   0  0  0  0  0  0  0  0  0  0  0  0
   38.7950   29.8990   48.9820 H   0  0  0  0  0  0  0  0  0  0  0  0
   34.0700   30.2980   50.1380 H   0  0  0  0  0  0  0  0  0  0  0  0
   36.6070   30.9460   43.4770 C   0  0  0  0  0  0  0  0  0  0  0  0
   36.9160   29.8360   42.7280 C   0  0  0  0  0  0  0  0  0  0  0  0
   36.3670   29.5070   41.5130 C   0  0  0  0  0  0  0  0  0  0  0  0
   35.4120   30.3630   40.9770 C   0  0  0  0  0  0  0  0  0  0  0  0
   35.1160   31.4840   41.7560 C   0  0  0  0  0  0  0  0  0  0  0  0
   35.6830   31.7540   42.9350 N   0  0  0  0  0  0  0  0  0  0  0  0
   37.6660   29.1370   43.1190 H   0  0  0  0  0  0  0  0  0  0  0  0
   36.6540   28.6140   40.9720 H   0  0  0  0  0  0  0  0  0  0  0  0
   34.9310   30.1770   40.0240 H   0  0  0  0  0  0  0  0  0  0  0  0
   33.6180   33.2960   42.4670 C   0  0  1  0  0  3  0  0  0  0  0  0
   34.1070   32.4680   41.2790 C   0  0  1  0  0  3  0  0  0  0  0  0
   34.6510   33.4550   40.4840 O   0  0  0  0  0  0  0  0  0  0  0  0
   33.7350   34.4780   40.4600 C   0  0  0  0  0  2  0  0  0  0  0  0
   32.8640   34.3790   41.6920 C   0  0  1  0  0  3  0  0  0  0  0  0
   32.7870   32.5680   43.3070 O   0  0  0  0  0  0  0  0  0  0  0  0
   33.0390   31.6060   43.1270 H   0  0  0  0  0  0  0  0  0  0  0  0
   31.6400   33.8190   41.2750 O   0  0  0  0  0  0  0  0  0  0  0  0
   31.4890   32.9330   41.7190 H   0  0  0  0  0  0  0  0  0  0  0  0
   40.1010   33.2650   45.9590 C   0  0  0  0  0  0  0  0  0  0  0  0
   39.9910   34.2330   45.0220 F   0  0  0  0  0  0  0  0  0  0  0  0
   41.2870   32.6010   45.6830 F   0  0  0  0  0  0  0  0  0  0  0  0
   40.1940   33.8780   47.2060 F   0  0  0  0  0  0  0  0  0  0  0  0
  1 12  1  0  0  0  0
  2  9  1  0  0  0  0
  2  1  1  0  0  0  0
  3  4  1  0  0  0  0
  3  2  2  0  0  0  0
  4  6  1  0  0  0  0
  5  4  2  0  0  0  0
  6 37  1  0  0  0  0
  6  7  1  0  0  0  0
  7  1  1  0  0  0  0
  7  8  2  0  0  0  0
 10 15  1  0  0  0  0
 10 16  1  0  0  0  0
 11 10  2  0  0  0  0
 12 13  2  0  0  0  0
 12 11  1  0  0  0  0
 13 14  1  0  0  0  0
 14 18  1  0  0  0  0
 14 15  2  0  0  0  0
 17 11  1  0  0  0  0
 19  3  1  0  0  0  0
 20 25  1  0  0  0  0
 20 19  2  0  0  0  0
 21 20  1  0  0  0  0
 22 21  2  0  0  0  0
 22 23  1  0  0  0  0
 23 24  2  0  0  0  0
 24 19  1  0  0  0  0
 26 21  1  0  0  0  0
 27 22  1  0  0  0  0
 28 33  1  1  0  0  0
 29 23  1  1  0  0  0
 29 28  1  0  0  0  0
 30 29  1  0  0  0  0
 31 30  1  0  0  0  0
 31 32  1  0  0  0  0
 32 35  1  6  0  0  0
 32 28  1  0  0  0  0
 34 33  1  0  0  0  0
 35 36  1  0  0  0  0
 37 40  1  0  0  0  0
 38 37  1  0  0  0  0
 39 37  1  0  0  0  0
M  END
>  <minimizedAffinity>
-6.61508751

>  <minimizedRMSD>
0.12558198

$$$$
