
 OpenBabel03272507513D

 28 30  0  0  1  0  0  0  0  0999 V2000
   40.7190   24.4530   35.3230 C   0  0  0  0  0  0  0  0  0  0  0  0
   39.3800   24.4950   35.7480 C   0  0  0  0  0  0  0  0  0  0  0  0
   38.9680   23.4890   36.6370 C   0  0  0  0  0  0  0  0  0  0  0  0
   39.8470   22.5480   37.0380 N   0  0  0  0  0  0  0  0  0  0  0  0
   41.1330   22.5390   36.6080 C   0  0  0  0  0  0  0  0  0  0  0  0
   41.5770   23.4930   35.7450 N   0  0  0  0  0  0  0  0  0  0  0  0
   37.9370   23.5570   36.9370 H   0  0  0  0  0  0  0  0  0  0  0  0
   41.6840   21.7240   37.0270 H   0  0  0  0  0  0  0  0  0  0  0  0
   38.5490   25.5320   35.2610 N   0  0  0  0  0  0  0  0  0  0  0  0
   38.4130   26.7010   35.9240 C   0  0  0  0  0  0  0  0  0  0  0  0
   37.5970   27.7030   35.4270 C   0  0  0  0  0  0  0  0  0  0  0  0
   36.9780   27.3660   34.2340 C   0  0  0  0  0  0  0  0  0  0  0  0
   36.2100   28.2650   33.7320 O   0  0  0  0  0  0  0  0  0  0  0  0
   37.0880   26.2240   33.5490 N   0  0  0  0  0  0  0  0  0  0  0  0
   37.9050   25.2940   34.1020 C   0  0  0  0  0  0  0  0  0  0  0  0
   38.0270   24.1980   33.4720 O   0  0  0  0  0  0  0  0  0  0  0  0
   38.9310   26.8910   36.8620 H   0  0  0  0  0  0  0  0  0  0  0  0
   37.4360   28.6580   35.8940 H   0  0  0  0  0  0  0  0  0  0  0  0
   36.5660   26.0900   32.6560 H   0  0  0  0  0  0  0  0  0  0  0  0
   42.8520   25.4280   34.5140 C   0  0  1  0  0  3  0  0  0  0  0  0
   41.3210   25.4120   34.3930 C   0  0  2  0  0  3  0  0  0  0  0  0
   41.0140   26.7240   34.6440 O   0  0  0  0  0  0  0  0  0  0  0  0
   41.7590   27.3370   33.6080 C   0  0  0  0  0  2  0  0  0  0  0  0
   43.1510   26.7070   33.7330 C   0  0  1  0  0  3  0  0  0  0  0  0
   43.2580   25.6290   35.8280 O   0  0  0  0  0  0  0  0  0  0  0  0
   42.8310   25.0130   36.4730 H   0  0  0  0  0  0  0  0  0  0  0  0
   43.9820   27.5710   34.4330 O   0  0  0  0  0  0  0  0  0  0  0  0
   44.0840   27.3130   35.3810 H   0  0  0  0  0  0  0  0  0  0  0  0
  1  6  2  0  0  0  0
  1  2  1  0  0  0  0
  2  3  2  0  0  0  0
  3  7  1  0  0  0  0
  3  4  1  0  0  0  0
  5  8  1  0  0  0  0
  5  4  2  0  0  0  0
  6  5  1  0  0  0  0
  9  2  1  0  0  0  0
  9 10  1  0  0  0  0
 10 17  1  0  0  0  0
 11 18  1  0  0  0  0
 11 10  2  0  0  0  0
 12 11  1  0  0  0  0
 13 12  2  0  0  0  0
 14 15  1  0  0  0  0
 14 12  1  0  0  0  0
 15  9  1  0  0  0  0
 16 15  2  0  0  0  0
 19 14  1  0  0  0  0
 20 25  1  1  0  0  0
 21 20  1  0  0  0  0
 21 22  1  0  0  0  0
 21  1  1  1  0  0  0
 23 24  1  0  0  0  0
 23 22  1  0  0  0  0
 24 27  1  1  0  0  0
 24 20  1  0  0  0  0
 25 26  1  0  0  0  0
 27 28  1  0  0  0  0
M  END
>  <minimizedAffinity>
-5.42250204

$$$$

 OpenBabel03272507513D

 28 30  0  0  1  0  0  0  0  0999 V2000
   40.1980   22.2550   35.0960 C   0  0  0  0  0  0  0  0  0  0  0  0
   39.9970   22.0680   33.7170 C   0  0  0  0  0  0  0  0  0  0  0  0
   41.0380   21.4500   33.0060 C   0  0  0  0  0  0  0  0  0  0  0  0
   42.1580   21.0690   33.6520 N   0  0  0  0  0  0  0  0  0  0  0  0
   42.3180   21.2640   34.9840 C   0  0  0  0  0  0  0  0  0  0  0  0
   41.3370   21.8600   35.7150 N   0  0  0  0  0  0  0  0  0  0  0  0
   40.8440   21.3270   31.9540 H   0  0  0  0  0  0  0  0  0  0  0  0
   43.2630   20.9010   35.3260 H   0  0  0  0  0  0  0  0  0  0  0  0
   38.7790   22.5080   33.1470 N   0  0  0  0  0  0  0  0  0  0  0  0
   37.7260   21.6750   32.9940 C   0  0  0  0  0  0  0  0  0  0  0  0
   36.5430   22.1270   32.4370 C   0  0  0  0  0  0  0  0  0  0  0  0
   36.5800   23.4660   32.0800 C   0  0  0  0  0  0  0  0  0  0  0  0
   35.5040   23.9330   31.5570 O   0  0  0  0  0  0  0  0  0  0  0  0
   37.5990   24.3200   32.2150 N   0  0  0  0  0  0  0  0  0  0  0  0
   38.7210   23.7990   32.7690 C   0  0  0  0  0  0  0  0  0  0  0  0
   39.7050   24.5910   32.9090 O   0  0  0  0  0  0  0  0  0  0  0  0
   37.7750   20.6300   33.2970 H   0  0  0  0  0  0  0  0  0  0  0  0
   35.6640   21.5280   32.2820 H   0  0  0  0  0  0  0  0  0  0  0  0
   37.5030   25.3120   31.9050 H   0  0  0  0  0  0  0  0  0  0  0  0
   39.7710   22.9850   37.4280 C   0  0  1  0  0  3  0  0  0  0  0  0
   39.2290   22.8880   35.9940 C   0  0  2  0  0  3  0  0  0  0  0  0
   38.0740   22.1740   36.1860 O   0  0  0  0  0  0  0  0  0  0  0  0
   37.4160   23.0410   37.0910 C   0  0  0  0  0  2  0  0  0  0  0  0
   38.4750   23.3300   38.1610 C   0  0  1  0  0  3  0  0  0  0  0  0
   40.2050   21.7490   37.8930 O   0  0  0  0  0  0  0  0  0  0  0  0
   40.8310   21.2930   37.2800 H   0  0  0  0  0  0  0  0  0  0  0  0
   38.2530   22.5060   39.2570 O   0  0  0  0  0  0  0  0  0  0  0  0
   38.8540   21.7230   39.2690 H   0  0  0  0  0  0  0  0  0  0  0  0
  1  6  1  0  0  0  0
  2  1  2  0  0  0  0
  3  4  2  0  0  0  0
  3  2  1  0  0  0  0
  4  5  1  0  0  0  0
  5  8  1  0  0  0  0
  5  6  2  0  0  0  0
  7  3  1  0  0  0  0
  9  2  1  0  0  0  0
 10  9  1  0  0  0  0
 10 17  1  0  0  0  0
 11 10  2  0  0  0  0
 12 14  1  0  0  0  0
 12 11  1  0  0  0  0
 13 12  2  0  0  0  0
 14 15  1  0  0  0  0
 15 16  2  0  0  0  0
 15  9  1  0  0  0  0
 18 11  1  0  0  0  0
 19 14  1  0  0  0  0
 20 25  1  1  0  0  0
 20 24  1  0  0  0  0
 21  1  1  6  0  0  0
 21 22  1  0  0  0  0
 21 20  1  0  0  0  0
 22 23  1  0  0  0  0
 23 24  1  0  0  0  0
 24 27  1  1  0  0  0
 26 25  1  0  0  0  0
 27 28  1  0  0  0  0
M  END
>  <minimizedAffinity>
-5.25090837

$$$$

 OpenBabel03272507513D

 28 30  0  0  1  0  0  0  0  0999 V2000
   38.1880   24.1860   33.4950 C   0  0  0  0  0  0  0  0  0  0  0  0
   38.3060   22.8150   33.7890 C   0  0  0  0  0  0  0  0  0  0  0  0
   37.4480   21.9450   33.0970 C   0  0  0  0  0  0  0  0  0  0  0  0
   36.5700   22.4410   32.2020 N   0  0  0  0  0  0  0  0  0  0  0  0
   36.4840   23.7690   31.9420 C   0  0  0  0  0  0  0  0  0  0  0  0
   37.2940   24.6510   32.5890 N   0  0  0  0  0  0  0  0  0  0  0  0
   37.5700   20.9070   33.3510 H   0  0  0  0  0  0  0  0  0  0  0  0
   35.7360   23.9800   31.2080 H   0  0  0  0  0  0  0  0  0  0  0  0
   39.2660   22.4120   34.7470 N   0  0  0  0  0  0  0  0  0  0  0  0
   40.5580   22.2040   34.4110 C   0  0  0  0  0  0  0  0  0  0  0  0
   41.4810   21.8110   35.3650 C   0  0  0  0  0  0  0  0  0  0  0  0
   40.9360   21.6700   36.6310 C   0  0  0  0  0  0  0  0  0  0  0  0
   41.7540   21.3070   37.5520 O   0  0  0  0  0  0  0  0  0  0  0  0
   39.6670   21.8660   37.0020 N   0  0  0  0  0  0  0  0  0  0  0  0
   38.8270   22.2480   36.0090 C   0  0  0  0  0  0  0  0  0  0  0  0
   37.6140   22.4420   36.3350 O   0  0  0  0  0  0  0  0  0  0  0  0
   40.9120   22.3320   33.3900 H   0  0  0  0  0  0  0  0  0  0  0  0
   42.5230   21.6260   35.1780 H   0  0  0  0  0  0  0  0  0  0  0  0
   39.3770   21.7260   37.9940 H   0  0  0  0  0  0  0  0  0  0  0  0
   38.3670   25.7050   35.4470 C   0  0  1  0  0  3  0  0  0  0  0  0
   38.9910   25.2370   34.1230 C   0  0  2  0  0  3  0  0  0  0  0  0
   39.0490   26.4120   33.4190 O   0  0  0  0  0  0  0  0  0  0  0  0
   39.8520   27.1710   34.3040 C   0  0  0  0  0  2  0  0  0  0  0  0
   39.1790   26.9810   35.6680 C   0  0  1  0  0  3  0  0  0  0  0  0
   37.0370   26.0720   35.2830 O   0  0  0  0  0  0  0  0  0  0  0  0
   36.4910   25.3870   34.8250 H   0  0  0  0  0  0  0  0  0  0  0  0
   38.3730   28.0790   35.9370 O   0  0  0  0  0  0  0  0  0  0  0  0
   37.4200   27.9030   35.7510 H   0  0  0  0  0  0  0  0  0  0  0  0
  1  2  1  0  0  0  0
  2  9  1  0  0  0  0
  3  7  1  0  0  0  0
  3  2  2  0  0  0  0
  4  3  1  0  0  0  0
  5  4  2  0  0  0  0
  5  6  1  0  0  0  0
  6  1  2  0  0  0  0
  8  5  1  0  0  0  0
  9 15  1  0  0  0  0
 10  9  1  0  0  0  0
 10 11  2  0  0  0  0
 11 12  1  0  0  0  0
 12 14  1  0  0  0  0
 12 13  2  0  0  0  0
 14 19  1  0  0  0  0
 15 16  2  0  0  0  0
 15 14  1  0  0  0  0
 17 10  1  0  0  0  0
 18 11  1  0  0  0  0
 20 25  1  6  0  0  0
 20 24  1  0  0  0  0
 21  1  1  6  0  0  0
 21 20  1  0  0  0  0
 22 21  1  0  0  0  0
 22 23  1  0  0  0  0
 23 24  1  0  0  0  0
 24 27  1  6  0  0  0
 26 25  1  0  0  0  0
 28 27  1  0  0  0  0
M  END
>  <minimizedAffinity>
-5.2323432

$$$$

 OpenBabel03272507513D

 28 30  0  0  1  0  0  0  0  0999 V2000
   37.8040   25.6150   34.0420 C   0  0  0  0  0  0  0  0  0  0  0  0
   38.4760   25.6520   35.2770 C   0  0  0  0  0  0  0  0  0  0  0  0
   38.3460   26.8300   36.0310 C   0  0  0  0  0  0  0  0  0  0  0  0
   37.6030   27.8500   35.5580 N   0  0  0  0  0  0  0  0  0  0  0  0
   36.9670   27.7800   34.3630 C   0  0  0  0  0  0  0  0  0  0  0  0
   37.0650   26.6590   33.5960 N   0  0  0  0  0  0  0  0  0  0  0  0
   38.8760   26.8180   36.9670 H   0  0  0  0  0  0  0  0  0  0  0  0
   36.4260   28.6760   34.1480 H   0  0  0  0  0  0  0  0  0  0  0  0
   39.2270   24.5190   35.6710 N   0  0  0  0  0  0  0  0  0  0  0  0
   40.5040   24.3410   35.2690 C   0  0  0  0  0  0  0  0  0  0  0  0
   41.2210   23.2260   35.6690 C   0  0  0  0  0  0  0  0  0  0  0  0
   40.4970   22.3720   36.4850 C   0  0  0  0  0  0  0  0  0  0  0  0
   41.1200   21.3210   36.8830 O   0  0  0  0  0  0  0  0  0  0  0  0
   39.2360   22.5130   36.9030 N   0  0  0  0  0  0  0  0  0  0  0  0
   38.6040   23.6310   36.4680 C   0  0  0  0  0  0  0  0  0  0  0  0
   37.4030   23.7890   36.8510 O   0  0  0  0  0  0  0  0  0  0  0  0
   41.0060   25.0580   34.6210 H   0  0  0  0  0  0  0  0  0  0  0  0
   42.2380   23.0130   35.3920 H   0  0  0  0  0  0  0  0  0  0  0  0
   38.7990   21.7950   37.5210 H   0  0  0  0  0  0  0  0  0  0  0  0
   38.8350   24.7040   31.9790 C   0  0  1  0  0  3  0  0  0  0  0  0
   37.8330   24.4770   33.1200 C   0  0  2  0  0  3  0  0  0  0  0  0
   36.6700   24.2730   32.4250 O   0  0  0  0  0  0  0  0  0  0  0  0
   37.0590   23.1560   31.6470 C   0  0  0  0  0  2  0  0  0  0  0  0
   38.4000   23.5820   31.0380 C   0  0  1  0  0  3  0  0  0  0  0  0
   38.6060   25.9130   31.3320 O   0  0  0  0  0  0  0  0  0  0  0  0
   38.5470   26.6850   31.9450 H   0  0  0  0  0  0  0  0  0  0  0  0
   38.1900   24.0320   29.7410 O   0  0  0  0  0  0  0  0  0  0  0  0
   38.1650   25.0170   29.6810 H   0  0  0  0  0  0  0  0  0  0  0  0
  1  2  1  0  0  0  0
  2  9  1  0  0  0  0
  2  3  2  0  0  0  0
  3  7  1  0  0  0  0
  4  3  1  0  0  0  0
  5  4  2  0  0  0  0
  6  1  2  0  0  0  0
  6  5  1  0  0  0  0
  8  5  1  0  0  0  0
  9 15  1  0  0  0  0
 10 11  2  0  0  0  0
 10  9  1  0  0  0  0
 11 12  1  0  0  0  0
 12 13  2  0  0  0  0
 12 14  1  0  0  0  0
 14 19  1  0  0  0  0
 15 16  2  0  0  0  0
 15 14  1  0  0  0  0
 17 10  1  0  0  0  0
 18 11  1  0  0  0  0
 20 25  1  6  0  0  0
 20 21  1  0  0  0  0
 21  1  1  1  0  0  0
 22 21  1  0  0  0  0
 23 22  1  0  0  0  0
 24 27  1  6  0  0  0
 24 23  1  0  0  0  0
 24 20  1  0  0  0  0
 25 26  1  0  0  0  0
 28 27  1  0  0  0  0
M  END
>  <minimizedAffinity>
-5.14374256

$$$$

 OpenBabel03272507513D

 28 30  0  0  1  0  0  0  0  0999 V2000
   39.8910   23.9100   35.8040 C   0  0  0  0  0  0  0  0  0  0  0  0
   40.2070   25.0920   35.1110 C   0  0  0  0  0  0  0  0  0  0  0  0
   41.5570   25.2850   34.7750 C   0  0  0  0  0  0  0  0  0  0  0  0
   42.4730   24.3570   35.1190 N   0  0  0  0  0  0  0  0  0  0  0  0
   42.1320   23.2280   35.7870 C   0  0  0  0  0  0  0  0  0  0  0  0
   40.8370   22.9970   36.1350 N   0  0  0  0  0  0  0  0  0  0  0  0
   41.7560   26.2010   34.2470 H   0  0  0  0  0  0  0  0  0  0  0  0
   42.9830   22.6080   35.9760 H   0  0  0  0  0  0  0  0  0  0  0  0
   39.1610   25.9930   34.8020 N   0  0  0  0  0  0  0  0  0  0  0  0
   38.7850   26.9650   35.6630 C   0  0  0  0  0  0  0  0  0  0  0  0
   37.7600   27.8370   35.3390 C   0  0  0  0  0  0  0  0  0  0  0  0
   37.2070   27.5950   34.0920 C   0  0  0  0  0  0  0  0  0  0  0  0
   36.2510   28.3800   33.7460 O   0  0  0  0  0  0  0  0  0  0  0  0
   37.5500   26.6480   33.2150 N   0  0  0  0  0  0  0  0  0  0  0  0
   38.5610   25.8350   33.6070 C   0  0  0  0  0  0  0  0  0  0  0  0
   38.9070   24.9240   32.7910 O   0  0  0  0  0  0  0  0  0  0  0  0
   39.2680   27.0900   36.6310 H   0  0  0  0  0  0  0  0  0  0  0  0
   37.4050   28.6330   35.9680 H   0  0  0  0  0  0  0  0  0  0  0  0
   37.0530   26.5670   32.3010 H   0  0  0  0  0  0  0  0  0  0  0  0
   38.3440   23.8200   37.7410 C   0  0  1  0  0  3  0  0  0  0  0  0
   38.5420   23.5450   36.2420 C   0  0  2  0  0  3  0  0  0  0  0  0
   38.2580   22.2060   36.1720 O   0  0  0  0  0  0  0  0  0  0  0  0
   36.9370   22.2230   36.6780 C   0  0  0  0  0  2  0  0  0  0  0  0
   37.0470   23.0450   37.9680 C   0  0  1  0  0  3  0  0  0  0  0  0
   39.3370   23.2190   38.5050 O   0  0  0  0  0  0  0  0  0  0  0  0
   40.2530   23.4260   38.1980 H   0  0  0  0  0  0  0  0  0  0  0  0
   37.1310   22.1820   39.0530 O   0  0  0  0  0  0  0  0  0  0  0  0
   38.0570   22.0670   39.3740 H   0  0  0  0  0  0  0  0  0  0  0  0
  1  6  1  0  0  0  0
  2  1  2  0  0  0  0
  3  2  1  0  0  0  0
  3  4  2  0  0  0  0
  4  5  1  0  0  0  0
  5  8  1  0  0  0  0
  5  6  2  0  0  0  0
  7  3  1  0  0  0  0
  9  2  1  0  0  0  0
  9 10  1  0  0  0  0
 10 17  1  0  0  0  0
 11 10  2  0  0  0  0
 11 18  1  0  0  0  0
 12 11  1  0  0  0  0
 13 12  2  0  0  0  0
 14 15  1  0  0  0  0
 14 12  1  0  0  0  0
 15  9  1  0  0  0  0
 16 15  2  0  0  0  0
 19 14  1  0  0  0  0
 20 24  1  0  0  0  0
 20 25  1  1  0  0  0
 21  1  1  1  0  0  0
 21 20  1  0  0  0  0
 22 21  1  0  0  0  0
 22 23  1  0  0  0  0
 23 24  1  0  0  0  0
 24 27  1  1  0  0  0
 26 25  1  0  0  0  0
 27 28  1  0  0  0  0
M  END
>  <minimizedAffinity>
-5.05017042

$$$$

 OpenBabel03272507513D

 28 30  0  0  1  0  0  0  0  0999 V2000
   39.7120   25.1350   34.9600 C   0  0  0  0  0  0  0  0  0  0  0  0
   39.8680   23.7880   35.3340 C   0  0  0  0  0  0  0  0  0  0  0  0
   41.1850   23.3270   35.4940 C   0  0  0  0  0  0  0  0  0  0  0  0
   42.2190   24.1680   35.2910 N   0  0  0  0  0  0  0  0  0  0  0  0
   42.0320   25.4620   34.9320 C   0  0  0  0  0  0  0  0  0  0  0  0
   40.7740   25.9530   34.7630 N   0  0  0  0  0  0  0  0  0  0  0  0
   41.2610   22.2930   35.7800 H   0  0  0  0  0  0  0  0  0  0  0  0
   42.9600   25.9780   34.8140 H   0  0  0  0  0  0  0  0  0  0  0  0
   38.7080   23.0010   35.5210 N   0  0  0  0  0  0  0  0  0  0  0  0
   38.1640   22.2900   34.5090 C   0  0  0  0  0  0  0  0  0  0  0  0
   37.0290   21.5240   34.7150 C   0  0  0  0  0  0  0  0  0  0  0  0
   36.5570   21.5810   36.0170 C   0  0  0  0  0  0  0  0  0  0  0  0
   35.5040   20.8860   36.2580 O   0  0  0  0  0  0  0  0  0  0  0  0
   37.0660   22.2710   37.0420 N   0  0  0  0  0  0  0  0  0  0  0  0
   38.1760   22.9950   36.7580 C   0  0  0  0  0  0  0  0  0  0  0  0
   38.6800   23.6600   37.7150 O   0  0  0  0  0  0  0  0  0  0  0  0
   38.5920   22.2980   33.5080 H   0  0  0  0  0  0  0  0  0  0  0  0
   36.5380   20.9320   33.9640 H   0  0  0  0  0  0  0  0  0  0  0  0
   36.6150   22.2320   37.9820 H   0  0  0  0  0  0  0  0  0  0  0  0
   38.0790   25.8680   33.2430 C   0  0  1  0  0  3  0  0  0  0  0  0
   38.4180   25.7860   34.7390 C   0  0  2  0  0  3  0  0  0  0  0  0
   38.3710   27.1070   35.1020 O   0  0  0  0  0  0  0  0  0  0  0  0
   37.0350   27.3980   34.7360 C   0  0  0  0  0  2  0  0  0  0  0  0
   36.9200   26.8620   33.3040 C   0  0  1  0  0  3  0  0  0  0  0  0
   39.1070   26.4600   32.5190 O   0  0  0  0  0  0  0  0  0  0  0  0
   39.9930   26.0560   32.6860 H   0  0  0  0  0  0  0  0  0  0  0  0
   37.0780   27.9130   32.4100 O   0  0  0  0  0  0  0  0  0  0  0  0
   37.9870   27.9510   32.0270 H   0  0  0  0  0  0  0  0  0  0  0  0
  1  2  1  0  0  0  0
  2  3  2  0  0  0  0
  2  9  1  0  0  0  0
  3  7  1  0  0  0  0
  4  3  1  0  0  0  0
  5  4  2  0  0  0  0
  6  5  1  0  0  0  0
  6  1  2  0  0  0  0
  8  5  1  0  0  0  0
  9 15  1  0  0  0  0
 10 11  2  0  0  0  0
 10  9  1  0  0  0  0
 11 12  1  0  0  0  0
 12 13  2  0  0  0  0
 12 14  1  0  0  0  0
 14 19  1  0  0  0  0
 15 14  1  0  0  0  0
 15 16  2  0  0  0  0
 17 10  1  0  0  0  0
 18 11  1  0  0  0  0
 20 25  1  6  0  0  0
 20 24  1  0  0  0  0
 20 21  1  0  0  0  0
 21  1  1  6  0  0  0
 21 22  1  0  0  0  0
 23 22  1  0  0  0  0
 24 27  1  6  0  0  0
 24 23  1  0  0  0  0
 25 26  1  0  0  0  0
 28 27  1  0  0  0  0
M  END
>  <minimizedAffinity>
-4.89790678

$$$$

 OpenBabel03272507513D

 28 30  0  0  1  0  0  0  0  0999 V2000
   39.1360   26.6230   32.3890 C   0  0  0  0  0  0  0  0  0  0  0  0
   39.8930   25.9760   33.3830 C   0  0  0  0  0  0  0  0  0  0  0  0
   41.2900   26.0420   33.2540 C   0  0  0  0  0  0  0  0  0  0  0  0
   41.8370   26.7030   32.2150 N   0  0  0  0  0  0  0  0  0  0  0  0
   41.0760   27.3180   31.2750 C   0  0  0  0  0  0  0  0  0  0  0  0
   39.7180   27.2800   31.3570 N   0  0  0  0  0  0  0  0  0  0  0  0
   41.8310   25.5340   34.0330 H   0  0  0  0  0  0  0  0  0  0  0  0
   41.6760   27.7920   30.5280 H   0  0  0  0  0  0  0  0  0  0  0  0
   39.2080   25.3130   34.4280 N   0  0  0  0  0  0  0  0  0  0  0  0
   38.8940   24.0010   34.3490 C   0  0  0  0  0  0  0  0  0  0  0  0
   38.2250   23.3720   35.3850 C   0  0  0  0  0  0  0  0  0  0  0  0
   37.9400   24.2150   36.4470 C   0  0  0  0  0  0  0  0  0  0  0  0
   37.3200   23.6760   37.4340 O   0  0  0  0  0  0  0  0  0  0  0  0
   38.2340   25.5130   36.5620 N   0  0  0  0  0  0  0  0  0  0  0  0
   38.8880   26.0540   35.5050 C   0  0  0  0  0  0  0  0  0  0  0  0
   39.1800   27.2880   35.5890 O   0  0  0  0  0  0  0  0  0  0  0  0
   39.1490   23.4030   33.4760 H   0  0  0  0  0  0  0  0  0  0  0  0
   37.9410   22.3350   35.3980 H   0  0  0  0  0  0  0  0  0  0  0  0
   37.9640   26.0430   37.4190 H   0  0  0  0  0  0  0  0  0  0  0  0
   37.1060   25.4930   31.5210 C   0  0  1  0  0  3  0  0  0  0  0  0
   37.6720   26.6520   32.3550 C   0  0  2  0  0  3  0  0  0  0  0  0
   37.1350   27.7370   31.7130 O   0  0  0  0  0  0  0  0  0  0  0  0
   35.7600   27.4270   31.8480 C   0  0  0  0  0  2  0  0  0  0  0  0
   35.6630   25.9730   31.3740 C   0  0  1  0  0  3  0  0  0  0  0  0
   37.6710   25.4550   30.2520 O   0  0  0  0  0  0  0  0  0  0  0  0
   38.6600   25.4730   30.2580 H   0  0  0  0  0  0  0  0  0  0  0  0
   35.2310   25.9500   30.0550 O   0  0  0  0  0  0  0  0  0  0  0  0
   35.9720   25.8180   29.4160 H   0  0  0  0  0  0  0  0  0  0  0  0
  1  2  1  0  0  0  0
  2  9  1  0  0  0  0
  3  2  2  0  0  0  0
  3  7  1  0  0  0  0
  4  3  1  0  0  0  0
  5  6  1  0  0  0  0
  5  4  2  0  0  0  0
  6  1  2  0  0  0  0
  8  5  1  0  0  0  0
  9 15  1  0  0  0  0
 10  9  1  0  0  0  0
 10 11  2  0  0  0  0
 11 18  1  0  0  0  0
 11 12  1  0  0  0  0
 12 14  1  0  0  0  0
 12 13  2  0  0  0  0
 14 19  1  0  0  0  0
 15 16  2  0  0  0  0
 15 14  1  0  0  0  0
 17 10  1  0  0  0  0
 20 25  1  6  0  0  0
 20 21  1  0  0  0  0
 21  1  1  6  0  0  0
 22 23  1  0  0  0  0
 22 21  1  0  0  0  0
 24 27  1  6  0  0  0
 24 20  1  0  0  0  0
 24 23  1  0  0  0  0
 25 26  1  0  0  0  0
 28 27  1  0  0  0  0
M  END
>  <minimizedAffinity>
-4.88774681

$$$$

 OpenBabel03272507513D

 28 30  0  0  1  0  0  0  0  0999 V2000
   39.5700   25.2810   34.2260 C   0  0  0  0  0  0  0  0  0  0  0  0
   39.2290   25.3740   32.8640 C   0  0  0  0  0  0  0  0  0  0  0  0
   39.8700   26.3780   32.1210 C   0  0  0  0  0  0  0  0  0  0  0  0
   40.7630   27.1900   32.7210 N   0  0  0  0  0  0  0  0  0  0  0  0
   41.0690   27.0710   34.0370 C   0  0  0  0  0  0  0  0  0  0  0  0
   40.4720   26.1140   34.7980 N   0  0  0  0  0  0  0  0  0  0  0  0
   39.5810   26.4150   31.0850 H   0  0  0  0  0  0  0  0  0  0  0  0
   41.7940   27.7950   34.3410 H   0  0  0  0  0  0  0  0  0  0  0  0
   38.2780   24.4650   32.3430 N   0  0  0  0  0  0  0  0  0  0  0  0
   38.6370   23.2380   31.9040 C   0  0  0  0  0  0  0  0  0  0  0  0
   37.6900   22.3640   31.4000 C   0  0  0  0  0  0  0  0  0  0  0  0
   36.4050   22.8820   31.4070 C   0  0  0  0  0  0  0  0  0  0  0  0
   35.4890   22.1070   30.9490 O   0  0  0  0  0  0  0  0  0  0  0  0
   36.0110   24.0860   31.8330 N   0  0  0  0  0  0  0  0  0  0  0  0
   36.9990   24.8830   32.3110 C   0  0  0  0  0  0  0  0  0  0  0  0
   36.6510   26.0340   32.7210 O   0  0  0  0  0  0  0  0  0  0  0  0
   39.6720   22.9020   31.9270 H   0  0  0  0  0  0  0  0  0  0  0  0
   37.8950   21.3750   31.0330 H   0  0  0  0  0  0  0  0  0  0  0  0
   35.0060   24.3620   31.7850 H   0  0  0  0  0  0  0  0  0  0  0  0
   37.8740   24.9230   36.0000 C   0  0  1  0  0  3  0  0  0  0  0  0
   38.9980   24.3040   35.1550 C   0  0  2  0  0  3  0  0  0  0  0  0
   39.8590   23.8640   36.1270 O   0  0  0  0  0  0  0  0  0  0  0  0
   38.9910   22.9910   36.8260 C   0  0  0  0  0  2  0  0  0  0  0  0
   37.7330   23.8350   37.0630 C   0  0  1  0  0  3  0  0  0  0  0  0
   38.2950   26.0850   36.6350 O   0  0  0  0  0  0  0  0  0  0  0  0
   38.7180   26.7390   36.0260 H   0  0  0  0  0  0  0  0  0  0  0  0
   37.7650   24.3500   38.3530 O   0  0  0  0  0  0  0  0  0  0  0  0
   38.0640   25.2900   38.3780 H   0  0  0  0  0  0  0  0  0  0  0  0
  1  6  1  0  0  0  0
  2  1  2  0  0  0  0
  3  4  2  0  0  0  0
  3  2  1  0  0  0  0
  4  5  1  0  0  0  0
  5  8  1  0  0  0  0
  5  6  2  0  0  0  0
  7  3  1  0  0  0  0
  9  2  1  0  0  0  0
 10 17  1  0  0  0  0
 10  9  1  0  0  0  0
 11 12  1  0  0  0  0
 11 10  2  0  0  0  0
 12 14  1  0  0  0  0
 13 12  2  0  0  0  0
 14 15  1  0  0  0  0
 15  9  1  0  0  0  0
 15 16  2  0  0  0  0
 18 11  1  0  0  0  0
 19 14  1  0  0  0  0
 20 25  1  1  0  0  0
 20 24  1  0  0  0  0
 21  1  1  6  0  0  0
 21 20  1  0  0  0  0
 21 22  1  0  0  0  0
 22 23  1  0  0  0  0
 23 24  1  0  0  0  0
 24 27  1  1  0  0  0
 26 25  1  0  0  0  0
 27 28  1  0  0  0  0
M  END
>  <minimizedAffinity>
-4.85976744

$$$$

 OpenBabel03272507513D

 28 30  0  0  1  0  0  0  0  0999 V2000
   39.4840   24.8840   32.9460 C   0  0  0  0  0  0  0  0  0  0  0  0
   38.2720   24.4550   33.5170 C   0  0  0  0  0  0  0  0  0  0  0  0
   37.1620   24.3820   32.6590 C   0  0  0  0  0  0  0  0  0  0  0  0
   37.2960   24.7150   31.3590 N   0  0  0  0  0  0  0  0  0  0  0  0
   38.4810   25.1240   30.8420 C   0  0  0  0  0  0  0  0  0  0  0  0
   39.5840   25.2110   31.6350 N   0  0  0  0  0  0  0  0  0  0  0  0
   36.2560   24.0510   33.1340 H   0  0  0  0  0  0  0  0  0  0  0  0
   38.4030   25.3450   29.8000 H   0  0  0  0  0  0  0  0  0  0  0  0
   38.2520   24.1310   34.8930 N   0  0  0  0  0  0  0  0  0  0  0  0
   37.9940   25.0630   35.8370 C   0  0  0  0  0  0  0  0  0  0  0  0
   37.9770   24.7230   37.1790 C   0  0  0  0  0  0  0  0  0  0  0  0
   38.2420   23.3820   37.4090 C   0  0  0  0  0  0  0  0  0  0  0  0
   38.2370   23.0180   38.6410 O   0  0  0  0  0  0  0  0  0  0  0  0
   38.5010   22.4330   36.5050 N   0  0  0  0  0  0  0  0  0  0  0  0
   38.5000   22.8470   35.2150 C   0  0  0  0  0  0  0  0  0  0  0  0
   38.7430   21.9630   34.3350 O   0  0  0  0  0  0  0  0  0  0  0  0
   37.7980   26.1010   35.5770 H   0  0  0  0  0  0  0  0  0  0  0  0
   37.7800   25.4040   37.9870 H   0  0  0  0  0  0  0  0  0  0  0  0
   38.6870   21.4510   36.8060 H   0  0  0  0  0  0  0  0  0  0  0  0
   40.9010   26.4500   34.2460 C   0  0  1  0  0  3  0  0  0  0  0  0
   40.7390   25.0290   33.6870 C   0  0  2  0  0  3  0  0  0  0  0  0
   41.8720   24.9050   32.9250 O   0  0  0  0  0  0  0  0  0  0  0  0
   42.8480   25.1200   33.9280 C   0  0  0  0  0  2  0  0  0  0  0  0
   42.3800   26.4010   34.6280 C   0  0  1  0  0  3  0  0  0  0  0  0
   40.7520   27.4090   33.2510 O   0  0  0  0  0  0  0  0  0  0  0  0
   39.9270   27.3020   32.7170 H   0  0  0  0  0  0  0  0  0  0  0  0
   43.0910   27.4830   34.1250 O   0  0  0  0  0  0  0  0  0  0  0  0
   42.5790   27.9930   33.4530 H   0  0  0  0  0  0  0  0  0  0  0  0
  1  2  1  0  0  0  0
  2  9  1  0  0  0  0
  3  7  1  0  0  0  0
  3  2  2  0  0  0  0
  4  3  1  0  0  0  0
  5  4  2  0  0  0  0
  5  6  1  0  0  0  0
  6  1  2  0  0  0  0
  8  5  1  0  0  0  0
  9 15  1  0  0  0  0
  9 10  1  0  0  0  0
 10 11  2  0  0  0  0
 11 12  1  0  0  0  0
 11 18  1  0  0  0  0
 12 13  2  0  0  0  0
 14 19  1  0  0  0  0
 14 12  1  0  0  0  0
 15 14  1  0  0  0  0
 16 15  2  0  0  0  0
 17 10  1  0  0  0  0
 20 25  1  6  0  0  0
 20 24  1  0  0  0  0
 21  1  1  6  0  0  0
 21 20  1  0  0  0  0
 22 21  1  0  0  0  0
 22 23  1  0  0  0  0
 23 24  1  0  0  0  0
 24 27  1  6  0  0  0
 26 25  1  0  0  0  0
 28 27  1  0  0  0  0
M  END
>  <minimizedAffinity>
-4.79332399

$$$$
