
 OpenBabel03272507113D

 27 29  0  0  1  0  0  0  0  0999 V2000
   37.7610   24.0360   32.8960 C   0  0  0  0  0  0  0  0  0  0  0  0
   38.4730   25.2000   32.7990 C   0  0  0  0  0  0  0  0  0  0  0  0
   38.9280   25.5020   34.0900 C   0  0  0  0  0  0  0  0  0  0  0  0
   38.4470   24.4720   34.9010 C   0  0  0  0  0  0  0  0  0  0  0  0
   37.7710   23.6410   34.1510 O   0  0  0  0  0  0  0  0  0  0  0  0
   38.7260   25.8680   31.9840 H   0  0  0  0  0  0  0  0  0  0  0  0
   39.5200   26.2980   34.5360 H   0  0  0  0  0  0  0  0  0  0  0  0
   37.7290   23.0180   36.8060 C   0  0  2  0  0  3  0  0  0  0  0  0
   38.5630   24.1900   36.3300 C   0  0  2  0  0  3  0  0  0  0  0  0
   38.0880   25.2150   37.1470 O   0  0  0  0  0  0  0  0  0  0  0  0
   38.0480   24.6880   38.4120 C   0  0  0  0  0  2  0  0  0  0  0  0
   37.9380   23.1870   38.3130 C   0  0  2  0  0  3  0  0  0  0  0  0
   38.3760   21.8760   36.3430 O   0  0  0  0  0  0  0  0  0  0  0  0
   38.3530   21.9280   35.3500 H   0  0  0  0  0  0  0  0  0  0  0  0
   39.2080   22.6380   38.5800 O   0  0  0  0  0  0  0  0  0  0  0  0
   39.8790   23.3660   38.7740 H   0  0  0  0  0  0  0  0  0  0  0  0
   37.1340   23.4160   31.7360 C   0  0  0  0  0  0  0  0  0  0  0  0
   37.0230   24.0770   30.6880 O   0  0  0  0  0  0  0  0  0  0  0  0
   36.6760   22.0520   31.8790 C   0  0  0  0  0  0  0  0  0  0  0  0
   35.3070   21.8670   32.0550 C   0  0  0  0  0  0  0  0  0  0  0  0
   34.8360   20.5600   32.1960 C   0  0  0  0  0  0  0  0  0  0  0  0
   35.7360   19.5380   32.1560 N   0  0  0  0  0  0  0  0  0  0  0  0
   37.0550   19.7430   31.9850 C   0  0  0  0  0  0  0  0  0  0  0  0
   37.5250   21.0000   31.8470 N   0  0  0  0  0  0  0  0  0  0  0  0
   34.5520   22.6140   32.0960 H   0  0  0  0  0  0  0  0  0  0  0  0
   33.7730   20.3480   32.3370 H   0  0  0  0  0  0  0  0  0  0  0  0
   37.7850   18.9490   31.9500 H   0  0  0  0  0  0  0  0  0  0  0  0
  1  5  1  0  0  0  0
  2  1  2  0  0  0  0
  2  3  1  0  0  0  0
  3  7  1  0  0  0  0
  3  4  2  0  0  0  0
  5  4  1  0  0  0  0
  6  2  1  0  0  0  0
  8 13  1  6  0  0  0
  8 12  1  0  0  0  0
  9  4  1  6  0  0  0
  9  8  1  0  0  0  0
  9 10  1  0  0  0  0
 10 11  1  0  0  0  0
 12 11  1  0  0  0  0
 12 15  1  6  0  0  0
 14 13  1  0  0  0  0
 15 16  1  0  0  0  0
 17 19  1  0  0  0  0
 17  1  1  0  0  0  0
 18 17  2  0  0  0  0
 19 20  1  0  0  0  0
 20 25  1  0  0  0  0
 20 21  2  0  0  0  0
 21 26  1  0  0  0  0
 22 21  1  0  0  0  0
 23 22  2  0  0  0  0
 24 19  2  0  0  0  0
 24 23  1  0  0  0  0
 27 23  1  0  0  0  0
M  END
>  <minimizedAffinity>
-5.38547516

$$$$

 OpenBabel03272507113D

 27 29  0  0  1  0  0  0  0  0999 V2000
   37.9250   25.4990   35.7600 C   0  0  0  0  0  0  0  0  0  0  0  0
   38.3070   26.7120   36.2640 C   0  0  0  0  0  0  0  0  0  0  0  0
   37.9740   27.6720   35.2970 C   0  0  0  0  0  0  0  0  0  0  0  0
   37.3990   26.9530   34.2470 C   0  0  0  0  0  0  0  0  0  0  0  0
   37.3950   25.6870   34.5710 O   0  0  0  0  0  0  0  0  0  0  0  0
   38.7750   27.0370   37.1860 H   0  0  0  0  0  0  0  0  0  0  0  0
   38.0670   28.7530   35.2140 H   0  0  0  0  0  0  0  0  0  0  0  0
   37.8170   27.2360   31.7970 C   0  0  2  0  0  3  0  0  0  0  0  0
   36.8450   27.3480   32.9540 C   0  0  2  0  0  3  0  0  0  0  0  0
   36.4850   28.6920   32.8820 O   0  0  0  0  0  0  0  0  0  0  0  0
   36.2260   28.9320   31.5560 C   0  0  0  0  0  2  0  0  0  0  0  0
   36.9710   27.9220   30.7210 C   0  0  2  0  0  3  0  0  0  0  0  0
   37.9420   25.8750   31.5330 O   0  0  0  0  0  0  0  0  0  0  0  0
   38.3400   25.4710   32.3500 H   0  0  0  0  0  0  0  0  0  0  0  0
   36.0500   26.9470   30.2900 O   0  0  0  0  0  0  0  0  0  0  0  0
   35.1240   27.1530   30.6340 H   0  0  0  0  0  0  0  0  0  0  0  0
   38.1190   24.2610   36.5020 C   0  0  0  0  0  0  0  0  0  0  0  0
   37.1920   23.8330   37.2120 O   0  0  0  0  0  0  0  0  0  0  0  0
   39.3970   23.5990   36.3630 C   0  0  0  0  0  0  0  0  0  0  0  0
   39.8150   22.8140   37.4350 C   0  0  0  0  0  0  0  0  0  0  0  0
   41.0450   22.1620   37.3290 C   0  0  0  0  0  0  0  0  0  0  0  0
   41.7710   22.3270   36.1870 N   0  0  0  0  0  0  0  0  0  0  0  0
   41.3440   23.0900   35.1650 C   0  0  0  0  0  0  0  0  0  0  0  0
   40.1580   23.7260   35.2520 N   0  0  0  0  0  0  0  0  0  0  0  0
   39.3040   22.6420   38.3510 H   0  0  0  0  0  0  0  0  0  0  0  0
   41.4300   21.5320   38.1350 H   0  0  0  0  0  0  0  0  0  0  0  0
   41.9020   23.2350   34.2510 H   0  0  0  0  0  0  0  0  0  0  0  0
  1  2  2  0  0  0  0
  1 17  1  0  0  0  0
  2  6  1  0  0  0  0
  3  2  1  0  0  0  0
  4  5  1  0  0  0  0
  4  3  2  0  0  0  0
  5  1  1  0  0  0  0
  7  3  1  0  0  0  0
  8 13  1  6  0  0  0
  8  9  1  0  0  0  0
  9  4  1  1  0  0  0
 10  9  1  0  0  0  0
 11 10  1  0  0  0  0
 12 15  1  1  0  0  0
 12 11  1  0  0  0  0
 12  8  1  0  0  0  0
 13 14  1  0  0  0  0
 15 16  1  0  0  0  0
 17 18  2  0  0  0  0
 19 17  1  0  0  0  0
 19 20  1  0  0  0  0
 20 25  1  0  0  0  0
 21 20  2  0  0  0  0
 21 26  1  0  0  0  0
 22 21  1  0  0  0  0
 23 24  1  0  0  0  0
 23 22  2  0  0  0  0
 24 19  2  0  0  0  0
 27 23  1  0  0  0  0
M  END
>  <minimizedAffinity>
-5.33948994

$$$$

 OpenBabel03272507113D

 27 29  0  0  1  0  0  0  0  0999 V2000
   37.6150   25.2180   33.1590 C   0  0  0  0  0  0  0  0  0  0  0  0
   38.9350   25.0910   32.8260 C   0  0  0  0  0  0  0  0  0  0  0  0
   39.6090   24.7030   33.9930 C   0  0  0  0  0  0  0  0  0  0  0  0
   38.6230   24.6210   34.9780 C   0  0  0  0  0  0  0  0  0  0  0  0
   37.4750   24.9320   34.4360 O   0  0  0  0  0  0  0  0  0  0  0  0
   39.5020   25.2220   31.9120 H   0  0  0  0  0  0  0  0  0  0  0  0
   40.6410   24.4770   34.2530 H   0  0  0  0  0  0  0  0  0  0  0  0
   37.8250   23.0610   36.7640 C   0  0  2  0  0  3  0  0  0  0  0  0
   38.6570   24.2730   36.3960 C   0  0  2  0  0  3  0  0  0  0  0  0
   38.1060   25.2470   37.2280 O   0  0  0  0  0  0  0  0  0  0  0  0
   38.0000   24.6580   38.4620 C   0  0  0  0  0  2  0  0  0  0  0  0
   37.9350   23.1620   38.2870 C   0  0  2  0  0  3  0  0  0  0  0  0
   38.5290   21.9580   36.2900 O   0  0  0  0  0  0  0  0  0  0  0  0
   38.5660   22.0560   35.3010 H   0  0  0  0  0  0  0  0  0  0  0  0
   39.2000   22.6290   38.6080 O   0  0  0  0  0  0  0  0  0  0  0  0
   39.8380   23.3630   38.8780 H   0  0  0  0  0  0  0  0  0  0  0  0
   36.6080   25.6120   32.1830 C   0  0  0  0  0  0  0  0  0  0  0  0
   35.8550   24.7420   31.7110 O   0  0  0  0  0  0  0  0  0  0  0  0
   36.5470   27.0110   31.8220 C   0  0  0  0  0  0  0  0  0  0  0  0
   36.2710   27.9110   32.8480 C   0  0  0  0  0  0  0  0  0  0  0  0
   36.2050   29.2680   32.5280 C   0  0  0  0  0  0  0  0  0  0  0  0
   36.4140   29.6410   31.2340 N   0  0  0  0  0  0  0  0  0  0  0  0
   36.6800   28.7510   30.2600 C   0  0  0  0  0  0  0  0  0  0  0  0
   36.7470   27.4370   30.5530 N   0  0  0  0  0  0  0  0  0  0  0  0
   36.0980   27.6920   33.8740 H   0  0  0  0  0  0  0  0  0  0  0  0
   35.9920   30.0250   33.2880 H   0  0  0  0  0  0  0  0  0  0  0  0
   36.8490   29.0240   29.2290 H   0  0  0  0  0  0  0  0  0  0  0  0
  1  5  1  0  0  0  0
  2  1  2  0  0  0  0
  2  3  1  0  0  0  0
  3  7  1  0  0  0  0
  3  4  2  0  0  0  0
  5  4  1  0  0  0  0
  6  2  1  0  0  0  0
  8 13  1  6  0  0  0
  8 12  1  0  0  0  0
  9  4  1  6  0  0  0
  9  8  1  0  0  0  0
  9 10  1  0  0  0  0
 10 11  1  0  0  0  0
 12 11  1  0  0  0  0
 12 15  1  6  0  0  0
 14 13  1  0  0  0  0
 15 16  1  0  0  0  0
 17  1  1  0  0  0  0
 18 17  2  0  0  0  0
 19 17  1  0  0  0  0
 19 20  1  0  0  0  0
 20 25  1  0  0  0  0
 21 20  2  0  0  0  0
 21 26  1  0  0  0  0
 22 21  1  0  0  0  0
 23 24  1  0  0  0  0
 23 22  2  0  0  0  0
 24 19  2  0  0  0  0
 27 23  1  0  0  0  0
M  END
>  <minimizedAffinity>
-5.27107525

$$$$

 OpenBabel03272507113D

 27 29  0  0  1  0  0  0  0  0999 V2000
   37.7990   25.2650   34.0880 C   0  0  0  0  0  0  0  0  0  0  0  0
   37.7320   26.2760   35.0070 C   0  0  0  0  0  0  0  0  0  0  0  0
   37.4300   27.4460   34.2960 C   0  0  0  0  0  0  0  0  0  0  0  0
   37.3330   27.0510   32.9610 C   0  0  0  0  0  0  0  0  0  0  0  0
   37.5580   25.7650   32.8960 O   0  0  0  0  0  0  0  0  0  0  0  0
   37.8570   26.3330   36.0820 H   0  0  0  0  0  0  0  0  0  0  0  0
   37.2730   28.4910   34.5550 H   0  0  0  0  0  0  0  0  0  0  0  0
   38.2000   27.8220   30.7440 C   0  0  2  0  0  3  0  0  0  0  0  0
   37.0460   27.7750   31.7250 C   0  0  2  0  0  3  0  0  0  0  0  0
   36.7900   29.1320   31.9130 O   0  0  0  0  0  0  0  0  0  0  0  0
   36.7880   29.6830   30.6570 C   0  0  0  0  0  2  0  0  0  0  0  0
   37.6050   28.8110   29.7380 C   0  0  2  0  0  3  0  0  0  0  0  0
   38.2850   26.5470   30.1920 O   0  0  0  0  0  0  0  0  0  0  0  0
   38.5030   25.9340   30.9440 H   0  0  0  0  0  0  0  0  0  0  0  0
   36.7160   28.0540   28.9490 O   0  0  0  0  0  0  0  0  0  0  0  0
   35.7590   28.2740   29.1790 H   0  0  0  0  0  0  0  0  0  0  0  0
   38.0960   23.8920   34.4740 C   0  0  0  0  0  0  0  0  0  0  0  0
   38.0770   23.0040   33.6020 O   0  0  0  0  0  0  0  0  0  0  0  0
   38.4010   23.6450   35.8660 C   0  0  0  0  0  0  0  0  0  0  0  0
   39.6930   23.2150   36.1570 C   0  0  0  0  0  0  0  0  0  0  0  0
   40.0160   22.9690   37.4930 C   0  0  0  0  0  0  0  0  0  0  0  0
   39.0530   23.1600   38.4390 N   0  0  0  0  0  0  0  0  0  0  0  0
   37.8120   23.5770   38.1320 C   0  0  0  0  0  0  0  0  0  0  0  0
   37.4850   23.8200   36.8460 N   0  0  0  0  0  0  0  0  0  0  0  0
   40.4890   23.0440   35.4740 H   0  0  0  0  0  0  0  0  0  0  0  0
   41.0120   22.6290   37.7870 H   0  0  0  0  0  0  0  0  0  0  0  0
   37.0340   23.7360   38.8640 H   0  0  0  0  0  0  0  0  0  0  0  0
  1 17  1  0  0  0  0
  1  2  2  0  0  0  0
  2  6  1  0  0  0  0
  3  7  1  0  0  0  0
  3  2  1  0  0  0  0
  4  3  2  0  0  0  0
  5  4  1  0  0  0  0
  5  1  1  0  0  0  0
  8 13  1  6  0  0  0
  8  9  1  0  0  0  0
  9 10  1  0  0  0  0
  9  4  1  1  0  0  0
 11 10  1  0  0  0  0
 12 15  1  6  0  0  0
 12 11  1  0  0  0  0
 12  8  1  0  0  0  0
 13 14  1  0  0  0  0
 15 16  1  0  0  0  0
 17 19  1  0  0  0  0
 18 17  2  0  0  0  0
 19 20  2  0  0  0  0
 19 24  1  0  0  0  0
 20 21  1  0  0  0  0
 21 26  1  0  0  0  0
 21 22  2  0  0  0  0
 23 22  1  0  0  0  0
 23 27  1  0  0  0  0
 24 23  2  0  0  0  0
 25 20  1  0  0  0  0
M  END
>  <minimizedAffinity>
-5.21846151

$$$$

 OpenBabel03272507113D

 27 29  0  0  1  0  0  0  0  0999 V2000
   36.9630   27.5450   34.5260 C   0  0  0  0  0  0  0  0  0  0  0  0
   37.8660   27.9820   35.4560 C   0  0  0  0  0  0  0  0  0  0  0  0
   38.5260   26.8430   35.9410 C   0  0  0  0  0  0  0  0  0  0  0  0
   37.9600   25.7680   35.2530 C   0  0  0  0  0  0  0  0  0  0  0  0
   37.0510   26.2360   34.4370 O   0  0  0  0  0  0  0  0  0  0  0  0
   38.1400   28.9530   35.8490 H   0  0  0  0  0  0  0  0  0  0  0  0
   39.3090   26.6540   36.6720 H   0  0  0  0  0  0  0  0  0  0  0  0
   38.6370   23.7970   36.6360 C   0  0  2  0  0  3  0  0  0  0  0  0
   38.1950   24.3270   35.2870 C   0  0  2  0  0  3  0  0  0  0  0  0
   39.2430   23.9060   34.4700 O   0  0  0  0  0  0  0  0  0  0  0  0
   39.4720   22.5980   34.8110 C   0  0  0  0  0  2  0  0  0  0  0  0
   38.9810   22.3650   36.2170 C   0  0  2  0  0  3  0  0  0  0  0  0
   37.5040   23.8150   37.4440 O   0  0  0  0  0  0  0  0  0  0  0  0
   37.2370   24.7700   37.5250 H   0  0  0  0  0  0  0  0  0  0  0  0
   37.7470   21.6890   36.1430 O   0  0  0  0  0  0  0  0  0  0  0  0
   37.4900   21.5200   35.1820 H   0  0  0  0  0  0  0  0  0  0  0  0
   36.0920   28.4650   33.8080 C   0  0  0  0  0  0  0  0  0  0  0  0
   35.1560   29.0110   34.4200 O   0  0  0  0  0  0  0  0  0  0  0  0
   36.3760   28.6900   32.4080 C   0  0  0  0  0  0  0  0  0  0  0  0
   36.1020   29.9620   31.9100 C   0  0  0  0  0  0  0  0  0  0  0  0
   36.3670   30.2080   30.5610 C   0  0  0  0  0  0  0  0  0  0  0  0
   36.8770   29.1960   29.8050 N   0  0  0  0  0  0  0  0  0  0  0  0
   37.1340   27.9760   30.3100 C   0  0  0  0  0  0  0  0  0  0  0  0
   36.8840   27.7220   31.6110 N   0  0  0  0  0  0  0  0  0  0  0  0
   35.7060   30.7940   32.4400 H   0  0  0  0  0  0  0  0  0  0  0  0
   36.1740   31.1850   30.1100 H   0  0  0  0  0  0  0  0  0  0  0  0
   37.5370   27.1600   29.7290 H   0  0  0  0  0  0  0  0  0  0  0  0
  1  2  2  0  0  0  0
  2  6  1  0  0  0  0
  2  3  1  0  0  0  0
  3  7  1  0  0  0  0
  4  3  2  0  0  0  0
  5  1  1  0  0  0  0
  5  4  1  0  0  0  0
  8 13  1  1  0  0  0
  9  4  1  1  0  0  0
  9  8  1  0  0  0  0
 10 11  1  0  0  0  0
 10  9  1  0  0  0  0
 11 12  1  0  0  0  0
 12 15  1  6  0  0  0
 12  8  1  0  0  0  0
 13 14  1  0  0  0  0
 16 15  1  0  0  0  0
 17 18  2  0  0  0  0
 17  1  1  0  0  0  0
 19 17  1  0  0  0  0
 20 19  1  0  0  0  0
 20 25  1  0  0  0  0
 21 20  2  0  0  0  0
 22 23  2  0  0  0  0
 22 21  1  0  0  0  0
 23 24  1  0  0  0  0
 24 19  2  0  0  0  0
 26 21  1  0  0  0  0
 27 23  1  0  0  0  0
M  END
>  <minimizedAffinity>
-5.20779037

$$$$

 OpenBabel03272507113D

 27 29  0  0  1  0  0  0  0  0999 V2000
   37.3280   24.0820   32.8350 C   0  0  0  0  0  0  0  0  0  0  0  0
   36.5370   24.7330   31.9290 C   0  0  0  0  0  0  0  0  0  0  0  0
   35.8130   23.7460   31.2450 C   0  0  0  0  0  0  0  0  0  0  0  0
   36.2280   22.5340   31.7990 C   0  0  0  0  0  0  0  0  0  0  0  0
   37.1150   22.7890   32.7250 O   0  0  0  0  0  0  0  0  0  0  0  0
   36.3810   25.7730   31.6680 H   0  0  0  0  0  0  0  0  0  0  0  0
   35.0690   23.7420   30.4510 H   0  0  0  0  0  0  0  0  0  0  0  0
   36.2530   20.1790   32.6430 C   0  0  2  0  0  3  0  0  0  0  0  0
   35.8660   21.1430   31.5400 C   0  0  2  0  0  3  0  0  0  0  0  0
   36.5240   20.5840   30.4450 O   0  0  0  0  0  0  0  0  0  0  0  0
   36.2570   19.2400   30.5020 C   0  0  0  0  0  2  0  0  0  0  0  0
   35.9270   18.8670   31.9250 C   0  0  2  0  0  3  0  0  0  0  0  0
   35.3550   20.4090   33.6820 O   0  0  0  0  0  0  0  0  0  0  0  0
   35.5100   21.3450   33.9800 H   0  0  0  0  0  0  0  0  0  0  0  0
   34.5290   18.7210   32.0260 O   0  0  0  0  0  0  0  0  0  0  0  0
   34.0870   18.8940   31.1350 H   0  0  0  0  0  0  0  0  0  0  0  0
   38.2260   24.8000   33.7300 C   0  0  0  0  0  0  0  0  0  0  0  0
   38.7090   25.8830   33.3560 O   0  0  0  0  0  0  0  0  0  0  0  0
   38.5010   24.1970   35.0150 C   0  0  0  0  0  0  0  0  0  0  0  0
   37.8670   24.7610   36.1190 C   0  0  0  0  0  0  0  0  0  0  0  0
   38.1140   24.2010   37.3740 C   0  0  0  0  0  0  0  0  0  0  0  0
   38.9600   23.1360   37.4530 N   0  0  0  0  0  0  0  0  0  0  0  0
   39.5610   22.6080   36.3710 C   0  0  0  0  0  0  0  0  0  0  0  0
   39.3320   23.1390   35.1520 N   0  0  0  0  0  0  0  0  0  0  0  0
   37.1990   25.5890   36.1310 H   0  0  0  0  0  0  0  0  0  0  0  0
   37.6470   24.5970   38.2790 H   0  0  0  0  0  0  0  0  0  0  0  0
   40.2340   21.7650   36.4110 H   0  0  0  0  0  0  0  0  0  0  0  0
  1 17  1  0  0  0  0
  2  1  2  0  0  0  0
  3  4  2  0  0  0  0
  3  2  1  0  0  0  0
  4  5  1  0  0  0  0
  5  1  1  0  0  0  0
  6  2  1  0  0  0  0
  7  3  1  0  0  0  0
  8 13  1  1  0  0  0
  9  4  1  1  0  0  0
  9  8  1  0  0  0  0
 10 11  1  0  0  0  0
 10  9  1  0  0  0  0
 11 12  1  0  0  0  0
 12 15  1  6  0  0  0
 12  8  1  0  0  0  0
 13 14  1  0  0  0  0
 16 15  1  0  0  0  0
 17 19  1  0  0  0  0
 18 17  2  0  0  0  0
 19 24  2  0  0  0  0
 19 20  1  0  0  0  0
 20 25  1  0  0  0  0
 20 21  2  0  0  0  0
 21 22  1  0  0  0  0
 21 26  1  0  0  0  0
 23 27  1  0  0  0  0
 23 22  2  0  0  0  0
 24 23  1  0  0  0  0
M  END
>  <minimizedAffinity>
-5.15609884

$$$$

 OpenBabel03272507113D

 27 29  0  0  1  0  0  0  0  0999 V2000
   35.7770   29.5670   33.3460 C   0  0  0  0  0  0  0  0  0  0  0  0
   36.3300   29.2210   32.1430 C   0  0  0  0  0  0  0  0  0  0  0  0
   37.0380   28.0290   32.3550 C   0  0  0  0  0  0  0  0  0  0  0  0
   36.8610   27.7300   33.7070 C   0  0  0  0  0  0  0  0  0  0  0  0
   36.1140   28.6620   34.2390 O   0  0  0  0  0  0  0  0  0  0  0  0
   36.3210   29.6570   31.1510 H   0  0  0  0  0  0  0  0  0  0  0  0
   37.6360   27.3630   31.7360 H   0  0  0  0  0  0  0  0  0  0  0  0
   38.6950   26.8670   35.1720 C   0  0  2  0  0  3  0  0  0  0  0  0
   37.3300   26.6380   34.5570 C   0  0  2  0  0  3  0  0  0  0  0  0
   37.5330   25.4400   33.8740 O   0  0  0  0  0  0  0  0  0  0  0  0
   38.1910   24.6220   34.7570 C   0  0  0  0  0  2  0  0  0  0  0  0
   38.9120   25.4740   35.7700 C   0  0  2  0  0  3  0  0  0  0  0  0
   38.5080   27.8110   36.1770 O   0  0  0  0  0  0  0  0  0  0  0  0
   38.1970   28.6400   35.7240 H   0  0  0  0  0  0  0  0  0  0  0  0
   38.1650   25.4580   36.9650 O   0  0  0  0  0  0  0  0  0  0  0  0
   37.3400   24.8860   36.8630 H   0  0  0  0  0  0  0  0  0  0  0  0
   34.9630   30.7650   33.5030 C   0  0  0  0  0  0  0  0  0  0  0  0
   34.7440   31.4790   32.5080 O   0  0  0  0  0  0  0  0  0  0  0  0
   34.4540   31.0510   34.8260 C   0  0  0  0  0  0  0  0  0  0  0  0
   35.2840   31.7810   35.6720 C   0  0  0  0  0  0  0  0  0  0  0  0
   34.8180   32.0720   36.9560 C   0  0  0  0  0  0  0  0  0  0  0  0
   33.5800   31.6280   37.3130 N   0  0  0  0  0  0  0  0  0  0  0  0
   32.7970   30.9240   36.4760 C   0  0  0  0  0  0  0  0  0  0  0  0
   33.2320   30.6350   35.2330 N   0  0  0  0  0  0  0  0  0  0  0  0
   36.2560   32.1570   35.4610 H   0  0  0  0  0  0  0  0  0  0  0  0
   35.4210   32.6410   37.6680 H   0  0  0  0  0  0  0  0  0  0  0  0
   31.8130   30.5620   36.7380 H   0  0  0  0  0  0  0  0  0  0  0  0
  1 17  1  0  0  0  0
  1  5  1  0  0  0  0
  2  3  1  0  0  0  0
  2  1  2  0  0  0  0
  3  4  2  0  0  0  0
  4  5  1  0  0  0  0
  6  2  1  0  0  0  0
  7  3  1  0  0  0  0
  8 12  1  0  0  0  0
  8 13  1  1  0  0  0
  9  4  1  6  0  0  0
  9  8  1  0  0  0  0
 10  9  1  0  0  0  0
 10 11  1  0  0  0  0
 11 12  1  0  0  0  0
 12 15  1  1  0  0  0
 14 13  1  0  0  0  0
 16 15  1  0  0  0  0
 17 19  1  0  0  0  0
 18 17  2  0  0  0  0
 19 24  2  0  0  0  0
 19 20  1  0  0  0  0
 20 21  2  0  0  0  0
 21 22  1  0  0  0  0
 21 26  1  0  0  0  0
 23 27  1  0  0  0  0
 23 22  2  0  0  0  0
 24 23  1  0  0  0  0
 25 20  1  0  0  0  0
M  END
>  <minimizedAffinity>
-5.12277508

$$$$

 OpenBabel03272507113D

 27 29  0  0  1  0  0  0  0  0999 V2000
   38.1370   27.2010   33.5700 C   0  0  0  0  0  0  0  0  0  0  0  0
   37.8210   27.2670   34.9000 C   0  0  0  0  0  0  0  0  0  0  0  0
   39.0220   27.1030   35.6060 C   0  0  0  0  0  0  0  0  0  0  0  0
   40.0060   26.9450   34.6280 C   0  0  0  0  0  0  0  0  0  0  0  0
   39.4330   27.0110   33.4550 O   0  0  0  0  0  0  0  0  0  0  0  0
   36.9020   27.4100   35.4550 H   0  0  0  0  0  0  0  0  0  0  0  0
   39.3050   27.0780   36.6560 H   0  0  0  0  0  0  0  0  0  0  0  0
   42.1570   26.8370   33.3550 C   0  0  2  0  0  3  0  0  0  0  0  0
   41.4500   26.7350   34.6920 C   0  0  2  0  0  3  0  0  0  0  0  0
   41.8160   25.4530   35.0990 O   0  0  0  0  0  0  0  0  0  0  0  0
   43.1650   25.3650   34.8660 C   0  0  0  0  0  2  0  0  0  0  0  0
   43.5420   26.3530   33.7920 C   0  0  2  0  0  3  0  0  0  0  0  0
   42.1840   28.1920   33.0400 O   0  0  0  0  0  0  0  0  0  0  0  0
   41.2350   28.4740   32.9450 H   0  0  0  0  0  0  0  0  0  0  0  0
   44.1490   27.4630   34.4130 O   0  0  0  0  0  0  0  0  0  0  0  0
   44.1900   27.3350   35.4130 H   0  0  0  0  0  0  0  0  0  0  0  0
   37.1240   27.3330   32.5310 C   0  0  0  0  0  0  0  0  0  0  0  0
   36.8230   28.4700   32.1250 O   0  0  0  0  0  0  0  0  0  0  0  0
   36.5260   26.1160   32.0300 C   0  0  0  0  0  0  0  0  0  0  0  0
   35.4130   26.2590   31.2060 C   0  0  0  0  0  0  0  0  0  0  0  0
   34.8140   25.1000   30.7070 C   0  0  0  0  0  0  0  0  0  0  0  0
   35.3480   23.8940   31.0520 N   0  0  0  0  0  0  0  0  0  0  0  0
   36.4250   23.7830   31.8490 C   0  0  0  0  0  0  0  0  0  0  0  0
   37.0150   24.8930   32.3390 N   0  0  0  0  0  0  0  0  0  0  0  0
   34.9450   27.1630   30.8990 H   0  0  0  0  0  0  0  0  0  0  0  0
   33.9370   25.1440   30.0560 H   0  0  0  0  0  0  0  0  0  0  0  0
   36.8650   22.8390   32.1340 H   0  0  0  0  0  0  0  0  0  0  0  0
  1  2  2  0  0  0  0
  2  6  1  0  0  0  0
  2  3  1  0  0  0  0
  3  7  1  0  0  0  0
  4  3  2  0  0  0  0
  5  1  1  0  0  0  0
  5  4  1  0  0  0  0
  8 13  1  1  0  0  0
  8 12  1  0  0  0  0
  8  9  1  0  0  0  0
  9  4  1  6  0  0  0
  9 10  1  0  0  0  0
 11 10  1  0  0  0  0
 12 15  1  1  0  0  0
 12 11  1  0  0  0  0
 14 13  1  0  0  0  0
 15 16  1  0  0  0  0
 17  1  1  0  0  0  0
 18 17  2  0  0  0  0
 19 24  1  0  0  0  0
 19 17  1  0  0  0  0
 20 19  2  0  0  0  0
 21 22  2  0  0  0  0
 21 20  1  0  0  0  0
 22 23  1  0  0  0  0
 23 27  1  0  0  0  0
 23 24  2  0  0  0  0
 25 20  1  0  0  0  0
 26 21  1  0  0  0  0
M  END
>  <minimizedAffinity>
-5.09615374

$$$$

 OpenBabel03272507113D

 27 29  0  0  1  0  0  0  0  0999 V2000
   38.3260   26.6150   33.6390 C   0  0  0  0  0  0  0  0  0  0  0  0
   39.5930   27.0860   33.8470 C   0  0  0  0  0  0  0  0  0  0  0  0
   40.0390   26.5220   35.0500 C   0  0  0  0  0  0  0  0  0  0  0  0
   38.9820   25.7280   35.5000 C   0  0  0  0  0  0  0  0  0  0  0  0
   38.0050   25.8190   34.6360 O   0  0  0  0  0  0  0  0  0  0  0  0
   40.2530   27.7510   33.3020 H   0  0  0  0  0  0  0  0  0  0  0  0
   40.9520   26.5760   35.6400 H   0  0  0  0  0  0  0  0  0  0  0  0
   37.9200   23.6710   36.4470 C   0  0  2  0  0  3  0  0  0  0  0  0
   38.8000   24.8820   36.6770 C   0  0  2  0  0  3  0  0  0  0  0  0
   38.1320   25.5130   37.7260 O   0  0  0  0  0  0  0  0  0  0  0  0
   37.8400   24.5190   38.6250 C   0  0  0  0  0  2  0  0  0  0  0  0
   37.7990   23.1980   37.8980 C   0  0  2  0  0  3  0  0  0  0  0  0
   38.6850   22.7800   35.7000 O   0  0  0  0  0  0  0  0  0  0  0  0
   38.8710   23.2330   34.8350 H   0  0  0  0  0  0  0  0  0  0  0  0
   38.9990   22.5120   38.1710 O   0  0  0  0  0  0  0  0  0  0  0  0
   39.5910   23.0560   38.7810 H   0  0  0  0  0  0  0  0  0  0  0  0
   37.5440   26.9960   32.4710 C   0  0  0  0  0  0  0  0  0  0  0  0
   37.6100   28.1680   32.0580 O   0  0  0  0  0  0  0  0  0  0  0  0
   36.7300   25.9720   31.8550 C   0  0  0  0  0  0  0  0  0  0  0  0
   37.2970   24.7050   31.7440 C   0  0  0  0  0  0  0  0  0  0  0  0
   36.5350   23.6950   31.1530 C   0  0  0  0  0  0  0  0  0  0  0  0
   35.2800   24.0010   30.7170 N   0  0  0  0  0  0  0  0  0  0  0  0
   34.7550   25.2330   30.8370 C   0  0  0  0  0  0  0  0  0  0  0  0
   35.4780   26.2190   31.4050 N   0  0  0  0  0  0  0  0  0  0  0  0
   38.2650   24.3970   32.0600 H   0  0  0  0  0  0  0  0  0  0  0  0
   36.9230   22.6800   31.0360 H   0  0  0  0  0  0  0  0  0  0  0  0
   33.7630   25.4970   30.4980 H   0  0  0  0  0  0  0  0  0  0  0  0
  1  2  2  0  0  0  0
  1  5  1  0  0  0  0
  2  3  1  0  0  0  0
  3  4  2  0  0  0  0
  3  7  1  0  0  0  0
  5  4  1  0  0  0  0
  6  2  1  0  0  0  0
  8 13  1  6  0  0  0
  8  9  1  0  0  0  0
  8 12  1  0  0  0  0
  9  4  1  6  0  0  0
  9 10  1  0  0  0  0
 10 11  1  0  0  0  0
 12 15  1  1  0  0  0
 12 11  1  0  0  0  0
 14 13  1  0  0  0  0
 15 16  1  0  0  0  0
 17  1  1  0  0  0  0
 18 17  2  0  0  0  0
 19 17  1  0  0  0  0
 20 19  1  0  0  0  0
 20 25  1  0  0  0  0
 21 20  2  0  0  0  0
 22 23  2  0  0  0  0
 22 21  1  0  0  0  0
 23 24  1  0  0  0  0
 24 19  2  0  0  0  0
 26 21  1  0  0  0  0
 27 23  1  0  0  0  0
M  END
>  <minimizedAffinity>
-5.01432705

$$$$
