
 OpenBabel03272503083D

 45 49  0  0  1  0  0  0  0  0999 V2000
   39.2580   31.9060   44.9540 C   0  0  0  0  0  0  0  0  0  0  0  0
   38.1630   32.5450   45.0760 O   0  0  0  0  0  0  0  0  0  0  0  0
   39.9550   31.6550   46.1670 N   0  0  0  0  0  0  0  0  0  0  0  0
   40.8420   31.1430   46.1090 H   0  0  0  0  0  0  0  0  0  0  0  0
   39.1230   32.1720   42.5730 C   0  0  0  0  0  0  0  0  0  0  0  0
   39.6850   31.5020   43.6360 C   0  0  0  0  0  0  0  0  0  0  0  0
   40.6150   30.4900   43.4770 C   0  0  0  0  0  0  0  0  0  0  0  0
   40.9980   30.1330   42.1970 C   0  0  0  0  0  0  0  0  0  0  0  0
   41.8580   29.2120   41.7320 N   0  0  0  0  0  0  0  0  0  0  0  0
   41.8480   29.2880   40.4000 C   0  0  0  0  0  0  0  0  0  0  0  0
   40.9970   30.2420   40.0310 N   0  0  0  0  0  0  0  0  0  0  0  0
   40.4350   30.8030   41.1280 C   0  0  0  0  0  0  0  0  0  0  0  0
   39.5030   31.8190   41.2690 C   0  0  0  0  0  0  0  0  0  0  0  0
   38.3900   32.9700   42.6910 H   0  0  0  0  0  0  0  0  0  0  0  0
   41.0350   29.9850   44.3330 H   0  0  0  0  0  0  0  0  0  0  0  0
   42.4010   28.5840   42.3680 H   0  0  0  0  0  0  0  0  0  0  0  0
   42.4770   28.6290   39.7910 H   0  0  0  0  0  0  0  0  0  0  0  0
   37.7860   31.8440   39.4470 C   0  0  1  0  0  3  0  0  0  0  0  0
   38.9230   32.5110   40.1330 C   0  0  1  0  0  3  0  0  0  0  0  0
   38.3940   33.7560   40.4560 O   0  0  0  0  0  0  0  0  0  0  0  0
   37.6970   34.1850   39.3500 C   0  0  0  0  0  2  0  0  0  0  0  0
   37.2750   32.9700   38.5700 C   0  0  1  0  0  3  0  0  0  0  0  0
   38.1590   30.7320   38.7020 O   0  0  0  0  0  0  0  0  0  0  0  0
   37.9990   29.9260   39.2770 H   0  0  0  0  0  0  0  0  0  0  0  0
   37.9790   32.8620   37.3610 O   0  0  0  0  0  0  0  0  0  0  0  0
   37.9020   33.7150   36.8430 H   0  0  0  0  0  0  0  0  0  0  0  0
   38.1060   30.1500   47.5010 F   0  0  0  0  0  0  0  0  0  0  0  0
   38.3680   31.3930   47.9930 C   0  0  0  0  0  0  0  0  0  0  0  0
   37.7070   31.8290   49.1150 C   0  0  0  0  0  0  0  0  0  0  0  0
   38.0210   33.0900   49.5550 C   0  0  0  0  0  0  0  0  0  0  0  0
   38.9390   33.9020   48.9350 C   0  0  0  0  0  0  0  0  0  0  0  0
   39.5890   33.4330   47.8050 C   0  0  0  0  0  0  0  0  0  0  0  0
   39.2980   32.1690   47.3350 C   0  0  0  0  0  0  0  0  0  0  0  0
   37.5100   33.4520   50.4380 H   0  0  0  0  0  0  0  0  0  0  0  0
   39.1790   34.8950   49.2900 H   0  0  0  0  0  0  0  0  0  0  0  0
   40.3260   33.9880   47.2430 H   0  0  0  0  0  0  0  0  0  0  0  0
   36.0720   29.3530   51.4520 C   0  0  0  0  0  0  0  0  0  0  0  0
   37.0460   30.2090   50.8780 C   0  0  0  0  0  0  0  0  0  0  0  0
   36.7430   30.9390   49.7390 C   0  0  0  0  0  0  0  0  0  0  0  0
   35.4830   30.7880   49.2130 N   0  0  0  0  0  0  0  0  0  0  0  0
   34.5790   29.9690   49.7760 C   0  0  0  0  0  0  0  0  0  0  0  0
   34.8690   29.2700   50.8690 N   0  0  0  0  0  0  0  0  0  0  0  0
   36.4560   28.8500   52.3400 H   0  0  0  0  0  0  0  0  0  0  0  0
   38.0290   30.3560   51.2490 H   0  0  0  0  0  0  0  0  0  0  0  0
   33.5850   29.8230   49.3980 H   0  0  0  0  0  0  0  0  0  0  0  0
  1  2  2  0  0  0  0
  1  3  1  0  0  0  0
  3 33  1  0  0  0  0
  4  3  1  0  0  0  0
  5 14  1  0  0  0  0
  5  6  1  0  0  0  0
  6  1  1  0  0  0  0
  7  6  2  0  0  0  0
  7 15  1  0  0  0  0
  8  7  1  0  0  0  0
  9  8  1  0  0  0  0
  9 16  1  0  0  0  0
 10  9  1  0  0  0  0
 11 10  2  0  0  0  0
 11 12  1  0  0  0  0
 12 13  1  0  0  0  0
 12  8  2  0  0  0  0
 13  5  2  0  0  0  0
 17 10  1  0  0  0  0
 18 23  1  6  0  0  0
 18 19  1  0  0  0  0
 19 20  1  0  0  0  0
 19 13  1  1  0  0  0
 21 20  1  0  0  0  0
 22 25  1  6  0  0  0
 22 21  1  0  0  0  0
 22 18  1  0  0  0  0
 23 24  1  0  0  0  0
 26 25  1  0  0  0  0
 27 28  1  0  0  0  0
 28 29  1  0  0  0  0
 29 30  2  0  0  0  0
 29 39  1  0  0  0  0
 30 34  1  0  0  0  0
 31 35  1  0  0  0  0
 31 30  1  0  0  0  0
 32 31  2  0  0  0  0
 33 32  1  0  0  0  0
 33 28  2  0  0  0  0
 36 32  1  0  0  0  0
 37 43  1  0  0  0  0
 38 44  1  0  0  0  0
 38 37  1  0  0  0  0
 39 38  2  0  0  0  0
 40 39  1  0  0  0  0
 40 41  2  0  0  0  0
 41 42  1  0  0  0  0
 42 37  2  0  0  0  0
 45 41  1  0  0  0  0
M  END
>  <minimizedAffinity>
-7.56219196

>  <minimizedRMSD>
0.266292065

$$$$
