
 OpenBabel03272504503D

 42 45  0  0  1  0  0  0  0  0999 V2000
   37.3460   31.0720   48.6230 N   0  0  0  0  0  0  0  0  0  0  0  0
   37.9660   31.1390   49.9420 C   0  0  0  0  0  0  0  0  0  0  0  0
   39.0330   32.1720   50.0460 C   0  0  0  0  0  0  0  0  0  0  0  0
   38.7150   33.3860   49.2110 C   0  0  0  0  0  0  0  0  0  0  0  0
   38.7190   32.9230   47.7820 C   0  0  0  0  0  0  0  0  0  0  0  0
   37.7670   31.8040   47.4760 C   0  0  1  0  0  0  0  0  0  0  0  0
   37.1400   31.4360   50.6350 H   0  0  0  0  0  0  0  0  0  0  0  0
   38.2940   30.1340   50.2280 H   0  0  0  0  0  0  0  0  0  0  0  0
   39.1240   32.4960   51.1100 H   0  0  0  0  0  0  0  0  0  0  0  0
   39.9890   31.7440   49.7210 H   0  0  0  0  0  0  0  0  0  0  0  0
   37.8040   33.9000   49.5190 H   0  0  0  0  0  0  0  0  0  0  0  0
   39.5680   34.0820   49.3200 H   0  0  0  0  0  0  0  0  0  0  0  0
   38.4410   33.8060   47.1720 H   0  0  0  0  0  0  0  0  0  0  0  0
   39.7790   32.7060   47.5280 H   0  0  0  0  0  0  0  0  0  0  0  0
   36.9050   32.1910   46.8800 H   0  0  0  0  0  0  0  0  0  0  0  0
   36.1100   29.0780   49.3400 C   0  0  0  0  0  0  0  0  0  0  0  0
   36.2350   30.1910   48.5170 C   0  0  0  0  0  0  0  0  0  0  0  0
   35.2300   30.4000   47.5910 C   0  0  0  0  0  0  0  0  0  0  0  0
   34.1890   29.5190   47.5380 N   0  0  0  0  0  0  0  0  0  0  0  0
   34.0950   28.4630   48.3370 C   0  0  0  0  0  0  0  0  0  0  0  0
   35.0640   28.2440   49.2440 N   0  0  0  0  0  0  0  0  0  0  0  0
   36.8540   28.8540   50.0820 H   0  0  0  0  0  0  0  0  0  0  0  0
   35.2100   31.2070   46.9110 H   0  0  0  0  0  0  0  0  0  0  0  0
   32.9780   27.5530   48.2490 C   0  0  0  0  0  0  0  0  0  0  0  0
   33.1100   26.3520   47.5800 C   0  0  0  0  0  0  0  0  0  0  0  0
   32.0950   25.4340   47.4520 C   0  0  0  0  0  0  0  0  0  0  0  0
   30.9230   25.7980   48.0420 C   0  0  0  0  0  0  0  0  0  0  0  0
   30.7250   27.0170   48.7420 C   0  0  0  0  0  0  0  0  0  0  0  0
   31.7970   27.8740   48.8190 N   0  0  0  0  0  0  0  0  0  0  0  0
   34.0930   26.1470   47.1360 H   0  0  0  0  0  0  0  0  0  0  0  0
   32.2120   24.5110   46.9330 H   0  0  0  0  0  0  0  0  0  0  0  0
   30.0430   25.1520   48.0080 H   0  0  0  0  0  0  0  0  0  0  0  0
   29.7740   27.2560   49.1930 H   0  0  0  0  0  0  0  0  0  0  0  0
   38.1020   30.8120   45.1790 C   0  0  2  0  0  0  0  0  0  0  0  0
   38.5560   30.8400   46.5900 C   0  0  1  0  0  0  0  0  0  0  0  0
   39.8750   31.2410   46.6590 O   0  0  0  0  0  0  0  0  0  0  0  0
   40.3870   31.4060   45.4000 C   0  0  0  0  0  0  0  0  0  0  0  0
   39.3350   31.1420   44.3820 C   0  0  2  0  0  0  0  0  0  0  0  0
   37.0330   31.6140   44.8660 O   0  0  0  0  0  0  0  0  0  0  0  0
   36.1720   31.1540   44.9890 H   0  0  0  0  0  0  0  0  0  0  0  0
   39.0610   32.2270   43.5420 O   0  0  0  0  0  0  0  0  0  0  0  0
   38.2800   31.9530   43.0080 H   0  0  0  0  0  0  0  0  0  0  0  0
  1  2  1  0  0  0  0
  2  3  1  0  0  0  0
  2  8  1  0  0  0  0
  2  7  1  0  0  0  0
  3  9  1  0  0  0  0
  4 12  1  0  0  0  0
  4 11  1  0  0  0  0
  4  3  1  0  0  0  0
  5  4  1  0  0  0  0
  6 15  1  6  0  0  0
  6  5  1  0  0  0  0
  6  1  1  0  0  0  0
 10  3  1  0  0  0  0
 13  5  1  0  0  0  0
 14  5  1  0  0  0  0
 16 22  1  0  0  0  0
 17  1  1  0  0  0  0
 17 16  2  0  0  0  0
 18 17  1  0  0  0  0
 19 18  2  0  0  0  0
 19 20  1  0  0  0  0
 20 21  2  0  0  0  0
 21 16  1  0  0  0  0
 23 18  1  0  0  0  0
 24 20  1  0  0  0  0
 24 29  1  0  0  0  0
 25 24  2  0  0  0  0
 26 25  1  0  0  0  0
 26 27  2  0  0  0  0
 27 28  1  0  0  0  0
 28 29  2  0  0  0  0
 28 33  1  0  0  0  0
 30 25  1  0  0  0  0
 31 26  1  0  0  0  0
 32 27  1  0  0  0  0
 34 39  1  1  0  0  0
 34 35  1  0  0  0  0
 35 36  1  6  0  0  0
 35  6  1  0  0  0  0
 37 36  1  0  0  0  0
 38 41  1  1  0  0  0
 38 34  1  0  0  0  0
 38 37  1  0  0  0  0
 39 40  1  0  0  0  0
 42 41  1  0  0  0  0
M  END
>  <minimizedAffinity>
-6.32765865

>  <minimizedRMSD>
1.9728992

$$$$
