
 OpenBabel03272509503D

 33 35  0  0  1  0  0  0  0  0999 V2000
   37.3120   30.5580   50.9270 C   0  0  0  0  0  0  0  0  0  0  0  0
   37.9910   30.7670   49.7180 C   0  0  0  0  0  0  0  0  0  0  0  0
   37.4620   30.2070   48.5690 C   0  0  0  0  0  0  0  0  0  0  0  0
   36.3140   29.4850   48.6650 N   0  0  0  0  0  0  0  0  0  0  0  0
   35.6780   29.2980   49.8410 C   0  0  0  0  0  0  0  0  0  0  0  0
   36.1980   29.8450   50.9600 N   0  0  0  0  0  0  0  0  0  0  0  0
   37.7610   31.0140   51.7980 H   0  0  0  0  0  0  0  0  0  0  0  0
   38.9020   31.3410   49.6500 H   0  0  0  0  0  0  0  0  0  0  0  0
   37.2780   31.1560   46.2650 C   0  0  1  0  0  3  0  0  0  0  0  0
   38.1150   30.3730   47.2210 C   0  0  1  0  0  3  0  0  0  0  0  0
   39.2550   31.1760   47.4060 O   0  0  0  0  0  0  0  0  0  0  0  0
   39.6550   31.4980   46.1250 C   0  0  0  0  0  2  0  0  0  0  0  0
   38.3650   31.8210   45.4130 C   0  0  2  0  0  3  0  0  0  0  0  0
   36.6030   30.2490   45.4570 O   0  0  0  0  0  0  0  0  0  0  0  0
   37.2260   29.4770   45.3030 H   0  0  0  0  0  0  0  0  0  0  0  0
   38.2010   33.1840   45.3530 O   0  0  0  0  0  0  0  0  0  0  0  0
   37.2870   33.4090   45.0240 H   0  0  0  0  0  0  0  0  0  0  0  0
   34.5460   28.5470   49.7340 O   0  0  0  0  0  0  0  0  0  0  0  0
   33.7920   28.6540   48.5200 C   0  0  0  0  0  0  0  0  0  0  0  0
   34.4350   28.8550   47.6600 H   0  0  0  0  0  0  0  0  0  0  0  0
   33.1200   29.5340   48.7050 H   0  0  0  0  0  0  0  0  0  0  0  0
   32.8790   27.4680   48.3750 C   0  0  0  0  0  0  0  0  0  0  0  0
   33.0650   26.9950   47.3900 H   0  0  0  0  0  0  0  0  0  0  0  0
   33.0700   26.6870   49.1380 H   0  0  0  0  0  0  0  0  0  0  0  0
   31.4430   27.8630   48.3550 C   0  0  0  0  0  0  0  0  0  0  0  0
   30.7490   27.7380   49.5330 C   0  0  0  0  0  0  0  0  0  0  0  0
   29.4070   28.0770   49.6270 C   0  0  0  0  0  0  0  0  0  0  0  0
   28.7830   28.5350   48.5420 N   0  0  0  0  0  0  0  0  0  0  0  0
   29.4740   28.6540   47.3860 C   0  0  0  0  0  0  0  0  0  0  0  0
   30.7760   28.3290   47.2810 N   0  0  0  0  0  0  0  0  0  0  0  0
   31.2330   27.3680   50.4270 H   0  0  0  0  0  0  0  0  0  0  0  0
   28.8920   27.9630   50.5760 H   0  0  0  0  0  0  0  0  0  0  0  0
   28.9120   29.0300   46.5490 H   0  0  0  0  0  0  0  0  0  0  0  0
  1  6  1  0  0  0  0
  1  7  1  0  0  0  0
  2  1  2  0  0  0  0
  3  4  2  0  0  0  0
  3  2  1  0  0  0  0
  4  5  1  0  0  0  0
  5  6  2  0  0  0  0
  8  2  1  0  0  0  0
  9 14  1  6  0  0  0
  9 10  1  0  0  0  0
 10 11  1  0  0  0  0
 10  3  1  1  0  0  0
 12 11  1  0  0  0  0
 13 16  1  1  0  0  0
 13 12  1  0  0  0  0
 13  9  1  0  0  0  0
 15 14  1  0  0  0  0
 17 16  1  0  0  0  0
 18  5  1  0  0  0  0
 19 21  1  0  0  0  0
 19 18  1  0  0  0  0
 20 19  1  0  0  0  0
 22 19  1  0  0  0  0
 22 24  1  0  0  0  0
 23 22  1  0  0  0  0
 25 22  1  0  0  0  0
 25 26  1  0  0  0  0
 26 27  2  0  0  0  0
 26 31  1  0  0  0  0
 27 32  1  0  0  0  0
 28 27  1  0  0  0  0
 29 28  2  0  0  0  0
 30 29  1  0  0  0  0
 30 25  2  0  0  0  0
 33 29  1  0  0  0  0
M  END
>  <minimizedAffinity>
-5.33245564

>  <minimizedRMSD>
0.912509322

$$$$
