
 OpenBabel03272507573D

 32 34  0  0  1  0  0  0  0  0999 V2000
   36.8940   31.2380   48.4730 C   0  0  0  0  0  0  0  0  0  0  0  0
   37.1510   32.1140   49.5370 C   0  0  0  0  0  0  0  0  0  0  0  0
   38.0670   33.1370   49.3700 C   0  0  0  0  0  0  0  0  0  0  0  0
   38.7200   33.2870   48.1580 C   0  0  0  0  0  0  0  0  0  0  0  0
   38.4420   32.4080   47.1390 C   0  0  0  0  0  0  0  0  0  0  0  0
   37.5450   31.4140   47.3160 N   0  0  0  0  0  0  0  0  0  0  0  0
   36.7150   32.1130   50.5340 H   0  0  0  0  0  0  0  0  0  0  0  0
   38.3210   33.8530   50.1390 H   0  0  0  0  0  0  0  0  0  0  0  0
   39.4350   34.0590   47.9770 H   0  0  0  0  0  0  0  0  0  0  0  0
   35.1670   28.3720   50.1870 C   0  0  0  0  0  0  0  0  0  0  0  0
   36.1550   29.3500   49.8740 C   0  0  0  0  0  0  0  0  0  0  0  0
   35.9120   30.2290   48.8210 C   0  0  0  0  0  0  0  0  0  0  0  0
   34.7240   30.0980   48.1430 N   0  0  0  0  0  0  0  0  0  0  0  0
   33.8140   29.1500   48.4790 C   0  0  0  0  0  0  0  0  0  0  0  0
   34.0240   28.2950   49.4850 N   0  0  0  0  0  0  0  0  0  0  0  0
   32.6740   29.2200   47.6300 N   0  0  0  0  0  0  0  0  0  0  0  0
   35.3400   27.6780   51.0060 H   0  0  0  0  0  0  0  0  0  0  0  0
   32.8010   29.1280   46.5920 H   0  0  0  0  0  0  0  0  0  0  0  0
   31.7030   29.3660   48.0410 H   0  0  0  0  0  0  0  0  0  0  0  0
   37.4000   29.3930   50.6800 C   0  0  0  0  0  0  0  0  0  0  0  0
   38.4860   29.8040   49.9220 F   0  0  0  0  0  0  0  0  0  0  0  0
   37.2280   30.2750   51.7100 F   0  0  0  0  0  0  0  0  0  0  0  0
   37.7310   28.1630   51.2290 F   0  0  0  0  0  0  0  0  0  0  0  0
   39.4630   31.2110   45.2130 C   0  0  1  0  0  3  0  0  0  0  0  0
   39.1210   32.5340   45.8230 C   0  0  2  0  0  3  0  0  0  0  0  0
   40.3700   33.1850   45.9440 O   0  0  0  0  0  0  0  0  0  0  0  0
   40.8180   33.0600   44.6270 C   0  0  0  0  0  2  0  0  0  0  0  0
   40.6950   31.5810   44.3900 C   0  0  2  0  0  3  0  0  0  0  0  0
   39.8660   30.2710   46.1620 O   0  0  0  0  0  0  0  0  0  0  0  0
   40.2460   29.5040   45.6270 H   0  0  0  0  0  0  0  0  0  0  0  0
   40.4420   31.2920   43.0380 O   0  0  0  0  0  0  0  0  0  0  0  0
   41.2340   31.5420   42.5120 H   0  0  0  0  0  0  0  0  0  0  0  0
  1 12  1  0  0  0  0
  1  2  1  0  0  0  0
  2  7  1  0  0  0  0
  3  2  2  0  0  0  0
  3  8  1  0  0  0  0
  4  3  1  0  0  0  0
  5  6  1  0  0  0  0
  5  4  2  0  0  0  0
  6  1  2  0  0  0  0
  9  4  1  0  0  0  0
 10 17  1  0  0  0  0
 11 10  1  0  0  0  0
 11 20  1  0  0  0  0
 12 11  2  0  0  0  0
 13 14  2  0  0  0  0
 13 12  1  0  0  0  0
 14 15  1  0  0  0  0
 15 10  2  0  0  0  0
 16 19  1  0  0  0  0
 16 14  1  0  0  0  0
 18 16  1  0  0  0  0
 20 23  1  0  0  0  0
 20 22  1  0  0  0  0
 21 20  1  0  0  0  0
 24 25  1  0  0  0  0
 24 29  1  1  0  0  0
 25 26  1  0  0  0  0
 25  5  1  1  0  0  0
 27 26  1  0  0  0  0
 28 31  1  6  0  0  0
 28 27  1  0  0  0  0
 28 24  1  0  0  0  0
 30 29  1  0  0  0  0
 32 31  1  0  0  0  0
M  END
>  <minimizedAffinity>
-7.22574186

>  <minimizedRMSD>
1.09280765

$$$$
