
 OpenBabel03272507093D

 27 29  0  0  1  0  0  0  0  0999 V2000
   35.8440   29.2250   49.8660 C   0  0  0  0  0  0  0  0  0  0  0  0
   34.9590   29.7290   50.7790 C   0  0  0  0  0  0  0  0  0  0  0  0
   33.6850   29.2910   50.3870 C   0  0  0  0  0  0  0  0  0  0  0  0
   33.8940   28.5330   49.2340 C   0  0  0  0  0  0  0  0  0  0  0  0
   35.1750   28.5270   48.9740 O   0  0  0  0  0  0  0  0  0  0  0  0
   35.0520   30.3450   51.6650 H   0  0  0  0  0  0  0  0  0  0  0  0
   32.6730   29.4150   50.7670 H   0  0  0  0  0  0  0  0  0  0  0  0
   32.7630   28.4750   47.0030 C   0  0  2  0  0  3  0  0  0  0  0  0
   32.9950   27.8050   48.3420 C   0  0  2  0  0  3  0  0  0  0  0  0
   31.6910   27.6950   48.8240 O   0  0  0  0  0  0  0  0  0  0  0  0
   30.9510   27.2140   47.7740 C   0  0  0  0  0  2  0  0  0  0  0  0
   31.6470   27.5650   46.4830 C   0  0  2  0  0  3  0  0  0  0  0  0
   33.9330   28.2850   46.2740 O   0  0  0  0  0  0  0  0  0  0  0  0
   34.6500   28.7610   46.7720 H   0  0  0  0  0  0  0  0  0  0  0  0
   32.2960   26.4090   46.0070 O   0  0  0  0  0  0  0  0  0  0  0  0
   32.1420   25.6300   46.6310 H   0  0  0  0  0  0  0  0  0  0  0  0
   37.2750   29.4800   49.9590 C   0  0  0  0  0  0  0  0  0  0  0  0
   37.9620   28.7830   50.7270 O   0  0  0  0  0  0  0  0  0  0  0  0
   37.8140   30.5430   49.1390 C   0  0  0  0  0  0  0  0  0  0  0  0
   38.1760   31.7170   49.7940 C   0  0  0  0  0  0  0  0  0  0  0  0
   38.6990   32.7600   49.0280 C   0  0  0  0  0  0  0  0  0  0  0  0
   38.8270   32.5770   47.6830 N   0  0  0  0  0  0  0  0  0  0  0  0
   38.4700   31.4320   47.0740 C   0  0  0  0  0  0  0  0  0  0  0  0
   37.9630   30.4150   47.8000 N   0  0  0  0  0  0  0  0  0  0  0  0
   38.1030   31.9280   50.8340 H   0  0  0  0  0  0  0  0  0  0  0  0
   39.0020   33.7070   49.4820 H   0  0  0  0  0  0  0  0  0  0  0  0
   38.5630   31.2650   46.0110 H   0  0  0  0  0  0  0  0  0  0  0  0
  1 17  1  0  0  0  0
  1  2  2  0  0  0  0
  2  6  1  0  0  0  0
  3  7  1  0  0  0  0
  3  2  1  0  0  0  0
  4  3  2  0  0  0  0
  5  4  1  0  0  0  0
  5  1  1  0  0  0  0
  8 13  1  6  0  0  0
  8  9  1  0  0  0  0
  9 10  1  0  0  0  0
  9  4  1  1  0  0  0
 11 10  1  0  0  0  0
 12 15  1  1  0  0  0
 12  8  1  0  0  0  0
 12 11  1  0  0  0  0
 13 14  1  0  0  0  0
 15 16  1  0  0  0  0
 17 18  2  0  0  0  0
 19 20  1  0  0  0  0
 19 17  1  0  0  0  0
 20 25  1  0  0  0  0
 21 26  1  0  0  0  0
 21 20  2  0  0  0  0
 22 21  1  0  0  0  0
 23 22  2  0  0  0  0
 23 24  1  0  0  0  0
 24 19  2  0  0  0  0
 27 23  1  0  0  0  0
M  END
>  <minimizedAffinity>
-5.14761591

>  <minimizedRMSD>
1.76182902

$$$$
