
 OpenBabel03272508373D

 44 47  0  0  1  0  0  0  0  0999 V2000
   40.4220   31.7410   44.3250 C   0  0  0  0  0  0  0  0  0  0  0  0
   40.2240   30.6640   44.6130 H   0  0  0  0  0  0  0  0  0  0  0  0
   41.5330   31.7930   44.3100 H   0  0  0  0  0  0  0  0  0  0  0  0
   39.9710   31.9090   43.0140 N   0  0  0  0  0  0  0  0  0  0  0  0
   39.3410   33.0980   42.6840 C   0  0  0  0  0  0  0  0  0  0  0  0
   37.9230   33.0000   42.2490 C   0  0  0  0  0  0  0  0  0  0  0  0
   37.7030   31.9330   41.3990 O   0  0  0  0  0  0  0  0  0  0  0  0
   38.1370   30.7570   41.9710 C   0  0  0  0  0  0  0  0  0  0  0  0
   39.5720   30.7560   42.2680 C   0  0  1  0  0  0  0  0  0  0  0  0
   39.9110   33.3270   41.7200 H   0  0  0  0  0  0  0  0  0  0  0  0
   39.5680   34.0030   43.2270 H   0  0  0  0  0  0  0  0  0  0  0  0
   37.8220   33.8600   41.4760 H   0  0  0  0  0  0  0  0  0  0  0  0
   37.1330   33.3220   42.9010 H   0  0  0  0  0  0  0  0  0  0  0  0
   37.4660   30.3270   42.7280 H   0  0  0  0  0  0  0  0  0  0  0  0
   37.9820   30.0510   41.1400 H   0  0  0  0  0  0  0  0  0  0  0  0
   39.7870   29.8790   42.9230 H   0  0  0  0  0  0  0  0  0  0  0  0
   40.1000   29.4890   40.1260 C   0  0  1  0  0  3  0  0  0  0  0  0
   40.5020   30.5780   41.0740 C   0  0  2  0  0  3  0  0  0  0  0  0
   41.6930   29.9890   41.6040 O   0  0  0  0  0  0  0  0  0  0  0  0
   41.3720   28.6740   41.9020 C   0  0  0  0  0  2  0  0  0  0  0  0
   40.2880   28.2120   40.9590 C   0  0  2  0  0  3  0  0  0  0  0  0
   38.8590   29.4810   39.6040 O   0  0  0  0  0  0  0  0  0  0  0  0
   38.8210   29.3600   38.6060 H   0  0  0  0  0  0  0  0  0  0  0  0
   40.6710   27.1380   40.1720 O   0  0  0  0  0  0  0  0  0  0  0  0
   39.9800   27.0040   39.4930 H   0  0  0  0  0  0  0  0  0  0  0  0
   39.8530   32.5860   45.3600 C   0  0  0  0  0  0  0  0  0  0  0  0
   40.6830   32.8440   46.0880 H   0  0  0  0  0  0  0  0  0  0  0  0
   39.3980   33.5510   45.1540 H   0  0  0  0  0  0  0  0  0  0  0  0
   37.7580   30.9600   47.7780 C   0  0  0  0  0  0  0  0  0  0  0  0
   37.0000   30.7980   46.6340 C   0  0  0  0  0  0  0  0  0  0  0  0
   37.7050   31.3910   45.5870 C   0  0  0  0  0  0  0  0  0  0  0  0
   38.8300   31.8760   46.1150 N   0  0  0  0  0  0  0  0  0  0  0  0
   38.8670   31.6180   47.4360 N   0  0  0  0  0  0  0  0  0  0  0  0
   36.0170   30.2890   46.5800 H   0  0  0  0  0  0  0  0  0  0  0  0
   37.2630   31.3490   44.6600 H   0  0  0  0  0  0  0  0  0  0  0  0
   37.4720   30.2120   51.4500 C   0  0  0  0  0  0  0  0  0  0  0  0
   37.9750   30.7480   50.2660 C   0  0  0  0  0  0  0  0  0  0  0  0
   37.3410   30.4680   49.0670 C   0  0  0  0  0  0  0  0  0  0  0  0
   36.2520   29.6660   49.1590 N   0  0  0  0  0  0  0  0  0  0  0  0
   35.7720   29.1510   50.3100 C   0  0  0  0  0  0  0  0  0  0  0  0
   36.3930   29.4320   51.4490 N   0  0  0  0  0  0  0  0  0  0  0  0
   37.9980   30.4540   52.3830 H   0  0  0  0  0  0  0  0  0  0  0  0
   38.8490   31.3840   50.2260 H   0  0  0  0  0  0  0  0  0  0  0  0
   34.8900   28.5340   50.1710 H   0  0  0  0  0  0  0  0  0  0  0  0
  1  2  1  0  0  0  0
  1 26  1  0  0  0  0
  3  1  1  0  0  0  0
  4  1  1  0  0  0  0
  5  4  1  0  0  0  0
  5 11  1  0  0  0  0
  6  5  1  0  0  0  0
  6 13  1  0  0  0  0
  7  8  1  0  0  0  0
  7  6  1  0  0  0  0
  8  9  1  0  0  0  0
  8 14  1  0  0  0  0
  9 16  1  1  0  0  0
  9  4  1  0  0  0  0
 10  5  1  0  0  0  0
 12  6  1  0  0  0  0
 15  8  1  0  0  0  0
 17 22  1  1  0  0  0
 17 21  1  0  0  0  0
 17 18  1  0  0  0  0
 18 19  1  1  0  0  0
 18  9  1  0  0  0  0
 19 20  1  0  0  0  0
 21 24  1  6  0  0  0
 21 20  1  0  0  0  0
 23 22  1  0  0  0  0
 25 24  1  0  0  0  0
 26 27  1  0  0  0  0
 26 32  1  0  0  0  0
 28 26  1  0  0  0  0
 29 38  1  0  0  0  0
 30 29  1  0  0  0  0
 31 32  1  0  0  0  0
 31 30  2  0  0  0  0
 32 33  1  0  0  0  0
 33 29  2  0  0  0  0
 34 30  1  0  0  0  0
 35 31  1  0  0  0  0
 36 42  1  0  0  0  0
 37 36  2  0  0  0  0
 38 39  2  0  0  0  0
 38 37  1  0  0  0  0
 39 40  1  0  0  0  0
 40 41  2  0  0  0  0
 41 36  1  0  0  0  0
 43 37  1  0  0  0  0
 44 40  1  0  0  0  0
M  END
>  <minimizedAffinity>
-5.79405165

>  <minimizedRMSD>
1.26817799

$$$$
