
 OpenBabel03272502033D

 42 46  0  0  1  0  0  0  0  0999 V2000
   35.1080   29.9410   33.4050 C   0  0  0  0  0  0  0  0  0  0  0  0
   35.0870   30.4450   34.3960 H   0  0  0  0  0  0  0  0  0  0  0  0
   35.4440   30.6250   32.6200 H   0  0  0  0  0  0  0  0  0  0  0  0
   36.0630   28.7790   33.4400 C   0  0  0  0  0  0  0  0  0  0  0  0
   36.8360   28.3070   32.3900 C   0  0  0  0  0  0  0  0  0  0  0  0
   37.5770   27.2220   32.8330 C   0  0  0  0  0  0  0  0  0  0  0  0
   37.2320   27.0700   34.1360 N   0  0  0  0  0  0  0  0  0  0  0  0
   36.3440   27.9870   34.4850 N   0  0  0  0  0  0  0  0  0  0  0  0
   38.7970   25.1460   34.4990 N   0  0  0  0  0  0  0  0  0  0  0  0
   37.8370   26.0200   34.8770 C   0  0  0  0  0  0  0  0  0  0  0  0
   37.5360   25.7020   36.1540 N   0  0  0  0  0  0  0  0  0  0  0  0
   38.2760   24.6660   36.5740 C   0  0  0  0  0  0  0  0  0  0  0  0
   38.3010   24.0200   37.7830 C   0  0  0  0  0  0  0  0  0  0  0  0
   39.1540   22.9890   37.9480 N   0  0  0  0  0  0  0  0  0  0  0  0
   39.9580   22.6230   36.9170 C   0  0  0  0  0  0  0  0  0  0  0  0
   39.9290   23.2650   35.7220 N   0  0  0  0  0  0  0  0  0  0  0  0
   39.0880   24.3000   35.5260 C   0  0  0  0  0  0  0  0  0  0  0  0
   36.8280   28.7450   31.4000 H   0  0  0  0  0  0  0  0  0  0  0  0
   38.2720   26.6550   32.2150 H   0  0  0  0  0  0  0  0  0  0  0  0
   39.2520   25.1160   33.5730 H   0  0  0  0  0  0  0  0  0  0  0  0
   37.6480   24.3280   38.5970 H   0  0  0  0  0  0  0  0  0  0  0  0
   40.6180   21.7940   37.1070 H   0  0  0  0  0  0  0  0  0  0  0  0
   33.7500   29.3500   33.1570 C   0  0  0  0  0  0  0  0  0  0  0  0
   33.2400   29.8570   32.2920 H   0  0  0  0  0  0  0  0  0  0  0  0
   33.7890   28.2810   32.8720 H   0  0  0  0  0  0  0  0  0  0  0  0
   30.9950   29.0510   35.6260 C   0  0  0  0  0  0  0  0  0  0  0  0
   31.2860   30.1260   36.5070 C   0  0  0  0  0  0  0  0  0  0  0  0
   32.4150   30.9240   36.2340 C   0  0  0  0  0  0  0  0  0  0  0  0
   33.1660   30.6240   35.1440 N   0  0  0  0  0  0  0  0  0  0  0  0
   32.8500   29.5890   34.3320 C   0  0  0  0  0  0  0  0  0  0  0  0
   31.7970   28.8420   34.5830 N   0  0  0  0  0  0  0  0  0  0  0  0
   30.1400   28.4330   35.8180 H   0  0  0  0  0  0  0  0  0  0  0  0
   30.6380   30.2820   37.3370 H   0  0  0  0  0  0  0  0  0  0  0  0
   34.0220   32.6750   36.7110 C   0  0  1  0  0  3  0  0  0  0  0  0
   32.7240   32.0400   37.1440 C   0  0  1  0  0  3  0  0  0  0  0  0
   31.7450   33.0000   37.1470 O   0  0  0  0  0  0  0  0  0  0  0  0
   32.3190   34.2510   37.0250 C   0  0  0  0  0  2  0  0  0  0  0  0
   33.8060   34.0880   37.2080 C   0  0  1  0  0  3  0  0  0  0  0  0
   35.0900   32.0470   37.3840 O   0  0  0  0  0  0  0  0  0  0  0  0
   34.9680   31.0660   37.3680 H   0  0  0  0  0  0  0  0  0  0  0  0
   34.1410   34.2130   38.5500 O   0  0  0  0  0  0  0  0  0  0  0  0
   33.3980   33.7690   39.0510 H   0  0  0  0  0  0  0  0  0  0  0  0
  1  4  1  0  0  0  0
  1  2  1  0  0  0  0
  3  1  1  0  0  0  0
  4  8  2  0  0  0  0
  5  6  2  0  0  0  0
  5  4  1  0  0  0  0
  6  7  1  0  0  0  0
  7  8  1  0  0  0  0
  7 10  1  0  0  0  0
  9 10  1  0  0  0  0
  9 17  1  0  0  0  0
 10 11  2  0  0  0  0
 11 12  1  0  0  0  0
 12 13  1  0  0  0  0
 13 14  2  0  0  0  0
 13 21  1  0  0  0  0
 15 22  1  0  0  0  0
 15 14  1  0  0  0  0
 16 15  2  0  0  0  0
 17 16  1  0  0  0  0
 17 12  2  0  0  0  0
 18  5  1  0  0  0  0
 19  6  1  0  0  0  0
 20  9  1  0  0  0  0
 23  1  1  0  0  0  0
 23 30  1  0  0  0  0
 24 23  1  0  0  0  0
 25 23  1  0  0  0  0
 26 32  1  0  0  0  0
 26 27  1  0  0  0  0
 27 33  1  0  0  0  0
 28 27  2  0  0  0  0
 29 28  1  0  0  0  0
 30 31  1  0  0  0  0
 30 29  2  0  0  0  0
 31 26  2  0  0  0  0
 34 35  1  0  0  0  0
 34 38  1  0  0  0  0
 34 39  1  1  0  0  0
 35 28  1  6  0  0  0
 35 36  1  0  0  0  0
 37 36  1  0  0  0  0
 37 38  1  0  0  0  0
 38 41  1  1  0  0  0
 40 39  1  0  0  0  0
 41 42  1  0  0  0  0
M  END
>  <minimizedAffinity>
-6.6273241

$$$$

 OpenBabel03272502033D

 42 46  0  0  1  0  0  0  0  0999 V2000
   38.4910   27.0720   31.7250 C   0  0  0  0  0  0  0  0  0  0  0  0
   38.2840   26.1800   31.0960 H   0  0  0  0  0  0  0  0  0  0  0  0
   39.0650   27.8210   31.1730 H   0  0  0  0  0  0  0  0  0  0  0  0
   37.1980   27.7100   32.1550 C   0  0  0  0  0  0  0  0  0  0  0  0
   35.9530   27.5400   31.5690 C   0  0  0  0  0  0  0  0  0  0  0  0
   35.0250   28.3020   32.2630 C   0  0  0  0  0  0  0  0  0  0  0  0
   35.7340   28.9080   33.2470 N   0  0  0  0  0  0  0  0  0  0  0  0
   37.0080   28.5560   33.1780 N   0  0  0  0  0  0  0  0  0  0  0  0
   33.7260   30.0480   34.2210 N   0  0  0  0  0  0  0  0  0  0  0  0
   35.0460   29.7710   34.1430 C   0  0  0  0  0  0  0  0  0  0  0  0
   35.6320   30.4980   35.1170 N   0  0  0  0  0  0  0  0  0  0  0  0
   34.7190   31.2110   35.7920 C   0  0  0  0  0  0  0  0  0  0  0  0
   34.8640   32.0760   36.8470 C   0  0  0  0  0  0  0  0  0  0  0  0
   33.7650   32.6730   37.3490 N   0  0  0  0  0  0  0  0  0  0  0  0
   32.5540   32.4020   36.7990 C   0  0  0  0  0  0  0  0  0  0  0  0
   32.4150   31.5460   35.7550 N   0  0  0  0  0  0  0  0  0  0  0  0
   33.4950   30.9330   35.2310 C   0  0  0  0  0  0  0  0  0  0  0  0
   35.7800   26.9060   30.7080 H   0  0  0  0  0  0  0  0  0  0  0  0
   33.9650   28.3570   32.0190 H   0  0  0  0  0  0  0  0  0  0  0  0
   32.9910   29.6520   33.6140 H   0  0  0  0  0  0  0  0  0  0  0  0
   35.8430   32.2800   37.2730 H   0  0  0  0  0  0  0  0  0  0  0  0
   31.7120   32.9080   37.2420 H   0  0  0  0  0  0  0  0  0  0  0  0
   39.1580   26.6040   32.9880 C   0  0  0  0  0  0  0  0  0  0  0  0
   40.2730   26.5430   32.8580 H   0  0  0  0  0  0  0  0  0  0  0  0
   39.0110   27.2990   33.8370 H   0  0  0  0  0  0  0  0  0  0  0  0
   38.1490   23.0450   32.6950 C   0  0  0  0  0  0  0  0  0  0  0  0
   37.9500   22.6930   34.0560 C   0  0  0  0  0  0  0  0  0  0  0  0
   38.1670   23.6810   35.0380 C   0  0  0  0  0  0  0  0  0  0  0  0
   38.5540   24.9170   34.6310 N   0  0  0  0  0  0  0  0  0  0  0  0
   38.7300   25.2060   33.3210 C   0  0  0  0  0  0  0  0  0  0  0  0
   38.5290   24.2870   32.4020 N   0  0  0  0  0  0  0  0  0  0  0  0
   37.9880   22.3050   31.9340 H   0  0  0  0  0  0  0  0  0  0  0  0
   37.6480   21.6970   34.2770 H   0  0  0  0  0  0  0  0  0  0  0  0
   39.3120   23.1640   37.1100 C   0  0  1  0  0  3  0  0  0  0  0  0
   37.9650   23.3240   36.4520 C   0  0  1  0  0  3  0  0  0  0  0  0
   37.2510   24.2750   37.1350 O   0  0  0  0  0  0  0  0  0  0  0  0
   37.8820   24.5590   38.3310 C   0  0  0  0  0  2  0  0  0  0  0  0
   38.9550   23.5220   38.5370 C   0  0  1  0  0  3  0  0  0  0  0  0
   39.7230   21.8200   37.0010 O   0  0  0  0  0  0  0  0  0  0  0  0
   39.5590   21.4910   36.0820 H   0  0  0  0  0  0  0  0  0  0  0  0
   38.4420   22.4280   39.2220 O   0  0  0  0  0  0  0  0  0  0  0  0
   37.5140   22.3060   38.8690 H   0  0  0  0  0  0  0  0  0  0  0  0
  1  4  1  0  0  0  0
  1 23  1  0  0  0  0
  2  1  1  0  0  0  0
  3  1  1  0  0  0  0
  4  8  2  0  0  0  0
  5  4  1  0  0  0  0
  5  6  2  0  0  0  0
  6  7  1  0  0  0  0
  7 10  1  0  0  0  0
  8  7  1  0  0  0  0
  9 17  1  0  0  0  0
 10  9  1  0  0  0  0
 10 11  2  0  0  0  0
 11 12  1  0  0  0  0
 12 13  1  0  0  0  0
 13 21  1  0  0  0  0
 13 14  2  0  0  0  0
 15 22  1  0  0  0  0
 15 14  1  0  0  0  0
 16 15  2  0  0  0  0
 17 16  1  0  0  0  0
 17 12  2  0  0  0  0
 18  5  1  0  0  0  0
 19  6  1  0  0  0  0
 20  9  1  0  0  0  0
 23 30  1  0  0  0  0
 23 25  1  0  0  0  0
 24 23  1  0  0  0  0
 26 27  1  0  0  0  0
 27 33  1  0  0  0  0
 27 28  2  0  0  0  0
 29 28  1  0  0  0  0
 30 29  2  0  0  0  0
 31 26  2  0  0  0  0
 31 30  1  0  0  0  0
 32 26  1  0  0  0  0
 34 39  1  1  0  0  0
 34 38  1  0  0  0  0
 35 28  1  6  0  0  0
 35 34  1  0  0  0  0
 35 36  1  0  0  0  0
 36 37  1  0  0  0  0
 37 38  1  0  0  0  0
 38 41  1  1  0  0  0
 40 39  1  0  0  0  0
 42 41  1  0  0  0  0
M  END
>  <minimizedAffinity>
-6.60138416

$$$$

 OpenBabel03272502033D

 42 46  0  0  1  0  0  0  0  0999 V2000
   37.3940   26.1860   35.2770 C   0  0  0  0  0  0  0  0  0  0  0  0
   36.3240   25.9210   35.1350 H   0  0  0  0  0  0  0  0  0  0  0  0
   37.5020   27.0930   35.8780 H   0  0  0  0  0  0  0  0  0  0  0  0
   38.1080   25.0730   35.9940 C   0  0  0  0  0  0  0  0  0  0  0  0
   37.7950   24.5520   37.2400 C   0  0  0  0  0  0  0  0  0  0  0  0
   38.6940   23.5400   37.5420 C   0  0  0  0  0  0  0  0  0  0  0  0
   39.5230   23.4780   36.4710 N   0  0  0  0  0  0  0  0  0  0  0  0
   39.1730   24.3800   35.5660 N   0  0  0  0  0  0  0  0  0  0  0  0
   40.8500   21.5650   37.3980 N   0  0  0  0  0  0  0  0  0  0  0  0
   40.5710   22.5180   36.4810 C   0  0  0  0  0  0  0  0  0  0  0  0
   41.5140   22.3940   35.5250 N   0  0  0  0  0  0  0  0  0  0  0  0
   42.3620   21.3980   35.8190 C   0  0  0  0  0  0  0  0  0  0  0  0
   43.4560   20.9270   35.1390 C   0  0  0  0  0  0  0  0  0  0  0  0
   44.1480   19.8960   35.6630 N   0  0  0  0  0  0  0  0  0  0  0  0
   43.7460   19.3590   36.8430 C   0  0  0  0  0  0  0  0  0  0  0  0
   42.6640   19.8290   37.5130 N   0  0  0  0  0  0  0  0  0  0  0  0
   41.9500   20.8580   37.0140 C   0  0  0  0  0  0  0  0  0  0  0  0
   36.9710   24.9100   37.8470 H   0  0  0  0  0  0  0  0  0  0  0  0
   38.6820   22.9560   38.4610 H   0  0  0  0  0  0  0  0  0  0  0  0
   40.3150   21.3870   38.2630 H   0  0  0  0  0  0  0  0  0  0  0  0
   43.7630   21.3710   34.1950 H   0  0  0  0  0  0  0  0  0  0  0  0
   44.3380   18.5380   37.2120 H   0  0  0  0  0  0  0  0  0  0  0  0
   38.0330   26.2770   33.9210 C   0  0  0  0  0  0  0  0  0  0  0  0
   38.1730   27.3480   33.6100 H   0  0  0  0  0  0  0  0  0  0  0  0
   39.0510   25.8400   33.8920 H   0  0  0  0  0  0  0  0  0  0  0  0
   35.5420   25.8940   31.1960 C   0  0  0  0  0  0  0  0  0  0  0  0
   35.5440   24.4870   31.0050 C   0  0  0  0  0  0  0  0  0  0  0  0
   36.3960   23.7060   31.8120 C   0  0  0  0  0  0  0  0  0  0  0  0
   37.1710   24.3390   32.7290 N   0  0  0  0  0  0  0  0  0  0  0  0
   37.1350   25.6840   32.8760 C   0  0  0  0  0  0  0  0  0  0  0  0
   36.3410   26.4160   32.1240 N   0  0  0  0  0  0  0  0  0  0  0  0
   34.9000   26.5040   30.5900 H   0  0  0  0  0  0  0  0  0  0  0  0
   34.9020   24.0820   30.2590 H   0  0  0  0  0  0  0  0  0  0  0  0
   36.9560   21.5960   32.8630 C   0  0  1  0  0  3  0  0  0  0  0  0
   36.4050   22.2460   31.6200 C   0  0  1  0  0  3  0  0  0  0  0  0
   35.1540   21.7430   31.3770 O   0  0  0  0  0  0  0  0  0  0  0  0
   34.9360   20.6350   32.1740 C   0  0  0  0  0  2  0  0  0  0  0  0
   36.2550   20.2560   32.7960 C   0  0  1  0  0  3  0  0  0  0  0  0
   38.3520   21.4560   32.7320 O   0  0  0  0  0  0  0  0  0  0  0  0
   38.7430   22.2920   32.3750 H   0  0  0  0  0  0  0  0  0  0  0  0
   36.9360   19.3660   31.9760 O   0  0  0  0  0  0  0  0  0  0  0  0
   36.7510   19.6720   31.0420 H   0  0  0  0  0  0  0  0  0  0  0  0
  1  3  1  0  0  0  0
  1  4  1  0  0  0  0
  2  1  1  0  0  0  0
  4  5  1  0  0  0  0
  5  6  2  0  0  0  0
  5 18  1  0  0  0  0
  6 19  1  0  0  0  0
  7 10  1  0  0  0  0
  7  6  1  0  0  0  0
  8  4  2  0  0  0  0
  8  7  1  0  0  0  0
  9 20  1  0  0  0  0
 10  9  1  0  0  0  0
 11 12  1  0  0  0  0
 11 10  2  0  0  0  0
 12 17  1  0  0  0  0
 13 14  1  0  0  0  0
 13 12  2  0  0  0  0
 14 15  2  0  0  0  0
 15 22  1  0  0  0  0
 15 16  1  0  0  0  0
 17  9  1  0  0  0  0
 17 16  2  0  0  0  0
 21 13  1  0  0  0  0
 23  1  1  0  0  0  0
 24 23  1  0  0  0  0
 25 23  1  0  0  0  0
 26 31  1  0  0  0  0
 27 26  2  0  0  0  0
 27 28  1  0  0  0  0
 28 29  2  0  0  0  0
 29 30  1  0  0  0  0
 30 23  1  0  0  0  0
 31 30  2  0  0  0  0
 32 26  1  0  0  0  0
 33 27  1  0  0  0  0
 34 39  1  6  0  0  0
 35 28  1  1  0  0  0
 35 34  1  0  0  0  0
 36 35  1  0  0  0  0
 36 37  1  0  0  0  0
 37 38  1  0  0  0  0
 38 41  1  6  0  0  0
 38 34  1  0  0  0  0
 40 39  1  0  0  0  0
 42 41  1  0  0  0  0
M  END
>  <minimizedAffinity>
-6.28285885

$$$$

 OpenBabel03272502033D

 42 46  0  0  1  0  0  0  0  0999 V2000
   36.3240   22.2580   31.7720 C   0  0  0  0  0  0  0  0  0  0  0  0
   36.0710   22.2560   32.8540 H   0  0  0  0  0  0  0  0  0  0  0  0
   35.4740   21.9320   31.1650 H   0  0  0  0  0  0  0  0  0  0  0  0
   36.6920   23.6500   31.3340 C   0  0  0  0  0  0  0  0  0  0  0  0
   37.7430   24.0090   30.5050 C   0  0  0  0  0  0  0  0  0  0  0  0
   37.7400   25.3870   30.3480 C   0  0  0  0  0  0  0  0  0  0  0  0
   36.6870   25.8200   31.0850 N   0  0  0  0  0  0  0  0  0  0  0  0
   36.0770   24.7950   31.6600 N   0  0  0  0  0  0  0  0  0  0  0  0
   37.0250   28.2240   30.4610 N   0  0  0  0  0  0  0  0  0  0  0  0
   36.4170   27.2150   31.1240 C   0  0  0  0  0  0  0  0  0  0  0  0
   35.4560   27.7950   31.8720 N   0  0  0  0  0  0  0  0  0  0  0  0
   35.4500   29.1240   31.6930 C   0  0  0  0  0  0  0  0  0  0  0  0
   34.6550   30.0950   32.2450 C   0  0  0  0  0  0  0  0  0  0  0  0
   34.8610   31.3790   31.8880 N   0  0  0  0  0  0  0  0  0  0  0  0
   35.8450   31.6700   31.0010 C   0  0  0  0  0  0  0  0  0  0  0  0
   36.6300   30.7060   30.4580 N   0  0  0  0  0  0  0  0  0  0  0  0
   36.4480   29.4120   30.7930 C   0  0  0  0  0  0  0  0  0  0  0  0
   38.4340   23.2940   30.0720 H   0  0  0  0  0  0  0  0  0  0  0  0
   38.4570   25.9420   29.7460 H   0  0  0  0  0  0  0  0  0  0  0  0
   37.8100   28.1210   29.7980 H   0  0  0  0  0  0  0  0  0  0  0  0
   33.8720   29.8410   32.9550 H   0  0  0  0  0  0  0  0  0  0  0  0
   35.9630   32.7120   30.7540 H   0  0  0  0  0  0  0  0  0  0  0  0
   37.5610   21.4270   31.5830 C   0  0  0  0  0  0  0  0  0  0  0  0
   37.3350   20.3330   31.7040 H   0  0  0  0  0  0  0  0  0  0  0  0
   37.9890   21.5150   30.5650 H   0  0  0  0  0  0  0  0  0  0  0  0
   40.7440   22.1850   33.3330 C   0  0  0  0  0  0  0  0  0  0  0  0
   40.3090   22.2940   34.6800 C   0  0  0  0  0  0  0  0  0  0  0  0
   38.9390   22.1060   34.9550 C   0  0  0  0  0  0  0  0  0  0  0  0
   38.1080   21.8300   33.9180 N   0  0  0  0  0  0  0  0  0  0  0  0
   38.5690   21.7360   32.6490 C   0  0  0  0  0  0  0  0  0  0  0  0
   39.8460   21.9110   32.3890 N   0  0  0  0  0  0  0  0  0  0  0  0
   41.7840   22.3260   33.1050 H   0  0  0  0  0  0  0  0  0  0  0  0
   41.0370   22.5150   35.4250 H   0  0  0  0  0  0  0  0  0  0  0  0
   39.6250   22.7020   37.2010 C   0  0  1  0  0  3  0  0  0  0  0  0
   38.4790   22.2180   36.3490 C   0  0  1  0  0  3  0  0  0  0  0  0
   37.4310   23.0910   36.4860 O   0  0  0  0  0  0  0  0  0  0  0  0
   37.6720   23.9450   37.5450 C   0  0  0  0  0  2  0  0  0  0  0  0
   38.8610   23.4090   38.3000 C   0  0  1  0  0  3  0  0  0  0  0  0
   40.3340   21.5880   37.6980 O   0  0  0  0  0  0  0  0  0  0  0  0
   40.4750   20.9290   36.9750 H   0  0  0  0  0  0  0  0  0  0  0  0
   38.4460   22.5210   39.2840 O   0  0  0  0  0  0  0  0  0  0  0  0
   37.6830   22.0160   38.8800 H   0  0  0  0  0  0  0  0  0  0  0  0
  1  2  1  0  0  0  0
  3  1  1  0  0  0  0
  4  8  2  0  0  0  0
  4  1  1  0  0  0  0
  5  4  1  0  0  0  0
  6  5  2  0  0  0  0
  6  7  1  0  0  0  0
  7 10  1  0  0  0  0
  7  8  1  0  0  0  0
  9 17  1  0  0  0  0
  9 10  1  0  0  0  0
 10 11  2  0  0  0  0
 12 11  1  0  0  0  0
 12 13  1  0  0  0  0
 13 21  1  0  0  0  0
 14 13  2  0  0  0  0
 15 14  1  0  0  0  0
 16 17  1  0  0  0  0
 16 15  2  0  0  0  0
 17 12  2  0  0  0  0
 18  5  1  0  0  0  0
 19  6  1  0  0  0  0
 20  9  1  0  0  0  0
 22 15  1  0  0  0  0
 23 24  1  0  0  0  0
 23  1  1  0  0  0  0
 23 30  1  0  0  0  0
 25 23  1  0  0  0  0
 26 27  1  0  0  0  0
 27 28  2  0  0  0  0
 27 33  1  0  0  0  0
 29 28  1  0  0  0  0
 30 29  2  0  0  0  0
 31 30  1  0  0  0  0
 31 26  2  0  0  0  0
 32 26  1  0  0  0  0
 34 39  1  1  0  0  0
 34 38  1  0  0  0  0
 35 28  1  6  0  0  0
 35 36  1  0  0  0  0
 35 34  1  0  0  0  0
 36 37  1  0  0  0  0
 37 38  1  0  0  0  0
 38 41  1  1  0  0  0
 40 39  1  0  0  0  0
 42 41  1  0  0  0  0
M  END
>  <minimizedAffinity>
-6.26358461

$$$$

 OpenBabel03272502033D

 42 46  0  0  1  0  0  0  0  0999 V2000
   38.4470   25.0770   31.9330 C   0  0  0  0  0  0  0  0  0  0  0  0
   39.2930   25.4450   31.3140 H   0  0  0  0  0  0  0  0  0  0  0  0
   38.7750   24.8290   32.9460 H   0  0  0  0  0  0  0  0  0  0  0  0
   37.3880   26.1400   32.0410 C   0  0  0  0  0  0  0  0  0  0  0  0
   36.3270   26.3470   31.1740 C   0  0  0  0  0  0  0  0  0  0  0  0
   35.5830   27.4270   31.6260 C   0  0  0  0  0  0  0  0  0  0  0  0
   36.2160   27.8410   32.7520 N   0  0  0  0  0  0  0  0  0  0  0  0
   37.2730   27.0810   32.9900 N   0  0  0  0  0  0  0  0  0  0  0  0
   34.5540   29.6570   33.2190 N   0  0  0  0  0  0  0  0  0  0  0  0
   35.6810   28.9520   33.4580 C   0  0  0  0  0  0  0  0  0  0  0  0
   36.2440   29.5200   34.5450 N   0  0  0  0  0  0  0  0  0  0  0  0
   35.5020   30.5480   34.9830 C   0  0  0  0  0  0  0  0  0  0  0  0
   35.6930   31.3970   36.0430 C   0  0  0  0  0  0  0  0  0  0  0  0
   34.7800   32.3640   36.2680 N   0  0  0  0  0  0  0  0  0  0  0  0
   33.7080   32.4670   35.4430 C   0  0  0  0  0  0  0  0  0  0  0  0
   33.5240   31.6250   34.3960 N   0  0  0  0  0  0  0  0  0  0  0  0
   34.4180   30.6470   34.1450 C   0  0  0  0  0  0  0  0  0  0  0  0
   36.1460   25.7390   30.2950 H   0  0  0  0  0  0  0  0  0  0  0  0
   34.6900   27.8120   31.1350 H   0  0  0  0  0  0  0  0  0  0  0  0
   33.8840   29.4800   32.4520 H   0  0  0  0  0  0  0  0  0  0  0  0
   36.5590   31.2980   36.6920 H   0  0  0  0  0  0  0  0  0  0  0  0
   33.0130   33.2580   35.6730 H   0  0  0  0  0  0  0  0  0  0  0  0
   37.8040   23.9300   31.2060 C   0  0  0  0  0  0  0  0  0  0  0  0
   36.9160   24.2750   30.6090 H   0  0  0  0  0  0  0  0  0  0  0  0
   38.4760   23.4590   30.4610 H   0  0  0  0  0  0  0  0  0  0  0  0
   35.7880   21.2150   32.7340 C   0  0  0  0  0  0  0  0  0  0  0  0
   36.3340   21.1600   34.0440 C   0  0  0  0  0  0  0  0  0  0  0  0
   37.3750   22.0510   34.3700 C   0  0  0  0  0  0  0  0  0  0  0  0
   37.8040   22.9160   33.4160 N   0  0  0  0  0  0  0  0  0  0  0  0
   37.2530   22.9330   32.1800 C   0  0  0  0  0  0  0  0  0  0  0  0
   36.2810   22.1020   31.8720 N   0  0  0  0  0  0  0  0  0  0  0  0
   34.9950   20.5430   32.4680 H   0  0  0  0  0  0  0  0  0  0  0  0
   35.9320   20.4450   34.7230 H   0  0  0  0  0  0  0  0  0  0  0  0
   39.1810   22.8640   35.7660 C   0  0  1  0  0  3  0  0  0  0  0  0
   37.9470   21.9990   35.7260 C   0  0  1  0  0  3  0  0  0  0  0  0
   37.0690   22.4400   36.6820 O   0  0  0  0  0  0  0  0  0  0  0  0
   37.7080   23.3300   37.5250 C   0  0  0  0  0  2  0  0  0  0  0  0
   39.1830   23.2580   37.2280 C   0  0  1  0  0  3  0  0  0  0  0  0
   40.3060   22.0800   35.4400 O   0  0  0  0  0  0  0  0  0  0  0  0
   40.1050   21.5110   34.6570 H   0  0  0  0  0  0  0  0  0  0  0  0
   39.7860   22.2860   38.0160 O   0  0  0  0  0  0  0  0  0  0  0  0
   39.1220   21.5390   38.0690 H   0  0  0  0  0  0  0  0  0  0  0  0
  1  4  1  0  0  0  0
  1  3  1  0  0  0  0
  2  1  1  0  0  0  0
  4  8  2  0  0  0  0
  5  6  2  0  0  0  0
  5  4  1  0  0  0  0
  6  7  1  0  0  0  0
  7  8  1  0  0  0  0
  7 10  1  0  0  0  0
  9 10  1  0  0  0  0
  9 17  1  0  0  0  0
 10 11  2  0  0  0  0
 11 12  1  0  0  0  0
 12 13  1  0  0  0  0
 13 14  2  0  0  0  0
 13 21  1  0  0  0  0
 15 22  1  0  0  0  0
 15 14  1  0  0  0  0
 16 15  2  0  0  0  0
 17 16  1  0  0  0  0
 17 12  2  0  0  0  0
 18  5  1  0  0  0  0
 19  6  1  0  0  0  0
 20  9  1  0  0  0  0
 23  1  1  0  0  0  0
 23 30  1  0  0  0  0
 24 23  1  0  0  0  0
 25 23  1  0  0  0  0
 26 27  1  0  0  0  0
 27 28  2  0  0  0  0
 27 33  1  0  0  0  0
 29 28  1  0  0  0  0
 30 29  2  0  0  0  0
 31 30  1  0  0  0  0
 31 26  2  0  0  0  0
 32 26  1  0  0  0  0
 34 39  1  1  0  0  0
 34 38  1  0  0  0  0
 35 28  1  6  0  0  0
 35 34  1  0  0  0  0
 35 36  1  0  0  0  0
 36 37  1  0  0  0  0
 38 37  1  0  0  0  0
 38 41  1  1  0  0  0
 40 39  1  0  0  0  0
 41 42  1  0  0  0  0
M  END
>  <minimizedAffinity>
-6.21306181

$$$$

 OpenBabel03272502033D

 42 46  0  0  1  0  0  0  0  0999 V2000
   37.5160   28.1130   30.4340 C   0  0  0  0  0  0  0  0  0  0  0  0
   38.0840   29.0650   30.3700 H   0  0  0  0  0  0  0  0  0  0  0  0
   37.3480   27.6830   29.4430 H   0  0  0  0  0  0  0  0  0  0  0  0
   38.2890   27.1080   31.2440 C   0  0  0  0  0  0  0  0  0  0  0  0
   39.4060   26.3940   30.8360 C   0  0  0  0  0  0  0  0  0  0  0  0
   39.8170   25.5740   31.8760 C   0  0  0  0  0  0  0  0  0  0  0  0
   38.9390   25.8150   32.8810 N   0  0  0  0  0  0  0  0  0  0  0  0
   38.0460   26.7170   32.5030 N   0  0  0  0  0  0  0  0  0  0  0  0
   40.0750   24.2490   34.4740 N   0  0  0  0  0  0  0  0  0  0  0  0
   39.1020   25.1110   34.1050 C   0  0  0  0  0  0  0  0  0  0  0  0
   38.2640   25.1920   35.1600 N   0  0  0  0  0  0  0  0  0  0  0  0
   38.6880   24.4110   36.1640 C   0  0  0  0  0  0  0  0  0  0  0  0
   38.1520   24.1880   37.4070 C   0  0  0  0  0  0  0  0  0  0  0  0
   38.7870   23.3400   38.2410 N   0  0  0  0  0  0  0  0  0  0  0  0
   39.9300   22.7350   37.8280 C   0  0  0  0  0  0  0  0  0  0  0  0
   40.4550   22.9590   36.5970 N   0  0  0  0  0  0  0  0  0  0  0  0
   39.8450   23.8020   35.7400 C   0  0  0  0  0  0  0  0  0  0  0  0
   39.8500   26.4920   29.8530 H   0  0  0  0  0  0  0  0  0  0  0  0
   40.6730   24.9020   31.8310 H   0  0  0  0  0  0  0  0  0  0  0  0
   40.8800   23.9650   33.8930 H   0  0  0  0  0  0  0  0  0  0  0  0
   37.2350   24.6810   37.7190 H   0  0  0  0  0  0  0  0  0  0  0  0
   40.3920   22.0690   38.5370 H   0  0  0  0  0  0  0  0  0  0  0  0
   36.2530   28.3760   31.2040 C   0  0  0  0  0  0  0  0  0  0  0  0
   35.3460   28.2310   30.5560 H   0  0  0  0  0  0  0  0  0  0  0  0
   36.1090   27.6770   32.0510 H   0  0  0  0  0  0  0  0  0  0  0  0
   36.5830   32.0720   31.2760 C   0  0  0  0  0  0  0  0  0  0  0  0
   36.0280   32.3820   32.5460 C   0  0  0  0  0  0  0  0  0  0  0  0
   35.5560   31.3200   33.3440 C   0  0  0  0  0  0  0  0  0  0  0  0
   35.6560   30.0570   32.8570 N   0  0  0  0  0  0  0  0  0  0  0  0
   36.1930   29.8100   31.6400 C   0  0  0  0  0  0  0  0  0  0  0  0
   36.6350   30.7980   30.8930 N   0  0  0  0  0  0  0  0  0  0  0  0
   36.9470   32.8680   30.6560 H   0  0  0  0  0  0  0  0  0  0  0  0
   35.9910   33.4040   32.8400 H   0  0  0  0  0  0  0  0  0  0  0  0
   36.0860   32.0590   35.5900 C   0  0  1  0  0  3  0  0  0  0  0  0
   34.9770   31.6330   34.6610 C   0  0  1  0  0  3  0  0  0  0  0  0
   34.0460   32.6370   34.5990 O   0  0  0  0  0  0  0  0  0  0  0  0
   34.2910   33.5610   35.5970 C   0  0  0  0  0  2  0  0  0  0  0  0
   35.3160   32.9650   36.5270 C   0  0  1  0  0  3  0  0  0  0  0  0
   36.5860   30.9250   36.2620 O   0  0  0  0  0  0  0  0  0  0  0  0
   36.7110   30.1810   35.6220 H   0  0  0  0  0  0  0  0  0  0  0  0
   34.6910   32.2430   37.5340 O   0  0  0  0  0  0  0  0  0  0  0  0
   33.9110   31.7960   37.0940 H   0  0  0  0  0  0  0  0  0  0  0  0
  1 23  1  0  0  0  0
  1  4  1  0  0  0  0
  2  1  1  0  0  0  0
  3  1  1  0  0  0  0
  4  8  2  0  0  0  0
  5  4  1  0  0  0  0
  5  6  2  0  0  0  0
  6  7  1  0  0  0  0
  7 10  1  0  0  0  0
  8  7  1  0  0  0  0
  9 17  1  0  0  0  0
 10  9  1  0  0  0  0
 10 11  2  0  0  0  0
 11 12  1  0  0  0  0
 12 13  1  0  0  0  0
 13 21  1  0  0  0  0
 13 14  2  0  0  0  0
 15 14  1  0  0  0  0
 15 22  1  0  0  0  0
 16 15  2  0  0  0  0
 17 12  2  0  0  0  0
 17 16  1  0  0  0  0
 18  5  1  0  0  0  0
 19  6  1  0  0  0  0
 20  9  1  0  0  0  0
 23 30  1  0  0  0  0
 23 25  1  0  0  0  0
 24 23  1  0  0  0  0
 26 27  1  0  0  0  0
 27 33  1  0  0  0  0
 27 28  2  0  0  0  0
 29 28  1  0  0  0  0
 30 29  2  0  0  0  0
 31 26  2  0  0  0  0
 31 30  1  0  0  0  0
 32 26  1  0  0  0  0
 34 39  1  1  0  0  0
 34 38  1  0  0  0  0
 35 28  1  6  0  0  0
 35 34  1  0  0  0  0
 36 35  1  0  0  0  0
 36 37  1  0  0  0  0
 37 38  1  0  0  0  0
 38 41  1  1  0  0  0
 40 39  1  0  0  0  0
 42 41  1  0  0  0  0
M  END
>  <minimizedAffinity>
-6.17360067

$$$$

 OpenBabel03272502033D

 42 46  0  0  1  0  0  0  0  0999 V2000
   35.8330   22.3290   32.0110 C   0  0  0  0  0  0  0  0  0  0  0  0
   35.8750   22.3180   33.1210 H   0  0  0  0  0  0  0  0  0  0  0  0
   34.8880   21.9180   31.6450 H   0  0  0  0  0  0  0  0  0  0  0  0
   35.9440   23.7420   31.5060 C   0  0  0  0  0  0  0  0  0  0  0  0
   34.8990   24.6160   31.2460 C   0  0  0  0  0  0  0  0  0  0  0  0
   35.4230   25.8180   30.7960 C   0  0  0  0  0  0  0  0  0  0  0  0
   36.7670   25.6380   30.7980 N   0  0  0  0  0  0  0  0  0  0  0  0
   37.0650   24.4170   31.2170 N   0  0  0  0  0  0  0  0  0  0  0  0
   37.2500   27.9720   30.0270 N   0  0  0  0  0  0  0  0  0  0  0  0
   37.5940   26.7140   30.3790 C   0  0  0  0  0  0  0  0  0  0  0  0
   38.9370   26.6540   30.2570 N   0  0  0  0  0  0  0  0  0  0  0  0
   39.4300   27.8300   29.8430 C   0  0  0  0  0  0  0  0  0  0  0  0
   40.7210   28.2160   29.5880 C   0  0  0  0  0  0  0  0  0  0  0  0
   40.9480   29.4790   29.1750 N   0  0  0  0  0  0  0  0  0  0  0  0
   39.8990   30.3260   29.0230 C   0  0  0  0  0  0  0  0  0  0  0  0
   38.6230   29.9400   29.2760 N   0  0  0  0  0  0  0  0  0  0  0  0
   38.3630   28.6830   29.6910 C   0  0  0  0  0  0  0  0  0  0  0  0
   33.8560   24.3570   31.3850 H   0  0  0  0  0  0  0  0  0  0  0  0
   34.8270   26.6860   30.5170 H   0  0  0  0  0  0  0  0  0  0  0  0
   36.2900   28.3520   30.0110 H   0  0  0  0  0  0  0  0  0  0  0  0
   41.5490   27.5230   29.7150 H   0  0  0  0  0  0  0  0  0  0  0  0
   40.1420   31.3220   28.6910 H   0  0  0  0  0  0  0  0  0  0  0  0
   37.0480   21.6120   31.4940 C   0  0  0  0  0  0  0  0  0  0  0  0
   36.8550   20.5090   31.3950 H   0  0  0  0  0  0  0  0  0  0  0  0
   37.3430   21.9390   30.4780 H   0  0  0  0  0  0  0  0  0  0  0  0
   40.4470   21.7490   32.9770 C   0  0  0  0  0  0  0  0  0  0  0  0
   40.1500   21.9350   34.3530 C   0  0  0  0  0  0  0  0  0  0  0  0
   38.7960   22.0090   34.7380 C   0  0  0  0  0  0  0  0  0  0  0  0
   37.8470   21.8990   33.7740 N   0  0  0  0  0  0  0  0  0  0  0  0
   38.1780   21.7220   32.4730 C   0  0  0  0  0  0  0  0  0  0  0  0
   39.4410   21.6530   32.1110 N   0  0  0  0  0  0  0  0  0  0  0  0
   41.4730   21.6910   32.6660 H   0  0  0  0  0  0  0  0  0  0  0  0
   40.9630   22.0120   35.0350 H   0  0  0  0  0  0  0  0  0  0  0  0
   39.7270   22.6460   36.8820 C   0  0  1  0  0  3  0  0  0  0  0  0
   38.4790   22.2030   36.1620 C   0  0  1  0  0  3  0  0  0  0  0  0
   37.5010   23.1430   36.3580 O   0  0  0  0  0  0  0  0  0  0  0  0
   37.8910   24.0210   37.3510 C   0  0  0  0  0  2  0  0  0  0  0  0
   39.1130   23.4420   38.0150 C   0  0  1  0  0  3  0  0  0  0  0  0
   40.4130   21.5110   37.3590 O   0  0  0  0  0  0  0  0  0  0  0  0
   40.4470   20.8170   36.6550 H   0  0  0  0  0  0  0  0  0  0  0  0
   38.7440   22.6190   39.0710 O   0  0  0  0  0  0  0  0  0  0  0  0
   37.9170   22.1480   38.7630 H   0  0  0  0  0  0  0  0  0  0  0  0
  1  2  1  0  0  0  0
  3  1  1  0  0  0  0
  4  1  1  0  0  0  0
  5 18  1  0  0  0  0
  5  4  1  0  0  0  0
  6  7  1  0  0  0  0
  6  5  2  0  0  0  0
  7  8  1  0  0  0  0
  8  4  2  0  0  0  0
  9 10  1  0  0  0  0
 10  7  1  0  0  0  0
 11 10  2  0  0  0  0
 12 11  1  0  0  0  0
 13 21  1  0  0  0  0
 13 12  2  0  0  0  0
 14 13  1  0  0  0  0
 15 14  2  0  0  0  0
 15 16  1  0  0  0  0
 16 17  2  0  0  0  0
 17 12  1  0  0  0  0
 17  9  1  0  0  0  0
 19  6  1  0  0  0  0
 20  9  1  0  0  0  0
 22 15  1  0  0  0  0
 23  1  1  0  0  0  0
 23 30  1  0  0  0  0
 24 23  1  0  0  0  0
 25 23  1  0  0  0  0
 26 27  1  0  0  0  0
 27 28  2  0  0  0  0
 27 33  1  0  0  0  0
 29 28  1  0  0  0  0
 30 29  2  0  0  0  0
 31 30  1  0  0  0  0
 31 26  2  0  0  0  0
 32 26  1  0  0  0  0
 34 39  1  1  0  0  0
 34 38  1  0  0  0  0
 35 28  1  6  0  0  0
 35 36  1  0  0  0  0
 35 34  1  0  0  0  0
 36 37  1  0  0  0  0
 37 38  1  0  0  0  0
 38 41  1  1  0  0  0
 40 39  1  0  0  0  0
 42 41  1  0  0  0  0
M  END
>  <minimizedAffinity>
-6.15965271

$$$$

 OpenBabel03272502033D

 42 46  0  0  1  0  0  0  0  0999 V2000
   37.5250   27.3740   30.9970 C   0  0  0  0  0  0  0  0  0  0  0  0
   37.0040   26.4230   30.7540 H   0  0  0  0  0  0  0  0  0  0  0  0
   38.1040   27.7380   30.1430 H   0  0  0  0  0  0  0  0  0  0  0  0
   36.5200   28.4340   31.3540 C   0  0  0  0  0  0  0  0  0  0  0  0
   36.2160   29.5720   30.6220 C   0  0  0  0  0  0  0  0  0  0  0  0
   35.2380   30.2890   31.2950 C   0  0  0  0  0  0  0  0  0  0  0  0
   34.9790   29.5650   32.4120 N   0  0  0  0  0  0  0  0  0  0  0  0
   35.7340   28.4780   32.4390 N   0  0  0  0  0  0  0  0  0  0  0  0
   33.1980   31.1330   33.2170 N   0  0  0  0  0  0  0  0  0  0  0  0
   34.0000   30.0510   33.3200 C   0  0  0  0  0  0  0  0  0  0  0  0
   33.6940   29.4800   34.5040 N   0  0  0  0  0  0  0  0  0  0  0  0
   32.7320   30.1720   35.1310 C   0  0  0  0  0  0  0  0  0  0  0  0
   32.1230   29.9570   36.3410 C   0  0  0  0  0  0  0  0  0  0  0  0
   31.1680   30.8180   36.7460 N   0  0  0  0  0  0  0  0  0  0  0  0
   30.8410   31.8670   35.9500 C   0  0  0  0  0  0  0  0  0  0  0  0
   31.4460   32.0760   34.7540 N   0  0  0  0  0  0  0  0  0  0  0  0
   32.4040   31.2320   34.3200 C   0  0  0  0  0  0  0  0  0  0  0  0
   36.6920   29.8210   29.6810 H   0  0  0  0  0  0  0  0  0  0  0  0
   34.8100   31.2270   30.9460 H   0  0  0  0  0  0  0  0  0  0  0  0
   33.1780   31.7940   32.4240 H   0  0  0  0  0  0  0  0  0  0  0  0
   32.4000   29.1110   36.9660 H   0  0  0  0  0  0  0  0  0  0  0  0
   30.0720   32.5210   36.3260 H   0  0  0  0  0  0  0  0  0  0  0  0
   38.3450   27.1500   32.2350 C   0  0  0  0  0  0  0  0  0  0  0  0
   39.4420   27.2770   32.0240 H   0  0  0  0  0  0  0  0  0  0  0  0
   38.1270   27.8840   33.0360 H   0  0  0  0  0  0  0  0  0  0  0  0
   37.4160   23.5640   32.4530 C   0  0  0  0  0  0  0  0  0  0  0  0
   38.0150   23.1900   33.6840 C   0  0  0  0  0  0  0  0  0  0  0  0
   38.7200   24.1720   34.4080 C   0  0  0  0  0  0  0  0  0  0  0  0
   38.7900   25.4250   33.8900 N   0  0  0  0  0  0  0  0  0  0  0  0
   38.2030   25.7360   32.7110 C   0  0  0  0  0  0  0  0  0  0  0  0
   37.5450   24.8210   32.0330 N   0  0  0  0  0  0  0  0  0  0  0  0
   36.8760   22.8280   31.8880 H   0  0  0  0  0  0  0  0  0  0  0  0
   37.9060   22.1810   34.0080 H   0  0  0  0  0  0  0  0  0  0  0  0
   39.0620   22.3350   35.9510 C   0  0  1  0  0  3  0  0  0  0  0  0
   39.3450   23.7920   35.6860 C   0  0  1  0  0  3  0  0  0  0  0  0
   40.7020   23.9830   35.6820 O   0  0  0  0  0  0  0  0  0  0  0  0
   41.3310   22.8600   36.1850 C   0  0  0  0  0  2  0  0  0  0  0  0
   40.2700   21.9770   36.7900 C   0  0  1  0  0  3  0  0  0  0  0  0
   37.8670   22.2230   36.6910 O   0  0  0  0  0  0  0  0  0  0  0  0
   37.1760   22.8190   36.3080 H   0  0  0  0  0  0  0  0  0  0  0  0
   40.0770   22.3030   38.1250 O   0  0  0  0  0  0  0  0  0  0  0  0
   40.1610   23.2980   38.1700 H   0  0  0  0  0  0  0  0  0  0  0  0
  1  4  1  0  0  0  0
  1 23  1  0  0  0  0
  2  1  1  0  0  0  0
  3  1  1  0  0  0  0
  4  8  2  0  0  0  0
  5  6  2  0  0  0  0
  5  4  1  0  0  0  0
  6  7  1  0  0  0  0
  7  8  1  0  0  0  0
  7 10  1  0  0  0  0
  9 10  1  0  0  0  0
  9 17  1  0  0  0  0
 10 11  2  0  0  0  0
 11 12  1  0  0  0  0
 12 13  1  0  0  0  0
 13 14  2  0  0  0  0
 13 21  1  0  0  0  0
 15 22  1  0  0  0  0
 15 14  1  0  0  0  0
 16 15  2  0  0  0  0
 17 16  1  0  0  0  0
 17 12  2  0  0  0  0
 18  5  1  0  0  0  0
 19  6  1  0  0  0  0
 20  9  1  0  0  0  0
 23 30  1  0  0  0  0
 23 25  1  0  0  0  0
 24 23  1  0  0  0  0
 26 27  1  0  0  0  0
 27 33  1  0  0  0  0
 27 28  2  0  0  0  0
 29 28  1  0  0  0  0
 30 29  2  0  0  0  0
 31 26  2  0  0  0  0
 31 30  1  0  0  0  0
 32 26  1  0  0  0  0
 34 39  1  1  0  0  0
 34 38  1  0  0  0  0
 35 28  1  6  0  0  0
 35 34  1  0  0  0  0
 36 35  1  0  0  0  0
 36 37  1  0  0  0  0
 37 38  1  0  0  0  0
 38 41  1  1  0  0  0
 40 39  1  0  0  0  0
 41 42  1  0  0  0  0
M  END
>  <minimizedAffinity>
-6.14041758

$$$$

 OpenBabel03272502033D

 42 46  0  0  1  0  0  0  0  0999 V2000
   39.7080   24.5220   30.6560 C   0  0  0  0  0  0  0  0  0  0  0  0
   39.6060   23.9540   29.7060 H   0  0  0  0  0  0  0  0  0  0  0  0
   40.7590   24.6770   30.9140 H   0  0  0  0  0  0  0  0  0  0  0  0
   39.0650   25.8750   30.5160 C   0  0  0  0  0  0  0  0  0  0  0  0
   39.5220   26.9370   29.7500 C   0  0  0  0  0  0  0  0  0  0  0  0
   38.6460   28.0020   29.8950 C   0  0  0  0  0  0  0  0  0  0  0  0
   37.6870   27.5550   30.7420 N   0  0  0  0  0  0  0  0  0  0  0  0
   37.9390   26.3060   31.1020 N   0  0  0  0  0  0  0  0  0  0  0  0
   36.3690   29.6840   30.6410 N   0  0  0  0  0  0  0  0  0  0  0  0
   36.6280   28.4360   31.0900 C   0  0  0  0  0  0  0  0  0  0  0  0
   35.6500   28.1560   31.9770 N   0  0  0  0  0  0  0  0  0  0  0  0
   34.8000   29.1870   32.0890 C   0  0  0  0  0  0  0  0  0  0  0  0
   33.6780   29.3380   32.8630 C   0  0  0  0  0  0  0  0  0  0  0  0
   32.9900   30.4950   32.7850 N   0  0  0  0  0  0  0  0  0  0  0  0
   33.4270   31.4710   31.9500 C   0  0  0  0  0  0  0  0  0  0  0  0
   34.5380   31.3170   31.1860 N   0  0  0  0  0  0  0  0  0  0  0  0
   35.2470   30.1710   31.2400 C   0  0  0  0  0  0  0  0  0  0  0  0
   40.4240   26.8960   29.1510 H   0  0  0  0  0  0  0  0  0  0  0  0
   38.7610   28.9670   29.4030 H   0  0  0  0  0  0  0  0  0  0  0  0
   36.9300   30.2020   29.9450 H   0  0  0  0  0  0  0  0  0  0  0  0
   33.3440   28.5440   33.5270 H   0  0  0  0  0  0  0  0  0  0  0  0
   32.8370   32.3720   31.9300 H   0  0  0  0  0  0  0  0  0  0  0  0
   38.9210   23.8010   31.7130 C   0  0  0  0  0  0  0  0  0  0  0  0
   37.9550   24.3320   31.9310 H   0  0  0  0  0  0  0  0  0  0  0  0
   38.6190   22.7800   31.4070 H   0  0  0  0  0  0  0  0  0  0  0  0
   41.6150   24.0770   34.2510 C   0  0  0  0  0  0  0  0  0  0  0  0
   40.9110   23.7750   35.4460 C   0  0  0  0  0  0  0  0  0  0  0  0
   39.5350   23.4850   35.3540 C   0  0  0  0  0  0  0  0  0  0  0  0
   38.9540   23.5100   34.1280 N   0  0  0  0  0  0  0  0  0  0  0  0
   39.6660   23.8030   33.0150 C   0  0  0  0  0  0  0  0  0  0  0  0
   40.9510   24.0750   33.0980 N   0  0  0  0  0  0  0  0  0  0  0  0
   42.6640   24.3000   34.3030 H   0  0  0  0  0  0  0  0  0  0  0  0
   41.4540   23.7810   36.3620 H   0  0  0  0  0  0  0  0  0  0  0  0
   39.7750   23.1070   37.7360 C   0  0  1  0  0  3  0  0  0  0  0  0
   38.7970   23.1720   36.5890 C   0  0  1  0  0  3  0  0  0  0  0  0
   37.8410   24.1090   36.8800 O   0  0  0  0  0  0  0  0  0  0  0  0
   37.9320   24.4710   38.2100 C   0  0  0  0  0  2  0  0  0  0  0  0
   38.8670   23.4990   38.8820 C   0  0  1  0  0  3  0  0  0  0  0  0
   40.2380   21.7820   37.8730 O   0  0  0  0  0  0  0  0  0  0  0  0
   40.4650   21.4110   36.9840 H   0  0  0  0  0  0  0  0  0  0  0  0
   38.1590   22.4070   39.3660 O   0  0  0  0  0  0  0  0  0  0  0  0
   37.4530   22.2240   38.6810 H   0  0  0  0  0  0  0  0  0  0  0  0
  1  3  1  0  0  0  0
  1 23  1  0  0  0  0
  2  1  1  0  0  0  0
  4  1  1  0  0  0  0
  4  8  2  0  0  0  0
  5  6  2  0  0  0  0
  5  4  1  0  0  0  0
  6  7  1  0  0  0  0
  7 10  1  0  0  0  0
  7  8  1  0  0  0  0
  9 10  1  0  0  0  0
  9 17  1  0  0  0  0
 10 11  2  0  0  0  0
 11 12  1  0  0  0  0
 12 13  1  0  0  0  0
 13 21  1  0  0  0  0
 14 13  2  0  0  0  0
 15 14  1  0  0  0  0
 16 17  1  0  0  0  0
 16 15  2  0  0  0  0
 17 12  2  0  0  0  0
 18  5  1  0  0  0  0
 19  6  1  0  0  0  0
 20  9  1  0  0  0  0
 22 15  1  0  0  0  0
 23 24  1  0  0  0  0
 23 30  1  0  0  0  0
 25 23  1  0  0  0  0
 26 32  1  0  0  0  0
 26 27  1  0  0  0  0
 27 33  1  0  0  0  0
 28 27  2  0  0  0  0
 29 28  1  0  0  0  0
 30 31  1  0  0  0  0
 30 29  2  0  0  0  0
 31 26  2  0  0  0  0
 34 39  1  1  0  0  0
 34 38  1  0  0  0  0
 35 28  1  6  0  0  0
 35 36  1  0  0  0  0
 35 34  1  0  0  0  0
 36 37  1  0  0  0  0
 37 38  1  0  0  0  0
 38 41  1  6  0  0  0
 40 39  1  0  0  0  0
 42 41  1  0  0  0  0
M  END
>  <minimizedAffinity>
-6.09682226

$$$$
