
 OpenBabel03272506313D

 34 36  0  0  1  0  0  0  0  0999 V2000
   38.7090   24.7830   33.9180 C   0  0  1  0  0  0  0  0  0  0  0  0
   39.3690   26.0850   33.8790 C   0  0  0  0  0  0  0  0  0  0  0  0
   38.8280   27.1340   34.8090 C   0  0  0  0  0  0  0  0  0  0  0  0
   38.3920   26.6470   36.1280 C   0  0  0  0  0  0  0  0  0  0  0  0
   37.7320   25.3240   36.1740 C   0  0  0  0  0  0  0  0  0  0  0  0
   38.4000   24.3000   35.3110 C   0  0  2  0  0  0  0  0  0  0  0  0
   39.4760   24.0160   33.5590 H   0  0  0  0  0  0  0  0  0  0  0  0
   40.4420   25.9390   34.2280 H   0  0  0  0  0  0  0  0  0  0  0  0
   39.5150   26.5310   32.8920 H   0  0  0  0  0  0  0  0  0  0  0  0
   37.9610   27.5980   34.2800 H   0  0  0  0  0  0  0  0  0  0  0  0
   39.6130   27.9160   34.9610 H   0  0  0  0  0  0  0  0  0  0  0  0
   37.7160   27.4110   36.5860 H   0  0  0  0  0  0  0  0  0  0  0  0
   39.2720   26.6230   36.8080 H   0  0  0  0  0  0  0  0  0  0  0  0
   37.6490   24.9930   37.2000 H   0  0  0  0  0  0  0  0  0  0  0  0
   36.6750   25.4760   35.8020 H   0  0  0  0  0  0  0  0  0  0  0  0
   37.9340   23.3250   35.3910 H   0  0  0  0  0  0  0  0  0  0  0  0
   36.8590   25.6270   32.4330 C   0  0  0  0  0  0  0  0  0  0  0  0
   37.6010   24.5750   32.9690 C   0  0  0  0  0  0  0  0  0  0  0  0
   37.2510   23.3130   32.5450 C   0  0  0  0  0  0  0  0  0  0  0  0
   36.2350   23.1530   31.6550 N   0  0  0  0  0  0  0  0  0  0  0  0
   35.5470   24.2020   31.1640 C   0  0  0  0  0  0  0  0  0  0  0  0
   35.8610   25.4600   31.5560 N   0  0  0  0  0  0  0  0  0  0  0  0
   37.0330   26.6610   32.6830 H   0  0  0  0  0  0  0  0  0  0  0  0
   37.7080   22.3980   32.8490 H   0  0  0  0  0  0  0  0  0  0  0  0
   34.7440   24.0460   30.4570 H   0  0  0  0  0  0  0  0  0  0  0  0
   39.6800   23.2850   37.2320 C   0  0  2  0  0  3  0  0  0  0  0  0
   39.7620   24.0680   35.9500 C   0  0  1  0  0  3  0  0  0  0  0  0
   40.5060   23.3190   35.0440 O   0  0  0  0  0  0  0  0  0  0  0  0
   40.6820   22.0440   35.5740 C   0  0  0  0  0  2  0  0  0  0  0  0
   40.8940   22.3700   37.0370 C   0  0  2  0  0  3  0  0  0  0  0  0
   38.5740   22.5110   37.3990 O   0  0  0  0  0  0  0  0  0  0  0  0
   38.3050   21.9210   36.6820 H   0  0  0  0  0  0  0  0  0  0  0  0
   40.8600   21.2830   37.8760 O   0  0  0  0  0  0  0  0  0  0  0  0
   39.9690   21.1570   38.2820 H   0  0  0  0  0  0  0  0  0  0  0  0
  1  7  1  6  0  0  0
  1  6  1  0  0  0  0
  2  1  1  0  0  0  0
  2  8  1  0  0  0  0
  2  3  1  0  0  0  0
  3 11  1  0  0  0  0
  3  4  1  0  0  0  0
  4  5  1  0  0  0  0
  4 12  1  0  0  0  0
  4 13  1  0  0  0  0
  5 14  1  0  0  0  0
  6 16  1  6  0  0  0
  6 27  1  0  0  0  0
  6  5  1  0  0  0  0
  9  2  1  0  0  0  0
 10  3  1  0  0  0  0
 15  5  1  0  0  0  0
 17 23  1  0  0  0  0
 17 18  1  0  0  0  0
 18  1  1  0  0  0  0
 19 24  1  0  0  0  0
 19 18  2  0  0  0  0
 20 19  1  0  0  0  0
 21 22  1  0  0  0  0
 21 20  2  0  0  0  0
 22 17  2  0  0  0  0
 25 21  1  0  0  0  0
 26 31  1  6  0  0  0
 27 28  1  6  0  0  0
 27 26  1  0  0  0  0
 28 29  1  0  0  0  0
 29 30  1  0  0  0  0
 30 26  1  0  0  0  0
 30 33  1  1  0  0  0
 32 31  1  0  0  0  0
 33 34  1  0  0  0  0
M  END
>  <minimizedAffinity>
-5.55350494

$$$$

 OpenBabel03272506313D

 34 36  0  0  1  0  0  0  0  0999 V2000
   38.4120   26.0250   34.1040 C   0  0  1  0  0  0  0  0  0  0  0  0
   39.2070   26.9570   34.8990 C   0  0  0  0  0  0  0  0  0  0  0  0
   40.6880   26.9560   34.6440 C   0  0  0  0  0  0  0  0  0  0  0  0
   41.0880   26.7680   33.2390 C   0  0  0  0  0  0  0  0  0  0  0  0
   40.2800   25.8320   32.4270 C   0  0  0  0  0  0  0  0  0  0  0  0
   38.8070   25.9750   32.6510 C   0  0  2  0  0  0  0  0  0  0  0  0
   37.3550   26.4550   34.0560 H   0  0  0  0  0  0  0  0  0  0  0  0
   38.8840   28.0110   34.6210 H   0  0  0  0  0  0  0  0  0  0  0  0
   39.0370   26.9490   35.9790 H   0  0  0  0  0  0  0  0  0  0  0  0
   41.1070   26.1270   35.2630 H   0  0  0  0  0  0  0  0  0  0  0  0
   41.1140   27.9240   35.0070 H   0  0  0  0  0  0  0  0  0  0  0  0
   42.1590   26.4480   33.2120 H   0  0  0  0  0  0  0  0  0  0  0  0
   41.0890   27.7590   32.7340 H   0  0  0  0  0  0  0  0  0  0  0  0
   40.5400   25.9370   31.3830 H   0  0  0  0  0  0  0  0  0  0  0  0
   40.5920   24.7880   32.7290 H   0  0  0  0  0  0  0  0  0  0  0  0
   38.2270   25.3170   32.0170 H   0  0  0  0  0  0  0  0  0  0  0  0
   38.0460   23.5400   33.9170 C   0  0  0  0  0  0  0  0  0  0  0  0
   38.1750   24.6940   34.6900 C   0  0  0  0  0  0  0  0  0  0  0  0
   38.0830   24.5190   36.0530 C   0  0  0  0  0  0  0  0  0  0  0  0
   37.8800   23.2770   36.5670 N   0  0  0  0  0  0  0  0  0  0  0  0
   37.7630   22.1900   35.7780 C   0  0  0  0  0  0  0  0  0  0  0  0
   37.8470   22.3200   34.4330 N   0  0  0  0  0  0  0  0  0  0  0  0
   38.0990   23.5400   32.8410 H   0  0  0  0  0  0  0  0  0  0  0  0
   38.1580   25.2860   36.7920 H   0  0  0  0  0  0  0  0  0  0  0  0
   37.6030   21.2140   36.2140 H   0  0  0  0  0  0  0  0  0  0  0  0
   38.4650   27.4090   30.6060 C   0  0  2  0  0  3  0  0  0  0  0  0
   38.4540   27.3530   32.1090 C   0  0  1  0  0  3  0  0  0  0  0  0
   37.1580   27.6280   32.5320 O   0  0  0  0  0  0  0  0  0  0  0  0
   36.3220   27.6100   31.4190 C   0  0  0  0  0  2  0  0  0  0  0  0
   37.2120   28.2650   30.3840 C   0  0  2  0  0  3  0  0  0  0  0  0
   38.3040   26.2250   29.9540 O   0  0  0  0  0  0  0  0  0  0  0  0
   37.5790   25.6430   30.2160 H   0  0  0  0  0  0  0  0  0  0  0  0
   36.7490   28.1750   29.0940 O   0  0  0  0  0  0  0  0  0  0  0  0
   37.1510   27.4160   28.6080 H   0  0  0  0  0  0  0  0  0  0  0  0
  1  7  1  6  0  0  0
  1 18  1  0  0  0  0
  1  2  1  0  0  0  0
  2  9  1  0  0  0  0
  3  2  1  0  0  0  0
  3 11  1  0  0  0  0
  3 10  1  0  0  0  0
  4  3  1  0  0  0  0
  5  6  1  0  0  0  0
  5 15  1  0  0  0  0
  5  4  1  0  0  0  0
  6 16  1  6  0  0  0
  6  1  1  0  0  0  0
  8  2  1  0  0  0  0
 12  4  1  0  0  0  0
 13  4  1  0  0  0  0
 14  5  1  0  0  0  0
 17 22  2  0  0  0  0
 17 18  1  0  0  0  0
 18 19  2  0  0  0  0
 19 20  1  0  0  0  0
 19 24  1  0  0  0  0
 21 25  1  0  0  0  0
 21 20  2  0  0  0  0
 22 21  1  0  0  0  0
 23 17  1  0  0  0  0
 26 31  1  6  0  0  0
 26 27  1  0  0  0  0
 27 28  1  6  0  0  0
 27  6  1  0  0  0  0
 29 28  1  0  0  0  0
 30 33  1  6  0  0  0
 30 26  1  0  0  0  0
 30 29  1  0  0  0  0
 31 32  1  0  0  0  0
 34 33  1  0  0  0  0
M  END
>  <minimizedAffinity>
-5.01379251

$$$$

 OpenBabel03272506313D

 34 36  0  0  1  0  0  0  0  0999 V2000
   39.7890   25.1850   34.2080 C   0  0  1  0  0  0  0  0  0  0  0  0
   40.1030   26.5250   34.6960 C   0  0  0  0  0  0  0  0  0  0  0  0
   39.0190   27.2240   35.4680 C   0  0  0  0  0  0  0  0  0  0  0  0
   38.2160   26.3620   36.3520 C   0  0  0  0  0  0  0  0  0  0  0  0
   37.9030   25.0010   35.8660 C   0  0  0  0  0  0  0  0  0  0  0  0
   39.0690   24.3250   35.2130 C   0  0  2  0  0  0  0  0  0  0  0  0
   40.7850   24.6390   34.0880 H   0  0  0  0  0  0  0  0  0  0  0  0
   40.9520   26.4290   35.4470 H   0  0  0  0  0  0  0  0  0  0  0  0
   40.5250   27.2250   33.9700 H   0  0  0  0  0  0  0  0  0  0  0  0
   38.3540   27.6960   34.7060 H   0  0  0  0  0  0  0  0  0  0  0  0
   39.4840   28.0310   36.0860 H   0  0  0  0  0  0  0  0  0  0  0  0
   37.2620   26.8920   36.5980 H   0  0  0  0  0  0  0  0  0  0  0  0
   38.7360   26.2740   37.3310 H   0  0  0  0  0  0  0  0  0  0  0  0
   37.4970   24.4090   36.6740 H   0  0  0  0  0  0  0  0  0  0  0  0
   37.0760   25.1100   35.1040 H   0  0  0  0  0  0  0  0  0  0  0  0
   38.8390   23.3130   34.9040 H   0  0  0  0  0  0  0  0  0  0  0  0
   38.5680   23.9560   32.3800 C   0  0  0  0  0  0  0  0  0  0  0  0
   39.2250   25.0930   32.8500 C   0  0  0  0  0  0  0  0  0  0  0  0
   39.3050   26.1490   31.9700 C   0  0  0  0  0  0  0  0  0  0  0  0
   38.7600   26.0430   30.7290 N   0  0  0  0  0  0  0  0  0  0  0  0
   38.1340   24.9220   30.3200 C   0  0  0  0  0  0  0  0  0  0  0  0
   38.0340   23.8610   31.1560 N   0  0  0  0  0  0  0  0  0  0  0  0
   38.4380   23.0630   32.9680 H   0  0  0  0  0  0  0  0  0  0  0  0
   39.7680   27.0920   32.1590 H   0  0  0  0  0  0  0  0  0  0  0  0
   37.7090   24.8640   29.3270 H   0  0  0  0  0  0  0  0  0  0  0  0
   39.7030   22.9760   37.2460 C   0  0  2  0  0  3  0  0  0  0  0  0
   40.0800   24.1080   36.3290 C   0  0  1  0  0  3  0  0  0  0  0  0
   41.2840   23.7740   35.7180 O   0  0  0  0  0  0  0  0  0  0  0  0
   41.5560   22.4360   35.9950 C   0  0  0  0  0  2  0  0  0  0  0  0
   41.0860   22.3410   37.4300 C   0  0  2  0  0  3  0  0  0  0  0  0
   38.8570   22.0400   36.7380 O   0  0  0  0  0  0  0  0  0  0  0  0
   39.0520   21.6580   35.8720 H   0  0  0  0  0  0  0  0  0  0  0  0
   41.0030   21.0600   37.9200 O   0  0  0  0  0  0  0  0  0  0  0  0
   40.0890   20.6950   37.8490 H   0  0  0  0  0  0  0  0  0  0  0  0
  1  7  1  6  0  0  0
  1  2  1  0  0  0  0
  1  6  1  0  0  0  0
  2  8  1  0  0  0  0
  2  3  1  0  0  0  0
  3 11  1  0  0  0  0
  3  4  1  0  0  0  0
  4 12  1  0  0  0  0
  4 13  1  0  0  0  0
  5  4  1  0  0  0  0
  5 14  1  0  0  0  0
  6 16  1  6  0  0  0
  6  5  1  0  0  0  0
  6 27  1  0  0  0  0
  9  2  1  0  0  0  0
 10  3  1  0  0  0  0
 15  5  1  0  0  0  0
 17 18  1  0  0  0  0
 17 23  1  0  0  0  0
 18  1  1  0  0  0  0
 19 24  1  0  0  0  0
 19 18  2  0  0  0  0
 20 19  1  0  0  0  0
 21 20  2  0  0  0  0
 21 22  1  0  0  0  0
 22 17  2  0  0  0  0
 25 21  1  0  0  0  0
 26 31  1  6  0  0  0
 26 30  1  0  0  0  0
 27 28  1  6  0  0  0
 27 26  1  0  0  0  0
 28 29  1  0  0  0  0
 29 30  1  0  0  0  0
 30 33  1  6  0  0  0
 32 31  1  0  0  0  0
 34 33  1  0  0  0  0
M  END
>  <minimizedAffinity>
-4.92297745

$$$$

 OpenBabel03272506313D

 34 36  0  0  1  0  0  0  0  0999 V2000
   38.5830   26.3980   33.0100 C   0  0  1  0  0  0  0  0  0  0  0  0
   39.7500   26.5130   32.1400 C   0  0  0  0  0  0  0  0  0  0  0  0
   40.9420   27.2270   32.7130 C   0  0  0  0  0  0  0  0  0  0  0  0
   41.1970   26.9840   34.1430 C   0  0  0  0  0  0  0  0  0  0  0  0
   40.0180   26.8580   35.0270 C   0  0  0  0  0  0  0  0  0  0  0  0
   38.9190   26.0330   34.4320 C   0  0  2  0  0  0  0  0  0  0  0  0
   37.9980   25.4840   32.6550 H   0  0  0  0  0  0  0  0  0  0  0  0
   40.1340   25.4620   31.9370 H   0  0  0  0  0  0  0  0  0  0  0  0
   39.5720   26.8840   31.1270 H   0  0  0  0  0  0  0  0  0  0  0  0
   40.7570   28.3150   32.5490 H   0  0  0  0  0  0  0  0  0  0  0  0
   41.8500   26.9260   32.1340 H   0  0  0  0  0  0  0  0  0  0  0  0
   41.8610   27.7960   34.5300 H   0  0  0  0  0  0  0  0  0  0  0  0
   41.8110   26.0610   34.2430 H   0  0  0  0  0  0  0  0  0  0  0  0
   40.3250   26.4810   35.9930 H   0  0  0  0  0  0  0  0  0  0  0  0
   39.6300   27.9050   35.2020 H   0  0  0  0  0  0  0  0  0  0  0  0
   38.0820   25.9110   35.1090 H   0  0  0  0  0  0  0  0  0  0  0  0
   36.7190   27.8060   33.9540 C   0  0  0  0  0  0  0  0  0  0  0  0
   37.5740   27.4670   32.9040 C   0  0  0  0  0  0  0  0  0  0  0  0
   37.4340   28.2060   31.7510 C   0  0  0  0  0  0  0  0  0  0  0  0
   36.5060   29.1980   31.6880 N   0  0  0  0  0  0  0  0  0  0  0  0
   35.7020   29.4890   32.7300 C   0  0  0  0  0  0  0  0  0  0  0  0
   35.8090   28.7840   33.8820 N   0  0  0  0  0  0  0  0  0  0  0  0
   36.7270   27.3050   34.9080 H   0  0  0  0  0  0  0  0  0  0  0  0
   38.0010   28.0860   30.8550 H   0  0  0  0  0  0  0  0  0  0  0  0
   34.9730   30.2830   32.6530 H   0  0  0  0  0  0  0  0  0  0  0  0
   39.5320   23.9290   35.6800 C   0  0  2  0  0  3  0  0  0  0  0  0
   39.4830   24.6220   34.3450 C   0  0  1  0  0  3  0  0  0  0  0  0
   38.6230   23.8990   33.5250 O   0  0  0  0  0  0  0  0  0  0  0  0
   37.9540   22.9640   34.3120 C   0  0  0  0  0  2  0  0  0  0  0  0
   39.0640   22.5350   35.2480 C   0  0  2  0  0  3  0  0  0  0  0  0
   38.6850   24.3970   36.6360 O   0  0  0  0  0  0  0  0  0  0  0  0
   37.7540   24.5260   36.4120 H   0  0  0  0  0  0  0  0  0  0  0  0
   38.6480   21.7790   36.3170 O   0  0  0  0  0  0  0  0  0  0  0  0
   38.5050   22.3260   37.1250 H   0  0  0  0  0  0  0  0  0  0  0  0
  1  7  1  6  0  0  0
  1  6  1  0  0  0  0
  2  3  1  0  0  0  0
  2  1  1  0  0  0  0
  3  4  1  0  0  0  0
  4 13  1  0  0  0  0
  4 12  1  0  0  0  0
  4  5  1  0  0  0  0
  5 15  1  0  0  0  0
  5 14  1  0  0  0  0
  6  5  1  0  0  0  0
  6 16  1  1  0  0  0
  8  2  1  0  0  0  0
  9  2  1  0  0  0  0
 10  3  1  0  0  0  0
 11  3  1  0  0  0  0
 17 23  1  0  0  0  0
 18  1  1  0  0  0  0
 18 17  2  0  0  0  0
 19 18  1  0  0  0  0
 20 19  2  0  0  0  0
 20 21  1  0  0  0  0
 21 22  2  0  0  0  0
 22 17  1  0  0  0  0
 24 19  1  0  0  0  0
 25 21  1  0  0  0  0
 26 31  1  1  0  0  0
 27 28  1  6  0  0  0
 27  6  1  0  0  0  0
 27 26  1  0  0  0  0
 28 29  1  0  0  0  0
 29 30  1  0  0  0  0
 30 26  1  0  0  0  0
 30 33  1  1  0  0  0
 32 31  1  0  0  0  0
 33 34  1  0  0  0  0
M  END
>  <minimizedAffinity>
-4.87840939

$$$$

 OpenBabel03272506313D

 34 36  0  0  1  0  0  0  0  0999 V2000
   39.2670   26.2060   34.3710 C   0  0  1  0  0  0  0  0  0  0  0  0
   40.4540   27.0270   34.5950 C   0  0  0  0  0  0  0  0  0  0  0  0
   41.7130   26.5780   33.9080 C   0  0  0  0  0  0  0  0  0  0  0  0
   41.5330   26.0200   32.5580 C   0  0  0  0  0  0  0  0  0  0  0  0
   40.3280   25.1960   32.3230 C   0  0  0  0  0  0  0  0  0  0  0  0
   39.0910   25.7700   32.9400 C   0  0  2  0  0  0  0  0  0  0  0  0
   38.3640   26.8860   34.5320 H   0  0  0  0  0  0  0  0  0  0  0  0
   40.2530   28.0540   34.1490 H   0  0  0  0  0  0  0  0  0  0  0  0
   40.6890   27.2760   35.6330 H   0  0  0  0  0  0  0  0  0  0  0  0
   42.1670   25.8040   34.5720 H   0  0  0  0  0  0  0  0  0  0  0  0
   42.4130   27.4480   33.8420 H   0  0  0  0  0  0  0  0  0  0  0  0
   42.4420   25.4250   32.2930 H   0  0  0  0  0  0  0  0  0  0  0  0
   41.5350   26.8560   31.8240 H   0  0  0  0  0  0  0  0  0  0  0  0
   40.2050   25.0220   31.2630 H   0  0  0  0  0  0  0  0  0  0  0  0
   40.5290   24.1870   32.7900 H   0  0  0  0  0  0  0  0  0  0  0  0
   38.2090   25.1820   32.7200 H   0  0  0  0  0  0  0  0  0  0  0  0
   38.0730   25.2370   36.3660 C   0  0  0  0  0  0  0  0  0  0  0  0
   39.0160   25.1280   35.3440 C   0  0  0  0  0  0  0  0  0  0  0  0
   39.7010   23.9350   35.2810 C   0  0  0  0  0  0  0  0  0  0  0  0
   39.4370   22.9520   36.1820 N   0  0  0  0  0  0  0  0  0  0  0  0
   38.5140   23.1040   37.1530 C   0  0  0  0  0  0  0  0  0  0  0  0
   37.8200   24.2630   37.2480 N   0  0  0  0  0  0  0  0  0  0  0  0
   37.4710   26.1180   36.5230 H   0  0  0  0  0  0  0  0  0  0  0  0
   40.4530   23.6790   34.5690 H   0  0  0  0  0  0  0  0  0  0  0  0
   38.3240   22.3060   37.8560 H   0  0  0  0  0  0  0  0  0  0  0  0
   38.3410   26.8160   30.7710 C   0  0  2  0  0  3  0  0  0  0  0  0
   38.8260   27.0590   32.1750 C   0  0  1  0  0  3  0  0  0  0  0  0
   37.8180   27.7300   32.8590 O   0  0  0  0  0  0  0  0  0  0  0  0
   36.6680   27.7060   32.0740 C   0  0  0  0  0  2  0  0  0  0  0  0
   37.2600   27.9000   30.6950 C   0  0  2  0  0  3  0  0  0  0  0  0
   37.7640   25.6070   30.5300 O   0  0  0  0  0  0  0  0  0  0  0  0
   37.0780   25.2910   31.1320 H   0  0  0  0  0  0  0  0  0  0  0  0
   36.3830   27.6800   29.6610 O   0  0  0  0  0  0  0  0  0  0  0  0
   36.4570   26.7640   29.3010 H   0  0  0  0  0  0  0  0  0  0  0  0
  1  7  1  1  0  0  0
  1  2  1  0  0  0  0
  1 18  1  0  0  0  0
  2  9  1  0  0  0  0
  3 10  1  0  0  0  0
  3  2  1  0  0  0  0
  4  3  1  0  0  0  0
  5  4  1  0  0  0  0
  5 15  1  0  0  0  0
  5  6  1  0  0  0  0
  6 16  1  6  0  0  0
  6  1  1  0  0  0  0
  8  2  1  0  0  0  0
 11  3  1  0  0  0  0
 12  4  1  0  0  0  0
 13  4  1  0  0  0  0
 14  5  1  0  0  0  0
 17 23  1  0  0  0  0
 17 22  1  0  0  0  0
 18 17  2  0  0  0  0
 19 18  1  0  0  0  0
 19 20  2  0  0  0  0
 20 21  1  0  0  0  0
 21 22  2  0  0  0  0
 21 25  1  0  0  0  0
 24 19  1  0  0  0  0
 26 31  1  1  0  0  0
 26 27  1  0  0  0  0
 27 28  1  1  0  0  0
 27  6  1  0  0  0  0
 29 28  1  0  0  0  0
 30 33  1  6  0  0  0
 30 26  1  0  0  0  0
 30 29  1  0  0  0  0
 31 32  1  0  0  0  0
 34 33  1  0  0  0  0
M  END
>  <minimizedAffinity>
-4.83689213

$$$$

 OpenBabel03272506313D

 34 36  0  0  1  0  0  0  0  0999 V2000
   38.8370   24.3240   35.1350 C   0  0  1  0  0  0  0  0  0  0  0  0
   37.8660   25.0710   35.9300 C   0  0  0  0  0  0  0  0  0  0  0  0
   38.2930   26.4380   36.3900 C   0  0  0  0  0  0  0  0  0  0  0  0
   39.1010   27.2050   35.4280 C   0  0  0  0  0  0  0  0  0  0  0  0
   40.0790   26.4500   34.6140 C   0  0  0  0  0  0  0  0  0  0  0  0
   39.5390   25.1550   34.0940 C   0  0  2  0  0  0  0  0  0  0  0  0
   38.2400   23.5870   34.4980 H   0  0  0  0  0  0  0  0  0  0  0  0
   36.9640   25.2770   35.2690 H   0  0  0  0  0  0  0  0  0  0  0  0
   37.4100   24.5440   36.7710 H   0  0  0  0  0  0  0  0  0  0  0  0
   38.8810   26.2780   37.3250 H   0  0  0  0  0  0  0  0  0  0  0  0
   37.3790   27.0320   36.6390 H   0  0  0  0  0  0  0  0  0  0  0  0
   39.6330   28.0200   35.9780 H   0  0  0  0  0  0  0  0  0  0  0  0
   38.4160   27.7470   34.7390 H   0  0  0  0  0  0  0  0  0  0  0  0
   40.4530   27.0780   33.8180 H   0  0  0  0  0  0  0  0  0  0  0  0
   40.9600   26.2310   35.2870 H   0  0  0  0  0  0  0  0  0  0  0  0
   40.2490   24.6360   33.4620 H   0  0  0  0  0  0  0  0  0  0  0  0
   39.5730   23.1280   37.2260 C   0  0  0  0  0  0  0  0  0  0  0  0
   39.7420   23.4250   35.8740 C   0  0  0  0  0  0  0  0  0  0  0  0
   40.8060   22.8130   35.2510 C   0  0  0  0  0  0  0  0  0  0  0  0
   41.6150   21.9760   35.9530 N   0  0  0  0  0  0  0  0  0  0  0  0
   41.4100   21.7180   37.2600 C   0  0  0  0  0  0  0  0  0  0  0  0
   40.3740   22.3010   37.9090 N   0  0  0  0  0  0  0  0  0  0  0  0
   38.7800   23.5410   37.8280 H   0  0  0  0  0  0  0  0  0  0  0  0
   41.0840   22.9240   34.2270 H   0  0  0  0  0  0  0  0  0  0  0  0
   42.0690   21.0480   37.7950 H   0  0  0  0  0  0  0  0  0  0  0  0
   38.9880   25.9730   31.7740 C   0  0  2  0  0  3  0  0  0  0  0  0
   38.4450   25.5450   33.1100 C   0  0  1  0  0  3  0  0  0  0  0  0
   37.6680   24.4100   32.9060 O   0  0  0  0  0  0  0  0  0  0  0  0
   37.8810   23.9640   31.6050 C   0  0  0  0  0  2  0  0  0  0  0  0
   37.9680   25.2810   30.8630 C   0  0  2  0  0  3  0  0  0  0  0  0
   40.2320   25.5260   31.4530 O   0  0  0  0  0  0  0  0  0  0  0  0
   40.4310   24.5860   31.5580 H   0  0  0  0  0  0  0  0  0  0  0  0
   38.4180   25.1790   29.5700 O   0  0  0  0  0  0  0  0  0  0  0  0
   39.3880   25.3520   29.5000 H   0  0  0  0  0  0  0  0  0  0  0  0
  1  7  1  6  0  0  0
  1 18  1  0  0  0  0
  1  2  1  0  0  0  0
  2  3  1  0  0  0  0
  2  9  1  0  0  0  0
  3 11  1  0  0  0  0
  3 10  1  0  0  0  0
  4 12  1  0  0  0  0
  4  3  1  0  0  0  0
  5 15  1  0  0  0  0
  5  4  1  0  0  0  0
  6 16  1  6  0  0  0
  6  5  1  0  0  0  0
  6  1  1  0  0  0  0
  8  2  1  0  0  0  0
 13  4  1  0  0  0  0
 14  5  1  0  0  0  0
 17 23  1  0  0  0  0
 17 22  1  0  0  0  0
 18 17  2  0  0  0  0
 19 18  1  0  0  0  0
 19 20  2  0  0  0  0
 20 21  1  0  0  0  0
 21 25  1  0  0  0  0
 21 22  2  0  0  0  0
 24 19  1  0  0  0  0
 26 31  1  6  0  0  0
 26 27  1  0  0  0  0
 27 28  1  6  0  0  0
 27  6  1  0  0  0  0
 29 28  1  0  0  0  0
 30 33  1  6  0  0  0
 30 29  1  0  0  0  0
 30 26  1  0  0  0  0
 31 32  1  0  0  0  0
 34 33  1  0  0  0  0
M  END
>  <minimizedAffinity>
-4.82479048

$$$$

 OpenBabel03272506313D

 34 36  0  0  1  0  0  0  0  0999 V2000
   38.4470   24.7060   34.4750 C   0  0  1  0  0  0  0  0  0  0  0  0
   37.7660   25.0430   35.7220 C   0  0  0  0  0  0  0  0  0  0  0  0
   38.2870   26.2430   36.4630 C   0  0  0  0  0  0  0  0  0  0  0  0
   38.7280   27.3660   35.6180 C   0  0  0  0  0  0  0  0  0  0  0  0
   39.4090   27.0290   34.3500 C   0  0  0  0  0  0  0  0  0  0  0  0
   38.7600   25.9000   33.6120 C   0  0  2  0  0  0  0  0  0  0  0  0
   37.6940   24.1330   33.8350 H   0  0  0  0  0  0  0  0  0  0  0  0
   36.6950   25.3270   35.4650 H   0  0  0  0  0  0  0  0  0  0  0  0
   37.6160   24.2280   36.4340 H   0  0  0  0  0  0  0  0  0  0  0  0
   39.1480   25.8780   37.0730 H   0  0  0  0  0  0  0  0  0  0  0  0
   37.4890   26.6100   37.1540 H   0  0  0  0  0  0  0  0  0  0  0  0
   39.3890   28.0310   36.2260 H   0  0  0  0  0  0  0  0  0  0  0  0
   37.8460   28.0020   35.3840 H   0  0  0  0  0  0  0  0  0  0  0  0
   39.4940   27.9140   33.7350 H   0  0  0  0  0  0  0  0  0  0  0  0
   40.4640   26.7260   34.6190 H   0  0  0  0  0  0  0  0  0  0  0  0
   39.2420   25.6960   32.6630 H   0  0  0  0  0  0  0  0  0  0  0  0
   40.5310   23.6130   33.5760 C   0  0  0  0  0  0  0  0  0  0  0  0
   39.5610   23.7460   34.5700 C   0  0  0  0  0  0  0  0  0  0  0  0
   39.7110   22.9320   35.6700 C   0  0  0  0  0  0  0  0  0  0  0  0
   40.7580   22.0680   35.7390 N   0  0  0  0  0  0  0  0  0  0  0  0
   41.6710   21.9750   34.7520 C   0  0  0  0  0  0  0  0  0  0  0  0
   41.5590   22.7590   33.6530 N   0  0  0  0  0  0  0  0  0  0  0  0
   40.5280   24.1900   32.6660 H   0  0  0  0  0  0  0  0  0  0  0  0
   39.0670   22.9000   36.5210 H   0  0  0  0  0  0  0  0  0  0  0  0
   42.4940   21.2790   34.8320 H   0  0  0  0  0  0  0  0  0  0  0  0
   37.4930   27.4480   32.0760 C   0  0  2  0  0  3  0  0  0  0  0  0
   37.4000   26.4330   33.1840 C   0  0  1  0  0  3  0  0  0  0  0  0
   36.6790   25.3470   32.7010 O   0  0  0  0  0  0  0  0  0  0  0  0
   36.5300   25.4990   31.3250 C   0  0  0  0  0  2  0  0  0  0  0  0
   36.3010   26.9930   31.2270 C   0  0  2  0  0  3  0  0  0  0  0  0
   38.6160   27.4070   31.3090 O   0  0  0  0  0  0  0  0  0  0  0  0
   38.9020   26.5580   30.9480 H   0  0  0  0  0  0  0  0  0  0  0  0
   36.3560   27.4960   29.9510 O   0  0  0  0  0  0  0  0  0  0  0  0
   37.2470   27.8620   29.7350 H   0  0  0  0  0  0  0  0  0  0  0  0
  1  7  1  6  0  0  0
  1 18  1  0  0  0  0
  1  2  1  0  0  0  0
  2  9  1  0  0  0  0
  2  3  1  0  0  0  0
  3 10  1  0  0  0  0
  3 11  1  0  0  0  0
  4 12  1  0  0  0  0
  4  3  1  0  0  0  0
  5 15  1  0  0  0  0
  5  4  1  0  0  0  0
  6 16  1  6  0  0  0
  6  5  1  0  0  0  0
  6  1  1  0  0  0  0
  8  2  1  0  0  0  0
 13  4  1  0  0  0  0
 14  5  1  0  0  0  0
 17 22  2  0  0  0  0
 17 18  1  0  0  0  0
 18 19  2  0  0  0  0
 19 20  1  0  0  0  0
 19 24  1  0  0  0  0
 21 25  1  0  0  0  0
 21 20  2  0  0  0  0
 22 21  1  0  0  0  0
 23 17  1  0  0  0  0
 26 31  1  6  0  0  0
 26 27  1  0  0  0  0
 27 28  1  6  0  0  0
 27  6  1  0  0  0  0
 29 28  1  0  0  0  0
 30 33  1  6  0  0  0
 30 29  1  0  0  0  0
 30 26  1  0  0  0  0
 32 31  1  0  0  0  0
 34 33  1  0  0  0  0
M  END
>  <minimizedAffinity>
-4.79029608

$$$$

 OpenBabel03272506313D

 34 36  0  0  1  0  0  0  0  0999 V2000
   39.3770   24.6780   34.6490 C   0  0  1  0  0  0  0  0  0  0  0  0
   38.2500   24.6420   33.7210 C   0  0  0  0  0  0  0  0  0  0  0  0
   37.4090   25.8860   33.6440 C   0  0  0  0  0  0  0  0  0  0  0  0
   38.1470   27.1560   33.7480 C   0  0  0  0  0  0  0  0  0  0  0  0
   39.2950   27.1940   34.6800 C   0  0  0  0  0  0  0  0  0  0  0  0
   40.1520   25.9690   34.6120 C   0  0  2  0  0  0  0  0  0  0  0  0
   40.1420   23.9230   34.2640 H   0  0  0  0  0  0  0  0  0  0  0  0
   38.6710   24.5340   32.6700 H   0  0  0  0  0  0  0  0  0  0  0  0
   37.5890   23.7740   33.7860 H   0  0  0  0  0  0  0  0  0  0  0  0
   36.6750   25.8140   34.4820 H   0  0  0  0  0  0  0  0  0  0  0  0
   36.8490   25.8790   32.6760 H   0  0  0  0  0  0  0  0  0  0  0  0
   37.4270   27.9660   34.0200 H   0  0  0  0  0  0  0  0  0  0  0  0
   38.5080   27.4420   32.7360 H   0  0  0  0  0  0  0  0  0  0  0  0
   39.8690   28.0950   34.5150 H   0  0  0  0  0  0  0  0  0  0  0  0
   38.8650   27.2780   35.7220 H   0  0  0  0  0  0  0  0  0  0  0  0
   41.0140   26.0320   35.2650 H   0  0  0  0  0  0  0  0  0  0  0  0
   39.9460   23.2580   36.6490 C   0  0  0  0  0  0  0  0  0  0  0  0
   39.1230   24.1880   36.0150 C   0  0  0  0  0  0  0  0  0  0  0  0
   38.0520   24.6440   36.7500 C   0  0  0  0  0  0  0  0  0  0  0  0
   37.8510   24.1870   38.0140 N   0  0  0  0  0  0  0  0  0  0  0  0
   38.6760   23.2870   38.5860 C   0  0  0  0  0  0  0  0  0  0  0  0
   39.7410   22.8140   37.8950 N   0  0  0  0  0  0  0  0  0  0  0  0
   40.8160   22.8240   36.1840 H   0  0  0  0  0  0  0  0  0  0  0  0
   37.3230   25.3530   36.4260 H   0  0  0  0  0  0  0  0  0  0  0  0
   38.4940   22.9410   39.5930 H   0  0  0  0  0  0  0  0  0  0  0  0
   41.8750   27.0290   33.1070 C   0  0  2  0  0  3  0  0  0  0  0  0
   40.7840   26.0000   33.2280 C   0  0  1  0  0  3  0  0  0  0  0  0
   41.3580   24.7500   33.0220 O   0  0  0  0  0  0  0  0  0  0  0  0
   42.7420   24.9000   33.0260 C   0  0  0  0  0  2  0  0  0  0  0  0
   42.8880   26.2160   32.2930 C   0  0  2  0  0  3  0  0  0  0  0  0
   42.4660   27.4250   34.2670 O   0  0  0  0  0  0  0  0  0  0  0  0
   42.7720   26.7510   34.8880 H   0  0  0  0  0  0  0  0  0  0  0  0
   44.1470   26.7620   32.3450 O   0  0  0  0  0  0  0  0  0  0  0  0
   44.2310   27.4310   33.0660 H   0  0  0  0  0  0  0  0  0  0  0  0
  1  7  1  6  0  0  0
  1 18  1  0  0  0  0
  2  9  1  0  0  0  0
  2  1  1  0  0  0  0
  3  2  1  0  0  0  0
  3  4  1  0  0  0  0
  3 10  1  0  0  0  0
  4 12  1  0  0  0  0
  4  5  1  0  0  0  0
  5 15  1  0  0  0  0
  6  1  1  0  0  0  0
  6  5  1  0  0  0  0
  6 16  1  1  0  0  0
  8  2  1  0  0  0  0
 11  3  1  0  0  0  0
 13  4  1  0  0  0  0
 14  5  1  0  0  0  0
 17 22  1  0  0  0  0
 18 17  2  0  0  0  0
 18 19  1  0  0  0  0
 19 20  2  0  0  0  0
 20 21  1  0  0  0  0
 21 25  1  0  0  0  0
 22 21  2  0  0  0  0
 23 17  1  0  0  0  0
 24 19  1  0  0  0  0
 26 27  1  0  0  0  0
 26 31  1  1  0  0  0
 27 28  1  1  0  0  0
 27  6  1  0  0  0  0
 28 29  1  0  0  0  0
 30 33  1  1  0  0  0
 30 29  1  0  0  0  0
 30 26  1  0  0  0  0
 31 32  1  0  0  0  0
 33 34  1  0  0  0  0
M  END
>  <minimizedAffinity>
-4.76948118

$$$$

 OpenBabel03272506313D

 34 36  0  0  1  0  0  0  0  0999 V2000
   38.6980   26.3370   33.3410 C   0  0  1  0  0  0  0  0  0  0  0  0
   38.3210   26.2420   34.7480 C   0  0  0  0  0  0  0  0  0  0  0  0
   37.6870   27.4640   35.3520 C   0  0  0  0  0  0  0  0  0  0  0  0
   36.7770   28.2080   34.4650 C   0  0  0  0  0  0  0  0  0  0  0  0
   37.1500   28.2980   33.0370 C   0  0  0  0  0  0  0  0  0  0  0  0
   37.6630   27.0080   32.4770 C   0  0  2  0  0  0  0  0  0  0  0  0
   38.7040   25.2700   32.9310 H   0  0  0  0  0  0  0  0  0  0  0  0
   37.5130   25.4450   34.8360 H   0  0  0  0  0  0  0  0  0  0  0  0
   39.0820   25.8650   35.4360 H   0  0  0  0  0  0  0  0  0  0  0  0
   38.5290   28.1280   35.6600 H   0  0  0  0  0  0  0  0  0  0  0  0
   37.1200   27.1570   36.2660 H   0  0  0  0  0  0  0  0  0  0  0  0
   36.6420   29.2390   34.8760 H   0  0  0  0  0  0  0  0  0  0  0  0
   35.7630   27.7550   34.5340 H   0  0  0  0  0  0  0  0  0  0  0  0
   36.3160   28.6810   32.4650 H   0  0  0  0  0  0  0  0  0  0  0  0
   37.9680   29.0740   32.9640 H   0  0  0  0  0  0  0  0  0  0  0  0
   37.8880   27.0770   31.4200 H   0  0  0  0  0  0  0  0  0  0  0  0
   40.4930   27.1720   31.7830 C   0  0  0  0  0  0  0  0  0  0  0  0
   40.0740   26.7810   33.0550 C   0  0  0  0  0  0  0  0  0  0  0  0
   41.0240   26.8500   34.0500 C   0  0  0  0  0  0  0  0  0  0  0  0
   42.2800   27.2800   33.7610 N   0  0  0  0  0  0  0  0  0  0  0  0
   42.6380   27.6490   32.5150 C   0  0  0  0  0  0  0  0  0  0  0  0
   41.7330   27.5950   31.5090 N   0  0  0  0  0  0  0  0  0  0  0  0
   39.8480   27.1650   30.9200 H   0  0  0  0  0  0  0  0  0  0  0  0
   40.8800   26.5920   35.0750 H   0  0  0  0  0  0  0  0  0  0  0  0
   43.6450   27.9880   32.3130 H   0  0  0  0  0  0  0  0  0  0  0  0
   35.4440   26.3910   31.4500 C   0  0  2  0  0  3  0  0  0  0  0  0
   36.4700   26.0620   32.5000 C   0  0  1  0  0  3  0  0  0  0  0  0
   36.9630   24.7910   32.2260 O   0  0  0  0  0  0  0  0  0  0  0  0
   36.5090   24.4100   30.9660 C   0  0  0  0  0  2  0  0  0  0  0  0
   35.1020   24.9690   30.9900 C   0  0  2  0  0  3  0  0  0  0  0  0
   35.8830   27.1020   30.3760 O   0  0  0  0  0  0  0  0  0  0  0  0
   36.6820   26.8110   29.9190 H   0  0  0  0  0  0  0  0  0  0  0  0
   34.4650   24.9610   29.7730 O   0  0  0  0  0  0  0  0  0  0  0  0
   34.5430   25.8280   29.3080 H   0  0  0  0  0  0  0  0  0  0  0  0
  1  7  1  6  0  0  0
  1  2  1  0  0  0  0
  2  8  1  0  0  0  0
  2  3  1  0  0  0  0
  2  9  1  0  0  0  0
  3 10  1  0  0  0  0
  3 11  1  0  0  0  0
  4 13  1  0  0  0  0
  4 12  1  0  0  0  0
  4  3  1  0  0  0  0
  5  4  1  0  0  0  0
  6 16  1  6  0  0  0
  6 27  1  0  0  0  0
  6  5  1  0  0  0  0
  6  1  1  0  0  0  0
 14  5  1  0  0  0  0
 15  5  1  0  0  0  0
 17 18  1  0  0  0  0
 18  1  1  0  0  0  0
 18 19  2  0  0  0  0
 19 24  1  0  0  0  0
 20 19  1  0  0  0  0
 21 20  2  0  0  0  0
 22 17  2  0  0  0  0
 22 21  1  0  0  0  0
 23 17  1  0  0  0  0
 25 21  1  0  0  0  0
 26 31  1  6  0  0  0
 26 27  1  0  0  0  0
 27 28  1  6  0  0  0
 29 30  1  0  0  0  0
 29 28  1  0  0  0  0
 30 33  1  6  0  0  0
 30 26  1  0  0  0  0
 32 31  1  0  0  0  0
 34 33  1  0  0  0  0
M  END
>  <minimizedAffinity>
-4.71992302

$$$$
