
 OpenBabel03272507533D

 32 34  0  0  1  0  0  0  0  0999 V2000
   38.6500   22.5480   33.9620 N   0  0  0  0  0  0  0  0  0  0  0  0
   37.7670   21.6430   33.5540 C   0  0  0  0  0  0  0  0  0  0  0  0
   36.7360   22.0090   32.6920 C   0  0  0  0  0  0  0  0  0  0  0  0
   36.7340   23.3220   32.3320 C   0  0  0  0  0  0  0  0  0  0  0  0
   35.7880   23.6380   31.5450 O   0  0  0  0  0  0  0  0  0  0  0  0
   37.5930   24.2590   32.7120 N   0  0  0  0  0  0  0  0  0  0  0  0
   38.5760   23.8520   33.5510 C   0  0  0  0  0  0  0  0  0  0  0  0
   39.4070   24.7310   33.9270 O   0  0  0  0  0  0  0  0  0  0  0  0
   37.8530   20.6140   33.8990 H   0  0  0  0  0  0  0  0  0  0  0  0
   36.0260   21.2740   32.3670 H   0  0  0  0  0  0  0  0  0  0  0  0
   39.4590   22.2570   36.2350 C   0  0  0  0  0  0  0  0  0  0  0  0
   39.7320   22.2380   34.8530 C   0  0  0  0  0  0  0  0  0  0  0  0
   41.0310   21.9260   34.4130 C   0  0  0  0  0  0  0  0  0  0  0  0
   41.9580   21.6560   35.3570 N   0  0  0  0  0  0  0  0  0  0  0  0
   41.7030   21.6730   36.6560 C   0  0  0  0  0  0  0  0  0  0  0  0
   40.4640   21.9720   37.0900 N   0  0  0  0  0  0  0  0  0  0  0  0
   41.2090   21.9180   33.3630 H   0  0  0  0  0  0  0  0  0  0  0  0
   42.4390   21.4600   37.4100 H   0  0  0  0  0  0  0  0  0  0  0  0
   37.5540   23.7790   37.1650 C   0  0  0  0  0  0  0  0  0  0  0  0
   38.1360   24.8800   37.0550 O   0  0  0  0  0  0  0  0  0  0  0  0
   38.1880   22.5480   36.7740 N   0  0  0  0  0  0  0  0  0  0  0  0
   36.5540   23.8110   37.5660 H   0  0  0  0  0  0  0  0  0  0  0  0
   37.5280   21.7290   36.9440 H   0  0  0  0  0  0  0  0  0  0  0  0
   37.3250   25.7980   30.8010 C   0  0  1  0  0  3  0  0  0  0  0  0
   37.5240   25.6110   32.2920 C   0  0  1  0  0  3  0  0  0  0  0  0
   36.4470   26.3140   32.8070 O   0  0  0  0  0  0  0  0  0  0  0  0
   36.2940   27.4560   32.0790 C   0  0  0  0  0  2  0  0  0  0  0  0
   37.1430   27.3210   30.8090 C   0  0  2  0  0  3  0  0  0  0  0  0
   38.4190   25.4220   30.0570 O   0  0  0  0  0  0  0  0  0  0  0  0
   38.0830   24.8540   29.2920 H   0  0  0  0  0  0  0  0  0  0  0  0
   36.4750   27.7850   29.6990 O   0  0  0  0  0  0  0  0  0  0  0  0
   37.0750   27.7080   28.9390 H   0  0  0  0  0  0  0  0  0  0  0  0
  1 12  1  0  0  0  0
  2  9  1  0  0  0  0
  2  1  1  0  0  0  0
  3  2  2  0  0  0  0
  4  3  1  0  0  0  0
  4  6  1  0  0  0  0
  5  4  2  0  0  0  0
  6  7  1  0  0  0  0
  7  8  2  0  0  0  0
  7  1  1  0  0  0  0
 10  3  1  0  0  0  0
 11 21  1  0  0  0  0
 11 16  1  0  0  0  0
 12 11  2  0  0  0  0
 13 12  1  0  0  0  0
 13 14  2  0  0  0  0
 14 15  1  0  0  0  0
 15 16  2  0  0  0  0
 15 18  1  0  0  0  0
 17 13  1  0  0  0  0
 19 22  1  0  0  0  0
 20 19  2  0  0  0  0
 21 23  1  0  0  0  0
 21 19  1  0  0  0  0
 24 29  1  6  0  0  0
 24 28  1  0  0  0  0
 24 25  1  0  0  0  0
 25  6  1  6  0  0  0
 25 26  1  0  0  0  0
 27 26  1  0  0  0  0
 28 31  1  6  0  0  0
 28 27  1  0  0  0  0
 30 29  1  0  0  0  0
 32 31  1  0  0  0  0
M  END
>  <minimizedAffinity>
-5.63414001

$$$$

 OpenBabel03272507533D

 32 34  0  0  1  0  0  0  0  0999 V2000
   38.0570   23.4850   34.8860 N   0  0  0  0  0  0  0  0  0  0  0  0
   38.1240   24.5300   34.0690 C   0  0  0  0  0  0  0  0  0  0  0  0
   37.8160   24.3850   32.7190 C   0  0  0  0  0  0  0  0  0  0  0  0
   37.4580   23.1240   32.3500 C   0  0  0  0  0  0  0  0  0  0  0  0
   37.1790   23.0090   31.1150 O   0  0  0  0  0  0  0  0  0  0  0  0
   37.3760   22.0520   33.1280 N   0  0  0  0  0  0  0  0  0  0  0  0
   37.6860   22.2480   34.4320 C   0  0  0  0  0  0  0  0  0  0  0  0
   37.6150   21.2380   35.1930 O   0  0  0  0  0  0  0  0  0  0  0  0
   38.4230   25.5010   34.4610 H   0  0  0  0  0  0  0  0  0  0  0  0
   37.8730   25.2320   32.0640 H   0  0  0  0  0  0  0  0  0  0  0  0
   39.5950   23.0250   36.7110 C   0  0  0  0  0  0  0  0  0  0  0  0
   38.3650   23.5660   36.2860 C   0  0  0  0  0  0  0  0  0  0  0  0
   37.5060   24.1490   37.2350 C   0  0  0  0  0  0  0  0  0  0  0  0
   37.9170   24.1570   38.5210 N   0  0  0  0  0  0  0  0  0  0  0  0
   39.0710   23.6490   38.9230 C   0  0  0  0  0  0  0  0  0  0  0  0
   39.9020   23.0870   38.0240 N   0  0  0  0  0  0  0  0  0  0  0  0
   36.5840   24.5500   36.8860 H   0  0  0  0  0  0  0  0  0  0  0  0
   39.4010   23.6540   39.9450 H   0  0  0  0  0  0  0  0  0  0  0  0
   41.5870   22.9680   35.0260 C   0  0  0  0  0  0  0  0  0  0  0  0
   41.8340   24.1930   35.0020 O   0  0  0  0  0  0  0  0  0  0  0  0
   40.5280   22.4290   35.8370 N   0  0  0  0  0  0  0  0  0  0  0  0
   42.2130   22.3470   34.4070 H   0  0  0  0  0  0  0  0  0  0  0  0
   40.4830   21.3700   35.7180 H   0  0  0  0  0  0  0  0  0  0  0  0
   35.5430   20.4120   32.9250 C   0  0  1  0  0  3  0  0  0  0  0  0
   36.9930   20.7690   32.6660 C   0  0  1  0  0  3  0  0  0  0  0  0
   37.0800   20.6070   31.2930 O   0  0  0  0  0  0  0  0  0  0  0  0
   36.3750   19.4920   30.9490 C   0  0  0  0  0  2  0  0  0  0  0  0
   35.5180   19.0860   32.1540 C   0  0  2  0  0  3  0  0  0  0  0  0
   35.2590   20.2290   34.2580 O   0  0  0  0  0  0  0  0  0  0  0  0
   34.4110   20.7380   34.4590 H   0  0  0  0  0  0  0  0  0  0  0  0
   34.2490   18.7130   31.7730 O   0  0  0  0  0  0  0  0  0  0  0  0
   33.7720   18.4330   32.5720 H   0  0  0  0  0  0  0  0  0  0  0  0
  1 12  1  0  0  0  0
  2  9  1  0  0  0  0
  2  1  1  0  0  0  0
  3  2  2  0  0  0  0
  4  3  1  0  0  0  0
  4  6  1  0  0  0  0
  5  4  2  0  0  0  0
  6  7  1  0  0  0  0
  7  1  1  0  0  0  0
  7  8  2  0  0  0  0
 10  3  1  0  0  0  0
 11 16  1  0  0  0  0
 12 11  2  0  0  0  0
 12 13  1  0  0  0  0
 13 14  2  0  0  0  0
 14 15  1  0  0  0  0
 15 18  1  0  0  0  0
 16 15  2  0  0  0  0
 17 13  1  0  0  0  0
 19 21  1  0  0  0  0
 20 19  2  0  0  0  0
 21 11  1  0  0  0  0
 22 19  1  0  0  0  0
 23 21  1  0  0  0  0
 24 29  1  1  0  0  0
 25 24  1  0  0  0  0
 25  6  1  6  0  0  0
 26 25  1  0  0  0  0
 27 26  1  0  0  0  0
 27 28  1  0  0  0  0
 28 31  1  6  0  0  0
 28 24  1  0  0  0  0
 29 30  1  0  0  0  0
 31 32  1  0  0  0  0
M  END
>  <minimizedAffinity>
-5.60919476

$$$$

 OpenBabel03272507533D

 32 34  0  0  1  0  0  0  0  0999 V2000
   38.2870   22.8280   32.5590 N   0  0  0  0  0  0  0  0  0  0  0  0
   39.0240   23.8200   32.0720 C   0  0  0  0  0  0  0  0  0  0  0  0
   39.4770   24.8340   32.9130 C   0  0  0  0  0  0  0  0  0  0  0  0
   39.1030   24.7020   34.2160 C   0  0  0  0  0  0  0  0  0  0  0  0
   39.5260   25.6360   34.9680 O   0  0  0  0  0  0  0  0  0  0  0  0
   38.3710   23.7320   34.7460 N   0  0  0  0  0  0  0  0  0  0  0  0
   37.9550   22.7710   33.8860 C   0  0  0  0  0  0  0  0  0  0  0  0
   37.2540   21.8350   34.3720 O   0  0  0  0  0  0  0  0  0  0  0  0
   39.2710   23.8360   31.0120 H   0  0  0  0  0  0  0  0  0  0  0  0
   40.0720   25.6320   32.5130 H   0  0  0  0  0  0  0  0  0  0  0  0
   36.4110   21.7670   31.4360 C   0  0  0  0  0  0  0  0  0  0  0  0
   37.7850   21.7550   31.7470 C   0  0  0  0  0  0  0  0  0  0  0  0
   38.5910   20.7100   31.2620 C   0  0  0  0  0  0  0  0  0  0  0  0
   37.9920   19.7620   30.5110 N   0  0  0  0  0  0  0  0  0  0  0  0
   36.7010   19.7710   30.2160 C   0  0  0  0  0  0  0  0  0  0  0  0
   35.9190   20.7660   30.6770 N   0  0  0  0  0  0  0  0  0  0  0  0
   39.6270   20.7260   31.5120 H   0  0  0  0  0  0  0  0  0  0  0  0
   36.2210   19.0180   29.6190 H   0  0  0  0  0  0  0  0  0  0  0  0
   35.3460   24.1490   31.4790 C   0  0  0  0  0  0  0  0  0  0  0  0
   36.0570   24.6770   30.5960 O   0  0  0  0  0  0  0  0  0  0  0  0
   35.5230   22.7750   31.8660 N   0  0  0  0  0  0  0  0  0  0  0  0
   34.5990   24.7840   31.9260 H   0  0  0  0  0  0  0  0  0  0  0  0
   34.8220   22.5190   32.6270 H   0  0  0  0  0  0  0  0  0  0  0  0
   39.1180   23.1390   37.0220 C   0  0  1  0  0  3  0  0  0  0  0  0
   38.0230   23.6660   36.1180 C   0  0  1  0  0  3  0  0  0  0  0  0
   37.7500   24.8950   36.6970 O   0  0  0  0  0  0  0  0  0  0  0  0
   37.7740   24.7430   38.0520 C   0  0  0  0  0  2  0  0  0  0  0  0
   38.4140   23.3860   38.3620 C   0  0  2  0  0  3  0  0  0  0  0  0
   39.3860   21.8040   36.8280 O   0  0  0  0  0  0  0  0  0  0  0  0
   40.3890   21.7020   36.7700 H   0  0  0  0  0  0  0  0  0  0  0  0
   39.2910   23.4660   39.4200 O   0  0  0  0  0  0  0  0  0  0  0  0
   39.6320   22.5730   39.5900 H   0  0  0  0  0  0  0  0  0  0  0  0
  1  7  1  0  0  0  0
  2  1  1  0  0  0  0
  2  3  2  0  0  0  0
  3  4  1  0  0  0  0
  4  6  1  0  0  0  0
  4  5  2  0  0  0  0
  7  8  2  0  0  0  0
  7  6  1  0  0  0  0
  9  2  1  0  0  0  0
 10  3  1  0  0  0  0
 11 12  1  0  0  0  0
 11 21  1  0  0  0  0
 12  1  1  0  0  0  0
 13 17  1  0  0  0  0
 13 12  2  0  0  0  0
 14 13  1  0  0  0  0
 15 14  2  0  0  0  0
 15 16  1  0  0  0  0
 16 11  2  0  0  0  0
 18 15  1  0  0  0  0
 19 21  1  0  0  0  0
 19 22  1  0  0  0  0
 20 19  2  0  0  0  0
 21 23  1  0  0  0  0
 24 29  1  6  0  0  0
 24 28  1  0  0  0  0
 25  6  1  6  0  0  0
 25 26  1  0  0  0  0
 25 24  1  0  0  0  0
 26 27  1  0  0  0  0
 27 28  1  0  0  0  0
 28 31  1  1  0  0  0
 30 29  1  0  0  0  0
 31 32  1  0  0  0  0
M  END
>  <minimizedAffinity>
-5.49038458

$$$$

 OpenBabel03272507533D

 32 34  0  0  1  0  0  0  0  0999 V2000
   37.3820   23.3050   32.8060 N   0  0  0  0  0  0  0  0  0  0  0  0
   36.9820   24.5340   32.5010 C   0  0  0  0  0  0  0  0  0  0  0  0
   37.4280   25.6220   33.2480 C   0  0  0  0  0  0  0  0  0  0  0  0
   38.2730   25.3040   34.2670 C   0  0  0  0  0  0  0  0  0  0  0  0
   38.6710   26.3080   34.9380 O   0  0  0  0  0  0  0  0  0  0  0  0
   38.7000   24.0950   34.6080 N   0  0  0  0  0  0  0  0  0  0  0  0
   38.2350   23.0720   33.8510 C   0  0  0  0  0  0  0  0  0  0  0  0
   38.6290   21.9090   34.1600 O   0  0  0  0  0  0  0  0  0  0  0  0
   36.3030   24.6870   31.6640 H   0  0  0  0  0  0  0  0  0  0  0  0
   37.1020   26.6120   32.9960 H   0  0  0  0  0  0  0  0  0  0  0  0
   37.8460   21.6140   31.1240 C   0  0  0  0  0  0  0  0  0  0  0  0
   36.9560   22.1410   32.0800 C   0  0  0  0  0  0  0  0  0  0  0  0
   35.7110   21.5200   32.2780 C   0  0  0  0  0  0  0  0  0  0  0  0
   35.4340   20.4330   31.5270 N   0  0  0  0  0  0  0  0  0  0  0  0
   36.2680   19.9350   30.6270 C   0  0  0  0  0  0  0  0  0  0  0  0
   37.4640   20.5230   30.4280 N   0  0  0  0  0  0  0  0  0  0  0  0
   35.0580   21.9390   33.0080 H   0  0  0  0  0  0  0  0  0  0  0  0
   36.0510   19.0700   30.0270 H   0  0  0  0  0  0  0  0  0  0  0  0
   39.5640   23.2380   30.0180 C   0  0  0  0  0  0  0  0  0  0  0  0
   38.7600   23.9040   29.3300 O   0  0  0  0  0  0  0  0  0  0  0  0
   39.1200   22.1590   30.8600 N   0  0  0  0  0  0  0  0  0  0  0  0
   40.6000   23.5210   29.9400 H   0  0  0  0  0  0  0  0  0  0  0  0
   39.9540   21.7230   31.3610 H   0  0  0  0  0  0  0  0  0  0  0  0
   39.2610   22.5990   36.4890 C   0  0  1  0  0  3  0  0  0  0  0  0
   39.5820   23.8450   35.6880 C   0  0  1  0  0  3  0  0  0  0  0  0
   40.8930   23.6030   35.3100 O   0  0  0  0  0  0  0  0  0  0  0  0
   41.5470   23.0470   36.3680 C   0  0  0  0  0  2  0  0  0  0  0  0
   40.4960   22.6170   37.3980 C   0  0  2  0  0  3  0  0  0  0  0  0
   38.0970   22.7050   37.2140 O   0  0  0  0  0  0  0  0  0  0  0  0
   37.5670   21.8600   37.0600 H   0  0  0  0  0  0  0  0  0  0  0  0
   40.7840   21.3810   37.9330 O   0  0  0  0  0  0  0  0  0  0  0  0
   40.1070   21.1840   38.6010 H   0  0  0  0  0  0  0  0  0  0  0  0
  1  7  1  0  0  0  0
  2  1  1  0  0  0  0
  2  3  2  0  0  0  0
  3  4  1  0  0  0  0
  4  6  1  0  0  0  0
  4  5  2  0  0  0  0
  7  8  2  0  0  0  0
  7  6  1  0  0  0  0
  9  2  1  0  0  0  0
 10  3  1  0  0  0  0
 11 12  1  0  0  0  0
 12 13  2  0  0  0  0
 12  1  1  0  0  0  0
 13 17  1  0  0  0  0
 14 13  1  0  0  0  0
 15 14  2  0  0  0  0
 16 15  1  0  0  0  0
 16 11  2  0  0  0  0
 18 15  1  0  0  0  0
 19 21  1  0  0  0  0
 20 19  2  0  0  0  0
 21 11  1  0  0  0  0
 21 23  1  0  0  0  0
 22 19  1  0  0  0  0
 24 29  1  1  0  0  0
 24 28  1  0  0  0  0
 25  6  1  6  0  0  0
 25 24  1  0  0  0  0
 26 25  1  0  0  0  0
 26 27  1  0  0  0  0
 27 28  1  0  0  0  0
 28 31  1  6  0  0  0
 30 29  1  0  0  0  0
 31 32  1  0  0  0  0
M  END
>  <minimizedAffinity>
-5.48802519

$$$$

 OpenBabel03272507533D

 32 34  0  0  1  0  0  0  0  0999 V2000
   37.0220   25.0270   32.2090 N   0  0  0  0  0  0  0  0  0  0  0  0
   36.3710   23.9940   31.6860 C   0  0  0  0  0  0  0  0  0  0  0  0
   36.5280   22.7210   32.2270 C   0  0  0  0  0  0  0  0  0  0  0  0
   37.3730   22.6560   33.2930 C   0  0  0  0  0  0  0  0  0  0  0  0
   37.5040   21.4860   33.7750 O   0  0  0  0  0  0  0  0  0  0  0  0
   38.0430   23.6570   33.8480 N   0  0  0  0  0  0  0  0  0  0  0  0
   37.8560   24.8750   33.2840 C   0  0  0  0  0  0  0  0  0  0  0  0
   38.4860   25.8450   33.7980 O   0  0  0  0  0  0  0  0  0  0  0  0
   35.7150   24.1490   30.8310 H   0  0  0  0  0  0  0  0  0  0  0  0
   35.9990   21.8910   31.8010 H   0  0  0  0  0  0  0  0  0  0  0  0
   37.7340   26.7130   30.6100 C   0  0  0  0  0  0  0  0  0  0  0  0
   36.9080   26.3640   31.6960 C   0  0  0  0  0  0  0  0  0  0  0  0
   36.0250   27.3220   32.2250 C   0  0  0  0  0  0  0  0  0  0  0  0
   36.0200   28.5440   31.6510 N   0  0  0  0  0  0  0  0  0  0  0  0
   36.7950   28.8750   30.6300 C   0  0  0  0  0  0  0  0  0  0  0  0
   37.6450   27.9660   30.1160 N   0  0  0  0  0  0  0  0  0  0  0  0
   35.4120   27.0310   33.0460 H   0  0  0  0  0  0  0  0  0  0  0  0
   36.7930   29.8460   30.1710 H   0  0  0  0  0  0  0  0  0  0  0  0
   40.0190   25.4970   30.2750 C   0  0  0  0  0  0  0  0  0  0  0  0
   40.6490   26.0440   31.2060 O   0  0  0  0  0  0  0  0  0  0  0  0
   38.6430   25.8210   30.0040 N   0  0  0  0  0  0  0  0  0  0  0  0
   40.5660   24.7720   29.6950 H   0  0  0  0  0  0  0  0  0  0  0  0
   38.2910   25.2480   29.1770 H   0  0  0  0  0  0  0  0  0  0  0  0
   38.2060   23.4490   36.3020 C   0  0  1  0  0  3  0  0  0  0  0  0
   38.9080   23.5080   34.9600 C   0  0  1  0  0  3  0  0  0  0  0  0
   39.6260   22.3230   34.9690 O   0  0  0  0  0  0  0  0  0  0  0  0
   40.1370   22.1420   36.2200 C   0  0  0  0  0  2  0  0  0  0  0  0
   39.4350   23.1270   37.1620 C   0  0  2  0  0  3  0  0  0  0  0  0
   37.6310   24.6440   36.6660 O   0  0  0  0  0  0  0  0  0  0  0  0
   36.6950   24.4440   36.9870 H   0  0  0  0  0  0  0  0  0  0  0  0
   39.1080   22.5390   38.3620 O   0  0  0  0  0  0  0  0  0  0  0  0
   38.7040   23.2200   38.9250 H   0  0  0  0  0  0  0  0  0  0  0  0
  1  7  1  0  0  0  0
  2  1  1  0  0  0  0
  2  3  2  0  0  0  0
  3  4  1  0  0  0  0
  4  5  2  0  0  0  0
  4  6  1  0  0  0  0
  7  8  2  0  0  0  0
  7  6  1  0  0  0  0
  9  2  1  0  0  0  0
 10  3  1  0  0  0  0
 11 12  1  0  0  0  0
 12  1  1  0  0  0  0
 12 13  2  0  0  0  0
 13 17  1  0  0  0  0
 14 13  1  0  0  0  0
 15 14  2  0  0  0  0
 16 11  2  0  0  0  0
 16 15  1  0  0  0  0
 18 15  1  0  0  0  0
 19 20  2  0  0  0  0
 21 19  1  0  0  0  0
 21 11  1  0  0  0  0
 22 19  1  0  0  0  0
 23 21  1  0  0  0  0
 24 29  1  1  0  0  0
 24 28  1  0  0  0  0
 25  6  1  6  0  0  0
 25 26  1  0  0  0  0
 25 24  1  0  0  0  0
 26 27  1  0  0  0  0
 27 28  1  0  0  0  0
 28 31  1  1  0  0  0
 29 30  1  0  0  0  0
 31 32  1  0  0  0  0
M  END
>  <minimizedAffinity>
-5.35838032

$$$$

 OpenBabel03272507533D

 32 34  0  0  1  0  0  0  0  0999 V2000
   35.3990   30.3900   33.3450 N   0  0  0  0  0  0  0  0  0  0  0  0
   35.3100   31.1000   32.2260 C   0  0  0  0  0  0  0  0  0  0  0  0
   35.7430   30.5580   31.0170 C   0  0  0  0  0  0  0  0  0  0  0  0
   36.2370   29.2920   31.1060 C   0  0  0  0  0  0  0  0  0  0  0  0
   36.6260   28.8130   29.9940 O   0  0  0  0  0  0  0  0  0  0  0  0
   36.3440   28.5470   32.1980 N   0  0  0  0  0  0  0  0  0  0  0  0
   35.9100   29.1200   33.3460 C   0  0  0  0  0  0  0  0  0  0  0  0
   36.0030   28.4260   34.4020 O   0  0  0  0  0  0  0  0  0  0  0  0
   34.8990   32.1070   32.2580 H   0  0  0  0  0  0  0  0  0  0  0  0
   35.6690   31.1360   30.1170 H   0  0  0  0  0  0  0  0  0  0  0  0
   33.6970   30.5110   35.0760 C   0  0  0  0  0  0  0  0  0  0  0  0
   34.9760   30.8900   34.6230 C   0  0  0  0  0  0  0  0  0  0  0  0
   35.7690   31.7300   35.4260 C   0  0  0  0  0  0  0  0  0  0  0  0
   35.2490   32.1310   36.6060 N   0  0  0  0  0  0  0  0  0  0  0  0
   34.0470   31.7760   37.0330 C   0  0  0  0  0  0  0  0  0  0  0  0
   33.2790   30.9730   36.2730 N   0  0  0  0  0  0  0  0  0  0  0  0
   36.7310   32.0000   35.0600 H   0  0  0  0  0  0  0  0  0  0  0  0
   33.6310   32.0940   37.9710 H   0  0  0  0  0  0  0  0  0  0  0  0
   31.8940   29.9120   33.2860 C   0  0  0  0  0  0  0  0  0  0  0  0
   31.7150   31.0590   32.8230 O   0  0  0  0  0  0  0  0  0  0  0  0
   32.8320   29.6660   34.3490 N   0  0  0  0  0  0  0  0  0  0  0  0
   31.3070   29.1260   32.8410 H   0  0  0  0  0  0  0  0  0  0  0  0
   32.8370   28.6290   34.5960 H   0  0  0  0  0  0  0  0  0  0  0  0
   36.4200   26.3620   31.0520 C   0  0  1  0  0  3  0  0  0  0  0  0
   36.8720   27.2320   32.2080 C   0  0  1  0  0  3  0  0  0  0  0  0
   38.2500   27.1700   32.0820 O   0  0  0  0  0  0  0  0  0  0  0  0
   38.5920   25.8900   31.7590 C   0  0  0  0  0  2  0  0  0  0  0  0
   37.3140   25.1520   31.3450 C   0  0  2  0  0  3  0  0  0  0  0  0
   35.0850   26.0340   31.1100 O   0  0  0  0  0  0  0  0  0  0  0  0
   34.6950   26.1920   30.1920 H   0  0  0  0  0  0  0  0  0  0  0  0
   37.5200   24.3590   30.2390 O   0  0  0  0  0  0  0  0  0  0  0  0
   36.6890   23.8920   30.0520 H   0  0  0  0  0  0  0  0  0  0  0  0
  1  7  1  0  0  0  0
  1 12  1  0  0  0  0
  2  9  1  0  0  0  0
  2  1  1  0  0  0  0
  3  4  1  0  0  0  0
  3  2  2  0  0  0  0
  4  6  1  0  0  0  0
  5  4  2  0  0  0  0
  6  7  1  0  0  0  0
  7  8  2  0  0  0  0
 10  3  1  0  0  0  0
 11 16  1  0  0  0  0
 12 11  2  0  0  0  0
 12 13  1  0  0  0  0
 13 14  2  0  0  0  0
 14 15  1  0  0  0  0
 15 18  1  0  0  0  0
 16 15  2  0  0  0  0
 17 13  1  0  0  0  0
 19 21  1  0  0  0  0
 20 19  2  0  0  0  0
 21 23  1  0  0  0  0
 21 11  1  0  0  0  0
 22 19  1  0  0  0  0
 24 29  1  1  0  0  0
 24 28  1  0  0  0  0
 24 25  1  0  0  0  0
 25  6  1  6  0  0  0
 26 25  1  0  0  0  0
 27 26  1  0  0  0  0
 28 31  1  6  0  0  0
 28 27  1  0  0  0  0
 30 29  1  0  0  0  0
 32 31  1  0  0  0  0
M  END
>  <minimizedAffinity>
-5.23752689

$$$$

 OpenBabel03272507533D

 32 34  0  0  1  0  0  0  0  0999 V2000
   39.1400   23.5400   34.0120 N   0  0  0  0  0  0  0  0  0  0  0  0
   38.5350   24.6880   33.7260 C   0  0  0  0  0  0  0  0  0  0  0  0
   37.3930   24.6990   32.9290 C   0  0  0  0  0  0  0  0  0  0  0  0
   36.9860   23.4710   32.5010 C   0  0  0  0  0  0  0  0  0  0  0  0
   35.9420   23.5000   31.7760 O   0  0  0  0  0  0  0  0  0  0  0  0
   37.5560   22.3020   32.7610 N   0  0  0  0  0  0  0  0  0  0  0  0
   38.6640   22.3470   33.5390 C   0  0  0  0  0  0  0  0  0  0  0  0
   39.2240   21.2410   33.7990 O   0  0  0  0  0  0  0  0  0  0  0  0
   38.9390   25.6210   34.1170 H   0  0  0  0  0  0  0  0  0  0  0  0
   36.9090   25.6290   32.7020 H   0  0  0  0  0  0  0  0  0  0  0  0
   40.1710   22.9900   36.1420 C   0  0  0  0  0  0  0  0  0  0  0  0
   40.3220   23.4600   34.8230 C   0  0  0  0  0  0  0  0  0  0  0  0
   41.6000   23.8270   34.3650 C   0  0  0  0  0  0  0  0  0  0  0  0
   42.6280   23.7050   35.2320 N   0  0  0  0  0  0  0  0  0  0  0  0
   42.4890   23.2640   36.4720 C   0  0  0  0  0  0  0  0  0  0  0  0
   41.2700   22.9100   36.9220 N   0  0  0  0  0  0  0  0  0  0  0  0
   41.6850   24.1780   33.3630 H   0  0  0  0  0  0  0  0  0  0  0  0
   43.3050   23.1660   37.1650 H   0  0  0  0  0  0  0  0  0  0  0  0
   37.8530   23.3200   37.2930 C   0  0  0  0  0  0  0  0  0  0  0  0
   37.8910   24.5630   37.4170 O   0  0  0  0  0  0  0  0  0  0  0  0
   38.9350   22.5890   36.6900 N   0  0  0  0  0  0  0  0  0  0  0  0
   36.9640   22.8350   37.6630 H   0  0  0  0  0  0  0  0  0  0  0  0
   38.7070   21.5480   36.6780 H   0  0  0  0  0  0  0  0  0  0  0  0
   35.6950   20.6800   32.7860 C   0  0  1  0  0  3  0  0  0  0  0  0
   37.0700   21.0620   32.2760 C   0  0  1  0  0  3  0  0  0  0  0  0
   36.8790   21.0220   30.9040 O   0  0  0  0  0  0  0  0  0  0  0  0
   36.1030   19.9400   30.6130 C   0  0  0  0  0  2  0  0  0  0  0  0
   35.4980   19.4270   31.9240 C   0  0  2  0  0  3  0  0  0  0  0  0
   35.6800   20.3800   34.1290 O   0  0  0  0  0  0  0  0  0  0  0  0
   34.8960   20.8680   34.5390 H   0  0  0  0  0  0  0  0  0  0  0  0
   34.1730   19.0860   31.7740 O   0  0  0  0  0  0  0  0  0  0  0  0
   33.8600   18.7350   32.6250 H   0  0  0  0  0  0  0  0  0  0  0  0
  1 12  1  0  0  0  0
  2  1  1  0  0  0  0
  2  9  1  0  0  0  0
  3  2  2  0  0  0  0
  4  6  1  0  0  0  0
  4  3  1  0  0  0  0
  5  4  2  0  0  0  0
  6  7  1  0  0  0  0
  7  8  2  0  0  0  0
  7  1  1  0  0  0  0
 10  3  1  0  0  0  0
 11 21  1  0  0  0  0
 11 16  1  0  0  0  0
 12 11  2  0  0  0  0
 13 12  1  0  0  0  0
 13 14  2  0  0  0  0
 14 15  1  0  0  0  0
 15 16  2  0  0  0  0
 15 18  1  0  0  0  0
 17 13  1  0  0  0  0
 19 20  2  0  0  0  0
 19 22  1  0  0  0  0
 21 19  1  0  0  0  0
 23 21  1  0  0  0  0
 24 29  1  1  0  0  0
 25  6  1  1  0  0  0
 25 24  1  0  0  0  0
 26 25  1  0  0  0  0
 27 26  1  0  0  0  0
 27 28  1  0  0  0  0
 28 31  1  6  0  0  0
 28 24  1  0  0  0  0
 29 30  1  0  0  0  0
 31 32  1  0  0  0  0
M  END
>  <minimizedAffinity>
-5.23282671

$$$$

 OpenBabel03272507533D

 32 34  0  0  1  0  0  0  0  0999 V2000
   37.8340   24.8740   32.2010 N   0  0  0  0  0  0  0  0  0  0  0  0
   37.0010   23.9430   31.7510 C   0  0  0  0  0  0  0  0  0  0  0  0
   36.8700   22.7320   32.4280 C   0  0  0  0  0  0  0  0  0  0  0  0
   37.6470   22.6170   33.5410 C   0  0  0  0  0  0  0  0  0  0  0  0
   37.5150   21.5070   34.1470 O   0  0  0  0  0  0  0  0  0  0  0  0
   38.4910   23.5180   34.0280 N   0  0  0  0  0  0  0  0  0  0  0  0
   38.5810   24.6760   33.3310 C   0  0  0  0  0  0  0  0  0  0  0  0
   39.3810   25.5500   33.7790 O   0  0  0  0  0  0  0  0  0  0  0  0
   36.4210   24.1300   30.8490 H   0  0  0  0  0  0  0  0  0  0  0  0
   36.1960   21.9840   32.0600 H   0  0  0  0  0  0  0  0  0  0  0  0
   37.3160   27.2440   32.0680 C   0  0  0  0  0  0  0  0  0  0  0  0
   38.0190   26.1390   31.5480 C   0  0  0  0  0  0  0  0  0  0  0  0
   38.8540   26.3190   30.4310 C   0  0  0  0  0  0  0  0  0  0  0  0
   38.9360   27.5620   29.9110 N   0  0  0  0  0  0  0  0  0  0  0  0
   38.2760   28.6020   30.3970 C   0  0  0  0  0  0  0  0  0  0  0  0
   37.4720   28.4420   31.4660 N   0  0  0  0  0  0  0  0  0  0  0  0
   39.3740   25.4670   30.0600 H   0  0  0  0  0  0  0  0  0  0  0  0
   38.3380   29.5930   29.9860 H   0  0  0  0  0  0  0  0  0  0  0  0
   36.6390   27.5190   34.5730 C   0  0  0  0  0  0  0  0  0  0  0  0
   37.7140   27.9970   34.9960 O   0  0  0  0  0  0  0  0  0  0  0  0
   36.4630   27.1680   33.1890 N   0  0  0  0  0  0  0  0  0  0  0  0
   35.8590   27.3900   35.3050 H   0  0  0  0  0  0  0  0  0  0  0  0
   35.4820   26.7830   33.0340 H   0  0  0  0  0  0  0  0  0  0  0  0
   38.5070   23.4990   36.4960 C   0  0  1  0  0  3  0  0  0  0  0  0
   39.2670   23.3210   35.1970 C   0  0  1  0  0  3  0  0  0  0  0  0
   39.7670   22.0370   35.3400 O   0  0  0  0  0  0  0  0  0  0  0  0
   40.1830   21.8830   36.6290 C   0  0  0  0  0  2  0  0  0  0  0  0
   39.6220   23.0500   37.4480 C   0  0  2  0  0  3  0  0  0  0  0  0
   38.1320   24.8020   36.7310 O   0  0  0  0  0  0  0  0  0  0  0  0
   37.1630   24.7920   37.0120 H   0  0  0  0  0  0  0  0  0  0  0  0
   39.1460   22.6330   38.6700 O   0  0  0  0  0  0  0  0  0  0  0  0
   38.8410   23.4190   39.1530 H   0  0  0  0  0  0  0  0  0  0  0  0
  1  7  1  0  0  0  0
  2  1  1  0  0  0  0
  2  3  2  0  0  0  0
  3  4  1  0  0  0  0
  4  6  1  0  0  0  0
  4  5  2  0  0  0  0
  7  8  2  0  0  0  0
  7  6  1  0  0  0  0
  9  2  1  0  0  0  0
 10  3  1  0  0  0  0
 11 21  1  0  0  0  0
 12 11  1  0  0  0  0
 12  1  1  0  0  0  0
 13 12  2  0  0  0  0
 14 15  2  0  0  0  0
 14 13  1  0  0  0  0
 15 16  1  0  0  0  0
 16 11  2  0  0  0  0
 17 13  1  0  0  0  0
 18 15  1  0  0  0  0
 19 20  2  0  0  0  0
 19 22  1  0  0  0  0
 21 19  1  0  0  0  0
 23 21  1  0  0  0  0
 24 29  1  1  0  0  0
 24 28  1  0  0  0  0
 25  6  1  6  0  0  0
 25 26  1  0  0  0  0
 25 24  1  0  0  0  0
 26 27  1  0  0  0  0
 27 28  1  0  0  0  0
 28 31  1  1  0  0  0
 29 30  1  0  0  0  0
 31 32  1  0  0  0  0
M  END
>  <minimizedAffinity>
-5.15572166

$$$$

 OpenBabel03272507533D

 32 34  0  0  1  0  0  0  0  0999 V2000
   35.9920   26.5210   31.6500 N   0  0  0  0  0  0  0  0  0  0  0  0
   35.2820   25.6330   30.9630 C   0  0  0  0  0  0  0  0  0  0  0  0
   35.5080   24.2690   31.1370 C   0  0  0  0  0  0  0  0  0  0  0  0
   36.4810   23.9650   32.0400 C   0  0  0  0  0  0  0  0  0  0  0  0
   36.6730   22.7170   32.1870 O   0  0  0  0  0  0  0  0  0  0  0  0
   37.2130   24.8150   32.7480 N   0  0  0  0  0  0  0  0  0  0  0  0
   36.9540   26.1290   32.5400 C   0  0  0  0  0  0  0  0  0  0  0  0
   37.6420   26.9580   33.2060 O   0  0  0  0  0  0  0  0  0  0  0  0
   34.5240   25.9760   30.2610 H   0  0  0  0  0  0  0  0  0  0  0  0
   34.9320   23.5570   30.5790 H   0  0  0  0  0  0  0  0  0  0  0  0
   36.5150   28.5850   30.4780 C   0  0  0  0  0  0  0  0  0  0  0  0
   35.8120   27.9390   31.5140 C   0  0  0  0  0  0  0  0  0  0  0  0
   34.9810   28.6970   32.3580 C   0  0  0  0  0  0  0  0  0  0  0  0
   34.9040   30.0240   32.1220 N   0  0  0  0  0  0  0  0  0  0  0  0
   35.5630   30.6330   31.1500 C   0  0  0  0  0  0  0  0  0  0  0  0
   36.3630   29.9180   30.3350 N   0  0  0  0  0  0  0  0  0  0  0  0
   34.4610   28.1830   33.1330 H   0  0  0  0  0  0  0  0  0  0  0  0
   35.5040   31.6890   30.9590 H   0  0  0  0  0  0  0  0  0  0  0  0
   38.7620   27.5740   29.6160 C   0  0  0  0  0  0  0  0  0  0  0  0
   39.4810   27.8820   30.5910 O   0  0  0  0  0  0  0  0  0  0  0  0
   37.3630   27.9110   29.5740 N   0  0  0  0  0  0  0  0  0  0  0  0
   39.2520   27.0430   28.8160 H   0  0  0  0  0  0  0  0  0  0  0  0
   36.9320   27.5590   28.6650 H   0  0  0  0  0  0  0  0  0  0  0  0
   39.5900   24.9810   33.3910 C   0  0  1  0  0  3  0  0  0  0  0  0
   38.2110   24.4180   33.6720 C   0  0  1  0  0  3  0  0  0  0  0  0
   37.9920   24.8490   34.9700 O   0  0  0  0  0  0  0  0  0  0  0  0
   39.1560   24.7130   35.6670 C   0  0  0  0  0  2  0  0  0  0  0  0
   40.2830   24.4660   34.6580 C   0  0  2  0  0  3  0  0  0  0  0  0
   40.1650   24.4660   32.2530 O   0  0  0  0  0  0  0  0  0  0  0  0
   40.5390   25.2420   31.7250 H   0  0  0  0  0  0  0  0  0  0  0  0
   41.4150   25.1810   34.9760 O   0  0  0  0  0  0  0  0  0  0  0  0
   42.1010   24.9530   34.3260 H   0  0  0  0  0  0  0  0  0  0  0  0
  1  7  1  0  0  0  0
  2  3  2  0  0  0  0
  2  1  1  0  0  0  0
  3  4  1  0  0  0  0
  4  5  2  0  0  0  0
  4  6  1  0  0  0  0
  7  6  1  0  0  0  0
  7  8  2  0  0  0  0
  9  2  1  0  0  0  0
 10  3  1  0  0  0  0
 11 12  1  0  0  0  0
 12  1  1  0  0  0  0
 12 13  2  0  0  0  0
 13 17  1  0  0  0  0
 14 13  1  0  0  0  0
 15 14  2  0  0  0  0
 16 11  2  0  0  0  0
 16 15  1  0  0  0  0
 18 15  1  0  0  0  0
 19 20  2  0  0  0  0
 21 19  1  0  0  0  0
 21 11  1  0  0  0  0
 22 19  1  0  0  0  0
 23 21  1  0  0  0  0
 24 29  1  6  0  0  0
 24 25  1  0  0  0  0
 24 28  1  0  0  0  0
 25  6  1  6  0  0  0
 25 26  1  0  0  0  0
 26 27  1  0  0  0  0
 28 31  1  1  0  0  0
 28 27  1  0  0  0  0
 30 29  1  0  0  0  0
 32 31  1  0  0  0  0
M  END
>  <minimizedAffinity>
-5.12232733

$$$$
