
 OpenBabel03272506153D

 28 30  0  0  1  0  0  0  0  0999 V2000
   36.1180   28.9130   32.5720 C   0  0  0  0  0  0  0  0  0  0  0  0
   36.2680   29.0900   31.1860 C   0  0  0  0  0  0  0  0  0  0  0  0
   37.2000   28.2670   30.5000 C   0  0  0  0  0  0  0  0  0  0  0  0
   37.8900   27.3550   31.2320 N   0  0  0  0  0  0  0  0  0  0  0  0
   37.7110   27.2210   32.5660 C   0  0  0  0  0  0  0  0  0  0  0  0
   36.8330   27.9910   33.2430 N   0  0  0  0  0  0  0  0  0  0  0  0
   38.4190   26.2760   33.3530 N   0  0  0  0  0  0  0  0  0  0  0  0
   39.6210   25.8430   32.9050 C   0  0  0  0  0  0  0  0  0  0  0  0
   40.2560   24.9290   33.7100 C   0  0  0  0  0  0  0  0  0  0  0  0
   39.7400   24.4610   34.9010 C   0  0  0  0  0  0  0  0  0  0  0  0
   40.3300   23.6190   35.6400 O   0  0  0  0  0  0  0  0  0  0  0  0
   38.5170   24.9300   35.3140 N   0  0  0  0  0  0  0  0  0  0  0  0
   37.9040   25.8220   34.5200 C   0  0  0  0  0  0  0  0  0  0  0  0
   36.7800   26.2910   34.8440 O   0  0  0  0  0  0  0  0  0  0  0  0
   35.4020   29.5550   33.0660 H   0  0  0  0  0  0  0  0  0  0  0  0
   35.7260   29.8090   30.6060 H   0  0  0  0  0  0  0  0  0  0  0  0
   37.3780   28.3340   29.4410 H   0  0  0  0  0  0  0  0  0  0  0  0
   40.0530   26.1920   31.9720 H   0  0  0  0  0  0  0  0  0  0  0  0
   41.2220   24.5430   33.4070 H   0  0  0  0  0  0  0  0  0  0  0  0
   38.1370   23.0310   36.8530 C   0  0  1  0  0  3  0  0  0  0  0  0
   37.9430   24.4750   36.5410 C   0  0  1  0  0  3  0  0  0  0  0  0
   38.4000   25.2100   37.6500 O   0  0  0  0  0  0  0  0  0  0  0  0
   37.8890   24.4410   38.7030 C   0  0  0  0  0  2  0  0  0  0  0  0
   38.4520   23.0800   38.3420 C   0  0  2  0  0  3  0  0  0  0  0  0
   36.9270   22.3120   36.7360 O   0  0  0  0  0  0  0  0  0  0  0  0
   36.7710   22.0000   35.8230 H   0  0  0  0  0  0  0  0  0  0  0  0
   39.7990   23.0280   38.6070 O   0  0  0  0  0  0  0  0  0  0  0  0
   39.9930   22.6950   39.4970 H   0  0  0  0  0  0  0  0  0  0  0  0
  1 15  1  0  0  0  0
  1  6  1  0  0  0  0
  2  1  2  0  0  0  0
  3  2  1  0  0  0  0
  3  4  2  0  0  0  0
  4  5  1  0  0  0  0
  5  6  2  0  0  0  0
  5  7  1  0  0  0  0
  7 13  1  0  0  0  0
  8  7  1  0  0  0  0
  8  9  2  0  0  0  0
  9 10  1  0  0  0  0
 10 12  1  0  0  0  0
 10 11  2  0  0  0  0
 13 14  2  0  0  0  0
 13 12  1  0  0  0  0
 16  2  1  0  0  0  0
 17  3  1  0  0  0  0
 18  8  1  0  0  0  0
 19  9  1  0  0  0  0
 20 25  1  1  0  0  0
 20 24  1  0  0  0  0
 21 12  1  6  0  0  0
 21 20  1  0  0  0  0
 21 22  1  0  0  0  0
 22 23  1  0  0  0  0
 24 27  1  6  0  0  0
 24 23  1  0  0  0  0
 26 25  1  0  0  0  0
 27 28  1  0  0  0  0
M  END
>  <minimizedAffinity>
-5.44632816

$$$$

 OpenBabel03272506153D

 28 30  0  0  1  0  0  0  0  0999 V2000
   35.2250   19.8190   33.2250 C   0  0  0  0  0  0  0  0  0  0  0  0
   35.2260   19.1870   31.9700 C   0  0  0  0  0  0  0  0  0  0  0  0
   36.1190   19.6680   30.9760 C   0  0  0  0  0  0  0  0  0  0  0  0
   36.9200   20.7150   31.3050 N   0  0  0  0  0  0  0  0  0  0  0  0
   36.8830   21.2900   32.5280 C   0  0  0  0  0  0  0  0  0  0  0  0
   36.0430   20.8540   33.4910 N   0  0  0  0  0  0  0  0  0  0  0  0
   37.7090   22.3850   32.8970 N   0  0  0  0  0  0  0  0  0  0  0  0
   38.1810   23.1890   31.9150 C   0  0  0  0  0  0  0  0  0  0  0  0
   38.9740   24.2280   32.3340 C   0  0  0  0  0  0  0  0  0  0  0  0
   39.2910   24.4710   33.6560 C   0  0  0  0  0  0  0  0  0  0  0  0
   40.0230   25.4320   34.0370 O   0  0  0  0  0  0  0  0  0  0  0  0
   38.7880   23.6280   34.6160 N   0  0  0  0  0  0  0  0  0  0  0  0
   38.0140   22.6150   34.1950 C   0  0  0  0  0  0  0  0  0  0  0  0
   37.5220   21.8070   35.0270 O   0  0  0  0  0  0  0  0  0  0  0  0
   34.5330   19.4310   33.9590 H   0  0  0  0  0  0  0  0  0  0  0  0
   34.5960   18.3620   31.7070 H   0  0  0  0  0  0  0  0  0  0  0  0
   36.1880   19.2440   29.9890 H   0  0  0  0  0  0  0  0  0  0  0  0
   37.9500   23.0220   30.8670 H   0  0  0  0  0  0  0  0  0  0  0  0
   39.3840   24.9070   31.5970 H   0  0  0  0  0  0  0  0  0  0  0  0
   37.9690   24.3610   36.8320 C   0  0  1  0  0  3  0  0  0  0  0  0
   39.0880   23.8400   35.9960 C   0  0  1  0  0  3  0  0  0  0  0  0
   39.5740   22.6770   36.6220 O   0  0  0  0  0  0  0  0  0  0  0  0
   39.5650   23.0770   37.9640 C   0  0  0  0  0  2  0  0  0  0  0  0
   38.1250   23.5340   38.1010 C   0  0  2  0  0  3  0  0  0  0  0  0
   38.1950   25.7020   37.2140 O   0  0  0  0  0  0  0  0  0  0  0  0
   37.8680   26.3350   36.5440 H   0  0  0  0  0  0  0  0  0  0  0  0
   37.2780   22.4520   38.1420 O   0  0  0  0  0  0  0  0  0  0  0  0
   37.1010   22.1500   39.0460 H   0  0  0  0  0  0  0  0  0  0  0  0
  1  6  1  0  0  0  0
  1 15  1  0  0  0  0
  2  1  2  0  0  0  0
  3  4  2  0  0  0  0
  3  2  1  0  0  0  0
  4  5  1  0  0  0  0
  5  7  1  0  0  0  0
  5  6  2  0  0  0  0
  7 13  1  0  0  0  0
  8  9  2  0  0  0  0
  8  7  1  0  0  0  0
  9 10  1  0  0  0  0
 10 11  2  0  0  0  0
 10 12  1  0  0  0  0
 13 12  1  0  0  0  0
 13 14  2  0  0  0  0
 16  2  1  0  0  0  0
 17  3  1  0  0  0  0
 18  8  1  0  0  0  0
 19  9  1  0  0  0  0
 20 25  1  1  0  0  0
 20 24  1  0  0  0  0
 21 12  1  6  0  0  0
 21 22  1  0  0  0  0
 21 20  1  0  0  0  0
 22 23  1  0  0  0  0
 23 24  1  0  0  0  0
 24 27  1  6  0  0  0
 26 25  1  0  0  0  0
 27 28  1  0  0  0  0
M  END
>  <minimizedAffinity>
-5.44281101

$$$$

 OpenBabel03272506153D

 28 30  0  0  1  0  0  0  0  0999 V2000
   36.8320   20.3020   30.9850 C   0  0  0  0  0  0  0  0  0  0  0  0
   35.8370   19.3290   31.1830 C   0  0  0  0  0  0  0  0  0  0  0  0
   35.2500   19.2200   32.4710 C   0  0  0  0  0  0  0  0  0  0  0  0
   35.6900   20.0690   33.4360 N   0  0  0  0  0  0  0  0  0  0  0  0
   36.6500   20.9900   33.1970 C   0  0  0  0  0  0  0  0  0  0  0  0
   37.2260   21.1140   31.9820 N   0  0  0  0  0  0  0  0  0  0  0  0
   37.1280   21.8880   34.1870 N   0  0  0  0  0  0  0  0  0  0  0  0
   37.0080   21.5290   35.4870 C   0  0  0  0  0  0  0  0  0  0  0  0
   37.4870   22.4400   36.3970 C   0  0  0  0  0  0  0  0  0  0  0  0
   38.0590   23.6480   36.0500 C   0  0  0  0  0  0  0  0  0  0  0  0
   38.4990   24.4840   36.8930 O   0  0  0  0  0  0  0  0  0  0  0  0
   38.1580   23.9680   34.7190 N   0  0  0  0  0  0  0  0  0  0  0  0
   37.6860   23.0710   33.8380 C   0  0  0  0  0  0  0  0  0  0  0  0
   37.7490   23.3050   32.6010 O   0  0  0  0  0  0  0  0  0  0  0  0
   37.2600   20.3590   29.9940 H   0  0  0  0  0  0  0  0  0  0  0  0
   35.4880   18.6580   30.4250 H   0  0  0  0  0  0  0  0  0  0  0  0
   34.4820   18.5050   32.7110 H   0  0  0  0  0  0  0  0  0  0  0  0
   36.5630   20.5870   35.7900 H   0  0  0  0  0  0  0  0  0  0  0  0
   37.4210   22.2130   37.4530 H   0  0  0  0  0  0  0  0  0  0  0  0
   37.8740   26.4110   34.4480 C   0  0  1  0  0  3  0  0  0  0  0  0
   38.7420   25.2070   34.3120 C   0  0  1  0  0  3  0  0  0  0  0  0
   39.9450   25.4780   34.9900 O   0  0  0  0  0  0  0  0  0  0  0  0
   40.1760   26.8010   34.5960 C   0  0  0  0  0  2  0  0  0  0  0  0
   38.8570   27.4360   34.9950 C   0  0  2  0  0  3  0  0  0  0  0  0
   37.4680   26.8960   33.1850 O   0  0  0  0  0  0  0  0  0  0  0  0
   36.6540   26.4580   32.8660 H   0  0  0  0  0  0  0  0  0  0  0  0
   38.7820   27.5760   36.3600 O   0  0  0  0  0  0  0  0  0  0  0  0
   39.1060   28.4370   36.6660 H   0  0  0  0  0  0  0  0  0  0  0  0
  1  2  2  0  0  0  0
  1  6  1  0  0  0  0
  2  3  1  0  0  0  0
  3 17  1  0  0  0  0
  3  4  2  0  0  0  0
  5  4  1  0  0  0  0
  5  7  1  0  0  0  0
  6  5  2  0  0  0  0
  7  8  1  0  0  0  0
  8 18  1  0  0  0  0
  8  9  2  0  0  0  0
  9 19  1  0  0  0  0
 10  9  1  0  0  0  0
 10 11  2  0  0  0  0
 12 10  1  0  0  0  0
 13  7  1  0  0  0  0
 13 12  1  0  0  0  0
 14 13  2  0  0  0  0
 15  1  1  0  0  0  0
 16  2  1  0  0  0  0
 20 25  1  6  0  0  0
 20 24  1  0  0  0  0
 21 20  1  0  0  0  0
 21 12  1  1  0  0  0
 21 22  1  0  0  0  0
 23 22  1  0  0  0  0
 23 24  1  0  0  0  0
 24 27  1  1  0  0  0
 26 25  1  0  0  0  0
 27 28  1  0  0  0  0
M  END
>  <minimizedAffinity>
-5.40640402

$$$$

 OpenBabel03272506153D

 28 30  0  0  1  0  0  0  0  0999 V2000
   37.9300   26.7490   32.3470 C   0  0  0  0  0  0  0  0  0  0  0  0
   37.0590   27.7960   32.6920 C   0  0  0  0  0  0  0  0  0  0  0  0
   36.6480   27.9110   34.0460 C   0  0  0  0  0  0  0  0  0  0  0  0
   37.1260   26.9950   34.9270 N   0  0  0  0  0  0  0  0  0  0  0  0
   37.9640   26.0030   34.5470 C   0  0  0  0  0  0  0  0  0  0  0  0
   38.3690   25.8700   33.2660 N   0  0  0  0  0  0  0  0  0  0  0  0
   38.4770   25.0330   35.4480 N   0  0  0  0  0  0  0  0  0  0  0  0
   37.7730   24.7690   36.5740 C   0  0  0  0  0  0  0  0  0  0  0  0
   38.3220   23.8230   37.4040 C   0  0  0  0  0  0  0  0  0  0  0  0
   39.5070   23.1640   37.1450 C   0  0  0  0  0  0  0  0  0  0  0  0
   40.0080   22.2920   37.9150 O   0  0  0  0  0  0  0  0  0  0  0  0
   40.1850   23.4660   35.9900 N   0  0  0  0  0  0  0  0  0  0  0  0
   39.6400   24.3920   35.1860 C   0  0  0  0  0  0  0  0  0  0  0  0
   40.2150   24.7130   34.1100 O   0  0  0  0  0  0  0  0  0  0  0  0
   38.2230   26.6880   31.3080 H   0  0  0  0  0  0  0  0  0  0  0  0
   36.6790   28.5200   31.9990 H   0  0  0  0  0  0  0  0  0  0  0  0
   35.9840   28.6820   34.3990 H   0  0  0  0  0  0  0  0  0  0  0  0
   36.8400   25.2720   36.8050 H   0  0  0  0  0  0  0  0  0  0  0  0
   37.8070   23.5670   38.3220 H   0  0  0  0  0  0  0  0  0  0  0  0
   42.3990   22.7080   36.7950 C   0  0  1  0  0  3  0  0  0  0  0  0
   41.4150   22.8090   35.6790 C   0  0  1  0  0  3  0  0  0  0  0  0
   41.2150   21.5100   35.1770 O   0  0  0  0  0  0  0  0  0  0  0  0
   42.5270   21.0230   35.1770 C   0  0  0  0  0  2  0  0  0  0  0  0
   42.9140   21.2860   36.6200 C   0  0  2  0  0  3  0  0  0  0  0  0
   43.5090   23.5530   36.5780 O   0  0  0  0  0  0  0  0  0  0  0  0
   43.3560   24.4580   36.9160 H   0  0  0  0  0  0  0  0  0  0  0  0
   42.2990   20.3870   37.4570 O   0  0  0  0  0  0  0  0  0  0  0  0
   42.8400   19.6000   37.6230 H   0  0  0  0  0  0  0  0  0  0  0  0
  1  2  2  0  0  0  0
  1  6  1  0  0  0  0
  2  3  1  0  0  0  0
  3 17  1  0  0  0  0
  3  4  2  0  0  0  0
  5  4  1  0  0  0  0
  5  7  1  0  0  0  0
  6  5  2  0  0  0  0
  7  8  1  0  0  0  0
  8 18  1  0  0  0  0
  8  9  2  0  0  0  0
  9 19  1  0  0  0  0
 10  9  1  0  0  0  0
 10 11  2  0  0  0  0
 12 10  1  0  0  0  0
 13  7  1  0  0  0  0
 13 12  1  0  0  0  0
 14 13  2  0  0  0  0
 15  1  1  0  0  0  0
 16  2  1  0  0  0  0
 20 25  1  6  0  0  0
 21 12  1  1  0  0  0
 21 20  1  0  0  0  0
 22 21  1  0  0  0  0
 23 22  1  0  0  0  0
 23 24  1  0  0  0  0
 24 20  1  0  0  0  0
 24 27  1  1  0  0  0
 25 26  1  0  0  0  0
 27 28  1  0  0  0  0
M  END
>  <minimizedAffinity>
-5.15180206

$$$$

 OpenBabel03272506153D

 28 30  0  0  1  0  0  0  0  0999 V2000
   35.4850   21.4970   31.1270 C   0  0  0  0  0  0  0  0  0  0  0  0
   35.1760   20.3610   31.8940 C   0  0  0  0  0  0  0  0  0  0  0  0
   35.7280   20.2600   33.1980 C   0  0  0  0  0  0  0  0  0  0  0  0
   36.5240   21.2750   33.6230 N   0  0  0  0  0  0  0  0  0  0  0  0
   36.7920   22.3500   32.8480 C   0  0  0  0  0  0  0  0  0  0  0  0
   36.2810   22.4710   31.6040 N   0  0  0  0  0  0  0  0  0  0  0  0
   37.6200   23.4240   33.2680 N   0  0  0  0  0  0  0  0  0  0  0  0
   38.5460   23.1810   34.2250 C   0  0  0  0  0  0  0  0  0  0  0  0
   39.3150   24.2590   34.5900 C   0  0  0  0  0  0  0  0  0  0  0  0
   39.1840   25.5190   34.0420 C   0  0  0  0  0  0  0  0  0  0  0  0
   39.8950   26.5100   34.3820 O   0  0  0  0  0  0  0  0  0  0  0  0
   38.2300   25.7170   33.0750 N   0  0  0  0  0  0  0  0  0  0  0  0
   37.4830   24.6570   32.7260 C   0  0  0  0  0  0  0  0  0  0  0  0
   36.5910   24.7740   31.8440 O   0  0  0  0  0  0  0  0  0  0  0  0
   35.0500   21.5440   30.1380 H   0  0  0  0  0  0  0  0  0  0  0  0
   34.5500   19.5580   31.5610 H   0  0  0  0  0  0  0  0  0  0  0  0
   35.5450   19.4270   33.8540 H   0  0  0  0  0  0  0  0  0  0  0  0
   38.6720   22.2010   34.6750 H   0  0  0  0  0  0  0  0  0  0  0  0
   40.0740   24.1300   35.3510 H   0  0  0  0  0  0  0  0  0  0  0  0
   38.3660   27.0930   31.0240 C   0  0  1  0  0  3  0  0  0  0  0  0
   38.0570   27.0040   32.4790 C   0  0  1  0  0  3  0  0  0  0  0  0
   36.7570   27.5080   32.6640 O   0  0  0  0  0  0  0  0  0  0  0  0
   36.7850   28.6230   31.8170 C   0  0  0  0  0  2  0  0  0  0  0  0
   37.2270   27.9690   30.5220 C   0  0  2  0  0  3  0  0  0  0  0  0
   39.5510   27.8280   30.7940 O   0  0  0  0  0  0  0  0  0  0  0  0
   40.3480   27.2640   30.8360 H   0  0  0  0  0  0  0  0  0  0  0  0
   36.1970   27.2450   29.9710 O   0  0  0  0  0  0  0  0  0  0  0  0
   35.6700   27.7620   29.3430 H   0  0  0  0  0  0  0  0  0  0  0  0
  1  6  2  0  0  0  0
  1  2  1  0  0  0  0
  2  3  2  0  0  0  0
  3  4  1  0  0  0  0
  3 17  1  0  0  0  0
  5  7  1  0  0  0  0
  5  4  2  0  0  0  0
  6  5  1  0  0  0  0
  7  8  1  0  0  0  0
  8  9  2  0  0  0  0
  8 18  1  0  0  0  0
  9 19  1  0  0  0  0
 10 11  2  0  0  0  0
 10  9  1  0  0  0  0
 12 10  1  0  0  0  0
 13 12  1  0  0  0  0
 13  7  1  0  0  0  0
 14 13  2  0  0  0  0
 15  1  1  0  0  0  0
 16  2  1  0  0  0  0
 20 25  1  1  0  0  0
 20 21  1  0  0  0  0
 21 22  1  0  0  0  0
 21 12  1  6  0  0  0
 23 22  1  0  0  0  0
 24 27  1  1  0  0  0
 24 20  1  0  0  0  0
 24 23  1  0  0  0  0
 25 26  1  0  0  0  0
 28 27  1  0  0  0  0
M  END
>  <minimizedAffinity>
-5.14355707

$$$$

 OpenBabel03272506153D

 28 30  0  0  1  0  0  0  0  0999 V2000
   37.8900   24.3510   37.4530 C   0  0  0  0  0  0  0  0  0  0  0  0
   38.7670   23.5680   38.2240 C   0  0  0  0  0  0  0  0  0  0  0  0
   39.6490   22.6840   37.5490 C   0  0  0  0  0  0  0  0  0  0  0  0
   39.5900   22.6520   36.1930 N   0  0  0  0  0  0  0  0  0  0  0  0
   38.7280   23.4250   35.4940 C   0  0  0  0  0  0  0  0  0  0  0  0
   37.8770   24.2730   36.1100 N   0  0  0  0  0  0  0  0  0  0  0  0
   38.6450   23.4100   34.0760 N   0  0  0  0  0  0  0  0  0  0  0  0
   39.0510   22.2950   33.4240 C   0  0  0  0  0  0  0  0  0  0  0  0
   38.9480   22.3420   32.0550 C   0  0  0  0  0  0  0  0  0  0  0  0
   38.4680   23.4300   31.3560 C   0  0  0  0  0  0  0  0  0  0  0  0
   38.3750   23.4690   30.0930 O   0  0  0  0  0  0  0  0  0  0  0  0
   38.0690   24.5380   32.0610 N   0  0  0  0  0  0  0  0  0  0  0  0
   38.1750   24.4820   33.3990 C   0  0  0  0  0  0  0  0  0  0  0  0
   37.8240   25.4670   34.1030 O   0  0  0  0  0  0  0  0  0  0  0  0
   37.2300   25.0120   37.9960 H   0  0  0  0  0  0  0  0  0  0  0  0
   38.8160   23.5910   39.2940 H   0  0  0  0  0  0  0  0  0  0  0  0
   40.3540   22.0490   38.0590 H   0  0  0  0  0  0  0  0  0  0  0  0
   39.4330   21.4240   33.9460 H   0  0  0  0  0  0  0  0  0  0  0  0
   39.2560   21.4810   31.4750 H   0  0  0  0  0  0  0  0  0  0  0  0
   36.1200   25.9880   31.5910 C   0  0  1  0  0  3  0  0  0  0  0  0
   37.5650   25.6890   31.3810 C   0  0  1  0  0  3  0  0  0  0  0  0
   38.2860   26.8550   31.6980 O   0  0  0  0  0  0  0  0  0  0  0  0
   37.4750   27.8340   31.1090 C   0  0  0  0  0  2  0  0  0  0  0  0
   36.1410   27.5020   31.7500 C   0  0  2  0  0  3  0  0  0  0  0  0
   35.3680   25.7320   30.4230 O   0  0  0  0  0  0  0  0  0  0  0  0
   35.0740   24.8010   30.3710 H   0  0  0  0  0  0  0  0  0  0  0  0
   36.1240   27.9020   33.0650 O   0  0  0  0  0  0  0  0  0  0  0  0
   35.7750   28.7990   33.1790 H   0  0  0  0  0  0  0  0  0  0  0  0
  1 15  1  0  0  0  0
  1  2  1  0  0  0  0
  2 16  1  0  0  0  0
  3 17  1  0  0  0  0
  3  2  2  0  0  0  0
  4  3  1  0  0  0  0
  5  6  1  0  0  0  0
  5  4  2  0  0  0  0
  6  1  2  0  0  0  0
  7  5  1  0  0  0  0
  8 18  1  0  0  0  0
  8  7  1  0  0  0  0
  9  8  2  0  0  0  0
 10  9  1  0  0  0  0
 10 12  1  0  0  0  0
 11 10  2  0  0  0  0
 12 13  1  0  0  0  0
 13  7  1  0  0  0  0
 13 14  2  0  0  0  0
 19  9  1  0  0  0  0
 20 25  1  6  0  0  0
 20 24  1  0  0  0  0
 21 20  1  0  0  0  0
 21 22  1  0  0  0  0
 21 12  1  1  0  0  0
 23 22  1  0  0  0  0
 23 24  1  0  0  0  0
 24 27  1  1  0  0  0
 26 25  1  0  0  0  0
 27 28  1  0  0  0  0
M  END
>  <minimizedAffinity>
-5.13222075

$$$$

 OpenBabel03272506153D

 28 30  0  0  1  0  0  0  0  0999 V2000
   35.9110   26.7610   30.8650 C   0  0  0  0  0  0  0  0  0  0  0  0
   36.5890   27.9890   30.7710 C   0  0  0  0  0  0  0  0  0  0  0  0
   37.7140   28.2010   31.6100 C   0  0  0  0  0  0  0  0  0  0  0  0
   38.0660   27.1970   32.4550 N   0  0  0  0  0  0  0  0  0  0  0  0
   37.3820   26.0320   32.5080 C   0  0  0  0  0  0  0  0  0  0  0  0
   36.3080   25.8040   31.7230 N   0  0  0  0  0  0  0  0  0  0  0  0
   37.7290   24.9670   33.3820 N   0  0  0  0  0  0  0  0  0  0  0  0
   38.4180   25.2640   34.5090 C   0  0  0  0  0  0  0  0  0  0  0  0
   38.7240   24.1920   35.3120 C   0  0  0  0  0  0  0  0  0  0  0  0
   38.3720   22.8890   35.0250 C   0  0  0  0  0  0  0  0  0  0  0  0
   38.6570   21.9040   35.7680 O   0  0  0  0  0  0  0  0  0  0  0  0
   37.6740   22.6380   33.8690 N   0  0  0  0  0  0  0  0  0  0  0  0
   37.3800   23.6920   33.0920 C   0  0  0  0  0  0  0  0  0  0  0  0
   36.7410   23.5280   32.0180 O   0  0  0  0  0  0  0  0  0  0  0  0
   35.0580   26.6310   30.2140 H   0  0  0  0  0  0  0  0  0  0  0  0
   36.3140   28.7830   30.1070 H   0  0  0  0  0  0  0  0  0  0  0  0
   38.2920   29.1090   31.6050 H   0  0  0  0  0  0  0  0  0  0  0  0
   38.7090   26.2780   34.7610 H   0  0  0  0  0  0  0  0  0  0  0  0
   39.2740   24.3630   36.2280 H   0  0  0  0  0  0  0  0  0  0  0  0
   35.8230   21.0290   33.5470 C   0  0  1  0  0  3  0  0  0  0  0  0
   37.2880   21.3050   33.5300 C   0  0  1  0  0  3  0  0  0  0  0  0
   37.7750   20.9120   32.2700 O   0  0  0  0  0  0  0  0  0  0  0  0
   37.0850   19.7070   32.0860 C   0  0  0  0  0  2  0  0  0  0  0  0
   35.6590   20.1770   32.2960 C   0  0  2  0  0  3  0  0  0  0  0  0
   35.4710   20.1960   34.6320 O   0  0  0  0  0  0  0  0  0  0  0  0
   35.2910   20.7070   35.4460 H   0  0  0  0  0  0  0  0  0  0  0  0
   35.2230   20.8990   31.2100 O   0  0  0  0  0  0  0  0  0  0  0  0
   34.7760   20.3490   30.5500 H   0  0  0  0  0  0  0  0  0  0  0  0
  1  6  1  0  0  0  0
  2  1  2  0  0  0  0
  2  3  1  0  0  0  0
  3  4  2  0  0  0  0
  4  5  1  0  0  0  0
  5  7  1  0  0  0  0
  6  5  2  0  0  0  0
  7  8  1  0  0  0  0
  8 18  1  0  0  0  0
  8  9  2  0  0  0  0
  9 19  1  0  0  0  0
 10  9  1  0  0  0  0
 10 11  2  0  0  0  0
 12 10  1  0  0  0  0
 13  7  1  0  0  0  0
 13 12  1  0  0  0  0
 14 13  2  0  0  0  0
 15  1  1  0  0  0  0
 16  2  1  0  0  0  0
 17  3  1  0  0  0  0
 20 25  1  1  0  0  0
 21 20  1  0  0  0  0
 21 12  1  6  0  0  0
 22 21  1  0  0  0  0
 23 22  1  0  0  0  0
 23 24  1  0  0  0  0
 24 27  1  6  0  0  0
 24 20  1  0  0  0  0
 25 26  1  0  0  0  0
 28 27  1  0  0  0  0
M  END
>  <minimizedAffinity>
-5.10520792

$$$$

 OpenBabel03272506153D

 28 30  0  0  1  0  0  0  0  0999 V2000
   36.9970   20.7390   33.1150 C   0  0  0  0  0  0  0  0  0  0  0  0
   36.4670   19.8800   32.1370 C   0  0  0  0  0  0  0  0  0  0  0  0
   35.8380   20.4590   31.0040 C   0  0  0  0  0  0  0  0  0  0  0  0
   35.7880   21.8150   30.9370 N   0  0  0  0  0  0  0  0  0  0  0  0
   36.3130   22.6000   31.9040 C   0  0  0  0  0  0  0  0  0  0  0  0
   36.9160   22.0760   32.9930 N   0  0  0  0  0  0  0  0  0  0  0  0
   36.2740   24.0190   31.8590 N   0  0  0  0  0  0  0  0  0  0  0  0
   35.2990   24.6090   31.1280 C   0  0  0  0  0  0  0  0  0  0  0  0
   35.3160   25.9820   31.1230 C   0  0  0  0  0  0  0  0  0  0  0  0
   36.2440   26.7450   31.8030 C   0  0  0  0  0  0  0  0  0  0  0  0
   36.2540   28.0110   31.7950 O   0  0  0  0  0  0  0  0  0  0  0  0
   37.2140   26.1010   32.5300 N   0  0  0  0  0  0  0  0  0  0  0  0
   37.1890   24.7580   32.5290 C   0  0  0  0  0  0  0  0  0  0  0  0
   38.0520   24.1080   33.1780 O   0  0  0  0  0  0  0  0  0  0  0  0
   37.4680   20.2670   33.9660 H   0  0  0  0  0  0  0  0  0  0  0  0
   36.5040   18.8110   32.1860 H   0  0  0  0  0  0  0  0  0  0  0  0
   35.4050   19.8790   30.2070 H   0  0  0  0  0  0  0  0  0  0  0  0
   34.5570   24.0360   30.5820 H   0  0  0  0  0  0  0  0  0  0  0  0
   34.5620   26.5150   30.5560 H   0  0  0  0  0  0  0  0  0  0  0  0
   38.1680   26.6960   34.7340 C   0  0  1  0  0  3  0  0  0  0  0  0
   38.1960   26.8480   33.2510 C   0  0  1  0  0  3  0  0  0  0  0  0
   39.5050   26.5600   32.8240 O   0  0  0  0  0  0  0  0  0  0  0  0
   40.2530   27.2170   33.8090 C   0  0  0  0  0  2  0  0  0  0  0  0
   39.6520   26.6040   35.0590 C   0  0  2  0  0  3  0  0  0  0  0  0
   37.7060   27.8750   35.3610 O   0  0  0  0  0  0  0  0  0  0  0  0
   36.7320   27.8940   35.4370 H   0  0  0  0  0  0  0  0  0  0  0  0
   40.0860   25.3090   35.2190 O   0  0  0  0  0  0  0  0  0  0  0  0
   40.8850   25.2470   35.7640 H   0  0  0  0  0  0  0  0  0  0  0  0
  1 15  1  0  0  0  0
  2 16  1  0  0  0  0
  2  1  2  0  0  0  0
  3  2  1  0  0  0  0
  4  3  2  0  0  0  0
  4  5  1  0  0  0  0
  5  6  2  0  0  0  0
  6  1  1  0  0  0  0
  7  5  1  0  0  0  0
  7 13  1  0  0  0  0
  8  7  1  0  0  0  0
  9  8  2  0  0  0  0
  9 10  1  0  0  0  0
 10 12  1  0  0  0  0
 11 10  2  0  0  0  0
 13 12  1  0  0  0  0
 13 14  2  0  0  0  0
 17  3  1  0  0  0  0
 18  8  1  0  0  0  0
 19  9  1  0  0  0  0
 20 24  1  0  0  0  0
 20 25  1  1  0  0  0
 21 12  1  6  0  0  0
 21 20  1  0  0  0  0
 22 21  1  0  0  0  0
 22 23  1  0  0  0  0
 23 24  1  0  0  0  0
 24 27  1  6  0  0  0
 25 26  1  0  0  0  0
 27 28  1  0  0  0  0
M  END
>  <minimizedAffinity>
-5.0578084

$$$$

 OpenBabel03272506153D

 28 30  0  0  1  0  0  0  0  0999 V2000
   39.5540   22.5080   37.0280 C   0  0  0  0  0  0  0  0  0  0  0  0
   40.8560   22.4090   37.5470 C   0  0  0  0  0  0  0  0  0  0  0  0
   41.9260   22.9450   36.7830 C   0  0  0  0  0  0  0  0  0  0  0  0
   41.6210   23.5220   35.5920 N   0  0  0  0  0  0  0  0  0  0  0  0
   40.3500   23.5940   35.1350 C   0  0  0  0  0  0  0  0  0  0  0  0
   39.3140   23.0920   35.8400 N   0  0  0  0  0  0  0  0  0  0  0  0
   40.0040   24.1910   33.8940 N   0  0  0  0  0  0  0  0  0  0  0  0
   40.9510   24.2520   32.9280 C   0  0  0  0  0  0  0  0  0  0  0  0
   40.5560   24.8420   31.7520 C   0  0  0  0  0  0  0  0  0  0  0  0
   39.2910   25.3490   31.5310 C   0  0  0  0  0  0  0  0  0  0  0  0
   38.9310   25.8920   30.4450 O   0  0  0  0  0  0  0  0  0  0  0  0
   38.3650   25.2640   32.5420 N   0  0  0  0  0  0  0  0  0  0  0  0
   38.7620   24.6860   33.6870 C   0  0  0  0  0  0  0  0  0  0  0  0
   37.9580   24.5780   34.6520 O   0  0  0  0  0  0  0  0  0  0  0  0
   38.7610   22.0900   37.6330 H   0  0  0  0  0  0  0  0  0  0  0  0
   41.1010   21.9540   38.4850 H   0  0  0  0  0  0  0  0  0  0  0  0
   42.9540   22.9140   37.1030 H   0  0  0  0  0  0  0  0  0  0  0  0
   41.9530   23.8630   33.0720 H   0  0  0  0  0  0  0  0  0  0  0  0
   41.2660   24.9220   30.9390 H   0  0  0  0  0  0  0  0  0  0  0  0
   36.9370   27.2490   32.1670 C   0  0  1  0  0  3  0  0  0  0  0  0
   37.0430   25.7750   32.3590 C   0  0  1  0  0  3  0  0  0  0  0  0
   36.3780   25.1610   31.2820 O   0  0  0  0  0  0  0  0  0  0  0  0
   35.2430   25.9740   31.1770 C   0  0  0  0  0  2  0  0  0  0  0  0
   35.8960   27.3380   31.0590 C   0  0  2  0  0  3  0  0  0  0  0  0
   36.3570   27.8730   33.2940 O   0  0  0  0  0  0  0  0  0  0  0  0
   37.0240   28.1020   33.9710 H   0  0  0  0  0  0  0  0  0  0  0  0
   36.4530   27.5000   29.8130 O   0  0  0  0  0  0  0  0  0  0  0  0
   35.8450   27.9140   29.1820 H   0  0  0  0  0  0  0  0  0  0  0  0
  1  2  1  0  0  0  0
  1 15  1  0  0  0  0
  2 16  1  0  0  0  0
  3 17  1  0  0  0  0
  3  2  2  0  0  0  0
  4  3  1  0  0  0  0
  5  4  2  0  0  0  0
  5  6  1  0  0  0  0
  6  1  2  0  0  0  0
  7  5  1  0  0  0  0
  8 18  1  0  0  0  0
  8  7  1  0  0  0  0
  9  8  2  0  0  0  0
 10  9  1  0  0  0  0
 10 12  1  0  0  0  0
 11 10  2  0  0  0  0
 12 13  1  0  0  0  0
 13  7  1  0  0  0  0
 13 14  2  0  0  0  0
 19  9  1  0  0  0  0
 20 21  1  0  0  0  0
 20 25  1  1  0  0  0
 21 12  1  6  0  0  0
 22 21  1  0  0  0  0
 23 22  1  0  0  0  0
 24 27  1  6  0  0  0
 24 23  1  0  0  0  0
 24 20  1  0  0  0  0
 25 26  1  0  0  0  0
 28 27  1  0  0  0  0
M  END
>  <minimizedAffinity>
-4.92903996

$$$$
