
 OpenBabel03272507513D

 32 34  0  0  1  0  0  0  0  0999 V2000
   36.5080   31.1500   48.6830 N   0  0  0  0  0  0  0  0  0  0  0  0
   36.8240   32.0270   49.6290 C   0  0  0  0  0  0  0  0  0  0  0  0
   37.8900   32.9040   49.4430 C   0  0  0  0  0  0  0  0  0  0  0  0
   38.5330   32.7730   48.2490 C   0  0  0  0  0  0  0  0  0  0  0  0
   39.5010   33.5820   48.0950 O   0  0  0  0  0  0  0  0  0  0  0  0
   38.2520   31.9150   47.2770 N   0  0  0  0  0  0  0  0  0  0  0  0
   37.2090   31.0830   47.5090 C   0  0  0  0  0  0  0  0  0  0  0  0
   36.9240   30.2560   46.5940 O   0  0  0  0  0  0  0  0  0  0  0  0
   36.2480   32.0540   50.5520 H   0  0  0  0  0  0  0  0  0  0  0  0
   38.1410   33.6100   50.2100 H   0  0  0  0  0  0  0  0  0  0  0  0
   35.2940   29.5450   50.0470 C   0  0  0  0  0  0  0  0  0  0  0  0
   35.4250   30.2150   48.8140 C   0  0  0  0  0  0  0  0  0  0  0  0
   34.5100   29.9420   47.7820 C   0  0  0  0  0  0  0  0  0  0  0  0
   33.5400   29.0390   48.0360 N   0  0  0  0  0  0  0  0  0  0  0  0
   33.4140   28.4080   49.1930 C   0  0  0  0  0  0  0  0  0  0  0  0
   34.2850   28.6600   50.1890 N   0  0  0  0  0  0  0  0  0  0  0  0
   34.6330   30.4630   46.8610 H   0  0  0  0  0  0  0  0  0  0  0  0
   32.6430   27.6880   49.3990 H   0  0  0  0  0  0  0  0  0  0  0  0
   37.4560   29.2420   51.4770 C   0  0  0  0  0  0  0  0  0  0  0  0
   38.0530   28.4390   50.7280 O   0  0  0  0  0  0  0  0  0  0  0  0
   36.1540   29.7570   51.1440 N   0  0  0  0  0  0  0  0  0  0  0  0
   37.9740   29.5230   52.3790 H   0  0  0  0  0  0  0  0  0  0  0  0
   35.8220   30.4250   51.9060 H   0  0  0  0  0  0  0  0  0  0  0  0
   38.5160   32.8160   44.9940 C   0  0  1  0  0  3  0  0  0  0  0  0
   38.9730   31.8390   46.0590 C   0  0  1  0  0  3  0  0  0  0  0  0
   40.3180   32.1560   46.1710 O   0  0  0  0  0  0  0  0  0  0  0  0
   40.8070   32.3830   44.9180 C   0  0  0  0  0  2  0  0  0  0  0  0
   39.6150   32.5260   43.9660 C   0  0  2  0  0  3  0  0  0  0  0  0
   37.2660   32.5310   44.4970 O   0  0  0  0  0  0  0  0  0  0  0  0
   36.7420   33.3930   44.4800 H   0  0  0  0  0  0  0  0  0  0  0  0
   39.7970   33.5570   43.0730 O   0  0  0  0  0  0  0  0  0  0  0  0
   39.0320   33.5700   42.4760 H   0  0  0  0  0  0  0  0  0  0  0  0
  1 12  1  0  0  0  0
  1  2  1  0  0  0  0
  2  9  1  0  0  0  0
  3  2  2  0  0  0  0
  3 10  1  0  0  0  0
  4  3  1  0  0  0  0
  5  4  2  0  0  0  0
  6  7  1  0  0  0  0
  6  4  1  0  0  0  0
  7  1  1  0  0  0  0
  8  7  2  0  0  0  0
 11 16  1  0  0  0  0
 11 21  1  0  0  0  0
 12 11  2  0  0  0  0
 13 14  2  0  0  0  0
 13 12  1  0  0  0  0
 14 15  1  0  0  0  0
 15 18  1  0  0  0  0
 15 16  2  0  0  0  0
 17 13  1  0  0  0  0
 19 22  1  0  0  0  0
 20 19  2  0  0  0  0
 21 19  1  0  0  0  0
 21 23  1  0  0  0  0
 24 29  1  6  0  0  0
 24 25  1  0  0  0  0
 25 26  1  0  0  0  0
 25  6  1  1  0  0  0
 27 26  1  0  0  0  0
 28 31  1  6  0  0  0
 28 27  1  0  0  0  0
 28 24  1  0  0  0  0
 30 29  1  0  0  0  0
 32 31  1  0  0  0  0
M  END
>  <minimizedAffinity>
-6.32897854

>  <minimizedRMSD>
1.38282335

$$$$
