
 OpenBabel03272508013D

 28 30  0  0  1  0  0  0  0  0999 V2000
   38.9260   30.8990   45.7860 C   0  0  0  0  0  0  0  0  0  0  0  0
   40.1180   31.4920   46.0540 C   0  0  0  0  0  0  0  0  0  0  0  0
   40.9480   31.4310   44.9370 C   0  0  0  0  0  0  0  0  0  0  0  0
   40.1950   30.7820   44.0160 N   0  0  0  0  0  0  0  0  0  0  0  0
   39.0070   30.4680   44.5090 N   0  0  0  0  0  0  0  0  0  0  0  0
   40.3740   31.9500   47.0210 H   0  0  0  0  0  0  0  0  0  0  0  0
   41.9530   31.8230   44.8660 H   0  0  0  0  0  0  0  0  0  0  0  0
   37.7740   30.7440   46.6760 C   0  0  0  0  0  0  0  0  0  0  0  0
   38.0010   30.9680   48.0640 C   0  0  0  0  0  0  0  0  0  0  0  0
   36.9120   30.8240   48.9350 C   0  0  0  0  0  0  0  0  0  0  0  0
   35.7060   30.4800   48.3950 N   0  0  0  0  0  0  0  0  0  0  0  0
   35.5300   30.2770   47.0730 C   0  0  0  0  0  0  0  0  0  0  0  0
   36.5770   30.4140   46.2410 N   0  0  0  0  0  0  0  0  0  0  0  0
   38.9840   31.2370   48.4210 H   0  0  0  0  0  0  0  0  0  0  0  0
   34.5360   30.0020   46.7080 H   0  0  0  0  0  0  0  0  0  0  0  0
   37.1170   31.0510   50.3860 C   0  0  0  0  0  0  0  0  0  0  0  0
   36.6060   32.3000   50.6540 F   0  0  0  0  0  0  0  0  0  0  0  0
   36.4490   30.1160   51.1650 F   0  0  0  0  0  0  0  0  0  0  0  0
   38.4570   31.0510   50.7240 F   0  0  0  0  0  0  0  0  0  0  0  0
   40.1240   29.1430   42.1730 C   0  0  2  0  0  3  0  0  0  0  0  0
   40.6310   30.4700   42.6580 C   0  0  1  0  0  3  0  0  0  0  0  0
   40.1140   31.3920   41.7470 O   0  0  0  0  0  0  0  0  0  0  0  0
   38.8090   30.9670   41.4780 C   0  0  0  0  0  2  0  0  0  0  0  0
   38.9780   29.4860   41.2850 C   0  0  2  0  0  3  0  0  0  0  0  0
   39.8840   28.2100   43.1430 O   0  0  0  0  0  0  0  0  0  0  0  0
   40.3800   27.3560   43.0080 H   0  0  0  0  0  0  0  0  0  0  0  0
   37.8290   28.7740   41.6180 O   0  0  0  0  0  0  0  0  0  0  0  0
   37.1310   28.9800   40.9240 H   0  0  0  0  0  0  0  0  0  0  0  0
  1  2  1  0  0  0  0
  1  8  1  0  0  0  0
  2  6  1  0  0  0  0
  3  2  2  0  0  0  0
  4  5  1  0  0  0  0
  4  3  1  0  0  0  0
  5  1  2  0  0  0  0
  7  3  1  0  0  0  0
  8  9  1  0  0  0  0
  9 14  1  0  0  0  0
  9 10  2  0  0  0  0
 10 16  1  0  0  0  0
 11 10  1  0  0  0  0
 12 11  2  0  0  0  0
 13  8  2  0  0  0  0
 13 12  1  0  0  0  0
 15 12  1  0  0  0  0
 16 17  1  0  0  0  0
 16 19  1  0  0  0  0
 16 18  1  0  0  0  0
 20 21  1  0  0  0  0
 20 25  1  1  0  0  0
 21  4  1  1  0  0  0
 22 21  1  0  0  0  0
 23 22  1  0  0  0  0
 24 23  1  0  0  0  0
 24 27  1  1  0  0  0
 24 20  1  0  0  0  0
 26 25  1  0  0  0  0
 28 27  1  0  0  0  0
M  END
>  <minimizedAffinity>
-6.14535379

>  <minimizedRMSD>
0.875640571

$$$$
