
 OpenBabel03272507523D

 32 34  0  0  1  0  0  0  0  0999 V2000
   37.2540   31.7090   48.5100 N   0  0  0  0  0  0  0  0  0  0  0  0
   37.5510   32.5640   49.4820 C   0  0  0  0  0  0  0  0  0  0  0  0
   38.5730   33.4950   49.3080 C   0  0  0  0  0  0  0  0  0  0  0  0
   39.1960   33.4360   48.0980 C   0  0  0  0  0  0  0  0  0  0  0  0
   40.1240   34.2930   47.9560 O   0  0  0  0  0  0  0  0  0  0  0  0
   38.9330   32.6030   47.1000 N   0  0  0  0  0  0  0  0  0  0  0  0
   37.9330   31.7170   47.3210 C   0  0  0  0  0  0  0  0  0  0  0  0
   37.6650   30.9120   46.3800 O   0  0  0  0  0  0  0  0  0  0  0  0
   36.9930   32.5310   50.4160 H   0  0  0  0  0  0  0  0  0  0  0  0
   38.8080   34.1820   50.0960 H   0  0  0  0  0  0  0  0  0  0  0  0
   36.0080   30.1490   49.8960 C   0  0  0  0  0  0  0  0  0  0  0  0
   36.2170   30.7220   48.6260 C   0  0  0  0  0  0  0  0  0  0  0  0
   35.4180   30.3090   47.5450 C   0  0  0  0  0  0  0  0  0  0  0  0
   34.4800   29.3700   47.7910 N   0  0  0  0  0  0  0  0  0  0  0  0
   34.2810   28.8300   48.9830 C   0  0  0  0  0  0  0  0  0  0  0  0
   35.0410   29.2170   50.0260 N   0  0  0  0  0  0  0  0  0  0  0  0
   35.5970   30.7590   46.5970 H   0  0  0  0  0  0  0  0  0  0  0  0
   33.5360   28.0820   49.1830 H   0  0  0  0  0  0  0  0  0  0  0  0
   37.6560   29.7680   51.8840 C   0  0  0  0  0  0  0  0  0  0  0  0
   37.9260   28.5680   51.6630 O   0  0  0  0  0  0  0  0  0  0  0  0
   36.7500   30.5040   51.0430 N   0  0  0  0  0  0  0  0  0  0  0  0
   38.1430   30.2130   52.7360 H   0  0  0  0  0  0  0  0  0  0  0  0
   36.6570   31.5050   51.3960 H   0  0  0  0  0  0  0  0  0  0  0  0
   39.9970   31.2280   45.3480 C   0  0  1  0  0  3  0  0  0  0  0  0
   39.6310   32.6040   45.8670 C   0  0  1  0  0  3  0  0  0  0  0  0
   38.9090   33.1210   44.8020 O   0  0  0  0  0  0  0  0  0  0  0  0
   39.5320   32.7550   43.6460 C   0  0  0  0  0  2  0  0  0  0  0  0
   40.5530   31.6650   43.9870 C   0  0  2  0  0  3  0  0  0  0  0  0
   40.9540   30.5980   46.1090 O   0  0  0  0  0  0  0  0  0  0  0  0
   40.6370   29.6540   46.2720 H   0  0  0  0  0  0  0  0  0  0  0  0
   40.5440   30.6500   43.0560 O   0  0  0  0  0  0  0  0  0  0  0  0
   41.2350   30.0150   43.3050 H   0  0  0  0  0  0  0  0  0  0  0  0
  1 12  1  0  0  0  0
  1  2  1  0  0  0  0
  2  9  1  0  0  0  0
  3  2  2  0  0  0  0
  3 10  1  0  0  0  0
  4  3  1  0  0  0  0
  5  4  2  0  0  0  0
  6  7  1  0  0  0  0
  6  4  1  0  0  0  0
  7  1  1  0  0  0  0
  8  7  2  0  0  0  0
 11 16  1  0  0  0  0
 11 21  1  0  0  0  0
 12 11  2  0  0  0  0
 13 14  2  0  0  0  0
 13 12  1  0  0  0  0
 14 15  1  0  0  0  0
 15 18  1  0  0  0  0
 15 16  2  0  0  0  0
 17 13  1  0  0  0  0
 19 22  1  0  0  0  0
 20 19  2  0  0  0  0
 21 23  1  0  0  0  0
 21 19  1  0  0  0  0
 24 25  1  0  0  0  0
 24 29  1  1  0  0  0
 25  6  1  1  0  0  0
 26 25  1  0  0  0  0
 27 28  1  0  0  0  0
 27 26  1  0  0  0  0
 28 31  1  6  0  0  0
 28 24  1  0  0  0  0
 29 30  1  0  0  0  0
 31 32  1  0  0  0  0
M  END
>  <minimizedAffinity>
-6.94601631

>  <minimizedRMSD>
1.43078542

$$$$
